EDEL-CRBN-0001
 OpenBabel09062619263D

 25 27  0  0  0  0  0  0  0  0999 V2000
    5.3605    0.3577   -1.7086 O   0  0  0  0  0  0  0  0  0  0  0  0
    4.9084   -0.2329   -0.7309 C   0  0  0  0  0  0  0  0  0  0  0  0
    3.5880   -0.2085   -0.2699 N   0  0  0  0  0  0  0  0  0  0  0  0
    5.7702   -1.0180   -0.0004 N   0  0  0  0  0  0  0  0  0  0  0  0
    2.5587    0.5418   -0.9357 C   0  0  1  0  0  0  0  0  0  0  0  0
    3.2207   -1.1450    0.7893 C   0  0  0  0  0  0  0  0  0  0  0  0
    5.6073   -1.4132    1.2971 C   0  0  0  0  0  0  0  0  0  0  0  0
    1.2138    0.1373   -0.8847 C   0  0  0  0  0  0  0  0  0  0  0  0
    2.8520    1.7162   -1.6412 C   0  0  0  0  0  0  0  0  0  0  0  0
    4.2590   -1.1508    1.8914 C   0  0  0  0  0  0  0  0  0  0  0  0
    6.5370   -1.8789    1.9500 O   0  0  0  0  0  0  0  0  0  0  0  0
    0.1863    0.8807   -1.4981 C   0  0  1  0  0  0  0  0  0  0  0  0
    1.8461    2.4589   -2.2677 C   0  0  0  0  0  0  0  0  0  0  0  0
    0.5200    2.0431   -2.1988 C   0  0  0  0  0  0  0  0  0  0  0  0
   -1.2535    0.4011   -1.4578 C   0  0  0  0  0  0  0  0  0  0  0  0
   -1.6751   -0.0554   -0.1267 N   0  0  0  0  0  0  0  0  0  0  0  0
   -2.7070   -1.1226   -0.1492 C   0  0  2  0  0  0  0  0  0  0  0  0
   -1.8485    1.0280    0.8411 C   0  0  0  0  0  0  0  0  0  0  0  0
   -3.8497   -0.8837   -1.1515 C   0  0  0  0  0  0  0  0  0  0  0  0
   -3.3012   -1.5676    1.2227 C   0  0  0  0  0  0  0  0  0  0  0  0
   -3.2556    1.5947    1.0503 C   0  0  0  0  0  0  0  0  0  0  0  0
   -4.2086    0.1645   -1.6638 O   0  0  0  0  0  0  0  0  0  0  0  0
   -4.4864   -2.0297   -1.4878 O   0  0  0  0  0  0  0  0  0  0  0  0
   -3.6837   -0.5611    2.2312 N   0  0  0  0  0  0  0  0  0  0  0  0
   -4.2836    0.6312    1.6503 C   0  0  0  0  0  0  0  0  0  0  0  0
  1  2  2  0  0  0  0
  2  3  1  0  0  0  0
  2  4  1  0  0  0  0
  3  6  1  0  0  0  0
  4  7  1  0  0  0  0
  5  3  1  1  0  0  0
  5  8  5  0  0  0  0
  5  9  5  0  0  0  0
  6 10  1  0  0  0  0
  7 11  2  0  0  0  0
  7 10  1  0  0  0  0
  8 12  5  0  0  0  0
  9 13  5  0  0  0  0
 12 14  5  0  0  0  0
 12 15  1  6  0  0  0
 13 14  5  0  0  0  0
 15 16  1  0  0  0  0
 16 17  1  0  0  0  0
 16 18  1  0  0  0  0
 17 19  1  6  0  0  0
 17 20  1  0  0  0  0
 18 21  1  0  0  0  0
 19 22  2  0  0  0  0
 19 23  1  0  0  0  0
 20 24  1  0  0  0  0
 21 25  1  0  0  0  0
 24 25  1  0  0  0  0
M  END
>  <ID>
EDEL-CRBN-0001

>  <Stereoisomer>
original

>  <MW>
346.16

>  <HBD>
3

>  <HBA>
5

>  <RotBonds>
4

>  <cLogP>
0.38

$$$$
EDEL-CRBN-0001_ent
 OpenBabel09062619263D

 25 27  0  0  0  0  0  0  0  0999 V2000
    3.1535   -2.2796    0.8189 O   0  0  0  0  0  0  0  0  0  0  0  0
    3.9030   -1.3080    0.7792 C   0  0  0  0  0  0  0  0  0  0  0  0
    3.7069   -0.1121    0.0736 N   0  0  0  0  0  0  0  0  0  0  0  0
    5.1105   -1.3998    1.4355 N   0  0  0  0  0  0  0  0  0  0  0  0
    2.5101    0.1770   -0.6694 C   0  0  2  0  0  0  0  0  0  0  0  0
    4.7106    0.9311    0.2747 C   0  0  0  0  0  0  0  0  0  0  0  0
    6.2663   -0.8072    1.0066 C   0  0  0  0  0  0  0  0  0  0  0  0
    1.3021   -0.4926   -0.4162 C   0  0  0  0  0  0  0  0  0  0  0  0
    2.5051    1.1423   -1.6896 C   0  0  0  0  0  0  0  0  0  0  0  0
    6.0991    0.3624    0.0809 C   0  0  0  0  0  0  0  0  0  0  0  0
    7.3689   -1.2578    1.3049 O   0  0  0  0  0  0  0  0  0  0  0  0
    0.1247   -0.2080   -1.1347 C   0  0  1  0  0  0  0  0  0  0  0  0
    1.3447    1.4346   -2.4150 C   0  0  0  0  0  0  0  0  0  0  0  0
    0.1597    0.7634   -2.1386 C   0  0  0  0  0  0  0  0  0  0  0  0
   -1.1567   -0.9620   -0.8371 C   0  0  0  0  0  0  0  0  0  0  0  0
   -2.2801   -0.0736   -0.4833 N   0  0  0  0  0  0  0  0  0  0  0  0
   -3.5958   -0.7264   -0.7329 C   0  0  1  0  0  0  0  0  0  0  0  0
   -2.1177    0.5343    0.8424 C   0  0  0  0  0  0  0  0  0  0  0  0
   -3.6963   -2.1370   -0.1409 C   0  0  0  0  0  0  0  0  0  0  0  0
   -4.8662    0.1006   -0.3992 C   0  0  0  0  0  0  0  0  0  0  0  0
   -2.9632    1.8000    0.9852 C   0  0  0  0  0  0  0  0  0  0  0  0
   -3.6122   -3.1804   -0.7729 O   0  0  0  0  0  0  0  0  0  0  0  0
   -3.8317   -2.1829    1.2016 O   0  0  0  0  0  0  0  0  0  0  0  0
   -5.0994    0.3999    1.0186 N   0  0  0  0  0  0  0  0  0  0  0  0
   -4.3827    1.5741    1.4982 C   0  0  0  0  0  0  0  0  0  0  0  0
  1  2  2  0  0  0  0
  2  3  1  0  0  0  0
  2  4  1  0  0  0  0
  3  6  1  0  0  0  0
  4  7  1  0  0  0  0
  5  3  1  6  0  0  0
  5  8  5  0  0  0  0
  5  9  5  0  0  0  0
  6 10  1  0  0  0  0
  7 11  2  0  0  0  0
  7 10  1  0  0  0  0
  8 12  5  0  0  0  0
  9 13  5  0  0  0  0
 12 14  5  0  0  0  0
 12 15  1  6  0  0  0
 13 14  5  0  0  0  0
 15 16  1  0  0  0  0
 16 17  1  0  0  0  0
 16 18  1  0  0  0  0
 17 19  1  1  0  0  0
 17 20  1  0  0  0  0
 18 21  1  0  0  0  0
 19 22  2  0  0  0  0
 19 23  1  0  0  0  0
 20 24  1  0  0  0  0
 21 25  1  0  0  0  0
 24 25  1  0  0  0  0
M  END
>  <ID>
EDEL-CRBN-0001_ent

>  <Stereoisomer>
enantiomer

>  <MW>
346.16

>  <HBD>
3

>  <HBA>
5

>  <RotBonds>
4

>  <cLogP>
0.38

$$$$
EDEL-CRBN-0002
 OpenBabel09062619263D

 27 29  0  0  0  0  0  0  0  0999 V2000
    2.7515    0.6308   -2.8750 O   0  0  0  0  0  0  0  0  0  0  0  0
    3.3626   -0.0576   -2.0609 C   0  0  0  0  0  0  0  0  0  0  0  0
    3.0590   -0.2141   -0.7078 N   0  0  0  0  0  0  0  0  0  0  0  0
    4.4329   -0.8024   -2.5040 N   0  0  0  0  0  0  0  0  0  0  0  0
    2.0129    0.5444   -0.0949 C   0  0  2  0  0  0  0  0  0  0  0  0
    3.6182   -1.3596   -0.0077 C   0  0  0  0  0  0  0  0  0  0  0  0
    5.3550   -1.4621   -1.7390 C   0  0  0  0  0  0  0  0  0  0  0  0
    1.9210    1.9391   -0.2596 C   0  0  2  0  0  0  0  0  0  0  0  0
    1.0604   -0.1005    0.7137 C   0  0  0  0  0  0  0  0  0  0  0  0
    5.1079   -1.4501   -0.2595 C   0  0  0  0  0  0  0  0  0  0  0  0
    6.3540   -1.9759   -2.2353 O   0  0  0  0  0  0  0  0  0  0  0  0
    2.9411    2.5988   -0.9032 O   0  0  0  0  0  0  0  0  0  0  0  0
    0.8978    2.6557    0.3706 C   0  0  0  0  0  0  0  0  0  0  0  0
    0.0098    0.6071    1.3250 C   0  0  2  0  0  0  0  0  0  0  0  0
    2.4754    3.5429   -1.8667 C   0  0  0  0  0  0  0  0  0  0  0  0
   -0.0532    1.9936    1.1485 C   0  0  0  0  0  0  0  0  0  0  0  0
   -1.0184   -0.1171    2.1725 C   0  0  0  0  0  0  0  0  0  0  0  0
   -2.2090   -0.6543    1.4800 N   0  0  0  0  0  0  0  0  0  0  0  0
   -3.1162    0.4042    0.9492 C   0  0  2  0  0  0  0  0  0  0  0  0
   -1.8535   -1.6819    0.4927 C   0  0  0  0  0  0  0  0  0  0  0  0
   -3.6006    1.3088    2.0886 C   0  0  0  0  0  0  0  0  0  0  0  0
   -4.4087   -0.0731    0.2302 C   0  0  0  0  0  0  0  0  0  0  0  0
   -3.0290   -2.5933    0.1443 C   0  0  0  0  0  0  0  0  0  0  0  0
   -3.3775    2.5058    2.2006 O   0  0  0  0  0  0  0  0  0  0  0  0
   -4.3174    0.6719    3.0401 O   0  0  0  0  0  0  0  0  0  0  0  0
   -4.1634   -0.6739   -1.0844 N   0  0  0  0  0  0  0  0  0  0  0  0
   -3.8776   -2.1028   -1.0259 C   0  0  0  0  0  0  0  0  0  0  0  0
  1  2  2  0  0  0  0
  2  3  1  0  0  0  0
  2  4  1  0  0  0  0
  3  6  1  0  0  0  0
  4  7  1  0  0  0  0
  5  3  1  1  0  0  0
  5  8  5  0  0  0  0
  5  9  5  0  0  0  0
  6 10  1  0  0  0  0
  7 11  2  0  0  0  0
  7 10  1  0  0  0  0
  8 12  1  1  0  0  0
  8 13  5  0  0  0  0
  9 14  5  0  0  0  0
 12 15  1  0  0  0  0
 13 16  5  0  0  0  0
 14 17  1  1  0  0  0
 14 16  5  0  0  0  0
 17 18  1  0  0  0  0
 18 19  1  0  0  0  0
 18 20  1  0  0  0  0
 19 21  1  1  0  0  0
 19 22  1  0  0  0  0
 20 23  1  0  0  0  0
 21 24  2  0  0  0  0
 21 25  1  0  0  0  0
 22 26  1  0  0  0  0
 23 27  1  0  0  0  0
 26 27  1  0  0  0  0
M  END
>  <ID>
EDEL-CRBN-0002

>  <Stereoisomer>
original

>  <MW>
376.17

>  <HBD>
3

>  <HBA>
6

>  <RotBonds>
5

>  <cLogP>
0.39

$$$$
EDEL-CRBN-0002_ent
 OpenBabel09062619263D

 27 29  0  0  0  0  0  0  0  0999 V2000
    4.0834    0.2596   -1.6522 O   0  0  0  0  0  0  0  0  0  0  0  0
    4.1599   -0.4684   -0.6651 C   0  0  0  0  0  0  0  0  0  0  0  0
    3.2446   -0.5438    0.3854 N   0  0  0  0  0  0  0  0  0  0  0  0
    5.2161   -1.3474   -0.5765 N   0  0  0  0  0  0  0  0  0  0  0  0
    2.1353    0.3552    0.4611 C   0  0  2  0  0  0  0  0  0  0  0  0
    3.2710   -1.7228    1.2361 C   0  0  0  0  0  0  0  0  0  0  0  0
    5.5883   -2.0861    0.5129 C   0  0  0  0  0  0  0  0  0  0  0  0
    2.3052    1.7462    0.3164 C   0  0  2  0  0  0  0  0  0  0  0  0
    0.8444   -0.1445    0.7051 C   0  0  0  0  0  0  0  0  0  0  0  0
    4.6835   -1.9962    1.7061 C   0  0  0  0  0  0  0  0  0  0  0  0
    6.6334   -2.7311    0.5263 O   0  0  0  0  0  0  0  0  0  0  0  0
    3.5822    2.2513    0.2488 O   0  0  0  0  0  0  0  0  0  0  0  0
    1.2035    2.6046    0.4085 C   0  0  0  0  0  0  0  0  0  0  0  0
   -0.2679    0.7105    0.7733 C   0  0  2  0  0  0  0  0  0  0  0  0
    3.7474    3.2223   -0.7835 C   0  0  0  0  0  0  0  0  0  0  0  0
   -0.0742    2.0887    0.6243 C   0  0  0  0  0  0  0  0  0  0  0  0
   -1.6567    0.1552    1.0102 C   0  0  0  0  0  0  0  0  0  0  0  0
   -2.5941    0.4400   -0.0863 N   0  0  0  0  0  0  0  0  0  0  0  0
   -4.0048    0.2214    0.3447 C   0  0  1  0  0  0  0  0  0  0  0  0
   -2.2385   -0.1770   -1.3643 C   0  0  0  0  0  0  0  0  0  0  0  0
   -4.5300    1.5423    0.9171 C   0  0  0  0  0  0  0  0  0  0  0  0
   -5.0000   -0.3026   -0.7306 C   0  0  0  0  0  0  0  0  0  0  0  0
   -2.3301   -1.7009   -1.4607 C   0  0  0  0  0  0  0  0  0  0  0  0
   -4.4935    1.8733    2.0943 O   0  0  0  0  0  0  0  0  0  0  0  0
   -4.9990    2.4075   -0.0061 O   0  0  0  0  0  0  0  0  0  0  0  0
   -4.8417   -1.6926   -1.2025 N   0  0  0  0  0  0  0  0  0  0  0  0
   -3.5814   -2.3357   -0.8597 C   0  0  0  0  0  0  0  0  0  0  0  0
  1  2  2  0  0  0  0
  2  3  1  0  0  0  0
  2  4  1  0  0  0  0
  3  6  1  0  0  0  0
  4  7  1  0  0  0  0
  5  3  1  1  0  0  0
  5  8  5  0  0  0  0
  5  9  5  0  0  0  0
  6 10  1  0  0  0  0
  7 11  2  0  0  0  0
  7 10  1  0  0  0  0
  8 12  1  1  0  0  0
  8 13  5  0  0  0  0
  9 14  5  0  0  0  0
 12 15  1  0  0  0  0
 13 16  5  0  0  0  0
 14 17  1  1  0  0  0
 14 16  5  0  0  0  0
 17 18  1  0  0  0  0
 18 19  1  0  0  0  0
 18 20  1  0  0  0  0
 19 21  1  6  0  0  0
 19 22  1  0  0  0  0
 20 23  1  0  0  0  0
 21 24  2  0  0  0  0
 21 25  1  0  0  0  0
 22 26  1  0  0  0  0
 23 27  1  0  0  0  0
 26 27  1  0  0  0  0
M  END
>  <ID>
EDEL-CRBN-0002_ent

>  <Stereoisomer>
enantiomer

>  <MW>
376.17

>  <HBD>
3

>  <HBA>
6

>  <RotBonds>
5

>  <cLogP>
0.39

$$$$
EDEL-CRBN-0003
 OpenBabel09062619263D

 27 29  0  0  0  0  0  0  0  0999 V2000
    4.9639    0.3473   -2.4666 O   0  0  0  0  0  0  0  0  0  0  0  0
    4.6489   -0.5235   -1.6597 C   0  0  0  0  0  0  0  0  0  0  0  0
    3.4030   -0.6775   -1.0546 N   0  0  0  0  0  0  0  0  0  0  0  0
    5.6129   -1.4051   -1.2266 N   0  0  0  0  0  0  0  0  0  0  0  0
    2.2572    0.0933   -1.4351 C   0  0  2  0  0  0  0  0  0  0  0  0
    3.1939   -1.8803   -0.2508 C   0  0  0  0  0  0  0  0  0  0  0  0
    5.6282   -2.0030    0.0051 C   0  0  0  0  0  0  0  0  0  0  0  0
    1.2603    0.4502   -0.4996 C   0  0  1  0  0  0  0  0  0  0  0  0
    2.0807    0.4917   -2.7668 C   0  0  0  0  0  0  0  0  0  0  0  0
    4.3204   -2.0351    0.7459 C   0  0  0  0  0  0  0  0  0  0  0  0
    6.6736   -2.4168    0.5002 O   0  0  0  0  0  0  0  0  0  0  0  0
    1.4478    0.2243    0.8472 O   0  0  0  0  0  0  0  0  0  0  0  0
    0.0628    1.0755   -0.9017 C   0  0  1  0  0  0  0  0  0  0  0  0
    0.9221    1.1590   -3.1702 C   0  0  0  0  0  0  0  0  0  0  0  0
    2.2752    1.2473    1.4061 C   0  0  0  0  0  0  0  0  0  0  0  0
   -0.0869    1.4318   -2.2498 C   0  0  0  0  0  0  0  0  0  0  0  0
   -1.0595    1.3606    0.0763 C   0  0  0  0  0  0  0  0  0  0  0  0
   -1.8089    0.1663    0.4935 N   0  0  0  0  0  0  0  0  0  0  0  0
   -2.6635    0.4384    1.6779 C   0  0  2  0  0  0  0  0  0  0  0  0
   -2.4928   -0.5540   -0.5885 C   0  0  0  0  0  0  0  0  0  0  0  0
   -2.8495   -0.8287    2.5315 C   0  0  0  0  0  0  0  0  0  0  0  0
   -4.0240    1.1315    1.4130 C   0  0  0  0  0  0  0  0  0  0  0  0
   -3.5975    0.2102   -1.3195 C   0  0  0  0  0  0  0  0  0  0  0  0
   -2.5479   -1.9838    2.2722 O   0  0  0  0  0  0  0  0  0  0  0  0
   -3.3766   -0.5530    3.7507 O   0  0  0  0  0  0  0  0  0  0  0  0
   -5.0448    0.2836    0.7992 N   0  0  0  0  0  0  0  0  0  0  0  0
   -4.9691    0.1544   -0.6496 C   0  0  0  0  0  0  0  0  0  0  0  0
  1  2  2  0  0  0  0
  2  3  1  0  0  0  0
  2  4  1  0  0  0  0
  3  6  1  0  0  0  0
  4  7  1  0  0  0  0
  5  3  1  6  0  0  0
  5  8  5  0  0  0  0
  5  9  5  0  0  0  0
  6 10  1  0  0  0  0
  7 11  2  0  0  0  0
  7 10  1  0  0  0  0
  8 12  1  1  0  0  0
  8 13  5  0  0  0  0
  9 14  5  0  0  0  0
 12 15  1  0  0  0  0
 13 16  5  0  0  0  0
 13 17  1  6  0  0  0
 14 16  5  0  0  0  0
 17 18  1  0  0  0  0
 18 19  1  0  0  0  0
 18 20  1  0  0  0  0
 19 21  1  6  0  0  0
 19 22  1  0  0  0  0
 20 23  1  0  0  0  0
 21 24  2  0  0  0  0
 21 25  1  0  0  0  0
 22 26  1  0  0  0  0
 23 27  1  0  0  0  0
 26 27  1  0  0  0  0
M  END
>  <ID>
EDEL-CRBN-0003

>  <Stereoisomer>
original

>  <MW>
376.17

>  <HBD>
3

>  <HBA>
6

>  <RotBonds>
5

>  <cLogP>
0.39

$$$$
EDEL-CRBN-0003_ent
 OpenBabel09062619263D

 27 29  0  0  0  0  0  0  0  0999 V2000
    2.5560   -2.2352    0.5088 O   0  0  0  0  0  0  0  0  0  0  0  0
    3.4162   -1.3912    0.7372 C   0  0  0  0  0  0  0  0  0  0  0  0
    3.4487   -0.0792    0.2633 N   0  0  0  0  0  0  0  0  0  0  0  0
    4.5313   -1.7673    1.4513 N   0  0  0  0  0  0  0  0  0  0  0  0
    2.3236    0.5265   -0.3761 C   0  0  2  0  0  0  0  0  0  0  0  0
    4.5867    0.7586    0.6198 C   0  0  0  0  0  0  0  0  0  0  0  0
    5.7916   -1.2977    1.2027 C   0  0  0  0  0  0  0  0  0  0  0  0
    0.9972    0.3636    0.0797 C   0  0  1  0  0  0  0  0  0  0  0  0
    2.5460    1.3200   -1.5121 C   0  0  0  0  0  0  0  0  0  0  0  0
    5.8778   -0.0075    0.4364 C   0  0  0  0  0  0  0  0  0  0  0  0
    6.7907   -1.9391    1.5175 O   0  0  0  0  0  0  0  0  0  0  0  0
    0.7283   -0.2923    1.2589 O   0  0  0  0  0  0  0  0  0  0  0  0
   -0.0901    0.9105   -0.6340 C   0  0  1  0  0  0  0  0  0  0  0  0
    1.4813    1.8988   -2.2030 C   0  0  0  0  0  0  0  0  0  0  0  0
    0.9311    0.5730    2.3743 C   0  0  0  0  0  0  0  0  0  0  0  0
    0.1739    1.6870   -1.7734 C   0  0  0  0  0  0  0  0  0  0  0  0
   -1.5297    0.6826   -0.2068 C   0  0  0  0  0  0  0  0  0  0  0  0
   -2.0529   -0.6258   -0.6247 N   0  0  0  0  0  0  0  0  0  0  0  0
   -3.2144   -1.0922    0.1728 C   0  0  1  0  0  0  0  0  0  0  0  0
   -2.3289   -0.7292   -2.0613 C   0  0  0  0  0  0  0  0  0  0  0  0
   -2.7503   -1.7288    1.4855 C   0  0  0  0  0  0  0  0  0  0  0  0
   -4.3638   -0.0871    0.4296 C   0  0  0  0  0  0  0  0  0  0  0  0
   -3.4039    0.1888   -2.6547 C   0  0  0  0  0  0  0  0  0  0  0  0
   -2.7047   -2.9296    1.7172 O   0  0  0  0  0  0  0  0  0  0  0  0
   -2.3729   -0.8602    2.4460 O   0  0  0  0  0  0  0  0  0  0  0  0
   -4.7933    0.7754   -0.6869 N   0  0  0  0  0  0  0  0  0  0  0  0
   -4.7790    0.1181   -1.9896 C   0  0  0  0  0  0  0  0  0  0  0  0
  1  2  2  0  0  0  0
  2  3  1  0  0  0  0
  2  4  1  0  0  0  0
  3  6  1  0  0  0  0
  4  7  1  0  0  0  0
  5  3  1  6  0  0  0
  5  8  5  0  0  0  0
  5  9  5  0  0  0  0
  6 10  1  0  0  0  0
  7 11  2  0  0  0  0
  7 10  1  0  0  0  0
  8 12  1  1  0  0  0
  8 13  5  0  0  0  0
  9 14  5  0  0  0  0
 12 15  1  0  0  0  0
 13 16  5  0  0  0  0
 13 17  1  6  0  0  0
 14 16  5  0  0  0  0
 17 18  1  0  0  0  0
 18 19  1  0  0  0  0
 18 20  1  0  0  0  0
 19 21  1  1  0  0  0
 19 22  1  0  0  0  0
 20 23  1  0  0  0  0
 21 24  2  0  0  0  0
 21 25  1  0  0  0  0
 22 26  1  0  0  0  0
 23 27  1  0  0  0  0
 26 27  1  0  0  0  0
M  END
>  <ID>
EDEL-CRBN-0003_ent

>  <Stereoisomer>
enantiomer

>  <MW>
376.17

>  <HBD>
3

>  <HBA>
6

>  <RotBonds>
5

>  <cLogP>
0.39

$$$$
EDEL-CRBN-0004
 OpenBabel09062619263D

 29 31  0  0  0  0  0  0  0  0999 V2000
    1.8597    2.6328    0.9888 O   0  0  0  0  0  0  0  0  0  0  0  0
    2.8214    2.2867    0.3084 C   0  0  0  0  0  0  0  0  0  0  0  0
    3.0820    1.0074   -0.1709 N   0  0  0  0  0  0  0  0  0  0  0  0
    3.8159    3.2026    0.0480 N   0  0  0  0  0  0  0  0  0  0  0  0
    2.1322   -0.0515   -0.0390 C   0  0  2  0  0  0  0  0  0  0  0  0
    4.2724    0.7876   -0.9769 C   0  0  0  0  0  0  0  0  0  0  0  0
    5.1438    2.8834   -0.0460 C   0  0  0  0  0  0  0  0  0  0  0  0
    0.7904    0.1225   -0.4481 C   0  0  1  0  0  0  0  0  0  0  0  0
    2.5275   -1.2862    0.5246 C   0  0  1  0  0  0  0  0  0  0  0  0
    5.4663    1.4381   -0.3156 C   0  0  0  0  0  0  0  0  0  0  0  0
    6.0190    3.7219    0.1573 O   0  0  0  0  0  0  0  0  0  0  0  0
    0.4029    1.2857   -1.0735 O   0  0  0  0  0  0  0  0  0  0  0  0
   -0.1698   -0.8807   -0.2361 C   0  0  2  0  0  0  0  0  0  0  0  0
    3.8386   -1.3960    0.9254 O   0  0  0  0  0  0  0  0  0  0  0  0
    1.5844   -2.3072    0.6757 C   0  0  0  0  0  0  0  0  0  0  0  0
    0.6091    1.1865   -2.4820 C   0  0  0  0  0  0  0  0  0  0  0  0
    0.2521   -2.1008    0.3114 C   0  0  0  0  0  0  0  0  0  0  0  0
   -1.6354   -0.6959   -0.5896 C   0  0  0  0  0  0  0  0  0  0  0  0
    4.1692   -2.4862    1.7767 C   0  0  0  0  0  0  0  0  0  0  0  0
   -2.5116   -0.8726    0.5847 N   0  0  0  0  0  0  0  0  0  0  0  0
   -3.8943   -1.2938    0.2402 C   0  0  2  0  0  0  0  0  0  0  0  0
   -2.4511    0.3039    1.4767 C   0  0  0  0  0  0  0  0  0  0  0  0
   -3.9293   -2.7345   -0.3011 C   0  0  0  0  0  0  0  0  0  0  0  0
   -4.6951   -0.3542   -0.7072 C   0  0  0  0  0  0  0  0  0  0  0  0
   -3.7457    1.0903    1.7231 C   0  0  0  0  0  0  0  0  0  0  0  0
   -3.0053   -3.5193   -0.4493 O   0  0  0  0  0  0  0  0  0  0  0  0
   -5.1870   -3.1490   -0.5859 O   0  0  0  0  0  0  0  0  0  0  0  0
   -4.2854    1.0535   -0.7719 N   0  0  0  0  0  0  0  0  0  0  0  0
   -4.3270    1.7815    0.4900 C   0  0  0  0  0  0  0  0  0  0  0  0
  1  2  2  0  0  0  0
  2  3  1  0  0  0  0
  2  4  1  0  0  0  0
  3  6  1  0  0  0  0
  4  7  1  0  0  0  0
  5  3  1  1  0  0  0
  5  8  5  0  0  0  0
  5  9  5  0  0  0  0
  6 10  1  0  0  0  0
  7 11  2  0  0  0  0
  7 10  1  0  0  0  0
  8 12  1  6  0  0  0
  8 13  5  0  0  0  0
  9 14  1  1  0  0  0
  9 15  5  0  0  0  0
 12 16  1  0  0  0  0
 13 17  5  0  0  0  0
 13 18  1  6  0  0  0
 14 19  1  0  0  0  0
 15 17  5  0  0  0  0
 18 20  1  0  0  0  0
 20 21  1  0  0  0  0
 20 22  1  0  0  0  0
 21 23  1  6  0  0  0
 21 24  1  0  0  0  0
 22 25  1  0  0  0  0
 23 26  2  0  0  0  0
 23 27  1  0  0  0  0
 24 28  1  0  0  0  0
 25 29  1  0  0  0  0
 28 29  1  0  0  0  0
M  END
>  <ID>
EDEL-CRBN-0004

>  <Stereoisomer>
original

>  <MW>
406.19

>  <HBD>
3

>  <HBA>
7

>  <RotBonds>
6

>  <cLogP>
0.4

$$$$
EDEL-CRBN-0004_ent
 OpenBabel09062619263D

 29 31  0  0  0  0  0  0  0  0999 V2000
    2.9472    0.8398    2.5300 O   0  0  0  0  0  0  0  0  0  0  0  0
    3.5621    0.7585    1.4703 C   0  0  0  0  0  0  0  0  0  0  0  0
    3.1886    0.0135    0.3542 N   0  0  0  0  0  0  0  0  0  0  0  0
    4.7584    1.4276    1.3428 N   0  0  0  0  0  0  0  0  0  0  0  0
    1.9449   -0.6949    0.3445 C   0  0  1  0  0  0  0  0  0  0  0  0
    4.2055   -0.2999   -0.6363 C   0  0  0  0  0  0  0  0  0  0  0  0
    5.4610    1.6450    0.1890 C   0  0  0  0  0  0  0  0  0  0  0  0
    0.7295   -0.0153    0.5855 C   0  0  2  0  0  0  0  0  0  0  0  0
    1.8849   -2.0780    0.0963 C   0  0  1  0  0  0  0  0  0  0  0  0
    4.9366    0.9624   -1.0415 C   0  0  0  0  0  0  0  0  0  0  0  0
    6.4210    2.4104    0.1561 O   0  0  0  0  0  0  0  0  0  0  0  0
    0.7069    1.3464    0.7903 O   0  0  0  0  0  0  0  0  0  0  0  0
   -0.5038   -0.7006    0.6288 C   0  0  1  0  0  0  0  0  0  0  0  0
    3.0217   -2.8158   -0.1338 O   0  0  0  0  0  0  0  0  0  0  0  0
    0.6652   -2.7594    0.0913 C   0  0  0  0  0  0  0  0  0  0  0  0
    0.8079    2.0506   -0.4472 C   0  0  0  0  0  0  0  0  0  0  0  0
   -0.5161   -2.0803    0.3812 C   0  0  0  0  0  0  0  0  0  0  0  0
   -1.7989    0.0224    0.9388 C   0  0  0  0  0  0  0  0  0  0  0  0
    3.4605   -3.4198    1.0866 C   0  0  0  0  0  0  0  0  0  0  0  0
   -2.3375    0.7934   -0.1942 N   0  0  0  0  0  0  0  0  0  0  0  0
   -3.1299    0.0438   -1.2012 C   0  0  1  0  0  0  0  0  0  0  0  0
   -2.9637    2.0478    0.2230 C   0  0  0  0  0  0  0  0  0  0  0  0
   -2.2205   -0.8274   -2.0768 C   0  0  0  0  0  0  0  0  0  0  0  0
   -4.2982   -0.8260   -0.6612 C   0  0  0  0  0  0  0  0  0  0  0  0
   -4.4824    2.1042    0.4126 C   0  0  0  0  0  0  0  0  0  0  0  0
   -2.2983   -2.0364   -2.2415 O   0  0  0  0  0  0  0  0  0  0  0  0
   -1.2776   -0.1238   -2.7435 O   0  0  0  0  0  0  0  0  0  0  0  0
   -5.4556   -0.1255   -0.0868 N   0  0  0  0  0  0  0  0  0  0  0  0
   -5.1321    0.8388    0.9609 C   0  0  0  0  0  0  0  0  0  0  0  0
  1  2  2  0  0  0  0
  2  3  1  0  0  0  0
  2  4  1  0  0  0  0
  3  6  1  0  0  0  0
  4  7  1  0  0  0  0
  5  3  1  6  0  0  0
  5  8  5  0  0  0  0
  5  9  5  0  0  0  0
  6 10  1  0  0  0  0
  7 11  2  0  0  0  0
  7 10  1  0  0  0  0
  8 12  1  1  0  0  0
  8 13  5  0  0  0  0
  9 14  1  1  0  0  0
  9 15  5  0  0  0  0
 12 16  1  0  0  0  0
 13 17  5  0  0  0  0
 13 18  1  1  0  0  0
 14 19  1  0  0  0  0
 15 17  5  0  0  0  0
 18 20  1  0  0  0  0
 20 21  1  0  0  0  0
 20 22  1  0  0  0  0
 21 23  1  1  0  0  0
 21 24  1  0  0  0  0
 22 25  1  0  0  0  0
 23 26  2  0  0  0  0
 23 27  1  0  0  0  0
 24 28  1  0  0  0  0
 25 29  1  0  0  0  0
 28 29  1  0  0  0  0
M  END
>  <ID>
EDEL-CRBN-0004_ent

>  <Stereoisomer>
enantiomer

>  <MW>
406.19

>  <HBD>
3

>  <HBA>
7

>  <RotBonds>
6

>  <cLogP>
0.4

$$$$
EDEL-CRBN-0005
 OpenBabel09062619263D

 30 34  0  0  0  0  0  0  0  0999 V2000
    2.0292   -2.4150   -2.8609 O   0  0  0  0  0  0  0  0  0  0  0  0
    1.1034   -2.4546   -2.0551 C   0  0  0  0  0  0  0  0  0  0  0  0
   -0.1745   -2.3403   -2.5154 N   0  0  0  0  0  0  0  0  0  0  0  0
    1.2648   -2.7118   -0.5646 C   0  0  2  0  0  0  0  0  0  0  0  0
   -1.3588   -2.4917   -1.7173 C   0  0  0  0  0  0  0  0  0  0  0  0
    0.7341   -1.6056    0.3590 C   0  0  2  0  0  0  0  0  0  0  0  0
    2.7359   -2.7807   -0.1592 C   0  0  0  0  0  0  0  0  0  0  0  0
   -1.5600   -1.3113   -0.8080 C   0  0  2  0  0  0  0  0  0  0  0  0
   -0.5974   -0.9080    0.1322 C   0  0  1  0  0  0  0  0  0  0  0  0
    1.9390   -0.6466    0.4914 C   0  0  0  0  0  0  0  0  0  0  0  0
    3.1197   -1.3834    0.0358 N   0  0  0  0  0  0  0  0  0  0  0  0
   -2.7834   -0.6057   -0.9082 C   0  0  0  0  0  0  0  0  0  0  0  0
   -0.9179    0.1857    0.9572 C   0  0  0  0  0  0  0  0  0  0  0  0
    4.3106   -1.2184    0.8664 C   0  0  0  0  0  0  0  0  0  0  0  0
   -3.0896    0.4998   -0.1049 C   0  0  2  0  0  0  0  0  0  0  0  0
   -2.1303    0.8775    0.8372 C   0  0  0  0  0  0  0  0  0  0  0  0
    4.8316    0.2035    0.8882 C   0  0  0  0  0  0  0  0  0  0  0  0
   -4.3413    1.1979   -0.2272 N   0  0  0  0  0  0  0  0  0  0  0  0
    5.1144    0.8779   -0.3095 C   0  0  0  0  0  0  0  0  0  0  0  0
    5.0698    0.8589    2.1049 C   0  0  0  0  0  0  0  0  0  0  0  0
   -5.0485    1.2533   -1.4352 C   0  0  0  0  0  0  0  0  0  0  0  0
   -4.7860    2.0738    0.8540 C   0  0  0  0  0  0  0  0  0  0  0  0
    5.6109    2.1819   -0.2912 C   0  0  0  0  0  0  0  0  0  0  0  0
    5.5679    2.1635    2.1216 C   0  0  0  0  0  0  0  0  0  0  0  0
   -4.7415    0.7149   -2.4957 O   0  0  0  0  0  0  0  0  0  0  0  0
   -6.2032    2.0003   -1.4059 N   0  0  0  0  0  0  0  0  0  0  0  0
   -6.2904    2.0153    1.0166 C   0  0  0  0  0  0  0  0  0  0  0  0
    5.8373    2.8243    0.9243 C   0  0  0  0  0  0  0  0  0  0  0  0
   -6.9405    2.3102   -0.2985 C   0  0  0  0  0  0  0  0  0  0  0  0
   -8.0923    2.7256   -0.3864 O   0  0  0  0  0  0  0  0  0  0  0  0
  1  2  2  0  0  0  0
  2  3  1  0  0  0  0
  3  5  1  0  0  0  0
  4  2  1  0  0  0  0
  4  6  1  0  0  0  0
  4  7  1  6  0  0  0
  6  9  1  0  0  0  0
  6 10  1  6  0  0  0
  7 11  1  0  0  0  0
  8  5  1  1  0  0  0
  8 12  5  0  0  0  0
  8  9  5  0  0  0  0
  9 13  5  1  0  0  0
 10 11  1  0  0  0  0
 11 14  1  0  0  0  0
 13 16  5  0  0  0  0
 14 17  1  0  0  0  0
 15 12  5  1  0  0  0
 15 18  1  0  0  0  0
 15 16  5  0  0  0  0
 17 19  5  0  0  0  0
 17 20  5  0  0  0  0
 18 21  1  0  0  0  0
 18 22  1  0  0  0  0
 19 23  5  0  0  0  0
 20 24  5  0  0  0  0
 21 25  2  0  0  0  0
 21 26  1  0  0  0  0
 22 27  1  0  0  0  0
 23 28  5  0  0  0  0
 24 28  5  0  0  0  0
 26 29  1  0  0  0  0
 27 29  1  0  0  0  0
 29 30  2  0  0  0  0
M  END
>  <ID>
EDEL-CRBN-0005

>  <Stereoisomer>
original

>  <MW>
404.18

>  <HBD>
2

>  <HBA>
4

>  <RotBonds>
3

>  <cLogP>
1.98

$$$$
EDEL-CRBN-0005_ent
 OpenBabel09062619263D

 30 34  0  0  0  0  0  0  0  0999 V2000
    0.1445   -4.4953   -0.7798 O   0  0  0  0  0  0  0  0  0  0  0  0
    0.0228   -3.4476   -1.4186 C   0  0  0  0  0  0  0  0  0  0  0  0
   -1.1669   -3.2203   -2.0420 N   0  0  0  0  0  0  0  0  0  0  0  0
    1.1954   -2.5005   -1.6290 C   0  0  1  0  0  0  0  0  0  0  0  0
   -1.5983   -1.9780   -2.6337 C   0  0  0  0  0  0  0  0  0  0  0  0
    0.9883   -0.9915   -1.8322 C   0  0  1  0  0  0  0  0  0  0  0  0
    2.1962   -2.5982   -0.4617 C   0  0  0  0  0  0  0  0  0  0  0  0
   -1.5193   -0.8697   -1.6171 C   0  0  2  0  0  0  0  0  0  0  0  0
   -0.2595   -0.4217   -1.1722 C   0  0  2  0  0  0  0  0  0  0  0  0
    2.3511   -0.4438   -1.3799 C   0  0  0  0  0  0  0  0  0  0  0  0
    2.6328   -1.2232   -0.1758 N   0  0  0  0  0  0  0  0  0  0  0  0
   -2.6995   -0.3421   -1.0594 C   0  0  0  0  0  0  0  0  0  0  0  0
   -0.2270    0.5470   -0.1655 C   0  0  0  0  0  0  0  0  0  0  0  0
    4.0220   -1.1494    0.2753 C   0  0  0  0  0  0  0  0  0  0  0  0
   -2.6698    0.6397   -0.0614 C   0  0  2  0  0  0  0  0  0  0  0  0
   -1.4102    1.0667    0.3784 C   0  0  0  0  0  0  0  0  0  0  0  0
    4.3990    0.2301    0.7716 C   0  0  0  0  0  0  0  0  0  0  0  0
   -3.8811    1.1642    0.5073 N   0  0  0  0  0  0  0  0  0  0  0  0
    5.3839    0.9839    0.1181 C   0  0  0  0  0  0  0  0  0  0  0  0
    3.7633    0.7754    1.8976 C   0  0  0  0  0  0  0  0  0  0  0  0
   -5.0717    1.2428   -0.2246 C   0  0  0  0  0  0  0  0  0  0  0  0
   -3.8333    1.8462    1.7979 C   0  0  0  0  0  0  0  0  0  0  0  0
    5.7251    2.2558    0.5823 C   0  0  0  0  0  0  0  0  0  0  0  0
    4.1055    2.0466    2.3600 C   0  0  0  0  0  0  0  0  0  0  0  0
   -5.2488    0.8779   -1.3844 O   0  0  0  0  0  0  0  0  0  0  0  0
   -6.1365    1.7996    0.4446 N   0  0  0  0  0  0  0  0  0  0  0  0
   -5.0765    1.5544    2.6117 C   0  0  0  0  0  0  0  0  0  0  0  0
    5.0866    2.7860    1.7024 C   0  0  0  0  0  0  0  0  0  0  0  0
   -6.2875    1.8912    1.7994 C   0  0  0  0  0  0  0  0  0  0  0  0
   -7.3725    2.1550    2.3098 O   0  0  0  0  0  0  0  0  0  0  0  0
  1  2  2  0  0  0  0
  2  3  1  0  0  0  0
  3  5  1  0  0  0  0
  4  2  1  0  0  0  0
  4  6  1  0  0  0  0
  4  7  1  1  0  0  0
  6  9  1  0  0  0  0
  6 10  1  1  0  0  0
  7 11  1  0  0  0  0
  8  5  1  1  0  0  0
  8 12  5  0  0  0  0
  8  9  5  0  0  0  0
  9 13  5  6  0  0  0
 10 11  1  0  0  0  0
 11 14  1  0  0  0  0
 13 16  5  0  0  0  0
 14 17  1  0  0  0  0
 15 12  5  1  0  0  0
 15 18  1  0  0  0  0
 15 16  5  0  0  0  0
 17 19  5  0  0  0  0
 17 20  5  0  0  0  0
 18 21  1  0  0  0  0
 18 22  1  0  0  0  0
 19 23  5  0  0  0  0
 20 24  5  0  0  0  0
 21 25  2  0  0  0  0
 21 26  1  0  0  0  0
 22 27  1  0  0  0  0
 23 28  5  0  0  0  0
 24 28  5  0  0  0  0
 26 29  1  0  0  0  0
 27 29  1  0  0  0  0
 29 30  2  0  0  0  0
M  END
>  <ID>
EDEL-CRBN-0005_ent

>  <Stereoisomer>
enantiomer

>  <MW>
404.18

>  <HBD>
2

>  <HBA>
4

>  <RotBonds>
3

>  <cLogP>
1.98

$$$$
EDEL-CRBN-0006
 OpenBabel09062619263D

 32 36  0  0  0  0  0  0  0  0999 V2000
   -1.5981    3.2162    1.7518 O   0  0  0  0  0  0  0  0  0  0  0  0
   -1.2706    2.4314    0.8600 C   0  0  0  0  0  0  0  0  0  0  0  0
   -0.3644    2.8389   -0.0658 N   0  0  0  0  0  0  0  0  0  0  0  0
   -1.9103    1.0635    0.7584 C   0  0  2  0  0  0  0  0  0  0  0  0
    0.2821    2.0065   -1.0450 C   0  0  0  0  0  0  0  0  0  0  0  0
   -1.0331   -0.1825    0.5488 C   0  0  2  0  0  0  0  0  0  0  0  0
   -2.9608    1.0096   -0.3486 C   0  0  0  0  0  0  0  0  0  0  0  0
    1.0905    0.9352   -0.3670 C   0  0  2  0  0  0  0  0  0  0  0  0
    0.4695   -0.0624    0.4031 C   0  0  2  0  0  0  0  0  0  0  0  0
   -1.6702   -0.8947   -0.6597 C   0  0  0  0  0  0  0  0  0  0  0  0
   -3.0547   -0.4037   -0.7632 N   0  0  0  0  0  0  0  0  0  0  0  0
    2.4952    0.9476   -0.4991 C   0  0  0  0  0  0  0  0  0  0  0  0
    1.2829   -1.0177    1.0310 C   0  0  0  0  0  0  0  0  0  0  0  0
   -3.9670   -1.1859    0.0916 C   0  0  0  0  0  0  0  0  0  0  0  0
    3.3159   -0.0077    0.1201 C   0  0  1  0  0  0  0  0  0  0  0  0
    2.6790   -0.9720    0.9179 C   0  0  1  0  0  0  0  0  0  0  0  0
   -5.4242   -0.8270   -0.1112 C   0  0  0  0  0  0  0  0  0  0  0  0
    4.7355    0.0189   -0.1021 N   0  0  0  0  0  0  0  0  0  0  0  0
    3.3866   -1.9041    1.6388 O   0  0  0  0  0  0  0  0  0  0  0  0
   -6.0122   -0.9252   -1.3814 C   0  0  0  0  0  0  0  0  0  0  0  0
   -6.2147   -0.4101    0.9696 C   0  0  0  0  0  0  0  0  0  0  0  0
    5.4397    1.2199   -0.2009 C   0  0  0  0  0  0  0  0  0  0  0  0
    5.4990   -1.2234   -0.0442 C   0  0  0  0  0  0  0  0  0  0  0  0
    3.6046   -1.4219    2.9681 C   0  0  0  0  0  0  0  0  0  0  0  0
   -7.3583   -0.6077   -1.5678 C   0  0  0  0  0  0  0  0  0  0  0  0
   -7.5614   -0.0927    0.7812 C   0  0  0  0  0  0  0  0  0  0  0  0
    4.9660    2.3506   -0.1169 O   0  0  0  0  0  0  0  0  0  0  0  0
    6.7925    1.0913   -0.4060 N   0  0  0  0  0  0  0  0  0  0  0  0
    6.5933   -1.2295   -1.0915 C   0  0  0  0  0  0  0  0  0  0  0  0
   -8.1324   -0.1918   -0.4864 C   0  0  0  0  0  0  0  0  0  0  0  0
    7.4269    0.0063   -0.9428 C   0  0  0  0  0  0  0  0  0  0  0  0
    8.5823    0.0758   -1.3523 O   0  0  0  0  0  0  0  0  0  0  0  0
  1  2  2  0  0  0  0
  2  3  1  0  0  0  0
  3  5  1  0  0  0  0
  4  2  1  0  0  0  0
  4  6  1  0  0  0  0
  4  7  1  6  0  0  0
  6  9  1  0  0  0  0
  6 10  1  6  0  0  0
  7 11  1  0  0  0  0
  8  5  1  1  0  0  0
  8 12  5  0  0  0  0
  8  9  5  0  0  0  0
  9 13  5  6  0  0  0
 10 11  1  0  0  0  0
 11 14  1  0  0  0  0
 13 16  5  0  0  0  0
 14 17  1  0  0  0  0
 15 12  5  6  0  0  0
 15 18  1  0  0  0  0
 15 16  5  0  0  0  0
 16 19  1  1  0  0  0
 17 20  5  0  0  0  0
 17 21  5  0  0  0  0
 18 22  1  0  0  0  0
 18 23  1  0  0  0  0
 19 24  1  0  0  0  0
 20 25  5  0  0  0  0
 21 26  5  0  0  0  0
 22 27  2  0  0  0  0
 22 28  1  0  0  0  0
 23 29  1  0  0  0  0
 25 30  5  0  0  0  0
 26 30  5  0  0  0  0
 28 31  1  0  0  0  0
 29 31  1  0  0  0  0
 31 32  2  0  0  0  0
M  END
>  <ID>
EDEL-CRBN-0006

>  <Stereoisomer>
original

>  <MW>
434.2

>  <HBD>
2

>  <HBA>
5

>  <RotBonds>
4

>  <cLogP>
1.99

$$$$
EDEL-CRBN-0006_ent
 OpenBabel09062619263D

 32 36  0  0  0  0  0  0  0  0999 V2000
   -0.2190    4.4128    0.8396 O   0  0  0  0  0  0  0  0  0  0  0  0
   -0.2209    3.6441   -0.1192 C   0  0  0  0  0  0  0  0  0  0  0  0
    0.8586    3.6317   -0.9549 N   0  0  0  0  0  0  0  0  0  0  0  0
   -1.3943    2.7534   -0.4873 C   0  0  1  0  0  0  0  0  0  0  0  0
    1.0856    2.6269   -1.9575 C   0  0  0  0  0  0  0  0  0  0  0  0
   -1.1524    1.2216   -0.5808 C   0  0  1  0  0  0  0  0  0  0  0  0
   -2.5331    2.9152    0.5285 C   0  0  0  0  0  0  0  0  0  0  0  0
    1.3095    1.2985   -1.2878 C   0  0  2  0  0  0  0  0  0  0  0  0
    0.2615    0.6501   -0.6024 C   0  0  2  0  0  0  0  0  0  0  0  0
   -2.0867    0.6594    0.5094 C   0  0  0  0  0  0  0  0  0  0  0  0
   -3.2018    1.6109    0.5130 N   0  0  0  0  0  0  0  0  0  0  0  0
    2.5980    0.7274   -1.3196 C   0  0  0  0  0  0  0  0  0  0  0  0
    0.5420   -0.5959   -0.0099 C   0  0  0  0  0  0  0  0  0  0  0  0
   -4.0921    1.4455    1.6682 C   0  0  0  0  0  0  0  0  0  0  0  0
    2.8667   -0.5139   -0.7281 C   0  0  2  0  0  0  0  0  0  0  0  0
    1.8187   -1.1759   -0.0722 C   0  0  1  0  0  0  0  0  0  0  0  0
   -4.8675    0.1457    1.6318 C   0  0  0  0  0  0  0  0  0  0  0  0
    4.1835   -1.0655   -0.7872 N   0  0  0  0  0  0  0  0  0  0  0  0
    2.0998   -2.3150    0.6447 O   0  0  0  0  0  0  0  0  0  0  0  0
   -4.7191   -0.8048    2.6522 C   0  0  0  0  0  0  0  0  0  0  0  0
   -5.7527   -0.1251    0.5776 C   0  0  0  0  0  0  0  0  0  0  0  0
    4.3919   -2.3878   -1.1806 C   0  0  0  0  0  0  0  0  0  0  0  0
    5.3358   -0.1811   -0.7150 C   0  0  0  0  0  0  0  0  0  0  0  0
    1.1937   -3.3847    0.3756 C   0  0  0  0  0  0  0  0  0  0  0  0
   -5.4396   -2.0002    2.6167 C   0  0  0  0  0  0  0  0  0  0  0  0
   -6.4717   -1.3207    0.5433 C   0  0  0  0  0  0  0  0  0  0  0  0
    3.5406   -3.1670   -1.6027 O   0  0  0  0  0  0  0  0  0  0  0  0
    5.7011   -2.8098   -1.1225 N   0  0  0  0  0  0  0  0  0  0  0  0
    6.4447   -0.8325    0.0830 C   0  0  0  0  0  0  0  0  0  0  0  0
   -6.3151   -2.2575    1.5631 C   0  0  0  0  0  0  0  0  0  0  0  0
    6.7468   -2.1788   -0.5063 C   0  0  0  0  0  0  0  0  0  0  0  0
    7.8453   -2.7158   -0.3922 O   0  0  0  0  0  0  0  0  0  0  0  0
  1  2  2  0  0  0  0
  2  3  1  0  0  0  0
  3  5  1  0  0  0  0
  4  2  1  0  0  0  0
  4  6  1  0  0  0  0
  4  7  1  1  0  0  0
  6  9  1  0  0  0  0
  6 10  1  1  0  0  0
  7 11  1  0  0  0  0
  8  5  1  1  0  0  0
  8 12  5  0  0  0  0
  8  9  5  0  0  0  0
  9 13  5  6  0  0  0
 10 11  1  0  0  0  0
 11 14  1  0  0  0  0
 13 16  5  0  0  0  0
 14 17  1  0  0  0  0
 15 12  5  1  0  0  0
 15 18  1  0  0  0  0
 15 16  5  0  0  0  0
 16 19  1  1  0  0  0
 17 20  5  0  0  0  0
 17 21  5  0  0  0  0
 18 22  1  0  0  0  0
 18 23  1  0  0  0  0
 19 24  1  0  0  0  0
 20 25  5  0  0  0  0
 21 26  5  0  0  0  0
 22 27  2  0  0  0  0
 22 28  1  0  0  0  0
 23 29  1  0  0  0  0
 25 30  5  0  0  0  0
 26 30  5  0  0  0  0
 28 31  1  0  0  0  0
 29 31  1  0  0  0  0
 31 32  2  0  0  0  0
M  END
>  <ID>
EDEL-CRBN-0006_ent

>  <Stereoisomer>
enantiomer

>  <MW>
434.2

>  <HBD>
2

>  <HBA>
5

>  <RotBonds>
4

>  <cLogP>
1.99

$$$$
EDEL-CRBN-0007
 OpenBabel09062619263D

 32 36  0  0  0  0  0  0  0  0999 V2000
    1.5868   -3.0914    0.0834 O   0  0  0  0  0  0  0  0  0  0  0  0
    1.1134   -2.1580    0.7268 C   0  0  0  0  0  0  0  0  0  0  0  0
   -0.0511   -2.3529    1.4110 N   0  0  0  0  0  0  0  0  0  0  0  0
    1.7831   -0.8049    0.8793 C   0  0  2  0  0  0  0  0  0  0  0  0
   -0.8364   -1.2905    1.9825 C   0  0  0  0  0  0  0  0  0  0  0  0
    0.9955    0.4543    0.4252 C   0  0  2  0  0  0  0  0  0  0  0  0
    3.1006   -0.7600    0.0935 C   0  0  0  0  0  0  0  0  0  0  0  0
   -1.3806   -0.4163    0.8833 C   0  0  1  0  0  0  0  0  0  0  0  0
   -0.4985    0.3839    0.1211 C   0  0  1  0  0  0  0  0  0  0  0  0
    1.8814    1.0195   -0.7033 C   0  0  0  0  0  0  0  0  0  0  0  0
    3.2339    0.6532   -0.2789 N   0  0  0  0  0  0  0  0  0  0  0  0
   -2.7659   -0.4188    0.5865 C   0  0  2  0  0  0  0  0  0  0  0  0
   -1.0583    1.2031   -0.8730 C   0  0  0  0  0  0  0  0  0  0  0  0
    4.2185    0.8697   -1.3448 C   0  0  0  0  0  0  0  0  0  0  0  0
   -3.5614   -1.3220    1.2594 O   0  0  0  0  0  0  0  0  0  0  0  0
   -3.3225    0.4420   -0.3808 C   0  0  2  0  0  0  0  0  0  0  0  0
   -2.4363    1.2302   -1.1181 C   0  0  0  0  0  0  0  0  0  0  0  0
    5.6394    0.6177   -0.8894 C   0  0  0  0  0  0  0  0  0  0  0  0
   -3.7434   -2.4955    0.4575 C   0  0  0  0  0  0  0  0  0  0  0  0
   -4.7360    0.5773   -0.5954 N   0  0  0  0  0  0  0  0  0  0  0  0
    6.3885   -0.4369   -1.4302 C   0  0  0  0  0  0  0  0  0  0  0  0
    6.2280    1.4365    0.0860 C   0  0  0  0  0  0  0  0  0  0  0  0
   -5.2715    0.7707   -1.8687 C   0  0  0  0  0  0  0  0  0  0  0  0
   -5.6578    0.3884    0.5200 C   0  0  0  0  0  0  0  0  0  0  0  0
    7.6997   -0.6635   -1.0075 C   0  0  0  0  0  0  0  0  0  0  0  0
    7.5388    1.2087    0.5073 C   0  0  0  0  0  0  0  0  0  0  0  0
   -4.6426    0.8072   -2.9233 O   0  0  0  0  0  0  0  0  0  0  0  0
   -6.6365    0.9251   -1.9111 N   0  0  0  0  0  0  0  0  0  0  0  0
   -6.7733    1.4117    0.4658 C   0  0  0  0  0  0  0  0  0  0  0  0
    8.2745    0.1596   -0.0405 C   0  0  0  0  0  0  0  0  0  0  0  0
   -7.4258    1.3590   -0.8827 C   0  0  0  0  0  0  0  0  0  0  0  0
   -8.5708    1.7577   -1.0766 O   0  0  0  0  0  0  0  0  0  0  0  0
  1  2  2  0  0  0  0
  2  3  1  0  0  0  0
  3  5  1  0  0  0  0
  4  2  1  0  0  0  0
  4  6  1  0  0  0  0
  4  7  1  6  0  0  0
  6  9  1  0  0  0  0
  6 10  1  6  0  0  0
  7 11  1  0  0  0  0
  8  5  1  6  0  0  0
  8 12  5  0  0  0  0
  8  9  5  0  0  0  0
  9 13  5  1  0  0  0
 10 11  1  0  0  0  0
 11 14  1  0  0  0  0
 12 15  1  6  0  0  0
 12 16  5  0  0  0  0
 13 17  5  0  0  0  0
 14 18  1  0  0  0  0
 15 19  1  0  0  0  0
 16 20  1  1  0  0  0
 16 17  5  0  0  0  0
 18 21  5  0  0  0  0
 18 22  5  0  0  0  0
 20 23  1  0  0  0  0
 20 24  1  0  0  0  0
 21 25  5  0  0  0  0
 22 26  5  0  0  0  0
 23 27  2  0  0  0  0
 23 28  1  0  0  0  0
 24 29  1  0  0  0  0
 25 30  5  0  0  0  0
 26 30  5  0  0  0  0
 28 31  1  0  0  0  0
 29 31  1  0  0  0  0
 31 32  2  0  0  0  0
M  END
>  <ID>
EDEL-CRBN-0007

>  <Stereoisomer>
original

>  <MW>
434.2

>  <HBD>
2

>  <HBA>
5

>  <RotBonds>
4

>  <cLogP>
1.99

$$$$
EDEL-CRBN-0007_ent
 OpenBabel09062619263D

 32 36  0  0  0  0  0  0  0  0999 V2000
    1.4413   -1.2156   -3.6607 O   0  0  0  0  0  0  0  0  0  0  0  0
    1.1789   -0.9860   -2.4790 C   0  0  0  0  0  0  0  0  0  0  0  0
    0.3345   -1.8305   -1.8324 N   0  0  0  0  0  0  0  0  0  0  0  0
    1.8353    0.1580   -1.7379 C   0  0  1  0  0  0  0  0  0  0  0  0
   -0.2410   -1.6252   -0.5301 C   0  0  0  0  0  0  0  0  0  0  0  0
    0.9907    1.0892   -0.8462 C   0  0  1  0  0  0  0  0  0  0  0  0
    2.9719   -0.3349   -0.8439 C   0  0  0  0  0  0  0  0  0  0  0  0
   -1.0962   -0.3880   -0.5145 C   0  0  1  0  0  0  0  0  0  0  0  0
   -0.5016    0.8788   -0.6791 C   0  0  1  0  0  0  0  0  0  0  0  0
    1.7239    1.0890    0.5080 C   0  0  0  0  0  0  0  0  0  0  0  0
    3.1006    0.7297    0.1592 N   0  0  0  0  0  0  0  0  0  0  0  0
   -2.4997   -0.4789   -0.3566 C   0  0  2  0  0  0  0  0  0  0  0  0
   -1.3248    2.0151   -0.6426 C   0  0  0  0  0  0  0  0  0  0  0  0
    3.8816    0.3295    1.3337 C   0  0  0  0  0  0  0  0  0  0  0  0
   -3.0584   -1.7396   -0.3335 O   0  0  0  0  0  0  0  0  0  0  0  0
   -3.3177    0.6676   -0.2586 C   0  0  2  0  0  0  0  0  0  0  0  0
   -2.7026    1.9110   -0.4323 C   0  0  0  0  0  0  0  0  0  0  0  0
    5.3415    0.0857    1.0194 C   0  0  0  0  0  0  0  0  0  0  0  0
   -3.5159   -2.0862   -1.6467 C   0  0  0  0  0  0  0  0  0  0  0  0
   -4.7185    0.6093    0.0542 N   0  0  0  0  0  0  0  0  0  0  0  0
    5.9232   -1.1697    1.2476 C   0  0  0  0  0  0  0  0  0  0  0  0
    6.1395    1.1178    0.5031 C   0  0  0  0  0  0  0  0  0  0  0  0
   -5.6390    1.4824   -0.5259 C   0  0  0  0  0  0  0  0  0  0  0  0
   -5.2262   -0.4656    0.9004 C   0  0  0  0  0  0  0  0  0  0  0  0
    7.2728   -1.3870    0.9628 C   0  0  0  0  0  0  0  0  0  0  0  0
    7.4879    0.8986    0.2185 C   0  0  0  0  0  0  0  0  0  0  0  0
   -5.3934    2.3449   -1.3652 O   0  0  0  0  0  0  0  0  0  0  0  0
   -6.9368    1.3312   -0.0995 N   0  0  0  0  0  0  0  0  0  0  0  0
   -6.2690    0.0638    1.8630 C   0  0  0  0  0  0  0  0  0  0  0  0
    8.0542   -0.3535    0.4490 C   0  0  0  0  0  0  0  0  0  0  0  0
   -7.3310    0.7869    1.0910 C   0  0  0  0  0  0  0  0  0  0  0  0
   -8.4646    0.9570    1.5309 O   0  0  0  0  0  0  0  0  0  0  0  0
  1  2  2  0  0  0  0
  2  3  1  0  0  0  0
  3  5  1  0  0  0  0
  4  2  1  0  0  0  0
  4  6  1  0  0  0  0
  4  7  1  1  0  0  0
  6  9  1  0  0  0  0
  6 10  1  1  0  0  0
  7 11  1  0  0  0  0
  8  5  1  6  0  0  0
  8 12  5  0  0  0  0
  8  9  5  0  0  0  0
  9 13  5  1  0  0  0
 10 11  1  0  0  0  0
 11 14  1  0  0  0  0
 12 15  1  6  0  0  0
 12 16  5  0  0  0  0
 13 17  5  0  0  0  0
 14 18  1  0  0  0  0
 15 19  1  0  0  0  0
 16 20  1  1  0  0  0
 16 17  5  0  0  0  0
 18 21  5  0  0  0  0
 18 22  5  0  0  0  0
 20 23  1  0  0  0  0
 20 24  1  0  0  0  0
 21 25  5  0  0  0  0
 22 26  5  0  0  0  0
 23 27  2  0  0  0  0
 23 28  1  0  0  0  0
 24 29  1  0  0  0  0
 25 30  5  0  0  0  0
 26 30  5  0  0  0  0
 28 31  1  0  0  0  0
 29 31  1  0  0  0  0
 31 32  2  0  0  0  0
M  END
>  <ID>
EDEL-CRBN-0007_ent

>  <Stereoisomer>
enantiomer

>  <MW>
434.2

>  <HBD>
2

>  <HBA>
5

>  <RotBonds>
4

>  <cLogP>
1.99

$$$$
EDEL-CRBN-0008
 OpenBabel09062619263D

 32 36  0  0  0  0  0  0  0  0999 V2000
   -5.9890    3.7266    3.1425 Cl  0  0  0  0  0  0  0  0  0  0  0  0
   -5.9501    2.1645    2.4174 C   0  0  2  0  0  0  0  0  0  0  0  0
   -5.2768    1.9548    1.2138 C   0  0  2  0  0  0  0  0  0  0  0  0
   -6.6069    1.1056    3.0444 C   0  0  0  0  0  0  0  0  0  0  0  0
   -4.6617    2.9814    0.6046 F   0  0  0  0  0  0  0  0  0  0  0  0
   -5.2489    0.6873    0.6192 C   0  0  2  0  0  0  0  0  0  0  0  0
   -6.5895   -0.1627    2.4629 C   0  0  0  0  0  0  0  0  0  0  0  0
   -5.9150   -0.3715    1.2575 C   0  0  0  0  0  0  0  0  0  0  0  0
   -4.5010    0.4676   -0.6748 C   0  0  0  0  0  0  0  0  0  0  0  0
   -3.0490    0.3092   -0.4929 N   0  0  0  0  0  0  0  0  0  0  0  0
   -2.3239    0.4207   -1.7687 C   0  0  0  0  0  0  0  0  0  0  0  0
   -2.7098   -0.9125    0.2594 C   0  0  0  0  0  0  0  0  0  0  0  0
   -1.9811   -0.9321   -2.3868 C   0  0  0  0  0  0  0  0  0  0  0  0
   -1.2578   -1.3288    0.0346 C   0  0  0  0  0  0  0  0  0  0  0  0
   -1.0718   -1.7242   -1.4376 C   0  0  1  0  0  0  0  0  0  0  0  0
   -1.3447   -3.1583   -1.5990 O   0  0  0  0  0  0  0  0  0  0  0  0
    0.3912   -1.9631   -1.9464 C   0  0  2  0  0  0  0  0  0  0  0  0
    0.0770   -3.4361   -1.6428 C   0  0  0  0  0  0  0  0  0  0  0  0
    1.6080   -1.2079   -1.2621 C   0  0  2  0  0  0  0  0  0  0  0  0
    1.8391    0.1548   -1.5175 C   0  0  0  0  0  0  0  0  0  0  0  0
    2.5222   -1.8205   -0.3909 C   0  0  0  0  0  0  0  0  0  0  0  0
    2.9025    0.8628   -0.9364 C   0  0  0  0  0  0  0  0  0  0  0  0
    3.5894   -1.1177    0.1941 C   0  0  0  0  0  0  0  0  0  0  0  0
    3.8006    0.2420   -0.0648 C   0  0  1  0  0  0  0  0  0  0  0  0
    4.9008    0.9583    0.5212 N   0  0  0  0  0  0  0  0  0  0  0  0
    4.8482    2.3370    0.7618 C   0  0  0  0  0  0  0  0  0  0  0  0
    6.0218    0.2166    1.0919 C   0  0  0  0  0  0  0  0  0  0  0  0
    3.9191    3.0969    0.5019 O   0  0  0  0  0  0  0  0  0  0  0  0
    5.9651    2.8713    1.3613 N   0  0  0  0  0  0  0  0  0  0  0  0
    7.3311    0.9365    0.8454 C   0  0  0  0  0  0  0  0  0  0  0  0
    7.2239    2.3409    1.3507 C   0  0  0  0  0  0  0  0  0  0  0  0
    8.2076    3.0069    1.6603 O   0  0  0  0  0  0  0  0  0  0  0  0
  2  1  1  6  0  0  0
  2  3  5  0  0  0  0
  2  4  5  0  0  0  0
  3  5  1  6  0  0  0
  3  6  5  0  0  0  0
  4  7  5  0  0  0  0
  6  8  5  0  0  0  0
  6  9  1  1  0  0  0
  7  8  5  0  0  0  0
  9 10  1  0  0  0  0
 10 11  1  0  0  0  0
 10 12  1  0  0  0  0
 11 13  1  0  0  0  0
 12 14  1  0  0  0  0
 14 15  1  0  0  0  0
 15 13  1  6  0  0  0
 15 16  1  0  0  0  0
 15 17  1  0  0  0  0
 16 18  1  0  0  0  0
 17 19  1  0  0  0  0
 17 18  1  1  0  0  0
 19 20  5  6  0  0  0
 19 21  5  0  0  0  0
 20 22  5  0  0  0  0
 21 23  5  0  0  0  0
 23 24  5  0  0  0  0
 24 22  5  6  0  0  0
 24 25  1  0  0  0  0
 25 26  1  0  0  0  0
 25 27  1  0  0  0  0
 26 28  2  0  0  0  0
 26 29  1  0  0  0  0
 27 30  1  0  0  0  0
 29 31  1  0  0  0  0
 30 31  1  0  0  0  0
 31 32  2  0  0  0  0
M  END
>  <ID>
EDEL-CRBN-0008

>  <Stereoisomer>
original

>  <MW>
457.16

>  <HBD>
1

>  <HBA>
4

>  <RotBonds>
4

>  <cLogP>
4.07

$$$$
EDEL-CRBN-0008_ent
 OpenBabel09062619263D

 32 36  0  0  0  0  0  0  0  0999 V2000
   -5.2931    4.4753   -1.2638 Cl  0  0  0  0  0  0  0  0  0  0  0  0
   -5.4438    2.9837   -0.4153 C   0  0  2  0  0  0  0  0  0  0  0  0
   -4.8736    1.8158   -0.9221 C   0  0  2  0  0  0  0  0  0  0  0  0
   -6.1506    2.9515    0.7866 C   0  0  0  0  0  0  0  0  0  0  0  0
   -4.2134    1.8481   -2.0912 F   0  0  0  0  0  0  0  0  0  0  0  0
   -4.9974    0.6004   -0.2366 C   0  0  2  0  0  0  0  0  0  0  0  0
   -6.2878    1.7472    1.4778 C   0  0  0  0  0  0  0  0  0  0  0  0
   -5.7161    0.5781    0.9693 C   0  0  0  0  0  0  0  0  0  0  0  0
   -4.3641   -0.6537   -0.7910 C   0  0  0  0  0  0  0  0  0  0  0  0
   -2.9054   -0.6848   -0.6153 N   0  0  0  0  0  0  0  0  0  0  0  0
   -2.2895   -1.5892   -1.6014 C   0  0  0  0  0  0  0  0  0  0  0  0
   -2.4758   -0.9505    0.7657 C   0  0  0  0  0  0  0  0  0  0  0  0
   -0.8402   -1.8956   -1.2366 C   0  0  0  0  0  0  0  0  0  0  0  0
   -2.0047   -2.3857    0.9876 C   0  0  0  0  0  0  0  0  0  0  0  0
   -0.8062   -2.6876    0.0789 C   0  0  1  0  0  0  0  0  0  0  0  0
   -0.7774   -4.1260   -0.2134 O   0  0  0  0  0  0  0  0  0  0  0  0
    0.5745   -2.8251    0.8069 C   0  0  1  0  0  0  0  0  0  0  0  0
    0.6459   -4.1657    0.0605 C   0  0  0  0  0  0  0  0  0  0  0  0
    1.6823   -1.7019    0.6314 C   0  0  1  0  0  0  0  0  0  0  0  0
    1.6162   -0.5132    1.3794 C   0  0  0  0  0  0  0  0  0  0  0  0
    2.7749   -1.8027   -0.2441 C   0  0  0  0  0  0  0  0  0  0  0  0
    2.5691    0.5094    1.2589 C   0  0  0  0  0  0  0  0  0  0  0  0
    3.7310   -0.7811   -0.3727 C   0  0  0  0  0  0  0  0  0  0  0  0
    3.6480    0.3970    0.3791 C   0  0  1  0  0  0  0  0  0  0  0  0
    4.6152    1.4497    0.2375 N   0  0  0  0  0  0  0  0  0  0  0  0
    4.9291    2.3169    1.2905 C   0  0  0  0  0  0  0  0  0  0  0  0
    5.4601    1.4962   -0.9525 C   0  0  0  0  0  0  0  0  0  0  0  0
    4.4469    2.3092    2.4203 O   0  0  0  0  0  0  0  0  0  0  0  0
    5.8908    3.2591    1.0082 N   0  0  0  0  0  0  0  0  0  0  0  0
    5.7076    2.9257   -1.3863 C   0  0  0  0  0  0  0  0  0  0  0  0
    6.2579    3.7019   -0.2311 C   0  0  0  0  0  0  0  0  0  0  0  0
    6.9312    4.7177   -0.3792 O   0  0  0  0  0  0  0  0  0  0  0  0
  2  1  1  6  0  0  0
  2  3  5  0  0  0  0
  2  4  5  0  0  0  0
  3  5  1  6  0  0  0
  3  6  5  0  0  0  0
  4  7  5  0  0  0  0
  6  8  5  0  0  0  0
  6  9  1  1  0  0  0
  7  8  5  0  0  0  0
  9 10  1  0  0  0  0
 10 11  1  0  0  0  0
 10 12  1  0  0  0  0
 11 13  1  0  0  0  0
 12 14  1  0  0  0  0
 14 15  1  0  0  0  0
 15 13  1  6  0  0  0
 15 16  1  0  0  0  0
 15 17  1  0  0  0  0
 16 18  1  0  0  0  0
 17 19  1  0  0  0  0
 17 18  1  6  0  0  0
 19 20  5  1  0  0  0
 19 21  5  0  0  0  0
 20 22  5  0  0  0  0
 21 23  5  0  0  0  0
 23 24  5  0  0  0  0
 24 22  5  6  0  0  0
 24 25  1  0  0  0  0
 25 26  1  0  0  0  0
 25 27  1  0  0  0  0
 26 28  2  0  0  0  0
 26 29  1  0  0  0  0
 27 30  1  0  0  0  0
 29 31  1  0  0  0  0
 30 31  1  0  0  0  0
 31 32  2  0  0  0  0
M  END
>  <ID>
EDEL-CRBN-0008_ent

>  <Stereoisomer>
enantiomer

>  <MW>
457.16

>  <HBD>
1

>  <HBA>
4

>  <RotBonds>
4

>  <cLogP>
4.07

$$$$
EDEL-CRBN-0009
 OpenBabel09062619263D

 34 38  0  0  0  0  0  0  0  0999 V2000
    0.8744    4.6171   -1.1890 O   0  0  0  0  0  0  0  0  0  0  0  0
   -0.2614    4.9505   -0.8608 C   0  0  0  0  0  0  0  0  0  0  0  0
   -1.1440    4.2378   -0.0404 N   0  0  0  0  0  0  0  0  0  0  0  0
   -0.7388    6.1518   -1.3313 N   0  0  0  0  0  0  0  0  0  0  0  0
   -0.7868    2.9784    0.5570 C   0  0  2  0  0  0  0  0  0  0  0  0
   -2.3730    4.9088    0.3737 C   0  0  0  0  0  0  0  0  0  0  0  0
   -2.0519    6.5031   -1.4655 C   0  0  0  0  0  0  0  0  0  0  0  0
    0.1292    2.1172   -0.0698 C   0  0  0  0  0  0  0  0  0  0  0  0
   -1.3697    2.5611    1.7824 C   0  0  0  0  0  0  0  0  0  0  0  0
   -3.0383    5.5943   -0.8014 C   0  0  0  0  0  0  0  0  0  0  0  0
   -2.3964    7.4573   -2.1570 O   0  0  0  0  0  0  0  0  0  0  0  0
    0.4285    0.9034    0.5262 C   0  0  1  0  0  0  0  0  0  0  0  0
   -1.0674    1.3268    2.3761 C   0  0  0  0  0  0  0  0  0  0  0  0
   -0.1663    0.5099    1.7326 C   0  0  1  0  0  0  0  0  0  0  0  0
    1.3288   -0.2199    0.0646 C   0  0  1  0  0  0  0  0  0  0  0  0
    0.3372   -0.8745    2.0687 C   0  0  2  0  0  0  0  0  0  0  0  0
    1.6022   -0.8712    1.3449 N   0  0  0  0  0  0  0  0  0  0  0  0
    0.4878   -1.2118   -0.8062 C   0  0  0  0  0  0  0  0  0  0  0  0
   -0.5971   -1.9310    1.3864 C   0  0  0  0  0  0  0  0  0  0  0  0
    2.5185   -1.8697    1.5258 C   0  0  0  0  0  0  0  0  0  0  0  0
   -0.3038   -2.2052   -0.0420 N   0  0  0  0  0  0  0  0  0  0  0  0
    2.5023   -2.6325    2.4832 O   0  0  0  0  0  0  0  0  0  0  0  0
    3.4303   -1.8953    0.5210 O   0  0  0  0  0  0  0  0  0  0  0  0
   -1.3094   -2.9516   -0.7842 C   0  0  0  0  0  0  0  0  0  0  0  0
    4.4781   -2.8963    0.4922 C   0  0  0  0  0  0  0  0  0  0  0  0
   -2.5693   -2.1874   -1.1329 C   0  0  0  0  0  0  0  0  0  0  0  0
    5.2705   -2.5900   -0.7881 C   0  0  0  0  0  0  0  0  0  0  0  0
    5.4182   -2.7574    1.6942 C   0  0  0  0  0  0  0  0  0  0  0  0
    3.8938   -4.3087    0.3782 C   0  0  0  0  0  0  0  0  0  0  0  0
   -3.6765   -2.2001   -0.2710 C   0  0  0  0  0  0  0  0  0  0  0  0
   -2.6617   -1.4629   -2.3308 C   0  0  0  0  0  0  0  0  0  0  0  0
   -4.8387   -1.4956   -0.5915 C   0  0  0  0  0  0  0  0  0  0  0  0
   -3.8238   -0.7581   -2.6508 C   0  0  0  0  0  0  0  0  0  0  0  0
   -4.9111   -0.7733   -1.7803 C   0  0  0  0  0  0  0  0  0  0  0  0
  1  2  2  0  0  0  0
  2  3  1  0  0  0  0
  2  4  1  0  0  0  0
  3  6  1  0  0  0  0
  4  7  1  0  0  0  0
  5  3  1  6  0  0  0
  5  8  5  0  0  0  0
  5  9  5  0  0  0  0
  6 10  1  0  0  0  0
  7 11  2  0  0  0  0
  7 10  1  0  0  0  0
  9 13  5  0  0  0  0
 12  8  5  6  0  0  0
 12 14  5  0  0  0  0
 12 15  1  0  0  0  0
 14 16  1  0  0  0  0
 14 13  5  6  0  0  0
 15 17  1  0  0  0  0
 15 18  1  6  0  0  0
 16 19  1  6  0  0  0
 16 17  1  0  0  0  0
 17 20  1  0  0  0  0
 18 21  1  0  0  0  0
 19 21  1  0  0  0  0
 20 22  2  0  0  0  0
 20 23  1  0  0  0  0
 21 24  1  0  0  0  0
 23 25  1  0  0  0  0
 24 26  1  0  0  0  0
 25 27  1  0  0  0  0
 25 28  1  0  0  0  0
 25 29  1  0  0  0  0
 26 30  5  0  0  0  0
 26 31  5  0  0  0  0
 30 32  5  0  0  0  0
 31 33  5  0  0  0  0
 32 34  5  0  0  0  0
 33 34  5  0  0  0  0
M  END
>  <ID>
EDEL-CRBN-0009

>  <Stereoisomer>
original

>  <MW>
462.23

>  <HBD>
1

>  <HBA>
5

>  <RotBonds>
3

>  <cLogP>
3.98

$$$$
EDEL-CRBN-0009_ent
 OpenBabel09062619263D

 34 38  0  0  0  0  0  0  0  0999 V2000
    0.0078    4.0929    2.6142 O   0  0  0  0  0  0  0  0  0  0  0  0
   -0.4291    4.8994    1.7970 C   0  0  0  0  0  0  0  0  0  0  0  0
   -0.7748    4.6450    0.4643 N   0  0  0  0  0  0  0  0  0  0  0  0
   -0.6159    6.1972    2.2138 N   0  0  0  0  0  0  0  0  0  0  0  0
   -0.6715    3.3317   -0.1153 C   0  0  2  0  0  0  0  0  0  0  0  0
   -1.4611    5.7038   -0.2704 C   0  0  0  0  0  0  0  0  0  0  0  0
   -0.6758    7.3047    1.4165 C   0  0  0  0  0  0  0  0  0  0  0  0
    0.2910    2.4161    0.3420 C   0  0  0  0  0  0  0  0  0  0  0  0
   -1.5308    2.9330   -1.1742 C   0  0  0  0  0  0  0  0  0  0  0  0
   -0.7855    7.0414   -0.0526 C   0  0  0  0  0  0  0  0  0  0  0  0
   -0.5641    8.4372    1.8772 O   0  0  0  0  0  0  0  0  0  0  0  0
    0.3677    1.1696   -0.2545 C   0  0  2  0  0  0  0  0  0  0  0  0
   -1.4511    1.6661   -1.7721 C   0  0  0  0  0  0  0  0  0  0  0  0
   -0.4927    0.7981   -1.3038 C   0  0  2  0  0  0  0  0  0  0  0  0
    1.2632   -0.0105    0.0479 C   0  0  2  0  0  0  0  0  0  0  0  0
   -0.1623   -0.6258   -1.6912 C   0  0  1  0  0  0  0  0  0  0  0  0
    1.2255   -0.6924   -1.2451 N   0  0  0  0  0  0  0  0  0  0  0  0
    0.5687   -0.9710    1.0718 C   0  0  0  0  0  0  0  0  0  0  0  0
   -0.9633   -1.6336   -0.7989 C   0  0  0  0  0  0  0  0  0  0  0  0
    2.0537   -1.7109   -1.6216 C   0  0  0  0  0  0  0  0  0  0  0  0
   -0.8126   -1.3917    0.6738 N   0  0  0  0  0  0  0  0  0  0  0  0
    1.7989   -2.4823   -2.5364 O   0  0  0  0  0  0  0  0  0  0  0  0
    3.1670   -1.7576   -0.8481 O   0  0  0  0  0  0  0  0  0  0  0  0
   -1.2849   -2.5173    1.4857 C   0  0  0  0  0  0  0  0  0  0  0  0
    4.1808   -2.7727   -1.0597 C   0  0  0  0  0  0  0  0  0  0  0  0
   -2.7712   -2.7688    1.3503 C   0  0  0  0  0  0  0  0  0  0  0  0
    5.2509   -2.4783    0.0028 C   0  0  0  0  0  0  0  0  0  0  0  0
    3.6197   -4.1772   -0.8117 C   0  0  0  0  0  0  0  0  0  0  0  0
    4.8198   -2.6447   -2.4465 C   0  0  0  0  0  0  0  0  0  0  0  0
   -3.6944   -1.7678    1.6897 C   0  0  0  0  0  0  0  0  0  0  0  0
   -3.2500   -4.0058    0.8959 C   0  0  0  0  0  0  0  0  0  0  0  0
   -5.0657   -1.9980    1.5742 C   0  0  0  0  0  0  0  0  0  0  0  0
   -4.6227   -4.2344    0.7814 C   0  0  0  0  0  0  0  0  0  0  0  0
   -5.5293   -3.2314    1.1206 C   0  0  0  0  0  0  0  0  0  0  0  0
  1  2  2  0  0  0  0
  2  3  1  0  0  0  0
  2  4  1  0  0  0  0
  3  6  1  0  0  0  0
  4  7  1  0  0  0  0
  5  3  1  6  0  0  0
  5  8  5  0  0  0  0
  5  9  5  0  0  0  0
  6 10  1  0  0  0  0
  7 11  2  0  0  0  0
  7 10  1  0  0  0  0
  9 13  5  0  0  0  0
 12  8  5  1  0  0  0
 12 14  5  0  0  0  0
 12 15  1  0  0  0  0
 14 16  1  0  0  0  0
 14 13  5  1  0  0  0
 15 17  1  0  0  0  0
 15 18  1  1  0  0  0
 16 19  1  1  0  0  0
 16 17  1  0  0  0  0
 17 20  1  0  0  0  0
 18 21  1  0  0  0  0
 19 21  1  0  0  0  0
 20 22  2  0  0  0  0
 20 23  1  0  0  0  0
 21 24  1  0  0  0  0
 23 25  1  0  0  0  0
 24 26  1  0  0  0  0
 25 27  1  0  0  0  0
 25 28  1  0  0  0  0
 25 29  1  0  0  0  0
 26 30  5  0  0  0  0
 26 31  5  0  0  0  0
 30 32  5  0  0  0  0
 31 33  5  0  0  0  0
 32 34  5  0  0  0  0
 33 34  5  0  0  0  0
M  END
>  <ID>
EDEL-CRBN-0009_ent

>  <Stereoisomer>
enantiomer

>  <MW>
462.23

>  <HBD>
1

>  <HBA>
5

>  <RotBonds>
3

>  <cLogP>
3.98

$$$$
EDEL-CRBN-0010
 OpenBabel09062619263D

 34 38  0  0  0  0  0  0  0  0999 V2000
    1.9879   -3.0816   -1.8663 O   0  0  0  0  0  0  0  0  0  0  0  0
    1.6523   -1.9650   -1.4686 C   0  0  0  0  0  0  0  0  0  0  0  0
    0.9191   -1.1793   -2.2988 N   0  0  0  0  0  0  0  0  0  0  0  0
    2.1032   -1.4452   -0.1214 C   0  0  2  0  0  0  0  0  0  0  0  0
    0.2743    0.0588   -1.9503 C   0  0  0  0  0  0  0  0  0  0  0  0
    1.0952   -0.7535    0.8173 C   0  0  2  0  0  0  0  0  0  0  0  0
    3.2652   -0.4633   -0.2600 C   0  0  0  0  0  0  0  0  0  0  0  0
   -0.7552   -0.1642   -0.8773 C   0  0  2  0  0  0  0  0  0  0  0  0
   -0.3554   -0.5658    0.4142 C   0  0  2  0  0  0  0  0  0  0  0  0
    1.7672    0.5839    1.1796 C   0  0  0  0  0  0  0  0  0  0  0  0
    3.1942    0.3220    0.9788 N   0  0  0  0  0  0  0  0  0  0  0  0
   -2.1287    0.0118   -1.1476 C   0  0  2  0  0  0  0  0  0  0  0  0
   -1.3396   -0.7389    1.4069 C   0  0  0  0  0  0  0  0  0  0  0  0
    3.9810    1.5583    0.9279 C   0  0  0  0  0  0  0  0  0  0  0  0
   -2.5046    0.3644   -2.4269 O   0  0  0  0  0  0  0  0  0  0  0  0
   -3.1078   -0.1445   -0.1457 C   0  0  1  0  0  0  0  0  0  0  0  0
   -2.6981   -0.5407    1.1345 C   0  0  2  0  0  0  0  0  0  0  0  0
    5.4719    1.3090    0.8587 C   0  0  0  0  0  0  0  0  0  0  0  0
   -2.9329   -0.7964   -3.1477 C   0  0  0  0  0  0  0  0  0  0  0  0
   -4.4764    0.1341   -0.4398 N   0  0  0  0  0  0  0  0  0  0  0  0
   -3.6206   -0.5737    2.1522 O   0  0  0  0  0  0  0  0  0  0  0  0
    6.1257    0.6184    1.8903 C   0  0  0  0  0  0  0  0  0  0  0  0
    6.2254    1.7708   -0.2299 C   0  0  0  0  0  0  0  0  0  0  0  0
   -5.4892   -0.7440   -0.0726 C   0  0  0  0  0  0  0  0  0  0  0  0
   -4.8231    1.5167   -0.7385 C   0  0  0  0  0  0  0  0  0  0  0  0
   -3.6043   -1.8110    2.8657 C   0  0  0  0  0  0  0  0  0  0  0  0
    7.5015    0.3923    1.8331 C   0  0  0  0  0  0  0  0  0  0  0  0
    7.6021    1.5442   -0.2852 C   0  0  0  0  0  0  0  0  0  0  0  0
   -5.3368   -1.9160    0.2643 O   0  0  0  0  0  0  0  0  0  0  0  0
   -6.7627   -0.2439   -0.2104 N   0  0  0  0  0  0  0  0  0  0  0  0
   -6.0102    1.5595   -1.6741 C   0  0  0  0  0  0  0  0  0  0  0  0
    8.2392    0.8558    0.7457 C   0  0  0  0  0  0  0  0  0  0  0  0
   -7.1268    0.7374   -1.0921 C   0  0  0  0  0  0  0  0  0  0  0  0
   -8.2946    0.8753   -1.4480 O   0  0  0  0  0  0  0  0  0  0  0  0
  1  2  2  0  0  0  0
  2  3  1  0  0  0  0
  3  5  1  0  0  0  0
  4  2  1  0  0  0  0
  4  6  1  0  0  0  0
  4  7  1  6  0  0  0
  6  9  1  0  0  0  0
  6 10  1  6  0  0  0
  7 11  1  0  0  0  0
  8  5  1  6  0  0  0
  8 12  5  0  0  0  0
  8  9  5  0  0  0  0
  9 13  5  1  0  0  0
 10 11  1  0  0  0  0
 11 14  1  0  0  0  0
 12 15  1  1  0  0  0
 12 16  5  0  0  0  0
 13 17  5  0  0  0  0
 14 18  1  0  0  0  0
 15 19  1  0  0  0  0
 16 20  1  1  0  0  0
 16 17  5  0  0  0  0
 17 21  1  1  0  0  0
 18 22  5  0  0  0  0
 18 23  5  0  0  0  0
 20 24  1  0  0  0  0
 20 25  1  0  0  0  0
 21 26  1  0  0  0  0
 22 27  5  0  0  0  0
 23 28  5  0  0  0  0
 24 29  2  0  0  0  0
 24 30  1  0  0  0  0
 25 31  1  0  0  0  0
 27 32  5  0  0  0  0
 28 32  5  0  0  0  0
 30 33  1  0  0  0  0
 31 33  1  0  0  0  0
 33 34  2  0  0  0  0
M  END
>  <ID>
EDEL-CRBN-0010

>  <Stereoisomer>
original

>  <MW>
464.21

>  <HBD>
2

>  <HBA>
6

>  <RotBonds>
5

>  <cLogP>
2.0

$$$$
EDEL-CRBN-0010_ent
 OpenBabel09062619263D

 34 38  0  0  0  0  0  0  0  0999 V2000
    1.7189   -1.5449   -3.4788 O   0  0  0  0  0  0  0  0  0  0  0  0
    1.1855   -0.4669   -3.2086 C   0  0  0  0  0  0  0  0  0  0  0  0
   -0.0619   -0.2380   -3.7033 N   0  0  0  0  0  0  0  0  0  0  0  0
    1.9341    0.6308   -2.4695 C   0  0  1  0  0  0  0  0  0  0  0  0
   -0.9525    0.8356   -3.3338 C   0  0  0  0  0  0  0  0  0  0  0  0
    1.2005    1.6924   -1.6380 C   0  0  1  0  0  0  0  0  0  0  0  0
    2.9703    0.0340   -1.4982 C   0  0  0  0  0  0  0  0  0  0  0  0
   -1.1710    0.8411   -1.8426 C   0  0  2  0  0  0  0  0  0  0  0  0
   -0.0980    1.2122   -0.9975 C   0  0  2  0  0  0  0  0  0  0  0  0
    2.3352    2.1562   -0.7101 C   0  0  0  0  0  0  0  0  0  0  0  0
    2.9629    0.9017   -0.3067 N   0  0  0  0  0  0  0  0  0  0  0  0
   -2.3907    0.4217   -1.2778 C   0  0  2  0  0  0  0  0  0  0  0  0
   -0.2881    1.1581    0.3918 C   0  0  0  0  0  0  0  0  0  0  0  0
    4.2812    1.0866    0.3007 C   0  0  0  0  0  0  0  0  0  0  0  0
   -3.4026    0.0281   -2.1268 O   0  0  0  0  0  0  0  0  0  0  0  0
   -2.5871    0.4086    0.1166 C   0  0  1  0  0  0  0  0  0  0  0  0
   -1.5112    0.7561    0.9466 C   0  0  2  0  0  0  0  0  0  0  0  0
    4.8342   -0.1834    0.9104 C   0  0  0  0  0  0  0  0  0  0  0  0
   -3.4493   -1.4010   -2.2040 C   0  0  0  0  0  0  0  0  0  0  0  0
   -3.8684    0.0753    0.6500 N   0  0  0  0  0  0  0  0  0  0  0  0
   -1.7144    0.8480    2.3034 O   0  0  0  0  0  0  0  0  0  0  0  0
    4.1128   -0.8734    1.8969 C   0  0  0  0  0  0  0  0  0  0  0  0
    6.0839   -0.6811    0.5149 C   0  0  0  0  0  0  0  0  0  0  0  0
   -4.0077   -0.8311    1.6943 C   0  0  0  0  0  0  0  0  0  0  0  0
   -4.9604    0.9982    0.3733 C   0  0  0  0  0  0  0  0  0  0  0  0
   -0.7507    0.1008    3.0482 C   0  0  0  0  0  0  0  0  0  0  0  0
    4.6264   -2.0378    2.4694 C   0  0  0  0  0  0  0  0  0  0  0  0
    6.5968   -1.8457    1.0895 C   0  0  0  0  0  0  0  0  0  0  0  0
   -3.1534   -1.6283    2.0747 O   0  0  0  0  0  0  0  0  0  0  0  0
   -5.2628   -0.8746    2.2547 N   0  0  0  0  0  0  0  0  0  0  0  0
   -6.2730    0.2484    0.3369 C   0  0  0  0  0  0  0  0  0  0  0  0
    5.8685   -2.5231    2.0659 C   0  0  0  0  0  0  0  0  0  0  0  0
   -6.4213   -0.5477    1.6039 C   0  0  0  0  0  0  0  0  0  0  0  0
   -7.5114   -0.9594    1.9937 O   0  0  0  0  0  0  0  0  0  0  0  0
  1  2  2  0  0  0  0
  2  3  1  0  0  0  0
  3  5  1  0  0  0  0
  4  2  1  0  0  0  0
  4  6  1  0  0  0  0
  4  7  1  1  0  0  0
  6  9  1  0  0  0  0
  6 10  1  1  0  0  0
  7 11  1  0  0  0  0
  8  5  1  1  0  0  0
  8 12  5  0  0  0  0
  8  9  5  0  0  0  0
  9 13  5  1  0  0  0
 10 11  1  0  0  0  0
 11 14  1  0  0  0  0
 12 15  1  6  0  0  0
 12 16  5  0  0  0  0
 13 17  5  0  0  0  0
 14 18  1  0  0  0  0
 15 19  1  0  0  0  0
 16 20  1  6  0  0  0
 16 17  5  0  0  0  0
 17 21  1  1  0  0  0
 18 22  5  0  0  0  0
 18 23  5  0  0  0  0
 20 24  1  0  0  0  0
 20 25  1  0  0  0  0
 21 26  1  0  0  0  0
 22 27  5  0  0  0  0
 23 28  5  0  0  0  0
 24 29  2  0  0  0  0
 24 30  1  0  0  0  0
 25 31  1  0  0  0  0
 27 32  5  0  0  0  0
 28 32  5  0  0  0  0
 30 33  1  0  0  0  0
 31 33  1  0  0  0  0
 33 34  2  0  0  0  0
M  END
>  <ID>
EDEL-CRBN-0010_ent

>  <Stereoisomer>
enantiomer

>  <MW>
464.21

>  <HBD>
2

>  <HBA>
6

>  <RotBonds>
5

>  <cLogP>
2.0

$$$$
EDEL-CRBN-0011
 OpenBabel09062619263D

 34 38  0  0  0  0  0  0  0  0999 V2000
    8.1961   -0.2486    2.0618 Cl  0  0  0  0  0  0  0  0  0  0  0  0
    7.0874   -1.2007    1.1505 C   0  0  2  0  0  0  0  0  0  0  0  0
    5.7796   -1.3916    1.5973 C   0  0  2  0  0  0  0  0  0  0  0  0
    7.5094   -1.7857   -0.0422 C   0  0  0  0  0  0  0  0  0  0  0  0
    5.3808   -0.8320    2.7513 F   0  0  0  0  0  0  0  0  0  0  0  0
    4.8692   -2.1615    0.8613 C   0  0  1  0  0  0  0  0  0  0  0  0
    6.6202   -2.5649   -0.7823 C   0  0  0  0  0  0  0  0  0  0  0  0
    5.3104   -2.7540   -0.3326 C   0  0  0  0  0  0  0  0  0  0  0  0
    3.4543   -2.3524    1.3567 C   0  0  0  0  0  0  0  0  0  0  0  0
    2.4473   -1.4155    0.8487 N   0  0  0  0  0  0  0  0  0  0  0  0
    2.6378   -0.0302    1.2914 C   0  0  0  0  0  0  0  0  0  0  0  0
    2.0821   -1.5673   -0.5590 C   0  0  0  0  0  0  0  0  0  0  0  0
    1.6016    0.8808    0.6376 C   0  0  0  0  0  0  0  0  0  0  0  0
    2.4896   -0.3715   -1.4155 C   0  0  0  0  0  0  0  0  0  0  0  0
    1.8288    0.9075   -0.8825 C   0  0  2  0  0  0  0  0  0  0  0  0
    2.6676    2.0601   -1.2355 O   0  0  0  0  0  0  0  0  0  0  0  0
    0.6811    1.4955   -1.7751 C   0  0  2  0  0  0  0  0  0  0  0  0
    1.4964    2.7941   -1.6723 C   0  0  0  0  0  0  0  0  0  0  0  0
   -0.8292    1.4114   -1.2930 C   0  0  2  0  0  0  0  0  0  0  0  0
   -1.5479    0.2065   -1.3998 C   0  0  0  0  0  0  0  0  0  0  0  0
   -1.5426    2.4956   -0.7565 C   0  0  0  0  0  0  0  0  0  0  0  0
   -2.8865    0.0889   -0.9923 C   0  0  2  0  0  0  0  0  0  0  0  0
   -2.8730    2.3786   -0.3216 C   0  0  0  0  0  0  0  0  0  0  0  0
   -3.4931   -1.1244   -1.2154 O   0  0  0  0  0  0  0  0  0  0  0  0
   -3.5682    1.1672   -0.4074 C   0  0  2  0  0  0  0  0  0  0  0  0
   -4.0558   -1.1474   -2.5302 C   0  0  0  0  0  0  0  0  0  0  0  0
   -4.9005    1.0667    0.1177 N   0  0  0  0  0  0  0  0  0  0  0  0
   -5.8152    2.1135    0.0015 C   0  0  0  0  0  0  0  0  0  0  0  0
   -5.3758   -0.2108    0.6384 C   0  0  0  0  0  0  0  0  0  0  0  0
   -5.6196    3.1929   -0.5519 O   0  0  0  0  0  0  0  0  0  0  0  0
   -7.0485    1.8789    0.5608 N   0  0  0  0  0  0  0  0  0  0  0  0
   -6.2372   -0.0011    1.8665 C   0  0  0  0  0  0  0  0  0  0  0  0
   -7.3302    0.9711    1.5430 C   0  0  0  0  0  0  0  0  0  0  0  0
   -8.3847    1.0113    2.1709 O   0  0  0  0  0  0  0  0  0  0  0  0
  2  1  1  1  0  0  0
  2  3  5  0  0  0  0
  2  4  5  0  0  0  0
  3  5  1  1  0  0  0
  3  6  5  0  0  0  0
  4  7  5  0  0  0  0
  6  8  5  0  0  0  0
  6  9  1  1  0  0  0
  7  8  5  0  0  0  0
  9 10  1  0  0  0  0
 10 11  1  0  0  0  0
 10 12  1  0  0  0  0
 11 13  1  0  0  0  0
 12 14  1  0  0  0  0
 14 15  1  0  0  0  0
 15 13  1  1  0  0  0
 15 16  1  0  0  0  0
 15 17  1  0  0  0  0
 16 18  1  0  0  0  0
 17 19  1  0  0  0  0
 17 18  1  1  0  0  0
 19 20  5  6  0  0  0
 19 21  5  0  0  0  0
 20 22  5  0  0  0  0
 21 23  5  0  0  0  0
 22 24  1  6  0  0  0
 22 25  5  0  0  0  0
 23 25  5  0  0  0  0
 24 26  1  0  0  0  0
 25 27  1  1  0  0  0
 27 28  1  0  0  0  0
 27 29  1  0  0  0  0
 28 30  2  0  0  0  0
 28 31  1  0  0  0  0
 29 32  1  0  0  0  0
 31 33  1  0  0  0  0
 32 33  1  0  0  0  0
 33 34  2  0  0  0  0
M  END
>  <ID>
EDEL-CRBN-0011

>  <Stereoisomer>
original

>  <MW>
487.17

>  <HBD>
1

>  <HBA>
5

>  <RotBonds>
5

>  <cLogP>
4.08

$$$$
EDEL-CRBN-0011_ent
 OpenBabel09062619263D

 34 38  0  0  0  0  0  0  0  0999 V2000
    0.3068   -1.1920    3.9698 Cl  0  0  0  0  0  0  0  0  0  0  0  0
    1.3567   -0.5893    2.7443 C   0  0  1  0  0  0  0  0  0  0  0  0
    2.2036   -1.4524    2.0473 C   0  0  2  0  0  0  0  0  0  0  0  0
    1.3529    0.7717    2.4505 C   0  0  0  0  0  0  0  0  0  0  0  0
    2.2058   -2.7616    2.3448 F   0  0  0  0  0  0  0  0  0  0  0  0
    3.0536   -0.9754    1.0416 C   0  0  1  0  0  0  0  0  0  0  0  0
    2.2070    1.2679    1.4666 C   0  0  0  0  0  0  0  0  0  0  0  0
    3.0553    0.4029    0.7719 C   0  0  0  0  0  0  0  0  0  0  0  0
    3.9475   -1.9187    0.2695 C   0  0  0  0  0  0  0  0  0  0  0  0
    3.4051   -2.4650   -0.9792 N   0  0  0  0  0  0  0  0  0  0  0  0
    2.3004   -3.4162   -0.8272 C   0  0  0  0  0  0  0  0  0  0  0  0
    3.2422   -1.4980   -2.0648 C   0  0  0  0  0  0  0  0  0  0  0  0
    0.9524   -2.8131   -1.2128 C   0  0  0  0  0  0  0  0  0  0  0  0
    2.3994   -2.0791   -3.1975 C   0  0  0  0  0  0  0  0  0  0  0  0
    0.9802   -2.3397   -2.6760 C   0  0  1  0  0  0  0  0  0  0  0  0
    0.3193   -3.3307   -3.5314 O   0  0  0  0  0  0  0  0  0  0  0  0
   -0.0860   -1.2772   -3.1097 C   0  0  1  0  0  0  0  0  0  0  0  0
   -0.8706   -2.5043   -3.5967 C   0  0  0  0  0  0  0  0  0  0  0  0
   -0.6878   -0.2577   -2.0490 C   0  0  1  0  0  0  0  0  0  0  0  0
   -1.7654   -0.5554   -1.1986 C   0  0  0  0  0  0  0  0  0  0  0  0
   -0.1398    1.0297   -1.9013 C   0  0  0  0  0  0  0  0  0  0  0  0
   -2.2590    0.3682   -0.2610 C   0  0  1  0  0  0  0  0  0  0  0  0
   -0.6465    1.9682   -0.9887 C   0  0  0  0  0  0  0  0  0  0  0  0
   -3.2678   -0.0782    0.5598 O   0  0  0  0  0  0  0  0  0  0  0  0
   -1.7340    1.6669   -0.1622 C   0  0  1  0  0  0  0  0  0  0  0  0
   -2.7055   -0.6805    1.7296 C   0  0  0  0  0  0  0  0  0  0  0  0
   -2.2811    2.6762    0.7006 N   0  0  0  0  0  0  0  0  0  0  0  0
   -1.4722    3.6089    1.3495 C   0  0  0  0  0  0  0  0  0  0  0  0
   -3.7011    2.6429    1.0378 C   0  0  0  0  0  0  0  0  0  0  0  0
   -0.2461    3.6739    1.2945 O   0  0  0  0  0  0  0  0  0  0  0  0
   -2.1402    4.5232    2.1281 N   0  0  0  0  0  0  0  0  0  0  0  0
   -4.2757    4.0439    1.0750 C   0  0  0  0  0  0  0  0  0  0  0  0
   -3.4487    4.8936    1.9905 C   0  0  0  0  0  0  0  0  0  0  0  0
   -3.8856    5.9106    2.5217 O   0  0  0  0  0  0  0  0  0  0  0  0
  2  1  1  6  0  0  0
  2  3  5  0  0  0  0
  2  4  5  0  0  0  0
  3  5  1  1  0  0  0
  3  6  5  0  0  0  0
  4  7  5  0  0  0  0
  6  8  5  0  0  0  0
  6  9  1  1  0  0  0
  7  8  5  0  0  0  0
  9 10  1  0  0  0  0
 10 11  1  0  0  0  0
 10 12  1  0  0  0  0
 11 13  1  0  0  0  0
 12 14  1  0  0  0  0
 14 15  1  0  0  0  0
 15 13  1  1  0  0  0
 15 16  1  0  0  0  0
 15 17  1  0  0  0  0
 16 18  1  0  0  0  0
 17 19  1  0  0  0  0
 17 18  1  1  0  0  0
 19 20  5  1  0  0  0
 19 21  5  0  0  0  0
 20 22  5  0  0  0  0
 21 23  5  0  0  0  0
 22 24  1  1  0  0  0
 22 25  5  0  0  0  0
 23 25  5  0  0  0  0
 24 26  1  0  0  0  0
 25 27  1  6  0  0  0
 27 28  1  0  0  0  0
 27 29  1  0  0  0  0
 28 30  2  0  0  0  0
 28 31  1  0  0  0  0
 29 32  1  0  0  0  0
 31 33  1  0  0  0  0
 32 33  1  0  0  0  0
 33 34  2  0  0  0  0
M  END
>  <ID>
EDEL-CRBN-0011_ent

>  <Stereoisomer>
enantiomer

>  <MW>
487.17

>  <HBD>
1

>  <HBA>
5

>  <RotBonds>
5

>  <cLogP>
4.08

$$$$
EDEL-CRBN-0012
 OpenBabel09062619263D

 34 38  0  0  0  0  0  0  0  0999 V2000
    8.1961   -0.2486    2.0618 Cl  0  0  0  0  0  0  0  0  0  0  0  0
    7.0874   -1.2007    1.1505 C   0  0  2  0  0  0  0  0  0  0  0  0
    5.7796   -1.3916    1.5973 C   0  0  2  0  0  0  0  0  0  0  0  0
    7.5094   -1.7857   -0.0422 C   0  0  0  0  0  0  0  0  0  0  0  0
    5.3808   -0.8320    2.7513 F   0  0  0  0  0  0  0  0  0  0  0  0
    4.8692   -2.1615    0.8613 C   0  0  1  0  0  0  0  0  0  0  0  0
    6.6202   -2.5649   -0.7823 C   0  0  0  0  0  0  0  0  0  0  0  0
    5.3104   -2.7540   -0.3326 C   0  0  0  0  0  0  0  0  0  0  0  0
    3.4543   -2.3524    1.3567 C   0  0  0  0  0  0  0  0  0  0  0  0
    2.4473   -1.4155    0.8487 N   0  0  0  0  0  0  0  0  0  0  0  0
    2.6378   -0.0302    1.2914 C   0  0  0  0  0  0  0  0  0  0  0  0
    2.0821   -1.5673   -0.5590 C   0  0  0  0  0  0  0  0  0  0  0  0
    1.6016    0.8808    0.6376 C   0  0  0  0  0  0  0  0  0  0  0  0
    2.4896   -0.3715   -1.4155 C   0  0  0  0  0  0  0  0  0  0  0  0
    1.8288    0.9075   -0.8825 C   0  0  2  0  0  0  0  0  0  0  0  0
    2.6676    2.0601   -1.2355 O   0  0  0  0  0  0  0  0  0  0  0  0
    0.6811    1.4955   -1.7751 C   0  0  2  0  0  0  0  0  0  0  0  0
    1.4964    2.7941   -1.6723 C   0  0  0  0  0  0  0  0  0  0  0  0
   -0.8292    1.4114   -1.2930 C   0  0  2  0  0  0  0  0  0  0  0  0
   -1.5479    0.2065   -1.3998 C   0  0  0  0  0  0  0  0  0  0  0  0
   -1.5426    2.4956   -0.7565 C   0  0  0  0  0  0  0  0  0  0  0  0
   -2.8865    0.0889   -0.9923 C   0  0  2  0  0  0  0  0  0  0  0  0
   -2.8730    2.3786   -0.3216 C   0  0  0  0  0  0  0  0  0  0  0  0
   -3.4931   -1.1244   -1.2154 O   0  0  0  0  0  0  0  0  0  0  0  0
   -3.5682    1.1672   -0.4074 C   0  0  2  0  0  0  0  0  0  0  0  0
   -4.0558   -1.1474   -2.5302 C   0  0  0  0  0  0  0  0  0  0  0  0
   -4.9005    1.0667    0.1177 N   0  0  0  0  0  0  0  0  0  0  0  0
   -5.8152    2.1135    0.0015 C   0  0  0  0  0  0  0  0  0  0  0  0
   -5.3758   -0.2108    0.6384 C   0  0  0  0  0  0  0  0  0  0  0  0
   -5.6196    3.1929   -0.5519 O   0  0  0  0  0  0  0  0  0  0  0  0
   -7.0485    1.8789    0.5608 N   0  0  0  0  0  0  0  0  0  0  0  0
   -6.2372   -0.0011    1.8665 C   0  0  0  0  0  0  0  0  0  0  0  0
   -7.3302    0.9711    1.5430 C   0  0  0  0  0  0  0  0  0  0  0  0
   -8.3847    1.0113    2.1709 O   0  0  0  0  0  0  0  0  0  0  0  0
  2  1  1  1  0  0  0
  2  3  5  0  0  0  0
  2  4  5  0  0  0  0
  3  5  1  1  0  0  0
  3  6  5  0  0  0  0
  4  7  5  0  0  0  0
  6  8  5  0  0  0  0
  6  9  1  1  0  0  0
  7  8  5  0  0  0  0
  9 10  1  0  0  0  0
 10 11  1  0  0  0  0
 10 12  1  0  0  0  0
 11 13  1  0  0  0  0
 12 14  1  0  0  0  0
 14 15  1  0  0  0  0
 15 13  1  1  0  0  0
 15 16  1  0  0  0  0
 15 17  1  0  0  0  0
 16 18  1  0  0  0  0
 17 19  1  0  0  0  0
 17 18  1  1  0  0  0
 19 20  5  6  0  0  0
 19 21  5  0  0  0  0
 20 22  5  0  0  0  0
 21 23  5  0  0  0  0
 22 24  1  6  0  0  0
 22 25  5  0  0  0  0
 23 25  5  0  0  0  0
 24 26  1  0  0  0  0
 25 27  1  1  0  0  0
 27 28  1  0  0  0  0
 27 29  1  0  0  0  0
 28 30  2  0  0  0  0
 28 31  1  0  0  0  0
 29 32  1  0  0  0  0
 31 33  1  0  0  0  0
 32 33  1  0  0  0  0
 33 34  2  0  0  0  0
M  END
>  <ID>
EDEL-CRBN-0012

>  <Stereoisomer>
original

>  <MW>
487.17

>  <HBD>
1

>  <HBA>
5

>  <RotBonds>
5

>  <cLogP>
4.08

$$$$
EDEL-CRBN-0012_ent
 OpenBabel09062619263D

 34 38  0  0  0  0  0  0  0  0999 V2000
    0.3068   -1.1920    3.9698 Cl  0  0  0  0  0  0  0  0  0  0  0  0
    1.3567   -0.5893    2.7443 C   0  0  1  0  0  0  0  0  0  0  0  0
    2.2036   -1.4524    2.0473 C   0  0  2  0  0  0  0  0  0  0  0  0
    1.3529    0.7717    2.4505 C   0  0  0  0  0  0  0  0  0  0  0  0
    2.2058   -2.7616    2.3448 F   0  0  0  0  0  0  0  0  0  0  0  0
    3.0536   -0.9754    1.0416 C   0  0  1  0  0  0  0  0  0  0  0  0
    2.2070    1.2679    1.4666 C   0  0  0  0  0  0  0  0  0  0  0  0
    3.0553    0.4029    0.7719 C   0  0  0  0  0  0  0  0  0  0  0  0
    3.9475   -1.9187    0.2695 C   0  0  0  0  0  0  0  0  0  0  0  0
    3.4051   -2.4650   -0.9792 N   0  0  0  0  0  0  0  0  0  0  0  0
    2.3004   -3.4162   -0.8272 C   0  0  0  0  0  0  0  0  0  0  0  0
    3.2422   -1.4980   -2.0648 C   0  0  0  0  0  0  0  0  0  0  0  0
    0.9524   -2.8131   -1.2128 C   0  0  0  0  0  0  0  0  0  0  0  0
    2.3994   -2.0791   -3.1975 C   0  0  0  0  0  0  0  0  0  0  0  0
    0.9802   -2.3397   -2.6760 C   0  0  1  0  0  0  0  0  0  0  0  0
    0.3193   -3.3307   -3.5314 O   0  0  0  0  0  0  0  0  0  0  0  0
   -0.0860   -1.2772   -3.1097 C   0  0  1  0  0  0  0  0  0  0  0  0
   -0.8706   -2.5043   -3.5967 C   0  0  0  0  0  0  0  0  0  0  0  0
   -0.6878   -0.2577   -2.0490 C   0  0  1  0  0  0  0  0  0  0  0  0
   -1.7654   -0.5554   -1.1986 C   0  0  0  0  0  0  0  0  0  0  0  0
   -0.1398    1.0297   -1.9013 C   0  0  0  0  0  0  0  0  0  0  0  0
   -2.2590    0.3682   -0.2610 C   0  0  1  0  0  0  0  0  0  0  0  0
   -0.6465    1.9682   -0.9887 C   0  0  0  0  0  0  0  0  0  0  0  0
   -3.2678   -0.0782    0.5598 O   0  0  0  0  0  0  0  0  0  0  0  0
   -1.7340    1.6669   -0.1622 C   0  0  1  0  0  0  0  0  0  0  0  0
   -2.7055   -0.6805    1.7296 C   0  0  0  0  0  0  0  0  0  0  0  0
   -2.2811    2.6762    0.7006 N   0  0  0  0  0  0  0  0  0  0  0  0
   -1.4722    3.6089    1.3495 C   0  0  0  0  0  0  0  0  0  0  0  0
   -3.7011    2.6429    1.0378 C   0  0  0  0  0  0  0  0  0  0  0  0
   -0.2461    3.6739    1.2945 O   0  0  0  0  0  0  0  0  0  0  0  0
   -2.1402    4.5232    2.1281 N   0  0  0  0  0  0  0  0  0  0  0  0
   -4.2757    4.0439    1.0750 C   0  0  0  0  0  0  0  0  0  0  0  0
   -3.4487    4.8936    1.9905 C   0  0  0  0  0  0  0  0  0  0  0  0
   -3.8856    5.9106    2.5217 O   0  0  0  0  0  0  0  0  0  0  0  0
  2  1  1  6  0  0  0
  2  3  5  0  0  0  0
  2  4  5  0  0  0  0
  3  5  1  1  0  0  0
  3  6  5  0  0  0  0
  4  7  5  0  0  0  0
  6  8  5  0  0  0  0
  6  9  1  1  0  0  0
  7  8  5  0  0  0  0
  9 10  1  0  0  0  0
 10 11  1  0  0  0  0
 10 12  1  0  0  0  0
 11 13  1  0  0  0  0
 12 14  1  0  0  0  0
 14 15  1  0  0  0  0
 15 13  1  1  0  0  0
 15 16  1  0  0  0  0
 15 17  1  0  0  0  0
 16 18  1  0  0  0  0
 17 19  1  0  0  0  0
 17 18  1  1  0  0  0
 19 20  5  1  0  0  0
 19 21  5  0  0  0  0
 20 22  5  0  0  0  0
 21 23  5  0  0  0  0
 22 24  1  1  0  0  0
 22 25  5  0  0  0  0
 23 25  5  0  0  0  0
 24 26  1  0  0  0  0
 25 27  1  6  0  0  0
 27 28  1  0  0  0  0
 27 29  1  0  0  0  0
 28 30  2  0  0  0  0
 28 31  1  0  0  0  0
 29 32  1  0  0  0  0
 31 33  1  0  0  0  0
 32 33  1  0  0  0  0
 33 34  2  0  0  0  0
M  END
>  <ID>
EDEL-CRBN-0012_ent

>  <Stereoisomer>
enantiomer

>  <MW>
487.17

>  <HBD>
1

>  <HBA>
5

>  <RotBonds>
5

>  <cLogP>
4.08

$$$$
EDEL-CRBN-0013
 OpenBabel09062619263D

 36 40  0  0  0  0  0  0  0  0999 V2000
   -3.7656   -2.8630   -2.5040 O   0  0  0  0  0  0  0  0  0  0  0  0
   -4.5961   -2.6136   -1.6340 C   0  0  0  0  0  0  0  0  0  0  0  0
   -4.3296   -2.1564   -0.3428 N   0  0  0  0  0  0  0  0  0  0  0  0
   -5.9260   -2.7994   -1.9269 N   0  0  0  0  0  0  0  0  0  0  0  0
   -2.9870   -1.9094    0.1087 C   0  0  2  0  0  0  0  0  0  0  0  0
   -5.4351   -2.0919    0.6069 C   0  0  0  0  0  0  0  0  0  0  0  0
   -6.9804   -2.1965   -1.3003 C   0  0  0  0  0  0  0  0  0  0  0  0
   -2.5609   -2.1827    1.4405 C   0  0  1  0  0  0  0  0  0  0  0  0
   -2.0561   -1.3422   -0.7808 C   0  0  0  0  0  0  0  0  0  0  0  0
   -6.6554   -1.4642   -0.0344 C   0  0  0  0  0  0  0  0  0  0  0  0
   -8.1039   -2.1900   -1.7957 O   0  0  0  0  0  0  0  0  0  0  0  0
   -3.3835   -2.8217    2.3414 O   0  0  0  0  0  0  0  0  0  0  0  0
   -1.2821   -1.8404    1.9060 C   0  0  0  0  0  0  0  0  0  0  0  0
   -0.7847   -1.0393   -0.3225 C   0  0  2  0  0  0  0  0  0  0  0  0
   -3.1501   -4.2323    2.2860 C   0  0  0  0  0  0  0  0  0  0  0  0
   -0.4060   -1.2739    1.0078 C   0  0  1  0  0  0  0  0  0  0  0  0
    0.3882   -0.4005   -1.0327 C   0  0  2  0  0  0  0  0  0  0  0  0
    1.0134   -0.7843    1.1795 C   0  0  1  0  0  0  0  0  0  0  0  0
    1.4822   -0.8914   -0.2002 N   0  0  0  0  0  0  0  0  0  0  0  0
    0.3081    1.1543   -0.8427 C   0  0  0  0  0  0  0  0  0  0  0  0
    0.9755    0.7356    1.5571 C   0  0  0  0  0  0  0  0  0  0  0  0
    2.7837   -0.7198   -0.5877 C   0  0  0  0  0  0  0  0  0  0  0  0
    0.9656    1.6728    0.3978 N   0  0  0  0  0  0  0  0  0  0  0  0
    3.1186   -0.4763   -1.7393 O   0  0  0  0  0  0  0  0  0  0  0  0
    3.6355   -0.8571    0.4610 O   0  0  0  0  0  0  0  0  0  0  0  0
    0.5231    3.0165    0.7755 C   0  0  0  0  0  0  0  0  0  0  0  0
    5.0594   -0.6472    0.2904 C   0  0  0  0  0  0  0  0  0  0  0  0
    0.8461    4.0733   -0.2589 C   0  0  0  0  0  0  0  0  0  0  0  0
    5.6528   -0.8689    1.6903 C   0  0  0  0  0  0  0  0  0  0  0  0
    5.3595    0.7923   -0.1438 C   0  0  0  0  0  0  0  0  0  0  0  0
    5.6680   -1.6770   -0.6671 C   0  0  0  0  0  0  0  0  0  0  0  0
   -0.1617    4.9037   -0.7698 C   0  0  0  0  0  0  0  0  0  0  0  0
    2.1642    4.2559   -0.7049 C   0  0  0  0  0  0  0  0  0  0  0  0
    0.1418    5.8878   -1.7128 C   0  0  0  0  0  0  0  0  0  0  0  0
    2.4653    5.2386   -1.6487 C   0  0  0  0  0  0  0  0  0  0  0  0
    1.4541    6.0544   -2.1520 C   0  0  0  0  0  0  0  0  0  0  0  0
  1  2  2  0  0  0  0
  2  3  1  0  0  0  0
  2  4  1  0  0  0  0
  3  6  1  0  0  0  0
  4  7  1  0  0  0  0
  5  3  1  1  0  0  0
  5  8  5  0  0  0  0
  5  9  5  0  0  0  0
  6 10  1  0  0  0  0
  7 11  2  0  0  0  0
  7 10  1  0  0  0  0
  8 12  1  6  0  0  0
  8 13  5  0  0  0  0
 12 15  1  0  0  0  0
 14  9  5  1  0  0  0
 14 17  1  0  0  0  0
 14 16  5  0  0  0  0
 16 13  5  1  0  0  0
 16 18  1  0  0  0  0
 17 19  1  0  0  0  0
 17 20  1  1  0  0  0
 18 21  1  6  0  0  0
 18 19  1  0  0  0  0
 19 22  1  0  0  0  0
 20 23  1  0  0  0  0
 21 23  1  0  0  0  0
 22 24  2  0  0  0  0
 22 25  1  0  0  0  0
 23 26  1  0  0  0  0
 25 27  1  0  0  0  0
 26 28  1  0  0  0  0
 27 29  1  0  0  0  0
 27 30  1  0  0  0  0
 27 31  1  0  0  0  0
 28 32  5  0  0  0  0
 28 33  5  0  0  0  0
 32 34  5  0  0  0  0
 33 35  5  0  0  0  0
 34 36  5  0  0  0  0
 35 36  5  0  0  0  0
M  END
>  <ID>
EDEL-CRBN-0013

>  <Stereoisomer>
original

>  <MW>
492.24

>  <HBD>
1

>  <HBA>
6

>  <RotBonds>
4

>  <cLogP>
3.99

$$$$
EDEL-CRBN-0013_ent
 OpenBabel09062619263D

 36 40  0  0  0  0  0  0  0  0999 V2000
   -4.9303    0.6814   -0.0258 O   0  0  0  0  0  0  0  0  0  0  0  0
   -4.9979   -0.3569    0.6288 C   0  0  0  0  0  0  0  0  0  0  0  0
   -3.9597   -1.2618    0.8533 N   0  0  0  0  0  0  0  0  0  0  0  0
   -6.1821   -0.6668    1.2587 N   0  0  0  0  0  0  0  0  0  0  0  0
   -2.6932   -1.0918    0.2129 C   0  0  1  0  0  0  0  0  0  0  0  0
   -4.0812   -2.1834    1.9711 C   0  0  0  0  0  0  0  0  0  0  0  0
   -6.5109   -1.8465    1.8685 C   0  0  0  0  0  0  0  0  0  0  0  0
   -2.6096   -0.8809   -1.1950 C   0  0  2  0  0  0  0  0  0  0  0  0
   -1.5169   -1.1329    0.9833 C   0  0  0  0  0  0  0  0  0  0  0  0
   -5.4244   -2.8797    1.9283 C   0  0  0  0  0  0  0  0  0  0  0  0
   -7.6467   -2.0608    2.2835 O   0  0  0  0  0  0  0  0  0  0  0  0
   -3.7633   -1.0118   -1.9356 O   0  0  0  0  0  0  0  0  0  0  0  0
   -1.3737   -0.6955   -1.8311 C   0  0  0  0  0  0  0  0  0  0  0  0
   -0.3091   -0.9280    0.3446 C   0  0  1  0  0  0  0  0  0  0  0  0
   -3.9312    0.0134   -2.9133 C   0  0  0  0  0  0  0  0  0  0  0  0
   -0.2402   -0.7095   -1.0458 C   0  0  2  0  0  0  0  0  0  0  0  0
    1.0964   -0.8318    0.8922 C   0  0  1  0  0  0  0  0  0  0  0  0
    1.2086   -0.4796   -1.4045 C   0  0  2  0  0  0  0  0  0  0  0  0
    1.8550   -1.1780   -0.3031 N   0  0  0  0  0  0  0  0  0  0  0  0
    1.4528    0.6542    1.2321 C   0  0  0  0  0  0  0  0  0  0  0  0
    1.5659    1.0364   -1.2494 C   0  0  0  0  0  0  0  0  0  0  0  0
    3.1855   -1.4876   -0.3315 C   0  0  0  0  0  0  0  0  0  0  0  0
    1.3528    1.6508    0.1106 N   0  0  0  0  0  0  0  0  0  0  0  0
    3.8614   -1.4569   -1.3506 O   0  0  0  0  0  0  0  0  0  0  0  0
    3.6429   -1.8235    0.9008 O   0  0  0  0  0  0  0  0  0  0  0  0
    0.1028    2.4279    0.2002 C   0  0  0  0  0  0  0  0  0  0  0  0
    5.0363   -2.1678    1.1090 C   0  0  0  0  0  0  0  0  0  0  0  0
    0.0545    3.6321   -0.7191 C   0  0  0  0  0  0  0  0  0  0  0  0
    5.1395   -2.4699    2.6119 C   0  0  0  0  0  0  0  0  0  0  0  0
    5.9556   -0.9852    0.7845 C   0  0  0  0  0  0  0  0  0  0  0  0
    5.4234   -3.4288    0.3290 C   0  0  0  0  0  0  0  0  0  0  0  0
   -1.0789    3.8679   -1.5121 C   0  0  0  0  0  0  0  0  0  0  0  0
    1.1147    4.5496   -0.7642 C   0  0  0  0  0  0  0  0  0  0  0  0
   -1.1406    4.9865   -2.3450 C   0  0  0  0  0  0  0  0  0  0  0  0
    1.0518    5.6665   -1.5986 C   0  0  0  0  0  0  0  0  0  0  0  0
   -0.0750    5.8838   -2.3894 C   0  0  0  0  0  0  0  0  0  0  0  0
  1  2  2  0  0  0  0
  2  3  1  0  0  0  0
  2  4  1  0  0  0  0
  3  6  1  0  0  0  0
  4  7  1  0  0  0  0
  5  3  1  1  0  0  0
  5  8  5  0  0  0  0
  5  9  5  0  0  0  0
  6 10  1  0  0  0  0
  7 11  2  0  0  0  0
  7 10  1  0  0  0  0
  8 12  1  6  0  0  0
  8 13  5  0  0  0  0
 12 15  1  0  0  0  0
 14  9  5  1  0  0  0
 14 17  1  0  0  0  0
 14 16  5  0  0  0  0
 16 13  5  1  0  0  0
 16 18  1  0  0  0  0
 17 19  1  0  0  0  0
 17 20  1  6  0  0  0
 18 21  1  1  0  0  0
 18 19  1  0  0  0  0
 19 22  1  0  0  0  0
 20 23  1  0  0  0  0
 21 23  1  0  0  0  0
 22 24  2  0  0  0  0
 22 25  1  0  0  0  0
 23 26  1  0  0  0  0
 25 27  1  0  0  0  0
 26 28  1  0  0  0  0
 27 29  1  0  0  0  0
 27 30  1  0  0  0  0
 27 31  1  0  0  0  0
 28 32  5  0  0  0  0
 28 33  5  0  0  0  0
 32 34  5  0  0  0  0
 33 35  5  0  0  0  0
 34 36  5  0  0  0  0
 35 36  5  0  0  0  0
M  END
>  <ID>
EDEL-CRBN-0013_ent

>  <Stereoisomer>
enantiomer

>  <MW>
492.24

>  <HBD>
1

>  <HBA>
6

>  <RotBonds>
4

>  <cLogP>
3.99

$$$$
EDEL-CRBN-0014
 OpenBabel09062619263D

 36 40  0  0  0  0  0  0  0  0999 V2000
   -5.0233   -2.8162   -1.8617 O   0  0  0  0  0  0  0  0  0  0  0  0
   -4.9653   -2.8354   -0.6348 C   0  0  0  0  0  0  0  0  0  0  0  0
   -3.9427   -2.3083    0.1529 N   0  0  0  0  0  0  0  0  0  0  0  0
   -5.9879   -3.4363    0.0602 N   0  0  0  0  0  0  0  0  0  0  0  0
   -2.8195   -1.6228   -0.4239 C   0  0  2  0  0  0  0  0  0  0  0  0
   -3.9548   -2.5934    1.5836 C   0  0  0  0  0  0  0  0  0  0  0  0
   -6.3264   -3.1947    1.3624 C   0  0  0  0  0  0  0  0  0  0  0  0
   -1.5116   -1.7356    0.0970 C   0  0  1  0  0  0  0  0  0  0  0  0
   -3.0317   -0.7569   -1.5283 C   0  0  0  0  0  0  0  0  0  0  0  0
   -5.3425   -2.3886    2.1551 C   0  0  0  0  0  0  0  0  0  0  0  0
   -7.4088   -3.5500    1.8209 O   0  0  0  0  0  0  0  0  0  0  0  0
   -1.1788   -2.6051    1.1012 O   0  0  0  0  0  0  0  0  0  0  0  0
   -0.5071   -0.9502   -0.4386 C   0  0  1  0  0  0  0  0  0  0  0  0
   -2.0038    0.0183   -2.0834 C   0  0  0  0  0  0  0  0  0  0  0  0
   -0.8717   -3.8870    0.5430 C   0  0  0  0  0  0  0  0  0  0  0  0
   -0.7516   -0.0823   -1.5212 C   0  0  1  0  0  0  0  0  0  0  0  0
    0.9419   -0.7942   -0.0432 C   0  0  1  0  0  0  0  0  0  0  0  0
    0.5374    0.6444   -1.8325 C   0  0  2  0  0  0  0  0  0  0  0  0
    1.5013   -0.3165   -1.3069 N   0  0  0  0  0  0  0  0  0  0  0  0
    1.0973    0.3809    0.9797 C   0  0  0  0  0  0  0  0  0  0  0  0
    0.6627    1.9287   -0.9439 C   0  0  0  0  0  0  0  0  0  0  0  0
    2.8338   -0.2288   -1.5938 C   0  0  0  0  0  0  0  0  0  0  0  0
    0.4839    1.6693    0.5242 N   0  0  0  0  0  0  0  0  0  0  0  0
    3.2857    0.4762   -2.4855 O   0  0  0  0  0  0  0  0  0  0  0  0
    3.5726   -1.0042   -0.7611 O   0  0  0  0  0  0  0  0  0  0  0  0
    0.9250    2.7948    1.3545 C   0  0  0  0  0  0  0  0  0  0  0  0
    5.0176   -1.0536   -0.8745 C   0  0  0  0  0  0  0  0  0  0  0  0
    0.1050    4.0497    1.1453 C   0  0  0  0  0  0  0  0  0  0  0  0
    5.4589   -2.0277    0.2287 C   0  0  0  0  0  0  0  0  0  0  0  0
    5.6434    0.3172   -0.5946 C   0  0  0  0  0  0  0  0  0  0  0  0
    5.4534   -1.6196   -2.2301 C   0  0  0  0  0  0  0  0  0  0  0  0
   -1.2803    4.0395    1.3690 C   0  0  0  0  0  0  0  0  0  0  0  0
    0.7162    5.2440    0.7382 C   0  0  0  0  0  0  0  0  0  0  0  0
   -2.0380    5.1967    1.1848 C   0  0  0  0  0  0  0  0  0  0  0  0
   -0.0434    6.4012    0.5551 C   0  0  0  0  0  0  0  0  0  0  0  0
   -1.4191    6.3772    0.7785 C   0  0  0  0  0  0  0  0  0  0  0  0
  1  2  2  0  0  0  0
  2  3  1  0  0  0  0
  2  4  1  0  0  0  0
  3  6  1  0  0  0  0
  4  7  1  0  0  0  0
  5  3  1  1  0  0  0
  5  8  5  0  0  0  0
  5  9  5  0  0  0  0
  6 10  1  0  0  0  0
  7 11  2  0  0  0  0
  7 10  1  0  0  0  0
  8 12  1  6  0  0  0
  8 13  5  0  0  0  0
  9 14  5  0  0  0  0
 12 15  1  0  0  0  0
 13 16  5  0  0  0  0
 13 17  1  0  0  0  0
 14 16  5  0  0  0  0
 16 18  1  0  0  0  0
 17 19  1  0  0  0  0
 17 20  1  0  0  0  0
 18 21  1  0  0  0  0
 18 19  1  0  0  0  0
 19 22  1  0  0  0  0
 20 23  1  0  0  0  0
 21 23  1  0  0  0  0
 22 24  2  0  0  0  0
 22 25  1  0  0  0  0
 23 26  1  0  0  0  0
 25 27  1  0  0  0  0
 26 28  1  0  0  0  0
 27 29  1  0  0  0  0
 27 30  1  0  0  0  0
 27 31  1  0  0  0  0
 28 32  5  0  0  0  0
 28 33  5  0  0  0  0
 32 34  5  0  0  0  0
 33 35  5  0  0  0  0
 34 36  5  0  0  0  0
 35 36  5  0  0  0  0
M  END
>  <ID>
EDEL-CRBN-0014

>  <Stereoisomer>
original

>  <MW>
492.24

>  <HBD>
1

>  <HBA>
6

>  <RotBonds>
4

>  <cLogP>
3.99

$$$$
EDEL-CRBN-0014_ent
 OpenBabel09062619263D

 36 40  0  0  0  0  0  0  0  0999 V2000
   -4.5052   -0.0304   -0.6937 O   0  0  0  0  0  0  0  0  0  0  0  0
   -4.8434   -1.0586   -0.1154 C   0  0  0  0  0  0  0  0  0  0  0  0
   -4.0550   -1.8388    0.7342 N   0  0  0  0  0  0  0  0  0  0  0  0
   -6.1410   -1.4962   -0.2642 N   0  0  0  0  0  0  0  0  0  0  0  0
   -2.6757   -1.5208    0.9495 C   0  0  2  0  0  0  0  0  0  0  0  0
   -4.7328   -2.7487    1.6446 C   0  0  0  0  0  0  0  0  0  0  0  0
   -6.6618   -2.6989    0.1263 C   0  0  0  0  0  0  0  0  0  0  0  0
   -1.8039   -1.2604   -0.1283 C   0  0  2  0  0  0  0  0  0  0  0  0
   -2.1615   -1.4808    2.2721 C   0  0  0  0  0  0  0  0  0  0  0  0
   -5.7336   -3.5965    0.8892 C   0  0  0  0  0  0  0  0  0  0  0  0
   -7.7971   -3.0439   -0.1897 O   0  0  0  0  0  0  0  0  0  0  0  0
   -2.1747   -1.3657   -1.4398 O   0  0  0  0  0  0  0  0  0  0  0  0
   -0.4981   -0.9042    0.1480 C   0  0  2  0  0  0  0  0  0  0  0  0
   -0.8299   -1.1359    2.5423 C   0  0  0  0  0  0  0  0  0  0  0  0
   -2.1319   -2.7266   -1.8657 C   0  0  0  0  0  0  0  0  0  0  0  0
   -0.0149   -0.8430    1.4712 C   0  0  2  0  0  0  0  0  0  0  0  0
    0.6271   -0.5019   -0.7753 C   0  0  2  0  0  0  0  0  0  0  0  0
    1.4283   -0.3944    1.4123 C   0  0  1  0  0  0  0  0  0  0  0  0
    1.7749   -0.8393    0.0646 N   0  0  0  0  0  0  0  0  0  0  0  0
    0.6470    1.0540   -0.9529 C   0  0  0  0  0  0  0  0  0  0  0  0
    1.5155    1.1688    1.3961 C   0  0  0  0  0  0  0  0  0  0  0  0
    3.0417   -0.9062   -0.4411 C   0  0  0  0  0  0  0  0  0  0  0  0
    0.6682    1.8109    0.3450 N   0  0  0  0  0  0  0  0  0  0  0  0
    3.2893   -0.9563   -1.6378 O   0  0  0  0  0  0  0  0  0  0  0  0
    3.9710   -0.8989    0.5478 O   0  0  0  0  0  0  0  0  0  0  0  0
    1.0048    3.2277    0.1700 C   0  0  0  0  0  0  0  0  0  0  0  0
    5.3874   -0.9448    0.2394 C   0  0  0  0  0  0  0  0  0  0  0  0
   -0.0063    4.0041   -0.6473 C   0  0  0  0  0  0  0  0  0  0  0  0
    5.7631   -2.2482   -0.4733 C   0  0  0  0  0  0  0  0  0  0  0  0
    6.0824   -0.9170    1.6095 C   0  0  0  0  0  0  0  0  0  0  0  0
    5.8232    0.2920   -0.5541 C   0  0  0  0  0  0  0  0  0  0  0  0
   -1.3802    3.9043   -0.3780 C   0  0  0  0  0  0  0  0  0  0  0  0
    0.4197    4.8703   -1.6649 C   0  0  0  0  0  0  0  0  0  0  0  0
   -2.3064    4.6353   -1.1230 C   0  0  0  0  0  0  0  0  0  0  0  0
   -0.5081    5.6048   -2.4064 C   0  0  0  0  0  0  0  0  0  0  0  0
   -1.8702    5.4857   -2.1365 C   0  0  0  0  0  0  0  0  0  0  0  0
  1  2  2  0  0  0  0
  2  3  1  0  0  0  0
  2  4  1  0  0  0  0
  3  6  1  0  0  0  0
  4  7  1  0  0  0  0
  5  3  1  6  0  0  0
  5  8  5  0  0  0  0
  5  9  5  0  0  0  0
  6 10  1  0  0  0  0
  7 11  2  0  0  0  0
  7 10  1  0  0  0  0
  8 12  1  6  0  0  0
  8 13  5  0  0  0  0
  9 14  5  0  0  0  0
 12 15  1  0  0  0  0
 13 16  5  0  0  0  0
 13 17  1  0  0  0  0
 14 16  5  0  0  0  0
 16 18  1  0  0  0  0
 17 19  1  0  0  0  0
 17 20  1  0  0  0  0
 18 21  1  0  0  0  0
 18 19  1  0  0  0  0
 19 22  1  0  0  0  0
 20 23  1  0  0  0  0
 21 23  1  0  0  0  0
 22 24  2  0  0  0  0
 22 25  1  0  0  0  0
 23 26  1  0  0  0  0
 25 27  1  0  0  0  0
 26 28  1  0  0  0  0
 27 29  1  0  0  0  0
 27 30  1  0  0  0  0
 27 31  1  0  0  0  0
 28 32  5  0  0  0  0
 28 33  5  0  0  0  0
 32 34  5  0  0  0  0
 33 35  5  0  0  0  0
 34 36  5  0  0  0  0
 35 36  5  0  0  0  0
M  END
>  <ID>
EDEL-CRBN-0014_ent

>  <Stereoisomer>
enantiomer

>  <MW>
492.24

>  <HBD>
1

>  <HBA>
6

>  <RotBonds>
4

>  <cLogP>
3.99

$$$$
EDEL-CRBN-0015
 OpenBabel09062619263D

 36 40  0  0  0  0  0  0  0  0999 V2000
    7.1238    4.3690    1.4226 Cl  0  0  0  0  0  0  0  0  0  0  0  0
    6.6690    3.0356    0.4316 C   0  0  1  0  0  0  0  0  0  0  0  0
    5.3444    2.5982    0.3945 C   0  0  1  0  0  0  0  0  0  0  0  0
    7.6382    2.3954   -0.3398 C   0  0  0  0  0  0  0  0  0  0  0  0
    4.4119    3.2243    1.1312 F   0  0  0  0  0  0  0  0  0  0  0  0
    4.9679    1.5117   -0.4029 C   0  0  2  0  0  0  0  0  0  0  0  0
    7.2767    1.3193   -1.1509 C   0  0  0  0  0  0  0  0  0  0  0  0
    5.9498    0.8837   -1.1865 C   0  0  0  0  0  0  0  0  0  0  0  0
    3.5232    1.0712   -0.4533 C   0  0  0  0  0  0  0  0  0  0  0  0
    3.3466   -0.3893   -0.3745 N   0  0  0  0  0  0  0  0  0  0  0  0
    2.0027   -0.7692   -0.8424 C   0  0  0  0  0  0  0  0  0  0  0  0
    3.6809   -0.9447    0.9503 C   0  0  0  0  0  0  0  0  0  0  0  0
    1.5962   -2.1521   -0.3419 C   0  0  0  0  0  0  0  0  0  0  0  0
    2.4608   -1.1427    1.8447 C   0  0  0  0  0  0  0  0  0  0  0  0
    1.4839   -2.1241    1.1889 C   0  0  2  0  0  0  0  0  0  0  0  0
    1.6893   -3.4798    1.7103 O   0  0  0  0  0  0  0  0  0  0  0  0
    0.0641   -2.1073    1.8498 C   0  0  2  0  0  0  0  0  0  0  0  0
    0.2567   -3.6319    1.8913 C   0  0  0  0  0  0  0  0  0  0  0  0
   -1.1536   -1.4203    1.0943 C   0  0  1  0  0  0  0  0  0  0  0  0
   -1.2646   -0.0120    1.0591 C   0  0  0  0  0  0  0  0  0  0  0  0
   -2.1638   -2.1387    0.4308 C   0  0  0  0  0  0  0  0  0  0  0  0
   -2.3043    0.6540    0.3932 C   0  0  2  0  0  0  0  0  0  0  0  0
   -3.2242   -1.4996   -0.2279 C   0  0  1  0  0  0  0  0  0  0  0  0
   -2.4383    2.0212    0.3527 O   0  0  0  0  0  0  0  0  0  0  0  0
   -3.2975   -0.0978   -0.2634 C   0  0  1  0  0  0  0  0  0  0  0  0
   -4.1142   -2.2318   -0.9779 O   0  0  0  0  0  0  0  0  0  0  0  0
   -1.5863    2.7943    1.1883 C   0  0  0  0  0  0  0  0  0  0  0  0
   -4.3581    0.5706   -0.9451 N   0  0  0  0  0  0  0  0  0  0  0  0
   -4.7553   -3.2608   -0.2234 C   0  0  0  0  0  0  0  0  0  0  0  0
   -5.6883    0.2275   -0.7367 C   0  0  0  0  0  0  0  0  0  0  0  0
   -4.0152    1.3704   -2.1112 C   0  0  0  0  0  0  0  0  0  0  0  0
   -6.1182   -0.4956    0.1595 O   0  0  0  0  0  0  0  0  0  0  0  0
   -6.5794    0.8490   -1.5810 N   0  0  0  0  0  0  0  0  0  0  0  0
   -4.9498    2.5546   -2.2138 C   0  0  0  0  0  0  0  0  0  0  0  0
   -6.3706    2.0616   -2.1807 C   0  0  0  0  0  0  0  0  0  0  0  0
   -7.3084    2.7394   -2.5943 O   0  0  0  0  0  0  0  0  0  0  0  0
  2  1  1  6  0  0  0
  2  3  5  0  0  0  0
  2  4  5  0  0  0  0
  3  5  1  6  0  0  0
  3  6  5  0  0  0  0
  4  7  5  0  0  0  0
  6  8  5  0  0  0  0
  6  9  1  6  0  0  0
  7  8  5  0  0  0  0
  9 10  1  0  0  0  0
 10 11  1  0  0  0  0
 10 12  1  0  0  0  0
 11 13  1  0  0  0  0
 12 14  1  0  0  0  0
 14 15  1  0  0  0  0
 15 13  1  6  0  0  0
 15 16  1  0  0  0  0
 15 17  1  0  0  0  0
 16 18  1  0  0  0  0
 17 19  1  0  0  0  0
 17 18  1  6  0  0  0
 19 20  5  6  0  0  0
 19 21  5  0  0  0  0
 20 22  5  0  0  0  0
 21 23  5  0  0  0  0
 22 24  1  1  0  0  0
 22 25  5  0  0  0  0
 23 26  1  6  0  0  0
 23 25  5  0  0  0  0
 24 27  1  0  0  0  0
 25 28  1  1  0  0  0
 26 29  1  0  0  0  0
 28 30  1  0  0  0  0
 28 31  1  0  0  0  0
 30 32  2  0  0  0  0
 30 33  1  0  0  0  0
 31 34  1  0  0  0  0
 33 35  1  0  0  0  0
 34 35  1  0  0  0  0
 35 36  2  0  0  0  0
M  END
>  <ID>
EDEL-CRBN-0015

>  <Stereoisomer>
original

>  <MW>
517.18

>  <HBD>
1

>  <HBA>
6

>  <RotBonds>
6

>  <cLogP>
4.09

$$$$
EDEL-CRBN-0015_ent
 OpenBabel09062619263D

 36 40  0  0  0  0  0  0  0  0999 V2000
    9.1819    1.0718   -0.4970 Cl  0  0  0  0  0  0  0  0  0  0  0  0
    7.6086    0.6509   -1.0578 C   0  0  1  0  0  0  0  0  0  0  0  0
    6.4727    1.0293   -0.3421 C   0  0  1  0  0  0  0  0  0  0  0  0
    7.4783   -0.0710   -2.2442 C   0  0  0  0  0  0  0  0  0  0  0  0
    6.6022    1.7401    0.7898 F   0  0  0  0  0  0  0  0  0  0  0  0
    5.1921    0.6927   -0.7984 C   0  0  1  0  0  0  0  0  0  0  0  0
    6.2087   -0.4112   -2.7131 C   0  0  0  0  0  0  0  0  0  0  0  0
    5.0718   -0.0320   -1.9952 C   0  0  0  0  0  0  0  0  0  0  0  0
    3.9704    1.0919   -0.0048 C   0  0  0  0  0  0  0  0  0  0  0  0
    3.7110    0.2177    1.1491 N   0  0  0  0  0  0  0  0  0  0  0  0
    3.3888   -1.1639    0.7578 C   0  0  0  0  0  0  0  0  0  0  0  0
    2.7254    0.8032    2.0742 C   0  0  0  0  0  0  0  0  0  0  0  0
    2.6423   -1.9040    1.8657 C   0  0  0  0  0  0  0  0  0  0  0  0
    1.3117    0.2770    1.8415 C   0  0  0  0  0  0  0  0  0  0  0  0
    1.2718   -1.2379    2.0760 C   0  0  2  0  0  0  0  0  0  0  0  0
    0.7937   -1.5250    3.4285 O   0  0  0  0  0  0  0  0  0  0  0  0
    0.0567   -2.0284    1.4797 C   0  0  1  0  0  0  0  0  0  0  0  0
   -0.1201   -2.5264    2.9252 C   0  0  0  0  0  0  0  0  0  0  0  0
   -1.1475   -1.2473    0.7746 C   0  0  1  0  0  0  0  0  0  0  0  0
   -2.0089   -0.3733    1.4731 C   0  0  0  0  0  0  0  0  0  0  0  0
   -1.3870   -1.3862   -0.6053 C   0  0  0  0  0  0  0  0  0  0  0  0
   -3.0526    0.3248    0.8464 C   0  0  2  0  0  0  0  0  0  0  0  0
   -2.4313   -0.7141   -1.2539 C   0  0  1  0  0  0  0  0  0  0  0  0
   -3.9182    1.1653    1.5054 O   0  0  0  0  0  0  0  0  0  0  0  0
   -3.2682    0.1553   -0.5359 C   0  0  1  0  0  0  0  0  0  0  0  0
   -2.5484   -0.7765   -2.6223 O   0  0  0  0  0  0  0  0  0  0  0  0
   -3.8364    1.2192    2.9239 C   0  0  0  0  0  0  0  0  0  0  0  0
   -4.3257    0.8640   -1.1813 N   0  0  0  0  0  0  0  0  0  0  0  0
   -2.6638   -2.1162   -3.1028 C   0  0  0  0  0  0  0  0  0  0  0  0
   -5.2381    0.2196   -2.0075 C   0  0  0  0  0  0  0  0  0  0  0  0
   -4.2360    2.3154   -1.2342 C   0  0  0  0  0  0  0  0  0  0  0  0
   -5.3801   -0.9960   -2.1224 O   0  0  0  0  0  0  0  0  0  0  0  0
   -6.1014    1.0597   -2.6724 N   0  0  0  0  0  0  0  0  0  0  0  0
   -5.6209    2.9177   -1.1616 C   0  0  0  0  0  0  0  0  0  0  0  0
   -6.4805    2.2982   -2.2293 C   0  0  0  0  0  0  0  0  0  0  0  0
   -7.5125    2.8313   -2.6304 O   0  0  0  0  0  0  0  0  0  0  0  0
  2  1  1  6  0  0  0
  2  3  5  0  0  0  0
  2  4  5  0  0  0  0
  3  5  1  6  0  0  0
  3  6  5  0  0  0  0
  4  7  5  0  0  0  0
  6  8  5  0  0  0  0
  6  9  1  1  0  0  0
  7  8  5  0  0  0  0
  9 10  1  0  0  0  0
 10 11  1  0  0  0  0
 10 12  1  0  0  0  0
 11 13  1  0  0  0  0
 12 14  1  0  0  0  0
 14 15  1  0  0  0  0
 15 13  1  6  0  0  0
 15 16  1  0  0  0  0
 15 17  1  0  0  0  0
 16 18  1  0  0  0  0
 17 19  1  0  0  0  0
 17 18  1  1  0  0  0
 19 20  5  6  0  0  0
 19 21  5  0  0  0  0
 20 22  5  0  0  0  0
 21 23  5  0  0  0  0
 22 24  1  1  0  0  0
 22 25  5  0  0  0  0
 23 26  1  6  0  0  0
 23 25  5  0  0  0  0
 24 27  1  0  0  0  0
 25 28  1  1  0  0  0
 26 29  1  0  0  0  0
 28 30  1  0  0  0  0
 28 31  1  0  0  0  0
 30 32  2  0  0  0  0
 30 33  1  0  0  0  0
 31 34  1  0  0  0  0
 33 35  1  0  0  0  0
 34 35  1  0  0  0  0
 35 36  2  0  0  0  0
M  END
>  <ID>
EDEL-CRBN-0015_ent

>  <Stereoisomer>
enantiomer

>  <MW>
517.18

>  <HBD>
1

>  <HBA>
6

>  <RotBonds>
6

>  <cLogP>
4.09

$$$$
EDEL-CRBN-0016
 OpenBabel09062619263D

 38 42  0  0  0  0  0  0  0  0999 V2000
    3.4569   -2.1729   -1.6941 O   0  0  0  0  0  0  0  0  0  0  0  0
    4.3716   -1.5319   -1.1847 C   0  0  0  0  0  0  0  0  0  0  0  0
    4.2559   -0.3116   -0.5244 N   0  0  0  0  0  0  0  0  0  0  0  0
    5.6569   -2.0143   -1.2838 N   0  0  0  0  0  0  0  0  0  0  0  0
    2.9688    0.2715   -0.2971 C   0  0  1  0  0  0  0  0  0  0  0  0
    5.4540    0.4912   -0.3406 C   0  0  0  0  0  0  0  0  0  0  0  0
    6.7539   -1.5792   -0.5914 C   0  0  0  0  0  0  0  0  0  0  0  0
    1.9664   -0.4670    0.3670 C   0  0  1  0  0  0  0  0  0  0  0  0
    2.6715    1.6010   -0.7095 C   0  0  1  0  0  0  0  0  0  0  0  0
    6.5549   -0.3577    0.2591 C   0  0  0  0  0  0  0  0  0  0  0  0
    7.8149   -2.1975   -0.6140 O   0  0  0  0  0  0  0  0  0  0  0  0
    2.1702   -1.7327    0.8445 O   0  0  0  0  0  0  0  0  0  0  0  0
    0.7278    0.1150    0.5607 C   0  0  1  0  0  0  0  0  0  0  0  0
    3.5982    2.3548   -1.3954 O   0  0  0  0  0  0  0  0  0  0  0  0
    1.4281    2.2022   -0.4656 C   0  0  0  0  0  0  0  0  0  0  0  0
    2.7600   -1.6880    2.1433 C   0  0  0  0  0  0  0  0  0  0  0  0
    0.4641    1.4407    0.1573 C   0  0  1  0  0  0  0  0  0  0  0  0
   -0.5406   -0.4467    1.1587 C   0  0  1  0  0  0  0  0  0  0  0  0
    3.4082    2.1803   -2.8029 C   0  0  0  0  0  0  0  0  0  0  0  0
   -0.9776    1.7467    0.4953 C   0  0  2  0  0  0  0  0  0  0  0  0
   -1.1891    0.7928    1.5814 N   0  0  0  0  0  0  0  0  0  0  0  0
   -1.4400   -1.0588    0.0318 C   0  0  0  0  0  0  0  0  0  0  0  0
   -1.9173    1.2981   -0.6741 C   0  0  0  0  0  0  0  0  0  0  0  0
   -2.2587    0.7915    2.4307 C   0  0  0  0  0  0  0  0  0  0  0  0
   -1.7030   -0.1164   -1.1091 N   0  0  0  0  0  0  0  0  0  0  0  0
   -2.5880   -0.1784    3.0991 O   0  0  0  0  0  0  0  0  0  0  0  0
   -2.8994    1.9875    2.4225 O   0  0  0  0  0  0  0  0  0  0  0  0
   -2.7807   -0.5803   -1.9897 C   0  0  0  0  0  0  0  0  0  0  0  0
   -4.0769    2.2076    3.2402 C   0  0  0  0  0  0  0  0  0  0  0  0
   -2.4739   -1.8799   -2.7039 C   0  0  0  0  0  0  0  0  0  0  0  0
   -3.7525    2.0853    4.7328 C   0  0  0  0  0  0  0  0  0  0  0  0
   -5.2241    1.2811    2.8223 C   0  0  0  0  0  0  0  0  0  0  0  0
   -4.4871    3.6585    2.9447 C   0  0  0  0  0  0  0  0  0  0  0  0
   -3.4320   -2.9029   -2.7561 C   0  0  0  0  0  0  0  0  0  0  0  0
   -1.2473   -2.0707   -3.3590 C   0  0  0  0  0  0  0  0  0  0  0  0
   -3.1616   -4.0947   -3.4319 C   0  0  0  0  0  0  0  0  0  0  0  0
   -0.9767   -3.2641   -4.0298 C   0  0  0  0  0  0  0  0  0  0  0  0
   -1.9341   -4.2755   -4.0665 C   0  0  0  0  0  0  0  0  0  0  0  0
  1  2  2  0  0  0  0
  2  3  1  0  0  0  0
  2  4  1  0  0  0  0
  3  6  1  0  0  0  0
  4  7  1  0  0  0  0
  5  3  1  1  0  0  0
  5  8  5  0  0  0  0
  5  9  5  0  0  0  0
  6 10  1  0  0  0  0
  7 11  2  0  0  0  0
  7 10  1  0  0  0  0
  8 12  1  1  0  0  0
  8 13  5  0  0  0  0
  9 14  1  6  0  0  0
  9 15  5  0  0  0  0
 12 16  1  0  0  0  0
 13 17  5  0  0  0  0
 13 18  1  0  0  0  0
 14 19  1  0  0  0  0
 15 17  5  0  0  0  0
 17 20  1  0  0  0  0
 18 21  1  0  0  0  0
 18 22  1  0  0  0  0
 20 23  1  0  0  0  0
 20 21  1  0  0  0  0
 21 24  1  0  0  0  0
 22 25  1  0  0  0  0
 23 25  1  0  0  0  0
 24 26  2  0  0  0  0
 24 27  1  0  0  0  0
 25 28  1  0  0  0  0
 27 29  1  0  0  0  0
 28 30  1  0  0  0  0
 29 31  1  0  0  0  0
 29 32  1  0  0  0  0
 29 33  1  0  0  0  0
 30 34  5  0  0  0  0
 30 35  5  0  0  0  0
 34 36  5  0  0  0  0
 35 37  5  0  0  0  0
 36 38  5  0  0  0  0
 37 38  5  0  0  0  0
M  END
>  <ID>
EDEL-CRBN-0016

>  <Stereoisomer>
original

>  <MW>
522.25

>  <HBD>
1

>  <HBA>
7

>  <RotBonds>
5

>  <cLogP>
4.0

$$$$
EDEL-CRBN-0016_ent
 OpenBabel09062619263D

 38 42  0  0  0  0  0  0  0  0999 V2000
    4.4012    2.8946    0.1866 O   0  0  0  0  0  0  0  0  0  0  0  0
    5.0268    1.8419    0.2941 C   0  0  0  0  0  0  0  0  0  0  0  0
    4.4721    0.5699    0.3542 N   0  0  0  0  0  0  0  0  0  0  0  0
    6.3892    1.8858    0.4739 N   0  0  0  0  0  0  0  0  0  0  0  0
    3.1278    0.3258   -0.0603 C   0  0  2  0  0  0  0  0  0  0  0  0
    5.3612   -0.5831    0.4039 C   0  0  0  0  0  0  0  0  0  0  0  0
    7.1211    0.9572    1.1627 C   0  0  0  0  0  0  0  0  0  0  0  0
    2.2805   -0.4455    0.7615 C   0  0  2  0  0  0  0  0  0  0  0  0
    2.6440    0.8064   -1.3097 C   0  0  1  0  0  0  0  0  0  0  0  0
    6.4453   -0.3582    1.4339 C   0  0  0  0  0  0  0  0  0  0  0  0
    8.2355    1.2242    1.6063 O   0  0  0  0  0  0  0  0  0  0  0  0
    2.6501   -0.9113    1.9943 O   0  0  0  0  0  0  0  0  0  0  0  0
    1.0196   -0.7612    0.2985 C   0  0  2  0  0  0  0  0  0  0  0  0
    3.5231    1.4536   -2.1495 O   0  0  0  0  0  0  0  0  0  0  0  0
    1.3486    0.5029   -1.7562 C   0  0  0  0  0  0  0  0  0  0  0  0
    2.6543    0.1522    2.9507 C   0  0  0  0  0  0  0  0  0  0  0  0
    0.5547   -0.2799   -0.9431 C   0  0  2  0  0  0  0  0  0  0  0  0
   -0.0965   -1.5575    0.9326 C   0  0  2  0  0  0  0  0  0  0  0  0
    3.0120    2.7031   -2.6148 C   0  0  0  0  0  0  0  0  0  0  0  0
   -0.8695   -0.7578   -1.1178 C   0  0  1  0  0  0  0  0  0  0  0  0
   -0.8445   -1.9416   -0.2618 N   0  0  0  0  0  0  0  0  0  0  0  0
   -1.0379   -0.6134    1.7535 C   0  0  0  0  0  0  0  0  0  0  0  0
   -1.8626    0.2519   -0.4474 C   0  0  0  0  0  0  0  0  0  0  0  0
   -1.8149   -2.9025   -0.2244 C   0  0  0  0  0  0  0  0  0  0  0  0
   -1.5233    0.5740    0.9782 N   0  0  0  0  0  0  0  0  0  0  0  0
   -1.9621   -3.6742    0.7133 O   0  0  0  0  0  0  0  0  0  0  0  0
   -2.5872   -2.8714   -1.3390 O   0  0  0  0  0  0  0  0  0  0  0  0
   -2.6127    1.2612    1.6793 C   0  0  0  0  0  0  0  0  0  0  0  0
   -3.6938   -3.7937   -1.5061 C   0  0  0  0  0  0  0  0  0  0  0  0
   -2.9226    2.6273    1.1055 C   0  0  0  0  0  0  0  0  0  0  0  0
   -4.7634   -3.5772   -0.4300 C   0  0  0  0  0  0  0  0  0  0  0  0
   -3.2092   -5.2466   -1.5522 C   0  0  0  0  0  0  0  0  0  0  0  0
   -4.2949   -3.4332   -2.8733 C   0  0  0  0  0  0  0  0  0  0  0  0
   -4.2180    2.9438    0.6723 C   0  0  0  0  0  0  0  0  0  0  0  0
   -1.9202    3.6057    1.0153 C   0  0  0  0  0  0  0  0  0  0  0  0
   -4.5015    4.2089    0.1537 C   0  0  0  0  0  0  0  0  0  0  0  0
   -2.2053    4.8689    0.4958 C   0  0  0  0  0  0  0  0  0  0  0  0
   -3.4958    5.1700    0.0653 C   0  0  0  0  0  0  0  0  0  0  0  0
  1  2  2  0  0  0  0
  2  3  1  0  0  0  0
  2  4  1  0  0  0  0
  3  6  1  0  0  0  0
  4  7  1  0  0  0  0
  5  3  1  6  0  0  0
  5  8  5  0  0  0  0
  5  9  5  0  0  0  0
  6 10  1  0  0  0  0
  7 11  2  0  0  0  0
  7 10  1  0  0  0  0
  8 12  1  6  0  0  0
  8 13  5  0  0  0  0
  9 14  1  6  0  0  0
  9 15  5  0  0  0  0
 12 16  1  0  0  0  0
 13 17  5  0  0  0  0
 13 18  1  0  0  0  0
 14 19  1  0  0  0  0
 15 17  5  0  0  0  0
 17 20  1  0  0  0  0
 18 21  1  0  0  0  0
 18 22  1  0  0  0  0
 20 23  1  0  0  0  0
 20 21  1  0  0  0  0
 21 24  1  0  0  0  0
 22 25  1  0  0  0  0
 23 25  1  0  0  0  0
 24 26  2  0  0  0  0
 24 27  1  0  0  0  0
 25 28  1  0  0  0  0
 27 29  1  0  0  0  0
 28 30  1  0  0  0  0
 29 31  1  0  0  0  0
 29 32  1  0  0  0  0
 29 33  1  0  0  0  0
 30 34  5  0  0  0  0
 30 35  5  0  0  0  0
 34 36  5  0  0  0  0
 35 37  5  0  0  0  0
 36 38  5  0  0  0  0
 37 38  5  0  0  0  0
M  END
>  <ID>
EDEL-CRBN-0016_ent

>  <Stereoisomer>
enantiomer

>  <MW>
522.25

>  <HBD>
1

>  <HBA>
7

>  <RotBonds>
5

>  <cLogP>
4.0

$$$$
