R-000296
Actelion Java MolfileCreator 2.0

  0  0  0  0  0  0              0 V3000
M  V30 BEGIN CTAB
M  V30 COUNTS 4 3 0 0 0
M  V30 BEGIN ATOM
M  V30 1 N 0.0 0.0 0.0 0
M  V30 2 C -1.3737 0.7941 0.0 0
M  V30 3 C 1.159 0.7941 0.0 0
M  V30 4 C -2.7474 0.1717 0.0 0
M  V30 END ATOM
M  V30 BEGIN BOND
M  V30 1 1 1 2
M  V30 2 1 1 3
M  V30 3 1 2 4
M  V30 END BOND
M  V30 END CTAB
M  END
>  <Dotmatics_CR>
R-000296

>  <CR_Set>
Amine

>  <Category>
Secondary Amines Non-Aromatic

>  <Reaction type>
Amidation

>  <KI/BB_Nature>
Acid

>  <Comments>


>  <Salt>


>  <CR_Chiral_Form>


>  <Prod_total_used>
12

>  <PSR (%)>
67

>  <Article>
N-methylethanamine

>  <CAS>
624-78-2

>  <Density>
0.688

>  <Prod_reagent_number>


>  <Stereocenters>
0

>  <NB_Name reaction - KI/BB – Capping>
04-Amidation_Acid_Amine

$$$$
R-000447
Actelion Java MolfileCreator 2.0

  0  0  0  0  0  0              0 V3000
M  V30 BEGIN CTAB
M  V30 COUNTS 8 8 0 0 0
M  V30 BEGIN ATOM
M  V30 1 N 0.0 0.0 0.0 0
M  V30 2 C -0.1153 -1.4415 0.0 0
M  V30 3 C 1.2454 0.9456 0.0 0
M  V30 4 C -1.4761 0.9341 0.0 0
M  V30 5 C 1.1301 -2.1104 0.0 0
M  V30 6 C 2.4909 0.3113 0.0 0
M  V30 7 C 2.3756 -1.1647 0.0 0
M  V30 8 N 3.6211 -1.7759 0.0 0
M  V30 END ATOM
M  V30 BEGIN BOND
M  V30 1 1 1 2
M  V30 2 1 1 3
M  V30 3 1 1 4
M  V30 4 1 2 5
M  V30 5 1 3 6
M  V30 6 1 5 7
M  V30 7 1 7 8
M  V30 8 1 6 7
M  V30 END BOND
M  V30 END CTAB
M  END
>  <Dotmatics_CR>
R-000447

>  <CR_Set>
Amine

>  <Category>
Primary Amines Non-Aromatic

>  <Reaction type>
Amidation

>  <KI/BB_Nature>
Acid

>  <Comments>


>  <Salt>


>  <CR_Chiral_Form>


>  <Prod_total_used>
18

>  <PSR (%)>
83

>  <Article>
1-methylpiperidin-4-amine

>  <CAS>
41838-46-4

>  <Density>
0.913

>  <Prod_reagent_number>


>  <Stereocenters>
0

>  <NB_Name reaction - KI/BB – Capping>
04-Amidation_Acid_Amine

$$$$
R-000616
Actelion Java MolfileCreator 2.0

  0  0  0  0  0  0              0 V3000
M  V30 BEGIN CTAB
M  V30 COUNTS 9 9 0 0 0
M  V30 BEGIN ATOM
M  V30 1 N 0.0 0.0 0.0 0
M  V30 2 C -0.109 -1.3635 0.0 0
M  V30 3 C -1.3962 0.8835 0.0 0
M  V30 4 C -1.5053 -1.9416 0.0 0
M  V30 5 C 1.0689 -1.9416 0.0 0
M  V30 6 C -2.7924 0.3054 0.0 0
M  V30 7 N -2.9015 -1.058 0.0 0
M  V30 8 N 2.247 -1.058 0.0 0
M  V30 9 C -4.1887 1.1889 0.0 0
M  V30 END ATOM
M  V30 BEGIN BOND
M  V30 1 2 1 2
M  V30 2 1 1 3
M  V30 3 1 2 4
M  V30 4 1 2 5
M  V30 5 2 3 6
M  V30 6 2 4 7
M  V30 7 1 5 8
M  V30 8 1 6 9
M  V30 9 1 6 7
M  V30 END BOND
M  V30 END CTAB
M  END
>  <Dotmatics_CR>
R-000616

>  <CR_Set>
Amine

>  <Category>
Primary Amines Non-Aromatic

>  <Reaction type>
Amidation

>  <KI/BB_Nature>
Acid

>  <Comments>


>  <Salt>


>  <CR_Chiral_Form>


>  <Prod_total_used>
28

>  <PSR (%)>
86

>  <Article>
(5-methylpyrazin-2-yl)methanamine

>  <CAS>
132664-85-8

>  <Density>
1.098

>  <Prod_reagent_number>


>  <Stereocenters>
0

>  <NB_Name reaction - KI/BB – Capping>
04-Amidation_Acid_Amine

$$$$
R-000625
Actelion Java MolfileCreator 2.0

  0  0  0  0  0  0              0 V3000
M  V30 BEGIN CTAB
M  V30 COUNTS 12 12 0 0 0
M  V30 BEGIN ATOM
M  V30 1 F 0.0 0.0 0.0 0
M  V30 2 C -0.1237 1.5843 0.0 0
M  V30 3 F 1.0025 2.4012 0.0 0
M  V30 4 F 1.0025 0.9283 0.0 0
M  V30 5 O -1.4976 2.4012 0.0 0
M  V30 6 C -1.6214 3.9855 0.0 0
M  V30 7 C -0.495 4.8024 0.0 0
M  V30 8 C -2.9953 4.8024 0.0 0
M  V30 9 C -0.6188 6.3867 0.0 0
M  V30 10 C -3.119 6.3867 0.0 0
M  V30 11 N 0.5074 7.1912 0.0 0
M  V30 12 C -1.9927 7.1912 0.0 0
M  V30 END ATOM
M  V30 BEGIN BOND
M  V30 1 1 1 2
M  V30 2 1 2 3
M  V30 3 1 2 4
M  V30 4 1 2 5
M  V30 5 1 5 6
M  V30 6 2 6 7
M  V30 7 1 6 8
M  V30 8 1 7 9
M  V30 9 2 8 10
M  V30 10 1 9 11
M  V30 11 2 9 12
M  V30 12 1 10 12
M  V30 END BOND
M  V30 END CTAB
M  END
>  <Dotmatics_CR>
R-000625

>  <CR_Set>
Amine

>  <Category>
Primary Amines Aromatic

>  <Reaction type>
Amidation

>  <KI/BB_Nature>
Acid

>  <Comments>


>  <Salt>


>  <CR_Chiral_Form>


>  <Prod_total_used>
1

>  <PSR (%)>
100

>  <Article>
3-(trifluoromethoxy)aniline

>  <CAS>
1535-73-5

>  <Density>
1.325

>  <Prod_reagent_number>


>  <Stereocenters>
0

>  <NB_Name reaction - KI/BB – Capping>
04-Amidation_Acid_Amine

$$$$
R-000710
Actelion Java MolfileCreator 2.0

  0  0  0  0  0  0              0 V3000
M  V30 BEGIN CTAB
M  V30 COUNTS 5 4 0 0 0
M  V30 BEGIN ATOM
M  V30 1 F 0.0 0.0 0.0 0
M  V30 2 C -0.1261 1.6142 0.0 0
M  V30 3 F -1.5259 2.4466 0.0 0
M  V30 4 C 1.0215 2.4466 0.0 0
M  V30 5 N 2.1691 1.7655 0.0 0
M  V30 END ATOM
M  V30 BEGIN BOND
M  V30 1 1 1 2
M  V30 2 1 2 3
M  V30 3 1 2 4
M  V30 4 1 4 5
M  V30 END BOND
M  V30 END CTAB
M  END
>  <Dotmatics_CR>
R-000710

>  <CR_Set>
Amine

>  <Category>
Primary Amines Non-Aromatic

>  <Reaction type>
Amidation

>  <KI/BB_Nature>
Acid

>  <Comments>


>  <Salt>


>  <CR_Chiral_Form>


>  <Prod_total_used>
59

>  <PSR (%)>
80

>  <Article>
2,2-DIFLUOROETHYLAMINE

>  <CAS>
430-67-1

>  <Density>
1.059

>  <Prod_reagent_number>


>  <Stereocenters>
0

>  <NB_Name reaction - KI/BB – Capping>
04-Amidation_Acid_Amine

$$$$
R-000793
Actelion Java MolfileCreator 2.0

  0  0  0  0  0  0              0 V3000
M  V30 BEGIN CTAB
M  V30 COUNTS 12 11 0 0 0
M  V30 BEGIN ATOM
M  V30 1 Cl 0.0 0.0 0.0 0
M  V30 2 N -8.2713 1.5906 0.0 0
M  V30 3 C -7.0651 2.4522 0.0 0
M  V30 4 C -5.8588 3.3138 0.0 0
M  V30 5 C -4.6526 2.6113 0.0 0
M  V30 6 C -5.9914 5.0105 0.0 0
M  V30 7 C -3.4463 3.4729 0.0 0
M  V30 8 C -4.7851 5.8853 0.0 0
M  V30 9 C -3.5789 5.1695 0.0 0
M  V30 10 C -2.3727 6.0311 0.0 0
M  V30 11 C -1.1664 5.3286 0.0 0
M  V30 12 N 0.0397 6.1902 0.0 0
M  V30 END ATOM
M  V30 BEGIN BOND
M  V30 1 3 2 3
M  V30 2 1 3 4
M  V30 3 2 4 5
M  V30 4 1 4 6
M  V30 5 1 5 7
M  V30 6 2 6 8
M  V30 7 2 7 9
M  V30 8 1 9 10
M  V30 9 1 10 11
M  V30 10 1 11 12
M  V30 11 1 8 9
M  V30 END BOND
M  V30 END CTAB
M  END
>  <Dotmatics_CR>
R-000793

>  <CR_Set>
Amine

>  <Category>
Primary Amines Non-Aromatic

>  <Reaction type>
Amidation

>  <KI/BB_Nature>
Acid

>  <Comments>


>  <Salt>
HCl

>  <CR_Chiral_Form>


>  <Prod_total_used>
3

>  <PSR (%)>
67

>  <Article>
4-(2-Aminoethyl)benzonitrile hydrochloride

>  <CAS>
167762-80-3

>  <Density>


>  <Prod_reagent_number>


>  <Stereocenters>
0

>  <NB_Name reaction - KI/BB – Capping>
04-Amidation_Acid_Amine

$$$$
R-000808
Actelion Java MolfileCreator 2.0

  0  0  0  0  0  0              0 V3000
M  V30 BEGIN CTAB
M  V30 COUNTS 11 12 0 0 0
M  V30 BEGIN ATOM
M  V30 1 N 0.0 0.0 0.0 0
M  V30 2 C -1.568 -0.3552 0.0 0
M  V30 3 C 0.7595 -1.1025 0.0 0
M  V30 4 C -1.6905 -1.7517 0.0 0
M  V30 5 C -3.0012 0.5022 0.0 0
M  V30 6 N -0.245 -2.205 0.0 0
M  V30 7 C 2.156 -0.98 0.0 0
M  V30 8 C -3.1237 -2.401 0.0 0
M  V30 9 C -4.4345 -0.147 0.0 0
M  V30 10 N 2.8052 -2.1682 0.0 0
M  V30 11 C -4.557 -1.5435 0.0 0
M  V30 END ATOM
M  V30 BEGIN BOND
M  V30 1 1 1 2
M  V30 2 2 1 3
M  V30 3 2 2 4
M  V30 4 1 2 5
M  V30 5 1 3 6
M  V30 6 1 3 7
M  V30 7 1 4 8
M  V30 8 2 5 9
M  V30 9 1 7 10
M  V30 10 2 8 11
M  V30 11 1 4 6
M  V30 12 1 9 11
M  V30 END BOND
M  V30 END CTAB
M  END
>  <Dotmatics_CR>
R-000808

>  <CR_Set>
Amine

>  <Category>
Primary Amines Non-Aromatic

>  <Reaction type>
Amidation

>  <KI/BB_Nature>
Acid

>  <Comments>


>  <Salt>


>  <CR_Chiral_Form>


>  <Prod_total_used>
17

>  <PSR (%)>
76

>  <Article>
(1H-Benzimidazol-2-ylmethyl)amine

>  <CAS>
5805-57-2

>  <Density>
1.0

>  <Prod_reagent_number>


>  <Stereocenters>
0

>  <NB_Name reaction - KI/BB – Capping>
04-Amidation_Acid_Amine

$$$$
R-000822
Actelion Java MolfileCreator 2.0

  0  0  0  0  0  0              0 V3000
M  V30 BEGIN CTAB
M  V30 COUNTS 6 5 0 0 0
M  V30 BEGIN ATOM
M  V30 1 F 0.0 0.0 0.0 0
M  V30 2 C 1.218 -0.7228 0.0 0
M  V30 3 F 1.0842 -2.1684 0.0 0
M  V30 4 F 1.0842 0.9905 0.0 0
M  V30 5 C 2.4361 0.1472 0.0 0
M  V30 6 N 3.6542 -0.5755 0.0 0
M  V30 END ATOM
M  V30 BEGIN BOND
M  V30 1 1 1 2
M  V30 2 1 2 3
M  V30 3 1 2 4
M  V30 4 1 2 5
M  V30 5 1 5 6
M  V30 END BOND
M  V30 END CTAB
M  END
>  <Dotmatics_CR>
R-000822

>  <CR_Set>
Amine

>  <Category>
Primary Amines Non-Aromatic

>  <Reaction type>
Amidation

>  <KI/BB_Nature>
Acid

>  <Comments>


>  <Salt>


>  <CR_Chiral_Form>


>  <Prod_total_used>
38

>  <PSR (%)>
79

>  <Article>
2,2,2-Trifluoroethylamine

>  <CAS>
753-90-2

>  <Density>
1.262

>  <Prod_reagent_number>


>  <Stereocenters>
0

>  <NB_Name reaction - KI/BB – Capping>
04-Amidation_Acid_Amine

$$$$
R-000959
Actelion Java MolfileCreator 2.0

  0  0  0  0  0  0              0 V3000
M  V30 BEGIN CTAB
M  V30 COUNTS 3 2 0 0 0
M  V30 BEGIN ATOM
M  V30 1 N 0.0 0.0 0.0 0
M  V30 2 C -0.1136 -1.4207 0.0 0
M  V30 3 C -1.5685 -2.0232 0.0 0
M  V30 END ATOM
M  V30 BEGIN BOND
M  V30 1 1 1 2
M  V30 2 1 2 3
M  V30 END BOND
M  V30 END CTAB
M  END
>  <Dotmatics_CR>
R-000959

>  <CR_Set>
Amine

>  <Category>
Primary Amines Non-Aromatic

>  <Reaction type>
Amidation

>  <KI/BB_Nature>
Acid

>  <Comments>


>  <Salt>


>  <CR_Chiral_Form>


>  <Prod_total_used>
10

>  <PSR (%)>
70

>  <Article>
Ethylamine in methanol (2M)

>  <CAS>
75-04-7

>  <Density>
0.689

>  <Prod_reagent_number>


>  <Stereocenters>
0

>  <NB_Name reaction - KI/BB – Capping>
04-Amidation_Acid_Amine

$$$$
R-000973
Actelion Java MolfileCreator 2.0

  0  0  0  0  0  0              0 V3000
M  V30 BEGIN CTAB
M  V30 COUNTS 11 11 0 0 0
M  V30 BEGIN ATOM
M  V30 1 O 0.0 0.0 0.0 0
M  V30 2 C 1.1704 -0.6816 0.0 0
M  V30 3 C -1.4276 -0.6816 0.0 0
M  V30 4 C 2.3409 0.1543 0.0 0
M  V30 5 C -2.8553 0.1543 0.0 0
M  V30 6 C 3.5113 -0.5273 0.0 0
M  V30 7 C 2.2122 1.8006 0.0 0
M  V30 8 N -4.283 -0.5273 0.0 0
M  V30 9 C 4.6818 0.3086 0.0 0
M  V30 10 C 3.3827 2.6367 0.0 0
M  V30 11 C 4.5531 1.955 0.0 0
M  V30 END ATOM
M  V30 BEGIN BOND
M  V30 1 1 1 2
M  V30 2 1 1 3
M  V30 3 1 2 4
M  V30 4 1 3 5
M  V30 5 2 4 6
M  V30 6 1 4 7
M  V30 7 1 5 8
M  V30 8 1 6 9
M  V30 9 2 7 10
M  V30 10 2 9 11
M  V30 11 1 10 11
M  V30 END BOND
M  V30 END CTAB
M  END
>  <Dotmatics_CR>
R-000973

>  <CR_Set>
Amine

>  <Category>
Primary Amines Non-Aromatic

>  <Reaction type>
Amidation

>  <KI/BB_Nature>
Acid

>  <Comments>


>  <Salt>


>  <CR_Chiral_Form>


>  <Prod_total_used>
4

>  <PSR (%)>
75

>  <Article>
2-(Benzyloxy)-1-ethanamine

>  <CAS>
38336-04-8

>  <Density>


>  <Prod_reagent_number>


>  <Stereocenters>
0

>  <NB_Name reaction - KI/BB – Capping>
04-Amidation_Acid_Amine

$$$$
R-001007
Actelion Java MolfileCreator 2.0

  0  0  0  0  0  0              0 V3000
M  V30 BEGIN CTAB
M  V30 COUNTS 10 10 0 0 0
M  V30 BEGIN ATOM
M  V30 1 O 0.0 0.0 0.0 0
M  V30 2 C -1.6157 0.1272 0.0 0
M  V30 3 C 0.6742 -1.1449 0.0 0
M  V30 4 C -2.4426 1.5266 0.0 0
M  V30 5 C -2.4426 -1.0177 0.0 0
M  V30 6 C 2.0355 -1.0177 0.0 0
M  V30 7 C -4.071 1.6665 0.0 0
M  V30 8 C -4.071 -0.8905 0.0 0
M  V30 9 N 2.7098 -2.1627 0.0 0
M  V30 10 C -4.898 0.5216 0.0 0
M  V30 END ATOM
M  V30 BEGIN BOND
M  V30 1 1 1 2
M  V30 2 1 1 3
M  V30 3 2 2 4
M  V30 4 1 2 5
M  V30 5 1 3 6
M  V30 6 1 4 7
M  V30 7 2 5 8
M  V30 8 1 6 9
M  V30 9 2 7 10
M  V30 10 1 8 10
M  V30 END BOND
M  V30 END CTAB
M  END
>  <Dotmatics_CR>
R-001007

>  <CR_Set>
Amine

>  <Category>
Primary Amines Non-Aromatic

>  <Reaction type>
Amidation

>  <KI/BB_Nature>
Acid

>  <Comments>


>  <Salt>


>  <CR_Chiral_Form>


>  <Prod_total_used>
6

>  <PSR (%)>
83

>  <Article>
2-PHENOXYETHYLAMINE

>  <CAS>
1758-46-9

>  <Density>
1.048

>  <Prod_reagent_number>


>  <Stereocenters>
0

>  <NB_Name reaction - KI/BB – Capping>
04-Amidation_Acid_Amine

$$$$
R-001338
Actelion Java MolfileCreator 2.0

  0  0  0  0  0  0              0 V3000
M  V30 BEGIN CTAB
M  V30 COUNTS 7 7 0 0 0
M  V30 BEGIN ATOM
M  V30 1 N 0.0 0.0 0.0 0
M  V30 2 N -1.2981 0.9768 0.0 0
M  V30 3 C -0.5912 -1.2724 0.0 0
M  V30 4 C -2.5962 0.2313 0.0 0
M  V30 5 C -1.4266 2.5834 0.0 0
M  V30 6 N 0.1542 -2.3134 0.0 0
M  V30 7 C -2.2363 -1.1567 0.0 0
M  V30 END ATOM
M  V30 BEGIN BOND
M  V30 1 1 1 2
M  V30 2 2 1 3
M  V30 3 1 2 4
M  V30 4 1 2 5
M  V30 5 1 3 6
M  V30 6 1 3 7
M  V30 7 2 4 7
M  V30 END BOND
M  V30 END CTAB
M  END
>  <Dotmatics_CR>
R-001338

>  <CR_Set>
Amine

>  <Category>
Primary Amines Aromatic

>  <Reaction type>
Amidation

>  <KI/BB_Nature>
Acid

>  <Comments>


>  <Salt>


>  <CR_Chiral_Form>


>  <Prod_total_used>
9

>  <PSR (%)>
89

>  <Article>
1-methylpyrazol-3-amine

>  <CAS>
1904-31-0

>  <Density>
1.12

>  <Prod_reagent_number>


>  <Stereocenters>
0

>  <NB_Name reaction - KI/BB – Capping>
04-Amidation_Acid_Amine

$$$$
R-001390
Actelion Java MolfileCreator 2.0

  0  0  0  0  0  0              0 V3000
M  V30 BEGIN CTAB
M  V30 COUNTS 11 11 0 0 0
M  V30 BEGIN ATOM
M  V30 1 O 0.0 0.0 0.0 0
M  V30 2 C -1.317 0.7926 0.0 0
M  V30 3 C -0.1219 -1.2682 0.0 0
M  V30 4 C -2.634 0.1585 0.0 0
M  V30 5 C -1.4389 2.317 0.0 0
M  V30 6 C -3.9511 0.9511 0.0 0
M  V30 7 C -2.756 3.1096 0.0 0
M  V30 8 C -4.073 2.4633 0.0 0
M  V30 9 C -5.2559 0.3292 0.0 0
M  V30 10 C -6.5607 1.1219 0.0 0
M  V30 11 N -8.1217 0.5365 0.0 0
M  V30 END ATOM
M  V30 BEGIN BOND
M  V30 1 1 1 2
M  V30 2 1 1 3
M  V30 3 2 2 4
M  V30 4 1 2 5
M  V30 5 1 4 6
M  V30 6 2 5 7
M  V30 7 2 6 8
M  V30 8 1 6 9
M  V30 9 1 9 10
M  V30 10 1 10 11
M  V30 11 1 7 8
M  V30 END BOND
M  V30 END CTAB
M  END
>  <Dotmatics_CR>
R-001390

>  <CR_Set>
Amine

>  <Category>
Primary Amines Non-Aromatic

>  <Reaction type>
Amidation

>  <KI/BB_Nature>
Acid

>  <Comments>


>  <Salt>


>  <CR_Chiral_Form>


>  <Prod_total_used>
5

>  <PSR (%)>
100

>  <Article>
3-METHOXYPHENETHYLAMINE

>  <CAS>
2039-67-0

>  <Density>
1.038

>  <Prod_reagent_number>


>  <Stereocenters>
0

>  <NB_Name reaction - KI/BB – Capping>
04-Amidation_Acid_Amine

$$$$
R-001584
Actelion Java MolfileCreator 2.0

  0  0  0  0  0  0              0 V3000
M  V30 BEGIN CTAB
M  V30 COUNTS 9 9 0 0 0
M  V30 BEGIN ATOM
M  V30 1 Cl 0.0 0.0 0.0 0
M  V30 2 C -1.5513 0.1212 0.0 0
M  V30 3 C -2.3392 1.4665 0.0 0
M  V30 4 C -2.3392 -0.9575 0.0 0
M  V30 5 C -3.8906 1.5635 0.0 0
M  V30 6 C -3.8906 -0.8605 0.0 0
M  V30 7 F -4.6905 2.8482 0.0 0
M  V30 8 C -4.6784 0.4848 0.0 0
M  V30 9 N -6.2055 0.606 0.0 0
M  V30 END ATOM
M  V30 BEGIN BOND
M  V30 1 1 1 2
M  V30 2 2 2 3
M  V30 3 1 2 4
M  V30 4 1 3 5
M  V30 5 2 4 6
M  V30 6 1 5 7
M  V30 7 2 5 8
M  V30 8 1 8 9
M  V30 9 1 6 8
M  V30 END BOND
M  V30 END CTAB
M  END
>  <Dotmatics_CR>
R-001584

>  <CR_Set>
Amine

>  <Category>
Primary Amines Aromatic

>  <Reaction type>
Amidation

>  <KI/BB_Nature>
Acid

>  <Comments>


>  <Salt>


>  <CR_Chiral_Form>


>  <Prod_total_used>
1

>  <PSR (%)>
100

>  <Article>
4-chloro-2-fluoro-aniline

>  <CAS>
57946-56-2

>  <Density>
1.311

>  <Prod_reagent_number>


>  <Stereocenters>
0

>  <NB_Name reaction - KI/BB – Capping>
04-Amidation_Acid_Amine

$$$$
R-001645
Actelion Java MolfileCreator 2.0

  0  0  0  0  0  0              0 V3000
M  V30 BEGIN CTAB
M  V30 COUNTS 8 7 0 0 0
M  V30 BEGIN ATOM
M  V30 1 Cl 0.0 0.0 0.0 0
M  V30 2 O -6.4818 0.7318 0.0 0
M  V30 3 C -5.2926 0.0392 0.0 0
M  V30 4 C -6.6125 2.4045 0.0 0
M  V30 5 C -4.1034 0.8886 0.0 0
M  V30 6 C -5.4233 3.2539 0.0 0
M  V30 7 C -4.2341 2.5613 0.0 0
M  V30 8 N -3.0449 3.4238 0.0 0
M  V30 END ATOM
M  V30 BEGIN BOND
M  V30 1 1 2 3
M  V30 2 1 2 4
M  V30 3 1 3 5
M  V30 4 1 4 6
M  V30 5 1 5 7
M  V30 6 1 7 8
M  V30 7 1 6 7
M  V30 END BOND
M  V30 END CTAB
M  END
>  <Dotmatics_CR>
R-001645

>  <CR_Set>
Amine

>  <Category>
Primary Amines Non-Aromatic

>  <Reaction type>
Amidation

>  <KI/BB_Nature>
Acid

>  <Comments>


>  <Salt>
HCl

>  <CR_Chiral_Form>


>  <Prod_total_used>
6

>  <PSR (%)>
50

>  <Article>
tetrahydro-2H-pyran-4-amine, hydrochloride 005-12823 (origine AG)

>  <CAS>
33024-60-1

>  <Density>


>  <Prod_reagent_number>


>  <Stereocenters>
0

>  <NB_Name reaction - KI/BB – Capping>
04-Amidation_Acid_Amine

$$$$
R-001890
Actelion Java MolfileCreator 2.0

  0  0  0  0  0  0              0 V3000
M  V30 BEGIN CTAB
M  V30 COUNTS 6 6 0 0 0
M  V30 BEGIN ATOM
M  V30 1 O 0.0 0.0 0.0 0
M  V30 2 C 1.2588 -0.6294 0.0 0
M  V30 3 C -1.4919 -0.6294 0.0 0
M  V30 4 C 1.1422 -2.098 0.0 0
M  V30 5 C -1.6085 -2.098 0.0 0
M  V30 6 N -0.3496 -2.7274 0.0 0
M  V30 END ATOM
M  V30 BEGIN BOND
M  V30 1 1 1 2
M  V30 2 1 1 3
M  V30 3 1 2 4
M  V30 4 1 3 5
M  V30 5 1 4 6
M  V30 6 1 5 6
M  V30 END BOND
M  V30 END CTAB
M  END
>  <Dotmatics_CR>
R-001890

>  <CR_Set>
Amine

>  <Category>
Secondary Amines Non-Aromatic

>  <Reaction type>
Amidation

>  <KI/BB_Nature>
Acid

>  <Comments>


>  <Salt>


>  <CR_Chiral_Form>


>  <Prod_total_used>
42

>  <PSR (%)>
81

>  <Article>
morpholine

>  <CAS>
110-91-8

>  <Density>
0.996

>  <Prod_reagent_number>


>  <Stereocenters>
0

>  <NB_Name reaction - KI/BB – Capping>
04-Amidation_Acid_Amine

$$$$
R-001898
Actelion Java MolfileCreator 2.0

  0  0  0  0  0  0              0 V3000
M  V30 BEGIN CTAB
M  V30 COUNTS 7 7 0 0 0
M  V30 BEGIN ATOM
M  V30 1 N 0.0 0.0 0.0 0
M  V30 2 C -0.1176 -1.471 0.0 0
M  V30 3 C -1.6239 -2.0829 0.0 0
M  V30 4 C 1.1532 -2.0829 0.0 0
M  V30 5 C -1.7416 -3.5539 0.0 0
M  V30 6 C 1.0355 -3.5539 0.0 0
M  V30 7 C -0.4707 -4.1658 0.0 0
M  V30 END ATOM
M  V30 BEGIN BOND
M  V30 1 1 1 2
M  V30 2 2 2 3
M  V30 3 1 2 4
M  V30 4 1 3 5
M  V30 5 2 4 6
M  V30 6 2 5 7
M  V30 7 1 6 7
M  V30 END BOND
M  V30 END CTAB
M  END
>  <Dotmatics_CR>
R-001898

>  <CR_Set>
Amine

>  <Category>
Primary Amines Aromatic

>  <Reaction type>
Amidation

>  <KI/BB_Nature>
Acid

>  <Comments>


>  <Salt>


>  <CR_Chiral_Form>


>  <Prod_total_used>
6

>  <PSR (%)>
67

>  <Article>
aniline

>  <CAS>
62-53-3

>  <Density>
1.022

>  <Prod_reagent_number>


>  <Stereocenters>
0

>  <NB_Name reaction - KI/BB – Capping>
04-Amidation_Acid_Amine

$$$$
R-001899
Actelion Java MolfileCreator 2.0

  0  0  0  0  0  0              0 V3000
M  V30 BEGIN CTAB
M  V30 COUNTS 11 11 0 0 0
M  V30 BEGIN ATOM
M  V30 1 O 0.0 0.0 0.0 0
M  V30 2 C 1.1523 0.8322 0.0 0
M  V30 3 C -1.4084 0.8322 0.0 0
M  V30 4 C 2.3046 0.1536 0.0 0
M  V30 5 C 1.0243 2.4711 0.0 0
M  V30 6 C -2.8168 0.1536 0.0 0
M  V30 7 C -1.5364 2.4583 0.0 0
M  V30 8 C 3.4698 0.9858 0.0 0
M  V30 9 C 2.1766 3.3033 0.0 0
M  V30 10 C 3.3417 2.6247 0.0 0
M  V30 11 N 4.4941 3.457 0.0 0
M  V30 END ATOM
M  V30 BEGIN BOND
M  V30 1 1 1 2
M  V30 2 1 1 3
M  V30 3 2 2 4
M  V30 4 1 2 5
M  V30 5 1 3 6
M  V30 6 1 3 7
M  V30 7 1 4 8
M  V30 8 2 5 9
M  V30 9 2 8 10
M  V30 10 1 10 11
M  V30 11 1 9 10
M  V30 END BOND
M  V30 END CTAB
M  END
>  <Dotmatics_CR>
R-001899

>  <CR_Set>
Amine

>  <Category>
Primary Amines Aromatic

>  <Reaction type>
Amidation

>  <KI/BB_Nature>
Acid

>  <Comments>


>  <Salt>


>  <CR_Chiral_Form>


>  <Prod_total_used>
1

>  <PSR (%)>
100

>  <Article>
4-ISOPROPOXYANILINE

>  <CAS>
7664-66-6

>  <Density>


>  <Prod_reagent_number>


>  <Stereocenters>
0

>  <NB_Name reaction - KI/BB – Capping>
04-Amidation_Acid_Amine

$$$$
R-001970
Actelion Java MolfileCreator 2.0

  0  0  0  0  0  0              0 V3000
M  V30 BEGIN CTAB
M  V30 COUNTS 7 7 0 0 0
M  V30 BEGIN ATOM
M  V30 1 N 0.0 0.0 0.0 0
M  V30 2 C -1.3719 0.8033 0.0 0
M  V30 3 C 1.1247 0.8033 0.0 0
M  V30 4 N -1.4955 2.3854 0.0 0
M  V30 5 C 1.0011 2.3854 0.0 0
M  V30 6 C -0.3707 3.1888 0.0 0
M  V30 7 N 2.1258 3.1888 0.0 0
M  V30 END ATOM
M  V30 BEGIN BOND
M  V30 1 2 1 2
M  V30 2 1 1 3
M  V30 3 1 2 4
M  V30 4 2 3 5
M  V30 5 2 4 6
M  V30 6 1 5 7
M  V30 7 1 5 6
M  V30 END BOND
M  V30 END CTAB
M  END
>  <Dotmatics_CR>
R-001970

>  <CR_Set>
Amine

>  <Category>
Primary Amines Aromatic

>  <Reaction type>
Amidation

>  <KI/BB_Nature>
Acid

>  <Comments>


>  <Salt>


>  <CR_Chiral_Form>


>  <Prod_total_used>
27

>  <PSR (%)>
63

>  <Article>
pyrimidin-5-amine

>  <CAS>
591-55-9

>  <Density>
1.0

>  <Prod_reagent_number>


>  <Stereocenters>
0

>  <NB_Name reaction - KI/BB – Capping>
04-Amidation_Acid_Amine

$$$$
R-002071
Actelion Java MolfileCreator 2.0

  0  0  0  0  0  0              0 V3000
M  V30 BEGIN CTAB
M  V30 COUNTS 8 7 0 0 0
M  V30 BEGIN ATOM
M  V30 1 N 0.0 0.0 0.0 0
M  V30 2 C -0.1293 -1.3838 0.0 0
M  V30 3 C 1.164 0.8406 0.0 0
M  V30 4 C -1.4356 0.8406 0.0 0
M  V30 5 C 1.0346 -2.0693 0.0 0
M  V30 6 C 1.0346 2.4961 0.0 0
M  V30 7 C -2.8712 0.1422 0.0 0
M  V30 8 N 0.9053 -3.4661 0.0 0
M  V30 END ATOM
M  V30 BEGIN BOND
M  V30 1 1 1 2
M  V30 2 1 1 3
M  V30 3 1 1 4
M  V30 4 1 2 5
M  V30 5 1 3 6
M  V30 6 1 4 7
M  V30 7 1 5 8
M  V30 END BOND
M  V30 END CTAB
M  END
>  <Dotmatics_CR>
R-002071

>  <CR_Set>
Amine

>  <Category>
Primary Amines Non-Aromatic

>  <Reaction type>
Amidation

>  <KI/BB_Nature>
Acid

>  <Comments>


>  <Salt>


>  <CR_Chiral_Form>


>  <Prod_total_used>
20

>  <PSR (%)>
80

>  <Article>
N,N-DIETHYL-ETHYLENEDIAMINE

>  <CAS>
100-36-7

>  <Density>
0.827

>  <Prod_reagent_number>


>  <Stereocenters>
0

>  <NB_Name reaction - KI/BB – Capping>
04-Amidation_Acid_Amine

$$$$
R-002202
Actelion Java MolfileCreator 2.0

  0  0  0  0  0  0              0 V3000
M  V30 BEGIN CTAB
M  V30 COUNTS 14 15 0 0 0
M  V30 BEGIN ATOM
M  V30 1 N 0.0 0.0 0.0 0
M  V30 2 C -0.1326 -1.4328 0.0 0
M  V30 3 C -0.2653 -2.8656 0.0 0
M  V30 4 C 0.9419 -3.5687 0.0 0
M  V30 5 C -1.7379 -3.5687 0.0 0
M  V30 6 N 2.1492 -2.6931 0.0 0
M  V30 7 C 0.8092 -5.0015 0.0 0
M  V30 8 C -1.8706 -5.0015 0.0 0
M  V30 9 C 3.3564 -3.3962 0.0 0
M  V30 10 C 2.0165 -0.995 0.0 0
M  V30 11 C -0.6633 -5.7179 0.0 0
M  V30 12 C 4.5637 -2.5339 0.0 0
M  V30 13 C 3.2238 -0.1194 0.0 0
M  V30 14 N 4.431 -0.8358 0.0 0
M  V30 END ATOM
M  V30 BEGIN BOND
M  V30 1 3 1 2
M  V30 2 1 2 3
M  V30 3 2 3 4
M  V30 4 1 3 5
M  V30 5 1 4 6
M  V30 6 1 4 7
M  V30 7 2 5 8
M  V30 8 1 6 9
M  V30 9 1 6 10
M  V30 10 2 7 11
M  V30 11 1 9 12
M  V30 12 1 10 13
M  V30 13 1 12 14
M  V30 14 1 8 11
M  V30 15 1 13 14
M  V30 END BOND
M  V30 END CTAB
M  END
>  <Dotmatics_CR>
R-002202

>  <CR_Set>
Amine

>  <Category>
Secondary Amines Non-Aromatic

>  <Reaction type>
Amidation

>  <KI/BB_Nature>
Acid

>  <Comments>


>  <Salt>


>  <CR_Chiral_Form>


>  <Prod_total_used>
4

>  <PSR (%)>
100

>  <Article>
1-(2-CYANOPHENYL)PIPERAZINE

>  <CAS>
111373-03-6

>  <Density>
1.115

>  <Prod_reagent_number>


>  <Stereocenters>
0

>  <NB_Name reaction - KI/BB – Capping>
04-Amidation_Acid_Amine

$$$$
R-002204
Actelion Java MolfileCreator 2.0

  0  0  0  0  0  0              0 V3000
M  V30 BEGIN CTAB
M  V30 COUNTS 12 12 0 0 0
M  V30 BEGIN ATOM
M  V30 1 O 0.0 0.0 0.0 0
M  V30 2 C 1.2198 -0.7104 0.0 0
M  V30 3 O 1.0858 -2.1582 0.0 0
M  V30 4 N 2.4397 0.1608 0.0 0
M  V30 5 C 2.3056 -2.8821 0.0 0
M  V30 6 C 3.6596 -0.5496 0.0 0
M  V30 7 C 2.3056 1.8767 0.0 0
M  V30 8 C 2.1716 -4.3298 0.0 0
M  V30 9 C 4.8794 0.3217 0.0 0
M  V30 10 C 3.5255 2.748 0.0 0
M  V30 11 C 4.7454 2.0375 0.0 0
M  V30 12 N 5.9652 2.9089 0.0 0
M  V30 END ATOM
M  V30 BEGIN BOND
M  V30 1 2 1 2
M  V30 2 1 2 3
M  V30 3 1 2 4
M  V30 4 1 3 5
M  V30 5 1 4 6
M  V30 6 1 4 7
M  V30 7 1 5 8
M  V30 8 1 6 9
M  V30 9 1 7 10
M  V30 10 1 9 11
M  V30 11 1 11 12
M  V30 12 1 10 11
M  V30 END BOND
M  V30 END CTAB
M  END
>  <Dotmatics_CR>
R-002204

>  <CR_Set>
Amine

>  <Category>
Primary Amines Non-Aromatic

>  <Reaction type>
Amidation

>  <KI/BB_Nature>
Acid

>  <Comments>


>  <Salt>


>  <CR_Chiral_Form>


>  <Prod_total_used>
3

>  <PSR (%)>
100

>  <Article>
ETHYL 4-AMINO-1-PIPERIDINE CARBOXYLATE

>  <CAS>
58859-46-4

>  <Density>
1.004

>  <Prod_reagent_number>


>  <Stereocenters>
0

>  <NB_Name reaction - KI/BB – Capping>
04-Amidation_Acid_Amine

$$$$
R-002330
Actelion Java MolfileCreator 2.0

  0  0  0  0  0  0              0 V3000
M  V30 BEGIN CTAB
M  V30 COUNTS 4 3 0 0 0
M  V30 BEGIN ATOM
M  V30 1 O 0.0 0.0 0.0 0
M  V30 2 C 1.2705 -0.726 0.0 0
M  V30 3 C 2.5411 0.2016 0.0 0
M  V30 4 N 3.8117 -0.5243 0.0 0
M  V30 END ATOM
M  V30 BEGIN BOND
M  V30 1 1 1 2
M  V30 2 1 2 3
M  V30 3 1 3 4
M  V30 END BOND
M  V30 END CTAB
M  END
>  <Dotmatics_CR>
R-002330

>  <CR_Set>
Amine

>  <Category>
Primary Amines Non-Aromatic

>  <Reaction type>
Amidation

>  <KI/BB_Nature>
Acid

>  <Comments>


>  <Salt>


>  <CR_Chiral_Form>


>  <Prod_total_used>
41

>  <PSR (%)>
78

>  <Article>
ETHANOLAMINE

>  <CAS>
141-43-5

>  <Density>
1.012

>  <Prod_reagent_number>


>  <Stereocenters>
0

>  <NB_Name reaction - KI/BB – Capping>
04-Amidation_Acid_Amine

$$$$
R-002355
Actelion Java MolfileCreator 2.0

  0  0  0  0  0  0              0 V3000
M  V30 BEGIN CTAB
M  V30 COUNTS 7 7 0 0 0
M  V30 BEGIN ATOM
M  V30 1 O 0.0 0.0 0.0 0
M  V30 2 C -1.4929 -0.4898 0.0 0
M  V30 3 C 0.8864 -1.003 0.0 0
M  V30 4 C -1.4579 -1.8661 0.0 0
M  V30 5 C -2.9159 0.3848 0.0 0
M  V30 6 C 0.0116 -2.1927 0.0 0
M  V30 7 N -4.3388 -0.2565 0.0 0
M  V30 END ATOM
M  V30 BEGIN BOND
M  V30 1 1 1 2
M  V30 2 1 1 3
M  V30 3 2 2 4
M  V30 4 1 2 5
M  V30 5 2 3 6
M  V30 6 1 5 7
M  V30 7 1 4 6
M  V30 END BOND
M  V30 END CTAB
M  END
>  <Dotmatics_CR>
R-002355

>  <CR_Set>
Amine

>  <Category>
Primary Amines Non-Aromatic

>  <Reaction type>
Amidation

>  <KI/BB_Nature>
Acid

>  <Comments>


>  <Salt>


>  <CR_Chiral_Form>


>  <Prod_total_used>
25

>  <PSR (%)>
84

>  <Article>
FURFURYLAMINE

>  <CAS>
617-89-0

>  <Density>
1.099

>  <Prod_reagent_number>


>  <Stereocenters>
0

>  <NB_Name reaction - KI/BB – Capping>
04-Amidation_Acid_Amine

$$$$
R-002392
Actelion Java MolfileCreator 2.0

  0  0  0  0  0  0              0 V3000
M  V30 BEGIN CTAB
M  V30 COUNTS 6 5 0 0 0
M  V30 BEGIN ATOM
M  V30 1 N 0.0 0.0 0.0 0
M  V30 2 C 1.2023 0.8238 0.0 0
M  V30 3 C -1.4249 0.8238 0.0 0
M  V30 4 C 2.4046 0.1669 0.0 0
M  V30 5 C -2.8499 0.1669 0.0 0
M  V30 6 C 3.6069 0.9907 0.0 0
M  V30 END ATOM
M  V30 BEGIN BOND
M  V30 1 1 1 2
M  V30 2 1 1 3
M  V30 3 1 2 4
M  V30 4 1 3 5
M  V30 5 1 4 6
M  V30 END BOND
M  V30 END CTAB
M  END
>  <Dotmatics_CR>
R-002392

>  <CR_Set>
Amine

>  <Category>
Secondary Amines Non-Aromatic

>  <Reaction type>
Amidation

>  <KI/BB_Nature>
Acid

>  <Comments>


>  <Salt>


>  <CR_Chiral_Form>


>  <Prod_total_used>
12

>  <PSR (%)>
75

>  <Article>
N-ETHYLPROPYLAMINE

>  <CAS>
20193-20-8

>  <Density>


>  <Prod_reagent_number>


>  <Stereocenters>
0

>  <NB_Name reaction - KI/BB – Capping>
04-Amidation_Acid_Amine

$$$$
R-002436
Actelion Java MolfileCreator 2.0

  0  0  0  0  0  0              0 V3000
M  V30 BEGIN CTAB
M  V30 COUNTS 8 8 0 0 0
M  V30 BEGIN ATOM
M  V30 1 Cl 0.0 0.0 0.0 0
M  V30 2 C 1.179 0.833 0.0 0
M  V30 3 C 1.0509 2.4735 0.0 0
M  V30 4 C 2.3325 0.1409 0.0 0
M  V30 5 N -0.3844 3.3194 0.0 0
M  V30 6 C 2.2044 3.3194 0.0 0
M  V30 7 C 3.5116 0.974 0.0 0
M  V30 8 C 3.3834 2.6273 0.0 0
M  V30 END ATOM
M  V30 BEGIN BOND
M  V30 1 1 1 2
M  V30 2 2 2 3
M  V30 3 1 2 4
M  V30 4 1 3 5
M  V30 5 1 3 6
M  V30 6 2 4 7
M  V30 7 2 6 8
M  V30 8 1 7 8
M  V30 END BOND
M  V30 END CTAB
M  END
>  <Dotmatics_CR>
R-002436

>  <CR_Set>
Amine

>  <Category>
Primary Amines Aromatic

>  <Reaction type>
Amidation

>  <KI/BB_Nature>
Acid

>  <Comments>


>  <Salt>


>  <CR_Chiral_Form>


>  <Prod_total_used>
1

>  <PSR (%)>
100

>  <Article>
2-chloroaniline

>  <CAS>
95-51-2

>  <Density>
1.213

>  <Prod_reagent_number>


>  <Stereocenters>
0

>  <NB_Name reaction - KI/BB – Capping>
04-Amidation_Acid_Amine

$$$$
R-002496
Actelion Java MolfileCreator 2.0

  0  0  0  0  0  0              0 V3000
M  V30 BEGIN CTAB
M  V30 COUNTS 9 9 0 0 0
M  V30 BEGIN ATOM
M  V30 1 N 0.0 0.0 0.0 0
M  V30 2 C 0.3844 -1.3521 0.0 0
M  V30 3 C -1.6968 0.1325 0.0 0
M  V30 4 N -0.9942 -2.1343 0.0 0
M  V30 5 C -2.3464 -1.2196 0.0 0
M  V30 6 C -1.1268 -3.566 0.0 0
M  V30 7 C 0.0795 -4.2686 0.0 0
M  V30 8 C -0.053 -5.7003 0.0 0
M  V30 9 N 1.1533 -6.4162 0.0 0
M  V30 END ATOM
M  V30 BEGIN BOND
M  V30 1 2 1 2
M  V30 2 1 1 3
M  V30 3 1 2 4
M  V30 4 2 3 5
M  V30 5 1 4 6
M  V30 6 1 6 7
M  V30 7 1 7 8
M  V30 8 1 8 9
M  V30 9 1 4 5
M  V30 END BOND
M  V30 END CTAB
M  END
>  <Dotmatics_CR>
R-002496

>  <CR_Set>
Amine

>  <Category>
Primary Amines Non-Aromatic

>  <Reaction type>
Amidation

>  <KI/BB_Nature>
Acid

>  <Comments>


>  <Salt>


>  <CR_Chiral_Form>


>  <Prod_total_used>
13

>  <PSR (%)>
92

>  <Article>
1-(3-AMINOPROPYL)-IMIDAZOLE

>  <CAS>
5036-48-6

>  <Density>
1.049

>  <Prod_reagent_number>


>  <Stereocenters>
0

>  <NB_Name reaction - KI/BB – Capping>
04-Amidation_Acid_Amine

$$$$
R-002498
Actelion Java MolfileCreator 2.0

  0  0  0  0  0  0              0 V3000
M  V30 BEGIN CTAB
M  V30 COUNTS 7 7 0 0 0
M  V30 BEGIN ATOM
M  V30 1 N 0.0 0.0 0.0 0
M  V30 2 C 1.1257 0.8041 0.0 0
M  V30 3 C -1.3608 0.8041 0.0 0
M  V30 4 C 1.002 2.3876 0.0 0
M  V30 5 C -1.4845 2.3876 0.0 0
M  V30 6 N 2.1155 3.2041 0.0 0
M  V30 7 C -0.3711 3.2041 0.0 0
M  V30 END ATOM
M  V30 BEGIN BOND
M  V30 1 2 1 2
M  V30 2 1 1 3
M  V30 3 1 2 4
M  V30 4 2 3 5
M  V30 5 1 4 6
M  V30 6 2 4 7
M  V30 7 1 5 7
M  V30 END BOND
M  V30 END CTAB
M  END
>  <Dotmatics_CR>
R-002498

>  <CR_Set>
Amine

>  <Category>
Primary Amines Aromatic

>  <Reaction type>
Amidation

>  <KI/BB_Nature>
Acid

>  <Comments>


>  <Salt>


>  <CR_Chiral_Form>


>  <Prod_total_used>
11

>  <PSR (%)>
64

>  <Article>
pyridin-3-amine

>  <CAS>
462-08-8

>  <Density>
1.0

>  <Prod_reagent_number>


>  <Stereocenters>
0

>  <NB_Name reaction - KI/BB – Capping>
04-Amidation_Acid_Amine

$$$$
R-002524
Actelion Java MolfileCreator 2.0

  0  0  0  0  0  0              0 V3000
M  V30 BEGIN CTAB
M  V30 COUNTS 13 14 0 0 0
M  V30 BEGIN ATOM
M  V30 1 Cl 0.0 0.0 0.0 0
M  V30 2 C -0.1202 -1.4916 0.0 0
M  V30 3 C -1.66 -2.1051 0.0 0
M  V30 4 C 1.1427 -2.1051 0.0 0
M  V30 5 C -1.7803 -3.5607 0.0 0
M  V30 6 C 1.0224 -3.5607 0.0 0
M  V30 7 C -0.4811 -4.1742 0.0 0
M  V30 8 N -0.6014 -5.6297 0.0 0
M  V30 9 C -2.1292 -6.2432 0.0 0
M  V30 10 C 0.6495 -6.2432 0.0 0
M  V30 11 C -2.2494 -7.6988 0.0 0
M  V30 12 C 0.5292 -7.6988 0.0 0
M  V30 13 N -0.9623 -8.3123 0.0 0
M  V30 END ATOM
M  V30 BEGIN BOND
M  V30 1 1 1 2
M  V30 2 2 2 3
M  V30 3 1 2 4
M  V30 4 1 3 5
M  V30 5 2 4 6
M  V30 6 2 5 7
M  V30 7 1 7 8
M  V30 8 1 8 9
M  V30 9 1 8 10
M  V30 10 1 9 11
M  V30 11 1 10 12
M  V30 12 1 11 13
M  V30 13 1 6 7
M  V30 14 1 12 13
M  V30 END BOND
M  V30 END CTAB
M  END
>  <Dotmatics_CR>
R-002524

>  <CR_Set>
Amine

>  <Category>
Secondary Amines Non-Aromatic

>  <Reaction type>
Amidation

>  <KI/BB_Nature>
Acid

>  <Comments>


>  <Salt>


>  <CR_Chiral_Form>


>  <Prod_total_used>
4

>  <PSR (%)>
100

>  <Article>
1-(-4CHLOROPHENYL PIPERAZINE

>  <CAS>
38212-33-8

>  <Density>


>  <Prod_reagent_number>


>  <Stereocenters>
0

>  <NB_Name reaction - KI/BB – Capping>
04-Amidation_Acid_Amine

$$$$
R-002526
Actelion Java MolfileCreator 2.0

  0  0  0  0  0  0              0 V3000
M  V30 BEGIN CTAB
M  V30 COUNTS 12 12 0 0 0
M  V30 BEGIN ATOM
M  V30 1 F 0.0 0.0 0.0 0
M  V30 2 C -1.3671 -0.6527 0.0 0
M  V30 3 F -1.4903 -1.9707 0.0 0
M  V30 4 F -2.9314 -0.5296 0.0 0
M  V30 5 C -2.722 0.1478 0.0 0
M  V30 6 C -2.8452 1.7243 0.0 0
M  V30 7 C -4.0892 -0.5049 0.0 0
M  V30 8 C -4.2124 2.5249 0.0 0
M  V30 9 C -1.7243 2.5249 0.0 0
M  V30 10 C -5.4564 0.2956 0.0 0
M  V30 11 C -5.5795 1.8598 0.0 0
M  V30 12 N -0.6158 1.8721 0.0 0
M  V30 END ATOM
M  V30 BEGIN BOND
M  V30 1 1 1 2
M  V30 2 1 2 3
M  V30 3 1 2 4
M  V30 4 1 2 5
M  V30 5 2 5 6
M  V30 6 1 5 7
M  V30 7 1 6 8
M  V30 8 1 6 9
M  V30 9 2 7 10
M  V30 10 2 8 11
M  V30 11 1 9 12
M  V30 12 1 10 11
M  V30 END BOND
M  V30 END CTAB
M  END
>  <Dotmatics_CR>
R-002526

>  <CR_Set>
Amine

>  <Category>
Primary Amines Non-Aromatic

>  <Reaction type>
Amidation

>  <KI/BB_Nature>
Acid

>  <Comments>


>  <Salt>


>  <CR_Chiral_Form>


>  <Prod_total_used>
5

>  <PSR (%)>
100

>  <Article>
2-(-TRIFLUOROMETHYL) BENZYLAMINE

>  <CAS>
3048-01-9

>  <Density>
1.249

>  <Prod_reagent_number>


>  <Stereocenters>
0

>  <NB_Name reaction - KI/BB – Capping>
04-Amidation_Acid_Amine

$$$$
R-002529
Actelion Java MolfileCreator 2.0

  0  0  0  0  0  0              0 V3000
M  V30 BEGIN CTAB
M  V30 COUNTS 11 11 0 0 0
M  V30 BEGIN ATOM
M  V30 1 O 0.0 0.0 0.0 0
M  V30 2 C -1.365 -0.6517 0.0 0
M  V30 3 C 1.1313 -0.6517 0.0 0
M  V30 4 C -2.7423 0.1598 0.0 0
M  V30 5 C -1.4879 -1.9921 0.0 0
M  V30 6 N -2.8652 1.7339 0.0 0
M  V30 7 C -4.1196 -0.5041 0.0 0
M  V30 8 C -2.8652 -2.6439 0.0 0
M  V30 9 O -5.4846 0.3074 0.0 0
M  V30 10 C -4.2425 -1.8446 0.0 0
M  V30 11 C -5.6075 1.8814 0.0 0
M  V30 END ATOM
M  V30 BEGIN BOND
M  V30 1 1 1 2
M  V30 2 1 1 3
M  V30 3 2 2 4
M  V30 4 1 2 5
M  V30 5 1 4 6
M  V30 6 1 4 7
M  V30 7 2 5 8
M  V30 8 1 7 9
M  V30 9 2 7 10
M  V30 10 1 9 11
M  V30 11 1 8 10
M  V30 END BOND
M  V30 END CTAB
M  END
>  <Dotmatics_CR>
R-002529

>  <CR_Set>
Amine

>  <Category>
Primary Amines Aromatic

>  <Reaction type>
Amidation

>  <KI/BB_Nature>
Acid

>  <Comments>


>  <Salt>


>  <CR_Chiral_Form>


>  <Prod_total_used>
1

>  <PSR (%)>
100

>  <Article>
2,6-DIMETHOXYANILINE

>  <CAS>
2734-70-5

>  <Density>


>  <Prod_reagent_number>


>  <Stereocenters>
0

>  <NB_Name reaction - KI/BB – Capping>
04-Amidation_Acid_Amine

$$$$
R-002557
Actelion Java MolfileCreator 2.0

  0  0  0  0  0  0              0 V3000
M  V30 BEGIN CTAB
M  V30 COUNTS 8 8 0 0 0
M  V30 BEGIN ATOM
M  V30 1 Cl 0.0 0.0 0.0 0
M  V30 2 C -0.1103 1.4351 0.0 0
M  V30 3 C -1.4596 2.2324 0.0 0
M  V30 4 C 0.9935 2.2324 0.0 0
M  V30 5 C -1.5823 3.8025 0.0 0
M  V30 6 C 0.8709 3.8025 0.0 0
M  V30 7 C -0.4783 4.6121 0.0 0
M  V30 8 N -0.6133 6.1454 0.0 0
M  V30 END ATOM
M  V30 BEGIN BOND
M  V30 1 1 1 2
M  V30 2 2 2 3
M  V30 3 1 2 4
M  V30 4 1 3 5
M  V30 5 2 4 6
M  V30 6 2 5 7
M  V30 7 1 7 8
M  V30 8 1 6 7
M  V30 END BOND
M  V30 END CTAB
M  END
>  <Dotmatics_CR>
R-002557

>  <CR_Set>
Amine

>  <Category>
Primary Amines Aromatic

>  <Reaction type>
Amidation

>  <KI/BB_Nature>
Acid

>  <Comments>


>  <Salt>


>  <CR_Chiral_Form>


>  <Prod_total_used>
1

>  <PSR (%)>
100

>  <Article>
4-chloroaniline

>  <CAS>
106-47-8

>  <Density>


>  <Prod_reagent_number>


>  <Stereocenters>
0

>  <NB_Name reaction - KI/BB – Capping>
04-Amidation_Acid_Amine

$$$$
R-002568
Actelion Java MolfileCreator 2.0

  0  0  0  0  0  0              0 V3000
M  V30 BEGIN CTAB
M  V30 COUNTS 10 10 0 0 0
M  V30 BEGIN ATOM
M  V30 1 O 0.0 0.0 0.0 0
M  V30 2 C -1.2882 0.9314 0.0 0
M  V30 3 N -2.5764 0.3963 0.0 0
M  V30 4 C -1.4864 2.398 0.0 0
M  V30 5 C -3.8646 1.3278 0.0 0
M  V30 6 C -2.7746 -0.7531 0.0 0
M  V30 7 C -4.0232 2.5962 0.0 0
M  V30 8 C -4.0628 -1.2882 0.0 0
M  V30 9 C -4.261 -2.4377 0.0 0
M  V30 10 N -5.5493 -2.9728 0.0 0
M  V30 END ATOM
M  V30 BEGIN BOND
M  V30 1 2 1 2
M  V30 2 1 2 3
M  V30 3 1 2 4
M  V30 4 1 3 5
M  V30 5 1 3 6
M  V30 6 1 4 7
M  V30 7 1 6 8
M  V30 8 1 8 9
M  V30 9 1 9 10
M  V30 10 1 5 7
M  V30 END BOND
M  V30 END CTAB
M  END
>  <Dotmatics_CR>
R-002568

>  <CR_Set>
Amine

>  <Category>
Primary Amines Non-Aromatic

>  <Reaction type>
Amidation

>  <KI/BB_Nature>
Acid

>  <Comments>


>  <Salt>


>  <CR_Chiral_Form>


>  <Prod_total_used>
14

>  <PSR (%)>
79

>  <Article>
1-(3-AMINOPROPYL)-2-PYRROLIDINONE

>  <CAS>
7663-77-6

>  <Density>
1.014

>  <Prod_reagent_number>


>  <Stereocenters>
0

>  <NB_Name reaction - KI/BB – Capping>
04-Amidation_Acid_Amine

$$$$
R-002597
Actelion Java MolfileCreator 2.0

  0  0  0  0  0  0              0 V3000
M  V30 BEGIN CTAB
M  V30 COUNTS 7 7 0 0 0
M  V30 BEGIN ATOM
M  V30 1 N 0.0 0.0 0.0 0
M  V30 2 C 0.6218 1.5018 0.0 0
M  V30 3 C 0.6218 -1.2672 0.0 0
M  V30 4 C 2.0885 1.6192 0.0 0
M  V30 5 C 2.0885 -1.1498 0.0 0
M  V30 6 C 2.7104 0.352 0.0 0
M  V30 7 C 4.1888 0.4693 0.0 0
M  V30 END ATOM
M  V30 BEGIN BOND
M  V30 1 1 1 2
M  V30 2 1 1 3
M  V30 3 1 2 4
M  V30 4 1 3 5
M  V30 5 1 4 6
M  V30 6 1 6 7
M  V30 7 1 5 6
M  V30 END BOND
M  V30 END CTAB
M  END
>  <Dotmatics_CR>
R-002597

>  <CR_Set>
Amine

>  <Category>
Secondary Amines Non-Aromatic

>  <Reaction type>
Amidation

>  <KI/BB_Nature>
Acid

>  <Comments>


>  <Salt>


>  <CR_Chiral_Form>


>  <Prod_total_used>
32

>  <PSR (%)>
94

>  <Article>
4-methylpiperidine

>  <CAS>
626-58-4

>  <Density>
0.838

>  <Prod_reagent_number>


>  <Stereocenters>
0

>  <NB_Name reaction - KI/BB – Capping>
04-Amidation_Acid_Amine

$$$$
R-002598
Actelion Java MolfileCreator 2.0

  0  0  0  0  0  0              0 V3000
M  V30 BEGIN CTAB
M  V30 COUNTS 6 5 0 0 0
M  V30 BEGIN ATOM
M  V30 1 O 0.0 0.0 0.0 0
M  V30 2 C -1.3864 -0.662 0.0 0
M  V30 3 C -2.7729 0.1498 0.0 0
M  V30 4 N -2.8978 1.7487 0.0 0
M  V30 5 C -3.1476 -0.9368 0.0 0
M  V30 6 C -4.3717 0.2747 0.0 0
M  V30 END ATOM
M  V30 BEGIN BOND
M  V30 1 1 1 2
M  V30 2 1 2 3
M  V30 3 1 3 4
M  V30 4 1 3 5
M  V30 5 1 3 6
M  V30 END BOND
M  V30 END CTAB
M  END
>  <Dotmatics_CR>
R-002598

>  <CR_Set>
Amine

>  <Category>
Primary Amines Non-Aromatic

>  <Reaction type>
Amidation

>  <KI/BB_Nature>
Acid

>  <Comments>


>  <Salt>


>  <CR_Chiral_Form>


>  <Prod_total_used>
12

>  <PSR (%)>
67

>  <Article>
2-AMINO-2-METHYL-PROPAN-1-OL

>  <CAS>
124-68-5

>  <Density>
0.934

>  <Prod_reagent_number>


>  <Stereocenters>
0

>  <NB_Name reaction - KI/BB – Capping>
04-Amidation_Acid_Amine

$$$$
R-002600
Actelion Java MolfileCreator 2.0

  0  0  0  0  0  0              0 V3000
M  V30 BEGIN CTAB
M  V30 COUNTS 13 14 0 0 0
M  V30 BEGIN ATOM
M  V30 1 O 0.0 0.0 0.0 0
M  V30 2 C -0.7919 1.3402 0.0 0
M  V30 3 C -0.7919 -1.0965 0.0 0
M  V30 4 C -2.3392 1.462 0.0 0
M  V30 5 C -2.3392 -0.9747 0.0 0
M  V30 6 N -3.1312 0.3655 0.0 0
M  V30 7 C -4.6785 0.4873 0.0 0
M  V30 8 C -5.4705 -0.6091 0.0 0
M  V30 9 C -5.4705 1.8275 0.0 0
M  V30 10 C -7.03 -0.4873 0.0 0
M  V30 11 C -7.03 1.9494 0.0 0
M  V30 12 C -7.8341 0.8528 0.0 0
M  V30 13 N -9.3937 0.9747 0.0 0
M  V30 END ATOM
M  V30 BEGIN BOND
M  V30 1 1 1 2
M  V30 2 1 1 3
M  V30 3 1 2 4
M  V30 4 1 3 5
M  V30 5 1 4 6
M  V30 6 1 6 7
M  V30 7 2 7 8
M  V30 8 1 7 9
M  V30 9 1 8 10
M  V30 10 2 9 11
M  V30 11 2 10 12
M  V30 12 1 12 13
M  V30 13 1 5 6
M  V30 14 1 11 12
M  V30 END BOND
M  V30 END CTAB
M  END
>  <Dotmatics_CR>
R-002600

>  <CR_Set>
Amine

>  <Category>
Primary Amines Aromatic

>  <Reaction type>
Amidation

>  <KI/BB_Nature>
Acid

>  <Comments>


>  <Salt>


>  <CR_Chiral_Form>


>  <Prod_total_used>
1

>  <PSR (%)>
100

>  <Article>
4-morpholinoaniline

>  <CAS>
2524-67-6

>  <Density>


>  <Prod_reagent_number>


>  <Stereocenters>
0

>  <NB_Name reaction - KI/BB – Capping>
04-Amidation_Acid_Amine

$$$$
R-002631
Actelion Java MolfileCreator 2.0

  0  0  0  0  0  0              0 V3000
M  V30 BEGIN CTAB
M  V30 COUNTS 7 6 0 0 0
M  V30 BEGIN ATOM
M  V30 1 N 0.0 0.0 0.0 0
M  V30 2 C 1.2454 0.1174 0.0 0
M  V30 3 C -1.4569 -0.8459 0.0 0
M  V30 4 C -1.0809 1.4217 0.0 0
M  V30 5 C 1.3982 -1.0692 0.0 0
M  V30 6 N 2.8786 -0.9517 0.0 0
M  V30 7 C 4.0536 -2.0327 0.0 0
M  V30 END ATOM
M  V30 BEGIN BOND
M  V30 1 1 1 2
M  V30 2 1 1 3
M  V30 3 1 1 4
M  V30 4 1 2 5
M  V30 5 1 5 6
M  V30 6 1 6 7
M  V30 END BOND
M  V30 END CTAB
M  END
>  <Dotmatics_CR>
R-002631

>  <CR_Set>
Amine

>  <Category>
Secondary Amines Non-Aromatic

>  <Reaction type>
Amidation

>  <KI/BB_Nature>
Acid

>  <Comments>


>  <Salt>


>  <CR_Chiral_Form>


>  <Prod_total_used>
43

>  <PSR (%)>
70

>  <Article>
N,N,N'-TRIMETHYL ETHYLENE DIAMINE

>  <CAS>
142-25-6

>  <Density>
0.786

>  <Prod_reagent_number>


>  <Stereocenters>
0

>  <NB_Name reaction - KI/BB – Capping>
04-Amidation_Acid_Amine

$$$$
R-002716
Actelion Java MolfileCreator 2.0

  0  0  0  0  0  0              0 V3000
M  V30 BEGIN CTAB
M  V30 COUNTS 6 5 0 0 0
M  V30 BEGIN ATOM
M  V30 1 O 0.0 0.0 0.0 0
M  V30 2 C 1.2359 0.8468 0.0 0
M  V30 3 C -1.4648 0.8468 0.0 0
M  V30 4 C 2.4719 0.1831 0.0 0
M  V30 5 C 3.7079 1.0299 0.0 0
M  V30 6 N 4.9439 0.3547 0.0 0
M  V30 END ATOM
M  V30 BEGIN BOND
M  V30 1 1 1 2
M  V30 2 1 1 3
M  V30 3 1 2 4
M  V30 4 1 4 5
M  V30 5 1 5 6
M  V30 END BOND
M  V30 END CTAB
M  END
>  <Dotmatics_CR>
R-002716

>  <CR_Set>
Amine

>  <Category>
Primary Amines Non-Aromatic

>  <Reaction type>
Amidation

>  <KI/BB_Nature>
Acid

>  <Comments>


>  <Salt>


>  <CR_Chiral_Form>


>  <Prod_total_used>
32

>  <PSR (%)>
78

>  <Article>
3-methoxypropan-1-amine

>  <CAS>
5332-73-0

>  <Density>
0.874

>  <Prod_reagent_number>


>  <Stereocenters>
0

>  <NB_Name reaction - KI/BB – Capping>
04-Amidation_Acid_Amine

$$$$
R-002752
Actelion Java MolfileCreator 2.0

  0  0  0  0  0  0              0 V3000
M  V30 BEGIN CTAB
M  V30 COUNTS 5 4 0 0 0
M  V30 BEGIN ATOM
M  V30 1 N 0.0 0.0 0.0 0
M  V30 2 C -1.4159 -0.6355 0.0 0
M  V30 3 C 1.1929 -0.6355 0.0 0
M  V30 4 C -2.843 0.1783 0.0 0
M  V30 5 C 2.397 0.1783 0.0 0
M  V30 END ATOM
M  V30 BEGIN BOND
M  V30 1 1 1 2
M  V30 2 1 1 3
M  V30 3 1 2 4
M  V30 4 1 3 5
M  V30 END BOND
M  V30 END CTAB
M  END
>  <Dotmatics_CR>
R-002752

>  <CR_Set>
Amine

>  <Category>
Secondary Amines Non-Aromatic

>  <Reaction type>
Amidation

>  <KI/BB_Nature>
Acid

>  <Comments>


>  <Salt>


>  <CR_Chiral_Form>


>  <Prod_total_used>
12

>  <PSR (%)>
83

>  <Article>
DIETHYLAMINE ( Redistilled)

>  <CAS>
109-89-7

>  <Density>
0.707

>  <Prod_reagent_number>


>  <Stereocenters>
0

>  <NB_Name reaction - KI/BB – Capping>
04-Amidation_Acid_Amine

$$$$
R-002754
Actelion Java MolfileCreator 2.0

  0  0  0  0  0  0              0 V3000
M  V30 BEGIN CTAB
M  V30 COUNTS 8 8 0 0 0
M  V30 BEGIN ATOM
M  V30 1 N 0.0 0.0 0.0 0
M  V30 2 C -1.3703 0.8672 0.0 0
M  V30 3 C -2.7407 0.2997 0.0 0
M  V30 4 C -2.8478 -1.0385 0.0 0
M  V30 5 C -4.1111 1.1669 0.0 0
M  V30 6 C -4.2182 -1.6059 0.0 0
M  V30 7 C -5.4815 0.5995 0.0 0
M  V30 8 C -5.5886 -0.7387 0.0 0
M  V30 END ATOM
M  V30 BEGIN BOND
M  V30 1 1 1 2
M  V30 2 1 2 3
M  V30 3 1 3 4
M  V30 4 1 3 5
M  V30 5 1 4 6
M  V30 6 1 5 7
M  V30 7 1 6 8
M  V30 8 1 7 8
M  V30 END BOND
M  V30 END CTAB
M  END
>  <Dotmatics_CR>
R-002754

>  <CR_Set>
Amine

>  <Category>
Primary Amines Non-Aromatic

>  <Reaction type>
Amidation

>  <KI/BB_Nature>
Acid

>  <Comments>


>  <Salt>


>  <CR_Chiral_Form>


>  <Prod_total_used>
11

>  <PSR (%)>
82

>  <Article>
cyclohexylmethanamine

>  <CAS>
3218-02-8

>  <Density>
0.87

>  <Prod_reagent_number>


>  <Stereocenters>
0

>  <NB_Name reaction - KI/BB – Capping>
04-Amidation_Acid_Amine

$$$$
R-002761
Actelion Java MolfileCreator 2.0

  0  0  0  0  0  0              0 V3000
M  V30 BEGIN CTAB
M  V30 COUNTS 9 9 0 0 0
M  V30 BEGIN ATOM
M  V30 1 O 0.0 0.0 0.0 0
M  V30 2 C 0.5741 1.4999 0.0 0
M  V30 3 C 0.6093 -1.2186 0.0 0
M  V30 4 C 2.0506 1.617 0.0 0
M  V30 5 C 2.0857 -1.1014 0.0 0
M  V30 6 N 2.7185 0.3515 0.0 0
M  V30 7 C 4.1833 0.457 0.0 0
M  V30 8 C 4.816 1.9451 0.0 0
M  V30 9 N 6.2808 2.0389 0.0 0
M  V30 END ATOM
M  V30 BEGIN BOND
M  V30 1 1 1 2
M  V30 2 1 1 3
M  V30 3 1 2 4
M  V30 4 1 3 5
M  V30 5 1 4 6
M  V30 6 1 6 7
M  V30 7 1 7 8
M  V30 8 1 8 9
M  V30 9 1 5 6
M  V30 END BOND
M  V30 END CTAB
M  END
>  <Dotmatics_CR>
R-002761

>  <CR_Set>
Amine

>  <Category>
Primary Amines Non-Aromatic

>  <Reaction type>
Amidation

>  <KI/BB_Nature>
Acid

>  <Comments>


>  <Salt>


>  <CR_Chiral_Form>


>  <Prod_total_used>
6

>  <PSR (%)>
67

>  <Article>
4-(2-AMINOETHYL)MORPHOLINE

>  <CAS>
2038-03-1

>  <Density>
0.992

>  <Prod_reagent_number>


>  <Stereocenters>
0

>  <NB_Name reaction - KI/BB – Capping>
04-Amidation_Acid_Amine

$$$$
R-002774
Actelion Java MolfileCreator 2.0

  0  0  0  0  0  0              0 V3000
M  V30 BEGIN CTAB
M  V30 COUNTS 9 9 0 0 0
M  V30 BEGIN ATOM
M  V30 1 O 0.0 0.0 0.0 0
M  V30 2 C 1.2643 -0.5908 0.0 0
M  V30 3 N 2.5286 0.2717 0.0 0
M  V30 4 C 1.1461 -2.0559 0.0 0
M  V30 5 C 2.4222 -2.6822 0.0 0
M  V30 6 C -0.3662 -2.6822 0.0 0
M  V30 7 C 2.3041 -4.171 0.0 0
M  V30 8 C -0.4844 -4.171 0.0 0
M  V30 9 N 0.7916 -4.7973 0.0 0
M  V30 END ATOM
M  V30 BEGIN BOND
M  V30 1 2 1 2
M  V30 2 1 2 3
M  V30 3 1 2 4
M  V30 4 1 4 5
M  V30 5 1 4 6
M  V30 6 1 5 7
M  V30 7 1 6 8
M  V30 8 1 7 9
M  V30 9 1 8 9
M  V30 END BOND
M  V30 END CTAB
M  END
>  <Dotmatics_CR>
R-002774

>  <CR_Set>
Amine

>  <Category>
Secondary Amines Non-Aromatic

>  <Reaction type>
Amidation

>  <KI/BB_Nature>
Acid

>  <Comments>


>  <Salt>


>  <CR_Chiral_Form>


>  <Prod_total_used>
33

>  <PSR (%)>
85

>  <Article>
piperidine-4-carboxamide

>  <CAS>
39546-32-2

>  <Density>
1.0

>  <Prod_reagent_number>


>  <Stereocenters>
0

>  <NB_Name reaction - KI/BB – Capping>
04-Amidation_Acid_Amine

$$$$
R-002810
Actelion Java MolfileCreator 2.0

  0  0  0  0  0  0              0 V3000
M  V30 BEGIN CTAB
M  V30 COUNTS 12 12 0 0 0
M  V30 BEGIN ATOM
M  V30 1 F 0.0 0.0 0.0 0
M  V30 2 C -1.3801 0.8082 0.0 0
M  V30 3 F -2.7603 0.1367 0.0 0
M  V30 4 F -0.2486 1.6164 0.0 0
M  V30 5 C -1.5045 2.3997 0.0 0
M  V30 6 C -0.373 3.2079 0.0 0
M  V30 7 C -2.8846 3.2079 0.0 0
M  V30 8 C -0.4973 4.7995 0.0 0
M  V30 9 C -3.009 4.7995 0.0 0
M  V30 10 C -1.8775 5.6077 0.0 0
M  V30 11 C 0.6341 5.6077 0.0 0
M  V30 12 N 1.7656 4.9363 0.0 0
M  V30 END ATOM
M  V30 BEGIN BOND
M  V30 1 1 1 2
M  V30 2 1 2 3
M  V30 3 1 2 4
M  V30 4 1 2 5
M  V30 5 2 5 6
M  V30 6 1 5 7
M  V30 7 1 6 8
M  V30 8 2 7 9
M  V30 9 2 8 10
M  V30 10 1 8 11
M  V30 11 1 11 12
M  V30 12 1 9 10
M  V30 END BOND
M  V30 END CTAB
M  END
>  <Dotmatics_CR>
R-002810

>  <CR_Set>
Amine

>  <Category>
Primary Amines Non-Aromatic

>  <Reaction type>
Amidation

>  <KI/BB_Nature>
Acid

>  <Comments>


>  <Salt>


>  <CR_Chiral_Form>


>  <Prod_total_used>
4

>  <PSR (%)>
100

>  <Article>
3-TRIFLUOROMETHYL BENZYLAMINE

>  <CAS>
2740-83-2

>  <Density>
1.222

>  <Prod_reagent_number>


>  <Stereocenters>
0

>  <NB_Name reaction - KI/BB – Capping>
04-Amidation_Acid_Amine

$$$$
R-002865
Actelion Java MolfileCreator 2.0

  0  0  0  0  0  0              0 V3000
M  V30 BEGIN CTAB
M  V30 COUNTS 6 5 0 0 0
M  V30 BEGIN ATOM
M  V30 1 O 0.0 0.0 0.0 0
M  V30 2 C -1.324 0.7654 0.0 0
M  V30 3 C -2.6481 0.1551 0.0 0
M  V30 4 C -3.9722 0.9206 0.0 0
M  V30 5 C -5.2963 0.3206 0.0 0
M  V30 6 N -6.6204 1.0861 0.0 0
M  V30 END ATOM
M  V30 BEGIN BOND
M  V30 1 1 1 2
M  V30 2 1 2 3
M  V30 3 1 3 4
M  V30 4 1 4 5
M  V30 5 1 5 6
M  V30 END BOND
M  V30 END CTAB
M  END
>  <Dotmatics_CR>
R-002865

>  <CR_Set>
Amine

>  <Category>
Primary Amines Non-Aromatic

>  <Reaction type>
Amidation

>  <KI/BB_Nature>
Acid

>  <Comments>


>  <Salt>


>  <CR_Chiral_Form>


>  <Prod_total_used>
41

>  <PSR (%)>
66

>  <Article>
4-AMINO-1-BUTANOL

>  <CAS>
13325-10-5

>  <Density>
0.967

>  <Prod_reagent_number>


>  <Stereocenters>
0

>  <NB_Name reaction - KI/BB – Capping>
04-Amidation_Acid_Amine

$$$$
R-002931
Actelion Java MolfileCreator 2.0

  0  0  0  0  0  0              0 V3000
M  V30 BEGIN CTAB
M  V30 COUNTS 9 8 0 0 0
M  V30 BEGIN ATOM
M  V30 1 N 0.0 0.0 0.0 0
M  V30 2 C 1.3572 0.1094 0.0 0
M  V30 3 C -0.8866 1.401 0.0 0
M  V30 4 C -0.9084 -1.1711 0.0 0
M  V30 5 C 1.9373 1.4557 0.0 0
M  V30 6 C 3.1195 0.7771 0.0 0
M  V30 7 C 0.5691 2.3533 0.0 0
M  V30 8 C 2.6269 2.8568 0.0 0
M  V30 9 N 4.3016 1.6527 0.0 0
M  V30 END ATOM
M  V30 BEGIN BOND
M  V30 1 1 1 2
M  V30 2 1 1 3
M  V30 3 1 1 4
M  V30 4 1 2 5
M  V30 5 1 5 6
M  V30 6 1 5 7
M  V30 7 1 5 8
M  V30 8 1 6 9
M  V30 END BOND
M  V30 END CTAB
M  END
>  <Dotmatics_CR>
R-002931

>  <CR_Set>
Amine

>  <Category>
Primary Amines Non-Aromatic

>  <Reaction type>
Amidation

>  <KI/BB_Nature>
Acid

>  <Comments>


>  <Salt>


>  <CR_Chiral_Form>


>  <Prod_total_used>
28

>  <PSR (%)>
71

>  <Article>
N,N,2,2-TETRAMETHYL-1,3-PROPANEDIAMINE

>  <CAS>
53369-71-4

>  <Density>
0.818

>  <Prod_reagent_number>


>  <Stereocenters>
0

>  <NB_Name reaction - KI/BB – Capping>
04-Amidation_Acid_Amine

$$$$
R-002932
Actelion Java MolfileCreator 2.0

  0  0  0  0  0  0              0 V3000
M  V30 BEGIN CTAB
M  V30 COUNTS 6 5 0 0 0
M  V30 BEGIN ATOM
M  V30 1 N 0.0 0.0 0.0 0
M  V30 2 C 1.3248 0.6403 0.0 0
M  V30 3 C -0.3091 -1.391 0.0 0
M  V30 4 C -1.3469 1.0929 0.0 0
M  V30 5 C 2.4399 -0.2097 0.0 0
M  V30 6 N 3.7647 0.4195 0.0 0
M  V30 END ATOM
M  V30 BEGIN BOND
M  V30 1 1 1 2
M  V30 2 1 1 3
M  V30 3 1 1 4
M  V30 4 1 2 5
M  V30 5 1 5 6
M  V30 END BOND
M  V30 END CTAB
M  END
>  <Dotmatics_CR>
R-002932

>  <CR_Set>
Amine

>  <Category>
Primary Amines Non-Aromatic

>  <Reaction type>
Amidation

>  <KI/BB_Nature>
Acid

>  <Comments>


>  <Salt>


>  <CR_Chiral_Form>


>  <Prod_total_used>
32

>  <PSR (%)>
84

>  <Article>
N,N-DIMETHYLETHYLENEDIAMINE

>  <CAS>
108-00-9

>  <Density>
0.807

>  <Prod_reagent_number>


>  <Stereocenters>
0

>  <NB_Name reaction - KI/BB – Capping>
04-Amidation_Acid_Amine

$$$$
R-003008
Actelion Java MolfileCreator 2.0

  0  0  0  0  0  0              0 V3000
M  V30 BEGIN CTAB
M  V30 COUNTS 8 8 0 0 0
M  V30 BEGIN ATOM
M  V30 1 O 0.0 0.0 0.0 0
M  V30 2 C -1.5378 -0.841 0.0 0
M  V30 3 C -1.6219 -2.1266 0.0 0
M  V30 4 C -3.0997 -2.8234 0.0 0
M  V30 5 C -0.3844 -2.8234 0.0 0
M  V30 6 C -3.2199 -4.2652 0.0 0
M  V30 7 C -0.5046 -4.2652 0.0 0
M  V30 8 N -1.9824 -4.914 0.0 0
M  V30 END ATOM
M  V30 BEGIN BOND
M  V30 1 1 1 2
M  V30 2 1 2 3
M  V30 3 1 3 4
M  V30 4 1 3 5
M  V30 5 1 4 6
M  V30 6 1 5 7
M  V30 7 1 6 8
M  V30 8 1 7 8
M  V30 END BOND
M  V30 END CTAB
M  END
>  <Dotmatics_CR>
R-003008

>  <CR_Set>
Amine

>  <Category>
Secondary Amines Non-Aromatic

>  <Reaction type>
Amidation

>  <KI/BB_Nature>
Acid

>  <Comments>


>  <Salt>


>  <CR_Chiral_Form>


>  <Prod_total_used>
41

>  <PSR (%)>
83

>  <Article>
4-PIPERIDINEMETHANOL

>  <CAS>
6457-49-4

>  <Density>
1.0

>  <Prod_reagent_number>


>  <Stereocenters>
0

>  <NB_Name reaction - KI/BB – Capping>
04-Amidation_Acid_Amine

$$$$
R-003033
Actelion Java MolfileCreator 2.0

  0  0  0  0  0  0              0 V3000
M  V30 BEGIN CTAB
M  V30 COUNTS 12 12 0 0 0
M  V30 BEGIN ATOM
M  V30 1 F 0.0 0.0 0.0 0
M  V30 2 C -1.395 -0.5667 0.0 0
M  V30 3 C -2.7683 0.3051 0.0 0
M  V30 4 C -1.504 -1.8745 0.0 0
M  V30 5 C -4.1197 -0.2724 0.0 0
M  V30 6 C -2.8772 -2.4631 0.0 0
M  V30 7 C -4.2287 -1.6021 0.0 0
M  V30 8 C -5.591 -2.1906 0.0 0
M  V30 9 C -6.9534 -1.3405 0.0 0
M  V30 10 N -8.3375 -0.4795 0.0 0
M  V30 11 C -6.3649 0.0326 0.0 0
M  V30 12 C -7.8144 -2.4958 0.0 0
M  V30 END ATOM
M  V30 BEGIN BOND
M  V30 1 1 1 2
M  V30 2 2 2 3
M  V30 3 1 2 4
M  V30 4 1 3 5
M  V30 5 2 4 6
M  V30 6 2 5 7
M  V30 7 1 7 8
M  V30 8 1 8 9
M  V30 9 1 9 10
M  V30 10 1 9 11
M  V30 11 1 9 12
M  V30 12 1 6 7
M  V30 END BOND
M  V30 END CTAB
M  END
>  <Dotmatics_CR>
R-003033

>  <CR_Set>
Amine

>  <Category>
Primary Amines Non-Aromatic

>  <Reaction type>
Amidation

>  <KI/BB_Nature>
Acid

>  <Comments>


>  <Salt>


>  <CR_Chiral_Form>


>  <Prod_total_used>
2

>  <PSR (%)>
100

>  <Article>
1-(4-FLUOROPHENYL)-2-METHYL-2-PROPYLAMINE

>  <CAS>
1200-27-7

>  <Density>


>  <Prod_reagent_number>


>  <Stereocenters>
0

>  <NB_Name reaction - KI/BB – Capping>
04-Amidation_Acid_Amine

$$$$
R-003079
Actelion Java MolfileCreator 2.0

  0  0  0  0  0  0              0 V3000
M  V30 BEGIN CTAB
M  V30 COUNTS 6 5 0 0 0
M  V30 BEGIN ATOM
M  V30 1 N 0.0 0.0 0.0 0
M  V30 2 C -0.1158 -1.4485 0.0 0
M  V30 3 C -1.5876 -2.0627 0.0 0
M  V30 4 C -1.7035 -3.5113 0.0 0
M  V30 5 C -3.1868 -4.137 0.0 0
M  V30 6 C -0.4635 -4.137 0.0 0
M  V30 END ATOM
M  V30 BEGIN BOND
M  V30 1 1 1 2
M  V30 2 1 2 3
M  V30 3 1 3 4
M  V30 4 1 4 5
M  V30 5 1 4 6
M  V30 END BOND
M  V30 END CTAB
M  END
>  <Dotmatics_CR>
R-003079

>  <CR_Set>
Amine

>  <Category>
Primary Amines Non-Aromatic

>  <Reaction type>
Amidation

>  <KI/BB_Nature>
Acid

>  <Comments>


>  <Salt>


>  <CR_Chiral_Form>


>  <Prod_total_used>
16

>  <PSR (%)>
88

>  <Article>
ISOPENTYLAMINE

>  <CAS>
107-85-7

>  <Density>
0.751

>  <Prod_reagent_number>


>  <Stereocenters>
0

>  <NB_Name reaction - KI/BB – Capping>
04-Amidation_Acid_Amine

$$$$
R-003100
Actelion Java MolfileCreator 2.0

  0  0  0  0  0  0              0 V3000
M  V30 BEGIN CTAB
M  V30 COUNTS 11 11 0 0 0
M  V30 BEGIN ATOM
M  V30 1 Cl 0.0 0.0 0.0 0
M  V30 2 C -1.3896 -0.6575 0.0 0
M  V30 3 C -2.7792 0.1612 0.0 0
M  V30 4 C -1.5137 -2.0224 0.0 0
M  V30 5 C -4.1813 -0.4962 0.0 0
M  V30 6 C -2.9033 1.7494 0.0 0
M  V30 7 C -2.9033 -2.68 0.0 0
M  V30 8 C -4.3053 -1.8611 0.0 0
M  V30 9 C -1.799 2.5559 0.0 0
M  V30 10 Cl -3.0274 -4.02 0.0 0
M  V30 11 N -1.9231 4.144 0.0 0
M  V30 END ATOM
M  V30 BEGIN BOND
M  V30 1 1 1 2
M  V30 2 2 2 3
M  V30 3 1 2 4
M  V30 4 1 3 5
M  V30 5 1 3 6
M  V30 6 2 4 7
M  V30 7 2 5 8
M  V30 8 1 6 9
M  V30 9 1 7 10
M  V30 10 1 9 11
M  V30 11 1 7 8
M  V30 END BOND
M  V30 END CTAB
M  END
>  <Dotmatics_CR>
R-003100

>  <CR_Set>
Amine

>  <Category>
Primary Amines Non-Aromatic

>  <Reaction type>
Amidation

>  <KI/BB_Nature>
Acid

>  <Comments>


>  <Salt>


>  <CR_Chiral_Form>


>  <Prod_total_used>
3

>  <PSR (%)>
100

>  <Article>
2,4-DICHLOROPHENETHYLAMINE

>  <CAS>
52516-13-9

>  <Density>
1.26

>  <Prod_reagent_number>


>  <Stereocenters>
0

>  <NB_Name reaction - KI/BB – Capping>
04-Amidation_Acid_Amine

$$$$
R-003103
Actelion Java MolfileCreator 2.0

  0  0  0  0  0  0              0 V3000
M  V30 BEGIN CTAB
M  V30 COUNTS 11 11 0 0 0
M  V30 BEGIN ATOM
M  V30 1 Cl 0.0 0.0 0.0 0
M  V30 2 N 1.6343 1.9975 0.0 0
M  V30 3 C 3.0644 2.111 0.0 0
M  V30 4 C 3.9042 0.9647 0.0 0
M  V30 5 C 3.9042 3.4956 0.0 0
M  V30 6 C 5.2435 1.5322 0.0 0
M  V30 7 C 5.2435 3.1779 0.0 0
M  V30 8 C 6.492 0.9079 0.0 0
M  V30 9 C 6.492 4.0972 0.0 0
M  V30 10 C 7.7404 1.8499 0.0 0
M  V30 11 C 7.7404 3.507 0.0 0
M  V30 END ATOM
M  V30 BEGIN BOND
M  V30 1 1 2 3
M  V30 2 1 3 4
M  V30 3 1 3 5
M  V30 4 1 4 6
M  V30 5 1 5 7
M  V30 6 1 6 8
M  V30 7 1 7 9
M  V30 8 2 8 10
M  V30 9 2 9 11
M  V30 10 2 6 7
M  V30 11 1 10 11
M  V30 END BOND
M  V30 END CTAB
M  END
>  <Dotmatics_CR>
R-003103

>  <CR_Set>
Amine

>  <Category>
Primary Amines Non-Aromatic

>  <Reaction type>
Amidation

>  <KI/BB_Nature>
Acid

>  <Comments>


>  <Salt>
HCl

>  <CR_Chiral_Form>


>  <Prod_total_used>
1

>  <PSR (%)>
100

>  <Article>
2-AMINOINDANE HYDROCHLORIDE

>  <CAS>
2338-18-3

>  <Density>


>  <Prod_reagent_number>


>  <Stereocenters>
0

>  <NB_Name reaction - KI/BB – Capping>
04-Amidation_Acid_Amine

$$$$
R-003198
Actelion Java MolfileCreator 2.0

  0  0  0  0  0  0              0 V3000
M  V30 BEGIN CTAB
M  V30 COUNTS 12 13 0 0 0
M  V30 BEGIN ATOM
M  V30 1 N 0.0 0.0 0.0 0
M  V30 2 C -0.8413 -1.1778 0.0 0
M  V30 3 C 1.3849 0.1294 0.0 0
M  V30 4 N -0.1423 -2.3298 0.0 0
M  V30 5 N -2.4722 -1.0484 0.0 0
M  V30 6 C 2.0709 -1.0484 0.0 0
M  V30 7 C 1.2425 -2.2003 0.0 0
M  V30 8 C -3.3135 0.3883 0.0 0
M  V30 9 C -3.3135 -2.2003 0.0 0
M  V30 10 C -4.9702 0.5177 0.0 0
M  V30 11 C -4.9702 -2.0709 0.0 0
M  V30 12 N -5.8116 -0.6601 0.0 0
M  V30 END ATOM
M  V30 BEGIN BOND
M  V30 1 2 1 2
M  V30 2 1 1 3
M  V30 3 1 2 4
M  V30 4 1 2 5
M  V30 5 2 3 6
M  V30 6 2 4 7
M  V30 7 1 5 8
M  V30 8 1 5 9
M  V30 9 1 8 10
M  V30 10 1 9 11
M  V30 11 1 10 12
M  V30 12 1 6 7
M  V30 13 1 11 12
M  V30 END BOND
M  V30 END CTAB
M  END
>  <Dotmatics_CR>
R-003198

>  <CR_Set>
Amine

>  <Category>
Secondary Amines Non-Aromatic

>  <Reaction type>
Amidation

>  <KI/BB_Nature>
Acid

>  <Comments>


>  <Salt>


>  <CR_Chiral_Form>


>  <Prod_total_used>
32

>  <PSR (%)>
75

>  <Article>
1-(2-PYRIMIDYL)-PIPERAZINE

>  <CAS>
20980-22-7

>  <Density>
1.158

>  <Prod_reagent_number>


>  <Stereocenters>
0

>  <NB_Name reaction - KI/BB – Capping>
04-Amidation_Acid_Amine

$$$$
R-003279
Actelion Java MolfileCreator 2.0

  0  0  0  0  0  0              0 V3000
M  V30 BEGIN CTAB
M  V30 COUNTS 9 9 0 0 0
M  V30 BEGIN ATOM
M  V30 1 N 0.0 0.0 0.0 0
M  V30 2 C -1.1734 -0.9566 0.0 0
M  V30 3 C 1.3775 -0.2678 0.0 0
M  V30 4 C -0.829 -2.2958 0.0 0
M  V30 5 C -2.7805 -0.4336 0.0 0
M  V30 6 C 1.7218 -1.607 0.0 0
M  V30 7 C 0.5484 -2.5509 0.0 0
M  V30 8 C -3.9539 -1.3775 0.0 0
M  V30 9 N -5.5865 -0.8545 0.0 0
M  V30 END ATOM
M  V30 BEGIN BOND
M  V30 1 2 1 2
M  V30 2 1 1 3
M  V30 3 1 2 4
M  V30 4 1 2 5
M  V30 5 2 3 6
M  V30 6 2 4 7
M  V30 7 1 5 8
M  V30 8 1 8 9
M  V30 9 1 6 7
M  V30 END BOND
M  V30 END CTAB
M  END
>  <Dotmatics_CR>
R-003279

>  <CR_Set>
Amine

>  <Category>
Primary Amines Non-Aromatic

>  <Reaction type>
Amidation

>  <KI/BB_Nature>
Acid

>  <Comments>


>  <Salt>


>  <CR_Chiral_Form>


>  <Prod_total_used>
20

>  <PSR (%)>
95

>  <Article>
2-(2-pyridyl)ethanamine

>  <CAS>
2706-56-1

>  <Density>
1.021

>  <Prod_reagent_number>


>  <Stereocenters>
0

>  <NB_Name reaction - KI/BB – Capping>
04-Amidation_Acid_Amine

$$$$
R-003287
Actelion Java MolfileCreator 2.0

  0  0  0  0  0  0              0 V3000
M  V30 BEGIN CTAB
M  V30 COUNTS 13 13 0 0 0
M  V30 BEGIN ATOM
M  V30 1 F 0.0 0.0 0.0 0
M  V30 2 C -0.8038 -1.1205 0.0 0
M  V30 3 F -1.6198 -2.241 0.0 0
M  V30 4 F 0.3166 -1.7903 0.0 0
M  V30 5 C -2.1801 -0.3166 0.0 0
M  V30 6 C -3.5198 -0.9621 0.0 0
M  V30 7 C -2.3019 1.2423 0.0 0
M  V30 8 C -4.8717 -0.1583 0.0 0
M  V30 9 C -3.6416 2.0461 0.0 0
M  V30 10 C -4.9935 1.3762 0.0 0
M  V30 11 C -6.2602 -0.7794 0.0 0
M  V30 12 C -7.6 0.0487 0.0 0
M  V30 13 N -8.9762 -0.5602 0.0 0
M  V30 END ATOM
M  V30 BEGIN BOND
M  V30 1 1 1 2
M  V30 2 1 2 3
M  V30 3 1 2 4
M  V30 4 1 2 5
M  V30 5 2 5 6
M  V30 6 1 5 7
M  V30 7 1 6 8
M  V30 8 2 7 9
M  V30 9 2 8 10
M  V30 10 1 8 11
M  V30 11 1 11 12
M  V30 12 1 12 13
M  V30 13 1 9 10
M  V30 END BOND
M  V30 END CTAB
M  END
>  <Dotmatics_CR>
R-003287

>  <CR_Set>
Amine

>  <Category>
Primary Amines Non-Aromatic

>  <Reaction type>
Amidation

>  <KI/BB_Nature>
Acid

>  <Comments>


>  <Salt>


>  <CR_Chiral_Form>


>  <Prod_total_used>
3

>  <PSR (%)>
100

>  <Article>
2-(3-TRIFLUOROMETHYLPHENYL)ETHYLAMINE

>  <CAS>
52516-30-0

>  <Density>


>  <Prod_reagent_number>


>  <Stereocenters>
0

>  <NB_Name reaction - KI/BB – Capping>
04-Amidation_Acid_Amine

$$$$
R-003311
Actelion Java MolfileCreator 2.0

  0  0  0  0  0  0              0 V3000
M  V30 BEGIN CTAB
M  V30 COUNTS 6 5 0 0 0
M  V30 BEGIN ATOM
M  V30 1 N 0.0 0.0 0.0 0
M  V30 2 C -0.7941 1.3073 0.0 0
M  V30 3 C -2.3336 1.4295 0.0 0
M  V30 4 C -3.8853 1.5516 0.0 0
M  V30 5 C -2.4558 0.1343 0.0 0
M  V30 6 C -2.4558 2.9934 0.0 0
M  V30 END ATOM
M  V30 BEGIN BOND
M  V30 1 1 1 2
M  V30 2 1 2 3
M  V30 3 1 3 4
M  V30 4 1 3 5
M  V30 5 1 3 6
M  V30 END BOND
M  V30 END CTAB
M  END
>  <Dotmatics_CR>
R-003311

>  <CR_Set>
Amine

>  <Category>
Primary Amines Non-Aromatic

>  <Reaction type>
Amidation

>  <KI/BB_Nature>
Acid

>  <Comments>


>  <Salt>


>  <CR_Chiral_Form>


>  <Prod_total_used>
10

>  <PSR (%)>
80

>  <Article>
2,2-dimethylpropan-1-amine

>  <CAS>
5813-64-9

>  <Density>


>  <Prod_reagent_number>


>  <Stereocenters>
0

>  <NB_Name reaction - KI/BB – Capping>
04-Amidation_Acid_Amine

$$$$
R-003437
Actelion Java MolfileCreator 2.0

  0  0  0  0  0  0              0 V3000
M  V30 BEGIN CTAB
M  V30 COUNTS 8 8 0 0 0
M  V30 BEGIN ATOM
M  V30 1 O 0.0 0.0 0.0 0
M  V30 2 C 1.0792 0.9055 0.0 0
M  V30 3 C -1.3272 1.0295 0.0 0
M  V30 4 C 0.4713 2.4933 0.0 0
M  V30 5 C 2.332 0.4589 0.0 0
M  V30 6 C -0.8807 2.4809 0.0 0
M  V30 7 C -2.9026 0.8187 0.0 0
M  V30 8 N 3.3244 1.4761 0.0 0
M  V30 END ATOM
M  V30 BEGIN BOND
M  V30 1 1 1 2
M  V30 2 1 1 3
M  V30 3 2 2 4
M  V30 4 1 2 5
M  V30 5 2 3 6
M  V30 6 1 3 7
M  V30 7 1 5 8
M  V30 8 1 4 6
M  V30 END BOND
M  V30 END CTAB
M  END
>  <Dotmatics_CR>
R-003437

>  <CR_Set>
Amine

>  <Category>
Primary Amines Non-Aromatic

>  <Reaction type>
Amidation

>  <KI/BB_Nature>
Acid

>  <Comments>


>  <Salt>


>  <CR_Chiral_Form>


>  <Prod_total_used>
38

>  <PSR (%)>
92

>  <Article>
5-METHYLFURFURYLAMINE

>  <CAS>
14003-16-8

>  <Density>
0.997

>  <Prod_reagent_number>


>  <Stereocenters>
0

>  <NB_Name reaction - KI/BB – Capping>
04-Amidation_Acid_Amine

$$$$
R-003507
Actelion Java MolfileCreator 2.0

  0  0  0  0  0  0              0 V3000
M  V30 BEGIN CTAB
M  V30 COUNTS 9 9 0 0 0
M  V30 BEGIN ATOM
M  V30 1 N 0.0 0.0 0.0 0
M  V30 2 C -1.3905 0.8142 0.0 0
M  V30 3 C 1.14 0.8142 0.0 0
M  V30 4 C -0.1252 -1.3529 0.0 0
M  V30 5 C -1.5158 2.4178 0.0 0
M  V30 6 C 1.0147 2.4178 0.0 0
M  V30 7 C -1.5158 -2.0169 0.0 0
M  V30 8 C -0.3758 3.232 0.0 0
M  V30 9 N -1.641 -3.3698 0.0 0
M  V30 END ATOM
M  V30 BEGIN BOND
M  V30 1 1 1 2
M  V30 2 1 1 3
M  V30 3 1 1 4
M  V30 4 1 2 5
M  V30 5 1 3 6
M  V30 6 1 4 7
M  V30 7 1 5 8
M  V30 8 1 7 9
M  V30 9 1 6 8
M  V30 END BOND
M  V30 END CTAB
M  END
>  <Dotmatics_CR>
R-003507

>  <CR_Set>
Amine

>  <Category>
Primary Amines Non-Aromatic

>  <Reaction type>
Amidation

>  <KI/BB_Nature>
Acid

>  <Comments>


>  <Salt>


>  <CR_Chiral_Form>


>  <Prod_total_used>
15

>  <PSR (%)>
73

>  <Article>
1-(2-AMINOETHYL)-PIPERIDINE

>  <CAS>
27578-60-5

>  <Density>
0.899

>  <Prod_reagent_number>


>  <Stereocenters>
0

>  <NB_Name reaction - KI/BB – Capping>
04-Amidation_Acid_Amine

$$$$
R-003516
Actelion Java MolfileCreator 2.0

  0  0  0  0  0  0              0 V3000
M  V30 BEGIN CTAB
M  V30 COUNTS 5 4 0 0 0
M  V30 BEGIN ATOM
M  V30 1 N 0.0 0.0 0.0 0
M  V30 2 C -1.3633 -0.6509 0.0 0
M  V30 3 C -2.7267 0.1473 0.0 0
M  V30 4 C -1.4862 -1.9775 0.0 0
M  V30 5 C -1.4862 0.9212 0.0 0
M  V30 END ATOM
M  V30 BEGIN BOND
M  V30 1 1 1 2
M  V30 2 1 2 3
M  V30 3 1 2 4
M  V30 4 1 2 5
M  V30 END BOND
M  V30 END CTAB
M  END
>  <Dotmatics_CR>
R-003516

>  <CR_Set>
Amine

>  <Category>
Primary Amines Non-Aromatic

>  <Reaction type>
Amidation

>  <KI/BB_Nature>
Acid

>  <Comments>


>  <Salt>


>  <CR_Chiral_Form>


>  <Prod_total_used>
12

>  <PSR (%)>
67

>  <Article>
2-methylpropan-2-amine

>  <CAS>
75-64-9

>  <Density>
0.696

>  <Prod_reagent_number>


>  <Stereocenters>
0

>  <NB_Name reaction - KI/BB – Capping>
04-Amidation_Acid_Amine

$$$$
R-003552
Actelion Java MolfileCreator 2.0

  0  0  0  0  0  0              0 V3000
M  V30 BEGIN CTAB
M  V30 COUNTS 7 6 0 0 0
M  V30 BEGIN ATOM
M  V30 1 O 0.0 0.0 0.0 0
M  V30 2 C -1.3977 0.7987 0.0 0
M  V30 3 C 1.187 0.7987 0.0 0
M  V30 4 C -2.8177 0.1664 0.0 0
M  V30 5 C 2.3851 0.1664 0.0 0
M  V30 6 N -4.2266 0.9651 0.0 0
M  V30 7 C 3.5721 0.9651 0.0 0
M  V30 END ATOM
M  V30 BEGIN BOND
M  V30 1 1 1 2
M  V30 2 1 1 3
M  V30 3 1 2 4
M  V30 4 1 3 5
M  V30 5 1 4 6
M  V30 6 1 5 7
M  V30 END BOND
M  V30 END CTAB
M  END
>  <Dotmatics_CR>
R-003552

>  <CR_Set>
Amine

>  <Category>
Primary Amines Non-Aromatic

>  <Reaction type>
Amidation

>  <KI/BB_Nature>
Acid

>  <Comments>


>  <Salt>


>  <CR_Chiral_Form>


>  <Prod_total_used>
6

>  <PSR (%)>
100

>  <Article>
2-N-PROPOXYETHYLAMINE

>  <CAS>
42185-03-5

>  <Density>


>  <Prod_reagent_number>


>  <Stereocenters>
0

>  <NB_Name reaction - KI/BB – Capping>
04-Amidation_Acid_Amine

$$$$
R-003711
Actelion Java MolfileCreator 2.0

  0  0  0  0  0  0              0 V3000
M  V30 BEGIN CTAB
M  V30 COUNTS 10 10 0 0 0
M  V30 BEGIN ATOM
M  V30 1 Cl 0.0 0.0 0.0 0
M  V30 2 C -0.7701 1.3718 0.0 0
M  V30 3 C -0.0842 2.6353 0.0 0
M  V30 4 C -2.2863 1.6004 0.0 0
M  V30 5 O 1.2153 2.6594 0.0 0
M  V30 6 C -0.8664 4.0192 0.0 0
M  V30 7 C -3.0685 2.9722 0.0 0
M  V30 8 C 1.9013 3.9349 0.0 0
M  V30 9 C -2.3826 4.2478 0.0 0
M  V30 10 N -4.6088 3.2009 0.0 0
M  V30 END ATOM
M  V30 BEGIN BOND
M  V30 1 1 1 2
M  V30 2 2 2 3
M  V30 3 1 2 4
M  V30 4 1 3 5
M  V30 5 1 3 6
M  V30 6 2 4 7
M  V30 7 1 5 8
M  V30 8 2 6 9
M  V30 9 1 7 10
M  V30 10 1 7 9
M  V30 END BOND
M  V30 END CTAB
M  END
>  <Dotmatics_CR>
R-003711

>  <CR_Set>
Amine

>  <Category>
Primary Amines Aromatic

>  <Reaction type>
Amidation

>  <KI/BB_Nature>
Acid

>  <Comments>


>  <Salt>


>  <CR_Chiral_Form>


>  <Prod_total_used>
1

>  <PSR (%)>
100

>  <Article>
3-CHLORO-P-ANISIDINE

>  <CAS>
5345-54-0

>  <Density>


>  <Prod_reagent_number>


>  <Stereocenters>
0

>  <NB_Name reaction - KI/BB – Capping>
04-Amidation_Acid_Amine

$$$$
R-003718
Actelion Java MolfileCreator 2.0

  0  0  0  0  0  0              0 V3000
M  V30 BEGIN CTAB
M  V30 COUNTS 13 14 0 0 0
M  V30 BEGIN ATOM
M  V30 1 N 0.0 0.0 0.0 0
M  V30 2 C -1.3872 0.8197 0.0 0
M  V30 3 C 1.135 0.8197 0.0 0
M  V30 4 C -1.5133 2.4339 0.0 0
M  V30 5 C 1.0088 2.4339 0.0 0
M  V30 6 C -0.3783 3.2536 0.0 0
M  V30 7 C -0.5044 4.8678 0.0 0
M  V30 8 C 0.6431 5.6876 0.0 0
M  V30 9 C 1.7907 5.0066 0.0 0
M  V30 10 C 0.517 7.2892 0.0 0
M  V30 11 C 2.9383 5.8263 0.0 0
M  V30 12 C 1.652 8.1089 0.0 0
M  V30 13 C 2.8122 7.4405 0.0 0
M  V30 END ATOM
M  V30 BEGIN BOND
M  V30 1 1 1 2
M  V30 2 1 1 3
M  V30 3 1 2 4
M  V30 4 1 3 5
M  V30 5 1 4 6
M  V30 6 1 6 7
M  V30 7 1 7 8
M  V30 8 2 8 9
M  V30 9 1 8 10
M  V30 10 1 9 11
M  V30 11 2 10 12
M  V30 12 2 11 13
M  V30 13 1 5 6
M  V30 14 1 12 13
M  V30 END BOND
M  V30 END CTAB
M  END
>  <Dotmatics_CR>
R-003718

>  <CR_Set>
Amine

>  <Category>
Secondary Amines Non-Aromatic

>  <Reaction type>
Amidation

>  <KI/BB_Nature>
Acid

>  <Comments>


>  <Salt>


>  <CR_Chiral_Form>


>  <Prod_total_used>
4

>  <PSR (%)>
100

>  <Article>
4-BENZYLPIPERIDINE

>  <CAS>
31252-42-3

>  <Density>
0.997

>  <Prod_reagent_number>


>  <Stereocenters>
0

>  <NB_Name reaction - KI/BB – Capping>
04-Amidation_Acid_Amine

$$$$
R-003807
Actelion Java MolfileCreator 2.0

  0  0  0  0  0  0              0 V3000
M  V30 BEGIN CTAB
M  V30 COUNTS 9 9 0 0 0
M  V30 BEGIN ATOM
M  V30 1 O 0.0 0.0 0.0 0
M  V30 2 C -0.1225 1.556 0.0 0
M  V30 3 C 0.9801 2.3524 0.0 0
M  V30 4 N 0.8576 3.9084 0.0 0
M  V30 5 C -0.49 4.7048 0.0 0
M  V30 6 C 1.9726 4.7048 0.0 0
M  V30 7 C -0.6126 6.2731 0.0 0
M  V30 8 C 1.85 6.2731 0.0 0
M  V30 9 N 0.49 7.0695 0.0 0
M  V30 END ATOM
M  V30 BEGIN BOND
M  V30 1 1 1 2
M  V30 2 1 2 3
M  V30 3 1 3 4
M  V30 4 1 4 5
M  V30 5 1 4 6
M  V30 6 1 5 7
M  V30 7 1 6 8
M  V30 8 1 7 9
M  V30 9 1 8 9
M  V30 END BOND
M  V30 END CTAB
M  END
>  <Dotmatics_CR>
R-003807

>  <CR_Set>
Amine

>  <Category>
Secondary Amines Non-Aromatic

>  <Reaction type>
Amidation

>  <KI/BB_Nature>
Acid

>  <Comments>


>  <Salt>


>  <CR_Chiral_Form>


>  <Prod_total_used>
22

>  <PSR (%)>
82

>  <Article>
N-(2- HYDROXYETHYL)- PIPERAZINE

>  <CAS>
103-76-4

>  <Density>
1.061

>  <Prod_reagent_number>


>  <Stereocenters>
0

>  <NB_Name reaction - KI/BB – Capping>
04-Amidation_Acid_Amine

$$$$
R-003810
Actelion Java MolfileCreator 2.0

  0  0  0  0  0  0              0 V3000
M  V30 BEGIN CTAB
M  V30 COUNTS 7 7 0 0 0
M  V30 BEGIN ATOM
M  V30 1 N 0.0 0.0 0.0 0
M  V30 2 C -1.4448 -0.7029 0.0 0
M  V30 3 C 1.1975 -0.7029 0.0 0
M  V30 4 C -0.1301 1.6661 0.0 0
M  V30 5 C -1.575 -2.1217 0.0 0
M  V30 6 C 1.0673 -2.1217 0.0 0
M  V30 7 N -0.3905 -2.8116 0.0 0
M  V30 END ATOM
M  V30 BEGIN BOND
M  V30 1 1 1 2
M  V30 2 1 1 3
M  V30 3 1 1 4
M  V30 4 1 2 5
M  V30 5 1 3 6
M  V30 6 1 5 7
M  V30 7 1 6 7
M  V30 END BOND
M  V30 END CTAB
M  END
>  <Dotmatics_CR>
R-003810

>  <CR_Set>
Amine

>  <Category>
Secondary Amines Non-Aromatic

>  <Reaction type>
Amidation

>  <KI/BB_Nature>
Acid

>  <Comments>


>  <Salt>


>  <CR_Chiral_Form>


>  <Prod_total_used>
8

>  <PSR (%)>
75

>  <Article>
1-methylpiperazine

>  <CAS>
109-01-3

>  <Density>
0.903

>  <Prod_reagent_number>


>  <Stereocenters>
0

>  <NB_Name reaction - KI/BB – Capping>
04-Amidation_Acid_Amine

$$$$
R-003834
Actelion Java MolfileCreator 2.0

  0  0  0  0  0  0              0 V3000
M  V30 BEGIN CTAB
M  V30 COUNTS 5 4 0 0 0
M  V30 BEGIN ATOM
M  V30 1 N 0.0 0.0 0.0 0
M  V30 2 C -1.3515 0.7768 0.0 0
M  V30 3 C 1.1493 0.7768 0.0 0
M  V30 4 C -2.703 0.1596 0.0 0
M  V30 5 C -4.0651 0.9364 0.0 0
M  V30 END ATOM
M  V30 BEGIN BOND
M  V30 1 1 1 2
M  V30 2 1 1 3
M  V30 3 1 2 4
M  V30 4 1 4 5
M  V30 END BOND
M  V30 END CTAB
M  END
>  <Dotmatics_CR>
R-003834

>  <CR_Set>
Amine

>  <Category>
Secondary Amines Non-Aromatic

>  <Reaction type>
Amidation

>  <KI/BB_Nature>
Acid

>  <Comments>


>  <Salt>


>  <CR_Chiral_Form>


>  <Prod_total_used>
12

>  <PSR (%)>
67

>  <Article>
METHYL-N-PROPYLAMINE

>  <CAS>
627-35-0

>  <Density>
0.713

>  <Prod_reagent_number>


>  <Stereocenters>
0

>  <NB_Name reaction - KI/BB – Capping>
04-Amidation_Acid_Amine

$$$$
R-003853
Actelion Java MolfileCreator 2.0

  0  0  0  0  0  0              0 V3000
M  V30 BEGIN CTAB
M  V30 COUNTS 9 9 0 0 0
M  V30 BEGIN ATOM
M  V30 1 N 0.0 0.0 0.0 0
M  V30 2 C 1.1562 0.8258 0.0 0
M  V30 3 C -1.3976 0.8258 0.0 0
M  V30 4 C 1.0291 2.4522 0.0 0
M  V30 5 C -1.5246 2.4522 0.0 0
M  V30 6 C -0.3811 3.278 0.0 0
M  V30 7 C 2.1726 3.278 0.0 0
M  V30 8 N 3.3162 2.6046 0.0 0
M  V30 9 C 4.4597 3.4305 0.0 0
M  V30 END ATOM
M  V30 BEGIN BOND
M  V30 1 2 1 2
M  V30 2 1 1 3
M  V30 3 1 2 4
M  V30 4 2 3 5
M  V30 5 2 4 6
M  V30 6 1 4 7
M  V30 7 1 7 8
M  V30 8 1 8 9
M  V30 9 1 5 6
M  V30 END BOND
M  V30 END CTAB
M  END
>  <Dotmatics_CR>
R-003853

>  <CR_Set>
Amine

>  <Category>
Secondary Amines Non-Aromatic

>  <Reaction type>
Amidation

>  <KI/BB_Nature>
Acid

>  <Comments>


>  <Salt>


>  <CR_Chiral_Form>


>  <Prod_total_used>
29

>  <PSR (%)>
79

>  <Article>
METHYLAMINOMETHYL-3-PYRIDINE

>  <CAS>
20173-04-0

>  <Density>
1.00001

>  <Prod_reagent_number>


>  <Stereocenters>
0

>  <NB_Name reaction - KI/BB – Capping>
04-Amidation_Acid_Amine

$$$$
R-003865
Actelion Java MolfileCreator 2.0

  0  0  0  0  0  0              0 V3000
M  V30 BEGIN CTAB
M  V30 COUNTS 7 7 0 0 0
M  V30 BEGIN ATOM
M  V30 1 S 0.0 0.0 0.0 0
M  V30 2 C -1.298 -0.8399 0.0 0
M  V30 3 C 1.1962 -0.7253 0.0 0
M  V30 4 C -0.789 -2.1379 0.0 0
M  V30 5 C -2.9269 -0.3054 0.0 0
M  V30 6 C 0.6617 -2.0997 0.0 0
M  V30 7 N -4.1104 -1.2598 0.0 0
M  V30 END ATOM
M  V30 BEGIN BOND
M  V30 1 1 1 2
M  V30 2 1 1 3
M  V30 3 2 2 4
M  V30 4 1 2 5
M  V30 5 2 3 6
M  V30 6 1 5 7
M  V30 7 1 4 6
M  V30 END BOND
M  V30 END CTAB
M  END
>  <Dotmatics_CR>
R-003865

>  <CR_Set>
Amine

>  <Category>
Primary Amines Non-Aromatic

>  <Reaction type>
Amidation

>  <KI/BB_Nature>
Acid

>  <Comments>


>  <Salt>


>  <CR_Chiral_Form>


>  <Prod_total_used>
6

>  <PSR (%)>
100

>  <Article>
2-(AMINOMETHYL)THIOPHENE

>  <CAS>
27757-85-3

>  <Density>
1.103

>  <Prod_reagent_number>


>  <Stereocenters>
0

>  <NB_Name reaction - KI/BB – Capping>
04-Amidation_Acid_Amine

$$$$
R-003869
Actelion Java MolfileCreator 2.0

  0  0  0  0  0  0              0 V3000
M  V30 BEGIN CTAB
M  V30 COUNTS 13 13 0 0 0
M  V30 BEGIN ATOM
M  V30 1 F 0.0 0.0 0.0 0
M  V30 2 C -1.314 -0.6027 0.0 0
M  V30 3 F -2.1097 0.7353 0.0 0
M  V30 4 F -0.7112 -1.6877 0.0 0
M  V30 5 O -2.6401 -1.2296 0.0 0
M  V30 6 C -3.9662 -0.4339 0.0 0
M  V30 7 C -4.0867 1.109 0.0 0
M  V30 8 C -5.2923 -1.0849 0.0 0
M  V30 9 C -5.4128 1.9047 0.0 0
M  V30 10 C -6.6304 -0.2893 0.0 0
M  V30 11 C -6.751 1.2658 0.0 0
M  V30 12 C -5.5334 3.4357 0.0 0
M  V30 13 N -6.8474 4.2314 0.0 0
M  V30 END ATOM
M  V30 BEGIN BOND
M  V30 1 1 1 2
M  V30 2 1 2 3
M  V30 3 1 2 4
M  V30 4 1 2 5
M  V30 5 1 5 6
M  V30 6 2 6 7
M  V30 7 1 6 8
M  V30 8 1 7 9
M  V30 9 2 8 10
M  V30 10 2 9 11
M  V30 11 1 9 12
M  V30 12 1 12 13
M  V30 13 1 10 11
M  V30 END BOND
M  V30 END CTAB
M  END
>  <Dotmatics_CR>
R-003869

>  <CR_Set>
Amine

>  <Category>
Primary Amines Non-Aromatic

>  <Reaction type>
Amidation

>  <KI/BB_Nature>
Acid

>  <Comments>


>  <Salt>


>  <CR_Chiral_Form>


>  <Prod_total_used>
3

>  <PSR (%)>
67

>  <Article>
3-(TRIFLUOROMETHOXY)BENZYLAMINE

>  <CAS>
93071-75-1

>  <Density>


>  <Prod_reagent_number>


>  <Stereocenters>
0

>  <NB_Name reaction - KI/BB – Capping>
04-Amidation_Acid_Amine

$$$$
R-003885
Actelion Java MolfileCreator 2.0

  0  0  0  0  0  0              0 V3000
M  V30 BEGIN CTAB
M  V30 COUNTS 5 4 0 0 0
M  V30 BEGIN ATOM
M  V30 1 N 0.0 0.0 0.0 0
M  V30 2 C -1.3315 0.7698 0.0 0
M  V30 3 C -2.6631 0.1664 0.0 0
M  V30 4 C -3.9947 0.9362 0.0 0
M  V30 5 C -5.3263 0.3328 0.0 0
M  V30 END ATOM
M  V30 BEGIN BOND
M  V30 1 1 1 2
M  V30 2 1 2 3
M  V30 3 1 3 4
M  V30 4 1 4 5
M  V30 END BOND
M  V30 END CTAB
M  END
>  <Dotmatics_CR>
R-003885

>  <CR_Set>
Amine

>  <Category>
Primary Amines Non-Aromatic

>  <Reaction type>
Amidation

>  <KI/BB_Nature>
Acid

>  <Comments>


>  <Salt>


>  <CR_Chiral_Form>


>  <Prod_total_used>
10

>  <PSR (%)>
80

>  <Article>
1-AMINOBUTANE

>  <CAS>
109-73-9

>  <Density>
0.74

>  <Prod_reagent_number>


>  <Stereocenters>
0

>  <NB_Name reaction - KI/BB – Capping>
04-Amidation_Acid_Amine

$$$$
R-003905
Actelion Java MolfileCreator 2.0

  0  0  0  0  0  0              0 V3000
M  V30 BEGIN CTAB
M  V30 COUNTS 6 6 0 0 0
M  V30 BEGIN ATOM
M  V30 1 S 0.0 0.0 0.0 0
M  V30 2 C -0.9244 1.2696 0.0 0
M  V30 3 C 1.2696 0.6039 0.0 0
M  V30 4 N -0.1972 2.5515 0.0 0
M  V30 5 N -2.5022 1.3928 0.0 0
M  V30 6 C 1.1463 2.1694 0.0 0
M  V30 END ATOM
M  V30 BEGIN BOND
M  V30 1 1 1 2
M  V30 2 1 1 3
M  V30 3 2 2 4
M  V30 4 1 2 5
M  V30 5 2 3 6
M  V30 6 1 4 6
M  V30 END BOND
M  V30 END CTAB
M  END
>  <Dotmatics_CR>
R-003905

>  <CR_Set>
Amine

>  <Category>
Primary Amines Aromatic

>  <Reaction type>
Amidation

>  <KI/BB_Nature>
Acid

>  <Comments>


>  <Salt>


>  <CR_Chiral_Form>


>  <Prod_total_used>
10

>  <PSR (%)>
60

>  <Article>
thiazol-2-amine

>  <CAS>
96-50-4

>  <Density>
1.0

>  <Prod_reagent_number>


>  <Stereocenters>
0

>  <NB_Name reaction - KI/BB – Capping>
04-Amidation_Acid_Amine

$$$$
R-003916
Actelion Java MolfileCreator 2.0

  0  0  0  0  0  0              0 V3000
M  V30 BEGIN CTAB
M  V30 COUNTS 9 9 0 0 0
M  V30 BEGIN ATOM
M  V30 1 Cl 0.0 0.0 0.0 0
M  V30 2 C -1.068 1.1267 0.0 0
M  V30 3 C -0.7394 2.582 0.0 0
M  V30 4 C -2.5468 0.8919 0.0 0
M  V30 5 C -1.8074 3.7087 0.0 0
M  V30 6 C 0.5281 3.0514 0.0 0
M  V30 7 C -3.6031 1.9952 0.0 0
M  V30 8 C -3.2862 3.474 0.0 0
M  V30 9 N -5.1053 1.7839 0.0 0
M  V30 END ATOM
M  V30 BEGIN BOND
M  V30 1 1 1 2
M  V30 2 2 2 3
M  V30 3 1 2 4
M  V30 4 1 3 5
M  V30 5 1 3 6
M  V30 6 2 4 7
M  V30 7 2 5 8
M  V30 8 1 7 9
M  V30 9 1 7 8
M  V30 END BOND
M  V30 END CTAB
M  END
>  <Dotmatics_CR>
R-003916

>  <CR_Set>
Amine

>  <Category>
Primary Amines Aromatic

>  <Reaction type>
Amidation

>  <KI/BB_Nature>
Acid

>  <Comments>


>  <Salt>


>  <CR_Chiral_Form>


>  <Prod_total_used>
1

>  <PSR (%)>
100

>  <Article>
3-CHLORO-4-METHYLANILINE

>  <CAS>
95-74-9

>  <Density>


>  <Prod_reagent_number>


>  <Stereocenters>
0

>  <NB_Name reaction - KI/BB – Capping>
04-Amidation_Acid_Amine

$$$$
R-003937
Actelion Java MolfileCreator 2.0

  0  0  0  0  0  0              0 V3000
M  V30 BEGIN CTAB
M  V30 COUNTS 9 9 0 0 0
M  V30 BEGIN ATOM
M  V30 1 F 0.0 0.0 0.0 0
M  V30 2 C 1.2347 -0.7191 0.0 0
M  V30 3 C 2.4694 0.1763 0.0 0
M  V30 4 C 1.099 -2.1845 0.0 0
M  V30 5 N 2.3338 1.9131 0.0 0
M  V30 6 C 3.7042 -0.5427 0.0 0
M  V30 7 C 2.3338 -2.9036 0.0 0
M  V30 8 C 3.5685 -2.0217 0.0 0
M  V30 9 F 2.1981 -4.369 0.0 0
M  V30 END ATOM
M  V30 BEGIN BOND
M  V30 1 1 1 2
M  V30 2 2 2 3
M  V30 3 1 2 4
M  V30 4 1 3 5
M  V30 5 1 3 6
M  V30 6 2 4 7
M  V30 7 2 6 8
M  V30 8 1 7 9
M  V30 9 1 7 8
M  V30 END BOND
M  V30 END CTAB
M  END
>  <Dotmatics_CR>
R-003937

>  <CR_Set>
Amine

>  <Category>
Primary Amines Aromatic

>  <Reaction type>
Amidation

>  <KI/BB_Nature>
Acid

>  <Comments>


>  <Salt>


>  <CR_Chiral_Form>


>  <Prod_total_used>
1

>  <PSR (%)>
100

>  <Article>
2,4-difluoroaniline

>  <CAS>
367-25-9

>  <Density>
1.268

>  <Prod_reagent_number>


>  <Stereocenters>
0

>  <NB_Name reaction - KI/BB – Capping>
04-Amidation_Acid_Amine

$$$$
R-003963
Actelion Java MolfileCreator 2.0

  0  0  0  0  0  0              0 V3000
M  V30 BEGIN CTAB
M  V30 COUNTS 10 10 0 0 0
M  V30 BEGIN ATOM
M  V30 1 O 0.0 0.0 0.0 0
M  V30 2 C 0.7178 -1.2325 0.0 0
M  V30 3 C -1.7337 0.1354 0.0 0
M  V30 4 C 2.1535 -1.0971 0.0 0
M  V30 5 C -0.1489 -2.438 0.0 0
M  V30 6 C 2.8714 -2.3025 0.0 0
M  V30 7 C 2.8714 0.4063 0.0 0
M  V30 8 C 0.5688 -3.6705 0.0 0
M  V30 9 C 1.991 -3.5351 0.0 0
M  V30 10 N 4.3342 0.5417 0.0 0
M  V30 END ATOM
M  V30 BEGIN BOND
M  V30 1 1 1 2
M  V30 2 1 1 3
M  V30 3 2 2 4
M  V30 4 1 2 5
M  V30 5 1 4 6
M  V30 6 1 4 7
M  V30 7 2 5 8
M  V30 8 2 6 9
M  V30 9 1 7 10
M  V30 10 1 8 9
M  V30 END BOND
M  V30 END CTAB
M  END
>  <Dotmatics_CR>
R-003963

>  <CR_Set>
Amine

>  <Category>
Primary Amines Non-Aromatic

>  <Reaction type>
Amidation

>  <KI/BB_Nature>
Acid

>  <Comments>


>  <Salt>


>  <CR_Chiral_Form>


>  <Prod_total_used>
24

>  <PSR (%)>
71

>  <Article>
2-METHOXYBENZYLAMINE

>  <CAS>
6850-57-3

>  <Density>
1.051

>  <Prod_reagent_number>


>  <Stereocenters>
0

>  <NB_Name reaction - KI/BB – Capping>
04-Amidation_Acid_Amine

$$$$
R-004153
Actelion Java MolfileCreator 2.0

  0  0  0  0  0  0              0 V3000
M  V30 BEGIN CTAB
M  V30 COUNTS 5 4 0 0 0
M  V30 BEGIN ATOM
M  V30 1 N 0.0 0.0 0.0 0
M  V30 2 C -0.1155 -1.4444 0.0 0
M  V30 3 C 1.2479 0.9359 0.0 0
M  V30 4 C -1.5946 -2.0568 0.0 0
M  V30 5 C 1.1324 -2.0568 0.0 0
M  V30 END ATOM
M  V30 BEGIN BOND
M  V30 1 1 1 2
M  V30 2 1 1 3
M  V30 3 1 2 4
M  V30 4 1 2 5
M  V30 END BOND
M  V30 END CTAB
M  END
>  <Dotmatics_CR>
R-004153

>  <CR_Set>
Amine

>  <Category>
Secondary Amines Non-Aromatic

>  <Reaction type>
Amidation

>  <KI/BB_Nature>
Acid

>  <Comments>


>  <Salt>


>  <CR_Chiral_Form>


>  <Prod_total_used>
41

>  <PSR (%)>
61

>  <Article>
N-METHYL ISOPROPYLAMINE

>  <CAS>
4747-21-1

>  <Density>
0.702

>  <Prod_reagent_number>


>  <Stereocenters>
0

>  <NB_Name reaction - KI/BB – Capping>
04-Amidation_Acid_Amine

$$$$
R-004174
Actelion Java MolfileCreator 2.0

  0  0  0  0  0  0              0 V3000
M  V30 BEGIN CTAB
M  V30 COUNTS 4 2 0 0 0
M  V30 BEGIN ATOM
M  V30 1 Cl 0.0 0.0 0.0 0
M  V30 2 N 0.2582 2.6688 0.0 0
M  V30 3 C 1.4205 3.4652 0.0 0
M  V30 4 C -1.1191 3.4652 0.0 0
M  V30 END ATOM
M  V30 BEGIN BOND
M  V30 1 1 2 3
M  V30 2 1 2 4
M  V30 END BOND
M  V30 END CTAB
M  END
>  <Dotmatics_CR>
R-004174

>  <CR_Set>
Amine

>  <Category>
Secondary Amines Non-Aromatic

>  <Reaction type>
Amidation

>  <KI/BB_Nature>
Acid

>  <Comments>


>  <Salt>
HCl

>  <CR_Chiral_Form>


>  <Prod_total_used>
10

>  <PSR (%)>
60

>  <Article>
DIMETHYLAMINE (HYDROCHLORIDE)

>  <CAS>
506-59-2

>  <Density>


>  <Prod_reagent_number>


>  <Stereocenters>
0

>  <NB_Name reaction - KI/BB – Capping>
04-Amidation_Acid_Amine

$$$$
R-004298
Actelion Java MolfileCreator 2.0

  0  0  0  0  0  0              0 V3000
M  V30 BEGIN CTAB
M  V30 COUNTS 6 6 0 0 0
M  V30 BEGIN ATOM
M  V30 1 N 0.0 0.0 0.0 0
M  V30 2 C -0.1133 -1.4278 0.0 0
M  V30 3 C -1.4958 -2.2665 0.0 0
M  V30 4 C 1.0425 -2.2665 0.0 0
M  V30 5 C -1.1672 -3.6264 0.0 0
M  V30 6 C 0.4872 -3.6264 0.0 0
M  V30 END ATOM
M  V30 BEGIN BOND
M  V30 1 1 1 2
M  V30 2 1 2 3
M  V30 3 1 2 4
M  V30 4 1 3 5
M  V30 5 1 4 6
M  V30 6 1 5 6
M  V30 END BOND
M  V30 END CTAB
M  END
>  <Dotmatics_CR>
R-004298

>  <CR_Set>
Amine

>  <Category>
Primary Amines Non-Aromatic

>  <Reaction type>
Amidation

>  <KI/BB_Nature>
Acid

>  <Comments>


>  <Salt>


>  <CR_Chiral_Form>


>  <Prod_total_used>
52

>  <PSR (%)>
90

>  <Article>
CYCLOPENTYLAMINE

>  <CAS>
1003-03-8

>  <Density>
0.863

>  <Prod_reagent_number>


>  <Stereocenters>
0

>  <NB_Name reaction - KI/BB – Capping>
04-Amidation_Acid_Amine

$$$$
R-004366
Actelion Java MolfileCreator 2.0

  0  0  0  0  0  0              0 V3000
M  V30 BEGIN CTAB
M  V30 COUNTS 14 14 0 0 0
M  V30 BEGIN ATOM
M  V30 1 Cl 0.0 0.0 0.0 0
M  V30 2 C -1.3564 -0.6535 0.0 0
M  V30 3 C -2.7129 0.1603 0.0 0
M  V30 4 C -1.4797 -1.973 0.0 0
M  V30 5 N -2.8362 1.7264 0.0 0
M  V30 6 C -4.0694 -0.4932 0.0 0
M  V30 7 C -2.8362 -2.6266 0.0 0
M  V30 8 C -4.1927 2.5403 0.0 0
M  V30 9 C -1.7141 2.5403 0.0 0
M  V30 10 C -4.1927 -1.8127 0.0 0
M  V30 11 C -4.316 4.1187 0.0 0
M  V30 12 C -1.8374 4.1064 0.0 0
M  V30 13 N -3.2062 4.9326 0.0 0
M  V30 14 Cl -2.4663 6.4124 0.0 0
M  V30 END ATOM
M  V30 BEGIN BOND
M  V30 1 1 1 2
M  V30 2 2 2 3
M  V30 3 1 2 4
M  V30 4 1 3 5
M  V30 5 1 3 6
M  V30 6 2 4 7
M  V30 7 1 5 8
M  V30 8 1 5 9
M  V30 9 2 6 10
M  V30 10 1 8 11
M  V30 11 1 9 12
M  V30 12 1 11 13
M  V30 13 1 7 10
M  V30 14 1 12 13
M  V30 END BOND
M  V30 END CTAB
M  END
>  <Dotmatics_CR>
R-004366

>  <CR_Set>
Amine

>  <Category>
Secondary Amines Non-Aromatic

>  <Reaction type>
Amidation

>  <KI/BB_Nature>
Acid

>  <Comments>


>  <Salt>
HCl

>  <CR_Chiral_Form>


>  <Prod_total_used>
3

>  <PSR (%)>
100

>  <Article>
1-(2-CHLOROPHENYL)PIPERAZINE (HYDROCHLORIDE)

>  <CAS>
41202-32-8

>  <Density>


>  <Prod_reagent_number>


>  <Stereocenters>
0

>  <NB_Name reaction - KI/BB – Capping>
04-Amidation_Acid_Amine

$$$$
R-004458
Actelion Java MolfileCreator 2.0

  0  0  0  0  0  0              0 V3000
M  V30 BEGIN CTAB
M  V30 COUNTS 11 11 0 0 0
M  V30 BEGIN ATOM
M  V30 1 O 0.0 0.0 0.0 0
M  V30 2 C 1.4169 0.1312 0.0 0
M  V30 3 C -0.8528 -1.1939 0.0 0
M  V30 4 C 2.1123 1.5875 0.0 0
M  V30 5 C 2.1123 -1.0627 0.0 0
M  V30 6 O 1.2595 3.0438 0.0 0
M  V30 7 C 3.5292 1.7187 0.0 0
M  V30 8 C 3.5292 -0.9315 0.0 0
M  V30 9 C -0.4198 3.175 0.0 0
M  V30 10 C 4.2377 0.5248 0.0 0
M  V30 11 N 4.2377 -2.1254 0.0 0
M  V30 END ATOM
M  V30 BEGIN BOND
M  V30 1 1 1 2
M  V30 2 1 1 3
M  V30 3 2 2 4
M  V30 4 1 2 5
M  V30 5 1 4 6
M  V30 6 1 4 7
M  V30 7 2 5 8
M  V30 8 1 6 9
M  V30 9 2 7 10
M  V30 10 1 8 11
M  V30 11 1 8 10
M  V30 END BOND
M  V30 END CTAB
M  END
>  <Dotmatics_CR>
R-004458

>  <CR_Set>
Amine

>  <Category>
Primary Amines Aromatic

>  <Reaction type>
Amidation

>  <KI/BB_Nature>
Acid

>  <Comments>


>  <Salt>


>  <CR_Chiral_Form>


>  <Prod_total_used>
1

>  <PSR (%)>
100

>  <Article>
4-AMINOVERATROLE (3,4-DIMETHOXYANILINE)

>  <CAS>
6315-89-5

>  <Density>


>  <Prod_reagent_number>


>  <Stereocenters>
0

>  <NB_Name reaction - KI/BB – Capping>
04-Amidation_Acid_Amine

$$$$
R-004462
Actelion Java MolfileCreator 2.0

  0  0  0  0  0  0              0 V3000
M  V30 BEGIN CTAB
M  V30 COUNTS 10 10 0 0 0
M  V30 BEGIN ATOM
M  V30 1 Cl 0.0 0.0 0.0 0
M  V30 2 C 1.1449 0.8361 0.0 0
M  V30 3 C 1.0163 2.4828 0.0 0
M  V30 4 C 2.3156 0.1672 0.0 0
M  V30 5 C 2.1869 3.3319 0.0 0
M  V30 6 C -0.4116 3.3319 0.0 0
M  V30 7 C 3.512 1.0034 0.0 0
M  V30 8 C 3.3576 2.6629 0.0 0
M  V30 9 N -0.5403 4.9785 0.0 0
M  V30 10 Cl 4.6827 0.3344 0.0 0
M  V30 END ATOM
M  V30 BEGIN BOND
M  V30 1 1 1 2
M  V30 2 2 2 3
M  V30 3 1 2 4
M  V30 4 1 3 5
M  V30 5 1 3 6
M  V30 6 2 4 7
M  V30 7 2 5 8
M  V30 8 1 6 9
M  V30 9 1 7 10
M  V30 10 1 7 8
M  V30 END BOND
M  V30 END CTAB
M  END
>  <Dotmatics_CR>
R-004462

>  <CR_Set>
Amine

>  <Category>
Primary Amines Non-Aromatic

>  <Reaction type>
Amidation

>  <KI/BB_Nature>
Acid

>  <Comments>


>  <Salt>


>  <CR_Chiral_Form>


>  <Prod_total_used>
3

>  <PSR (%)>
67

>  <Article>
2,4-DICHLOROBENZYLAMINE

>  <CAS>
95-00-1

>  <Density>
1.308

>  <Prod_reagent_number>


>  <Stereocenters>
0

>  <NB_Name reaction - KI/BB – Capping>
04-Amidation_Acid_Amine

$$$$
R-004510
Actelion Java MolfileCreator 2.0

  0  0  0  0  0  0              0 V3000
M  V30 BEGIN CTAB
M  V30 COUNTS 5 4 0 0 0
M  V30 BEGIN ATOM
M  V30 1 O 0.0 0.0 0.0 0
M  V30 2 C -0.6174 -1.2473 0.0 0
M  V30 3 C -2.1982 -1.4325 0.0 0
M  V30 4 N -2.8157 -2.7169 0.0 0
M  V30 5 C -4.3964 -2.9021 0.0 0
M  V30 END ATOM
M  V30 BEGIN BOND
M  V30 1 1 1 2
M  V30 2 1 2 3
M  V30 3 1 3 4
M  V30 4 1 4 5
M  V30 END BOND
M  V30 END CTAB
M  END
>  <Dotmatics_CR>
R-004510

>  <CR_Set>
Amine

>  <Category>
Secondary Amines Non-Aromatic

>  <Reaction type>
Amidation

>  <KI/BB_Nature>
Acid

>  <Comments>


>  <Salt>


>  <CR_Chiral_Form>


>  <Prod_total_used>
65

>  <PSR (%)>
72

>  <Article>
2-METHYLAMINOETHANOL

>  <CAS>
109-83-1

>  <Density>
0.935

>  <Prod_reagent_number>


>  <Stereocenters>
0

>  <NB_Name reaction - KI/BB – Capping>
04-Amidation_Acid_Amine

$$$$
R-004523
Actelion Java MolfileCreator 2.0

  0  0  0  0  0  0              0 V3000
M  V30 BEGIN CTAB
M  V30 COUNTS 8 8 0 0 0
M  V30 BEGIN ATOM
M  V30 1 O 0.0 0.0 0.0 0
M  V30 2 C 1.2753 0.9594 0.0 0
M  V30 3 C -0.117 -1.4742 0.0 0
M  V30 4 C 2.5507 0.3393 0.0 0
M  V30 5 C 1.1583 -2.0943 0.0 0
M  V30 6 C 2.4336 -1.1349 0.0 0
M  V30 7 C 3.709 -1.755 0.0 0
M  V30 8 N 4.9844 -0.7956 0.0 0
M  V30 END ATOM
M  V30 BEGIN BOND
M  V30 1 1 1 2
M  V30 2 1 1 3
M  V30 3 1 2 4
M  V30 4 1 3 5
M  V30 5 1 4 6
M  V30 6 1 6 7
M  V30 7 1 7 8
M  V30 8 1 5 6
M  V30 END BOND
M  V30 END CTAB
M  END
>  <Dotmatics_CR>
R-004523

>  <CR_Set>
Amine

>  <Category>
Primary Amines Non-Aromatic

>  <Reaction type>
Amidation

>  <KI/BB_Nature>
Acid

>  <Comments>


>  <Salt>


>  <CR_Chiral_Form>


>  <Prod_total_used>
14

>  <PSR (%)>
86

>  <Article>
tetrahydropyran-4-ylmethanamine

>  <CAS>
130290-79-8

>  <Density>
1.02

>  <Prod_reagent_number>


>  <Stereocenters>
0

>  <NB_Name reaction - KI/BB – Capping>
04-Amidation_Acid_Amine

$$$$
R-004541
Actelion Java MolfileCreator 2.0

  0  0  0  0  0  0              0 V3000
M  V30 BEGIN CTAB
M  V30 COUNTS 6 6 0 0 0
M  V30 BEGIN ATOM
M  V30 1 N 0.0 0.0 0.0 0
M  V30 2 C 1.2633 -0.6021 0.0 0
M  V30 3 C -1.4994 -0.6493 0.0 0
M  V30 4 C 1.1452 -2.0898 0.0 0
M  V30 5 C -1.6175 -2.1134 0.0 0
M  V30 6 C -0.3542 -2.6919 0.0 0
M  V30 END ATOM
M  V30 BEGIN BOND
M  V30 1 1 1 2
M  V30 2 1 1 3
M  V30 3 1 2 4
M  V30 4 1 3 5
M  V30 5 1 4 6
M  V30 6 1 5 6
M  V30 END BOND
M  V30 END CTAB
M  END
>  <Dotmatics_CR>
R-004541

>  <CR_Set>
Amine

>  <Category>
Secondary Amines Non-Aromatic

>  <Reaction type>
Amidation

>  <KI/BB_Nature>
Acid

>  <Comments>


>  <Salt>


>  <CR_Chiral_Form>


>  <Prod_total_used>
49

>  <PSR (%)>
90

>  <Article>
piperidine

>  <CAS>
110-89-4

>  <Density>
0.862

>  <Prod_reagent_number>


>  <Stereocenters>
0

>  <NB_Name reaction - KI/BB – Capping>
04-Amidation_Acid_Amine

$$$$
R-004572
Actelion Java MolfileCreator 2.0

  0  0  0  0  0  0              0 V3000
M  V30 BEGIN CTAB
M  V30 COUNTS 8 8 0 0 0
M  V30 BEGIN ATOM
M  V30 1 N 0.0 0.0 0.0 0
M  V30 2 C 0.6324 1.3641 0.0 0
M  V30 3 C -1.5873 0.0992 0.0 0
M  V30 4 C -0.1736 2.7034 0.0 0
M  V30 5 C 1.9717 1.5129 0.0 0
M  V30 6 C -2.4182 1.4385 0.0 0
M  V30 7 C -1.7609 2.8026 0.0 0
M  V30 8 N 2.6662 0.3968 0.0 0
M  V30 END ATOM
M  V30 BEGIN BOND
M  V30 1 2 1 2
M  V30 2 1 1 3
M  V30 3 1 2 4
M  V30 4 1 2 5
M  V30 5 2 3 6
M  V30 6 2 4 7
M  V30 7 1 5 8
M  V30 8 1 6 7
M  V30 END BOND
M  V30 END CTAB
M  END
>  <Dotmatics_CR>
R-004572

>  <CR_Set>
Amine

>  <Category>
Primary Amines Non-Aromatic

>  <Reaction type>
Amidation

>  <KI/BB_Nature>
Acid

>  <Comments>


>  <Salt>


>  <CR_Chiral_Form>


>  <Prod_total_used>
18

>  <PSR (%)>
89

>  <Article>
2-pyridylmethanamine

>  <CAS>
3731-51-9

>  <Density>
1.049

>  <Prod_reagent_number>


>  <Stereocenters>
0

>  <NB_Name reaction - KI/BB – Capping>
04-Amidation_Acid_Amine

$$$$
R-004588
Actelion Java MolfileCreator 2.0

  0  0  0  0  0  0              0 V3000
M  V30 BEGIN CTAB
M  V30 COUNTS 8 8 0 0 0
M  V30 BEGIN ATOM
M  V30 1 Cl 0.0 0.0 0.0 0
M  V30 2 C -0.866 -1.1857 0.0 0
M  V30 3 C -0.1332 -2.3049 0.0 0
M  V30 4 C -2.5713 -1.1058 0.0 0
M  V30 5 C -0.9992 -3.5706 0.0 0
M  V30 6 C -3.4374 -2.3981 0.0 0
M  V30 7 N -0.2398 -4.7164 0.0 0
M  V30 8 C -2.7046 -3.4906 0.0 0
M  V30 END ATOM
M  V30 BEGIN BOND
M  V30 1 1 1 2
M  V30 2 2 2 3
M  V30 3 1 2 4
M  V30 4 1 3 5
M  V30 5 2 4 6
M  V30 6 1 5 7
M  V30 7 2 5 8
M  V30 8 1 6 8
M  V30 END BOND
M  V30 END CTAB
M  END
>  <Dotmatics_CR>
R-004588

>  <CR_Set>
Amine

>  <Category>
Primary Amines Aromatic

>  <Reaction type>
Amidation

>  <KI/BB_Nature>
Acid

>  <Comments>


>  <Salt>


>  <CR_Chiral_Form>


>  <Prod_total_used>
1

>  <PSR (%)>
100

>  <Article>
3-chloroaniline

>  <CAS>
108-42-9

>  <Density>
1.206

>  <Prod_reagent_number>


>  <Stereocenters>
0

>  <NB_Name reaction - KI/BB – Capping>
04-Amidation_Acid_Amine

$$$$
R-004658
Actelion Java MolfileCreator 2.0

  0  0  0  0  0  0              0 V3000
M  V30 BEGIN CTAB
M  V30 COUNTS 11 11 0 0 0
M  V30 BEGIN ATOM
M  V30 1 F 0.0 0.0 0.0 0
M  V30 2 C -0.9555 -1.0733 0.0 0
M  V30 3 F -2.3167 -0.0916 0.0 0
M  V30 4 F 0.1439 -1.8455 0.0 0
M  V30 5 C -1.9371 -2.1727 0.0 0
M  V30 6 C -1.3743 -3.4424 0.0 0
M  V30 7 C -3.6125 -1.8717 0.0 0
M  V30 8 C -2.3298 -4.568 0.0 0
M  V30 9 C -4.5942 -3.0235 0.0 0
M  V30 10 N -1.767 -5.8377 0.0 0
M  V30 11 C -4.0052 -4.2932 0.0 0
M  V30 END ATOM
M  V30 BEGIN BOND
M  V30 1 1 1 2
M  V30 2 1 2 3
M  V30 3 1 2 4
M  V30 4 1 2 5
M  V30 5 2 5 6
M  V30 6 1 5 7
M  V30 7 1 6 8
M  V30 8 2 7 9
M  V30 9 1 8 10
M  V30 10 2 8 11
M  V30 11 1 9 11
M  V30 END BOND
M  V30 END CTAB
M  END
>  <Dotmatics_CR>
R-004658

>  <CR_Set>
Amine

>  <Category>
Primary Amines Aromatic

>  <Reaction type>
Amidation

>  <KI/BB_Nature>
Acid

>  <Comments>


>  <Salt>


>  <CR_Chiral_Form>


>  <Prod_total_used>
1

>  <PSR (%)>
100

>  <Article>
3-(trifluoromethyl)aniline

>  <CAS>
98-16-8

>  <Density>
1.29

>  <Prod_reagent_number>


>  <Stereocenters>
0

>  <NB_Name reaction - KI/BB – Capping>
04-Amidation_Acid_Amine

$$$$
R-004664
Actelion Java MolfileCreator 2.0

  0  0  0  0  0  0              0 V3000
M  V30 BEGIN CTAB
M  V30 COUNTS 12 13 0 0 0
M  V30 BEGIN ATOM
M  V30 1 N 0.0 0.0 0.0 0
M  V30 2 C -0.1286 -1.3764 0.0 0
M  V30 3 C -1.415 0.8361 0.0 0
M  V30 4 C 1.1577 0.8361 0.0 0
M  V30 5 C 1.042 -2.0711 0.0 0
M  V30 6 C -1.5565 -2.0711 0.0 0
M  V30 7 C -1.5437 2.4828 0.0 0
M  V30 8 C 1.0291 2.4442 0.0 0
M  V30 9 C 0.9133 -3.4605 0.0 0
M  V30 10 C -1.6852 -3.4605 0.0 0
M  V30 11 N -0.3859 3.319 0.0 0
M  V30 12 C -0.5145 -4.1551 0.0 0
M  V30 END ATOM
M  V30 BEGIN BOND
M  V30 1 1 1 2
M  V30 2 1 1 3
M  V30 3 1 1 4
M  V30 4 2 2 5
M  V30 5 1 2 6
M  V30 6 1 3 7
M  V30 7 1 4 8
M  V30 8 1 5 9
M  V30 9 2 6 10
M  V30 10 1 7 11
M  V30 11 2 9 12
M  V30 12 1 8 11
M  V30 13 1 10 12
M  V30 END BOND
M  V30 END CTAB
M  END
>  <Dotmatics_CR>
R-004664

>  <CR_Set>
Amine

>  <Category>
Secondary Amines Non-Aromatic

>  <Reaction type>
Amidation

>  <KI/BB_Nature>
Acid

>  <Comments>


>  <Salt>


>  <CR_Chiral_Form>


>  <Prod_total_used>
14

>  <PSR (%)>
86

>  <Article>
1-PHENYLPIPERAZINE

>  <CAS>
92-54-6

>  <Density>
1.062

>  <Prod_reagent_number>


>  <Stereocenters>
0

>  <NB_Name reaction - KI/BB – Capping>
04-Amidation_Acid_Amine

$$$$
R-004669
Actelion Java MolfileCreator 2.0

  0  0  0  0  0  0              0 V3000
M  V30 BEGIN CTAB
M  V30 COUNTS 4 4 0 0 0
M  V30 BEGIN ATOM
M  V30 1 N 0.0 0.0 0.0 0
M  V30 2 C -0.2907 -1.4651 0.0 0
M  V30 3 C -1.3837 -2.5814 0.0 0
M  V30 4 C 0.1395 -2.8023 0.0 0
M  V30 END ATOM
M  V30 BEGIN BOND
M  V30 1 1 1 2
M  V30 2 1 2 3
M  V30 3 1 2 4
M  V30 4 1 3 4
M  V30 END BOND
M  V30 END CTAB
M  END
>  <Dotmatics_CR>
R-004669

>  <CR_Set>
Amine

>  <Category>
Primary Amines Non-Aromatic

>  <Reaction type>
Amidation

>  <KI/BB_Nature>
Acid

>  <Comments>


>  <Salt>


>  <CR_Chiral_Form>


>  <Prod_total_used>
45

>  <PSR (%)>
82

>  <Article>
cyclopropanamine

>  <CAS>
765-30-0

>  <Density>
0.824

>  <Prod_reagent_number>


>  <Stereocenters>
0

>  <NB_Name reaction - KI/BB – Capping>
04-Amidation_Acid_Amine

$$$$
R-004677
Actelion Java MolfileCreator 2.0

  0  0  0  0  0  0              0 V3000
M  V30 BEGIN CTAB
M  V30 COUNTS 14 15 0 0 0
M  V30 BEGIN ATOM
M  V30 1 Cl 0.0 0.0 0.0 0
M  V30 2 C -0.1243 1.5663 0.0 0
M  V30 3 C 1.0069 2.3868 0.0 0
M  V30 4 C -1.5042 2.3868 0.0 0
M  V30 5 C 0.8826 3.9781 0.0 0
M  V30 6 C -1.6285 3.9781 0.0 0
M  V30 7 C -0.4972 4.7862 0.0 0
M  V30 8 C -0.6215 6.365 0.0 0
M  V30 9 O 0.3605 5.8926 0.0 0
M  V30 10 C 0.4972 7.1731 0.0 0
M  V30 11 C -1.989 7.1731 0.0 0
M  V30 12 C 0.3729 8.727 0.0 0
M  V30 13 C -2.1133 8.7643 0.0 0
M  V30 14 N -0.9945 9.5351 0.0 0
M  V30 END ATOM
M  V30 BEGIN BOND
M  V30 1 1 1 2
M  V30 2 2 2 3
M  V30 3 1 2 4
M  V30 4 1 3 5
M  V30 5 2 4 6
M  V30 6 2 5 7
M  V30 7 1 7 8
M  V30 8 1 8 9
M  V30 9 1 8 10
M  V30 10 1 8 11
M  V30 11 1 10 12
M  V30 12 1 11 13
M  V30 13 1 12 14
M  V30 14 1 6 7
M  V30 15 1 13 14
M  V30 END BOND
M  V30 END CTAB
M  END
>  <Dotmatics_CR>
R-004677

>  <CR_Set>
Amine

>  <Category>
Secondary Amines Non-Aromatic

>  <Reaction type>
Amidation

>  <KI/BB_Nature>
Acid

>  <Comments>


>  <Salt>


>  <CR_Chiral_Form>


>  <Prod_total_used>
4

>  <PSR (%)>
75

>  <Article>
4-(4-CHLOROPHENYL)-4-HYDROXYPIPERIDINE

>  <CAS>
39512-49-7

>  <Density>


>  <Prod_reagent_number>


>  <Stereocenters>
0

>  <NB_Name reaction - KI/BB – Capping>
04-Amidation_Acid_Amine

$$$$
R-004751
Actelion Java MolfileCreator 2.0

  0  0  0  0  0  0              0 V3000
M  V30 BEGIN CTAB
M  V30 COUNTS 9 9 0 0 0
M  V30 BEGIN ATOM
M  V30 1 Cl 0.0 0.0 0.0 0
M  V30 2 C 0.2679 1.468 0.0 0
M  V30 3 C -0.8272 2.5633 0.0 0
M  V30 4 C 1.5496 1.969 0.0 0
M  V30 5 C -0.5592 4.0547 0.0 0
M  V30 6 C -2.3186 2.2953 0.0 0
M  V30 7 C 1.8176 3.4604 0.0 0
M  V30 8 C 0.7223 4.5906 0.0 0
M  V30 9 N -3.4488 3.3905 0.0 0
M  V30 END ATOM
M  V30 BEGIN BOND
M  V30 1 1 1 2
M  V30 2 2 2 3
M  V30 3 1 2 4
M  V30 4 1 3 5
M  V30 5 1 3 6
M  V30 6 2 4 7
M  V30 7 2 5 8
M  V30 8 1 6 9
M  V30 9 1 7 8
M  V30 END BOND
M  V30 END CTAB
M  END
>  <Dotmatics_CR>
R-004751

>  <CR_Set>
Amine

>  <Category>
Primary Amines Non-Aromatic

>  <Reaction type>
Amidation

>  <KI/BB_Nature>
Acid

>  <Comments>


>  <Salt>


>  <CR_Chiral_Form>


>  <Prod_total_used>
4

>  <PSR (%)>
75

>  <Article>
2-CHLOROBENZYLAMINE

>  <CAS>
89-97-4

>  <Density>
1.173

>  <Prod_reagent_number>


>  <Stereocenters>
0

>  <NB_Name reaction - KI/BB – Capping>
04-Amidation_Acid_Amine

$$$$
R-004756
Actelion Java MolfileCreator 2.0

  0  0  0  0  0  0              0 V3000
M  V30 BEGIN CTAB
M  V30 COUNTS 11 11 0 0 0
M  V30 BEGIN ATOM
M  V30 1 O 0.0 0.0 0.0 0
M  V30 2 C 0.8998 -0.8998 0.0 0
M  V30 3 C 0.3624 -2.2495 0.0 0
M  V30 4 N 1.2997 -3.1868 0.0 0
M  V30 5 C 2.6494 -2.6494 0.0 0
M  V30 6 C 2.9369 -1.0747 0.0 0
M  V30 7 C 1.7871 0.0749 0.0 0
M  V30 8 C 4.2616 -0.5373 0.0 0
M  V30 9 C 2.0745 1.6746 0.0 0
M  V30 10 C 4.5865 1.0622 0.0 0
M  V30 11 C 3.3993 2.212 0.0 0
M  V30 END ATOM
M  V30 BEGIN BOND
M  V30 1 1 1 2
M  V30 2 1 2 3
M  V30 3 1 3 4
M  V30 4 1 4 5
M  V30 5 1 5 6
M  V30 6 2 6 7
M  V30 7 1 6 8
M  V30 8 1 7 9
M  V30 9 2 8 10
M  V30 10 2 9 11
M  V30 11 1 10 11
M  V30 END BOND
M  V30 END CTAB
M  END
>  <Dotmatics_CR>
R-004756

>  <CR_Set>
Amine

>  <Category>
Secondary Amines Non-Aromatic

>  <Reaction type>
Amidation

>  <KI/BB_Nature>
Acid

>  <Comments>


>  <Salt>


>  <CR_Chiral_Form>


>  <Prod_total_used>
19

>  <PSR (%)>
74

>  <Article>
2-BENZYLAMINOETHANOL

>  <CAS>
104-63-2

>  <Density>
1.065

>  <Prod_reagent_number>


>  <Stereocenters>
0

>  <NB_Name reaction - KI/BB – Capping>
04-Amidation_Acid_Amine

$$$$
R-004773
Actelion Java MolfileCreator 2.0

  0  0  0  0  0  0              0 V3000
M  V30 BEGIN CTAB
M  V30 COUNTS 10 11 0 0 0
M  V30 BEGIN ATOM
M  V30 1 N 0.0 0.0 0.0 0
M  V30 2 C -1.3239 -0.6209 0.0 0
M  V30 3 C -0.1171 1.4996 0.0 0
M  V30 4 C -2.6478 0.1405 0.0 0
M  V30 5 C -1.4411 2.2729 0.0 0
M  V30 6 C -2.765 1.6402 0.0 0
M  V30 7 C -3.9718 -0.4803 0.0 0
M  V30 8 C -4.089 2.4135 0.0 0
M  V30 9 C -5.2957 0.2811 0.0 0
M  V30 10 C -5.4129 1.7926 0.0 0
M  V30 END ATOM
M  V30 BEGIN BOND
M  V30 1 1 1 2
M  V30 2 1 1 3
M  V30 3 1 2 4
M  V30 4 1 3 5
M  V30 5 2 4 6
M  V30 6 1 4 7
M  V30 7 1 6 8
M  V30 8 2 7 9
M  V30 9 2 8 10
M  V30 10 1 5 6
M  V30 11 1 9 10
M  V30 END BOND
M  V30 END CTAB
M  END
>  <Dotmatics_CR>
R-004773

>  <CR_Set>
Amine

>  <Category>
Secondary Amines Non-Aromatic

>  <Reaction type>
Amidation

>  <KI/BB_Nature>
Acid

>  <Comments>


>  <Salt>


>  <CR_Chiral_Form>


>  <Prod_total_used>
16

>  <PSR (%)>
69

>  <Article>
1,2,3,4-TETRAHYDROISOQUINOLINE

>  <CAS>
91-21-4

>  <Density>
1.064

>  <Prod_reagent_number>


>  <Stereocenters>
0

>  <NB_Name reaction - KI/BB – Capping>
04-Amidation_Acid_Amine

$$$$
R-004995
Actelion Java MolfileCreator 2.0

  0  0  0  0  0  0              0 V3000
M  V30 BEGIN CTAB
M  V30 COUNTS 10 10 0 0 0
M  V30 BEGIN ATOM
M  V30 1 O 0.0 0.0 0.0 0
M  V30 2 C -0.1238 1.5846 0.0 0
M  V30 3 C 1.1265 -0.6561 0.0 0
M  V30 4 C 1.0027 2.3893 0.0 0
M  V30 5 C -1.4979 2.3893 0.0 0
M  V30 6 C 0.8789 3.974 0.0 0
M  V30 7 C -1.6217 3.974 0.0 0
M  V30 8 C -0.4952 4.7787 0.0 0
M  V30 9 C 2.0055 4.7787 0.0 0
M  V30 10 N -0.619 6.3633 0.0 0
M  V30 END ATOM
M  V30 BEGIN BOND
M  V30 1 1 1 2
M  V30 2 1 1 3
M  V30 3 2 2 4
M  V30 4 1 2 5
M  V30 5 1 4 6
M  V30 6 2 5 7
M  V30 7 2 6 8
M  V30 8 1 6 9
M  V30 9 1 8 10
M  V30 10 1 7 8
M  V30 END BOND
M  V30 END CTAB
M  END
>  <Dotmatics_CR>
R-004995

>  <CR_Set>
Amine

>  <Category>
Primary Amines Aromatic

>  <Reaction type>
Amidation

>  <KI/BB_Nature>
Acid

>  <Comments>


>  <Salt>


>  <CR_Chiral_Form>


>  <Prod_total_used>
1

>  <PSR (%)>
100

>  <Article>
4-METHOXY-2-METHYLANILINE

>  <CAS>
102-50-1

>  <Density>
1.065

>  <Prod_reagent_number>


>  <Stereocenters>
0

>  <NB_Name reaction - KI/BB – Capping>
04-Amidation_Acid_Amine

$$$$
R-005289
Actelion Java MolfileCreator 2.0

  0  0  0  0  0  0              0 V3000
M  V30 BEGIN CTAB
M  V30 COUNTS 6 5 0 0 0
M  V30 BEGIN ATOM
M  V30 1 O 0.0 0.0 0.0 0
M  V30 2 C 1.2154 -0.7079 0.0 0
M  V30 3 C 2.4309 0.1469 0.0 0
M  V30 4 N 2.2973 1.8565 0.0 0
M  V30 5 C 3.6464 -0.5609 0.0 0
M  V30 6 O 4.8618 0.2938 0.0 0
M  V30 END ATOM
M  V30 BEGIN BOND
M  V30 1 1 1 2
M  V30 2 1 2 3
M  V30 3 1 3 4
M  V30 4 1 3 5
M  V30 5 1 5 6
M  V30 END BOND
M  V30 END CTAB
M  END
>  <Dotmatics_CR>
R-005289

>  <CR_Set>
Amine

>  <Category>
Primary Amines Non-Aromatic

>  <Reaction type>
Amidation

>  <KI/BB_Nature>
Acid

>  <Comments>


>  <Salt>


>  <CR_Chiral_Form>


>  <Prod_total_used>
24

>  <PSR (%)>
63

>  <Article>
2-AMINOPROPANE-1,3-DIOL

>  <CAS>
534-03-2

>  <Density>
1.0

>  <Prod_reagent_number>


>  <Stereocenters>
0

>  <NB_Name reaction - KI/BB – Capping>
04-Amidation_Acid_Amine

$$$$
R-005403
Actelion Java MolfileCreator 2.0

  0  0  0  0  0  0              0 V3000
M  V30 BEGIN CTAB
M  V30 COUNTS 5 4 0 0 0
M  V30 BEGIN ATOM
M  V30 1 O 0.0 0.0 0.0 0
M  V30 2 C 1.2542 -0.6736 0.0 0
M  V30 3 C -1.4865 -0.6736 0.0 0
M  V30 4 C 2.5085 0.1858 0.0 0
M  V30 5 N 3.7628 -0.4877 0.0 0
M  V30 END ATOM
M  V30 BEGIN BOND
M  V30 1 1 1 2
M  V30 2 1 1 3
M  V30 3 1 2 4
M  V30 4 1 4 5
M  V30 END BOND
M  V30 END CTAB
M  END
>  <Dotmatics_CR>
R-005403

>  <CR_Set>
Amine

>  <Category>
Primary Amines Non-Aromatic

>  <Reaction type>
Amidation

>  <KI/BB_Nature>
Acid

>  <Comments>


>  <Salt>


>  <CR_Chiral_Form>


>  <Prod_total_used>
36

>  <PSR (%)>
81

>  <Article>
2-methoxyethanamine

>  <CAS>
109-85-3

>  <Density>
0.864

>  <Prod_reagent_number>


>  <Stereocenters>
0

>  <NB_Name reaction - KI/BB – Capping>
04-Amidation_Acid_Amine

$$$$
R-005412
Actelion Java MolfileCreator 2.0

  0  0  0  0  0  0              0 V3000
M  V30 BEGIN CTAB
M  V30 COUNTS 5 5 0 0 0
M  V30 BEGIN ATOM
M  V30 1 N 0.0 0.0 0.0 0
M  V30 2 C -0.7993 -1.1191 0.0 0
M  V30 3 C -2.3735 -0.9961 0.0 0
M  V30 4 C -3.7385 -0.1967 0.0 0
M  V30 5 C -3.7385 -1.6479 0.0 0
M  V30 END ATOM
M  V30 BEGIN BOND
M  V30 1 1 1 2
M  V30 2 1 2 3
M  V30 3 1 3 4
M  V30 4 1 3 5
M  V30 5 1 4 5
M  V30 END BOND
M  V30 END CTAB
M  END
>  <Dotmatics_CR>
R-005412

>  <CR_Set>
Amine

>  <Category>
Primary Amines Non-Aromatic

>  <Reaction type>
Amidation

>  <KI/BB_Nature>
Acid

>  <Comments>


>  <Salt>


>  <CR_Chiral_Form>


>  <Prod_total_used>
48

>  <PSR (%)>
79

>  <Article>
AMINOMETHYLCYCLOPROPANE

>  <CAS>
2516-47-4

>  <Density>
0.83

>  <Prod_reagent_number>


>  <Stereocenters>
0

>  <NB_Name reaction - KI/BB – Capping>
04-Amidation_Acid_Amine

$$$$
R-006288
Actelion Java MolfileCreator 2.0

  0  0  0  0  0  0              0 V3000
M  V30 BEGIN CTAB
M  V30 COUNTS 7 7 0 0 0
M  V30 BEGIN ATOM
M  V30 1 O 0.0 0.0 0.0 0
M  V30 2 C 1.2871 -0.6258 0.0 0
M  V30 3 C 1.169 -2.1136 0.0 0
M  V30 4 C 2.5742 0.3424 0.0 0
M  V30 5 C 2.4561 -2.7395 0.0 0
M  V30 6 C 3.8613 -0.2834 0.0 0
M  V30 7 N 3.7432 -1.7712 0.0 0
M  V30 END ATOM
M  V30 BEGIN BOND
M  V30 1 1 1 2
M  V30 2 1 2 3
M  V30 3 1 2 4
M  V30 4 1 3 5
M  V30 5 1 4 6
M  V30 6 1 5 7
M  V30 7 1 6 7
M  V30 END BOND
M  V30 END CTAB
M  END
>  <Dotmatics_CR>
R-006288

>  <CR_Set>
Amine

>  <Category>
Secondary Amines Non-Aromatic

>  <Reaction type>
Amidation

>  <KI/BB_Nature>
Acid

>  <Comments>


>  <Salt>


>  <CR_Chiral_Form>


>  <Prod_total_used>
46

>  <PSR (%)>
85

>  <Article>
piperidin-4-ol

>  <CAS>
5382-16-1

>  <Density>
1.0

>  <Prod_reagent_number>


>  <Stereocenters>
0

>  <NB_Name reaction - KI/BB – Capping>
04-Amidation_Acid_Amine

$$$$
R-006291
Actelion Java MolfileCreator 2.0

  0  0  0  0  0  0              0 V3000
M  V30 BEGIN CTAB
M  V30 COUNTS 4 3 0 0 0
M  V30 BEGIN ATOM
M  V30 1 N 0.0 0.0 0.0 0
M  V30 2 C 1.2403 0.9056 0.0 0
M  V30 3 C 2.4806 0.1968 0.0 0
M  V30 4 C 3.7209 1.1024 0.0 0
M  V30 END ATOM
M  V30 BEGIN BOND
M  V30 1 1 1 2
M  V30 2 1 2 3
M  V30 3 1 3 4
M  V30 END BOND
M  V30 END CTAB
M  END
>  <Dotmatics_CR>
R-006291

>  <CR_Set>
Amine

>  <Category>
Primary Amines Non-Aromatic

>  <Reaction type>
Amidation

>  <KI/BB_Nature>
Acid

>  <Comments>


>  <Salt>


>  <CR_Chiral_Form>


>  <Prod_total_used>
43

>  <PSR (%)>
65

>  <Article>
propan-1-amine

>  <CAS>
107-10-8

>  <Density>
0.719

>  <Prod_reagent_number>


>  <Stereocenters>
0

>  <NB_Name reaction - KI/BB – Capping>
04-Amidation_Acid_Amine

$$$$
R-006314
Actelion Java MolfileCreator 2.0

  0  0  0  0  0  0              0 V3000
M  V30 BEGIN CTAB
M  V30 COUNTS 6 5 0 0 0
M  V30 BEGIN ATOM
M  V30 1 O 0.0 0.0 0.0 0
M  V30 2 C -1.3383 -0.6064 0.0 0
M  V30 3 C -2.6767 0.1672 0.0 0
M  V30 4 C -4.0151 -0.4391 0.0 0
M  V30 5 N -5.3535 0.3345 0.0 0
M  V30 6 C -6.6918 -0.2718 0.0 0
M  V30 END ATOM
M  V30 BEGIN BOND
M  V30 1 1 1 2
M  V30 2 1 2 3
M  V30 3 1 3 4
M  V30 4 1 4 5
M  V30 5 1 5 6
M  V30 END BOND
M  V30 END CTAB
M  END
>  <Dotmatics_CR>
R-006314

>  <CR_Set>
Amine

>  <Category>
Secondary Amines Non-Aromatic

>  <Reaction type>
Amidation

>  <KI/BB_Nature>
Acid

>  <Comments>


>  <Salt>


>  <CR_Chiral_Form>


>  <Prod_total_used>
12

>  <PSR (%)>
58

>  <Article>
3-(methylamino)propan-1-ol

>  <CAS>
42055-15-2

>  <Density>
0.917

>  <Prod_reagent_number>


>  <Stereocenters>
0

>  <NB_Name reaction - KI/BB – Capping>
04-Amidation_Acid_Amine

$$$$
R-006389
Actelion Java MolfileCreator 2.0

  0  0  0  0  0  0              0 V3000
M  V30 BEGIN CTAB
M  V30 COUNTS 6 5 0 0 0
M  V30 BEGIN ATOM
M  V30 1 O 0.0 0.0 0.0 0
M  V30 2 C 1.2359 0.8468 0.0 0
M  V30 3 C -1.4648 0.8468 0.0 0
M  V30 4 C 2.4719 0.1831 0.0 0
M  V30 5 N 3.7079 1.0299 0.0 0
M  V30 6 C 4.9439 0.3547 0.0 0
M  V30 END ATOM
M  V30 BEGIN BOND
M  V30 1 1 1 2
M  V30 2 1 1 3
M  V30 3 1 2 4
M  V30 4 1 4 5
M  V30 5 1 5 6
M  V30 END BOND
M  V30 END CTAB
M  END
>  <Dotmatics_CR>
R-006389

>  <CR_Set>
Amine

>  <Category>
Secondary Amines Non-Aromatic

>  <Reaction type>
Amidation

>  <KI/BB_Nature>
Acid

>  <Comments>


>  <Salt>


>  <CR_Chiral_Form>


>  <Prod_total_used>
30

>  <PSR (%)>
80

>  <Article>
(2-methoxyethyl)methylamine

>  <CAS>
38256-93-8

>  <Density>
0.82

>  <Prod_reagent_number>


>  <Stereocenters>
0

>  <NB_Name reaction - KI/BB – Capping>
04-Amidation_Acid_Amine

$$$$
R-006430
Actelion Java MolfileCreator 2.0

  0  0  0  0  0  0              0 V3000
M  V30 BEGIN CTAB
M  V30 COUNTS 10 10 0 0 0
M  V30 BEGIN ATOM
M  V30 1 Cl 0.0 0.0 0.0 0
M  V30 2 C 1.2129 0.8664 0.0 0
M  V30 3 C 2.4259 0.1599 0.0 0
M  V30 4 C 1.0796 2.5725 0.0 0
M  V30 5 C 3.6389 1.0263 0.0 0
M  V30 6 C 2.2926 3.4389 0.0 0
M  V30 7 C 3.5056 2.7325 0.0 0
M  V30 8 C 4.8518 0.3199 0.0 0
M  V30 9 N 6.0648 1.1863 0.0 0
M  V30 10 C 7.2778 0.4798 0.0 0
M  V30 END ATOM
M  V30 BEGIN BOND
M  V30 1 1 1 2
M  V30 2 2 2 3
M  V30 3 1 2 4
M  V30 4 1 3 5
M  V30 5 2 4 6
M  V30 6 2 5 7
M  V30 7 1 5 8
M  V30 8 1 8 9
M  V30 9 1 9 10
M  V30 10 1 6 7
M  V30 END BOND
M  V30 END CTAB
M  END
>  <Dotmatics_CR>
R-006430

>  <CR_Set>
Amine

>  <Category>
Secondary Amines Non-Aromatic

>  <Reaction type>
Amidation

>  <KI/BB_Nature>
Acid

>  <Comments>


>  <Salt>


>  <CR_Chiral_Form>


>  <Prod_total_used>
4

>  <PSR (%)>
100

>  <Article>
3-CHLORO-N-METHYLBENZYLAMINE

>  <CAS>
39191-07-6

>  <Density>
1.072

>  <Prod_reagent_number>


>  <Stereocenters>
0

>  <NB_Name reaction - KI/BB – Capping>
04-Amidation_Acid_Amine

$$$$
R-006445
Actelion Java MolfileCreator 2.0

  0  0  0  0  0  0              0 V3000
M  V30 BEGIN CTAB
M  V30 COUNTS 6 5 0 0 0
M  V30 BEGIN ATOM
M  V30 1 Cl 0.0 0.0 0.0 0
M  V30 2 O 5.0598 2.5299 0.0 0
M  V30 3 C 3.5029 2.6515 0.0 0
M  V30 4 C 2.3961 1.7879 0.0 0
M  V30 5 C 2.3961 3.7583 0.0 0
M  V30 6 N 1.2892 2.8948 0.0 0
M  V30 END ATOM
M  V30 BEGIN BOND
M  V30 1 1 2 3
M  V30 2 1 3 4
M  V30 3 1 3 5
M  V30 4 1 4 6
M  V30 5 1 5 6
M  V30 END BOND
M  V30 END CTAB
M  END
>  <Dotmatics_CR>
R-006445

>  <CR_Set>
Amine

>  <Category>
Secondary Amines Non-Aromatic

>  <Reaction type>
Amidation

>  <KI/BB_Nature>
Acid

>  <Comments>


>  <Salt>
HCl

>  <CR_Chiral_Form>


>  <Prod_total_used>
12

>  <PSR (%)>
58

>  <Article>
3-HYDROXYAZETIDINE HYDROCHLORIDE

>  <CAS>
18621-18-6

>  <Density>


>  <Prod_reagent_number>


>  <Stereocenters>
0

>  <NB_Name reaction - KI/BB – Capping>
04-Amidation_Acid_Amine

$$$$
R-006503
Actelion Java MolfileCreator 2.0

  0  0  0  0  0  0              0 V3000
M  V30 BEGIN CTAB
M  V30 COUNTS 16 17 0 0 0
M  V30 BEGIN ATOM
M  V30 1 F 0.0 0.0 0.0 0
M  V30 2 C -0.8052 -1.1273 0.0 0
M  V30 3 F 0.5327 -1.0035 0.0 0
M  V30 4 F -0.1362 -2.2547 0.0 0
M  V30 5 C -2.391 -1.0035 0.0 0
M  V30 6 C -3.1963 -2.1308 0.0 0
M  V30 7 C -3.1963 0.3716 0.0 0
M  V30 8 C -4.7821 -2.007 0.0 0
M  V30 9 C -4.7821 0.4955 0.0 0
M  V30 10 C -5.5873 -0.6318 0.0 0
M  V30 11 N -7.1731 -0.5079 0.0 0
M  V30 12 C -7.9784 -1.6353 0.0 0
M  V30 13 C -7.9784 0.8672 0.0 0
M  V30 14 C -9.5642 -1.5114 0.0 0
M  V30 15 C -9.5642 0.9911 0.0 0
M  V30 16 N -10.3695 -0.1362 0.0 0
M  V30 END ATOM
M  V30 BEGIN BOND
M  V30 1 1 1 2
M  V30 2 1 2 3
M  V30 3 1 2 4
M  V30 4 1 2 5
M  V30 5 2 5 6
M  V30 6 1 5 7
M  V30 7 1 6 8
M  V30 8 2 7 9
M  V30 9 2 8 10
M  V30 10 1 10 11
M  V30 11 1 11 12
M  V30 12 1 11 13
M  V30 13 1 12 14
M  V30 14 1 13 15
M  V30 15 1 14 16
M  V30 16 1 9 10
M  V30 17 1 15 16
M  V30 END BOND
M  V30 END CTAB
M  END
>  <Dotmatics_CR>
R-006503

>  <CR_Set>
Amine

>  <Category>
Secondary Amines Non-Aromatic

>  <Reaction type>
Amidation

>  <KI/BB_Nature>
Acid

>  <Comments>


>  <Salt>


>  <CR_Chiral_Form>


>  <Prod_total_used>
4

>  <PSR (%)>
100

>  <Article>
1-(4-Trifluoromethylphenyl)piperazine

>  <CAS>
30459-17-7

>  <Density>


>  <Prod_reagent_number>


>  <Stereocenters>
0

>  <NB_Name reaction - KI/BB – Capping>
04-Amidation_Acid_Amine

$$$$
R-006564
Actelion Java MolfileCreator 2.0

  0  0  0  0  0  0              0 V3000
M  V30 BEGIN CTAB
M  V30 COUNTS 10 10 0 0 0
M  V30 BEGIN ATOM
M  V30 1 F 0.0 0.0 0.0 0
M  V30 2 C 1.2129 0.8664 0.0 0
M  V30 3 C 2.4259 0.1599 0.0 0
M  V30 4 C 1.0796 2.5725 0.0 0
M  V30 5 C 3.6389 1.0263 0.0 0
M  V30 6 C 2.2926 3.4389 0.0 0
M  V30 7 C 3.5056 2.7325 0.0 0
M  V30 8 C 4.8518 0.3199 0.0 0
M  V30 9 N 6.0648 1.1863 0.0 0
M  V30 10 C 7.2778 0.4798 0.0 0
M  V30 END ATOM
M  V30 BEGIN BOND
M  V30 1 1 1 2
M  V30 2 2 2 3
M  V30 3 1 2 4
M  V30 4 1 3 5
M  V30 5 2 4 6
M  V30 6 2 5 7
M  V30 7 1 5 8
M  V30 8 1 8 9
M  V30 9 1 9 10
M  V30 10 1 6 7
M  V30 END BOND
M  V30 END CTAB
M  END
>  <Dotmatics_CR>
R-006564

>  <CR_Set>
Amine

>  <Category>
Secondary Amines Non-Aromatic

>  <Reaction type>
Amidation

>  <KI/BB_Nature>
Acid

>  <Comments>


>  <Salt>


>  <CR_Chiral_Form>


>  <Prod_total_used>
3

>  <PSR (%)>
67

>  <Article>
3-fluoro-N-methylbenzylamine

>  <CAS>
90389-84-7

>  <Density>
1.015

>  <Prod_reagent_number>


>  <Stereocenters>
0

>  <NB_Name reaction - KI/BB – Capping>
04-Amidation_Acid_Amine

$$$$
R-006705
Actelion Java MolfileCreator 2.0

  0  0  0  0  0  0              0 V3000
M  V30 BEGIN CTAB
M  V30 COUNTS 12 13 0 0 0
M  V30 BEGIN ATOM
M  V30 1 N 0.0 0.0 0.0 0
M  V30 2 C 0.576 -1.2223 0.0 0
M  V30 3 C -1.6578 0.1685 0.0 0
M  V30 4 N 2.3462 -1.0818 0.0 0
M  V30 5 C -0.2388 -2.4305 0.0 0
M  V30 6 C -2.4727 -1.0396 0.0 0
M  V30 7 C 2.9223 -2.3041 0.0 0
M  V30 8 C 2.9223 0.4214 0.0 0
M  V30 9 C -1.8966 -2.2619 0.0 0
M  V30 10 C 4.3413 -2.1636 0.0 0
M  V30 11 C 4.3413 0.5619 0.0 0
M  V30 12 N 4.9173 -0.6603 0.0 0
M  V30 END ATOM
M  V30 BEGIN BOND
M  V30 1 2 1 2
M  V30 2 1 1 3
M  V30 3 1 2 4
M  V30 4 1 2 5
M  V30 5 2 3 6
M  V30 6 1 4 7
M  V30 7 1 4 8
M  V30 8 2 5 9
M  V30 9 1 7 10
M  V30 10 1 8 11
M  V30 11 1 10 12
M  V30 12 1 6 9
M  V30 13 1 11 12
M  V30 END BOND
M  V30 END CTAB
M  END
>  <Dotmatics_CR>
R-006705

>  <CR_Set>
Amine

>  <Category>
Secondary Amines Non-Aromatic

>  <Reaction type>
Amidation

>  <KI/BB_Nature>
Acid

>  <Comments>


>  <Salt>


>  <CR_Chiral_Form>


>  <Prod_total_used>
27

>  <PSR (%)>
74

>  <Article>
1-(2-Pyridyl)piperazine

>  <CAS>
34803-66-2

>  <Density>
1.072

>  <Prod_reagent_number>


>  <Stereocenters>
0

>  <NB_Name reaction - KI/BB – Capping>
04-Amidation_Acid_Amine

$$$$
R-008202
Actelion Java MolfileCreator 2.0

  0  0  0  0  0  0              0 V3000
M  V30 BEGIN CTAB
M  V30 COUNTS 7 6 0 0 0
M  V30 BEGIN ATOM
M  V30 1 O 0.0 0.0 0.0 0
M  V30 2 C -0.1208 1.5462 0.0 0
M  V30 3 N -1.4617 2.3435 0.0 0
M  V30 4 C 0.9785 2.3435 0.0 0
M  V30 5 C -2.8026 1.6912 0.0 0
M  V30 6 C -4.1435 2.4764 0.0 0
M  V30 7 N -5.4844 1.8361 0.0 0
M  V30 END ATOM
M  V30 BEGIN BOND
M  V30 1 2 1 2
M  V30 2 1 2 3
M  V30 3 1 2 4
M  V30 4 1 3 5
M  V30 5 1 5 6
M  V30 6 1 6 7
M  V30 END BOND
M  V30 END CTAB
M  END
>  <Dotmatics_CR>
R-008202

>  <CR_Set>
Amine

>  <Category>
Primary Amines Non-Aromatic

>  <Reaction type>
Amidation

>  <KI/BB_Nature>
Acid

>  <Comments>


>  <Salt>


>  <CR_Chiral_Form>


>  <Prod_total_used>
14

>  <PSR (%)>
71

>  <Article>
N-Acetylethylenediamine

>  <CAS>
1001-53-2

>  <Density>
1.0

>  <Prod_reagent_number>


>  <Stereocenters>
0

>  <NB_Name reaction - KI/BB – Capping>
04-Amidation_Acid_Amine

$$$$
R-008231
Actelion Java MolfileCreator 2.0

  0  0  0  0  0  0              0 V3000
M  V30 BEGIN CTAB
M  V30 COUNTS 11 11 0 0 0
M  V30 BEGIN ATOM
M  V30 1 Cl 0.0 0.0 0.0 0
M  V30 2 C -1.3793 -0.5711 0.0 0
M  V30 3 C -1.4871 -1.9181 0.0 0
M  V30 4 C -2.7586 0.3017 0.0 0
M  V30 5 Cl -0.3232 -2.4892 0.0 0
M  V30 6 C -2.8664 -2.4892 0.0 0
M  V30 7 C -4.138 -0.2694 0.0 0
M  V30 8 C -4.2457 -1.6164 0.0 0
M  V30 9 C -5.5173 0.6034 0.0 0
M  V30 10 C -6.8967 0.0323 0.0 0
M  V30 11 N -8.276 0.9051 0.0 0
M  V30 END ATOM
M  V30 BEGIN BOND
M  V30 1 1 1 2
M  V30 2 2 2 3
M  V30 3 1 2 4
M  V30 4 1 3 5
M  V30 5 1 3 6
M  V30 6 2 4 7
M  V30 7 2 6 8
M  V30 8 1 7 9
M  V30 9 1 9 10
M  V30 10 1 10 11
M  V30 11 1 7 8
M  V30 END BOND
M  V30 END CTAB
M  END
>  <Dotmatics_CR>
R-008231

>  <CR_Set>
Amine

>  <Category>
Primary Amines Non-Aromatic

>  <Reaction type>
Amidation

>  <KI/BB_Nature>
Acid

>  <Comments>


>  <Salt>


>  <CR_Chiral_Form>


>  <Prod_total_used>
4

>  <PSR (%)>
75

>  <Article>
3,4-Dichlorophenethylamine

>  <CAS>
21581-45-3

>  <Density>
1.268

>  <Prod_reagent_number>


>  <Stereocenters>
0

>  <NB_Name reaction - KI/BB – Capping>
04-Amidation_Acid_Amine

$$$$
R-008239
Actelion Java MolfileCreator 2.0

  0  0  0  0  0  0              0 V3000
M  V30 BEGIN CTAB
M  V30 COUNTS 10 10 0 0 0
M  V30 BEGIN ATOM
M  V30 1 Cl 0.0 0.0 0.0 0
M  V30 2 C -0.1181 -1.4769 0.0 0
M  V30 3 C 1.1579 -2.1032 0.0 0
M  V30 4 C -1.6305 -2.1032 0.0 0
M  V30 5 C 1.0397 -3.5801 0.0 0
M  V30 6 C -1.7487 -3.5801 0.0 0
M  V30 7 C -0.4726 -4.2064 0.0 0
M  V30 8 C 2.3158 -4.2064 0.0 0
M  V30 9 C 3.5919 -3.2493 0.0 0
M  V30 10 N 4.868 -3.8755 0.0 0
M  V30 END ATOM
M  V30 BEGIN BOND
M  V30 1 1 1 2
M  V30 2 2 2 3
M  V30 3 1 2 4
M  V30 4 1 3 5
M  V30 5 2 4 6
M  V30 6 2 5 7
M  V30 7 1 5 8
M  V30 8 1 8 9
M  V30 9 1 9 10
M  V30 10 1 6 7
M  V30 END BOND
M  V30 END CTAB
M  END
>  <Dotmatics_CR>
R-008239

>  <CR_Set>
Amine

>  <Category>
Primary Amines Non-Aromatic

>  <Reaction type>
Amidation

>  <KI/BB_Nature>
Acid

>  <Comments>


>  <Salt>


>  <CR_Chiral_Form>


>  <Prod_total_used>
4

>  <PSR (%)>
100

>  <Article>
2-(3-Chlorophenyl)ethylamine

>  <CAS>
13078-79-0

>  <Density>
1.119

>  <Prod_reagent_number>


>  <Stereocenters>
0

>  <NB_Name reaction - KI/BB – Capping>
04-Amidation_Acid_Amine

$$$$
R-008281
Actelion Java MolfileCreator 2.0

  0  0  0  0  0  0              0 V3000
M  V30 BEGIN CTAB
M  V30 COUNTS 9 9 0 0 0
M  V30 BEGIN ATOM
M  V30 1 O 0.0 0.0 0.0 0
M  V30 2 C 1.2678 -0.6221 0.0 0
M  V30 3 N 1.1504 -2.0895 0.0 0
M  V30 4 C 2.5356 0.3286 0.0 0
M  V30 5 C -0.3521 -2.7234 0.0 0
M  V30 6 C 2.4182 -2.7234 0.0 0
M  V30 7 C -0.4695 -4.1908 0.0 0
M  V30 8 C 2.3008 -4.1908 0.0 0
M  V30 9 N 0.7982 -4.8129 0.0 0
M  V30 END ATOM
M  V30 BEGIN BOND
M  V30 1 2 1 2
M  V30 2 1 2 3
M  V30 3 1 2 4
M  V30 4 1 3 5
M  V30 5 1 3 6
M  V30 6 1 5 7
M  V30 7 1 6 8
M  V30 8 1 7 9
M  V30 9 1 8 9
M  V30 END BOND
M  V30 END CTAB
M  END
>  <Dotmatics_CR>
R-008281

>  <CR_Set>
Amine

>  <Category>
Secondary Amines Non-Aromatic

>  <Reaction type>
Amidation

>  <KI/BB_Nature>
Acid

>  <Comments>


>  <Salt>


>  <CR_Chiral_Form>


>  <Prod_total_used>
33

>  <PSR (%)>
91

>  <Article>
1-piperazin-1-ylethanone

>  <CAS>
13889-98-0

>  <Density>
1.027

>  <Prod_reagent_number>


>  <Stereocenters>
0

>  <NB_Name reaction - KI/BB – Capping>
04-Amidation_Acid_Amine

$$$$
R-008497
Actelion Java MolfileCreator 2.0

  0  0  0  0  0  0              0 V3000
M  V30 BEGIN CTAB
M  V30 COUNTS 7 6 0 0 0
M  V30 BEGIN ATOM
M  V30 1 Cl 0.0 0.0 0.0 0
M  V30 2 N -5.229 0.8556 0.0 0
M  V30 3 C -4.1713 -0.202 0.0 0
M  V30 4 C -3.1136 -1.2597 0.0 0
M  V30 5 C -3.2324 -2.7571 0.0 0
M  V30 6 C -1.6162 -1.1408 0.0 0
M  V30 7 N -1.735 -2.6382 0.0 0
M  V30 END ATOM
M  V30 BEGIN BOND
M  V30 1 3 2 3
M  V30 2 1 3 4
M  V30 3 1 4 5
M  V30 4 1 4 6
M  V30 5 1 5 7
M  V30 6 1 6 7
M  V30 END BOND
M  V30 END CTAB
M  END
>  <Dotmatics_CR>
R-008497

>  <CR_Set>
Amine

>  <Category>
Secondary Amines Non-Aromatic

>  <Reaction type>
Amidation

>  <KI/BB_Nature>
Acid

>  <Comments>


>  <Salt>
HCl

>  <CR_Chiral_Form>


>  <Prod_total_used>
4

>  <PSR (%)>
50

>  <Article>
Azetidine-3-carbonitrile hydrochloride

>  <CAS>
345954-83-8

>  <Density>


>  <Prod_reagent_number>


>  <Stereocenters>
0

>  <NB_Name reaction - KI/BB – Capping>
04-Amidation_Acid_Amine

$$$$
R-008522
Actelion Java MolfileCreator 2.0

  0  0  0  0  0  0              0 V3000
M  V30 BEGIN CTAB
M  V30 COUNTS 10 10 0 0 0
M  V30 BEGIN ATOM
M  V30 1 S 0.0 0.0 0.0 0
M  V30 2 O 1.4109 0.1306 0.0 0
M  V30 3 O -1.6721 0.1306 0.0 0
M  V30 4 N -0.1306 -1.4109 0.0 0
M  V30 5 C -0.1306 1.6721 0.0 0
M  V30 6 C -1.5807 -2.1163 0.0 0
M  V30 7 C 1.0581 -2.1163 0.0 0
M  V30 8 C -1.7113 -3.5272 0.0 0
M  V30 9 C 0.9275 -3.5272 0.0 0
M  V30 10 N -0.5225 -4.2196 0.0 0
M  V30 END ATOM
M  V30 BEGIN BOND
M  V30 1 2 1 2
M  V30 2 2 1 3
M  V30 3 1 1 4
M  V30 4 1 1 5
M  V30 5 1 4 6
M  V30 6 1 4 7
M  V30 7 1 6 8
M  V30 8 1 7 9
M  V30 9 1 8 10
M  V30 10 1 9 10
M  V30 END BOND
M  V30 END CTAB
M  END
>  <Dotmatics_CR>
R-008522

>  <CR_Set>
Amine

>  <Category>
Secondary Amines Non-Aromatic

>  <Reaction type>
Amidation

>  <KI/BB_Nature>
Acid

>  <Comments>


>  <Salt>


>  <CR_Chiral_Form>


>  <Prod_total_used>
3

>  <PSR (%)>
67

>  <Article>
1-(methylsulfonyl)piperazine

>  <CAS>
55276-43-2

>  <Density>


>  <Prod_reagent_number>


>  <Stereocenters>
0

>  <NB_Name reaction - KI/BB – Capping>
04-Amidation_Acid_Amine

$$$$
R-008905
Actelion Java MolfileCreator 2.0

  0  0  0  0  0  0              0 V3000
M  V30 BEGIN CTAB
M  V30 COUNTS 10 10 0 0 0
M  V30 BEGIN ATOM
M  V30 1 N 0.0 0.0 0.0 0
M  V30 2 C 1.2665 -0.6215 0.0 0
M  V30 3 C -1.501 -0.6215 0.0 0
M  V30 4 C 1.1492 -2.0874 0.0 0
M  V30 5 C 2.533 0.3283 0.0 0
M  V30 6 C -1.6183 -2.0874 0.0 0
M  V30 7 C -0.3518 -2.7089 0.0 0
M  V30 8 C 3.7995 -0.2931 0.0 0
M  V30 9 N 5.066 0.6567 0.0 0
M  V30 10 C 6.3326 0.0351 0.0 0
M  V30 END ATOM
M  V30 BEGIN BOND
M  V30 1 2 1 2
M  V30 2 1 1 3
M  V30 3 1 2 4
M  V30 4 1 2 5
M  V30 5 2 3 6
M  V30 6 2 4 7
M  V30 7 1 5 8
M  V30 8 1 8 9
M  V30 9 1 9 10
M  V30 10 1 6 7
M  V30 END BOND
M  V30 END CTAB
M  END
>  <Dotmatics_CR>
R-008905

>  <CR_Set>
Amine

>  <Category>
Secondary Amines Non-Aromatic

>  <Reaction type>
Amidation

>  <KI/BB_Nature>
Acid

>  <Comments>


>  <Salt>


>  <CR_Chiral_Form>


>  <Prod_total_used>
24

>  <PSR (%)>
96

>  <Article>
2-(2-Methylaminoethyl)pyridine

>  <CAS>
5638-76-6

>  <Density>
0.984

>  <Prod_reagent_number>


>  <Stereocenters>
0

>  <NB_Name reaction - KI/BB – Capping>
04-Amidation_Acid_Amine

$$$$
R-008908
Actelion Java MolfileCreator 2.0

  0  0  0  0  0  0              0 V3000
M  V30 BEGIN CTAB
M  V30 COUNTS 10 10 0 0 0
M  V30 BEGIN ATOM
M  V30 1 N 0.0 0.0 0.0 0
M  V30 2 C 1.2756 -0.6378 0.0 0
M  V30 3 C 1.1575 -2.1142 0.0 0
M  V30 4 C 2.4331 -2.7402 0.0 0
M  V30 5 C -0.3543 -2.7402 0.0 0
M  V30 6 C 2.315 -4.2167 0.0 0
M  V30 7 C 3.7088 -1.7835 0.0 0
M  V30 8 C -0.4724 -4.2167 0.0 0
M  V30 9 C 0.8031 -4.8427 0.0 0
M  V30 10 C 3.5907 -4.8427 0.0 0
M  V30 END ATOM
M  V30 BEGIN BOND
M  V30 1 1 1 2
M  V30 2 1 2 3
M  V30 3 2 3 4
M  V30 4 1 3 5
M  V30 5 1 4 6
M  V30 6 1 4 7
M  V30 7 2 5 8
M  V30 8 2 6 9
M  V30 9 1 6 10
M  V30 10 1 8 9
M  V30 END BOND
M  V30 END CTAB
M  END
>  <Dotmatics_CR>
R-008908

>  <CR_Set>
Amine

>  <Category>
Primary Amines Non-Aromatic

>  <Reaction type>
Amidation

>  <KI/BB_Nature>
Acid

>  <Comments>


>  <Salt>


>  <CR_Chiral_Form>


>  <Prod_total_used>
13

>  <PSR (%)>
92

>  <Article>
2,3-Dimethylbenzylamine

>  <CAS>
51586-20-0

>  <Density>
0.952

>  <Prod_reagent_number>


>  <Stereocenters>
0

>  <NB_Name reaction - KI/BB – Capping>
04-Amidation_Acid_Amine

$$$$
R-008930
Actelion Java MolfileCreator 2.0

  0  0  0  0  0  0              0 V3000
M  V30 BEGIN CTAB
M  V30 COUNTS 10 10 0 0 0
M  V30 BEGIN ATOM
M  V30 1 N 0.0 0.0 0.0 0
M  V30 2 C -1.5022 -0.622 0.0 0
M  V30 3 C -1.6195 -2.0889 0.0 0
M  V30 4 C -0.352 -2.711 0.0 0
M  V30 5 C -3.1217 -2.711 0.0 0
M  V30 6 C -0.4694 -4.1779 0.0 0
M  V30 7 C -3.2391 -4.1779 0.0 0
M  V30 8 C -1.9716 -4.7999 0.0 0
M  V30 9 C 0.798 -4.7999 0.0 0
M  V30 10 C -2.0889 -6.2669 0.0 0
M  V30 END ATOM
M  V30 BEGIN BOND
M  V30 1 1 1 2
M  V30 2 1 2 3
M  V30 3 2 3 4
M  V30 4 1 3 5
M  V30 5 1 4 6
M  V30 6 2 5 7
M  V30 7 2 6 8
M  V30 8 1 6 9
M  V30 9 1 8 10
M  V30 10 1 7 8
M  V30 END BOND
M  V30 END CTAB
M  END
>  <Dotmatics_CR>
R-008930

>  <CR_Set>
Amine

>  <Category>
Primary Amines Non-Aromatic

>  <Reaction type>
Amidation

>  <KI/BB_Nature>
Acid

>  <Comments>


>  <Salt>


>  <CR_Chiral_Form>


>  <Prod_total_used>
12

>  <PSR (%)>
92

>  <Article>
3,4-Dimethylbenzylamine

>  <CAS>
102-48-7

>  <Density>
0.95

>  <Prod_reagent_number>


>  <Stereocenters>
0

>  <NB_Name reaction - KI/BB – Capping>
04-Amidation_Acid_Amine

$$$$
R-008937
Actelion Java MolfileCreator 2.0

  0  0  0  0  0  0              0 V3000
M  V30 BEGIN CTAB
M  V30 COUNTS 8 8 0 0 0
M  V30 BEGIN ATOM
M  V30 1 N 0.0 0.0 0.0 0
M  V30 2 C -0.1147 -1.4349 0.0 0
M  V30 3 C -1.4693 0.9298 0.0 0
M  V30 4 C 1.1249 -2.0433 0.0 0
M  V30 5 C -1.5841 -2.0433 0.0 0
M  V30 6 C 1.0101 -3.4782 0.0 0
M  V30 7 C -1.6989 -3.4782 0.0 0
M  V30 8 C -0.4591 -4.0866 0.0 0
M  V30 END ATOM
M  V30 BEGIN BOND
M  V30 1 1 1 2
M  V30 2 1 1 3
M  V30 3 1 2 4
M  V30 4 1 2 5
M  V30 5 1 4 6
M  V30 6 1 5 7
M  V30 7 1 6 8
M  V30 8 1 7 8
M  V30 END BOND
M  V30 END CTAB
M  END
>  <Dotmatics_CR>
R-008937

>  <CR_Set>
Amine

>  <Category>
Secondary Amines Non-Aromatic

>  <Reaction type>
Amidation

>  <KI/BB_Nature>
Acid

>  <Comments>


>  <Salt>


>  <CR_Chiral_Form>


>  <Prod_total_used>
10

>  <PSR (%)>
80

>  <Article>
N-Methylcyclohexylamine

>  <CAS>
100-60-7

>  <Density>
0.868

>  <Prod_reagent_number>


>  <Stereocenters>
0

>  <NB_Name reaction - KI/BB – Capping>
04-Amidation_Acid_Amine

$$$$
R-008938
Actelion Java MolfileCreator 2.0

  0  0  0  0  0  0              0 V3000
M  V30 BEGIN CTAB
M  V30 COUNTS 12 12 0 0 0
M  V30 BEGIN ATOM
M  V30 1 O 0.0 0.0 0.0 0
M  V30 2 C -1.4658 -0.6184 0.0 0
M  V30 3 C 1.2368 -0.6184 0.0 0
M  V30 4 C -2.9317 0.3206 0.0 0
M  V30 5 C 2.4737 0.3206 0.0 0
M  V30 6 O -4.3976 -0.3206 0.0 0
M  V30 7 N 3.7105 -0.3206 0.0 0
M  V30 8 C 4.9474 0.6184 0.0 0
M  V30 9 C 3.596 -1.7522 0.0 0
M  V30 10 C 6.1842 -0.0343 0.0 0
M  V30 11 C 4.8328 -2.3706 0.0 0
M  V30 12 N 6.0697 -1.4658 0.0 0
M  V30 END ATOM
M  V30 BEGIN BOND
M  V30 1 1 1 2
M  V30 2 1 1 3
M  V30 3 1 2 4
M  V30 4 1 3 5
M  V30 5 1 4 6
M  V30 6 1 5 7
M  V30 7 1 7 8
M  V30 8 1 7 9
M  V30 9 1 8 10
M  V30 10 1 9 11
M  V30 11 1 10 12
M  V30 12 1 11 12
M  V30 END BOND
M  V30 END CTAB
M  END
>  <Dotmatics_CR>
R-008938

>  <CR_Set>
Amine

>  <Category>
Secondary Amines Non-Aromatic

>  <Reaction type>
Amidation

>  <KI/BB_Nature>
Acid

>  <Comments>


>  <Salt>


>  <CR_Chiral_Form>


>  <Prod_total_used>
26

>  <PSR (%)>
69

>  <Article>
1-[2-(2-Hydroxyethoxy)ethyl]piperazine

>  <CAS>
13349-82-1

>  <Density>
1.061

>  <Prod_reagent_number>


>  <Stereocenters>
0

>  <NB_Name reaction - KI/BB – Capping>
04-Amidation_Acid_Amine

$$$$
R-008944
Actelion Java MolfileCreator 2.0

  0  0  0  0  0  0              0 V3000
M  V30 BEGIN CTAB
M  V30 COUNTS 8 8 0 0 0
M  V30 BEGIN ATOM
M  V30 1 O 0.0 0.0 0.0 0
M  V30 2 C -0.1147 -1.4349 0.0 0
M  V30 3 C -1.4693 0.9298 0.0 0
M  V30 4 C -1.5841 -2.0433 0.0 0
M  V30 5 C 1.1249 -2.0433 0.0 0
M  V30 6 C -1.6989 -3.4782 0.0 0
M  V30 7 C 1.0101 -3.4782 0.0 0
M  V30 8 N -0.4591 -4.0866 0.0 0
M  V30 END ATOM
M  V30 BEGIN BOND
M  V30 1 1 1 2
M  V30 2 1 1 3
M  V30 3 1 2 4
M  V30 4 1 2 5
M  V30 5 1 4 6
M  V30 6 1 5 7
M  V30 7 1 6 8
M  V30 8 1 7 8
M  V30 END BOND
M  V30 END CTAB
M  END
>  <Dotmatics_CR>
R-008944

>  <CR_Set>
Amine

>  <Category>
Secondary Amines Non-Aromatic

>  <Reaction type>
Amidation

>  <KI/BB_Nature>
Acid

>  <Comments>


>  <Salt>


>  <CR_Chiral_Form>


>  <Prod_total_used>
39

>  <PSR (%)>
82

>  <Article>
4-methoxypiperidine

>  <CAS>
4045-24-3

>  <Density>
0.93

>  <Prod_reagent_number>


>  <Stereocenters>
0

>  <NB_Name reaction - KI/BB – Capping>
04-Amidation_Acid_Amine

$$$$
R-008958
Actelion Java MolfileCreator 2.0

  0  0  0  0  0  0              0 V3000
M  V30 BEGIN CTAB
M  V30 COUNTS 10 10 0 0 0
M  V30 BEGIN ATOM
M  V30 1 F 0.0 0.0 0.0 0
M  V30 2 C -1.3673 0.8007 0.0 0
M  V30 3 C -1.4905 2.3775 0.0 0
M  V30 4 C -2.7347 0.1478 0.0 0
M  V30 5 C -2.8579 3.1782 0.0 0
M  V30 6 C -0.3695 3.1782 0.0 0
M  V30 7 C -4.1021 0.9485 0.0 0
M  V30 8 C -4.2253 2.5253 0.0 0
M  V30 9 N 0.7514 2.5253 0.0 0
M  V30 10 C 1.8724 3.326 0.0 0
M  V30 END ATOM
M  V30 BEGIN BOND
M  V30 1 1 1 2
M  V30 2 2 2 3
M  V30 3 1 2 4
M  V30 4 1 3 5
M  V30 5 1 3 6
M  V30 6 2 4 7
M  V30 7 2 5 8
M  V30 8 1 6 9
M  V30 9 1 9 10
M  V30 10 1 7 8
M  V30 END BOND
M  V30 END CTAB
M  END
>  <Dotmatics_CR>
R-008958

>  <CR_Set>
Amine

>  <Category>
Secondary Amines Non-Aromatic

>  <Reaction type>
Amidation

>  <KI/BB_Nature>
Acid

>  <Comments>


>  <Salt>


>  <CR_Chiral_Form>


>  <Prod_total_used>
3

>  <PSR (%)>
67

>  <Article>
2-Fluoro-N-methylbenzylamine

>  <CAS>
399-30-4

>  <Density>
1.047

>  <Prod_reagent_number>


>  <Stereocenters>
0

>  <NB_Name reaction - KI/BB – Capping>
04-Amidation_Acid_Amine

$$$$
R-008964
Actelion Java MolfileCreator 2.0

  0  0  0  0  0  0              0 V3000
M  V30 BEGIN CTAB
M  V30 COUNTS 11 12 0 0 0
M  V30 BEGIN ATOM
M  V30 1 N 0.0 0.0 0.0 0
M  V30 2 N -0.9647 -1.0588 0.0 0
M  V30 3 C -0.9647 1.2941 0.0 0
M  V30 4 C -2.4707 -0.4823 0.0 0
M  V30 5 C -0.6235 -2.3295 0.0 0
M  V30 6 C -2.4707 0.9529 0.0 0
M  V30 7 C -3.8472 -1.1294 0.0 0
M  V30 8 C -3.8472 1.7765 0.0 0
M  V30 9 N -3.9648 -2.4707 0.0 0
M  V30 10 C -5.2237 -0.3058 0.0 0
M  V30 11 C -5.2237 1.1529 0.0 0
M  V30 END ATOM
M  V30 BEGIN BOND
M  V30 1 1 1 2
M  V30 2 2 1 3
M  V30 3 1 2 4
M  V30 4 1 2 5
M  V30 5 1 3 6
M  V30 6 1 4 7
M  V30 7 1 6 8
M  V30 8 1 7 9
M  V30 9 2 7 10
M  V30 10 2 8 11
M  V30 11 2 4 6
M  V30 12 1 10 11
M  V30 END BOND
M  V30 END CTAB
M  END
>  <Dotmatics_CR>
R-008964

>  <CR_Set>
Amine

>  <Category>
Primary Amines Aromatic

>  <Reaction type>
Amidation

>  <KI/BB_Nature>
Acid

>  <Comments>


>  <Salt>


>  <CR_Chiral_Form>


>  <Prod_total_used>
11

>  <PSR (%)>
73

>  <Article>
7-Amino-1-methylindazole

>  <CAS>
41926-06-1

>  <Density>
1.0

>  <Prod_reagent_number>


>  <Stereocenters>
0

>  <NB_Name reaction - KI/BB – Capping>
04-Amidation_Acid_Amine

$$$$
R-008972
Actelion Java MolfileCreator 2.0

  0  0  0  0  0  0              0 V3000
M  V30 BEGIN CTAB
M  V30 COUNTS 10 10 0 0 0
M  V30 BEGIN ATOM
M  V30 1 O 0.0 0.0 0.0 0
M  V30 2 C -0.1137 -1.422 0.0 0
M  V30 3 C -1.4561 0.9214 0.0 0
M  V30 4 N 1.1148 -2.0363 0.0 0
M  V30 5 C -1.5699 -2.0363 0.0 0
M  V30 6 C 1.0011 -3.4584 0.0 0
M  V30 7 N -3.0261 -1.1035 0.0 0
M  V30 8 C -1.6837 -3.4584 0.0 0
M  V30 9 C -0.455 -4.0614 0.0 0
M  V30 10 C 2.2297 -4.0614 0.0 0
M  V30 END ATOM
M  V30 BEGIN BOND
M  V30 1 1 1 2
M  V30 2 1 1 3
M  V30 3 2 2 4
M  V30 4 1 2 5
M  V30 5 1 4 6
M  V30 6 1 5 7
M  V30 7 2 5 8
M  V30 8 2 6 9
M  V30 9 1 6 10
M  V30 10 1 8 9
M  V30 END BOND
M  V30 END CTAB
M  END
>  <Dotmatics_CR>
R-008972

>  <CR_Set>
Amine

>  <Category>
Primary Amines Aromatic

>  <Reaction type>
Amidation

>  <KI/BB_Nature>
Acid

>  <Comments>


>  <Salt>


>  <CR_Chiral_Form>


>  <Prod_total_used>
22

>  <PSR (%)>
91

>  <Article>
3-Amino-2-methoxy-6-picoline

>  <CAS>
186413-79-6

>  <Density>
1.103

>  <Prod_reagent_number>


>  <Stereocenters>
0

>  <NB_Name reaction - KI/BB – Capping>
04-Amidation_Acid_Amine

$$$$
R-008985
Actelion Java MolfileCreator 2.0

  0  0  0  0  0  0              0 V3000
M  V30 BEGIN CTAB
M  V30 COUNTS 12 12 0 0 0
M  V30 BEGIN ATOM
M  V30 1 O 0.0 0.0 0.0 0
M  V30 2 C 1.1992 0.8566 0.0 0
M  V30 3 C -1.4628 0.8566 0.0 0
M  V30 4 C 2.3985 0.1581 0.0 0
M  V30 5 C 1.0675 2.5435 0.0 0
M  V30 6 C 3.5978 1.0147 0.0 0
M  V30 7 C 2.2668 3.4002 0.0 0
M  V30 8 C 3.4661 2.7017 0.0 0
M  V30 9 C 4.6654 3.5583 0.0 0
M  V30 10 N 5.8647 2.8598 0.0 0
M  V30 11 C 7.0639 3.7165 0.0 0
M  V30 12 C 8.2632 3.018 0.0 0
M  V30 END ATOM
M  V30 BEGIN BOND
M  V30 1 1 1 2
M  V30 2 1 1 3
M  V30 3 2 2 4
M  V30 4 1 2 5
M  V30 5 1 4 6
M  V30 6 2 5 7
M  V30 7 2 6 8
M  V30 8 1 8 9
M  V30 9 1 9 10
M  V30 10 1 10 11
M  V30 11 1 11 12
M  V30 12 1 7 8
M  V30 END BOND
M  V30 END CTAB
M  END
>  <Dotmatics_CR>
R-008985

>  <CR_Set>
Amine

>  <Category>
Secondary Amines Non-Aromatic

>  <Reaction type>
Amidation

>  <KI/BB_Nature>
Acid

>  <Comments>


>  <Salt>


>  <CR_Chiral_Form>


>  <Prod_total_used>
4

>  <PSR (%)>
100

>  <Article>
N-Ethyl-4-methoxybenzylamine

>  <CAS>
22993-76-6

>  <Density>
0.963

>  <Prod_reagent_number>


>  <Stereocenters>
0

>  <NB_Name reaction - KI/BB – Capping>
04-Amidation_Acid_Amine

$$$$
R-008998
Actelion Java MolfileCreator 2.0

  0  0  0  0  0  0              0 V3000
M  V30 BEGIN CTAB
M  V30 COUNTS 13 11 0 0 0
M  V30 BEGIN ATOM
M  V30 1 Cl 0.0 0.0 0.0 0
M  V30 2 Cl 7.5477 -2.3295 0.0 0
M  V30 3 N -0.3727 -2.2363 0.0 0
M  V30 4 N -0.7803 -3.669 0.0 0
M  V30 5 C 1.0832 -1.9801 0.0 0
M  V30 6 C 0.4892 -4.3096 0.0 0
M  V30 7 N 1.584 -3.3196 0.0 0
M  V30 8 C 1.7238 -0.5008 0.0 0
M  V30 9 C 3.0167 -3.5176 0.0 0
M  V30 10 N 3.1914 -0.396 0.0 0
M  V30 11 C 3.3661 -4.9153 0.0 0
M  V30 12 C 3.9951 -2.2247 0.0 0
M  V30 13 C 3.8321 1.0832 0.0 0
M  V30 END ATOM
M  V30 BEGIN BOND
M  V30 1 1 3 4
M  V30 2 2 3 5
M  V30 3 2 4 6
M  V30 4 1 5 7
M  V30 5 1 5 8
M  V30 6 1 7 9
M  V30 7 1 8 10
M  V30 8 1 9 11
M  V30 9 1 9 12
M  V30 10 1 10 13
M  V30 11 1 6 7
M  V30 END BOND
M  V30 END CTAB
M  END
>  <Dotmatics_CR>
R-008998

>  <CR_Set>
Amine

>  <Category>
Secondary Amines Non-Aromatic

>  <Reaction type>
Amidation

>  <KI/BB_Nature>
Acid

>  <Comments>


>  <Salt>
HCl

>  <CR_Chiral_Form>


>  <Prod_total_used>
6

>  <PSR (%)>
83

>  <Article>
1-(4-Isopropyl-4H-1,2,4-triazol-3-yl)-N-methylmethanamine dihydrochloride

>  <CAS>
1269379-00-1

>  <Density>
1.0

>  <Prod_reagent_number>


>  <Stereocenters>
0

>  <NB_Name reaction - KI/BB – Capping>
04-Amidation_Acid_Amine

$$$$
R-008999
Actelion Java MolfileCreator 2.0

  0  0  0  0  0  0              0 V3000
M  V30 BEGIN CTAB
M  V30 COUNTS 7 7 0 0 0
M  V30 BEGIN ATOM
M  V30 1 N 0.0 0.0 0.0 0
M  V30 2 C -1.5621 0.122 0.0 0
M  V30 3 C 0.6468 1.3546 0.0 0
M  V30 4 C -2.4896 1.3912 0.0 0
M  V30 5 C -2.4896 -0.9031 0.0 0
M  V30 6 C -3.9785 1.0373 0.0 0
M  V30 7 C -3.9785 -0.3051 0.0 0
M  V30 END ATOM
M  V30 BEGIN BOND
M  V30 1 1 1 2
M  V30 2 1 1 3
M  V30 3 1 2 4
M  V30 4 1 2 5
M  V30 5 1 4 6
M  V30 6 1 5 7
M  V30 7 1 6 7
M  V30 END BOND
M  V30 END CTAB
M  END
>  <Dotmatics_CR>
R-008999

>  <CR_Set>
Amine

>  <Category>
Secondary Amines Non-Aromatic

>  <Reaction type>
Amidation

>  <KI/BB_Nature>
Acid

>  <Comments>


>  <Salt>


>  <CR_Chiral_Form>


>  <Prod_total_used>
44

>  <PSR (%)>
84

>  <Article>
Cyclopentyl-methyl-amine

>  <CAS>
2439-56-7

>  <Density>
0.84

>  <Prod_reagent_number>


>  <Stereocenters>
0

>  <NB_Name reaction - KI/BB – Capping>
04-Amidation_Acid_Amine

$$$$
R-009128
Actelion Java MolfileCreator 2.0

  0  0  0  0  0  0              0 V3000
M  V30 BEGIN CTAB
M  V30 COUNTS 11 11 0 0 0
M  V30 BEGIN ATOM
M  V30 1 O 0.0 0.0 0.0 0
M  V30 2 C -0.1297 -1.401 0.0 0
M  V30 3 C -1.44 0.8432 0.0 0
M  V30 4 C -1.5697 -2.0886 0.0 0
M  V30 5 C 1.0508 -2.0886 0.0 0
M  V30 6 C -1.5697 2.5037 0.0 0
M  V30 7 C -1.6994 -3.4897 0.0 0
M  V30 8 C 0.921 -3.4897 0.0 0
M  V30 9 C -0.5189 -4.1902 0.0 0
M  V30 10 C -0.6486 -5.5913 0.0 0
M  V30 11 N -2.0886 -6.2918 0.0 0
M  V30 END ATOM
M  V30 BEGIN BOND
M  V30 1 1 1 2
M  V30 2 1 1 3
M  V30 3 2 2 4
M  V30 4 1 2 5
M  V30 5 1 3 6
M  V30 6 1 4 7
M  V30 7 2 5 8
M  V30 8 2 7 9
M  V30 9 1 9 10
M  V30 10 1 10 11
M  V30 11 1 8 9
M  V30 END BOND
M  V30 END CTAB
M  END
>  <Dotmatics_CR>
R-009128

>  <CR_Set>
Amine

>  <Category>
Primary Amines Non-Aromatic

>  <Reaction type>
Amidation

>  <KI/BB_Nature>
Acid

>  <Comments>


>  <Salt>


>  <CR_Chiral_Form>


>  <Prod_total_used>
3

>  <PSR (%)>
67

>  <Article>
4-Ethoxybenzylamine

>  <CAS>
6850-60-8

>  <Density>
1.008

>  <Prod_reagent_number>


>  <Stereocenters>
0

>  <NB_Name reaction - KI/BB – Capping>
04-Amidation_Acid_Amine

$$$$
R-009177
Actelion Java MolfileCreator 2.0

  0  0  0  0  0  0              0 V3000
M  V30 BEGIN CTAB
M  V30 COUNTS 9 8 0 0 0
M  V30 BEGIN ATOM
M  V30 1 O 0.0 0.0 0.0 0
M  V30 2 C -0.1266 1.6213 0.0 0
M  V30 3 O 1.0259 2.4446 0.0 0
M  V30 4 C -1.5326 2.4446 0.0 0
M  V30 5 C 2.1786 1.7606 0.0 0
M  V30 6 N -2.9386 1.7606 0.0 0
M  V30 7 C 3.3313 2.5966 0.0 0
M  V30 8 C 2.0519 0.3926 0.0 0
M  V30 9 C 2.0519 3.3819 0.0 0
M  V30 END ATOM
M  V30 BEGIN BOND
M  V30 1 2 1 2
M  V30 2 1 2 3
M  V30 3 1 2 4
M  V30 4 1 3 5
M  V30 5 1 4 6
M  V30 6 1 5 7
M  V30 7 1 5 8
M  V30 8 1 5 9
M  V30 END BOND
M  V30 END CTAB
M  END
>  <Dotmatics_CR>
R-009177

>  <CR_Set>
Amine

>  <Category>
Primary Amines Non-Aromatic

>  <Reaction type>
Amidation

>  <KI/BB_Nature>
Acid

>  <Comments>


>  <Salt>


>  <CR_Chiral_Form>


>  <Prod_total_used>
23

>  <PSR (%)>
57

>  <Article>
tert-Butyl 2-aminoacetate

>  <CAS>
6456-74-2

>  <Density>
0.96

>  <Prod_reagent_number>


>  <Stereocenters>
0

>  <NB_Name reaction - KI/BB – Capping>
04-Amidation_Acid_Amine

$$$$
R-009310
Actelion Java MolfileCreator 2.0

  0  0  0  0  0  0              0 V3000
M  V30 BEGIN CTAB
M  V30 COUNTS 13 13 0 0 0
M  V30 BEGIN ATOM
M  V30 1 F 0.0 0.0 0.0 0
M  V30 2 C 1.1754 -0.6974 0.0 0
M  V30 3 F 2.3508 0.142 0.0 0
M  V30 4 F 1.0462 0.9558 0.0 0
M  V30 5 C 1.0462 -2.0924 0.0 0
M  V30 6 C -0.3874 -2.7899 0.0 0
M  V30 7 C 2.2216 -2.7899 0.0 0
M  V30 8 C -0.5166 -4.1849 0.0 0
M  V30 9 C -1.8212 -1.9504 0.0 0
M  V30 10 C 2.0924 -4.1849 0.0 0
M  V30 11 C 0.6587 -4.8695 0.0 0
M  V30 12 C -3.2549 -2.6478 0.0 0
M  V30 13 N -4.6887 -1.8083 0.0 0
M  V30 END ATOM
M  V30 BEGIN BOND
M  V30 1 1 1 2
M  V30 2 1 2 3
M  V30 3 1 2 4
M  V30 4 1 2 5
M  V30 5 2 5 6
M  V30 6 1 5 7
M  V30 7 1 6 8
M  V30 8 1 6 9
M  V30 9 2 7 10
M  V30 10 2 8 11
M  V30 11 1 9 12
M  V30 12 1 12 13
M  V30 13 1 10 11
M  V30 END BOND
M  V30 END CTAB
M  END
>  <Dotmatics_CR>
R-009310

>  <CR_Set>
Amine

>  <Category>
Primary Amines Non-Aromatic

>  <Reaction type>
Amidation

>  <KI/BB_Nature>
Acid

>  <Comments>


>  <Salt>


>  <CR_Chiral_Form>


>  <Prod_total_used>
4

>  <PSR (%)>
75

>  <Article>
2-[2-(Trifluoromethyl)phenyl]ethylamine

>  <CAS>
774-18-5

>  <Density>
1.186

>  <Prod_reagent_number>


>  <Stereocenters>
0

>  <NB_Name reaction - KI/BB – Capping>
04-Amidation_Acid_Amine

$$$$
R-009331
Actelion Java MolfileCreator 2.0

  0  0  0  0  0  0              0 V3000
M  V30 BEGIN CTAB
M  V30 COUNTS 14 15 0 0 0
M  V30 BEGIN ATOM
M  V30 1 N 0.0 0.0 0.0 0
M  V30 2 C -1.3817 -0.5937 0.0 0
M  V30 3 C -2.7635 -1.2198 0.0 0
M  V30 4 C -2.8714 -2.5692 0.0 0
M  V30 5 C -4.1452 -0.3346 0.0 0
M  V30 6 C -4.2532 -3.1521 0.0 0
M  V30 7 C -5.527 -0.9283 0.0 0
M  V30 8 C -5.6349 -2.2669 0.0 0
M  V30 9 N -7.0167 -2.8714 0.0 0
M  V30 10 C -8.3985 -1.9862 0.0 0
M  V30 11 C -7.1246 -4.2208 0.0 0
M  V30 12 C -9.7802 -2.5692 0.0 0
M  V30 13 C -8.5064 -4.8037 0.0 0
M  V30 14 N -9.8882 -3.9185 0.0 0
M  V30 END ATOM
M  V30 BEGIN BOND
M  V30 1 3 1 2
M  V30 2 1 2 3
M  V30 3 2 3 4
M  V30 4 1 3 5
M  V30 5 1 4 6
M  V30 6 2 5 7
M  V30 7 2 6 8
M  V30 8 1 8 9
M  V30 9 1 9 10
M  V30 10 1 9 11
M  V30 11 1 10 12
M  V30 12 1 11 13
M  V30 13 1 12 14
M  V30 14 1 7 8
M  V30 15 1 13 14
M  V30 END BOND
M  V30 END CTAB
M  END
>  <Dotmatics_CR>
R-009331

>  <CR_Set>
Amine

>  <Category>
Secondary Amines Non-Aromatic

>  <Reaction type>
Amidation

>  <KI/BB_Nature>
Acid

>  <Comments>


>  <Salt>


>  <CR_Chiral_Form>


>  <Prod_total_used>
3

>  <PSR (%)>
100

>  <Article>
4-Piperazinobenzonitrile

>  <CAS>
68104-63-2

>  <Density>


>  <Prod_reagent_number>


>  <Stereocenters>
0

>  <NB_Name reaction - KI/BB – Capping>
04-Amidation_Acid_Amine

$$$$
R-009354
Actelion Java MolfileCreator 2.0

  0  0  0  0  0  0              0 V3000
M  V30 BEGIN CTAB
M  V30 COUNTS 14 14 0 0 0
M  V30 BEGIN ATOM
M  V30 1 O 0.0 0.0 0.0 0
M  V30 2 C 1.1969 0.8587 0.0 0
M  V30 3 C -1.4572 0.8587 0.0 0
M  V30 4 C 2.3939 0.1561 0.0 0
M  V30 5 N 3.5909 1.0018 0.0 0
M  V30 6 C 4.7879 0.2992 0.0 0
M  V30 7 C 5.9849 1.1579 0.0 0
M  V30 8 C 6.024 2.8233 0.0 0
M  V30 9 C 7.26 0.6115 0.0 0
M  V30 10 N 7.4031 3.3047 0.0 0
M  V30 11 C 4.7749 3.9422 0.0 0
M  V30 12 N 8.1187 1.8605 0.0 0
M  V30 13 C 7.4812 -0.7676 0.0 0
M  V30 14 C 9.5239 1.8215 0.0 0
M  V30 END ATOM
M  V30 BEGIN BOND
M  V30 1 1 1 2
M  V30 2 1 1 3
M  V30 3 1 2 4
M  V30 4 1 4 5
M  V30 5 1 5 6
M  V30 6 1 6 7
M  V30 7 1 7 8
M  V30 8 2 7 9
M  V30 9 2 8 10
M  V30 10 1 8 11
M  V30 11 1 9 12
M  V30 12 1 9 13
M  V30 13 1 12 14
M  V30 14 1 10 12
M  V30 END BOND
M  V30 END CTAB
M  END
>  <Dotmatics_CR>
R-009354

>  <CR_Set>
Amine

>  <Category>
Secondary Amines Non-Aromatic

>  <Reaction type>
Amidation

>  <KI/BB_Nature>
Acid

>  <Comments>


>  <Salt>


>  <CR_Chiral_Form>


>  <Prod_total_used>
9

>  <PSR (%)>
89

>  <Article>
(2-Methoxyethyl)[(1,3,5-trimethyl-1H-pyrazol-4-yl)methyl]amine

>  <CAS>
1015845-58-5

>  <Density>
1.048

>  <Prod_reagent_number>


>  <Stereocenters>
0

>  <NB_Name reaction - KI/BB – Capping>
04-Amidation_Acid_Amine

$$$$
R-009374
Actelion Java MolfileCreator 2.0

  0  0  0  0  0  0              0 V3000
M  V30 BEGIN CTAB
M  V30 COUNTS 6 5 0 0 0
M  V30 BEGIN ATOM
M  V30 1 N 0.0 0.0 0.0 0
M  V30 2 C -0.1118 -1.3977 0.0 0
M  V30 3 C -1.5431 -1.9904 0.0 0
M  V30 4 C 1.0958 -1.9904 0.0 0
M  V30 5 C -2.9744 -1.0846 0.0 0
M  V30 6 C 2.3035 -1.0846 0.0 0
M  V30 END ATOM
M  V30 BEGIN BOND
M  V30 1 1 1 2
M  V30 2 1 2 3
M  V30 3 1 2 4
M  V30 4 1 3 5
M  V30 5 1 4 6
M  V30 END BOND
M  V30 END CTAB
M  END
>  <Dotmatics_CR>
R-009374

>  <CR_Set>
Amine

>  <Category>
Primary Amines Non-Aromatic

>  <Reaction type>
Amidation

>  <KI/BB_Nature>
Acid

>  <Comments>


>  <Salt>


>  <CR_Chiral_Form>


>  <Prod_total_used>
27

>  <PSR (%)>
89

>  <Article>
1-Ethylpropylamine

>  <CAS>
616-24-0

>  <Density>
0.748

>  <Prod_reagent_number>


>  <Stereocenters>
0

>  <NB_Name reaction - KI/BB – Capping>
04-Amidation_Acid_Amine

$$$$
R-009717
Actelion Java MolfileCreator 2.0

  0  0  0  0  0  0              0 V3000
M  V30 BEGIN CTAB
M  V30 COUNTS 13 13 0 0 0
M  V30 BEGIN ATOM
M  V30 1 N 0.0 0.0 0.0 0
M  V30 2 C -0.1308 -1.4133 0.0 0
M  V30 3 C -1.4525 0.8506 0.0 0
M  V30 4 C 1.1908 0.8506 0.0 0
M  V30 5 C 1.0599 -2.1068 0.0 0
M  V30 6 C -1.5834 -2.1068 0.0 0
M  V30 7 C -1.5834 2.5256 0.0 0
M  V30 8 C 2.3816 0.157 0.0 0
M  V30 9 C 0.9291 -3.5202 0.0 0
M  V30 10 C -1.7142 -3.5202 0.0 0
M  V30 11 N -3.036 3.3762 0.0 0
M  V30 12 C -0.5234 -4.2137 0.0 0
M  V30 13 C 2.1199 -4.2137 0.0 0
M  V30 END ATOM
M  V30 BEGIN BOND
M  V30 1 1 1 2
M  V30 2 1 1 3
M  V30 3 1 1 4
M  V30 4 2 2 5
M  V30 5 1 2 6
M  V30 6 1 3 7
M  V30 7 1 4 8
M  V30 8 1 5 9
M  V30 9 2 6 10
M  V30 10 1 7 11
M  V30 11 2 9 12
M  V30 12 1 9 13
M  V30 13 1 10 12
M  V30 END BOND
M  V30 END CTAB
M  END
>  <Dotmatics_CR>
R-009717

>  <CR_Set>
Amine

>  <Category>
Primary Amines Non-Aromatic

>  <Reaction type>
Amidation

>  <KI/BB_Nature>
Acid

>  <Comments>


>  <Salt>


>  <CR_Chiral_Form>


>  <Prod_total_used>
3

>  <PSR (%)>
67

>  <Article>
N-(2-Aminoethyl)-N-ethyl-m-toluidine

>  <CAS>
19248-13-6

>  <Density>
0.98

>  <Prod_reagent_number>


>  <Stereocenters>
0

>  <NB_Name reaction - KI/BB – Capping>
04-Amidation_Acid_Amine

$$$$
R-010198
Actelion Java MolfileCreator 2.0

  0  0  0  0  0  0              0 V3000
M  V30 BEGIN CTAB
M  V30 COUNTS 7 6 0 0 0
M  V30 BEGIN ATOM
M  V30 1 O 0.0 0.0 0.0 0
M  V30 2 C 1.2142 -0.7071 0.0 0
M  V30 3 C 2.4284 0.1601 0.0 0
M  V30 4 C 3.6427 -0.547 0.0 0
M  V30 5 C 2.295 1.868 0.0 0
M  V30 6 C 3.6427 1.0274 0.0 0
M  V30 7 N 4.8569 0.3202 0.0 0
M  V30 END ATOM
M  V30 BEGIN BOND
M  V30 1 1 1 2
M  V30 2 1 2 3
M  V30 3 1 3 4
M  V30 4 1 3 5
M  V30 5 1 3 6
M  V30 6 1 4 7
M  V30 END BOND
M  V30 END CTAB
M  END
>  <Dotmatics_CR>
R-010198

>  <CR_Set>
Amine

>  <Category>
Primary Amines Non-Aromatic

>  <Reaction type>
Amidation

>  <KI/BB_Nature>
Acid

>  <Comments>


>  <Salt>


>  <CR_Chiral_Form>


>  <Prod_total_used>
22

>  <PSR (%)>
73

>  <Article>
3-Amino-2,2-dimethyl-1-propanol

>  <CAS>
26734-09-8

>  <Density>
1.0

>  <Prod_reagent_number>


>  <Stereocenters>
0

>  <NB_Name reaction - KI/BB – Capping>
04-Amidation_Acid_Amine

$$$$
R-010231
Actelion Java MolfileCreator 2.0

  0  0  0  0  0  0              0 V3000
M  V30 BEGIN CTAB
M  V30 COUNTS 9 9 0 0 0
M  V30 BEGIN ATOM
M  V30 1 N 0.0 0.0 0.0 0
M  V30 2 C 1.1812 0.8437 0.0 0
M  V30 3 C -1.4408 0.8437 0.0 0
M  V30 4 C -0.1298 -1.4019 0.0 0
M  V30 5 C 2.3625 0.1557 0.0 0
M  V30 6 C 1.0514 2.5053 0.0 0
M  V30 7 C 3.5438 0.9995 0.0 0
M  V30 8 C 2.2327 3.349 0.0 0
M  V30 9 N 3.414 2.6611 0.0 0
M  V30 END ATOM
M  V30 BEGIN BOND
M  V30 1 1 1 2
M  V30 2 1 1 3
M  V30 3 1 1 4
M  V30 4 1 2 5
M  V30 5 1 2 6
M  V30 6 1 5 7
M  V30 7 1 6 8
M  V30 8 1 7 9
M  V30 9 1 8 9
M  V30 END BOND
M  V30 END CTAB
M  END
>  <Dotmatics_CR>
R-010231

>  <CR_Set>
Amine

>  <Category>
Secondary Amines Non-Aromatic

>  <Reaction type>
Amidation

>  <KI/BB_Nature>
Acid

>  <Comments>


>  <Salt>


>  <CR_Chiral_Form>


>  <Prod_total_used>
43

>  <PSR (%)>
67

>  <Article>
4-Dimethylaminopiperidine

>  <CAS>
50533-97-6

>  <Density>
0.91

>  <Prod_reagent_number>


>  <Stereocenters>
0

>  <NB_Name reaction - KI/BB – Capping>
04-Amidation_Acid_Amine

$$$$
R-010234
Actelion Java MolfileCreator 2.0

  0  0  0  0  0  0              0 V3000
M  V30 BEGIN CTAB
M  V30 COUNTS 10 10 0 0 0
M  V30 BEGIN ATOM
M  V30 1 O 0.0 0.0 0.0 0
M  V30 2 C -0.1221 1.5629 0.0 0
M  V30 3 C 1.1111 -0.6471 0.0 0
M  V30 4 C -1.4775 2.3566 0.0 0
M  V30 5 N -1.5996 3.9196 0.0 0
M  V30 6 C -2.955 4.7133 0.0 0
M  V30 7 C -0.4884 4.7133 0.0 0
M  V30 8 C -3.0771 6.2763 0.0 0
M  V30 9 C -0.6105 6.2763 0.0 0
M  V30 10 N -1.9659 7.07 0.0 0
M  V30 END ATOM
M  V30 BEGIN BOND
M  V30 1 1 1 2
M  V30 2 1 1 3
M  V30 3 1 2 4
M  V30 4 1 4 5
M  V30 5 1 5 6
M  V30 6 1 5 7
M  V30 7 1 6 8
M  V30 8 1 7 9
M  V30 9 1 8 10
M  V30 10 1 9 10
M  V30 END BOND
M  V30 END CTAB
M  END
>  <Dotmatics_CR>
R-010234

>  <CR_Set>
Amine

>  <Category>
Secondary Amines Non-Aromatic

>  <Reaction type>
Amidation

>  <KI/BB_Nature>
Acid

>  <Comments>


>  <Salt>


>  <CR_Chiral_Form>


>  <Prod_total_used>
22

>  <PSR (%)>
82

>  <Article>
1-(2-Methoxyethyl)piperazine

>  <CAS>
13484-40-7

>  <Density>
0.97

>  <Prod_reagent_number>


>  <Stereocenters>
0

>  <NB_Name reaction - KI/BB – Capping>
04-Amidation_Acid_Amine

$$$$
R-010238
Actelion Java MolfileCreator 2.0

  0  0  0  0  0  0              0 V3000
M  V30 BEGIN CTAB
M  V30 COUNTS 10 10 0 0 0
M  V30 BEGIN ATOM
M  V30 1 N 0.0 0.0 0.0 0
M  V30 2 C 1.27 -0.6232 0.0 0
M  V30 3 C -1.5052 -0.6232 0.0 0
M  V30 4 C 2.54 0.3292 0.0 0
M  V30 5 C 3.8101 -0.2939 0.0 0
M  V30 6 C 3.6925 -1.7639 0.0 0
M  V30 7 C 5.0801 0.6585 0.0 0
M  V30 8 C 4.9625 -2.3872 0.0 0
M  V30 9 C 6.3501 0.0352 0.0 0
M  V30 10 C 6.2325 -1.4346 0.0 0
M  V30 END ATOM
M  V30 BEGIN BOND
M  V30 1 1 1 2
M  V30 2 1 1 3
M  V30 3 1 2 4
M  V30 4 1 4 5
M  V30 5 2 5 6
M  V30 6 1 5 7
M  V30 7 1 6 8
M  V30 8 2 7 9
M  V30 9 2 8 10
M  V30 10 1 9 10
M  V30 END BOND
M  V30 END CTAB
M  END
>  <Dotmatics_CR>
R-010238

>  <CR_Set>
Amine

>  <Category>
Secondary Amines Non-Aromatic

>  <Reaction type>
Amidation

>  <KI/BB_Nature>
Acid

>  <Comments>


>  <Salt>


>  <CR_Chiral_Form>


>  <Prod_total_used>
7

>  <PSR (%)>
71

>  <Article>
N-Methyl-phenethylamine

>  <CAS>
589-08-2

>  <Density>
0.93

>  <Prod_reagent_number>


>  <Stereocenters>
0

>  <NB_Name reaction - KI/BB – Capping>
04-Amidation_Acid_Amine

$$$$
R-010241
Actelion Java MolfileCreator 2.0

  0  0  0  0  0  0              0 V3000
M  V30 BEGIN CTAB
M  V30 COUNTS 10 10 0 0 0
M  V30 BEGIN ATOM
M  V30 1 O 0.0 0.0 0.0 0
M  V30 2 C 1.1443 0.8174 0.0 0
M  V30 3 O 2.2887 0.1509 0.0 0
M  V30 4 N 1.0186 2.427 0.0 0
M  V30 5 C 2.163 -1.2072 0.0 0
M  V30 6 C -0.3772 3.2445 0.0 0
M  V30 7 C 2.163 3.2445 0.0 0
M  V30 8 C -0.503 4.8541 0.0 0
M  V30 9 C 2.0372 4.8541 0.0 0
M  V30 10 N 0.6413 5.6841 0.0 0
M  V30 END ATOM
M  V30 BEGIN BOND
M  V30 1 2 1 2
M  V30 2 1 2 3
M  V30 3 1 2 4
M  V30 4 1 3 5
M  V30 5 1 4 6
M  V30 6 1 4 7
M  V30 7 1 6 8
M  V30 8 1 7 9
M  V30 9 1 8 10
M  V30 10 1 9 10
M  V30 END BOND
M  V30 END CTAB
M  END
>  <Dotmatics_CR>
R-010241

>  <CR_Set>
Amine

>  <Category>
Secondary Amines Non-Aromatic

>  <Reaction type>
Amidation

>  <KI/BB_Nature>
Acid

>  <Comments>


>  <Salt>


>  <CR_Chiral_Form>


>  <Prod_total_used>
12

>  <PSR (%)>
92

>  <Article>
Methylpiperazine-1-carboxylate

>  <CAS>
50606-31-0

>  <Density>
1.099

>  <Prod_reagent_number>


>  <Stereocenters>
0

>  <NB_Name reaction - KI/BB – Capping>
04-Amidation_Acid_Amine

$$$$
R-010371
Actelion Java MolfileCreator 2.0

  0  0  0  0  0  0              0 V3000
M  V30 BEGIN CTAB
M  V30 COUNTS 6 5 0 0 0
M  V30 BEGIN ATOM
M  V30 1 N 0.0 0.0 0.0 0
M  V30 2 C -1.3684 -0.6534 0.0 0
M  V30 3 C 1.1219 -0.6534 0.0 0
M  V30 4 C -2.7369 0.1479 0.0 0
M  V30 5 C -4.1054 -0.5054 0.0 0
M  V30 6 C -2.8602 1.726 0.0 0
M  V30 END ATOM
M  V30 BEGIN BOND
M  V30 1 1 1 2
M  V30 2 1 1 3
M  V30 3 1 2 4
M  V30 4 1 4 5
M  V30 5 1 4 6
M  V30 END BOND
M  V30 END CTAB
M  END
>  <Dotmatics_CR>
R-010371

>  <CR_Set>
Amine

>  <Category>
Secondary Amines Non-Aromatic

>  <Reaction type>
Amidation

>  <KI/BB_Nature>
Acid

>  <Comments>


>  <Salt>


>  <CR_Chiral_Form>


>  <Prod_total_used>
39

>  <PSR (%)>
77

>  <Article>
N-Methylisobutylamine

>  <CAS>
625-43-4

>  <Density>
0.73

>  <Prod_reagent_number>


>  <Stereocenters>
0

>  <NB_Name reaction - KI/BB – Capping>
04-Amidation_Acid_Amine

$$$$
R-010373
Actelion Java MolfileCreator 2.0

  0  0  0  0  0  0              0 V3000
M  V30 BEGIN CTAB
M  V30 COUNTS 7 6 0 0 0
M  V30 BEGIN ATOM
M  V30 1 N 0.0 0.0 0.0 0
M  V30 2 C -1.3944 -0.5773 0.0 0
M  V30 3 C 1.1765 -0.5773 0.0 0
M  V30 4 C -2.7889 0.305 0.0 0
M  V30 5 C -4.1834 -0.2832 0.0 0
M  V30 6 C -5.5778 0.5991 0.0 0
M  V30 7 C -4.2923 -1.645 0.0 0
M  V30 END ATOM
M  V30 BEGIN BOND
M  V30 1 1 1 2
M  V30 2 1 1 3
M  V30 3 1 2 4
M  V30 4 1 4 5
M  V30 5 1 5 6
M  V30 6 1 5 7
M  V30 END BOND
M  V30 END CTAB
M  END
>  <Dotmatics_CR>
R-010373

>  <CR_Set>
Amine

>  <Category>
Secondary Amines Non-Aromatic

>  <Reaction type>
Amidation

>  <KI/BB_Nature>
Acid

>  <Comments>


>  <Salt>


>  <CR_Chiral_Form>


>  <Prod_total_used>
16

>  <PSR (%)>
75

>  <Article>
N-Methylisoamylamine

>  <CAS>
4104-44-3

>  <Density>
0.74

>  <Prod_reagent_number>


>  <Stereocenters>
0

>  <NB_Name reaction - KI/BB – Capping>
04-Amidation_Acid_Amine

$$$$
R-010554
Actelion Java MolfileCreator 2.0

  0  0  0  0  0  0              0 V3000
M  V30 BEGIN CTAB
M  V30 COUNTS 15 16 0 0 0
M  V30 BEGIN ATOM
M  V30 1 Cl 0.0 0.0 0.0 0
M  V30 2 C 1.1997 -0.6987 0.0 0
M  V30 3 C 2.3994 0.1713 0.0 0
M  V30 4 C 1.0679 -2.1226 0.0 0
M  V30 5 C 2.2676 1.8589 0.0 0
M  V30 6 C 3.5992 -0.5273 0.0 0
M  V30 7 C 2.2676 -2.8345 0.0 0
M  V30 8 O 0.8042 2.7291 0.0 0
M  V30 9 N 3.4674 2.7291 0.0 0
M  V30 10 C 3.4674 -1.9512 0.0 0
M  V30 11 C 3.3355 4.4166 0.0 0
M  V30 12 C 4.6671 2.0171 0.0 0
M  V30 13 C 4.5353 5.2736 0.0 0
M  V30 14 C 5.8669 2.8873 0.0 0
M  V30 15 N 5.735 4.5616 0.0 0
M  V30 END ATOM
M  V30 BEGIN BOND
M  V30 1 1 1 2
M  V30 2 2 2 3
M  V30 3 1 2 4
M  V30 4 1 3 5
M  V30 5 1 3 6
M  V30 6 2 4 7
M  V30 7 2 5 8
M  V30 8 1 5 9
M  V30 9 2 6 10
M  V30 10 1 9 11
M  V30 11 1 9 12
M  V30 12 1 11 13
M  V30 13 1 12 14
M  V30 14 1 13 15
M  V30 15 1 7 10
M  V30 16 1 14 15
M  V30 END BOND
M  V30 END CTAB
M  END
>  <Dotmatics_CR>
R-010554

>  <CR_Set>
Amine

>  <Category>
Secondary Amines Non-Aromatic

>  <Reaction type>
Amidation

>  <KI/BB_Nature>
Acid

>  <Comments>


>  <Salt>


>  <CR_Chiral_Form>


>  <Prod_total_used>
4

>  <PSR (%)>
75

>  <Article>
(2-Chloro-phenyl)-piperazin-1-yl-methanone

>  <CAS>
13754-45-5

>  <Density>


>  <Prod_reagent_number>


>  <Stereocenters>
0

>  <NB_Name reaction - KI/BB – Capping>
04-Amidation_Acid_Amine

$$$$
R-010556
Actelion Java MolfileCreator 2.0

  0  0  0  0  0  0              0 V3000
M  V30 BEGIN CTAB
M  V30 COUNTS 15 16 0 0 0
M  V30 BEGIN ATOM
M  V30 1 S 0.0 0.0 0.0 0
M  V30 2 O 0.6756 1.4149 0.0 0
M  V30 3 O -0.8285 -1.16 0.0 0
M  V30 4 N 1.16 -0.6756 0.0 0
M  V30 5 C -1.4149 0.8285 0.0 0
M  V30 6 C 2.32 0.1657 0.0 0
M  V30 7 C 1.0325 -2.0523 0.0 0
M  V30 8 C -1.5424 2.4602 0.0 0
M  V30 9 C -2.8299 0.1529 0.0 0
M  V30 10 C 3.4801 -0.5099 0.0 0
M  V30 11 C 2.1925 -2.7279 0.0 0
M  V30 12 C -2.9574 3.3016 0.0 0
M  V30 13 C -4.2449 0.9815 0.0 0
M  V30 14 N 3.3526 -1.8866 0.0 0
M  V30 15 C -4.3724 2.626 0.0 0
M  V30 END ATOM
M  V30 BEGIN BOND
M  V30 1 2 1 2
M  V30 2 2 1 3
M  V30 3 1 1 4
M  V30 4 1 1 5
M  V30 5 1 4 6
M  V30 6 1 4 7
M  V30 7 2 5 8
M  V30 8 1 5 9
M  V30 9 1 6 10
M  V30 10 1 7 11
M  V30 11 1 8 12
M  V30 12 2 9 13
M  V30 13 1 10 14
M  V30 14 2 12 15
M  V30 15 1 11 14
M  V30 16 1 13 15
M  V30 END BOND
M  V30 END CTAB
M  END
>  <Dotmatics_CR>
R-010556

>  <CR_Set>
Amine

>  <Category>
Secondary Amines Non-Aromatic

>  <Reaction type>
Amidation

>  <KI/BB_Nature>
Acid

>  <Comments>


>  <Salt>


>  <CR_Chiral_Form>


>  <Prod_total_used>
4

>  <PSR (%)>
100

>  <Article>
1-Phenyl sulfonyl piperazine

>  <CAS>
14172-55-5

>  <Density>


>  <Prod_reagent_number>


>  <Stereocenters>
0

>  <NB_Name reaction - KI/BB – Capping>
04-Amidation_Acid_Amine

$$$$
R-011765
Actelion Java MolfileCreator 2.0

  0  0  0  0  0  0              0 V3000
M  V30 BEGIN CTAB
M  V30 COUNTS 6 6 0 0 0
M  V30 BEGIN ATOM
M  V30 1 O 0.0 0.0 0.0 0
M  V30 2 C -1.1556 -0.9016 0.0 0
M  V30 3 C -1.1556 1.1556 0.0 0
M  V30 4 C -2.3112 0.2539 0.0 0
M  V30 5 N -3.9366 0.3809 0.0 0
M  V30 6 C -4.7113 -0.4952 0.0 0
M  V30 END ATOM
M  V30 BEGIN BOND
M  V30 1 1 1 2
M  V30 2 1 1 3
M  V30 3 1 2 4
M  V30 4 1 4 5
M  V30 5 1 5 6
M  V30 6 1 3 4
M  V30 END BOND
M  V30 END CTAB
M  END
>  <Dotmatics_CR>
R-011765

>  <CR_Set>
Amine

>  <Category>
Secondary Amines Non-Aromatic

>  <Reaction type>
Amidation

>  <KI/BB_Nature>
Acid

>  <Comments>


>  <Salt>


>  <CR_Chiral_Form>


>  <Prod_total_used>
8

>  <PSR (%)>
100

>  <Article>
3-Oxetanamine, N-methyl-

>  <CAS>
952182-03-5

>  <Density>


>  <Prod_reagent_number>


>  <Stereocenters>
0

>  <NB_Name reaction - KI/BB – Capping>
04-Amidation_Acid_Amine

$$$$
R-011779
Actelion Java MolfileCreator 2.0

  0  0  0  0  0  0              0 V3000
M  V30 BEGIN CTAB
M  V30 COUNTS 7 7 0 0 0
M  V30 BEGIN ATOM
M  V30 1 O 0.0 0.0 0.0 0
M  V30 2 C 0.8665 1.104 0.0 0
M  V30 3 C -1.1158 1.104 0.0 0
M  V30 4 C -0.2374 2.2198 0.0 0
M  V30 5 C -1.3532 3.3357 0.0 0
M  V30 6 C 0.6291 3.3357 0.0 0
M  V30 7 N -1.0683 4.8552 0.0 0
M  V30 END ATOM
M  V30 BEGIN BOND
M  V30 1 1 1 2
M  V30 2 1 1 3
M  V30 3 1 2 4
M  V30 4 1 4 5
M  V30 5 1 4 6
M  V30 6 1 5 7
M  V30 7 1 3 4
M  V30 END BOND
M  V30 END CTAB
M  END
>  <Dotmatics_CR>
R-011779

>  <CR_Set>
Amine

>  <Category>
Primary Amines Non-Aromatic

>  <Reaction type>
Amidation

>  <KI/BB_Nature>
Acid

>  <Comments>


>  <Salt>


>  <CR_Chiral_Form>


>  <Prod_total_used>
4

>  <PSR (%)>
100

>  <Article>
(3-methyloxetan-3-yl)methanamine

>  <CAS>
153209-97-3

>  <Density>


>  <Prod_reagent_number>


>  <Stereocenters>
0

>  <NB_Name reaction - KI/BB – Capping>
04-Amidation_Acid_Amine

$$$$
R-011788
Actelion Java MolfileCreator 2.0

  0  0  0  0  0  0              0 V3000
M  V30 BEGIN CTAB
M  V30 COUNTS 5 5 0 0 0
M  V30 BEGIN ATOM
M  V30 1 N 0.0 0.0 0.0 0
M  V30 2 C 1.219 0.9228 0.0 0
M  V30 3 C -1.2076 0.6949 0.0 0
M  V30 4 C 2.6431 1.0367 0.0 0
M  V30 5 C 1.857 2.3811 0.0 0
M  V30 END ATOM
M  V30 BEGIN BOND
M  V30 1 1 1 2
M  V30 2 1 1 3
M  V30 3 1 2 4
M  V30 4 1 2 5
M  V30 5 1 4 5
M  V30 END BOND
M  V30 END CTAB
M  END
>  <Dotmatics_CR>
R-011788

>  <CR_Set>
Amine

>  <Category>
Secondary Amines Non-Aromatic

>  <Reaction type>
Amidation

>  <KI/BB_Nature>
Acid

>  <Comments>


>  <Salt>


>  <CR_Chiral_Form>


>  <Prod_total_used>
8

>  <PSR (%)>
75

>  <Article>
Cyclopropanamine, N-methyl-

>  <CAS>
5163-20-2

>  <Density>


>  <Prod_reagent_number>


>  <Stereocenters>
0

>  <NB_Name reaction - KI/BB – Capping>
04-Amidation_Acid_Amine

$$$$
