CTX-1020456
OCL MolfileCreator  2D

  0  0  0  0  0  0              0 V3000
M  V30 BEGIN CTAB
M  V30 COUNTS 39 44 0 0 0
M  V30 BEGIN ATOM
M  V30 1 Cl 9.7817 0.8848 0.0 0
M  V30 2 C 9.5737 -0.0932 0.0 0
M  V30 3 C 8.6602 -0.5 0.0 0
M  V30 4 C 10.2429 -0.8364 0.0 0
M  V30 5 S 8.7647 -1.4945 0.0 0
M  V30 6 C 7.7942 0.0 0.0 0
M  V30 7 C 9.7429 -1.7024 0.0 0
M  V30 8 C 11.2429 -0.8364 0.0 0
M  V30 9 O 7.7942 0.9999 0.0 0
M  V30 10 N 6.9282 -0.5 0.0 0
M  V30 11 C 10.2429 -2.5684 0.0 0
M  V30 12 C 11.7429 -1.7024 0.0 0
M  V30 13 C 6.0621 0.0 0.0 0
M  V30 14 C 6.9282 -1.4999 0.0 0
M  V30 15 C 11.2429 -2.5684 0.0 0
M  V30 16 C 5.1961 -0.5 0.0 0
M  V30 17 C 6.0621 -1.9999 0.0 0
M  V30 18 N 4.3301 0.0 0.0 0
M  V30 19 C 5.1961 -1.4999 0.0 0
M  V30 20 C 3.4641 -0.5 0.0 0
M  V30 21 C 4.3301 -2.0 0.0 0
M  V30 22 C 2.598 0.0 0.0 0
M  V30 23 C 3.4641 -1.4999 0.0 0
M  V30 24 O 2.598 1.0 0.0 0
M  V30 25 N 1.732 -0.5 0.0 0
M  V30 26 C 0.866 0.0 0.0 0
M  V30 27 C 0.0 -0.5 0.0 0
M  V30 28 C -0.866 0.0 0.0 0
M  V30 29 C 0.0 -1.4999 0.0 0
M  V30 30 C -1.732 -0.4999 0.0 0
M  V30 31 C -0.866 -1.9999 0.0 0
M  V30 32 C -1.732 -1.4999 0.0 0
M  V30 33 N -2.598 -1.9999 0.0 0
M  V30 34 C -3.4641 -1.4999 0.0 0
M  V30 35 C -2.598 -2.9999 0.0 0
M  V30 36 C -4.3301 -1.9999 0.0 0
M  V30 37 C -3.4641 -3.4999 0.0 0
M  V30 38 N -4.3301 -2.9999 0.0 0
M  V30 39 C -5.1961 -3.4999 0.0 0
M  V30 END ATOM
M  V30 BEGIN BOND
M  V30 1 1 1 2
M  V30 2 2 2 3
M  V30 3 1 2 4
M  V30 4 1 3 5
M  V30 5 1 3 6
M  V30 6 2 4 7
M  V30 7 1 4 8
M  V30 8 2 6 9
M  V30 9 1 6 10
M  V30 10 1 7 11
M  V30 11 2 8 12
M  V30 12 1 10 13
M  V30 13 1 10 14
M  V30 14 2 11 15
M  V30 15 1 13 16
M  V30 16 1 14 17
M  V30 17 2 16 18
M  V30 18 1 16 19
M  V30 19 1 18 20
M  V30 20 2 19 21
M  V30 21 1 20 22
M  V30 22 2 20 23
M  V30 23 2 22 24
M  V30 24 1 22 25
M  V30 25 1 25 26
M  V30 26 1 26 27
M  V30 27 2 27 28
M  V30 28 1 27 29
M  V30 29 1 28 30
M  V30 30 2 29 31
M  V30 31 2 30 32
M  V30 32 1 32 33
M  V30 33 1 33 34
M  V30 34 1 33 35
M  V30 35 1 34 36
M  V30 36 1 35 37
M  V30 37 1 36 38
M  V30 38 1 38 39
M  V30 39 1 5 7
M  V30 40 1 12 15
M  V30 41 1 17 19
M  V30 42 1 21 23
M  V30 43 1 31 32
M  V30 44 1 37 38
M  V30 END BOND
M  V30 END CTAB
M  END
>  <pIC50>
5.958607

>  <Serie>
Naphthyridine

>  <Molecule Name>
CTX-1020456

>  <SMILES>
CN1CCN(CC1)C1=CC=C(CNC(=O)C2=CC=C3CCN(CC3=N2)C(=O)C2=C(Cl)C3=C(S2)C=CC=C3)C=C1

$$$$
CTX-1020698
OCL MolfileCreator  2D

  0  0  0  0  0  0              0 V3000
M  V30 BEGIN CTAB
M  V30 COUNTS 38 43 0 0 0
M  V30 BEGIN ATOM
M  V30 1 O 5.1961 -0.75 0.0 0
M  V30 2 C 3.8971 0.0 0.0 0
M  V30 3 N 2.598 -0.75 0.0 0
M  V30 4 C 3.8971 1.5 0.0 0
M  V30 5 C 1.299 0.0 0.0 0
M  V30 6 N 5.1961 2.25 0.0 0
M  V30 7 C 2.598 2.25 0.0 0
M  V30 8 C 0.0 -0.75 0.0 0
M  V30 9 C 5.1961 3.75 0.0 0
M  V30 10 C 2.598 3.75 0.0 0
M  V30 11 C -1.299 0.0 0.0 0
M  V30 12 C 0.0 -2.2499 0.0 0
M  V30 13 C 3.8971 4.5 0.0 0
M  V30 14 C 6.4951 4.5 0.0 0
M  V30 15 C -2.598 -0.7499 0.0 0
M  V30 16 C -1.299 -2.9999 0.0 0
M  V30 17 C 3.8971 6.0 0.0 0
M  V30 18 N 6.4951 6.0 0.0 0
M  V30 19 C -2.598 -2.2499 0.0 0
M  V30 20 C 5.1961 6.75 0.0 0
M  V30 21 C 7.7942 6.75 0.0 0
M  V30 22 C -3.8971 -2.9999 0.0 0
M  V30 23 O 9.0932 6.0 0.0 0
M  V30 24 C 7.7942 8.25 0.0 0
M  V30 25 C -5.1961 -2.2499 0.0 0
M  V30 26 C -3.8971 -4.4999 0.0 0
M  V30 27 O 9.0077 9.1316 0.0 0
M  V30 28 C 6.5807 9.1316 0.0 0
M  V30 29 C -6.4951 -2.9999 0.0 0
M  V30 30 C -5.1961 -5.2499 0.0 0
M  V30 31 C 8.5442 10.5582 0.0 0
M  V30 32 C 7.0442 10.5582 0.0 0
M  V30 33 C 5.1541 8.6681 0.0 0
M  V30 34 N -6.4951 -4.4999 0.0 0
M  V30 35 C 9.2942 11.8573 0.0 0
M  V30 36 C 6.2942 11.8573 0.0 0
M  V30 37 C 8.5442 13.1563 0.0 0
M  V30 38 C 7.0442 13.1563 0.0 0
M  V30 END ATOM
M  V30 BEGIN BOND
M  V30 1 2 1 2
M  V30 2 1 2 3
M  V30 3 1 2 4
M  V30 4 1 3 5
M  V30 5 2 4 6
M  V30 6 1 4 7
M  V30 7 1 5 8
M  V30 8 1 6 9
M  V30 9 2 7 10
M  V30 10 2 8 11
M  V30 11 1 8 12
M  V30 12 2 9 13
M  V30 13 1 9 14
M  V30 14 1 11 15
M  V30 15 2 12 16
M  V30 16 1 13 17
M  V30 17 1 14 18
M  V30 18 2 15 19
M  V30 19 1 17 20
M  V30 20 1 18 21
M  V30 21 1 19 22
M  V30 22 2 21 23
M  V30 23 1 21 24
M  V30 24 2 22 25
M  V30 25 1 22 26
M  V30 26 1 24 27
M  V30 27 2 24 28
M  V30 28 1 25 29
M  V30 29 2 26 30
M  V30 30 1 27 31
M  V30 31 1 28 32
M  V30 32 1 28 33
M  V30 33 2 29 34
M  V30 34 1 31 35
M  V30 35 1 32 36
M  V30 36 2 35 37
M  V30 37 2 36 38
M  V30 38 1 10 13
M  V30 39 1 16 19
M  V30 40 1 18 20
M  V30 41 1 30 34
M  V30 42 2 31 32
M  V30 43 1 37 38
M  V30 END BOND
M  V30 END CTAB
M  END
>  <pIC50>
5.954677

>  <Serie>
Naphthyridine

>  <Molecule Name>
CTX-1020698

>  <SMILES>
CC1=C(OC2=C1C=CC=C2)C(=O)N1CCC2=CC=C(N=C2C1)C(=O)NCC1=CC=C(C=C1)C1=CC=NC=C1

$$$$
CTX-1020800
OCL MolfileCreator  2D

  0  0  0  0  0  0              0 V3000
M  V30 BEGIN CTAB
M  V30 COUNTS 38 43 0 0 0
M  V30 BEGIN ATOM
M  V30 1 O 7.5467 -3.4344 0.0 0
M  V30 2 C 6.5467 -3.4344 0.0 0
M  V30 3 N 6.0467 -2.5684 0.0 0
M  V30 4 C 6.0467 -4.3005 0.0 0
M  V30 5 C 5.0467 -2.5684 0.0 0
M  V30 6 C 6.5467 -1.7024 0.0 0
M  V30 7 O 5.0522 -4.405 0.0 0
M  V30 8 C 6.4535 -5.214 0.0 0
M  V30 9 C 4.5467 -1.7024 0.0 0
M  V30 10 C 6.0467 -0.8364 0.0 0
M  V30 11 C 4.8443 -5.3831 0.0 0
M  V30 12 C 5.7103 -5.8831 0.0 0
M  V30 13 C 7.4316 -5.4219 0.0 0
M  V30 14 C 5.0467 -0.8364 0.0 0
M  V30 15 C 3.5686 -1.4945 0.0 0
M  V30 16 C 3.9783 -5.8831 0.0 0
M  V30 17 C 5.7103 -6.8831 0.0 0
M  V30 18 N 4.3776 -0.0932 0.0 0
M  V30 19 C 3.4641 -0.5 0.0 0
M  V30 20 C 3.9783 -6.8831 0.0 0
M  V30 21 C 4.8443 -7.3831 0.0 0
M  V30 22 C 2.598 0.0 0.0 0
M  V30 23 O 2.598 1.0 0.0 0
M  V30 24 N 1.732 -0.5 0.0 0
M  V30 25 C 0.866 0.0 0.0 0
M  V30 26 C 0.0 -0.5 0.0 0
M  V30 27 C -0.866 0.0 0.0 0
M  V30 28 C 0.0 -1.4999 0.0 0
M  V30 29 C -1.732 -0.4999 0.0 0
M  V30 30 C -0.866 -1.9999 0.0 0
M  V30 31 C -1.732 -1.4999 0.0 0
M  V30 32 N -2.598 -1.9999 0.0 0
M  V30 33 C -3.4641 -1.4999 0.0 0
M  V30 34 C -2.598 -2.9999 0.0 0
M  V30 35 C -4.3301 -1.9999 0.0 0
M  V30 36 C -3.4641 -3.4999 0.0 0
M  V30 37 N -4.3301 -2.9999 0.0 0
M  V30 38 C -5.1961 -3.4999 0.0 0
M  V30 END ATOM
M  V30 BEGIN BOND
M  V30 1 2 1 2
M  V30 2 1 2 3
M  V30 3 1 2 4
M  V30 4 1 3 5
M  V30 5 1 3 6
M  V30 6 1 4 7
M  V30 7 2 4 8
M  V30 8 1 5 9
M  V30 9 1 6 10
M  V30 10 1 7 11
M  V30 11 1 8 12
M  V30 12 1 8 13
M  V30 13 2 9 14
M  V30 14 1 9 15
M  V30 15 1 11 16
M  V30 16 1 12 17
M  V30 17 1 14 18
M  V30 18 2 15 19
M  V30 19 2 16 20
M  V30 20 2 17 21
M  V30 21 1 19 22
M  V30 22 2 22 23
M  V30 23 1 22 24
M  V30 24 1 24 25
M  V30 25 1 25 26
M  V30 26 2 26 27
M  V30 27 1 26 28
M  V30 28 1 27 29
M  V30 29 2 28 30
M  V30 30 2 29 31
M  V30 31 1 31 32
M  V30 32 1 32 33
M  V30 33 1 32 34
M  V30 34 1 33 35
M  V30 35 1 34 36
M  V30 36 1 35 37
M  V30 37 1 37 38
M  V30 38 1 10 14
M  V30 39 2 11 12
M  V30 40 1 18 19
M  V30 41 1 20 21
M  V30 42 1 30 31
M  V30 43 1 36 37
M  V30 END BOND
M  V30 END CTAB
M  END
>  <pIC50>
5.931814

>  <Serie>
Other

>  <Molecule Name>
CTX-1020800

>  <SMILES>
CN1CCN(CC1)C1=CC=C(CNC(=O)C2=CC3=C(CCN(C3)C(=O)C3=C(C)C4=C(O3)C=CC=C4)N2)C=C1

$$$$
CTX-1020670
OCL MolfileCreator  2D

  0  0  0  0  0  0              0 V3000
M  V30 BEGIN CTAB
M  V30 COUNTS 31 35 0 0 0
M  V30 BEGIN ATOM
M  V30 1 Cl 7.4316 -5.4219 0.0 0
M  V30 2 C 6.4535 -5.214 0.0 0
M  V30 3 C 6.0467 -4.3005 0.0 0
M  V30 4 C 5.7103 -5.8831 0.0 0
M  V30 5 S 5.0522 -4.405 0.0 0
M  V30 6 C 6.5467 -3.4344 0.0 0
M  V30 7 C 4.8443 -5.3831 0.0 0
M  V30 8 C 5.7103 -6.8831 0.0 0
M  V30 9 O 7.5467 -3.4344 0.0 0
M  V30 10 N 6.0467 -2.5684 0.0 0
M  V30 11 C 3.9783 -5.8831 0.0 0
M  V30 12 C 4.8443 -7.3831 0.0 0
M  V30 13 C 5.0467 -2.5684 0.0 0
M  V30 14 C 6.5467 -1.7024 0.0 0
M  V30 15 C 3.9783 -6.8831 0.0 0
M  V30 16 C 4.5467 -1.7024 0.0 0
M  V30 17 C 6.0467 -0.8364 0.0 0
M  V30 18 C 5.0467 -0.8364 0.0 0
M  V30 19 C 3.5686 -1.4945 0.0 0
M  V30 20 S 4.3776 -0.0932 0.0 0
M  V30 21 C 3.4641 -0.5 0.0 0
M  V30 22 C 2.598 0.0 0.0 0
M  V30 23 O 2.598 1.0 0.0 0
M  V30 24 N 1.732 -0.5 0.0 0
M  V30 25 C 0.866 0.0 0.0 0
M  V30 26 C 0.0 -0.5 0.0 0
M  V30 27 C -0.866 0.0 0.0 0
M  V30 28 C 0.0 -1.4999 0.0 0
M  V30 29 C -1.732 -0.4999 0.0 0
M  V30 30 C -0.866 -1.9999 0.0 0
M  V30 31 C -1.732 -1.4999 0.0 0
M  V30 END ATOM
M  V30 BEGIN BOND
M  V30 1 1 1 2
M  V30 2 2 2 3
M  V30 3 1 2 4
M  V30 4 1 3 5
M  V30 5 1 3 6
M  V30 6 2 4 7
M  V30 7 1 4 8
M  V30 8 2 6 9
M  V30 9 1 6 10
M  V30 10 1 7 11
M  V30 11 2 8 12
M  V30 12 1 10 13
M  V30 13 1 10 14
M  V30 14 2 11 15
M  V30 15 1 13 16
M  V30 16 1 14 17
M  V30 17 2 16 18
M  V30 18 1 16 19
M  V30 19 1 18 20
M  V30 20 2 19 21
M  V30 21 1 21 22
M  V30 22 2 22 23
M  V30 23 1 22 24
M  V30 24 1 24 25
M  V30 25 1 25 26
M  V30 26 2 26 27
M  V30 27 1 26 28
M  V30 28 1 27 29
M  V30 29 2 28 30
M  V30 30 2 29 31
M  V30 31 1 5 7
M  V30 32 1 12 15
M  V30 33 1 17 18
M  V30 34 1 20 21
M  V30 35 1 30 31
M  V30 END BOND
M  V30 END CTAB
M  END
>  <pIC50>
5.90309

>  <Serie>
Tetrahydrothienopyridine

>  <Molecule Name>
CTX-1020670

>  <SMILES>
ClC1=C(SC2=C1C=CC=C2)C(=O)N1CCC2=C(C1)C=C(S2)C(=O)NCC1=CC=CC=C1

$$$$
CTX-1020696
OCL MolfileCreator  2D

  0  0  0  0  0  0              0 V3000
M  V30 BEGIN CTAB
M  V30 COUNTS 38 43 0 0 0
M  V30 BEGIN ATOM
M  V30 1 O 5.1961 -0.75 0.0 0
M  V30 2 C 3.8971 0.0 0.0 0
M  V30 3 N 2.598 -0.75 0.0 0
M  V30 4 C 3.8971 1.5 0.0 0
M  V30 5 C 1.299 0.0 0.0 0
M  V30 6 N 5.1961 2.25 0.0 0
M  V30 7 C 2.598 2.25 0.0 0
M  V30 8 C 0.0 -0.75 0.0 0
M  V30 9 C 5.1961 3.75 0.0 0
M  V30 10 C 2.598 3.75 0.0 0
M  V30 11 C -1.299 0.0 0.0 0
M  V30 12 C 0.0 -2.2499 0.0 0
M  V30 13 C 3.8971 4.5 0.0 0
M  V30 14 C 6.4951 4.5 0.0 0
M  V30 15 C -2.598 -0.7499 0.0 0
M  V30 16 C -1.299 -2.9999 0.0 0
M  V30 17 C 3.8971 6.0 0.0 0
M  V30 18 N 6.4951 6.0 0.0 0
M  V30 19 C -2.598 -2.2499 0.0 0
M  V30 20 C 5.1961 6.75 0.0 0
M  V30 21 C 7.7942 6.75 0.0 0
M  V30 22 C -3.8971 -2.9999 0.0 0
M  V30 23 O 9.0932 6.0 0.0 0
M  V30 24 C 7.7942 8.25 0.0 0
M  V30 25 C -5.1961 -2.2499 0.0 0
M  V30 26 C -3.8971 -4.4999 0.0 0
M  V30 27 O 9.0077 9.1316 0.0 0
M  V30 28 C 6.5807 9.1316 0.0 0
M  V30 29 C -6.4951 -2.9999 0.0 0
M  V30 30 C -5.1961 -5.2499 0.0 0
M  V30 31 C 8.5442 10.5582 0.0 0
M  V30 32 C 7.0442 10.5582 0.0 0
M  V30 33 C 5.1541 8.6681 0.0 0
M  V30 34 O -6.4951 -4.4999 0.0 0
M  V30 35 C 9.2942 11.8573 0.0 0
M  V30 36 C 6.2942 11.8573 0.0 0
M  V30 37 C 8.5442 13.1563 0.0 0
M  V30 38 C 7.0442 13.1563 0.0 0
M  V30 END ATOM
M  V30 BEGIN BOND
M  V30 1 2 1 2
M  V30 2 1 2 3
M  V30 3 1 2 4
M  V30 4 1 3 5
M  V30 5 2 4 6
M  V30 6 1 4 7
M  V30 7 1 5 8
M  V30 8 1 6 9
M  V30 9 2 7 10
M  V30 10 2 8 11
M  V30 11 1 8 12
M  V30 12 2 9 13
M  V30 13 1 9 14
M  V30 14 1 11 15
M  V30 15 2 12 16
M  V30 16 1 13 17
M  V30 17 1 14 18
M  V30 18 2 15 19
M  V30 19 1 17 20
M  V30 20 1 18 21
M  V30 21 1 19 22
M  V30 22 2 21 23
M  V30 23 1 21 24
M  V30 24 1 22 25
M  V30 25 1 22 26
M  V30 26 1 24 27
M  V30 27 2 24 28
M  V30 28 1 25 29
M  V30 29 1 26 30
M  V30 30 1 27 31
M  V30 31 1 28 32
M  V30 32 1 28 33
M  V30 33 1 29 34
M  V30 34 1 31 35
M  V30 35 1 32 36
M  V30 36 2 35 37
M  V30 37 2 36 38
M  V30 38 1 10 13
M  V30 39 1 16 19
M  V30 40 1 18 20
M  V30 41 1 30 34
M  V30 42 2 31 32
M  V30 43 1 37 38
M  V30 END BOND
M  V30 END CTAB
M  END
>  <pIC50>
5.879426

>  <Serie>
Naphthyridine

>  <Molecule Name>
CTX-1020696

>  <SMILES>
CC1=C(OC2=C1C=CC=C2)C(=O)N1CCC2=CC=C(N=C2C1)C(=O)NCC1=CC=C(C=C1)C1CCOCC1

$$$$
CTX-1020743
OCL MolfileCreator  2D

  0  0  0  0  0  0              0 V3000
M  V30 BEGIN CTAB
M  V30 COUNTS 39 44 0 0 0
M  V30 BEGIN ATOM
M  V30 1 S 6.5664 -0.1398 0.0 0
M  V30 2 C 5.1961 -0.75 0.0 0
M  V30 3 C 7.5701 -1.2546 0.0 0
M  V30 4 C 3.8971 0.0 0.0 0
M  V30 5 C 5.3529 -2.2417 0.0 0
M  V30 6 C 6.8201 -2.5536 0.0 0
M  V30 7 C 9.0701 -1.2546 0.0 0
M  V30 8 O 3.8971 1.5 0.0 0
M  V30 9 N 2.598 -0.75 0.0 0
M  V30 10 C 7.5701 -3.8526 0.0 0
M  V30 11 C 9.8201 -2.5536 0.0 0
M  V30 12 C 1.299 0.0 0.0 0
M  V30 13 N 9.0701 -3.8526 0.0 0
M  V30 14 C 0.0 -0.75 0.0 0
M  V30 15 C 9.8201 -5.1517 0.0 0
M  V30 16 C -1.299 0.0 0.0 0
M  V30 17 C 0.0 -2.2499 0.0 0
M  V30 18 O 9.0701 -6.4507 0.0 0
M  V30 19 C 11.3201 -5.1517 0.0 0
M  V30 20 C -2.598 -0.7499 0.0 0
M  V30 21 C -1.299 -2.9999 0.0 0
M  V30 22 O 12.2018 -6.3652 0.0 0
M  V30 23 C 12.2018 -3.9382 0.0 0
M  V30 24 C -2.598 -2.2499 0.0 0
M  V30 25 C 13.6284 -5.9017 0.0 0
M  V30 26 C 13.6284 -4.4017 0.0 0
M  V30 27 C 11.7383 -2.5116 0.0 0
M  V30 28 N -3.8971 -2.9999 0.0 0
M  V30 29 C 14.9274 -6.6517 0.0 0
M  V30 30 C 14.9274 -3.6517 0.0 0
M  V30 31 C -5.1961 -2.2499 0.0 0
M  V30 32 C -3.8971 -4.4999 0.0 0
M  V30 33 C 16.2265 -5.9017 0.0 0
M  V30 34 C 16.2265 -4.4017 0.0 0
M  V30 35 C -6.4951 -2.9999 0.0 0
M  V30 36 C -5.1961 -5.2499 0.0 0
M  V30 37 C 17.5255 -6.6517 0.0 0
M  V30 38 N -6.4951 -4.4999 0.0 0
M  V30 39 C -7.7942 -5.2499 0.0 0
M  V30 END ATOM
M  V30 BEGIN BOND
M  V30 1 1 1 2
M  V30 2 1 1 3
M  V30 3 1 2 4
M  V30 4 2 2 5
M  V30 5 2 3 6
M  V30 6 1 3 7
M  V30 7 2 4 8
M  V30 8 1 4 9
M  V30 9 1 6 10
M  V30 10 1 7 11
M  V30 11 1 9 12
M  V30 12 1 10 13
M  V30 13 1 12 14
M  V30 14 1 13 15
M  V30 15 2 14 16
M  V30 16 1 14 17
M  V30 17 2 15 18
M  V30 18 1 15 19
M  V30 19 1 16 20
M  V30 20 2 17 21
M  V30 21 1 19 22
M  V30 22 2 19 23
M  V30 23 2 20 24
M  V30 24 1 22 25
M  V30 25 1 23 26
M  V30 26 1 23 27
M  V30 27 1 24 28
M  V30 28 1 25 29
M  V30 29 1 26 30
M  V30 30 1 28 31
M  V30 31 1 28 32
M  V30 32 2 29 33
M  V30 33 2 30 34
M  V30 34 1 31 35
M  V30 35 1 32 36
M  V30 36 1 33 37
M  V30 37 1 35 38
M  V30 38 1 38 39
M  V30 39 1 5 6
M  V30 40 1 11 13
M  V30 41 1 21 24
M  V30 42 2 25 26
M  V30 43 1 33 34
M  V30 44 1 36 38
M  V30 END BOND
M  V30 END CTAB
M  END
>  <pIC50>
5.847712

>  <Serie>
Tetrahydrothienopyridine

>  <Molecule Name>
CTX-1020743

>  <SMILES>
CN1CCN(CC1)C1=CC=C(CNC(=O)C2=CC3=C(CCN(C3)C(=O)C3=C(C)C4=C(O3)C=C(C)C=C4)S2)C=C1

$$$$
CTX-1020453
OCL MolfileCreator  2D

  0  0  0  0  0  0              0 V3000
M  V30 BEGIN CTAB
M  V30 COUNTS 39 44 0 0 0
M  V30 BEGIN ATOM
M  V30 1 Cl 9.7817 0.8848 0.0 0
M  V30 2 C 9.5737 -0.0932 0.0 0
M  V30 3 C 8.6602 -0.5 0.0 0
M  V30 4 C 10.2429 -0.8364 0.0 0
M  V30 5 O 8.7647 -1.4945 0.0 0
M  V30 6 C 7.7942 0.0 0.0 0
M  V30 7 C 9.7429 -1.7024 0.0 0
M  V30 8 C 11.2429 -0.8364 0.0 0
M  V30 9 O 7.7942 0.9999 0.0 0
M  V30 10 N 6.9282 -0.5 0.0 0
M  V30 11 C 10.2429 -2.5684 0.0 0
M  V30 12 C 11.7429 -1.7024 0.0 0
M  V30 13 C 6.0621 0.0 0.0 0
M  V30 14 C 6.9282 -1.4999 0.0 0
M  V30 15 C 11.2429 -2.5684 0.0 0
M  V30 16 C 5.1961 -0.5 0.0 0
M  V30 17 C 6.0621 -1.9999 0.0 0
M  V30 18 N 4.3301 0.0 0.0 0
M  V30 19 C 5.1961 -1.4999 0.0 0
M  V30 20 C 3.4641 -0.5 0.0 0
M  V30 21 C 4.3301 -2.0 0.0 0
M  V30 22 C 2.598 0.0 0.0 0
M  V30 23 C 3.4641 -1.4999 0.0 0
M  V30 24 O 2.598 1.0 0.0 0
M  V30 25 N 1.732 -0.5 0.0 0
M  V30 26 C 0.866 0.0 0.0 0
M  V30 27 C 0.0 -0.5 0.0 0
M  V30 28 C -0.866 0.0 0.0 0
M  V30 29 C 0.0 -1.4999 0.0 0
M  V30 30 C -1.732 -0.4999 0.0 0
M  V30 31 C -0.866 -1.9999 0.0 0
M  V30 32 C -1.732 -1.4999 0.0 0
M  V30 33 N -2.598 -1.9999 0.0 0
M  V30 34 C -3.4641 -1.4999 0.0 0
M  V30 35 C -2.598 -2.9999 0.0 0
M  V30 36 C -4.3301 -1.9999 0.0 0
M  V30 37 C -3.4641 -3.4999 0.0 0
M  V30 38 N -4.3301 -2.9999 0.0 0
M  V30 39 C -5.1961 -3.4999 0.0 0
M  V30 END ATOM
M  V30 BEGIN BOND
M  V30 1 1 1 2
M  V30 2 2 2 3
M  V30 3 1 2 4
M  V30 4 1 3 5
M  V30 5 1 3 6
M  V30 6 2 4 7
M  V30 7 1 4 8
M  V30 8 2 6 9
M  V30 9 1 6 10
M  V30 10 1 7 11
M  V30 11 2 8 12
M  V30 12 1 10 13
M  V30 13 1 10 14
M  V30 14 2 11 15
M  V30 15 1 13 16
M  V30 16 1 14 17
M  V30 17 2 16 18
M  V30 18 1 16 19
M  V30 19 1 18 20
M  V30 20 2 19 21
M  V30 21 1 20 22
M  V30 22 2 20 23
M  V30 23 2 22 24
M  V30 24 1 22 25
M  V30 25 1 25 26
M  V30 26 1 26 27
M  V30 27 2 27 28
M  V30 28 1 27 29
M  V30 29 1 28 30
M  V30 30 2 29 31
M  V30 31 2 30 32
M  V30 32 1 32 33
M  V30 33 1 33 34
M  V30 34 1 33 35
M  V30 35 1 34 36
M  V30 36 1 35 37
M  V30 37 1 36 38
M  V30 38 1 38 39
M  V30 39 1 5 7
M  V30 40 1 12 15
M  V30 41 1 17 19
M  V30 42 1 21 23
M  V30 43 1 31 32
M  V30 44 1 37 38
M  V30 END BOND
M  V30 END CTAB
M  END
>  <pIC50>
5.761954

>  <Serie>
Naphthyridine

>  <Molecule Name>
CTX-1020453

>  <SMILES>
CN1CCN(CC1)C1=CC=C(CNC(=O)C2=CC=C3CCN(CC3=N2)C(=O)C2=C(Cl)C3=C(O2)C=CC=C3)C=C1

$$$$
CTX-1020459
OCL MolfileCreator  2D

  0  0  0  0  0  0              0 V3000
M  V30 BEGIN CTAB
M  V30 COUNTS 40 45 0 0 0
M  V30 BEGIN ATOM
M  V30 1 Cl 11.7429 -3.4344 0.0 0
M  V30 2 C 11.2429 -2.5684 0.0 0
M  V30 3 C 10.2429 -2.5684 0.0 0
M  V30 4 C 11.7429 -1.7024 0.0 0
M  V30 5 C 9.7429 -1.7024 0.0 0
M  V30 6 C 11.2429 -0.8364 0.0 0
M  V30 7 C 10.2429 -0.8364 0.0 0
M  V30 8 C 8.7647 -1.4945 0.0 0
M  V30 9 O 9.5737 -0.0932 0.0 0
M  V30 10 C 8.6602 -0.5 0.0 0
M  V30 11 C 8.0216 -2.1636 0.0 0
M  V30 12 C 7.7942 0.0 0.0 0
M  V30 13 O 7.7942 0.9999 0.0 0
M  V30 14 N 6.9282 -0.5 0.0 0
M  V30 15 C 6.0621 0.0 0.0 0
M  V30 16 C 6.9282 -1.4999 0.0 0
M  V30 17 C 5.1961 -0.5 0.0 0
M  V30 18 C 6.0621 -1.9999 0.0 0
M  V30 19 N 4.3301 0.0 0.0 0
M  V30 20 C 5.1961 -1.4999 0.0 0
M  V30 21 C 3.4641 -0.5 0.0 0
M  V30 22 C 4.3301 -2.0 0.0 0
M  V30 23 C 2.598 0.0 0.0 0
M  V30 24 C 3.4641 -1.4999 0.0 0
M  V30 25 O 2.598 1.0 0.0 0
M  V30 26 N 1.732 -0.5 0.0 0
M  V30 27 C 0.866 0.0 0.0 0
M  V30 28 C 0.0 -0.5 0.0 0
M  V30 29 C -0.866 0.0 0.0 0
M  V30 30 C 0.0 -1.4999 0.0 0
M  V30 31 C -1.732 -0.4999 0.0 0
M  V30 32 C -0.866 -1.9999 0.0 0
M  V30 33 C -1.732 -1.4999 0.0 0
M  V30 34 N -2.598 -1.9999 0.0 0
M  V30 35 C -3.4641 -1.4999 0.0 0
M  V30 36 C -2.598 -2.9999 0.0 0
M  V30 37 C -4.3301 -1.9999 0.0 0
M  V30 38 C -3.4641 -3.4999 0.0 0
M  V30 39 N -4.3301 -2.9999 0.0 0
M  V30 40 C -5.1961 -3.4999 0.0 0
M  V30 END ATOM
M  V30 BEGIN BOND
M  V30 1 1 1 2
M  V30 2 2 2 3
M  V30 3 1 2 4
M  V30 4 1 3 5
M  V30 5 2 4 6
M  V30 6 2 5 7
M  V30 7 1 5 8
M  V30 8 1 7 9
M  V30 9 2 8 10
M  V30 10 1 8 11
M  V30 11 1 10 12
M  V30 12 2 12 13
M  V30 13 1 12 14
M  V30 14 1 14 15
M  V30 15 1 14 16
M  V30 16 1 15 17
M  V30 17 1 16 18
M  V30 18 2 17 19
M  V30 19 1 17 20
M  V30 20 1 19 21
M  V30 21 2 20 22
M  V30 22 1 21 23
M  V30 23 2 21 24
M  V30 24 2 23 25
M  V30 25 1 23 26
M  V30 26 1 26 27
M  V30 27 1 27 28
M  V30 28 2 28 29
M  V30 29 1 28 30
M  V30 30 1 29 31
M  V30 31 2 30 32
M  V30 32 2 31 33
M  V30 33 1 33 34
M  V30 34 1 34 35
M  V30 35 1 34 36
M  V30 36 1 35 37
M  V30 37 1 36 38
M  V30 38 1 37 39
M  V30 39 1 39 40
M  V30 40 1 6 7
M  V30 41 1 9 10
M  V30 42 1 18 20
M  V30 43 1 22 24
M  V30 44 1 32 33
M  V30 45 1 38 39
M  V30 END BOND
M  V30 END CTAB
M  END
>  <pIC50>
5.739929

>  <Serie>
Naphthyridine

>  <Molecule Name>
CTX-1020459

>  <SMILES>
CN1CCN(CC1)C1=CC=C(CNC(=O)C2=CC=C3CCN(CC3=N2)C(=O)C2=C(C)C3=C(O2)C=CC(Cl)=C3)C=C1

$$$$
CTX-1020669
OCL MolfileCreator  2D

  0  0  0  0  0  0              0 V3000
M  V30 BEGIN CTAB
M  V30 COUNTS 38 43 0 0 0
M  V30 BEGIN ATOM
M  V30 1 Cl 11.1474 -8.1329 0.0 0
M  V30 2 C 9.6802 -7.821 0.0 0
M  V30 3 C 9.0701 -6.4507 0.0 0
M  V30 4 C 8.5655 -8.8247 0.0 0
M  V30 5 S 7.5783 -6.6075 0.0 0
M  V30 6 C 9.8201 -5.1517 0.0 0
M  V30 7 C 7.2665 -8.0747 0.0 0
M  V30 8 C 8.5655 -10.3247 0.0 0
M  V30 9 O 11.3201 -5.1517 0.0 0
M  V30 10 N 9.0701 -3.8526 0.0 0
M  V30 11 C 5.9674 -8.8247 0.0 0
M  V30 12 C 7.2665 -11.0747 0.0 0
M  V30 13 C 7.5701 -3.8526 0.0 0
M  V30 14 C 9.8201 -2.5536 0.0 0
M  V30 15 C 5.9674 -10.3247 0.0 0
M  V30 16 C 6.8201 -2.5536 0.0 0
M  V30 17 C 9.0701 -1.2546 0.0 0
M  V30 18 C 7.5701 -1.2546 0.0 0
M  V30 19 C 5.3529 -2.2417 0.0 0
M  V30 20 S 6.5664 -0.1398 0.0 0
M  V30 21 C 5.1961 -0.75 0.0 0
M  V30 22 C 3.8971 0.0 0.0 0
M  V30 23 O 3.8971 1.5 0.0 0
M  V30 24 N 2.598 -0.75 0.0 0
M  V30 25 C 1.299 0.0 0.0 0
M  V30 26 C 0.0 -0.75 0.0 0
M  V30 27 C -1.299 0.0 0.0 0
M  V30 28 C 0.0 -2.2499 0.0 0
M  V30 29 C -2.598 -0.7499 0.0 0
M  V30 30 C -1.299 -2.9999 0.0 0
M  V30 31 C -2.598 -2.2499 0.0 0
M  V30 32 N -3.8971 -2.9999 0.0 0
M  V30 33 C -5.1961 -2.2499 0.0 0
M  V30 34 C -3.8971 -4.4999 0.0 0
M  V30 35 C -6.4951 -2.9999 0.0 0
M  V30 36 C -5.1961 -5.2499 0.0 0
M  V30 37 N -6.4951 -4.4999 0.0 0
M  V30 38 C -7.7942 -5.2499 0.0 0
M  V30 END ATOM
M  V30 BEGIN BOND
M  V30 1 1 1 2
M  V30 2 2 2 3
M  V30 3 1 2 4
M  V30 4 1 3 5
M  V30 5 1 3 6
M  V30 6 2 4 7
M  V30 7 1 4 8
M  V30 8 2 6 9
M  V30 9 1 6 10
M  V30 10 1 7 11
M  V30 11 2 8 12
M  V30 12 1 10 13
M  V30 13 1 10 14
M  V30 14 2 11 15
M  V30 15 1 13 16
M  V30 16 1 14 17
M  V30 17 2 16 18
M  V30 18 1 16 19
M  V30 19 1 18 20
M  V30 20 2 19 21
M  V30 21 1 21 22
M  V30 22 2 22 23
M  V30 23 1 22 24
M  V30 24 1 24 25
M  V30 25 1 25 26
M  V30 26 2 26 27
M  V30 27 1 26 28
M  V30 28 1 27 29
M  V30 29 2 28 30
M  V30 30 2 29 31
M  V30 31 1 31 32
M  V30 32 1 32 33
M  V30 33 1 32 34
M  V30 34 1 33 35
M  V30 35 1 34 36
M  V30 36 1 35 37
M  V30 37 1 37 38
M  V30 38 1 5 7
M  V30 39 1 12 15
M  V30 40 1 17 18
M  V30 41 1 20 21
M  V30 42 1 30 31
M  V30 43 1 36 37
M  V30 END BOND
M  V30 END CTAB
M  END
>  <pIC50>
5.692504

>  <Serie>
Tetrahydrothienopyridine

>  <Molecule Name>
CTX-1020669

>  <SMILES>
CN1CCN(CC1)C1=CC=C(CNC(=O)C2=CC3=C(CCN(C3)C(=O)C3=C(Cl)C4=C(S3)C=CC=C4)S2)C=C1

$$$$
CTX-1020562
OCL MolfileCreator  2D

  0  0  0  0  0  0              0 V3000
M  V30 BEGIN CTAB
M  V30 COUNTS 43 48 0 0 0
M  V30 BEGIN ATOM
M  V30 1 F 9.6602 -4.5 0.0 0
M  V30 2 C 8.6602 -4.5 0.0 0
M  V30 3 F 8.6602 -5.5 0.0 0
M  V30 4 F 7.6602 -4.5 0.0 0
M  V30 5 C 8.6602 -3.5 0.0 0
M  V30 6 N 7.7942 -3.0 0.0 0
M  V30 7 C 7.7942 -2.0 0.0 0
M  V30 8 C 6.9282 -3.4999 0.0 0
M  V30 9 C 6.9282 -1.4999 0.0 0
M  V30 10 C 6.0621 -2.9999 0.0 0
M  V30 11 N 6.0621 -2.0 0.0 0
M  V30 12 C 5.1961 -1.4999 0.0 0
M  V30 13 C 5.1961 -0.5 0.0 0
M  V30 14 C 4.3301 -1.9999 0.0 0
M  V30 15 C 4.3301 0.0 0.0 0
M  V30 16 C 3.4641 -1.5 0.0 0
M  V30 17 C 3.4641 -0.5 0.0 0
M  V30 18 C 2.598 0.0 0.0 0
M  V30 19 N 1.732 -0.5 0.0 0
M  V30 20 C 0.866 0.0 0.0 0
M  V30 21 O 0.866 1.0 0.0 0
M  V30 22 C 0.0 -0.5 0.0 0
M  V30 23 N -0.866 0.0 0.0 0
M  V30 24 C 0.0 -1.4999 0.0 0
M  V30 25 C -1.732 -0.4999 0.0 0
M  V30 26 C -0.866 -1.9999 0.0 0
M  V30 27 C -1.732 -1.4999 0.0 0
M  V30 28 C -2.598 0.0 0.0 0
M  V30 29 C -2.598 -1.9999 0.0 0
M  V30 30 N -3.4641 -0.4999 0.0 0
M  V30 31 C -3.4641 -1.4999 0.0 0
M  V30 32 C -4.3301 0.0 0.0 0
M  V30 33 O -4.3301 1.0 0.0 0
M  V30 34 C -5.1961 -0.4999 0.0 0
M  V30 35 O -6.1096 -0.0932 0.0 0
M  V30 36 C -5.3006 -1.4945 0.0 0
M  V30 37 C -6.7788 -0.8364 0.0 0
M  V30 38 C -6.2788 -1.7024 0.0 0
M  V30 39 C -4.5575 -2.1636 0.0 0
M  V30 40 C -7.7788 -0.8364 0.0 0
M  V30 41 C -6.7788 -2.5684 0.0 0
M  V30 42 C -8.2788 -1.7024 0.0 0
M  V30 43 C -7.7788 -2.5684 0.0 0
M  V30 END ATOM
M  V30 BEGIN BOND
M  V30 1 1 1 2
M  V30 2 1 2 3
M  V30 3 1 2 4
M  V30 4 1 2 5
M  V30 5 1 5 6
M  V30 6 1 6 7
M  V30 7 1 6 8
M  V30 8 1 7 9
M  V30 9 1 8 10
M  V30 10 1 9 11
M  V30 11 1 11 12
M  V30 12 2 12 13
M  V30 13 1 12 14
M  V30 14 1 13 15
M  V30 15 2 14 16
M  V30 16 2 15 17
M  V30 17 1 17 18
M  V30 18 1 18 19
M  V30 19 1 19 20
M  V30 20 2 20 21
M  V30 21 1 20 22
M  V30 22 2 22 23
M  V30 23 1 22 24
M  V30 24 1 23 25
M  V30 25 2 24 26
M  V30 26 2 25 27
M  V30 27 1 25 28
M  V30 28 1 27 29
M  V30 29 1 28 30
M  V30 30 1 29 31
M  V30 31 1 30 32
M  V30 32 2 32 33
M  V30 33 1 32 34
M  V30 34 1 34 35
M  V30 35 2 34 36
M  V30 36 1 35 37
M  V30 37 1 36 38
M  V30 38 1 36 39
M  V30 39 1 37 40
M  V30 40 1 38 41
M  V30 41 2 40 42
M  V30 42 2 41 43
M  V30 43 1 10 11
M  V30 44 1 16 17
M  V30 45 1 26 27
M  V30 46 1 30 31
M  V30 47 2 37 38
M  V30 48 1 42 43
M  V30 END BOND
M  V30 END CTAB
M  END
>  <pIC50>
5.66354

>  <Serie>
Naphthyridine

>  <Molecule Name>
CTX-1020562

>  <SMILES>
CC1=C(OC2=C1C=CC=C2)C(=O)N1CCC2=C(C1)N=C(C=C2)C(=O)NCC1=CC=C(C=C1)N1CCN(CC(F)(F)F)CC1

$$$$
CTX-1017233
OCL MolfileCreator  2D

  0  0  0  0  0  0              0 V3000
M  V30 BEGIN CTAB
M  V30 COUNTS 39 44 0 0 0
M  V30 BEGIN ATOM
M  V30 1 O 5.1961 -0.75 0.0 0
M  V30 2 C 3.8971 0.0 0.0 0
M  V30 3 N 2.598 -0.75 0.0 0
M  V30 4 C 3.8971 1.5 0.0 0
M  V30 5 C 1.299 0.0 0.0 0
M  V30 6 N 5.1961 2.25 0.0 0
M  V30 7 C 2.598 2.25 0.0 0
M  V30 8 C 0.0 -0.75 0.0 0
M  V30 9 C 5.1961 3.75 0.0 0
M  V30 10 C 2.598 3.75 0.0 0
M  V30 11 C -1.299 0.0 0.0 0
M  V30 12 C 0.0 -2.2499 0.0 0
M  V30 13 C 3.8971 4.5 0.0 0
M  V30 14 C 6.4951 4.5 0.0 0
M  V30 15 C -2.598 -0.7499 0.0 0
M  V30 16 C -1.299 -2.9999 0.0 0
M  V30 17 C 3.8971 6.0 0.0 0
M  V30 18 N 6.4951 6.0 0.0 0
M  V30 19 C -2.598 -2.2499 0.0 0
M  V30 20 C 5.1961 6.75 0.0 0
M  V30 21 C 7.7942 6.75 0.0 0
M  V30 22 N -3.8971 -2.9999 0.0 0
M  V30 23 O 9.0932 6.0 0.0 0
M  V30 24 C 7.7942 8.25 0.0 0
M  V30 25 C -5.1961 -2.2499 0.0 0
M  V30 26 C -3.8971 -4.4999 0.0 0
M  V30 27 O 9.0077 9.1316 0.0 0
M  V30 28 C 6.5807 9.1316 0.0 0
M  V30 29 C -6.4951 -2.9999 0.0 0
M  V30 30 C -5.1961 -5.2499 0.0 0
M  V30 31 C 8.5442 10.5582 0.0 0
M  V30 32 C 7.0442 10.5582 0.0 0
M  V30 33 C 5.1541 8.6681 0.0 0
M  V30 34 N -6.4951 -4.4999 0.0 0
M  V30 35 C 9.2942 11.8573 0.0 0
M  V30 36 C 6.2942 11.8573 0.0 0
M  V30 37 C -7.7942 -5.2499 0.0 0
M  V30 38 C 8.5442 13.1563 0.0 0
M  V30 39 C 7.0442 13.1563 0.0 0
M  V30 END ATOM
M  V30 BEGIN BOND
M  V30 1 2 1 2
M  V30 2 1 2 3
M  V30 3 1 2 4
M  V30 4 1 3 5
M  V30 5 2 4 6
M  V30 6 1 4 7
M  V30 7 1 5 8
M  V30 8 1 6 9
M  V30 9 2 7 10
M  V30 10 2 8 11
M  V30 11 1 8 12
M  V30 12 2 9 13
M  V30 13 1 9 14
M  V30 14 1 11 15
M  V30 15 2 12 16
M  V30 16 1 13 17
M  V30 17 1 14 18
M  V30 18 2 15 19
M  V30 19 1 17 20
M  V30 20 1 18 21
M  V30 21 1 19 22
M  V30 22 2 21 23
M  V30 23 1 21 24
M  V30 24 1 22 25
M  V30 25 1 22 26
M  V30 26 1 24 27
M  V30 27 2 24 28
M  V30 28 1 25 29
M  V30 29 1 26 30
M  V30 30 1 27 31
M  V30 31 1 28 32
M  V30 32 1 28 33
M  V30 33 1 29 34
M  V30 34 1 31 35
M  V30 35 1 32 36
M  V30 36 1 34 37
M  V30 37 2 35 38
M  V30 38 2 36 39
M  V30 39 1 10 13
M  V30 40 1 16 19
M  V30 41 1 18 20
M  V30 42 1 30 34
M  V30 43 2 31 32
M  V30 44 1 38 39
M  V30 END BOND
M  V30 END CTAB
M  END
>  <pIC50>
5.59346

>  <Serie>
Naphthyridine

>  <Molecule Name>
CTX-1017233

>  <SMILES>
CN1CCN(CC1)C1=CC=C(CNC(=O)C2=NC3=C(CCN(C3)C(=O)C3=C(C)C4=CC=CC=C4O3)C=C2)C=C1

$$$$
CTX-1020454
OCL MolfileCreator  2D

  0  0  0  0  0  0              0 V3000
M  V30 BEGIN CTAB
M  V30 COUNTS 40 45 0 0 0
M  V30 BEGIN ATOM
M  V30 1 F 11.7429 0.0296 0.0 0
M  V30 2 C 11.2429 -0.8364 0.0 0
M  V30 3 C 10.2429 -0.8364 0.0 0
M  V30 4 C 11.7429 -1.7024 0.0 0
M  V30 5 O 9.5737 -0.0932 0.0 0
M  V30 6 C 9.7429 -1.7024 0.0 0
M  V30 7 C 11.2429 -2.5684 0.0 0
M  V30 8 C 8.6602 -0.5 0.0 0
M  V30 9 C 8.7647 -1.4945 0.0 0
M  V30 10 C 10.2429 -2.5684 0.0 0
M  V30 11 C 7.7942 0.0 0.0 0
M  V30 12 C 8.0216 -2.1636 0.0 0
M  V30 13 O 7.7942 0.9999 0.0 0
M  V30 14 N 6.9282 -0.5 0.0 0
M  V30 15 C 6.0621 0.0 0.0 0
M  V30 16 C 6.9282 -1.4999 0.0 0
M  V30 17 C 5.1961 -0.5 0.0 0
M  V30 18 C 6.0621 -1.9999 0.0 0
M  V30 19 N 4.3301 0.0 0.0 0
M  V30 20 C 5.1961 -1.4999 0.0 0
M  V30 21 C 3.4641 -0.5 0.0 0
M  V30 22 C 4.3301 -2.0 0.0 0
M  V30 23 C 2.598 0.0 0.0 0
M  V30 24 C 3.4641 -1.4999 0.0 0
M  V30 25 O 2.598 1.0 0.0 0
M  V30 26 N 1.732 -0.5 0.0 0
M  V30 27 C 0.866 0.0 0.0 0
M  V30 28 C 0.0 -0.5 0.0 0
M  V30 29 C -0.866 0.0 0.0 0
M  V30 30 C 0.0 -1.4999 0.0 0
M  V30 31 C -1.732 -0.4999 0.0 0
M  V30 32 C -0.866 -1.9999 0.0 0
M  V30 33 C -1.732 -1.4999 0.0 0
M  V30 34 N -2.598 -1.9999 0.0 0
M  V30 35 C -3.4641 -1.4999 0.0 0
M  V30 36 C -2.598 -2.9999 0.0 0
M  V30 37 C -4.3301 -1.9999 0.0 0
M  V30 38 C -3.4641 -3.4999 0.0 0
M  V30 39 N -4.3301 -2.9999 0.0 0
M  V30 40 C -5.1961 -3.4999 0.0 0
M  V30 END ATOM
M  V30 BEGIN BOND
M  V30 1 1 1 2
M  V30 2 2 2 3
M  V30 3 1 2 4
M  V30 4 1 3 5
M  V30 5 1 3 6
M  V30 6 2 4 7
M  V30 7 1 5 8
M  V30 8 1 6 9
M  V30 9 2 6 10
M  V30 10 1 8 11
M  V30 11 1 9 12
M  V30 12 2 11 13
M  V30 13 1 11 14
M  V30 14 1 14 15
M  V30 15 1 14 16
M  V30 16 1 15 17
M  V30 17 1 16 18
M  V30 18 2 17 19
M  V30 19 1 17 20
M  V30 20 1 19 21
M  V30 21 2 20 22
M  V30 22 1 21 23
M  V30 23 2 21 24
M  V30 24 2 23 25
M  V30 25 1 23 26
M  V30 26 1 26 27
M  V30 27 1 27 28
M  V30 28 2 28 29
M  V30 29 1 28 30
M  V30 30 1 29 31
M  V30 31 2 30 32
M  V30 32 2 31 33
M  V30 33 1 33 34
M  V30 34 1 34 35
M  V30 35 1 34 36
M  V30 36 1 35 37
M  V30 37 1 36 38
M  V30 38 1 37 39
M  V30 39 1 39 40
M  V30 40 1 7 10
M  V30 41 2 8 9
M  V30 42 1 18 20
M  V30 43 1 22 24
M  V30 44 1 32 33
M  V30 45 1 38 39
M  V30 END BOND
M  V30 END CTAB
M  END
>  <pIC50>
5.567031

>  <Serie>
Naphthyridine

>  <Molecule Name>
CTX-1020454

>  <SMILES>
CN1CCN(CC1)C1=CC=C(CNC(=O)C2=CC=C3CCN(CC3=N2)C(=O)C2=C(C)C3=CC=CC(F)=C3O2)C=C1

$$$$
CTX-1020695
OCL MolfileCreator  2D

  0  0  0  0  0  0              0 V3000
M  V30 BEGIN CTAB
M  V30 COUNTS 36 41 0 0 0
M  V30 BEGIN ATOM
M  V30 1 O 5.1961 -0.75 0.0 0
M  V30 2 C 3.8971 0.0 0.0 0
M  V30 3 N 2.598 -0.75 0.0 0
M  V30 4 C 3.8971 1.5 0.0 0
M  V30 5 C 1.299 0.0 0.0 0
M  V30 6 N 5.1961 2.25 0.0 0
M  V30 7 C 2.598 2.25 0.0 0
M  V30 8 C 0.0 -0.75 0.0 0
M  V30 9 C 5.1961 3.75 0.0 0
M  V30 10 C 2.598 3.75 0.0 0
M  V30 11 C -1.299 0.0 0.0 0
M  V30 12 C 0.0 -2.25 0.0 0
M  V30 13 C 3.8971 4.5 0.0 0
M  V30 14 C 6.4951 4.5 0.0 0
M  V30 15 C -2.598 -0.7499 0.0 0
M  V30 16 C -1.299 -2.9999 0.0 0
M  V30 17 C 3.8971 6.0 0.0 0
M  V30 18 N 6.4951 6.0 0.0 0
M  V30 19 N -3.8971 0.0 0.0 0
M  V30 20 C -2.598 -2.2499 0.0 0
M  V30 21 C 5.1961 6.75 0.0 0
M  V30 22 C 7.7942 6.75 0.0 0
M  V30 23 C -5.1961 -0.7499 0.0 0
M  V30 24 C -3.8971 -2.9999 0.0 0
M  V30 25 O 9.0932 6.0 0.0 0
M  V30 26 C 7.7942 8.25 0.0 0
M  V30 27 C -5.1961 -2.2499 0.0 0
M  V30 28 O 9.0077 9.1316 0.0 0
M  V30 29 C 6.5807 9.1316 0.0 0
M  V30 30 C 8.5442 10.5582 0.0 0
M  V30 31 C 7.0442 10.5582 0.0 0
M  V30 32 C 5.1541 8.6681 0.0 0
M  V30 33 C 9.2942 11.8573 0.0 0
M  V30 34 C 6.2942 11.8573 0.0 0
M  V30 35 C 8.5442 13.1563 0.0 0
M  V30 36 C 7.0442 13.1563 0.0 0
M  V30 END ATOM
M  V30 BEGIN BOND
M  V30 1 2 1 2
M  V30 2 1 2 3
M  V30 3 1 2 4
M  V30 4 1 3 5
M  V30 5 2 4 6
M  V30 6 1 4 7
M  V30 7 1 5 8
M  V30 8 1 6 9
M  V30 9 2 7 10
M  V30 10 2 8 11
M  V30 11 1 8 12
M  V30 12 2 9 13
M  V30 13 1 9 14
M  V30 14 1 11 15
M  V30 15 2 12 16
M  V30 16 1 13 17
M  V30 17 1 14 18
M  V30 18 1 15 19
M  V30 19 2 15 20
M  V30 20 1 17 21
M  V30 21 1 18 22
M  V30 22 1 19 23
M  V30 23 1 20 24
M  V30 24 2 22 25
M  V30 25 1 22 26
M  V30 26 1 23 27
M  V30 27 1 26 28
M  V30 28 2 26 29
M  V30 29 1 28 30
M  V30 30 1 29 31
M  V30 31 1 29 32
M  V30 32 1 30 33
M  V30 33 1 31 34
M  V30 34 2 33 35
M  V30 35 2 34 36
M  V30 36 1 10 13
M  V30 37 1 16 20
M  V30 38 1 18 21
M  V30 39 1 24 27
M  V30 40 2 30 31
M  V30 41 1 35 36
M  V30 END BOND
M  V30 END CTAB
M  END
>  <pIC50>
5.565431

>  <Serie>
Naphthyridine

>  <Molecule Name>
CTX-1020695

>  <SMILES>
CC1=C(OC2=C1C=CC=C2)C(=O)N1CCC2=CC=C(N=C2C1)C(=O)NCC1=CC=C2CCCNC2=C1

$$$$
CTX-1020748
OCL MolfileCreator  2D

  0  0  0  0  0  0              0 V3000
M  V30 BEGIN CTAB
M  V30 COUNTS 39 44 0 0 0
M  V30 BEGIN ATOM
M  V30 1 Cl 7.4316 -5.4219 0.0 0
M  V30 2 C 6.4535 -5.214 0.0 0
M  V30 3 C 6.0467 -4.3005 0.0 0
M  V30 4 C 5.7103 -5.8831 0.0 0
M  V30 5 N 5.0522 -4.405 0.0 0
M  V30 6 C 6.5467 -3.4344 0.0 0
M  V30 7 C 4.8443 -5.3831 0.0 0
M  V30 8 C 5.7103 -6.8831 0.0 0
M  V30 9 C 4.3831 -3.6618 0.0 0
M  V30 10 O 7.5467 -3.4344 0.0 0
M  V30 11 N 6.0467 -2.5684 0.0 0
M  V30 12 C 3.9783 -5.8831 0.0 0
M  V30 13 C 4.8443 -7.3831 0.0 0
M  V30 14 C 5.0467 -2.5684 0.0 0
M  V30 15 C 6.5467 -1.7024 0.0 0
M  V30 16 C 3.9783 -6.8831 0.0 0
M  V30 17 C 4.5467 -1.7024 0.0 0
M  V30 18 C 6.0467 -0.8364 0.0 0
M  V30 19 C 5.0467 -0.8364 0.0 0
M  V30 20 C 3.5686 -1.4945 0.0 0
M  V30 21 S 4.3776 -0.0932 0.0 0
M  V30 22 C 3.4641 -0.5 0.0 0
M  V30 23 C 2.598 0.0 0.0 0
M  V30 24 O 2.598 1.0 0.0 0
M  V30 25 N 1.732 -0.5 0.0 0
M  V30 26 C 0.866 0.0 0.0 0
M  V30 27 C 0.0 -0.5 0.0 0
M  V30 28 C -0.866 0.0 0.0 0
M  V30 29 C 0.0 -1.4999 0.0 0
M  V30 30 C -1.732 -0.4999 0.0 0
M  V30 31 C -0.866 -1.9999 0.0 0
M  V30 32 C -1.732 -1.4999 0.0 0
M  V30 33 N -2.598 -1.9999 0.0 0
M  V30 34 C -3.4641 -1.4999 0.0 0
M  V30 35 C -2.598 -2.9999 0.0 0
M  V30 36 C -4.3301 -1.9999 0.0 0
M  V30 37 C -3.4641 -3.4999 0.0 0
M  V30 38 N -4.3301 -2.9999 0.0 0
M  V30 39 C -5.1961 -3.4999 0.0 0
M  V30 END ATOM
M  V30 BEGIN BOND
M  V30 1 1 1 2
M  V30 2 2 2 3
M  V30 3 1 2 4
M  V30 4 1 3 5
M  V30 5 1 3 6
M  V30 6 2 4 7
M  V30 7 1 4 8
M  V30 8 1 5 9
M  V30 9 2 6 10
M  V30 10 1 6 11
M  V30 11 1 7 12
M  V30 12 2 8 13
M  V30 13 1 11 14
M  V30 14 1 11 15
M  V30 15 2 12 16
M  V30 16 1 14 17
M  V30 17 1 15 18
M  V30 18 2 17 19
M  V30 19 1 17 20
M  V30 20 1 19 21
M  V30 21 2 20 22
M  V30 22 1 22 23
M  V30 23 2 23 24
M  V30 24 1 23 25
M  V30 25 1 25 26
M  V30 26 1 26 27
M  V30 27 2 27 28
M  V30 28 1 27 29
M  V30 29 1 28 30
M  V30 30 2 29 31
M  V30 31 2 30 32
M  V30 32 1 32 33
M  V30 33 1 33 34
M  V30 34 1 33 35
M  V30 35 1 34 36
M  V30 36 1 35 37
M  V30 37 1 36 38
M  V30 38 1 38 39
M  V30 39 1 5 7
M  V30 40 1 13 16
M  V30 41 1 18 19
M  V30 42 1 21 22
M  V30 43 1 31 32
M  V30 44 1 37 38
M  V30 END BOND
M  V30 END CTAB
M  END
>  <pIC50>
5.555955

>  <Serie>
Tetrahydrothienopyridine

>  <Molecule Name>
CTX-1020748

>  <SMILES>
CN1C2=C(C=CC=C2)C(Cl)=C1C(=O)N1CCC2=C(C1)C=C(S2)C(=O)NCC1=CC=C(C=C1)N1CCN(C)CC1

$$$$
CTX-1020517
OCL MolfileCreator  2D

  0  0  0  0  0  0              0 V3000
M  V30 BEGIN CTAB
M  V30 COUNTS 38 43 0 0 0
M  V30 BEGIN ATOM
M  V30 1 S 9.6802 -7.821 0.0 0
M  V30 2 C 9.0701 -6.4507 0.0 0
M  V30 3 C 8.5655 -8.8247 0.0 0
M  V30 4 C 7.5783 -6.6075 0.0 0
M  V30 5 C 9.8201 -5.1517 0.0 0
M  V30 6 C 7.2665 -8.0747 0.0 0
M  V30 7 C 8.5655 -10.3247 0.0 0
M  V30 8 C 6.5746 -5.4928 0.0 0
M  V30 9 O 11.3201 -5.1517 0.0 0
M  V30 10 N 9.0701 -3.8526 0.0 0
M  V30 11 C 5.9674 -8.8247 0.0 0
M  V30 12 C 7.2665 -11.0747 0.0 0
M  V30 13 C 7.5701 -3.8526 0.0 0
M  V30 14 C 9.8201 -2.5536 0.0 0
M  V30 15 C 5.9674 -10.3247 0.0 0
M  V30 16 C 6.8201 -2.5536 0.0 0
M  V30 17 C 9.0701 -1.2546 0.0 0
M  V30 18 C 7.5701 -1.2546 0.0 0
M  V30 19 C 5.3529 -2.2417 0.0 0
M  V30 20 S 6.5664 -0.1398 0.0 0
M  V30 21 C 5.1961 -0.75 0.0 0
M  V30 22 C 3.8971 0.0 0.0 0
M  V30 23 O 3.8971 1.5 0.0 0
M  V30 24 N 2.598 -0.75 0.0 0
M  V30 25 C 1.299 0.0 0.0 0
M  V30 26 C 0.0 -0.75 0.0 0
M  V30 27 C -1.299 0.0 0.0 0
M  V30 28 C 0.0 -2.2499 0.0 0
M  V30 29 C -2.598 -0.7499 0.0 0
M  V30 30 C -1.299 -2.9999 0.0 0
M  V30 31 C -2.598 -2.2499 0.0 0
M  V30 32 N -3.8971 -2.9999 0.0 0
M  V30 33 C -5.1961 -2.2499 0.0 0
M  V30 34 C -3.8971 -4.4999 0.0 0
M  V30 35 C -6.4951 -2.9999 0.0 0
M  V30 36 C -5.1961 -5.2499 0.0 0
M  V30 37 N -6.4951 -4.4999 0.0 0
M  V30 38 C -7.7942 -5.2499 0.0 0
M  V30 END ATOM
M  V30 BEGIN BOND
M  V30 1 1 1 2
M  V30 2 1 1 3
M  V30 3 2 2 4
M  V30 4 1 2 5
M  V30 5 2 3 6
M  V30 6 1 3 7
M  V30 7 1 4 8
M  V30 8 2 5 9
M  V30 9 1 5 10
M  V30 10 1 6 11
M  V30 11 2 7 12
M  V30 12 1 10 13
M  V30 13 1 10 14
M  V30 14 2 11 15
M  V30 15 1 13 16
M  V30 16 1 14 17
M  V30 17 2 16 18
M  V30 18 1 16 19
M  V30 19 1 18 20
M  V30 20 2 19 21
M  V30 21 1 21 22
M  V30 22 2 22 23
M  V30 23 1 22 24
M  V30 24 1 24 25
M  V30 25 1 25 26
M  V30 26 2 26 27
M  V30 27 1 26 28
M  V30 28 1 27 29
M  V30 29 2 28 30
M  V30 30 2 29 31
M  V30 31 1 31 32
M  V30 32 1 32 33
M  V30 33 1 32 34
M  V30 34 1 33 35
M  V30 35 1 34 36
M  V30 36 1 35 37
M  V30 37 1 37 38
M  V30 38 1 4 6
M  V30 39 1 12 15
M  V30 40 1 17 18
M  V30 41 1 20 21
M  V30 42 1 30 31
M  V30 43 1 36 37
M  V30 END BOND
M  V30 END CTAB
M  END
>  <pIC50>
5.540607

>  <Serie>
Tetrahydrothienopyridine

>  <Molecule Name>
CTX-1020517

>  <SMILES>
CN1CCN(CC1)C1=CC=C(CNC(=O)C2=CC3=C(CCN(C3)C(=O)C3=C(C)C4=C(S3)C=CC=C4)S2)C=C1

$$$$
CTX-1020740
OCL MolfileCreator  2D

  0  0  0  0  0  0              0 V3000
M  V30 BEGIN CTAB
M  V30 COUNTS 35 39 0 0 0
M  V30 BEGIN ATOM
M  V30 1 S 6.5664 -0.1398 0.0 0
M  V30 2 C 5.1961 -0.75 0.0 0
M  V30 3 C 7.5701 -1.2546 0.0 0
M  V30 4 C 3.8971 0.0 0.0 0
M  V30 5 C 5.3529 -2.2417 0.0 0
M  V30 6 C 6.8201 -2.5536 0.0 0
M  V30 7 C 9.0701 -1.2546 0.0 0
M  V30 8 O 3.8971 1.5 0.0 0
M  V30 9 N 2.598 -0.75 0.0 0
M  V30 10 C 7.5701 -3.8526 0.0 0
M  V30 11 C 9.8201 -2.5536 0.0 0
M  V30 12 C 1.299 0.0 0.0 0
M  V30 13 N 9.0701 -3.8526 0.0 0
M  V30 14 C 0.0 -0.75 0.0 0
M  V30 15 C 9.8201 -5.1517 0.0 0
M  V30 16 C -1.299 0.0 0.0 0
M  V30 17 C 0.0 -2.25 0.0 0
M  V30 18 O 9.0701 -6.4507 0.0 0
M  V30 19 C 11.3201 -5.1517 0.0 0
M  V30 20 C -2.598 -0.7499 0.0 0
M  V30 21 C -1.299 -2.9999 0.0 0
M  V30 22 O 12.2018 -6.3652 0.0 0
M  V30 23 C 12.2018 -3.9382 0.0 0
M  V30 24 C -2.598 -2.2499 0.0 0
M  V30 25 C 13.6284 -5.9017 0.0 0
M  V30 26 C 13.6284 -4.4017 0.0 0
M  V30 27 C 11.7383 -2.5116 0.0 0
M  V30 28 C -3.8971 -2.9999 0.0 0
M  V30 29 C 14.9274 -6.6517 0.0 0
M  V30 30 C 14.9274 -3.6517 0.0 0
M  V30 31 F -3.1471 -4.299 0.0 0
M  V30 32 F -5.1961 -3.7499 0.0 0
M  V30 33 F -4.6471 -1.7009 0.0 0
M  V30 34 C 16.2265 -5.9017 0.0 0
M  V30 35 C 16.2265 -4.4017 0.0 0
M  V30 END ATOM
M  V30 BEGIN BOND
M  V30 1 1 1 2
M  V30 2 1 1 3
M  V30 3 1 2 4
M  V30 4 2 2 5
M  V30 5 2 3 6
M  V30 6 1 3 7
M  V30 7 2 4 8
M  V30 8 1 4 9
M  V30 9 1 6 10
M  V30 10 1 7 11
M  V30 11 1 9 12
M  V30 12 1 10 13
M  V30 13 1 12 14
M  V30 14 1 13 15
M  V30 15 2 14 16
M  V30 16 1 14 17
M  V30 17 2 15 18
M  V30 18 1 15 19
M  V30 19 1 16 20
M  V30 20 2 17 21
M  V30 21 1 19 22
M  V30 22 2 19 23
M  V30 23 2 20 24
M  V30 24 1 22 25
M  V30 25 1 23 26
M  V30 26 1 23 27
M  V30 27 1 24 28
M  V30 28 1 25 29
M  V30 29 1 26 30
M  V30 30 1 28 31
M  V30 31 1 28 32
M  V30 32 1 28 33
M  V30 33 2 29 34
M  V30 34 2 30 35
M  V30 35 1 5 6
M  V30 36 1 11 13
M  V30 37 1 21 24
M  V30 38 2 25 26
M  V30 39 1 34 35
M  V30 END BOND
M  V30 END CTAB
M  END
>  <pIC50>
5.5157

>  <Serie>
Tetrahydrothienopyridine

>  <Molecule Name>
CTX-1020740

>  <SMILES>
CC1=C(OC2=C1C=CC=C2)C(=O)N1CCC2=C(C1)C=C(S2)C(=O)NCC1=CC=C(C=C1)C(F)(F)F

$$$$
CTX-1019471
OCL MolfileCreator  2D

  0  0  0  0  0  0              0 V3000
M  V30 BEGIN CTAB
M  V30 COUNTS 32 36 0 0 0
M  V30 BEGIN ATOM
M  V30 1 O 5.1961 -0.75 0.0 0
M  V30 2 C 3.8971 0.0 0.0 0
M  V30 3 N 2.598 -0.75 0.0 0
M  V30 4 C 3.8971 1.5 0.0 0
M  V30 5 C 1.299 0.0 0.0 0
M  V30 6 N 5.1961 2.25 0.0 0
M  V30 7 C 2.598 2.25 0.0 0
M  V30 8 C 0.0 -0.75 0.0 0
M  V30 9 C 5.1961 3.75 0.0 0
M  V30 10 C 2.598 3.75 0.0 0
M  V30 11 C -1.299 0.0 0.0 0
M  V30 12 C 0.0 -2.25 0.0 0
M  V30 13 C 3.8971 4.5 0.0 0
M  V30 14 C 6.4951 4.5 0.0 0
M  V30 15 C -2.598 -0.7499 0.0 0
M  V30 16 C -1.299 -2.9999 0.0 0
M  V30 17 C 3.8971 6.0 0.0 0
M  V30 18 N 6.4951 6.0 0.0 0
M  V30 19 N -2.598 -2.2499 0.0 0
M  V30 20 C 5.1961 6.75 0.0 0
M  V30 21 C 7.7942 6.75 0.0 0
M  V30 22 O 9.0932 6.0 0.0 0
M  V30 23 C 7.7942 8.25 0.0 0
M  V30 24 O 9.0077 9.1316 0.0 0
M  V30 25 C 6.5807 9.1316 0.0 0
M  V30 26 C 8.5442 10.5582 0.0 0
M  V30 27 C 7.0442 10.5582 0.0 0
M  V30 28 C 5.1541 8.6681 0.0 0
M  V30 29 C 9.2942 11.8573 0.0 0
M  V30 30 C 6.2942 11.8573 0.0 0
M  V30 31 C 8.5442 13.1563 0.0 0
M  V30 32 C 7.0442 13.1563 0.0 0
M  V30 END ATOM
M  V30 BEGIN BOND
M  V30 1 2 1 2
M  V30 2 1 2 3
M  V30 3 1 2 4
M  V30 4 1 3 5
M  V30 5 2 4 6
M  V30 6 1 4 7
M  V30 7 1 5 8
M  V30 8 1 6 9
M  V30 9 2 7 10
M  V30 10 2 8 11
M  V30 11 1 8 12
M  V30 12 2 9 13
M  V30 13 1 9 14
M  V30 14 1 11 15
M  V30 15 2 12 16
M  V30 16 1 13 17
M  V30 17 1 14 18
M  V30 18 2 15 19
M  V30 19 1 17 20
M  V30 20 1 18 21
M  V30 21 2 21 22
M  V30 22 1 21 23
M  V30 23 1 23 24
M  V30 24 2 23 25
M  V30 25 1 24 26
M  V30 26 1 25 27
M  V30 27 1 25 28
M  V30 28 1 26 29
M  V30 29 1 27 30
M  V30 30 2 29 31
M  V30 31 2 30 32
M  V30 32 1 10 13
M  V30 33 1 16 19
M  V30 34 1 18 20
M  V30 35 2 26 27
M  V30 36 1 31 32
M  V30 END BOND
M  V30 END CTAB
M  END
>  <pIC50>
5.488117

>  <Serie>
Naphthyridine

>  <Molecule Name>
CTX-1019471

>  <SMILES>
CC1=C(OC2=C1C=CC=C2)C(=O)N1CCC2=C(C1)N=C(C=C2)C(=O)NCC1=CC=NC=C1

$$$$
CTX-1020753
OCL MolfileCreator  2D

  0  0  0  0  0  0              0 V3000
M  V30 BEGIN CTAB
M  V30 COUNTS 40 45 0 0 0
M  V30 BEGIN ATOM
M  V30 1 Cl 9.7817 0.8848 0.0 0
M  V30 2 C 9.5737 -0.0932 0.0 0
M  V30 3 C 8.6602 -0.5 0.0 0
M  V30 4 C 10.2429 -0.8364 0.0 0
M  V30 5 N 8.7647 -1.4945 0.0 0
M  V30 6 C 7.7942 0.0 0.0 0
M  V30 7 C 9.7429 -1.7024 0.0 0
M  V30 8 C 11.2429 -0.8364 0.0 0
M  V30 9 C 8.0216 -2.1636 0.0 0
M  V30 10 O 7.7942 0.9999 0.0 0
M  V30 11 N 6.9282 -0.5 0.0 0
M  V30 12 C 10.2429 -2.5684 0.0 0
M  V30 13 C 11.7429 -1.7024 0.0 0
M  V30 14 C 6.0621 0.0 0.0 0
M  V30 15 C 6.9282 -1.4999 0.0 0
M  V30 16 C 11.2429 -2.5684 0.0 0
M  V30 17 C 5.1961 -0.5 0.0 0
M  V30 18 C 6.0621 -1.9999 0.0 0
M  V30 19 N 4.3301 0.0 0.0 0
M  V30 20 C 5.1961 -1.4999 0.0 0
M  V30 21 C 3.4641 -0.5 0.0 0
M  V30 22 C 4.3301 -2.0 0.0 0
M  V30 23 C 2.598 0.0 0.0 0
M  V30 24 C 3.4641 -1.4999 0.0 0
M  V30 25 O 2.598 1.0 0.0 0
M  V30 26 N 1.732 -0.5 0.0 0
M  V30 27 C 0.866 0.0 0.0 0
M  V30 28 C 0.0 -0.5 0.0 0
M  V30 29 C -0.866 0.0 0.0 0
M  V30 30 C 0.0 -1.4999 0.0 0
M  V30 31 C -1.732 -0.4999 0.0 0
M  V30 32 C -0.866 -1.9999 0.0 0
M  V30 33 C -1.732 -1.4999 0.0 0
M  V30 34 N -2.598 -1.9999 0.0 0
M  V30 35 C -3.4641 -1.4999 0.0 0
M  V30 36 C -2.598 -2.9999 0.0 0
M  V30 37 C -4.3301 -1.9999 0.0 0
M  V30 38 C -3.4641 -3.4999 0.0 0
M  V30 39 N -4.3301 -2.9999 0.0 0
M  V30 40 C -5.1961 -3.4999 0.0 0
M  V30 END ATOM
M  V30 BEGIN BOND
M  V30 1 1 1 2
M  V30 2 2 2 3
M  V30 3 1 2 4
M  V30 4 1 3 5
M  V30 5 1 3 6
M  V30 6 2 4 7
M  V30 7 1 4 8
M  V30 8 1 5 9
M  V30 9 2 6 10
M  V30 10 1 6 11
M  V30 11 1 7 12
M  V30 12 2 8 13
M  V30 13 1 11 14
M  V30 14 1 11 15
M  V30 15 2 12 16
M  V30 16 1 14 17
M  V30 17 1 15 18
M  V30 18 2 17 19
M  V30 19 1 17 20
M  V30 20 1 19 21
M  V30 21 2 20 22
M  V30 22 1 21 23
M  V30 23 2 21 24
M  V30 24 2 23 25
M  V30 25 1 23 26
M  V30 26 1 26 27
M  V30 27 1 27 28
M  V30 28 2 28 29
M  V30 29 1 28 30
M  V30 30 1 29 31
M  V30 31 2 30 32
M  V30 32 2 31 33
M  V30 33 1 33 34
M  V30 34 1 34 35
M  V30 35 1 34 36
M  V30 36 1 35 37
M  V30 37 1 36 38
M  V30 38 1 37 39
M  V30 39 1 39 40
M  V30 40 1 5 7
M  V30 41 1 13 16
M  V30 42 1 18 20
M  V30 43 1 22 24
M  V30 44 1 32 33
M  V30 45 1 38 39
M  V30 END BOND
M  V30 END CTAB
M  END
>  <pIC50>
5.468521

>  <Serie>
Naphthyridine

>  <Molecule Name>
CTX-1020753

>  <SMILES>
CN1C2=C(C=CC=C2)C(Cl)=C1C(=O)N1CCC2=CC=C(N=C2C1)C(=O)NCC1=CC=C(C=C1)N1CCN(C)CC1

$$$$
CTX-1020671
OCL MolfileCreator  2D

  0  0  0  0  0  0              0 V3000
M  V30 BEGIN CTAB
M  V30 COUNTS 30 34 0 0 0
M  V30 BEGIN ATOM
M  V30 1 S 6.5664 -0.1398 0.0 0
M  V30 2 C 5.1961 -0.75 0.0 0
M  V30 3 C 7.5701 -1.2546 0.0 0
M  V30 4 C 3.8971 0.0 0.0 0
M  V30 5 C 5.3529 -2.2417 0.0 0
M  V30 6 C 6.8201 -2.5536 0.0 0
M  V30 7 C 9.0701 -1.2546 0.0 0
M  V30 8 O 3.8971 1.5 0.0 0
M  V30 9 N 2.598 -0.75 0.0 0
M  V30 10 C 7.5701 -3.8526 0.0 0
M  V30 11 C 9.8201 -2.5536 0.0 0
M  V30 12 C 1.299 0.0 0.0 0
M  V30 13 N 9.0701 -3.8526 0.0 0
M  V30 14 C 0.0 -0.75 0.0 0
M  V30 15 C 9.8201 -5.1517 0.0 0
M  V30 16 C -1.299 0.0 0.0 0
M  V30 17 C 0.0 -2.25 0.0 0
M  V30 18 O 9.0701 -6.4507 0.0 0
M  V30 19 C 11.3201 -5.1517 0.0 0
M  V30 20 C -2.598 -0.7499 0.0 0
M  V30 21 C -1.299 -2.9999 0.0 0
M  V30 22 C 12.2018 -6.3652 0.0 0
M  V30 23 C 12.2018 -3.9382 0.0 0
M  V30 24 C -2.598 -2.2499 0.0 0
M  V30 25 N 13.6284 -5.9017 0.0 0
M  V30 26 C 11.8899 -7.8324 0.0 0
M  V30 27 N 13.6284 -4.4017 0.0 0
M  V30 28 C 14.7431 -6.9054 0.0 0
M  V30 29 N 13.0046 -8.8361 0.0 0
M  V30 30 C 14.4312 -8.3726 0.0 0
M  V30 END ATOM
M  V30 BEGIN BOND
M  V30 1 1 1 2
M  V30 2 1 1 3
M  V30 3 1 2 4
M  V30 4 2 2 5
M  V30 5 2 3 6
M  V30 6 1 3 7
M  V30 7 2 4 8
M  V30 8 1 4 9
M  V30 9 1 6 10
M  V30 10 1 7 11
M  V30 11 1 9 12
M  V30 12 1 10 13
M  V30 13 1 12 14
M  V30 14 1 13 15
M  V30 15 2 14 16
M  V30 16 1 14 17
M  V30 17 2 15 18
M  V30 18 1 15 19
M  V30 19 1 16 20
M  V30 20 2 17 21
M  V30 21 2 19 22
M  V30 22 1 19 23
M  V30 23 2 20 24
M  V30 24 1 22 25
M  V30 25 1 22 26
M  V30 26 2 23 27
M  V30 27 1 25 28
M  V30 28 2 26 29
M  V30 29 2 28 30
M  V30 30 1 5 6
M  V30 31 1 11 13
M  V30 32 1 21 24
M  V30 33 1 25 27
M  V30 34 1 29 30
M  V30 END BOND
M  V30 END CTAB
M  END
>  <pIC50>
5.463442

>  <Serie>
Tetrahydrothienopyridine

>  <Molecule Name>
CTX-1020671

>  <SMILES>
O=C(NCC1=CC=CC=C1)C1=CC2=C(CCN(C2)C(=O)C2=C3C=NC=CN3N=C2)S1

$$$$
CTX-1020697
OCL MolfileCreator  2D

  0  0  0  0  0  0              0 V3000
M  V30 BEGIN CTAB
M  V30 COUNTS 39 44 0 0 0
M  V30 BEGIN ATOM
M  V30 1 O 5.1961 -0.75 0.0 0
M  V30 2 C 3.8971 0.0 0.0 0
M  V30 3 N 2.598 -0.75 0.0 0
M  V30 4 C 3.8971 1.5 0.0 0
M  V30 5 C 1.299 0.0 0.0 0
M  V30 6 N 5.1961 2.25 0.0 0
M  V30 7 C 2.598 2.25 0.0 0
M  V30 8 C 0.0 -0.75 0.0 0
M  V30 9 C 5.1961 3.75 0.0 0
M  V30 10 C 2.598 3.75 0.0 0
M  V30 11 C -1.299 0.0 0.0 0
M  V30 12 C 0.0 -2.2499 0.0 0
M  V30 13 C 3.8971 4.5 0.0 0
M  V30 14 C 6.4951 4.5 0.0 0
M  V30 15 C -2.598 -0.7499 0.0 0
M  V30 16 C -1.299 -2.9999 0.0 0
M  V30 17 C 3.8971 6.0 0.0 0
M  V30 18 N 6.4951 6.0 0.0 0
M  V30 19 C -2.598 -2.2499 0.0 0
M  V30 20 C 5.1961 6.75 0.0 0
M  V30 21 C 7.7942 6.75 0.0 0
M  V30 22 C -3.8971 -2.9999 0.0 0
M  V30 23 O 9.0932 6.0 0.0 0
M  V30 24 C 7.7942 8.25 0.0 0
M  V30 25 C -5.1961 -2.2499 0.0 0
M  V30 26 C -3.8971 -4.4999 0.0 0
M  V30 27 O 9.0077 9.1316 0.0 0
M  V30 28 C 6.5807 9.1316 0.0 0
M  V30 29 C -6.4951 -2.9999 0.0 0
M  V30 30 C -5.1961 -5.2499 0.0 0
M  V30 31 C 8.5442 10.5582 0.0 0
M  V30 32 C 7.0442 10.5582 0.0 0
M  V30 33 C 5.1541 8.6681 0.0 0
M  V30 34 N -6.4951 -4.4999 0.0 0
M  V30 35 C 9.2942 11.8573 0.0 0
M  V30 36 C 6.2942 11.8573 0.0 0
M  V30 37 C -7.7942 -5.2499 0.0 0
M  V30 38 C 8.5442 13.1563 0.0 0
M  V30 39 C 7.0442 13.1563 0.0 0
M  V30 END ATOM
M  V30 BEGIN BOND
M  V30 1 2 1 2
M  V30 2 1 2 3
M  V30 3 1 2 4
M  V30 4 1 3 5
M  V30 5 2 4 6
M  V30 6 1 4 7
M  V30 7 1 5 8
M  V30 8 1 6 9
M  V30 9 2 7 10
M  V30 10 2 8 11
M  V30 11 1 8 12
M  V30 12 2 9 13
M  V30 13 1 9 14
M  V30 14 1 11 15
M  V30 15 2 12 16
M  V30 16 1 13 17
M  V30 17 1 14 18
M  V30 18 2 15 19
M  V30 19 1 17 20
M  V30 20 1 18 21
M  V30 21 1 19 22
M  V30 22 2 21 23
M  V30 23 1 21 24
M  V30 24 1 22 25
M  V30 25 1 22 26
M  V30 26 1 24 27
M  V30 27 2 24 28
M  V30 28 1 25 29
M  V30 29 1 26 30
M  V30 30 1 27 31
M  V30 31 1 28 32
M  V30 32 1 28 33
M  V30 33 1 29 34
M  V30 34 1 31 35
M  V30 35 1 32 36
M  V30 36 1 34 37
M  V30 37 2 35 38
M  V30 38 2 36 39
M  V30 39 1 10 13
M  V30 40 1 16 19
M  V30 41 1 18 20
M  V30 42 1 30 34
M  V30 43 2 31 32
M  V30 44 1 38 39
M  V30 END BOND
M  V30 END CTAB
M  END
>  <pIC50>
5.412289

>  <Serie>
Naphthyridine

>  <Molecule Name>
CTX-1020697

>  <SMILES>
CN1CCC(CC1)C1=CC=C(CNC(=O)C2=CC=C3CCN(CC3=N2)C(=O)C2=C(C)C3=C(O2)C=CC=C3)C=C1

$$$$
CTX-1020566
OCL MolfileCreator  2D

  0  0  0  0  0  0              0 V3000
M  V30 BEGIN CTAB
M  V30 COUNTS 33 37 0 0 0
M  V30 BEGIN ATOM
M  V30 1 O 5.1961 -0.75 0.0 0
M  V30 2 C 3.8971 0.0 0.0 0
M  V30 3 N 2.598 -0.75 0.0 0
M  V30 4 C 3.8971 1.5 0.0 0
M  V30 5 C 1.299 0.0 0.0 0
M  V30 6 N 5.1961 2.25 0.0 0
M  V30 7 C 2.598 2.25 0.0 0
M  V30 8 C 0.0 -0.75 0.0 0
M  V30 9 C 5.1961 3.75 0.0 0
M  V30 10 C 2.598 3.75 0.0 0
M  V30 11 C -1.299 0.0 0.0 0
M  V30 12 C 0.0 -2.25 0.0 0
M  V30 13 C 3.8971 4.5 0.0 0
M  V30 14 C 6.4951 4.5 0.0 0
M  V30 15 C -2.598 -0.7499 0.0 0
M  V30 16 C -1.299 -2.9999 0.0 0
M  V30 17 C 3.8971 6.0 0.0 0
M  V30 18 N 6.4951 6.0 0.0 0
M  V30 19 C -2.598 -2.2499 0.0 0
M  V30 20 C 5.1961 6.75 0.0 0
M  V30 21 C 7.7942 6.75 0.0 0
M  V30 22 O -3.8971 -2.9999 0.0 0
M  V30 23 O 9.0932 6.0 0.0 0
M  V30 24 C 7.7942 8.25 0.0 0
M  V30 25 O 9.0077 9.1316 0.0 0
M  V30 26 C 6.5807 9.1316 0.0 0
M  V30 27 C 8.5442 10.5582 0.0 0
M  V30 28 C 7.0442 10.5582 0.0 0
M  V30 29 C 5.1541 8.6681 0.0 0
M  V30 30 C 9.2942 11.8573 0.0 0
M  V30 31 C 6.2942 11.8573 0.0 0
M  V30 32 C 8.5442 13.1563 0.0 0
M  V30 33 C 7.0442 13.1563 0.0 0
M  V30 END ATOM
M  V30 BEGIN BOND
M  V30 1 2 1 2
M  V30 2 1 2 3
M  V30 3 1 2 4
M  V30 4 1 3 5
M  V30 5 2 4 6
M  V30 6 1 4 7
M  V30 7 1 5 8
M  V30 8 1 6 9
M  V30 9 2 7 10
M  V30 10 2 8 11
M  V30 11 1 8 12
M  V30 12 2 9 13
M  V30 13 1 9 14
M  V30 14 1 11 15
M  V30 15 2 12 16
M  V30 16 1 13 17
M  V30 17 1 14 18
M  V30 18 2 15 19
M  V30 19 1 17 20
M  V30 20 1 18 21
M  V30 21 1 19 22
M  V30 22 2 21 23
M  V30 23 1 21 24
M  V30 24 1 24 25
M  V30 25 2 24 26
M  V30 26 1 25 27
M  V30 27 1 26 28
M  V30 28 1 26 29
M  V30 29 1 27 30
M  V30 30 1 28 31
M  V30 31 2 30 32
M  V30 32 2 31 33
M  V30 33 1 10 13
M  V30 34 1 16 19
M  V30 35 1 18 20
M  V30 36 2 27 28
M  V30 37 1 32 33
M  V30 END BOND
M  V30 END CTAB
M  END
>  <pIC50>
5.411168

>  <Serie>
Naphthyridine

>  <Molecule Name>
CTX-1020566

>  <SMILES>
CC1=C(OC2=C1C=CC=C2)C(=O)N1CCC2=C(C1)N=C(C=C2)C(=O)NCC1=CC=C(O)C=C1

$$$$
CTX-1019757
OCL MolfileCreator  2D

  0  0  0  0  0  0              0 V3000
M  V30 BEGIN CTAB
M  V30 COUNTS 39 44 0 0 0
M  V30 BEGIN ATOM
M  V30 1 O 5.1961 -0.75 0.0 0
M  V30 2 C 3.8971 0.0 0.0 0
M  V30 3 N 2.598 -0.75 0.0 0
M  V30 4 C 3.8971 1.5 0.0 0
M  V30 5 C 1.299 0.0 0.0 0
M  V30 6 C 5.1961 2.25 0.0 0
M  V30 7 C 2.598 2.25 0.0 0
M  V30 8 C 0.0 -0.75 0.0 0
M  V30 9 C 5.1961 3.75 0.0 0
M  V30 10 C 2.598 3.75 0.0 0
M  V30 11 C -1.299 0.0 0.0 0
M  V30 12 C 0.0 -2.2499 0.0 0
M  V30 13 C 3.8971 4.5 0.0 0
M  V30 14 C 6.4951 4.5 0.0 0
M  V30 15 C -2.598 -0.7499 0.0 0
M  V30 16 C -1.299 -2.9999 0.0 0
M  V30 17 C 3.8971 6.0 0.0 0
M  V30 18 N 6.4951 6.0 0.0 0
M  V30 19 C -2.598 -2.2499 0.0 0
M  V30 20 C 5.1961 6.75 0.0 0
M  V30 21 C 7.7942 6.75 0.0 0
M  V30 22 N -3.8971 -2.9999 0.0 0
M  V30 23 O 9.0932 6.0 0.0 0
M  V30 24 C 7.7942 8.25 0.0 0
M  V30 25 C -5.1961 -2.2499 0.0 0
M  V30 26 C -3.8971 -4.4999 0.0 0
M  V30 27 O 9.0077 9.1316 0.0 0
M  V30 28 C 6.5807 9.1316 0.0 0
M  V30 29 C -6.4951 -2.9999 0.0 0
M  V30 30 C -5.1961 -5.2499 0.0 0
M  V30 31 C 8.5442 10.5582 0.0 0
M  V30 32 C 7.0442 10.5582 0.0 0
M  V30 33 C 5.1541 8.6681 0.0 0
M  V30 34 N -6.4951 -4.4999 0.0 0
M  V30 35 C 9.2942 11.8573 0.0 0
M  V30 36 C 6.2942 11.8573 0.0 0
M  V30 37 C -7.7942 -5.2499 0.0 0
M  V30 38 C 8.5442 13.1563 0.0 0
M  V30 39 C 7.0442 13.1563 0.0 0
M  V30 END ATOM
M  V30 BEGIN BOND
M  V30 1 2 1 2
M  V30 2 1 2 3
M  V30 3 1 2 4
M  V30 4 1 3 5
M  V30 5 2 4 6
M  V30 6 1 4 7
M  V30 7 1 5 8
M  V30 8 1 6 9
M  V30 9 2 7 10
M  V30 10 2 8 11
M  V30 11 1 8 12
M  V30 12 2 9 13
M  V30 13 1 9 14
M  V30 14 1 11 15
M  V30 15 2 12 16
M  V30 16 1 13 17
M  V30 17 1 14 18
M  V30 18 2 15 19
M  V30 19 1 17 20
M  V30 20 1 18 21
M  V30 21 1 19 22
M  V30 22 2 21 23
M  V30 23 1 21 24
M  V30 24 1 22 25
M  V30 25 1 22 26
M  V30 26 1 24 27
M  V30 27 2 24 28
M  V30 28 1 25 29
M  V30 29 1 26 30
M  V30 30 1 27 31
M  V30 31 1 28 32
M  V30 32 1 28 33
M  V30 33 1 29 34
M  V30 34 1 31 35
M  V30 35 1 32 36
M  V30 36 1 34 37
M  V30 37 2 35 38
M  V30 38 2 36 39
M  V30 39 1 10 13
M  V30 40 1 16 19
M  V30 41 1 18 20
M  V30 42 1 30 34
M  V30 43 2 31 32
M  V30 44 1 38 39
M  V30 END BOND
M  V30 END CTAB
M  END
>  <pIC50>
5.354578

>  <Serie>
Other

>  <Molecule Name>
CTX-1019757

>  <SMILES>
CN1CCN(CC1)C1=CC=C(CNC(=O)C2=CC3=C(CCN(C3)C(=O)C3=C(C)C4=C(O3)C=CC=C4)C=C2)C=C1

$$$$
CTX-1020882
OCL MolfileCreator  2D

  0  0  0  0  0  0              0 V3000
M  V30 BEGIN CTAB
M  V30 COUNTS 39 44 0 0 0
M  V30 BEGIN ATOM
M  V30 1 S 6.5664 -0.1398 0.0 0
M  V30 2 C 5.1961 -0.75 0.0 0
M  V30 3 C 7.5701 -1.2546 0.0 0
M  V30 4 C 3.8971 0.0 0.0 0
M  V30 5 C 5.3529 -2.2417 0.0 0
M  V30 6 C 6.8201 -2.5536 0.0 0
M  V30 7 C 9.0701 -1.2546 0.0 0
M  V30 8 O 3.8971 1.5 0.0 0
M  V30 9 N 2.598 -0.75 0.0 0
M  V30 10 C 7.5701 -3.8526 0.0 0
M  V30 11 C 9.8201 -2.5536 0.0 0
M  V30 12 C 1.299 0.0 0.0 0
M  V30 13 N 9.0701 -3.8526 0.0 0
M  V30 14 C 0.0 -0.75 0.0 0
M  V30 15 C 9.8201 -5.1517 0.0 0
M  V30 16 C -1.299 0.0 0.0 0
M  V30 17 C 0.0 -2.2499 0.0 0
M  V30 18 O 9.0701 -6.4507 0.0 0
M  V30 19 C 11.3201 -5.1517 0.0 0
M  V30 20 C -2.598 -0.7499 0.0 0
M  V30 21 C -1.299 -2.9999 0.0 0
M  V30 22 O 12.2018 -6.3652 0.0 0
M  V30 23 C 12.2018 -3.9382 0.0 0
M  V30 24 C -2.598 -2.2499 0.0 0
M  V30 25 C 13.6284 -5.9017 0.0 0
M  V30 26 C 13.6284 -4.4017 0.0 0
M  V30 27 C 11.7383 -2.5116 0.0 0
M  V30 28 N -3.8971 -2.9999 0.0 0
M  V30 29 C 14.9274 -6.6517 0.0 0
M  V30 30 C 14.9274 -3.6517 0.0 0
M  V30 31 C -5.1961 -2.2499 0.0 0
M  V30 32 C -3.8971 -4.4999 0.0 0
M  V30 33 O 14.9274 -8.1517 0.0 0
M  V30 34 C 16.2265 -5.9017 0.0 0
M  V30 35 C 16.2265 -4.4017 0.0 0
M  V30 36 C -6.4951 -2.9999 0.0 0
M  V30 37 C -5.1961 -5.2499 0.0 0
M  V30 38 N -6.4951 -4.4999 0.0 0
M  V30 39 C -7.7942 -5.2499 0.0 0
M  V30 END ATOM
M  V30 BEGIN BOND
M  V30 1 1 1 2
M  V30 2 1 1 3
M  V30 3 1 2 4
M  V30 4 2 2 5
M  V30 5 2 3 6
M  V30 6 1 3 7
M  V30 7 2 4 8
M  V30 8 1 4 9
M  V30 9 1 6 10
M  V30 10 1 7 11
M  V30 11 1 9 12
M  V30 12 1 10 13
M  V30 13 1 12 14
M  V30 14 1 13 15
M  V30 15 2 14 16
M  V30 16 1 14 17
M  V30 17 2 15 18
M  V30 18 1 15 19
M  V30 19 1 16 20
M  V30 20 2 17 21
M  V30 21 1 19 22
M  V30 22 2 19 23
M  V30 23 2 20 24
M  V30 24 1 22 25
M  V30 25 1 23 26
M  V30 26 1 23 27
M  V30 27 1 24 28
M  V30 28 1 25 29
M  V30 29 1 26 30
M  V30 30 1 28 31
M  V30 31 1 28 32
M  V30 32 1 29 33
M  V30 33 2 29 34
M  V30 34 2 30 35
M  V30 35 1 31 36
M  V30 36 1 32 37
M  V30 37 1 36 38
M  V30 38 1 38 39
M  V30 39 1 5 6
M  V30 40 1 11 13
M  V30 41 1 21 24
M  V30 42 2 25 26
M  V30 43 1 34 35
M  V30 44 1 37 38
M  V30 END BOND
M  V30 END CTAB
M  END
>  <pIC50>
5.326058

>  <Serie>
Tetrahydrothienopyridine

>  <Molecule Name>
CTX-1020882

>  <SMILES>
CN1CCN(CC1)C1=CC=C(CNC(=O)C2=CC3=C(CCN(C3)C(=O)C3=C(C)C4=CC=CC(O)=C4O3)S2)C=C1

$$$$
CTX-1020458
OCL MolfileCreator  2D

  0  0  0  0  0  0              0 V3000
M  V30 BEGIN CTAB
M  V30 COUNTS 40 45 0 0 0
M  V30 BEGIN ATOM
M  V30 1 O 5.1961 -0.75 0.0 0
M  V30 2 C 3.8971 0.0 0.0 0
M  V30 3 N 2.598 -0.75 0.0 0
M  V30 4 C 3.8971 1.5 0.0 0
M  V30 5 C 1.299 0.0 0.0 0
M  V30 6 N 5.1961 2.25 0.0 0
M  V30 7 C 2.598 2.25 0.0 0
M  V30 8 C 0.0 -0.75 0.0 0
M  V30 9 C 5.1961 3.75 0.0 0
M  V30 10 C 2.598 3.75 0.0 0
M  V30 11 C -1.299 0.0 0.0 0
M  V30 12 C 0.0 -2.2499 0.0 0
M  V30 13 C 3.8971 4.5 0.0 0
M  V30 14 C 6.4951 4.5 0.0 0
M  V30 15 C -2.598 -0.7499 0.0 0
M  V30 16 C -1.299 -2.9999 0.0 0
M  V30 17 C 3.8971 6.0 0.0 0
M  V30 18 N 6.4951 6.0 0.0 0
M  V30 19 C -2.598 -2.2499 0.0 0
M  V30 20 C 5.1961 6.75 0.0 0
M  V30 21 C 7.7942 6.75 0.0 0
M  V30 22 N -3.8971 -2.9999 0.0 0
M  V30 23 O 9.0932 6.0 0.0 0
M  V30 24 C 7.7942 8.25 0.0 0
M  V30 25 C -5.1961 -2.2499 0.0 0
M  V30 26 C -3.8971 -4.4999 0.0 0
M  V30 27 O 9.0077 9.1316 0.0 0
M  V30 28 C 6.5807 9.1316 0.0 0
M  V30 29 C -6.4951 -2.9999 0.0 0
M  V30 30 C -5.1961 -5.2499 0.0 0
M  V30 31 C 8.5442 10.5582 0.0 0
M  V30 32 C 7.0442 10.5582 0.0 0
M  V30 33 C 5.1541 8.6681 0.0 0
M  V30 34 N -6.4951 -4.4999 0.0 0
M  V30 35 C 9.2942 11.8573 0.0 0
M  V30 36 C 6.2942 11.8573 0.0 0
M  V30 37 C -7.7942 -5.2499 0.0 0
M  V30 38 C 8.5442 13.1563 0.0 0
M  V30 39 C 7.0442 13.1563 0.0 0
M  V30 40 C 9.2942 14.4553 0.0 0
M  V30 END ATOM
M  V30 BEGIN BOND
M  V30 1 2 1 2
M  V30 2 1 2 3
M  V30 3 1 2 4
M  V30 4 1 3 5
M  V30 5 2 4 6
M  V30 6 1 4 7
M  V30 7 1 5 8
M  V30 8 1 6 9
M  V30 9 2 7 10
M  V30 10 2 8 11
M  V30 11 1 8 12
M  V30 12 2 9 13
M  V30 13 1 9 14
M  V30 14 1 11 15
M  V30 15 2 12 16
M  V30 16 1 13 17
M  V30 17 1 14 18
M  V30 18 2 15 19
M  V30 19 1 17 20
M  V30 20 1 18 21
M  V30 21 1 19 22
M  V30 22 2 21 23
M  V30 23 1 21 24
M  V30 24 1 22 25
M  V30 25 1 22 26
M  V30 26 1 24 27
M  V30 27 2 24 28
M  V30 28 1 25 29
M  V30 29 1 26 30
M  V30 30 1 27 31
M  V30 31 1 28 32
M  V30 32 1 28 33
M  V30 33 1 29 34
M  V30 34 1 31 35
M  V30 35 1 32 36
M  V30 36 1 34 37
M  V30 37 2 35 38
M  V30 38 2 36 39
M  V30 39 1 38 40
M  V30 40 1 10 13
M  V30 41 1 16 19
M  V30 42 1 18 20
M  V30 43 1 30 34
M  V30 44 2 31 32
M  V30 45 1 38 39
M  V30 END BOND
M  V30 END CTAB
M  END
>  <pIC50>
5.323306

>  <Serie>
Naphthyridine

>  <Molecule Name>
CTX-1020458

>  <SMILES>
CN1CCN(CC1)C1=CC=C(CNC(=O)C2=NC3=C(CCN(C3)C(=O)C3=C(C)C4=C(O3)C=C(C)C=C4)C=C2)C=C1

$$$$
CTX-1020521
OCL MolfileCreator  2D

  0  0  0  0  0  0              0 V3000
M  V30 BEGIN CTAB
M  V30 COUNTS 45 51 0 0 0
M  V30 BEGIN ATOM
M  V30 1 O 5.1961 -0.75 0.0 0
M  V30 2 C 3.8971 0.0 0.0 0
M  V30 3 N 2.598 -0.75 0.0 0
M  V30 4 C 3.8971 1.5 0.0 0
M  V30 5 C 1.299 0.0 0.0 0
M  V30 6 N 5.1961 2.25 0.0 0
M  V30 7 C 2.598 2.25 0.0 0
M  V30 8 C 0.0 -0.75 0.0 0
M  V30 9 C 5.1961 3.75 0.0 0
M  V30 10 C 2.598 3.75 0.0 0
M  V30 11 C -1.299 0.0 0.0 0
M  V30 12 C 0.0 -2.2499 0.0 0
M  V30 13 C 3.8971 4.5 0.0 0
M  V30 14 C 6.4951 4.5 0.0 0
M  V30 15 C 1.299 4.5 0.0 0
M  V30 16 C -2.598 -0.7499 0.0 0
M  V30 17 C -1.299 -2.9999 0.0 0
M  V30 18 C 3.8971 6.0 0.0 0
M  V30 19 N 6.4951 6.0 0.0 0
M  V30 20 C 1.1422 5.9917 0.0 0
M  V30 21 C -0.0712 3.8898 0.0 0
M  V30 22 C -2.598 -2.2499 0.0 0
M  V30 23 C 5.1961 6.75 0.0 0
M  V30 24 C 7.7942 6.75 0.0 0
M  V30 25 N -0.3249 6.3036 0.0 0
M  V30 26 N -1.0749 5.0046 0.0 0
M  V30 27 N -3.8971 -2.9999 0.0 0
M  V30 28 O 9.0932 6.0 0.0 0
M  V30 29 C 7.7942 8.25 0.0 0
M  V30 30 C -2.5667 4.8478 0.0 0
M  V30 31 C -5.1961 -2.2499 0.0 0
M  V30 32 C -3.8971 -4.4999 0.0 0
M  V30 33 O 9.0077 9.1316 0.0 0
M  V30 34 C 6.5807 9.1316 0.0 0
M  V30 35 C -6.4951 -2.9999 0.0 0
M  V30 36 C -5.1961 -5.2499 0.0 0
M  V30 37 C 8.5442 10.5582 0.0 0
M  V30 38 C 7.0442 10.5582 0.0 0
M  V30 39 C 5.1541 8.6681 0.0 0
M  V30 40 N -6.4951 -4.4999 0.0 0
M  V30 41 C 9.2942 11.8573 0.0 0
M  V30 42 C 6.2942 11.8573 0.0 0
M  V30 43 C -7.7942 -5.2499 0.0 0
M  V30 44 C 8.5442 13.1563 0.0 0
M  V30 45 C 7.0442 13.1563 0.0 0
M  V30 END ATOM
M  V30 BEGIN BOND
M  V30 1 2 1 2
M  V30 2 1 2 3
M  V30 3 1 2 4
M  V30 4 1 3 5
M  V30 5 2 4 6
M  V30 6 1 4 7
M  V30 7 1 5 8
M  V30 8 1 6 9
M  V30 9 2 7 10
M  V30 10 2 8 11
M  V30 11 1 8 12
M  V30 12 2 9 13
M  V30 13 1 9 14
M  V30 14 1 10 15
M  V30 15 1 11 16
M  V30 16 2 12 17
M  V30 17 1 13 18
M  V30 18 1 14 19
M  V30 19 1 15 20
M  V30 20 2 15 21
M  V30 21 2 16 22
M  V30 22 1 18 23
M  V30 23 1 19 24
M  V30 24 2 20 25
M  V30 25 1 21 26
M  V30 26 1 22 27
M  V30 27 2 24 28
M  V30 28 1 24 29
M  V30 29 1 26 30
M  V30 30 1 27 31
M  V30 31 1 27 32
M  V30 32 1 29 33
M  V30 33 2 29 34
M  V30 34 1 31 35
M  V30 35 1 32 36
M  V30 36 1 33 37
M  V30 37 1 34 38
M  V30 38 1 34 39
M  V30 39 1 35 40
M  V30 40 1 37 41
M  V30 41 1 38 42
M  V30 42 1 40 43
M  V30 43 2 41 44
M  V30 44 2 42 45
M  V30 45 1 10 13
M  V30 46 1 17 22
M  V30 47 1 19 23
M  V30 48 1 25 26
M  V30 49 1 36 40
M  V30 50 2 37 38
M  V30 51 1 44 45
M  V30 END BOND
M  V30 END CTAB
M  END
>  <pIC50>
5.2652

>  <Serie>
Naphthyridine

>  <Molecule Name>
CTX-1020521

>  <SMILES>
CN1C=C(C=N1)C1=C2CCN(CC2=NC(=C1)C(=O)NCC1=CC=C(C=C1)N1CCN(C)CC1)C(=O)C1=C(C)C2=C(O1)C=CC=C2

$$$$
CTX-1019496
OCL MolfileCreator  2D

  0  0  0  0  0  0              0 V3000
M  V30 BEGIN CTAB
M  V30 COUNTS 31 35 0 0 0
M  V30 BEGIN ATOM
M  V30 1 S 4.3776 -0.0932 0.0 0
M  V30 2 C 3.4641 -0.5 0.0 0
M  V30 3 C 5.0467 -0.8364 0.0 0
M  V30 4 C 3.5686 -1.4945 0.0 0
M  V30 5 C 2.598 0.0 0.0 0
M  V30 6 N 4.5467 -1.7024 0.0 0
M  V30 7 N 1.732 -0.5 0.0 0
M  V30 8 C 0.866 0.0 0.0 0
M  V30 9 O 0.866 1.0 0.0 0
M  V30 10 C 0.0 -0.5 0.0 0
M  V30 11 N -0.866 0.0 0.0 0
M  V30 12 C 0.0 -1.4999 0.0 0
M  V30 13 C -1.732 -0.4999 0.0 0
M  V30 14 C -0.866 -1.9999 0.0 0
M  V30 15 C -1.732 -1.4999 0.0 0
M  V30 16 C -2.598 0.0 0.0 0
M  V30 17 C -2.598 -1.9999 0.0 0
M  V30 18 N -3.4641 -0.4999 0.0 0
M  V30 19 C -3.4641 -1.4999 0.0 0
M  V30 20 C -4.3301 0.0 0.0 0
M  V30 21 O -4.3301 1.0 0.0 0
M  V30 22 C -5.1961 -0.4999 0.0 0
M  V30 23 O -6.1096 -0.0932 0.0 0
M  V30 24 C -5.3006 -1.4945 0.0 0
M  V30 25 C -6.7788 -0.8364 0.0 0
M  V30 26 C -6.2788 -1.7024 0.0 0
M  V30 27 C -4.5575 -2.1636 0.0 0
M  V30 28 C -7.7788 -0.8364 0.0 0
M  V30 29 C -6.7788 -2.5684 0.0 0
M  V30 30 C -8.2788 -1.7024 0.0 0
M  V30 31 C -7.7788 -2.5684 0.0 0
M  V30 END ATOM
M  V30 BEGIN BOND
M  V30 1 1 1 2
M  V30 2 1 1 3
M  V30 3 2 2 4
M  V30 4 1 2 5
M  V30 5 2 3 6
M  V30 6 1 5 7
M  V30 7 1 7 8
M  V30 8 2 8 9
M  V30 9 1 8 10
M  V30 10 2 10 11
M  V30 11 1 10 12
M  V30 12 1 11 13
M  V30 13 2 12 14
M  V30 14 2 13 15
M  V30 15 1 13 16
M  V30 16 1 15 17
M  V30 17 1 16 18
M  V30 18 1 17 19
M  V30 19 1 18 20
M  V30 20 2 20 21
M  V30 21 1 20 22
M  V30 22 1 22 23
M  V30 23 2 22 24
M  V30 24 1 23 25
M  V30 25 1 24 26
M  V30 26 1 24 27
M  V30 27 1 25 28
M  V30 28 1 26 29
M  V30 29 2 28 30
M  V30 30 2 29 31
M  V30 31 1 4 6
M  V30 32 1 14 15
M  V30 33 1 18 19
M  V30 34 2 25 26
M  V30 35 1 30 31
M  V30 END BOND
M  V30 END CTAB
M  END
>  <pIC50>
5.262013

>  <Serie>
Naphthyridine

>  <Molecule Name>
CTX-1019496

>  <SMILES>
CC1=C(OC2=C1C=CC=C2)C(=O)N1CCC2=C(C1)N=C(C=C2)C(=O)NCC1=CN=CS1

$$$$
CTX-1020838
OCL MolfileCreator  2D

  0  0  0  0  0  0              0 V3000
M  V30 BEGIN CTAB
M  V30 COUNTS 40 45 0 0 0
M  V30 BEGIN ATOM
M  V30 1 Cl 9.7817 0.8848 0.0 0
M  V30 2 C 9.5737 -0.0932 0.0 0
M  V30 3 C 8.6602 -0.5 0.0 0
M  V30 4 C 10.2429 -0.8364 0.0 0
M  V30 5 O 8.7647 -1.4945 0.0 0
M  V30 6 C 7.7942 0.0 0.0 0
M  V30 7 C 9.7429 -1.7024 0.0 0
M  V30 8 C 11.2429 -0.8364 0.0 0
M  V30 9 O 7.7942 0.9999 0.0 0
M  V30 10 N 6.9282 -0.5 0.0 0
M  V30 11 C 10.2429 -2.5684 0.0 0
M  V30 12 C 11.7429 -1.7024 0.0 0
M  V30 13 C 6.0621 0.0 0.0 0
M  V30 14 C 6.9282 -1.4999 0.0 0
M  V30 15 F 9.7429 -3.4344 0.0 0
M  V30 16 C 11.2429 -2.5684 0.0 0
M  V30 17 C 5.1961 -0.5 0.0 0
M  V30 18 C 6.0621 -1.9999 0.0 0
M  V30 19 N 4.3301 0.0 0.0 0
M  V30 20 C 5.1961 -1.4999 0.0 0
M  V30 21 C 3.4641 -0.5 0.0 0
M  V30 22 C 4.3301 -2.0 0.0 0
M  V30 23 C 2.598 0.0 0.0 0
M  V30 24 C 3.4641 -1.4999 0.0 0
M  V30 25 O 2.598 1.0 0.0 0
M  V30 26 N 1.732 -0.5 0.0 0
M  V30 27 C 0.866 0.0 0.0 0
M  V30 28 C 0.0 -0.5 0.0 0
M  V30 29 C -0.866 0.0 0.0 0
M  V30 30 C 0.0 -1.4999 0.0 0
M  V30 31 C -1.732 -0.4999 0.0 0
M  V30 32 C -0.866 -1.9999 0.0 0
M  V30 33 C -1.732 -1.4999 0.0 0
M  V30 34 N -2.598 -1.9999 0.0 0
M  V30 35 C -3.4641 -1.4999 0.0 0
M  V30 36 C -2.598 -2.9999 0.0 0
M  V30 37 C -4.3301 -1.9999 0.0 0
M  V30 38 C -3.4641 -3.4999 0.0 0
M  V30 39 N -4.3301 -2.9999 0.0 0
M  V30 40 C -5.1961 -3.4999 0.0 0
M  V30 END ATOM
M  V30 BEGIN BOND
M  V30 1 1 1 2
M  V30 2 2 2 3
M  V30 3 1 2 4
M  V30 4 1 3 5
M  V30 5 1 3 6
M  V30 6 2 4 7
M  V30 7 1 4 8
M  V30 8 2 6 9
M  V30 9 1 6 10
M  V30 10 1 7 11
M  V30 11 2 8 12
M  V30 12 1 10 13
M  V30 13 1 10 14
M  V30 14 1 11 15
M  V30 15 2 11 16
M  V30 16 1 13 17
M  V30 17 1 14 18
M  V30 18 2 17 19
M  V30 19 1 17 20
M  V30 20 1 19 21
M  V30 21 2 20 22
M  V30 22 1 21 23
M  V30 23 2 21 24
M  V30 24 2 23 25
M  V30 25 1 23 26
M  V30 26 1 26 27
M  V30 27 1 27 28
M  V30 28 2 28 29
M  V30 29 1 28 30
M  V30 30 1 29 31
M  V30 31 2 30 32
M  V30 32 2 31 33
M  V30 33 1 33 34
M  V30 34 1 34 35
M  V30 35 1 34 36
M  V30 36 1 35 37
M  V30 37 1 36 38
M  V30 38 1 37 39
M  V30 39 1 39 40
M  V30 40 1 5 7
M  V30 41 1 12 16
M  V30 42 1 18 20
M  V30 43 1 22 24
M  V30 44 1 32 33
M  V30 45 1 38 39
M  V30 END BOND
M  V30 END CTAB
M  END
>  <pIC50>
5.208309

>  <Serie>
Naphthyridine

>  <Molecule Name>
CTX-1020838

>  <SMILES>
CN1CCN(CC1)C1=CC=C(CNC(=O)C2=CC=C3CCN(CC3=N2)C(=O)C2=C(Cl)C3=C(O2)C(F)=CC=C3)C=C1

$$$$
CTX-1019813
OCL MolfileCreator  2D

  0  0  0  0  0  0              0 V3000
M  V30 BEGIN CTAB
M  V30 COUNTS 38 43 0 0 0
M  V30 BEGIN ATOM
M  V30 1 O 5.1961 -0.75 0.0 0
M  V30 2 C 3.8971 0.0 0.0 0
M  V30 3 N 2.598 -0.75 0.0 0
M  V30 4 C 3.8971 1.5 0.0 0
M  V30 5 C 1.299 0.0 0.0 0
M  V30 6 N 5.1961 2.25 0.0 0
M  V30 7 C 2.598 2.25 0.0 0
M  V30 8 C 0.0 -0.75 0.0 0
M  V30 9 C 5.1961 3.75 0.0 0
M  V30 10 C 2.598 3.75 0.0 0
M  V30 11 C -1.299 0.0 0.0 0
M  V30 12 C 0.0 -2.2499 0.0 0
M  V30 13 C 3.8971 4.5 0.0 0
M  V30 14 C 6.4951 4.5 0.0 0
M  V30 15 C -2.598 -0.7499 0.0 0
M  V30 16 C -1.299 -2.9999 0.0 0
M  V30 17 C 3.8971 6.0 0.0 0
M  V30 18 N 6.4951 6.0 0.0 0
M  V30 19 C -2.598 -2.2499 0.0 0
M  V30 20 C 5.1961 6.75 0.0 0
M  V30 21 C 7.7942 6.75 0.0 0
M  V30 22 N -3.8971 -2.9999 0.0 0
M  V30 23 O 9.0932 6.0 0.0 0
M  V30 24 C 7.7942 8.25 0.0 0
M  V30 25 C -5.1961 -2.2499 0.0 0
M  V30 26 C -3.8971 -4.4999 0.0 0
M  V30 27 C 9.0077 9.1316 0.0 0
M  V30 28 C 6.5807 9.1316 0.0 0
M  V30 29 C -6.4951 -2.9999 0.0 0
M  V30 30 C -5.1961 -5.2499 0.0 0
M  V30 31 C 8.5442 10.5582 0.0 0
M  V30 32 C 10.4749 8.8198 0.0 0
M  V30 33 O 7.0442 10.5582 0.0 0
M  V30 34 N -6.4951 -4.4999 0.0 0
M  V30 35 C 9.5479 11.6729 0.0 0
M  V30 36 C 11.4786 9.9345 0.0 0
M  V30 37 C -7.7942 -5.2499 0.0 0
M  V30 38 C 11.0151 11.3611 0.0 0
M  V30 END ATOM
M  V30 BEGIN BOND
M  V30 1 2 1 2
M  V30 2 1 2 3
M  V30 3 1 2 4
M  V30 4 1 3 5
M  V30 5 2 4 6
M  V30 6 1 4 7
M  V30 7 1 5 8
M  V30 8 1 6 9
M  V30 9 2 7 10
M  V30 10 2 8 11
M  V30 11 1 8 12
M  V30 12 2 9 13
M  V30 13 1 9 14
M  V30 14 1 11 15
M  V30 15 2 12 16
M  V30 16 1 13 17
M  V30 17 1 14 18
M  V30 18 2 15 19
M  V30 19 1 17 20
M  V30 20 1 18 21
M  V30 21 1 19 22
M  V30 22 2 21 23
M  V30 23 1 21 24
M  V30 24 1 22 25
M  V30 25 1 22 26
M  V30 26 1 24 27
M  V30 27 2 24 28
M  V30 28 1 25 29
M  V30 29 1 26 30
M  V30 30 2 27 31
M  V30 31 1 27 32
M  V30 32 1 28 33
M  V30 33 1 29 34
M  V30 34 1 31 35
M  V30 35 2 32 36
M  V30 36 1 34 37
M  V30 37 2 35 38
M  V30 38 1 10 13
M  V30 39 1 16 19
M  V30 40 1 18 20
M  V30 41 1 30 34
M  V30 42 1 31 33
M  V30 43 1 36 38
M  V30 END BOND
M  V30 END CTAB
M  END
>  <pIC50>
5.192465

>  <Serie>
Naphthyridine

>  <Molecule Name>
CTX-1019813

>  <SMILES>
CN1CCN(CC1)C1=CC=C(CNC(=O)C2=NC3=C(CCN(C3)C(=O)C3=COC4=C3C=CC=C4)C=C2)C=C1

$$$$
CTX-1020555
OCL MolfileCreator  2D

  0  0  0  0  0  0              0 V3000
M  V30 BEGIN CTAB
M  V30 COUNTS 38 43 0 0 0
M  V30 BEGIN ATOM
M  V30 1 Cl 3.2986 -7.9981 0.0 0
M  V30 2 C 4.7252 -7.5346 0.0 0
M  V30 3 C 5.8399 -8.5383 0.0 0
M  V30 4 C 5.037 -6.0673 0.0 0
M  V30 5 N 7.2665 -8.0747 0.0 0
M  V30 6 C 6.4636 -5.6038 0.0 0
M  V30 7 N 8.5655 -8.8247 0.0 0
M  V30 8 C 7.5783 -6.6075 0.0 0
M  V30 9 C 9.6802 -7.821 0.0 0
M  V30 10 C 9.0701 -6.4507 0.0 0
M  V30 11 C 9.8201 -5.1517 0.0 0
M  V30 12 O 11.3201 -5.1517 0.0 0
M  V30 13 N 9.0701 -3.8526 0.0 0
M  V30 14 C 7.5701 -3.8526 0.0 0
M  V30 15 C 9.8201 -2.5536 0.0 0
M  V30 16 C 6.8201 -2.5536 0.0 0
M  V30 17 C 9.0701 -1.2546 0.0 0
M  V30 18 C 7.5701 -1.2546 0.0 0
M  V30 19 C 5.3529 -2.2417 0.0 0
M  V30 20 S 6.5664 -0.1398 0.0 0
M  V30 21 C 5.1961 -0.75 0.0 0
M  V30 22 C 3.8971 0.0 0.0 0
M  V30 23 O 3.8971 1.5 0.0 0
M  V30 24 N 2.598 -0.75 0.0 0
M  V30 25 C 1.299 0.0 0.0 0
M  V30 26 C 0.0 -0.75 0.0 0
M  V30 27 C -1.299 0.0 0.0 0
M  V30 28 C 0.0 -2.2499 0.0 0
M  V30 29 C -2.598 -0.7499 0.0 0
M  V30 30 C -1.299 -2.9999 0.0 0
M  V30 31 C -2.598 -2.2499 0.0 0
M  V30 32 N -3.8971 -2.9999 0.0 0
M  V30 33 C -5.1961 -2.2499 0.0 0
M  V30 34 C -3.8971 -4.4999 0.0 0
M  V30 35 C -6.4951 -2.9999 0.0 0
M  V30 36 C -5.1961 -5.2499 0.0 0
M  V30 37 N -6.4951 -4.4999 0.0 0
M  V30 38 C -7.7942 -5.2499 0.0 0
M  V30 END ATOM
M  V30 BEGIN BOND
M  V30 1 1 1 2
M  V30 2 2 2 3
M  V30 3 1 2 4
M  V30 4 1 3 5
M  V30 5 2 4 6
M  V30 6 1 5 7
M  V30 7 1 5 8
M  V30 8 2 7 9
M  V30 9 2 8 10
M  V30 10 1 10 11
M  V30 11 2 11 12
M  V30 12 1 11 13
M  V30 13 1 13 14
M  V30 14 1 13 15
M  V30 15 1 14 16
M  V30 16 1 15 17
M  V30 17 2 16 18
M  V30 18 1 16 19
M  V30 19 1 18 20
M  V30 20 2 19 21
M  V30 21 1 21 22
M  V30 22 2 22 23
M  V30 23 1 22 24
M  V30 24 1 24 25
M  V30 25 1 25 26
M  V30 26 2 26 27
M  V30 27 1 26 28
M  V30 28 1 27 29
M  V30 29 2 28 30
M  V30 30 2 29 31
M  V30 31 1 31 32
M  V30 32 1 32 33
M  V30 33 1 32 34
M  V30 34 1 33 35
M  V30 35 1 34 36
M  V30 36 1 35 37
M  V30 37 1 37 38
M  V30 38 1 6 8
M  V30 39 1 9 10
M  V30 40 1 17 18
M  V30 41 1 20 21
M  V30 42 1 30 31
M  V30 43 1 36 37
M  V30 END BOND
M  V30 END CTAB
M  END
>  <pIC50>
5.189767

>  <Serie>
Tetrahydrothienopyridine

>  <Molecule Name>
CTX-1020555

>  <SMILES>
CN1CCN(CC1)C1=CC=C(CNC(=O)C2=CC3=C(CCN(C3)C(=O)C3=C4C=CC(Cl)=CN4N=C3)S2)C=C1

$$$$
CTX-1020523
OCL MolfileCreator  2D

  0  0  0  0  0  0              0 V3000
M  V30 BEGIN CTAB
M  V30 COUNTS 39 44 0 0 0
M  V30 BEGIN ATOM
M  V30 1 O 5.1961 -0.75 0.0 0
M  V30 2 C 3.8971 0.0 0.0 0
M  V30 3 N 2.598 -0.75 0.0 0
M  V30 4 C 3.8971 1.5 0.0 0
M  V30 5 C 1.299 0.0 0.0 0
M  V30 6 N 5.1961 2.25 0.0 0
M  V30 7 N 2.598 2.25 0.0 0
M  V30 8 C 0.0 -0.75 0.0 0
M  V30 9 C 5.1961 3.75 0.0 0
M  V30 10 C 2.598 3.75 0.0 0
M  V30 11 C -1.299 0.0 0.0 0
M  V30 12 C 0.0 -2.2499 0.0 0
M  V30 13 C 3.8971 4.5 0.0 0
M  V30 14 C 6.4951 4.5 0.0 0
M  V30 15 C -2.598 -0.7499 0.0 0
M  V30 16 C -1.299 -2.9999 0.0 0
M  V30 17 C 3.8971 6.0 0.0 0
M  V30 18 N 6.4951 6.0 0.0 0
M  V30 19 C -2.598 -2.2499 0.0 0
M  V30 20 C 5.1961 6.75 0.0 0
M  V30 21 C 7.7942 6.75 0.0 0
M  V30 22 N -3.8971 -2.9999 0.0 0
M  V30 23 O 9.0932 6.0 0.0 0
M  V30 24 C 7.7942 8.25 0.0 0
M  V30 25 C -5.1961 -2.2499 0.0 0
M  V30 26 C -3.8971 -4.4999 0.0 0
M  V30 27 O 9.0077 9.1316 0.0 0
M  V30 28 C 6.5807 9.1316 0.0 0
M  V30 29 C -6.4951 -2.9999 0.0 0
M  V30 30 C -5.1961 -5.2499 0.0 0
M  V30 31 C 8.5442 10.5582 0.0 0
M  V30 32 C 7.0442 10.5582 0.0 0
M  V30 33 C 5.1541 8.6681 0.0 0
M  V30 34 N -6.4951 -4.4999 0.0 0
M  V30 35 C 9.2942 11.8573 0.0 0
M  V30 36 C 6.2942 11.8573 0.0 0
M  V30 37 C -7.7942 -5.2499 0.0 0
M  V30 38 C 8.5442 13.1563 0.0 0
M  V30 39 C 7.0442 13.1563 0.0 0
M  V30 END ATOM
M  V30 BEGIN BOND
M  V30 1 2 1 2
M  V30 2 1 2 3
M  V30 3 1 2 4
M  V30 4 1 3 5
M  V30 5 2 4 6
M  V30 6 1 4 7
M  V30 7 1 5 8
M  V30 8 1 6 9
M  V30 9 2 7 10
M  V30 10 2 8 11
M  V30 11 1 8 12
M  V30 12 2 9 13
M  V30 13 1 9 14
M  V30 14 1 11 15
M  V30 15 2 12 16
M  V30 16 1 13 17
M  V30 17 1 14 18
M  V30 18 2 15 19
M  V30 19 1 17 20
M  V30 20 1 18 21
M  V30 21 1 19 22
M  V30 22 2 21 23
M  V30 23 1 21 24
M  V30 24 1 22 25
M  V30 25 1 22 26
M  V30 26 1 24 27
M  V30 27 2 24 28
M  V30 28 1 25 29
M  V30 29 1 26 30
M  V30 30 1 27 31
M  V30 31 1 28 32
M  V30 32 1 28 33
M  V30 33 1 29 34
M  V30 34 1 31 35
M  V30 35 1 32 36
M  V30 36 1 34 37
M  V30 37 2 35 38
M  V30 38 2 36 39
M  V30 39 1 10 13
M  V30 40 1 16 19
M  V30 41 1 18 20
M  V30 42 1 30 34
M  V30 43 2 31 32
M  V30 44 1 38 39
M  V30 END BOND
M  V30 END CTAB
M  END
>  <pIC50>
5.185752

>  <Serie>
Other

>  <Molecule Name>
CTX-1020523

>  <SMILES>
CN1CCN(CC1)C1=CC=C(CNC(=O)C2=NC=C3CCN(CC3=N2)C(=O)C2=C(C)C3=C(O2)C=CC=C3)C=C1

$$$$
CTX-1020441
OCL MolfileCreator  2D

  0  0  0  0  0  0              0 V3000
M  V30 BEGIN CTAB
M  V30 COUNTS 40 45 0 0 0
M  V30 BEGIN ATOM
M  V30 1 Cl 4.3301 -2.9999 0.0 0
M  V30 2 C 4.3301 -1.9999 0.0 0
M  V30 3 C 5.1961 -1.5 0.0 0
M  V30 4 C 3.4641 -1.5 0.0 0
M  V30 5 C 5.1961 -0.5 0.0 0
M  V30 6 C 6.0621 -2.0 0.0 0
M  V30 7 C 3.4641 -0.5 0.0 0
M  V30 8 N 4.3301 0.0 0.0 0
M  V30 9 C 6.0621 0.0 0.0 0
M  V30 10 C 6.9282 -1.5 0.0 0
M  V30 11 C 2.598 0.0 0.0 0
M  V30 12 N 6.9282 -0.5 0.0 0
M  V30 13 O 2.598 1.0 0.0 0
M  V30 14 N 1.732 -0.5 0.0 0
M  V30 15 C 7.7942 0.0 0.0 0
M  V30 16 C 0.866 0.0 0.0 0
M  V30 17 O 8.6602 -0.5 0.0 0
M  V30 18 C 7.7942 0.9999 0.0 0
M  V30 19 C 0.0 -0.5 0.0 0
M  V30 20 O 8.6032 1.5877 0.0 0
M  V30 21 C 6.9852 1.5877 0.0 0
M  V30 22 C -0.866 0.0 0.0 0
M  V30 23 C 0.0 -1.4999 0.0 0
M  V30 24 C 8.2942 2.5388 0.0 0
M  V30 25 C 7.2942 2.5388 0.0 0
M  V30 26 C 6.0341 1.2787 0.0 0
M  V30 27 C -1.732 -0.4999 0.0 0
M  V30 28 C -0.866 -1.9999 0.0 0
M  V30 29 C 8.7942 3.4048 0.0 0
M  V30 30 C 6.7942 3.4048 0.0 0
M  V30 31 C -1.732 -1.4999 0.0 0
M  V30 32 C 8.2942 4.2708 0.0 0
M  V30 33 C 7.2942 4.2708 0.0 0
M  V30 34 N -2.598 -1.9999 0.0 0
M  V30 35 C -3.4641 -1.4999 0.0 0
M  V30 36 C -2.598 -2.9999 0.0 0
M  V30 37 C -4.3301 -1.9999 0.0 0
M  V30 38 C -3.4641 -3.4999 0.0 0
M  V30 39 N -4.3301 -2.9999 0.0 0
M  V30 40 C -5.1961 -3.4999 0.0 0
M  V30 END ATOM
M  V30 BEGIN BOND
M  V30 1 1 1 2
M  V30 2 2 2 3
M  V30 3 1 2 4
M  V30 4 1 3 5
M  V30 5 1 3 6
M  V30 6 2 4 7
M  V30 7 2 5 8
M  V30 8 1 5 9
M  V30 9 1 6 10
M  V30 10 1 7 11
M  V30 11 1 9 12
M  V30 12 2 11 13
M  V30 13 1 11 14
M  V30 14 1 12 15
M  V30 15 1 14 16
M  V30 16 2 15 17
M  V30 17 1 15 18
M  V30 18 1 16 19
M  V30 19 1 18 20
M  V30 20 2 18 21
M  V30 21 2 19 22
M  V30 22 1 19 23
M  V30 23 1 20 24
M  V30 24 1 21 25
M  V30 25 1 21 26
M  V30 26 1 22 27
M  V30 27 2 23 28
M  V30 28 1 24 29
M  V30 29 1 25 30
M  V30 30 2 27 31
M  V30 31 2 29 32
M  V30 32 2 30 33
M  V30 33 1 31 34
M  V30 34 1 34 35
M  V30 35 1 34 36
M  V30 36 1 35 37
M  V30 37 1 36 38
M  V30 38 1 37 39
M  V30 39 1 39 40
M  V30 40 1 7 8
M  V30 41 1 10 12
M  V30 42 2 24 25
M  V30 43 1 28 31
M  V30 44 1 32 33
M  V30 45 1 38 39
M  V30 END BOND
M  V30 END CTAB
M  END
>  <pIC50>
5.155523

>  <Serie>
Naphthyridine

>  <Molecule Name>
CTX-1020441

>  <SMILES>
CN1CCN(CC1)C1=CC=C(CNC(=O)C2=CC(Cl)=C3CCN(CC3=N2)C(=O)C2=C(C)C3=C(O2)C=CC=C3)C=C1

$$$$
CTX-1019660
OCL MolfileCreator  2D

  0  0  0  0  0  0              0 V3000
M  V30 BEGIN CTAB
M  V30 COUNTS 38 43 0 0 0
M  V30 BEGIN ATOM
M  V30 1 O 5.1961 -0.75 0.0 0
M  V30 2 C 3.8971 0.0 0.0 0
M  V30 3 N 2.598 -0.75 0.0 0
M  V30 4 C 3.8971 1.5 0.0 0
M  V30 5 C 1.299 0.0 0.0 0
M  V30 6 N 5.1961 2.25 0.0 0
M  V30 7 C 2.598 2.25 0.0 0
M  V30 8 C 0.0 -0.75 0.0 0
M  V30 9 C 5.1961 3.75 0.0 0
M  V30 10 C 2.598 3.75 0.0 0
M  V30 11 C -1.299 0.0 0.0 0
M  V30 12 C 0.0 -2.2499 0.0 0
M  V30 13 C 3.8971 4.5 0.0 0
M  V30 14 C 6.4951 4.5 0.0 0
M  V30 15 C -2.598 -0.7499 0.0 0
M  V30 16 C -1.299 -2.9999 0.0 0
M  V30 17 C 3.8971 6.0 0.0 0
M  V30 18 N 6.4951 6.0 0.0 0
M  V30 19 C -2.598 -2.2499 0.0 0
M  V30 20 C 5.1961 6.75 0.0 0
M  V30 21 C 7.7942 6.75 0.0 0
M  V30 22 N -3.8971 -2.9999 0.0 0
M  V30 23 O 9.0932 6.0 0.0 0
M  V30 24 C 7.7942 8.25 0.0 0
M  V30 25 C -5.1961 -2.2499 0.0 0
M  V30 26 C -3.8971 -4.4999 0.0 0
M  V30 27 C 9.0077 9.1316 0.0 0
M  V30 28 C 6.5807 9.1316 0.0 0
M  V30 29 C -6.4951 -2.9999 0.0 0
M  V30 30 C -5.1961 -5.2499 0.0 0
M  V30 31 N 8.5442 10.5582 0.0 0
M  V30 32 C 10.4749 8.8198 0.0 0
M  V30 33 N 7.0442 10.5582 0.0 0
M  V30 34 N -6.4951 -4.4999 0.0 0
M  V30 35 C 9.5479 11.6729 0.0 0
M  V30 36 N 11.4786 9.9345 0.0 0
M  V30 37 C -7.7942 -5.2499 0.0 0
M  V30 38 C 11.0151 11.3611 0.0 0
M  V30 END ATOM
M  V30 BEGIN BOND
M  V30 1 2 1 2
M  V30 2 1 2 3
M  V30 3 1 2 4
M  V30 4 1 3 5
M  V30 5 2 4 6
M  V30 6 1 4 7
M  V30 7 1 5 8
M  V30 8 1 6 9
M  V30 9 2 7 10
M  V30 10 2 8 11
M  V30 11 1 8 12
M  V30 12 2 9 13
M  V30 13 1 9 14
M  V30 14 1 11 15
M  V30 15 2 12 16
M  V30 16 1 13 17
M  V30 17 1 14 18
M  V30 18 2 15 19
M  V30 19 1 17 20
M  V30 20 1 18 21
M  V30 21 1 19 22
M  V30 22 2 21 23
M  V30 23 1 21 24
M  V30 24 1 22 25
M  V30 25 1 22 26
M  V30 26 2 24 27
M  V30 27 1 24 28
M  V30 28 1 25 29
M  V30 29 1 26 30
M  V30 30 1 27 31
M  V30 31 1 27 32
M  V30 32 2 28 33
M  V30 33 1 29 34
M  V30 34 1 31 35
M  V30 35 2 32 36
M  V30 36 1 34 37
M  V30 37 2 35 38
M  V30 38 1 10 13
M  V30 39 1 16 19
M  V30 40 1 18 20
M  V30 41 1 30 34
M  V30 42 1 31 33
M  V30 43 1 36 38
M  V30 END BOND
M  V30 END CTAB
M  END
>  <pIC50>
5.110698

>  <Serie>
Naphthyridine

>  <Molecule Name>
CTX-1019660

>  <SMILES>
CN1CCN(CC1)C1=CC=C(CNC(=O)C2=NC3=C(CCN(C3)C(=O)C3=C4C=NC=CN4N=C3)C=C2)C=C1

$$$$
CTX-1020799
OCL MolfileCreator  2D

  0  0  0  0  0  0              0 V3000
M  V30 BEGIN CTAB
M  V30 COUNTS 39 45 0 0 0
M  V30 BEGIN ATOM
M  V30 1 Cl 7.4316 -5.4219 0.0 0
M  V30 2 C 6.4535 -5.214 0.0 0
M  V30 3 C 6.0467 -4.3005 0.0 0
M  V30 4 C 5.7103 -5.8831 0.0 0
M  V30 5 S 5.0522 -4.405 0.0 0
M  V30 6 C 6.5467 -3.4344 0.0 0
M  V30 7 C 4.8443 -5.3831 0.0 0
M  V30 8 C 5.7103 -6.8831 0.0 0
M  V30 9 O 7.5467 -3.4344 0.0 0
M  V30 10 N 6.0467 -2.5684 0.0 0
M  V30 11 C 3.9783 -5.8831 0.0 0
M  V30 12 C 4.8443 -7.3831 0.0 0
M  V30 13 C 5.0467 -2.5684 0.0 0
M  V30 14 C 6.5467 -1.7024 0.0 0
M  V30 15 C 3.9783 -6.8831 0.0 0
M  V30 16 C 4.5467 -1.7024 0.0 0
M  V30 17 C 6.0467 -0.8364 0.0 0
M  V30 18 C 5.0467 -0.8364 0.0 0
M  V30 19 C 3.5686 -1.4945 0.0 0
M  V30 20 S 4.3776 -0.0932 0.0 0
M  V30 21 C 3.4641 -0.5 0.0 0
M  V30 22 C 2.598 0.0 0.0 0
M  V30 23 O 2.598 1.0 0.0 0
M  V30 24 N 1.732 -0.5 0.0 0
M  V30 25 C 0.866 0.0 0.0 0
M  V30 26 C 0.0 -0.5 0.0 0
M  V30 27 C -0.866 0.0 0.0 0
M  V30 28 C 0.0 -1.4999 0.0 0
M  V30 29 C -1.732 -0.4999 0.0 0
M  V30 30 C -0.866 -1.9999 0.0 0
M  V30 31 C -1.732 -1.4999 0.0 0
M  V30 32 N -2.598 -1.9999 0.0 0
M  V30 33 C -3.564 -1.7411 0.0 0
M  V30 34 C -2.8568 -2.9659 0.0 0
M  V30 35 C -3.8228 -2.7071 0.0 0
M  V30 36 C -4.7887 -2.4482 0.0 0
M  V30 37 C -4.0816 -3.673 0.0 0
M  V30 38 N -5.0475 -3.4142 0.0 0
M  V30 39 C -5.9135 -3.9142 0.0 0
M  V30 END ATOM
M  V30 BEGIN BOND
M  V30 1 1 1 2
M  V30 2 2 2 3
M  V30 3 1 2 4
M  V30 4 1 3 5
M  V30 5 1 3 6
M  V30 6 2 4 7
M  V30 7 1 4 8
M  V30 8 2 6 9
M  V30 9 1 6 10
M  V30 10 1 7 11
M  V30 11 2 8 12
M  V30 12 1 10 13
M  V30 13 1 10 14
M  V30 14 2 11 15
M  V30 15 1 13 16
M  V30 16 1 14 17
M  V30 17 2 16 18
M  V30 18 1 16 19
M  V30 19 1 18 20
M  V30 20 2 19 21
M  V30 21 1 21 22
M  V30 22 2 22 23
M  V30 23 1 22 24
M  V30 24 1 24 25
M  V30 25 1 25 26
M  V30 26 2 26 27
M  V30 27 1 26 28
M  V30 28 1 27 29
M  V30 29 2 28 30
M  V30 30 2 29 31
M  V30 31 1 31 32
M  V30 32 1 32 33
M  V30 33 1 32 34
M  V30 34 1 33 35
M  V30 35 1 35 36
M  V30 36 1 35 37
M  V30 37 1 36 38
M  V30 38 1 38 39
M  V30 39 1 5 7
M  V30 40 1 12 15
M  V30 41 1 17 18
M  V30 42 1 20 21
M  V30 43 1 30 31
M  V30 44 1 34 35
M  V30 45 1 37 38
M  V30 END BOND
M  V30 END CTAB
M  END
>  <pIC50>
5.103474

>  <Serie>
Tetrahydrothienopyridine

>  <Molecule Name>
CTX-1020799

>  <SMILES>
CN1CC2(C1)CN(C2)C1=CC=C(CNC(=O)C2=CC3=C(CCN(C3)C(=O)C3=C(Cl)C4=CC=CC=C4S3)S2)C=C1

$$$$
CTX-1020817
OCL MolfileCreator  2D

  0  0  0  0  0  0              0 V3000
M  V30 BEGIN CTAB
M  V30 COUNTS 38 43 0 0 0
M  V30 BEGIN ATOM
M  V30 1 Cl 11.1474 -8.1329 0.0 0
M  V30 2 C 9.6802 -7.821 0.0 0
M  V30 3 C 9.0701 -6.4507 0.0 0
M  V30 4 C 8.5655 -8.8247 0.0 0
M  V30 5 S 7.5783 -6.6075 0.0 0
M  V30 6 C 9.8201 -5.1517 0.0 0
M  V30 7 C 7.2665 -8.0747 0.0 0
M  V30 8 C 8.5655 -10.3247 0.0 0
M  V30 9 O 11.3201 -5.1517 0.0 0
M  V30 10 N 9.0701 -3.8526 0.0 0
M  V30 11 C 5.9674 -8.8247 0.0 0
M  V30 12 C 7.2665 -11.0747 0.0 0
M  V30 13 C 7.5701 -3.8526 0.0 0
M  V30 14 C 9.8201 -2.5536 0.0 0
M  V30 15 N 5.9674 -10.3247 0.0 0
M  V30 16 C 6.8201 -2.5536 0.0 0
M  V30 17 C 9.0701 -1.2546 0.0 0
M  V30 18 C 7.5701 -1.2546 0.0 0
M  V30 19 C 5.3529 -2.2417 0.0 0
M  V30 20 S 6.5664 -0.1398 0.0 0
M  V30 21 C 5.1961 -0.75 0.0 0
M  V30 22 C 3.8971 0.0 0.0 0
M  V30 23 O 3.8971 1.5 0.0 0
M  V30 24 N 2.598 -0.75 0.0 0
M  V30 25 C 1.299 0.0 0.0 0
M  V30 26 C 0.0 -0.75 0.0 0
M  V30 27 C -1.299 0.0 0.0 0
M  V30 28 C 0.0 -2.2499 0.0 0
M  V30 29 C -2.598 -0.7499 0.0 0
M  V30 30 C -1.299 -2.9999 0.0 0
M  V30 31 C -2.598 -2.2499 0.0 0
M  V30 32 N -3.8971 -2.9999 0.0 0
M  V30 33 C -5.1961 -2.2499 0.0 0
M  V30 34 C -3.8971 -4.4999 0.0 0
M  V30 35 C -6.4951 -2.9999 0.0 0
M  V30 36 C -5.1961 -5.2499 0.0 0
M  V30 37 N -6.4951 -4.4999 0.0 0
M  V30 38 C -7.7942 -5.2499 0.0 0
M  V30 END ATOM
M  V30 BEGIN BOND
M  V30 1 1 1 2
M  V30 2 2 2 3
M  V30 3 1 2 4
M  V30 4 1 3 5
M  V30 5 1 3 6
M  V30 6 2 4 7
M  V30 7 1 4 8
M  V30 8 2 6 9
M  V30 9 1 6 10
M  V30 10 1 7 11
M  V30 11 2 8 12
M  V30 12 1 10 13
M  V30 13 1 10 14
M  V30 14 2 11 15
M  V30 15 1 13 16
M  V30 16 1 14 17
M  V30 17 2 16 18
M  V30 18 1 16 19
M  V30 19 1 18 20
M  V30 20 2 19 21
M  V30 21 1 21 22
M  V30 22 2 22 23
M  V30 23 1 22 24
M  V30 24 1 24 25
M  V30 25 1 25 26
M  V30 26 2 26 27
M  V30 27 1 26 28
M  V30 28 1 27 29
M  V30 29 2 28 30
M  V30 30 2 29 31
M  V30 31 1 31 32
M  V30 32 1 32 33
M  V30 33 1 32 34
M  V30 34 1 33 35
M  V30 35 1 34 36
M  V30 36 1 35 37
M  V30 37 1 37 38
M  V30 38 1 5 7
M  V30 39 1 12 15
M  V30 40 1 17 18
M  V30 41 1 20 21
M  V30 42 1 30 31
M  V30 43 1 36 37
M  V30 END BOND
M  V30 END CTAB
M  END
>  <pIC50>
5.07263

>  <Serie>
Tetrahydrothienopyridine

>  <Molecule Name>
CTX-1020817

>  <SMILES>
CN1CCN(CC1)C1=CC=C(CNC(=O)C2=CC3=C(CCN(C3)C(=O)C3=C(Cl)C4=CC=NC=C4S3)S2)C=C1

$$$$
CTX-1019630
OCL MolfileCreator  2D

  0  0  0  0  0  0              0 V3000
M  V30 BEGIN CTAB
M  V30 COUNTS 35 39 0 0 0
M  V30 BEGIN ATOM
M  V30 1 O 5.1961 -0.75 0.0 0
M  V30 2 C 3.8971 0.0 0.0 0
M  V30 3 N 2.598 -0.75 0.0 0
M  V30 4 C 3.8971 1.5 0.0 0
M  V30 5 C 1.299 0.0 0.0 0
M  V30 6 N 5.1961 2.25 0.0 0
M  V30 7 C 2.598 2.25 0.0 0
M  V30 8 C 0.0 -0.75 0.0 0
M  V30 9 C 5.1961 3.75 0.0 0
M  V30 10 C 2.598 3.75 0.0 0
M  V30 11 C -1.299 0.0 0.0 0
M  V30 12 C 0.0 -2.25 0.0 0
M  V30 13 C 3.8971 4.5 0.0 0
M  V30 14 C 6.4951 4.5 0.0 0
M  V30 15 C -2.598 -0.7499 0.0 0
M  V30 16 C -1.299 -2.9999 0.0 0
M  V30 17 C 3.8971 6.0 0.0 0
M  V30 18 N 6.4951 6.0 0.0 0
M  V30 19 C -2.598 -2.2499 0.0 0
M  V30 20 C 5.1961 6.75 0.0 0
M  V30 21 C 7.7942 6.75 0.0 0
M  V30 22 N -3.8971 -2.9999 0.0 0
M  V30 23 O 9.0932 6.0 0.0 0
M  V30 24 C 7.7942 8.25 0.0 0
M  V30 25 C -5.1961 -2.2499 0.0 0
M  V30 26 C -3.8971 -4.4999 0.0 0
M  V30 27 N 9.0077 9.1316 0.0 0
M  V30 28 C 6.5807 9.1316 0.0 0
M  V30 29 C -6.4951 -2.9999 0.0 0
M  V30 30 C -5.1961 -5.2499 0.0 0
M  V30 31 C 8.5442 10.5582 0.0 0
M  V30 32 C 10.4343 8.6681 0.0 0
M  V30 33 C 7.0442 10.5582 0.0 0
M  V30 34 N -6.4951 -4.4999 0.0 0
M  V30 35 C -7.7942 -5.2499 0.0 0
M  V30 END ATOM
M  V30 BEGIN BOND
M  V30 1 2 1 2
M  V30 2 1 2 3
M  V30 3 1 2 4
M  V30 4 1 3 5
M  V30 5 2 4 6
M  V30 6 1 4 7
M  V30 7 1 5 8
M  V30 8 1 6 9
M  V30 9 2 7 10
M  V30 10 2 8 11
M  V30 11 1 8 12
M  V30 12 2 9 13
M  V30 13 1 9 14
M  V30 14 1 11 15
M  V30 15 2 12 16
M  V30 16 1 13 17
M  V30 17 1 14 18
M  V30 18 2 15 19
M  V30 19 1 17 20
M  V30 20 1 18 21
M  V30 21 1 19 22
M  V30 22 2 21 23
M  V30 23 1 21 24
M  V30 24 1 22 25
M  V30 25 1 22 26
M  V30 26 1 24 27
M  V30 27 2 24 28
M  V30 28 1 25 29
M  V30 29 1 26 30
M  V30 30 1 27 31
M  V30 31 1 27 32
M  V30 32 1 28 33
M  V30 33 1 29 34
M  V30 34 1 34 35
M  V30 35 1 10 13
M  V30 36 1 16 19
M  V30 37 1 18 20
M  V30 38 1 30 34
M  V30 39 2 31 33
M  V30 END BOND
M  V30 END CTAB
M  END
>  <pIC50>
5.055517

>  <Serie>
Naphthyridine

>  <Molecule Name>
CTX-1019630

>  <SMILES>
CN1C=CC=C1C(=O)N1CCC2=C(C1)N=C(C=C2)C(=O)NCC1=CC=C(C=C1)N1CCN(C)CC1

$$$$
CTX-1020816
OCL MolfileCreator  2D

  0  0  0  0  0  0              0 V3000
M  V30 BEGIN CTAB
M  V30 COUNTS 40 45 0 0 0
M  V30 BEGIN ATOM
M  V30 1 S 6.5664 -0.1398 0.0 0
M  V30 2 C 5.1961 -0.75 0.0 0
M  V30 3 C 7.5701 -1.2546 0.0 0
M  V30 4 C 3.8971 0.0 0.0 0
M  V30 5 C 5.3529 -2.2417 0.0 0
M  V30 6 C 6.8201 -2.5536 0.0 0
M  V30 7 C 9.0701 -1.2546 0.0 0
M  V30 8 O 3.8971 1.5 0.0 0
M  V30 9 N 2.598 -0.75 0.0 0
M  V30 10 C 7.5701 -3.8526 0.0 0
M  V30 11 C 9.8201 -2.5536 0.0 0
M  V30 12 C 1.299 0.0 0.0 0
M  V30 13 N 9.0701 -3.8526 0.0 0
M  V30 14 C 0.0 -0.75 0.0 0
M  V30 15 C 9.8201 -5.1517 0.0 0
M  V30 16 C -1.299 0.0 0.0 0
M  V30 17 C 0.0 -2.2499 0.0 0
M  V30 18 O 9.0701 -6.4507 0.0 0
M  V30 19 C 11.3201 -5.1517 0.0 0
M  V30 20 C -2.598 -0.7499 0.0 0
M  V30 21 C -1.299 -2.9999 0.0 0
M  V30 22 O 12.2018 -6.3652 0.0 0
M  V30 23 C 12.2018 -3.9382 0.0 0
M  V30 24 C -2.598 -2.2499 0.0 0
M  V30 25 C 13.6284 -5.9017 0.0 0
M  V30 26 C 13.6284 -4.4017 0.0 0
M  V30 27 C 11.7383 -2.5116 0.0 0
M  V30 28 N -3.8971 -2.9999 0.0 0
M  V30 29 C 14.9274 -6.6517 0.0 0
M  V30 30 C 14.9274 -3.6517 0.0 0
M  V30 31 C -5.1961 -2.2499 0.0 0
M  V30 32 C -3.8971 -4.4999 0.0 0
M  V30 33 C 14.9274 -8.1517 0.0 0
M  V30 34 C 16.2265 -5.9017 0.0 0
M  V30 35 C 16.2265 -4.4017 0.0 0
M  V30 36 C -6.4951 -2.9999 0.0 0
M  V30 37 C -5.1961 -5.2499 0.0 0
M  V30 38 N 14.9274 -9.6517 0.0 0
M  V30 39 N -6.4951 -4.4999 0.0 0
M  V30 40 C -7.7942 -5.2499 0.0 0
M  V30 END ATOM
M  V30 BEGIN BOND
M  V30 1 1 1 2
M  V30 2 1 1 3
M  V30 3 1 2 4
M  V30 4 2 2 5
M  V30 5 2 3 6
M  V30 6 1 3 7
M  V30 7 2 4 8
M  V30 8 1 4 9
M  V30 9 1 6 10
M  V30 10 1 7 11
M  V30 11 1 9 12
M  V30 12 1 10 13
M  V30 13 1 12 14
M  V30 14 1 13 15
M  V30 15 2 14 16
M  V30 16 1 14 17
M  V30 17 2 15 18
M  V30 18 1 15 19
M  V30 19 1 16 20
M  V30 20 2 17 21
M  V30 21 1 19 22
M  V30 22 2 19 23
M  V30 23 2 20 24
M  V30 24 1 22 25
M  V30 25 1 23 26
M  V30 26 1 23 27
M  V30 27 1 24 28
M  V30 28 1 25 29
M  V30 29 1 26 30
M  V30 30 1 28 31
M  V30 31 1 28 32
M  V30 32 1 29 33
M  V30 33 2 29 34
M  V30 34 2 30 35
M  V30 35 1 31 36
M  V30 36 1 32 37
M  V30 37 3 33 38
M  V30 38 1 36 39
M  V30 39 1 39 40
M  V30 40 1 5 6
M  V30 41 1 11 13
M  V30 42 1 21 24
M  V30 43 2 25 26
M  V30 44 1 34 35
M  V30 45 1 37 39
M  V30 END BOND
M  V30 END CTAB
M  END
>  <pIC50>
5.046724

>  <Serie>
Tetrahydrothienopyridine

>  <Molecule Name>
CTX-1020816

>  <SMILES>
CN1CCN(CC1)C1=CC=C(CNC(=O)C2=CC3=C(CCN(C3)C(=O)C3=C(C)C4=CC=CC(C#N)=C4O3)S2)C=C1

$$$$
CTX-1020732
OCL MolfileCreator  2D

  0  0  0  0  0  0              0 V3000
M  V30 BEGIN CTAB
M  V30 COUNTS 38 43 0 0 0
M  V30 BEGIN ATOM
M  V30 1 Cl 11.1474 -8.1329 0.0 0
M  V30 2 C 9.6802 -7.821 0.0 0
M  V30 3 C 9.0701 -6.4507 0.0 0
M  V30 4 C 8.5655 -8.8247 0.0 0
M  V30 5 S 7.5783 -6.6075 0.0 0
M  V30 6 C 9.8201 -5.1517 0.0 0
M  V30 7 C 7.2665 -8.0747 0.0 0
M  V30 8 C 8.5655 -10.3247 0.0 0
M  V30 9 O 11.3201 -5.1517 0.0 0
M  V30 10 N 9.0701 -3.8526 0.0 0
M  V30 11 N 5.9674 -8.8247 0.0 0
M  V30 12 C 7.2665 -11.0747 0.0 0
M  V30 13 C 7.5701 -3.8526 0.0 0
M  V30 14 C 9.8201 -2.5536 0.0 0
M  V30 15 C 5.9674 -10.3247 0.0 0
M  V30 16 C 6.8201 -2.5536 0.0 0
M  V30 17 C 9.0701 -1.2546 0.0 0
M  V30 18 C 7.5701 -1.2546 0.0 0
M  V30 19 C 5.3529 -2.2417 0.0 0
M  V30 20 S 6.5664 -0.1398 0.0 0
M  V30 21 C 5.1961 -0.75 0.0 0
M  V30 22 C 3.8971 0.0 0.0 0
M  V30 23 O 3.8971 1.5 0.0 0
M  V30 24 N 2.598 -0.75 0.0 0
M  V30 25 C 1.299 0.0 0.0 0
M  V30 26 C 0.0 -0.75 0.0 0
M  V30 27 C -1.299 0.0 0.0 0
M  V30 28 C 0.0 -2.2499 0.0 0
M  V30 29 C -2.598 -0.7499 0.0 0
M  V30 30 C -1.299 -2.9999 0.0 0
M  V30 31 C -2.598 -2.2499 0.0 0
M  V30 32 N -3.8971 -2.9999 0.0 0
M  V30 33 C -5.1961 -2.2499 0.0 0
M  V30 34 C -3.8971 -4.4999 0.0 0
M  V30 35 C -6.4951 -2.9999 0.0 0
M  V30 36 C -5.1961 -5.2499 0.0 0
M  V30 37 N -6.4951 -4.4999 0.0 0
M  V30 38 C -7.7942 -5.2499 0.0 0
M  V30 END ATOM
M  V30 BEGIN BOND
M  V30 1 1 1 2
M  V30 2 2 2 3
M  V30 3 1 2 4
M  V30 4 1 3 5
M  V30 5 1 3 6
M  V30 6 2 4 7
M  V30 7 1 4 8
M  V30 8 2 6 9
M  V30 9 1 6 10
M  V30 10 1 7 11
M  V30 11 2 8 12
M  V30 12 1 10 13
M  V30 13 1 10 14
M  V30 14 2 11 15
M  V30 15 1 13 16
M  V30 16 1 14 17
M  V30 17 2 16 18
M  V30 18 1 16 19
M  V30 19 1 18 20
M  V30 20 2 19 21
M  V30 21 1 21 22
M  V30 22 2 22 23
M  V30 23 1 22 24
M  V30 24 1 24 25
M  V30 25 1 25 26
M  V30 26 2 26 27
M  V30 27 1 26 28
M  V30 28 1 27 29
M  V30 29 2 28 30
M  V30 30 2 29 31
M  V30 31 1 31 32
M  V30 32 1 32 33
M  V30 33 1 32 34
M  V30 34 1 33 35
M  V30 35 1 34 36
M  V30 36 1 35 37
M  V30 37 1 37 38
M  V30 38 1 5 7
M  V30 39 1 12 15
M  V30 40 1 17 18
M  V30 41 1 20 21
M  V30 42 1 30 31
M  V30 43 1 36 37
M  V30 END BOND
M  V30 END CTAB
M  END
>  <pIC50>
5.031984

>  <Serie>
Tetrahydrothienopyridine

>  <Molecule Name>
CTX-1020732

>  <SMILES>
CN1CCN(CC1)C1=CC=C(CNC(=O)C2=CC3=C(CCN(C3)C(=O)C3=C(Cl)C4=CC=CN=C4S3)S2)C=C1

$$$$
CTX-1020772
OCL MolfileCreator  2D

  0  0  0  0  0  0              0 V3000
M  V30 BEGIN CTAB
M  V30 COUNTS 30 34 0 0 0
M  V30 BEGIN ATOM
M  V30 1 S 6.5664 -0.1398 0.0 0
M  V30 2 C 5.1961 -0.75 0.0 0
M  V30 3 C 7.5701 -1.2546 0.0 0
M  V30 4 C 3.8971 0.0 0.0 0
M  V30 5 C 5.3529 -2.2417 0.0 0
M  V30 6 C 6.8201 -2.5536 0.0 0
M  V30 7 C 9.0701 -1.2546 0.0 0
M  V30 8 O 3.8971 1.5 0.0 0
M  V30 9 N 2.598 -0.75 0.0 0
M  V30 10 C 7.5701 -3.8526 0.0 0
M  V30 11 C 9.8201 -2.5536 0.0 0
M  V30 12 C 1.299 0.0 0.0 0
M  V30 13 N 9.0701 -3.8526 0.0 0
M  V30 14 C 0.0 -0.75 0.0 0
M  V30 15 C 9.8201 -5.1517 0.0 0
M  V30 16 O -1.3703 -0.1398 0.0 0
M  V30 17 C -0.1567 -2.2417 0.0 0
M  V30 18 O 9.0701 -6.4507 0.0 0
M  V30 19 C 11.3201 -5.1517 0.0 0
M  V30 20 C -2.374 -1.2546 0.0 0
M  V30 21 N -1.624 -2.5536 0.0 0
M  V30 22 O 12.2018 -6.3652 0.0 0
M  V30 23 C 12.2018 -3.9382 0.0 0
M  V30 24 C 13.6284 -5.9017 0.0 0
M  V30 25 C 13.6284 -4.4017 0.0 0
M  V30 26 C 11.7383 -2.5116 0.0 0
M  V30 27 C 14.9274 -6.6517 0.0 0
M  V30 28 C 14.9274 -3.6517 0.0 0
M  V30 29 C 16.2265 -5.9017 0.0 0
M  V30 30 C 16.2265 -4.4017 0.0 0
M  V30 END ATOM
M  V30 BEGIN BOND
M  V30 1 1 1 2
M  V30 2 1 1 3
M  V30 3 1 2 4
M  V30 4 2 2 5
M  V30 5 2 3 6
M  V30 6 1 3 7
M  V30 7 2 4 8
M  V30 8 1 4 9
M  V30 9 1 6 10
M  V30 10 1 7 11
M  V30 11 1 9 12
M  V30 12 1 10 13
M  V30 13 1 12 14
M  V30 14 1 13 15
M  V30 15 1 14 16
M  V30 16 2 14 17
M  V30 17 2 15 18
M  V30 18 1 15 19
M  V30 19 1 16 20
M  V30 20 1 17 21
M  V30 21 1 19 22
M  V30 22 2 19 23
M  V30 23 1 22 24
M  V30 24 1 23 25
M  V30 25 1 23 26
M  V30 26 1 24 27
M  V30 27 1 25 28
M  V30 28 2 27 29
M  V30 29 2 28 30
M  V30 30 1 5 6
M  V30 31 1 11 13
M  V30 32 2 20 21
M  V30 33 2 24 25
M  V30 34 1 29 30
M  V30 END BOND
M  V30 END CTAB
M  END
>  <pIC50>
4.958607

>  <Serie>
Tetrahydrothienopyridine

>  <Molecule Name>
CTX-1020772

>  <SMILES>
CC1=C(OC2=C1C=CC=C2)C(=O)N1CCC2=C(C1)C=C(S2)C(=O)NCC1=CN=CO1

$$$$
CTX-1020742
OCL MolfileCreator  2D

  0  0  0  0  0  0              0 V3000
M  V30 BEGIN CTAB
M  V30 COUNTS 38 43 0 0 0
M  V30 BEGIN ATOM
M  V30 1 S 9.6802 -7.821 0.0 0
M  V30 2 C 9.0701 -6.4507 0.0 0
M  V30 3 C 8.5655 -8.8247 0.0 0
M  V30 4 C 7.5783 -6.6075 0.0 0
M  V30 5 C 9.8201 -5.1517 0.0 0
M  V30 6 C 7.2665 -8.0747 0.0 0
M  V30 7 C 8.5655 -10.3247 0.0 0
M  V30 8 C 6.5746 -5.4928 0.0 0
M  V30 9 O 11.3201 -5.1517 0.0 0
M  V30 10 N 9.0701 -3.8526 0.0 0
M  V30 11 C 5.9674 -8.8247 0.0 0
M  V30 12 N 7.2665 -11.0747 0.0 0
M  V30 13 C 7.5701 -3.8526 0.0 0
M  V30 14 C 9.8201 -2.5536 0.0 0
M  V30 15 C 5.9674 -10.3247 0.0 0
M  V30 16 C 6.8201 -2.5536 0.0 0
M  V30 17 C 9.0701 -1.2546 0.0 0
M  V30 18 C 7.5701 -1.2546 0.0 0
M  V30 19 C 5.3529 -2.2417 0.0 0
M  V30 20 S 6.5664 -0.1398 0.0 0
M  V30 21 C 5.1961 -0.75 0.0 0
M  V30 22 C 3.8971 0.0 0.0 0
M  V30 23 O 3.8971 1.5 0.0 0
M  V30 24 N 2.598 -0.75 0.0 0
M  V30 25 C 1.299 0.0 0.0 0
M  V30 26 C 0.0 -0.75 0.0 0
M  V30 27 C -1.299 0.0 0.0 0
M  V30 28 C 0.0 -2.2499 0.0 0
M  V30 29 C -2.598 -0.7499 0.0 0
M  V30 30 C -1.299 -2.9999 0.0 0
M  V30 31 C -2.598 -2.2499 0.0 0
M  V30 32 N -3.8971 -2.9999 0.0 0
M  V30 33 C -5.1961 -2.2499 0.0 0
M  V30 34 C -3.8971 -4.4999 0.0 0
M  V30 35 C -6.4951 -2.9999 0.0 0
M  V30 36 C -5.1961 -5.2499 0.0 0
M  V30 37 N -6.4951 -4.4999 0.0 0
M  V30 38 C -7.7942 -5.2499 0.0 0
M  V30 END ATOM
M  V30 BEGIN BOND
M  V30 1 1 1 2
M  V30 2 1 1 3
M  V30 3 2 2 4
M  V30 4 1 2 5
M  V30 5 2 3 6
M  V30 6 1 3 7
M  V30 7 1 4 8
M  V30 8 2 5 9
M  V30 9 1 5 10
M  V30 10 1 6 11
M  V30 11 2 7 12
M  V30 12 1 10 13
M  V30 13 1 10 14
M  V30 14 2 11 15
M  V30 15 1 13 16
M  V30 16 1 14 17
M  V30 17 2 16 18
M  V30 18 1 16 19
M  V30 19 1 18 20
M  V30 20 2 19 21
M  V30 21 1 21 22
M  V30 22 2 22 23
M  V30 23 1 22 24
M  V30 24 1 24 25
M  V30 25 1 25 26
M  V30 26 2 26 27
M  V30 27 1 26 28
M  V30 28 1 27 29
M  V30 29 2 28 30
M  V30 30 2 29 31
M  V30 31 1 31 32
M  V30 32 1 32 33
M  V30 33 1 32 34
M  V30 34 1 33 35
M  V30 35 1 34 36
M  V30 36 1 35 37
M  V30 37 1 37 38
M  V30 38 1 4 6
M  V30 39 1 12 15
M  V30 40 1 17 18
M  V30 41 1 20 21
M  V30 42 1 30 31
M  V30 43 1 36 37
M  V30 END BOND
M  V30 END CTAB
M  END
>  <pIC50>
4.954677

>  <Serie>
Tetrahydrothienopyridine

>  <Molecule Name>
CTX-1020742

>  <SMILES>
CN1CCN(CC1)C1=CC=C(CNC(=O)C2=CC3=C(CCN(C3)C(=O)C3=C(C)C4=C(S3)C=NC=C4)S2)C=C1

$$$$
CTX-1020771
OCL MolfileCreator  2D

  0  0  0  0  0  0              0 V3000
M  V30 BEGIN CTAB
M  V30 COUNTS 31 35 0 0 0
M  V30 BEGIN ATOM
M  V30 1 S 6.5664 -0.1398 0.0 0
M  V30 2 C 5.1961 -0.75 0.0 0
M  V30 3 C 7.5701 -1.2546 0.0 0
M  V30 4 C 3.8971 0.0 0.0 0
M  V30 5 C 5.3529 -2.2417 0.0 0
M  V30 6 C 6.8201 -2.5536 0.0 0
M  V30 7 C 9.0701 -1.2546 0.0 0
M  V30 8 O 3.8971 1.5 0.0 0
M  V30 9 N 2.598 -0.75 0.0 0
M  V30 10 C 7.5701 -3.8526 0.0 0
M  V30 11 C 9.8201 -2.5536 0.0 0
M  V30 12 C 1.299 0.0 0.0 0
M  V30 13 N 9.0701 -3.8526 0.0 0
M  V30 14 C 0.0 -0.75 0.0 0
M  V30 15 C 9.8201 -5.1517 0.0 0
M  V30 16 N -1.3703 -0.1398 0.0 0
M  V30 17 C -0.1567 -2.2417 0.0 0
M  V30 18 O 9.0701 -6.4507 0.0 0
M  V30 19 C 11.3201 -5.1517 0.0 0
M  V30 20 C -2.374 -1.2546 0.0 0
M  V30 21 N -1.624 -2.5536 0.0 0
M  V30 22 O 12.2018 -6.3652 0.0 0
M  V30 23 C 12.2018 -3.9382 0.0 0
M  V30 24 C -2.2341 -3.9239 0.0 0
M  V30 25 C 13.6284 -5.9017 0.0 0
M  V30 26 C 13.6284 -4.4017 0.0 0
M  V30 27 C 11.7383 -2.5116 0.0 0
M  V30 28 C 14.9274 -6.6517 0.0 0
M  V30 29 C 14.9274 -3.6517 0.0 0
M  V30 30 C 16.2265 -5.9017 0.0 0
M  V30 31 C 16.2265 -4.4017 0.0 0
M  V30 END ATOM
M  V30 BEGIN BOND
M  V30 1 1 1 2
M  V30 2 1 1 3
M  V30 3 1 2 4
M  V30 4 2 2 5
M  V30 5 2 3 6
M  V30 6 1 3 7
M  V30 7 2 4 8
M  V30 8 1 4 9
M  V30 9 1 6 10
M  V30 10 1 7 11
M  V30 11 1 9 12
M  V30 12 1 10 13
M  V30 13 1 12 14
M  V30 14 1 13 15
M  V30 15 1 14 16
M  V30 16 2 14 17
M  V30 17 2 15 18
M  V30 18 1 15 19
M  V30 19 2 16 20
M  V30 20 1 17 21
M  V30 21 1 19 22
M  V30 22 2 19 23
M  V30 23 1 21 24
M  V30 24 1 22 25
M  V30 25 1 23 26
M  V30 26 1 23 27
M  V30 27 1 25 28
M  V30 28 1 26 29
M  V30 29 2 28 30
M  V30 30 2 29 31
M  V30 31 1 5 6
M  V30 32 1 11 13
M  V30 33 1 20 21
M  V30 34 2 25 26
M  V30 35 1 30 31
M  V30 END BOND
M  V30 END CTAB
M  END
>  <pIC50>
4.950782

>  <Serie>
Tetrahydrothienopyridine

>  <Molecule Name>
CTX-1020771

>  <SMILES>
CN1C=NC(CNC(=O)C2=CC3=C(CCN(C3)C(=O)C3=C(C)C4=C(O3)C=CC=C4)S2)=C1

$$$$
CTX-1020811
OCL MolfileCreator  2D

  0  0  0  0  0  0              0 V3000
M  V30 BEGIN CTAB
M  V30 COUNTS 40 45 0 0 0
M  V30 BEGIN ATOM
M  V30 1 O 5.1961 -0.75 0.0 0
M  V30 2 C 3.8971 0.0 0.0 0
M  V30 3 N 2.598 -0.75 0.0 0
M  V30 4 C 3.8971 1.5 0.0 0
M  V30 5 C 1.299 0.0 0.0 0
M  V30 6 N 5.1961 2.25 0.0 0
M  V30 7 C 2.598 2.25 0.0 0
M  V30 8 C 0.0 -0.75 0.0 0
M  V30 9 C 5.1961 3.75 0.0 0
M  V30 10 C 2.598 3.75 0.0 0
M  V30 11 C -1.299 0.0 0.0 0
M  V30 12 C 0.0 -2.2499 0.0 0
M  V30 13 C 3.8971 4.5 0.0 0
M  V30 14 C 6.4951 4.5 0.0 0
M  V30 15 C -2.598 -0.7499 0.0 0
M  V30 16 C -1.299 -2.9999 0.0 0
M  V30 17 C 3.8971 6.0 0.0 0
M  V30 18 N 6.4951 6.0 0.0 0
M  V30 19 C -2.598 -2.2499 0.0 0
M  V30 20 C 5.1961 6.75 0.0 0
M  V30 21 C 7.7942 6.75 0.0 0
M  V30 22 N -3.8971 -2.9999 0.0 0
M  V30 23 O 7.7942 8.2499 0.0 0
M  V30 24 C 9.0932 5.9999 0.0 0
M  V30 25 C -5.1961 -2.2499 0.0 0
M  V30 26 C -3.8971 -4.4999 0.0 0
M  V30 27 O 10.4635 6.6101 0.0 0
M  V30 28 C 9.25 4.5082 0.0 0
M  V30 29 C -6.4951 -2.9999 0.0 0
M  V30 30 C -5.1961 -5.2499 0.0 0
M  V30 31 C 11.4672 5.4953 0.0 0
M  V30 32 C 10.7172 4.1963 0.0 0
M  V30 33 C 8.1353 3.5045 0.0 0
M  V30 34 N -6.4951 -4.4999 0.0 0
M  V30 35 C 12.9672 5.4953 0.0 0
M  V30 36 C 11.4672 2.8973 0.0 0
M  V30 37 C 8.4472 2.0372 0.0 0
M  V30 38 C -7.7942 -5.2499 0.0 0
M  V30 39 C 13.7172 4.1963 0.0 0
M  V30 40 C 12.9672 2.8973 0.0 0
M  V30 END ATOM
M  V30 BEGIN BOND
M  V30 1 2 1 2
M  V30 2 1 2 3
M  V30 3 1 2 4
M  V30 4 1 3 5
M  V30 5 2 4 6
M  V30 6 1 4 7
M  V30 7 1 5 8
M  V30 8 1 6 9
M  V30 9 2 7 10
M  V30 10 2 8 11
M  V30 11 1 8 12
M  V30 12 2 9 13
M  V30 13 1 9 14
M  V30 14 1 11 15
M  V30 15 2 12 16
M  V30 16 1 13 17
M  V30 17 1 14 18
M  V30 18 2 15 19
M  V30 19 1 17 20
M  V30 20 1 18 21
M  V30 21 1 19 22
M  V30 22 2 21 23
M  V30 23 1 21 24
M  V30 24 1 22 25
M  V30 25 1 22 26
M  V30 26 1 24 27
M  V30 27 2 24 28
M  V30 28 1 25 29
M  V30 29 1 26 30
M  V30 30 1 27 31
M  V30 31 1 28 32
M  V30 32 1 28 33
M  V30 33 1 29 34
M  V30 34 1 31 35
M  V30 35 1 32 36
M  V30 36 1 33 37
M  V30 37 1 34 38
M  V30 38 2 35 39
M  V30 39 2 36 40
M  V30 40 1 10 13
M  V30 41 1 16 19
M  V30 42 1 18 20
M  V30 43 1 30 34
M  V30 44 2 31 32
M  V30 45 1 39 40
M  V30 END BOND
M  V30 END CTAB
M  END
>  <pIC50>
4.906578

>  <Serie>
Naphthyridine

>  <Molecule Name>
CTX-1020811

>  <SMILES>
CCC1=C(OC2=C1C=CC=C2)C(=O)N1CCC2=C(C1)N=C(C=C2)C(=O)NCC1=CC=C(C=C1)N1CCN(C)CC1

$$$$
CTX-1020795
OCL MolfileCreator  2D

  0  0  0  0  0  0              0 V3000
M  V30 BEGIN CTAB
M  V30 COUNTS 40 45 0 0 0
M  V30 BEGIN ATOM
M  V30 1 Cl 11.7429 0.0296 0.0 0
M  V30 2 C 11.2429 -0.8364 0.0 0
M  V30 3 C 10.2429 -0.8364 0.0 0
M  V30 4 C 11.7429 -1.7024 0.0 0
M  V30 5 O 9.5737 -0.0932 0.0 0
M  V30 6 C 9.7429 -1.7024 0.0 0
M  V30 7 C 11.2429 -2.5684 0.0 0
M  V30 8 C 8.6602 -0.5 0.0 0
M  V30 9 C 8.7647 -1.4945 0.0 0
M  V30 10 C 10.2429 -2.5684 0.0 0
M  V30 11 C 7.7942 0.0 0.0 0
M  V30 12 C 8.0216 -2.1636 0.0 0
M  V30 13 O 7.7942 0.9999 0.0 0
M  V30 14 N 6.9282 -0.5 0.0 0
M  V30 15 C 6.0621 0.0 0.0 0
M  V30 16 C 6.9282 -1.4999 0.0 0
M  V30 17 C 5.1961 -0.5 0.0 0
M  V30 18 C 6.0621 -1.9999 0.0 0
M  V30 19 N 4.3301 0.0 0.0 0
M  V30 20 C 5.1961 -1.4999 0.0 0
M  V30 21 C 3.4641 -0.5 0.0 0
M  V30 22 C 4.3301 -2.0 0.0 0
M  V30 23 C 2.598 0.0 0.0 0
M  V30 24 C 3.4641 -1.4999 0.0 0
M  V30 25 O 2.598 1.0 0.0 0
M  V30 26 N 1.732 -0.5 0.0 0
M  V30 27 C 0.866 0.0 0.0 0
M  V30 28 C 0.0 -0.5 0.0 0
M  V30 29 C -0.866 0.0 0.0 0
M  V30 30 C 0.0 -1.4999 0.0 0
M  V30 31 C -1.732 -0.4999 0.0 0
M  V30 32 C -0.866 -1.9999 0.0 0
M  V30 33 C -1.732 -1.4999 0.0 0
M  V30 34 N -2.598 -1.9999 0.0 0
M  V30 35 C -3.4641 -1.4999 0.0 0
M  V30 36 C -2.598 -2.9999 0.0 0
M  V30 37 C -4.3301 -1.9999 0.0 0
M  V30 38 C -3.4641 -3.4999 0.0 0
M  V30 39 N -4.3301 -2.9999 0.0 0
M  V30 40 C -5.1961 -3.4999 0.0 0
M  V30 END ATOM
M  V30 BEGIN BOND
M  V30 1 1 1 2
M  V30 2 2 2 3
M  V30 3 1 2 4
M  V30 4 1 3 5
M  V30 5 1 3 6
M  V30 6 2 4 7
M  V30 7 1 5 8
M  V30 8 1 6 9
M  V30 9 2 6 10
M  V30 10 1 8 11
M  V30 11 1 9 12
M  V30 12 2 11 13
M  V30 13 1 11 14
M  V30 14 1 14 15
M  V30 15 1 14 16
M  V30 16 1 15 17
M  V30 17 1 16 18
M  V30 18 2 17 19
M  V30 19 1 17 20
M  V30 20 1 19 21
M  V30 21 2 20 22
M  V30 22 1 21 23
M  V30 23 2 21 24
M  V30 24 2 23 25
M  V30 25 1 23 26
M  V30 26 1 26 27
M  V30 27 1 27 28
M  V30 28 2 28 29
M  V30 29 1 28 30
M  V30 30 1 29 31
M  V30 31 2 30 32
M  V30 32 2 31 33
M  V30 33 1 33 34
M  V30 34 1 34 35
M  V30 35 1 34 36
M  V30 36 1 35 37
M  V30 37 1 36 38
M  V30 38 1 37 39
M  V30 39 1 39 40
M  V30 40 1 7 10
M  V30 41 2 8 9
M  V30 42 1 18 20
M  V30 43 1 22 24
M  V30 44 1 32 33
M  V30 45 1 38 39
M  V30 END BOND
M  V30 END CTAB
M  END
>  <pIC50>
4.728158

>  <Serie>
Naphthyridine

>  <Molecule Name>
CTX-1020795

>  <SMILES>
CN1CCN(CC1)C1=CC=C(CNC(=O)C2=CC=C3CCN(CC3=N2)C(=O)C2=C(C)C3=C(O2)C(Cl)=CC=C3)C=C1

$$$$
CTX-1020699
OCL MolfileCreator  2D

  0  0  0  0  0  0              0 V3000
M  V30 BEGIN CTAB
M  V30 COUNTS 35 40 0 0 0
M  V30 BEGIN ATOM
M  V30 1 O 2.598 0.0 0.0 0
M  V30 2 C 1.732 -0.5 0.0 0
M  V30 3 N 0.866 0.0 0.0 0
M  V30 4 C 1.732 -1.5 0.0 0
M  V30 5 C 0.0 -0.5 0.0 0 CFG=2
M  V30 6 N 0.866 -2.0 0.0 0
M  V30 7 C 2.598 -2.0 0.0 0
M  V30 8 C -0.866 0.0 0.0 0
M  V30 9 C 0.0 -1.4999 0.0 0
M  V30 10 C 0.866 -3.0 0.0 0
M  V30 11 C 2.598 -2.9999 0.0 0
M  V30 12 C -1.732 -0.4999 0.0 0
M  V30 13 C -0.866 1.0 0.0 0
M  V30 14 C -0.866 -1.9999 0.0 0
M  V30 15 C 1.732 -3.5 0.0 0
M  V30 16 C 0.0 -3.5 0.0 0
M  V30 17 C -2.598 0.0 0.0 0
M  V30 18 C -1.732 -1.4999 0.0 0
M  V30 19 C -1.732 1.5 0.0 0
M  V30 20 C 1.732 -4.5 0.0 0
M  V30 21 N 0.0 -4.5 0.0 0
M  V30 22 C -2.598 1.0 0.0 0
M  V30 23 C 0.866 -5.0 0.0 0
M  V30 24 C -0.866 -5.0 0.0 0
M  V30 25 O -1.732 -4.5 0.0 0
M  V30 26 C -0.866 -6.0 0.0 0
M  V30 27 O -1.675 -6.5877 0.0 0
M  V30 28 C -0.057 -6.5877 0.0 0
M  V30 29 C -1.366 -7.5388 0.0 0
M  V30 30 C -0.366 -7.5388 0.0 0
M  V30 31 C 0.894 -6.2787 0.0 0
M  V30 32 C -1.866 -8.4048 0.0 0
M  V30 33 C 0.1339 -8.4048 0.0 0
M  V30 34 C -1.366 -9.2708 0.0 0
M  V30 35 C -0.366 -9.2708 0.0 0
M  V30 END ATOM
M  V30 BEGIN BOND
M  V30 1 2 1 2
M  V30 2 1 2 3
M  V30 3 1 2 4
M  V30 4 1 5 3 CFG=1
M  V30 5 2 4 6
M  V30 6 1 4 7
M  V30 7 1 5 8
M  V30 8 1 5 9
M  V30 9 1 6 10
M  V30 10 2 7 11
M  V30 11 2 8 12
M  V30 12 1 8 13
M  V30 13 1 9 14
M  V30 14 2 10 15
M  V30 15 1 10 16
M  V30 16 1 12 17
M  V30 17 1 12 18
M  V30 18 2 13 19
M  V30 19 1 15 20
M  V30 20 1 16 21
M  V30 21 2 17 22
M  V30 22 1 20 23
M  V30 23 1 21 24
M  V30 24 2 24 25
M  V30 25 1 24 26
M  V30 26 1 26 27
M  V30 27 2 26 28
M  V30 28 1 27 29
M  V30 29 1 28 30
M  V30 30 1 28 31
M  V30 31 1 29 32
M  V30 32 1 30 33
M  V30 33 2 32 34
M  V30 34 2 33 35
M  V30 35 1 11 15
M  V30 36 1 14 18
M  V30 37 1 19 22
M  V30 38 1 21 23
M  V30 39 2 29 30
M  V30 40 1 34 35
M  V30 END BOND
M  V30 BEGIN COLLECTION
M  V30 MDLV30/STERAC1 ATOMS=(1 5)
M  V30 END COLLECTION
M  V30 END CTAB
M  END
>  <pIC50>
4.721246

>  <Serie>
Naphthyridine

>  <Molecule Name>
CTX-1020699

>  <SMILES>
CC1=C(OC2=C1C=CC=C2)C(=O)N1CCC2=CC=C(N=C2C1)C(=O)NC1CCCC2=C1C=CC=C2

$$$$
CTX-1020770
OCL MolfileCreator  2D

  0  0  0  0  0  0              0 V3000
M  V30 BEGIN CTAB
M  V30 COUNTS 30 34 0 0 0
M  V30 BEGIN ATOM
M  V30 1 S 6.5664 -0.1398 0.0 0
M  V30 2 C 5.1961 -0.75 0.0 0
M  V30 3 C 7.5701 -1.2546 0.0 0
M  V30 4 C 3.8971 0.0 0.0 0
M  V30 5 C 5.3529 -2.2417 0.0 0
M  V30 6 C 6.8201 -2.5536 0.0 0
M  V30 7 C 9.0701 -1.2546 0.0 0
M  V30 8 O 3.8971 1.5 0.0 0
M  V30 9 N 2.598 -0.75 0.0 0
M  V30 10 C 7.5701 -3.8526 0.0 0
M  V30 11 C 9.8201 -2.5536 0.0 0
M  V30 12 C 1.299 0.0 0.0 0
M  V30 13 N 9.0701 -3.8526 0.0 0
M  V30 14 C 0.0 -0.75 0.0 0
M  V30 15 C 9.8201 -5.1517 0.0 0
M  V30 16 N -1.3703 -0.1398 0.0 0
M  V30 17 C -0.1567 -2.2417 0.0 0
M  V30 18 O 9.0701 -6.4507 0.0 0
M  V30 19 C 11.3201 -5.1517 0.0 0
M  V30 20 C -2.374 -1.2546 0.0 0
M  V30 21 S -1.624 -2.5536 0.0 0
M  V30 22 O 12.2018 -6.3652 0.0 0
M  V30 23 C 12.2018 -3.9382 0.0 0
M  V30 24 C 13.6284 -5.9017 0.0 0
M  V30 25 C 13.6284 -4.4017 0.0 0
M  V30 26 C 11.7383 -2.5116 0.0 0
M  V30 27 C 14.9274 -6.6517 0.0 0
M  V30 28 C 14.9274 -3.6517 0.0 0
M  V30 29 C 16.2265 -5.9017 0.0 0
M  V30 30 C 16.2265 -4.4017 0.0 0
M  V30 END ATOM
M  V30 BEGIN BOND
M  V30 1 1 1 2
M  V30 2 1 1 3
M  V30 3 1 2 4
M  V30 4 2 2 5
M  V30 5 2 3 6
M  V30 6 1 3 7
M  V30 7 2 4 8
M  V30 8 1 4 9
M  V30 9 1 6 10
M  V30 10 1 7 11
M  V30 11 1 9 12
M  V30 12 1 10 13
M  V30 13 1 12 14
M  V30 14 1 13 15
M  V30 15 1 14 16
M  V30 16 2 14 17
M  V30 17 2 15 18
M  V30 18 1 15 19
M  V30 19 2 16 20
M  V30 20 1 17 21
M  V30 21 1 19 22
M  V30 22 2 19 23
M  V30 23 1 22 24
M  V30 24 1 23 25
M  V30 25 1 23 26
M  V30 26 1 24 27
M  V30 27 1 25 28
M  V30 28 2 27 29
M  V30 29 2 28 30
M  V30 30 1 5 6
M  V30 31 1 11 13
M  V30 32 1 20 21
M  V30 33 2 24 25
M  V30 34 1 29 30
M  V30 END BOND
M  V30 END CTAB
M  END
>  <pIC50>
4.548214

>  <Serie>
Tetrahydrothienopyridine

>  <Molecule Name>
CTX-1020770

>  <SMILES>
CC1=C(OC2=C1C=CC=C2)C(=O)N1CCC2=C(C1)C=C(S2)C(=O)NCC1=CSC=N1

$$$$
CTX-1020745
OCL MolfileCreator  2D

  0  0  0  0  0  0              0 V3000
M  V30 BEGIN CTAB
M  V30 COUNTS 39 44 0 0 0
M  V30 BEGIN ATOM
M  V30 1 S 6.5664 -0.1398 0.0 0
M  V30 2 C 5.1961 -0.75 0.0 0
M  V30 3 C 7.5701 -1.2546 0.0 0
M  V30 4 C 3.8971 0.0 0.0 0
M  V30 5 C 5.3529 -2.2417 0.0 0
M  V30 6 C 6.8201 -2.5536 0.0 0
M  V30 7 C 9.0701 -1.2546 0.0 0
M  V30 8 O 3.8971 1.5 0.0 0
M  V30 9 N 2.598 -0.75 0.0 0
M  V30 10 C 7.5701 -3.8526 0.0 0
M  V30 11 C 9.8201 -2.5536 0.0 0
M  V30 12 C 1.299 0.0 0.0 0
M  V30 13 N 9.0701 -3.8526 0.0 0
M  V30 14 C 0.0 -0.75 0.0 0
M  V30 15 C 9.8201 -5.1517 0.0 0
M  V30 16 C -1.299 0.0 0.0 0
M  V30 17 C 0.0 -2.2499 0.0 0
M  V30 18 O 9.0701 -6.4507 0.0 0
M  V30 19 C 11.3201 -5.1517 0.0 0
M  V30 20 C -2.598 -0.7499 0.0 0
M  V30 21 C -1.299 -2.9999 0.0 0
M  V30 22 N 12.2018 -6.3652 0.0 0
M  V30 23 C 12.2018 -3.9382 0.0 0
M  V30 24 C -2.598 -2.2499 0.0 0
M  V30 25 C 13.6284 -5.9017 0.0 0
M  V30 26 C 11.7383 -7.7918 0.0 0
M  V30 27 C 13.6284 -4.4017 0.0 0
M  V30 28 C 11.7383 -2.5116 0.0 0
M  V30 29 N -3.8971 -2.9999 0.0 0
M  V30 30 C 14.9274 -6.6517 0.0 0
M  V30 31 C 14.9274 -3.6517 0.0 0
M  V30 32 C -5.1961 -2.2499 0.0 0
M  V30 33 C -3.8971 -4.4999 0.0 0
M  V30 34 C 16.2265 -5.9017 0.0 0
M  V30 35 C 16.2265 -4.4017 0.0 0
M  V30 36 C -6.4951 -2.9999 0.0 0
M  V30 37 C -5.1961 -5.2499 0.0 0
M  V30 38 N -6.4951 -4.4999 0.0 0
M  V30 39 C -7.7942 -5.2499 0.0 0
M  V30 END ATOM
M  V30 BEGIN BOND
M  V30 1 1 1 2
M  V30 2 1 1 3
M  V30 3 1 2 4
M  V30 4 2 2 5
M  V30 5 2 3 6
M  V30 6 1 3 7
M  V30 7 2 4 8
M  V30 8 1 4 9
M  V30 9 1 6 10
M  V30 10 1 7 11
M  V30 11 1 9 12
M  V30 12 1 10 13
M  V30 13 1 12 14
M  V30 14 1 13 15
M  V30 15 2 14 16
M  V30 16 1 14 17
M  V30 17 2 15 18
M  V30 18 1 15 19
M  V30 19 1 16 20
M  V30 20 2 17 21
M  V30 21 1 19 22
M  V30 22 2 19 23
M  V30 23 2 20 24
M  V30 24 1 22 25
M  V30 25 1 22 26
M  V30 26 1 23 27
M  V30 27 1 23 28
M  V30 28 1 24 29
M  V30 29 1 25 30
M  V30 30 1 27 31
M  V30 31 1 29 32
M  V30 32 1 29 33
M  V30 33 2 30 34
M  V30 34 2 31 35
M  V30 35 1 32 36
M  V30 36 1 33 37
M  V30 37 1 36 38
M  V30 38 1 38 39
M  V30 39 1 5 6
M  V30 40 1 11 13
M  V30 41 1 21 24
M  V30 42 2 25 27
M  V30 43 1 34 35
M  V30 44 1 37 38
M  V30 END BOND
M  V30 END CTAB
M  END
>  <pIC50>
4.517126

>  <Serie>
Tetrahydrothienopyridine

>  <Molecule Name>
CTX-1020745

>  <SMILES>
CN1C2=C(C=CC=C2)C(C)=C1C(=O)N1CCC2=C(C1)C=C(S2)C(=O)NCC1=CC=C(C=C1)N1CCN(C)CC1

$$$$
CTX-1020818
OCL MolfileCreator  2D

  0  0  0  0  0  0              0 V3000
M  V30 BEGIN CTAB
M  V30 COUNTS 30 35 0 0 0
M  V30 BEGIN ATOM
M  V30 1 S 4.3776 -0.0932 0.0 0
M  V30 2 C 3.4641 -0.5 0.0 0
M  V30 3 C 5.0467 -0.8364 0.0 0
M  V30 4 C 2.598 0.0 0.0 0
M  V30 5 C 3.5686 -1.4945 0.0 0
M  V30 6 C 4.5467 -1.7024 0.0 0
M  V30 7 C 6.0467 -0.8364 0.0 0
M  V30 8 O 2.598 1.0 0.0 0
M  V30 9 N 1.732 -0.5 0.0 0
M  V30 10 C 5.0467 -2.5684 0.0 0
M  V30 11 C 6.5467 -1.7024 0.0 0
M  V30 12 C 0.866 0.0 0.0 0
M  V30 13 N 6.0467 -2.5684 0.0 0
M  V30 14 C 0.0 -0.5 0.0 0
M  V30 15 C 6.5467 -3.4344 0.0 0
M  V30 16 C -0.927 -0.1251 0.0 0
M  V30 17 C -0.4007 -1.366 0.0 0
M  V30 18 C -0.1908 -1.861 0.0 0
M  V30 19 O 6.0467 -4.3005 0.0 0
M  V30 20 C 7.5467 -3.4344 0.0 0
M  V30 21 C -1.3019 -1.0521 0.0 0
M  V30 22 O 8.1345 -4.2435 0.0 0
M  V30 23 C 8.1345 -2.6254 0.0 0
M  V30 24 C 9.0856 -3.9344 0.0 0
M  V30 25 C 9.0856 -2.9344 0.0 0
M  V30 26 C 7.8255 -1.6744 0.0 0
M  V30 27 C 9.9516 -4.4344 0.0 0
M  V30 28 C 9.9516 -2.4344 0.0 0
M  V30 29 C 10.8176 -3.9344 0.0 0
M  V30 30 C 10.8176 -2.9344 0.0 0
M  V30 END ATOM
M  V30 BEGIN BOND
M  V30 1 1 1 2
M  V30 2 1 1 3
M  V30 3 1 2 4
M  V30 4 2 2 5
M  V30 5 2 3 6
M  V30 6 1 3 7
M  V30 7 2 4 8
M  V30 8 1 4 9
M  V30 9 1 6 10
M  V30 10 1 7 11
M  V30 11 1 9 12
M  V30 12 1 10 13
M  V30 13 1 12 14
M  V30 14 1 13 15
M  V30 15 1 14 16
M  V30 16 1 14 17
M  V30 17 1 14 18
M  V30 18 2 15 19
M  V30 19 1 15 20
M  V30 20 1 16 21
M  V30 21 1 20 22
M  V30 22 2 20 23
M  V30 23 1 22 24
M  V30 24 1 23 25
M  V30 25 1 23 26
M  V30 26 1 24 27
M  V30 27 1 25 28
M  V30 28 2 27 29
M  V30 29 2 28 30
M  V30 30 1 5 6
M  V30 31 1 11 13
M  V30 32 1 17 21
M  V30 33 1 18 21
M  V30 34 2 24 25
M  V30 35 1 29 30
M  V30 END BOND
M  V30 END CTAB
M  END
>  <pIC50>
4.510042

>  <Serie>
Tetrahydrothienopyridine

>  <Molecule Name>
CTX-1020818

>  <SMILES>
CC1=C(OC2=C1C=CC=C2)C(=O)N1CCC2=C(C1)C=C(S2)C(=O)NCC12CC(C1)C2

$$$$
CTX-1020766
OCL MolfileCreator  2D

  0  0  0  0  0  0              0 V3000
M  V30 BEGIN CTAB
M  V30 COUNTS 31 35 0 0 0
M  V30 BEGIN ATOM
M  V30 1 S 4.5467 -1.7024 0.0 0
M  V30 2 C 5.0467 -0.8364 0.0 0
M  V30 3 C 3.5686 -1.4945 0.0 0
M  V30 4 N 4.3776 -0.0932 0.0 0
M  V30 5 C 3.4641 -0.5 0.0 0
M  V30 6 C 2.598 0.0 0.0 0
M  V30 7 N 1.732 -0.5 0.0 0
M  V30 8 C 0.866 0.0 0.0 0
M  V30 9 O 0.866 1.0 0.0 0
M  V30 10 C 0.0 -0.5 0.0 0
M  V30 11 N -0.866 0.0 0.0 0
M  V30 12 C 0.0 -1.4999 0.0 0
M  V30 13 C -1.732 -0.4999 0.0 0
M  V30 14 C -0.866 -1.9999 0.0 0
M  V30 15 C -1.732 -1.4999 0.0 0
M  V30 16 C -2.598 0.0 0.0 0
M  V30 17 C -2.598 -1.9999 0.0 0
M  V30 18 N -3.4641 -0.4999 0.0 0
M  V30 19 C -3.4641 -1.4999 0.0 0
M  V30 20 C -4.3301 0.0 0.0 0
M  V30 21 O -4.3301 1.0 0.0 0
M  V30 22 C -5.1961 -0.4999 0.0 0
M  V30 23 O -6.1096 -0.0932 0.0 0
M  V30 24 C -5.3006 -1.4945 0.0 0
M  V30 25 C -6.7788 -0.8364 0.0 0
M  V30 26 C -6.2788 -1.7024 0.0 0
M  V30 27 C -4.5575 -2.1636 0.0 0
M  V30 28 C -7.7788 -0.8364 0.0 0
M  V30 29 C -6.7788 -2.5684 0.0 0
M  V30 30 C -8.2788 -1.7024 0.0 0
M  V30 31 C -7.7788 -2.5684 0.0 0
M  V30 END ATOM
M  V30 BEGIN BOND
M  V30 1 1 1 2
M  V30 2 1 1 3
M  V30 3 2 2 4
M  V30 4 2 3 5
M  V30 5 1 5 6
M  V30 6 1 6 7
M  V30 7 1 7 8
M  V30 8 2 8 9
M  V30 9 1 8 10
M  V30 10 2 10 11
M  V30 11 1 10 12
M  V30 12 1 11 13
M  V30 13 2 12 14
M  V30 14 2 13 15
M  V30 15 1 13 16
M  V30 16 1 15 17
M  V30 17 1 16 18
M  V30 18 1 17 19
M  V30 19 1 18 20
M  V30 20 2 20 21
M  V30 21 1 20 22
M  V30 22 1 22 23
M  V30 23 2 22 24
M  V30 24 1 23 25
M  V30 25 1 24 26
M  V30 26 1 24 27
M  V30 27 1 25 28
M  V30 28 1 26 29
M  V30 29 2 28 30
M  V30 30 2 29 31
M  V30 31 1 4 5
M  V30 32 1 14 15
M  V30 33 1 18 19
M  V30 34 2 25 26
M  V30 35 1 30 31
M  V30 END BOND
M  V30 END CTAB
M  END
>  <pIC50>
4.39794

>  <Serie>
Naphthyridine

>  <Molecule Name>
CTX-1020766

>  <SMILES>
CC1=C(OC2=C1C=CC=C2)C(=O)N1CCC2=C(C1)N=C(C=C2)C(=O)NCC1=CSC=N1

$$$$
CTX-1020735
OCL MolfileCreator  2D

  0  0  0  0  0  0              0 V3000
M  V30 BEGIN CTAB
M  V30 COUNTS 36 41 0 0 0
M  V30 BEGIN ATOM
M  V30 1 S 6.5664 -0.1398 0.0 0
M  V30 2 C 5.1961 -0.75 0.0 0
M  V30 3 C 7.5701 -1.2546 0.0 0
M  V30 4 C 3.8971 0.0 0.0 0
M  V30 5 C 5.3529 -2.2417 0.0 0
M  V30 6 C 6.8201 -2.5536 0.0 0
M  V30 7 C 9.0701 -1.2546 0.0 0
M  V30 8 O 3.8971 1.5 0.0 0
M  V30 9 N 2.598 -0.75 0.0 0
M  V30 10 C 7.5701 -3.8526 0.0 0
M  V30 11 C 9.8201 -2.5536 0.0 0
M  V30 12 C 1.299 0.0 0.0 0
M  V30 13 N 9.0701 -3.8526 0.0 0
M  V30 14 C 0.0 -0.75 0.0 0
M  V30 15 C 9.8201 -5.1517 0.0 0
M  V30 16 C -1.4488 -0.3617 0.0 0
M  V30 17 C -0.3882 -2.1988 0.0 0
M  V30 18 O 9.0701 -6.4507 0.0 0
M  V30 19 C 11.3201 -5.1517 0.0 0
M  V30 20 C -1.8371 -1.8106 0.0 0
M  V30 21 O 12.2018 -6.3652 0.0 0
M  V30 22 C 12.2018 -3.9382 0.0 0
M  V30 23 N -3.1361 -2.5606 0.0 0
M  V30 24 C 13.6284 -5.9017 0.0 0
M  V30 25 C 13.6284 -4.4017 0.0 0
M  V30 26 C 11.7383 -2.5116 0.0 0
M  V30 27 C -4.4351 -1.8106 0.0 0
M  V30 28 C -3.1361 -4.0606 0.0 0
M  V30 29 C 14.9274 -6.6517 0.0 0
M  V30 30 C 14.9274 -3.6517 0.0 0
M  V30 31 C -5.7342 -2.5606 0.0 0
M  V30 32 C -4.4351 -4.8106 0.0 0
M  V30 33 C 16.2265 -5.9017 0.0 0
M  V30 34 C 16.2265 -4.4017 0.0 0
M  V30 35 N -5.7342 -4.0606 0.0 0
M  V30 36 C -7.0332 -4.8106 0.0 0
M  V30 END ATOM
M  V30 BEGIN BOND
M  V30 1 1 1 2
M  V30 2 1 1 3
M  V30 3 1 2 4
M  V30 4 2 2 5
M  V30 5 2 3 6
M  V30 6 1 3 7
M  V30 7 2 4 8
M  V30 8 1 4 9
M  V30 9 1 6 10
M  V30 10 1 7 11
M  V30 11 1 9 12
M  V30 12 1 10 13
M  V30 13 1 12 14
M  V30 14 1 13 15
M  V30 15 1 14 16
M  V30 16 1 14 17
M  V30 17 2 15 18
M  V30 18 1 15 19
M  V30 19 1 16 20
M  V30 20 1 19 21
M  V30 21 2 19 22
M  V30 22 1 20 23
M  V30 23 1 21 24
M  V30 24 1 22 25
M  V30 25 1 22 26
M  V30 26 1 23 27
M  V30 27 1 23 28
M  V30 28 1 24 29
M  V30 29 1 25 30
M  V30 30 1 27 31
M  V30 31 1 28 32
M  V30 32 2 29 33
M  V30 33 2 30 34
M  V30 34 1 31 35
M  V30 35 1 35 36
M  V30 36 1 5 6
M  V30 37 1 11 13
M  V30 38 1 17 20
M  V30 39 2 24 25
M  V30 40 1 32 35
M  V30 41 1 33 34
M  V30 END BOND
M  V30 END CTAB
M  END
>  <pIC50>
4.380907

>  <Serie>
Tetrahydrothienopyridine

>  <Molecule Name>
CTX-1020735

>  <SMILES>
CN1CCN(CC1)C1CC(CNC(=O)C2=CC3=C(CCN(C3)C(=O)C3=C(C)C4=C(O3)C=CC=C4)S2)C1

$$$$
CTX-1020759
OCL MolfileCreator  2D

  0  0  0  0  0  0              0 V3000
M  V30 BEGIN CTAB
M  V30 COUNTS 41 46 0 0 0
M  V30 BEGIN ATOM
M  V30 1 O 3.4641 -0.5 0.0 0
M  V30 2 C 2.598 0.0 0.0 0
M  V30 3 N 1.732 -0.5 0.0 0
M  V30 4 C 2.598 1.0 0.0 0
M  V30 5 C 0.866 0.0 0.0 0
M  V30 6 N 3.4641 1.5 0.0 0
M  V30 7 C 1.732 1.5 0.0 0
M  V30 8 C 0.0 -0.5 0.0 0
M  V30 9 C 3.4641 2.5 0.0 0
M  V30 10 C 1.732 2.5 0.0 0
M  V30 11 C -0.866 0.0 0.0 0
M  V30 12 C 0.0 -1.4999 0.0 0
M  V30 13 C 2.598 2.9999 0.0 0
M  V30 14 C 4.3301 3.0 0.0 0
M  V30 15 C -1.732 -0.4999 0.0 0
M  V30 16 C -0.866 -1.9999 0.0 0
M  V30 17 C 2.598 4.0 0.0 0
M  V30 18 N 4.3301 4.0 0.0 0
M  V30 19 C -1.732 -1.4999 0.0 0
M  V30 20 C 3.4641 4.5 0.0 0
M  V30 21 C 5.1961 4.5 0.0 0
M  V30 22 N -2.598 -1.9999 0.0 0
M  V30 23 O 6.0621 4.0 0.0 0
M  V30 24 C 5.1961 5.5 0.0 0
M  V30 25 C -3.4641 -1.4999 0.0 0
M  V30 26 C -2.598 -2.9999 0.0 0
M  V30 27 N 6.0051 6.0877 0.0 0
M  V30 28 C 4.3871 6.0877 0.0 0
M  V30 29 C -4.3301 -1.9999 0.0 0
M  V30 30 C -3.4641 -3.4999 0.0 0
M  V30 31 C 5.6961 7.0388 0.0 0
M  V30 32 C 6.9562 5.7787 0.0 0
M  V30 33 C 4.6961 7.0388 0.0 0
M  V30 34 N -4.3301 -2.9999 0.0 0
M  V30 35 C 6.1961 7.9048 0.0 0
M  V30 36 C 7.1641 4.8006 0.0 0
M  V30 37 C 4.1961 7.9048 0.0 0
M  V30 38 C -5.1961 -3.4999 0.0 0
M  V30 39 C 5.6961 8.7708 0.0 0
M  V30 40 O 8.1151 4.4916 0.0 0
M  V30 41 C 4.6961 8.7708 0.0 0
M  V30 END ATOM
M  V30 BEGIN BOND
M  V30 1 2 1 2
M  V30 2 1 2 3
M  V30 3 1 2 4
M  V30 4 1 3 5
M  V30 5 2 4 6
M  V30 6 1 4 7
M  V30 7 1 5 8
M  V30 8 1 6 9
M  V30 9 2 7 10
M  V30 10 2 8 11
M  V30 11 1 8 12
M  V30 12 2 9 13
M  V30 13 1 9 14
M  V30 14 1 11 15
M  V30 15 2 12 16
M  V30 16 1 13 17
M  V30 17 1 14 18
M  V30 18 2 15 19
M  V30 19 1 17 20
M  V30 20 1 18 21
M  V30 21 1 19 22
M  V30 22 2 21 23
M  V30 23 1 21 24
M  V30 24 1 22 25
M  V30 25 1 22 26
M  V30 26 1 24 27
M  V30 27 2 24 28
M  V30 28 1 25 29
M  V30 29 1 26 30
M  V30 30 1 27 31
M  V30 31 1 27 32
M  V30 32 1 28 33
M  V30 33 1 29 34
M  V30 34 1 31 35
M  V30 35 1 32 36
M  V30 36 1 33 37
M  V30 37 1 34 38
M  V30 38 2 35 39
M  V30 39 1 36 40
M  V30 40 2 37 41
M  V30 41 1 10 13
M  V30 42 1 16 19
M  V30 43 1 18 20
M  V30 44 1 30 34
M  V30 45 2 31 33
M  V30 46 1 39 41
M  V30 END BOND
M  V30 END CTAB
M  END
>  <pIC50>
4.354578

>  <Serie>
Naphthyridine

>  <Molecule Name>
CTX-1020759

>  <SMILES>
CN1CCN(CC1)C1=CC=C(CNC(=O)C2=NC3=C(CCN(C3)C(=O)C3=CC4=C(C=CC=C4)N3CCO)C=C2)C=C1

$$$$
CTX-1020902
OCL MolfileCreator  2D

  0  0  0  0  0  0              0 V3000
M  V30 BEGIN CTAB
M  V30 COUNTS 38 43 0 0 0
M  V30 BEGIN ATOM
M  V30 1 O 7.7942 1.0 0.0 0
M  V30 2 C 7.7942 0.0 0.0 0
M  V30 3 N 6.9282 -0.5 0.0 0
M  V30 4 C 8.6602 -0.5 0.0 0
M  V30 5 C 6.0621 0.0 0.0 0
M  V30 6 C 6.9282 -1.4999 0.0 0
M  V30 7 O 8.7647 -1.4945 0.0 0
M  V30 8 C 9.5737 -0.0932 0.0 0
M  V30 9 C 5.1961 -0.5 0.0 0
M  V30 10 C 6.0621 -1.9999 0.0 0
M  V30 11 C 9.7429 -1.7024 0.0 0
M  V30 12 C 10.2429 -0.8364 0.0 0
M  V30 13 C 9.7817 0.8848 0.0 0
M  V30 14 N 4.3301 0.0 0.0 0
M  V30 15 C 5.1961 -1.4999 0.0 0
M  V30 16 C 10.2429 -2.5684 0.0 0
M  V30 17 C 11.2429 -0.8364 0.0 0
M  V30 18 C 3.4641 -0.5 0.0 0
M  V30 19 C 4.3301 -2.0 0.0 0
M  V30 20 C 11.2429 -2.5684 0.0 0
M  V30 21 C 11.7429 -1.7024 0.0 0
M  V30 22 C 3.4641 -1.4999 0.0 0
M  V30 23 C 2.598 0.0 0.0 0
M  V30 24 N 1.732 -0.5 0.0 0
M  V30 25 C 0.866 0.0 0.0 0
M  V30 26 C 0.0 -0.5 0.0 0
M  V30 27 C -0.866 0.0 0.0 0
M  V30 28 C 0.0 -1.4999 0.0 0
M  V30 29 C -1.732 -0.4999 0.0 0
M  V30 30 C -0.866 -1.9999 0.0 0
M  V30 31 C -1.732 -1.4999 0.0 0
M  V30 32 N -2.598 -1.9999 0.0 0
M  V30 33 C -3.4641 -1.4999 0.0 0
M  V30 34 C -2.598 -2.9999 0.0 0
M  V30 35 C -4.3301 -1.9999 0.0 0
M  V30 36 C -3.4641 -3.4999 0.0 0
M  V30 37 N -4.3301 -2.9999 0.0 0
M  V30 38 C -5.1961 -3.4999 0.0 0
M  V30 END ATOM
M  V30 BEGIN BOND
M  V30 1 2 1 2
M  V30 2 1 2 3
M  V30 3 1 2 4
M  V30 4 1 3 5
M  V30 5 1 3 6
M  V30 6 1 4 7
M  V30 7 2 4 8
M  V30 8 1 5 9
M  V30 9 1 6 10
M  V30 10 1 7 11
M  V30 11 1 8 12
M  V30 12 1 8 13
M  V30 13 2 9 14
M  V30 14 1 9 15
M  V30 15 1 11 16
M  V30 16 1 12 17
M  V30 17 1 14 18
M  V30 18 2 15 19
M  V30 19 2 16 20
M  V30 20 2 17 21
M  V30 21 2 18 22
M  V30 22 1 18 23
M  V30 23 1 23 24
M  V30 24 1 24 25
M  V30 25 1 25 26
M  V30 26 2 26 27
M  V30 27 1 26 28
M  V30 28 1 27 29
M  V30 29 2 28 30
M  V30 30 2 29 31
M  V30 31 1 31 32
M  V30 32 1 32 33
M  V30 33 1 32 34
M  V30 34 1 33 35
M  V30 35 1 34 36
M  V30 36 1 35 37
M  V30 37 1 37 38
M  V30 38 1 10 15
M  V30 39 2 11 12
M  V30 40 1 19 22
M  V30 41 1 20 21
M  V30 42 1 30 31
M  V30 43 1 36 37
M  V30 END BOND
M  V30 END CTAB
M  END
>  <pIC50>
4.341035

>  <Serie>
Naphthyridine

>  <Molecule Name>
CTX-1020902

>  <SMILES>
CN1CCN(CC1)C1=CC=C(CNCC2=CC=C3CCN(CC3=N2)C(=O)C2=C(C)C3=CC=CC=C3O2)C=C1

$$$$
CTX-1020912
OCL MolfileCreator  2D

  0  0  0  0  0  0              0 V3000
M  V30 BEGIN CTAB
M  V30 COUNTS 37 42 0 0 0
M  V30 BEGIN ATOM
M  V30 1 S 7.8987 0.9945 0.0 0
M  V30 2 C 7.7942 0.0 0.0 0
M  V30 3 C 8.8769 1.2024 0.0 0
M  V30 4 C 6.9282 -0.5 0.0 0
M  V30 5 C 8.7077 -0.4067 0.0 0
M  V30 6 C 9.3769 0.3364 0.0 0
M  V30 7 C 9.3769 2.0684 0.0 0
M  V30 8 C 6.0621 0.0 0.0 0
M  V30 9 C 6.9282 -1.4999 0.0 0
M  V30 10 C 8.9156 -1.3848 0.0 0
M  V30 11 C 10.3769 0.3364 0.0 0
M  V30 12 C 10.3769 2.0684 0.0 0
M  V30 13 C 5.1961 -0.5 0.0 0
M  V30 14 C 6.0621 -1.9999 0.0 0
M  V30 15 C 10.8769 1.2024 0.0 0
M  V30 16 N 4.3301 0.0 0.0 0
M  V30 17 C 5.1961 -1.4999 0.0 0
M  V30 18 C 3.4641 -0.5 0.0 0
M  V30 19 C 4.3301 -2.0 0.0 0
M  V30 20 C 2.598 0.0 0.0 0
M  V30 21 C 3.4641 -1.4999 0.0 0
M  V30 22 O 2.598 1.0 0.0 0
M  V30 23 N 1.732 -0.5 0.0 0
M  V30 24 C 0.866 0.0 0.0 0
M  V30 25 C 0.0 -0.5 0.0 0
M  V30 26 C -0.866 0.0 0.0 0
M  V30 27 C 0.0 -1.4999 0.0 0
M  V30 28 C -1.732 -0.4999 0.0 0
M  V30 29 C -0.866 -1.9999 0.0 0
M  V30 30 C -1.732 -1.4999 0.0 0
M  V30 31 N -2.598 -1.9999 0.0 0
M  V30 32 C -3.4641 -1.4999 0.0 0
M  V30 33 C -2.598 -2.9999 0.0 0
M  V30 34 C -4.3301 -1.9999 0.0 0
M  V30 35 C -3.4641 -3.4999 0.0 0
M  V30 36 N -4.3301 -2.9999 0.0 0
M  V30 37 C -5.1961 -3.4999 0.0 0
M  V30 END ATOM
M  V30 BEGIN BOND
M  V30 1 1 1 2
M  V30 2 1 1 3
M  V30 3 1 2 4
M  V30 4 2 2 5
M  V30 5 2 3 6
M  V30 6 1 3 7
M  V30 7 2 4 8
M  V30 8 1 4 9
M  V30 9 1 5 10
M  V30 10 1 6 11
M  V30 11 2 7 12
M  V30 12 1 8 13
M  V30 13 2 9 14
M  V30 14 2 11 15
M  V30 15 1 13 16
M  V30 16 2 13 17
M  V30 17 2 16 18
M  V30 18 1 17 19
M  V30 19 1 18 20
M  V30 20 1 18 21
M  V30 21 2 20 22
M  V30 22 1 20 23
M  V30 23 1 23 24
M  V30 24 1 24 25
M  V30 25 2 25 26
M  V30 26 1 25 27
M  V30 27 1 26 28
M  V30 28 2 27 29
M  V30 29 2 28 30
M  V30 30 1 30 31
M  V30 31 1 31 32
M  V30 32 1 31 33
M  V30 33 1 32 34
M  V30 34 1 33 35
M  V30 35 1 34 36
M  V30 36 1 36 37
M  V30 37 1 5 6
M  V30 38 1 12 15
M  V30 39 1 14 17
M  V30 40 2 19 21
M  V30 41 1 29 30
M  V30 42 1 35 36
M  V30 END BOND
M  V30 END CTAB
M  END
>  <pIC50>
4.322393

>  <Serie>
Other

>  <Molecule Name>
CTX-1020912

>  <SMILES>
CN1CCN(CC1)C1=CC=C(CNC(=O)C2=NC3=CC(=CC=C3C=C2)C2=C(C)C3=CC=CC=C3S2)C=C1

$$$$
CTX-1020754
OCL MolfileCreator  2D

  0  0  0  0  0  0              0 V3000
M  V30 BEGIN CTAB
M  V30 COUNTS 31 35 0 0 0
M  V30 BEGIN ATOM
M  V30 1 O 5.1961 -0.75 0.0 0
M  V30 2 C 3.8971 0.0 0.0 0
M  V30 3 N 2.598 -0.75 0.0 0
M  V30 4 C 3.8971 1.5 0.0 0
M  V30 5 C 1.299 0.0 0.0 0
M  V30 6 N 5.1961 2.25 0.0 0
M  V30 7 C 2.598 2.25 0.0 0
M  V30 8 C 0.0 -0.75 0.0 0
M  V30 9 C 5.1961 3.75 0.0 0
M  V30 10 C 2.598 3.75 0.0 0
M  V30 11 O -1.3703 -0.1398 0.0 0
M  V30 12 C -0.1567 -2.2417 0.0 0
M  V30 13 C 3.8971 4.5 0.0 0
M  V30 14 C 6.4951 4.5 0.0 0
M  V30 15 C -2.374 -1.2546 0.0 0
M  V30 16 N -1.624 -2.5536 0.0 0
M  V30 17 C 3.8971 6.0 0.0 0
M  V30 18 N 6.4951 6.0 0.0 0
M  V30 19 C 5.1961 6.75 0.0 0
M  V30 20 C 7.7942 6.75 0.0 0
M  V30 21 O 9.0932 6.0 0.0 0
M  V30 22 C 7.7942 8.25 0.0 0
M  V30 23 O 9.0077 9.1316 0.0 0
M  V30 24 C 6.5807 9.1316 0.0 0
M  V30 25 C 8.5442 10.5582 0.0 0
M  V30 26 C 7.0442 10.5582 0.0 0
M  V30 27 C 5.1541 8.6681 0.0 0
M  V30 28 C 9.2942 11.8573 0.0 0
M  V30 29 C 6.2942 11.8573 0.0 0
M  V30 30 C 8.5442 13.1563 0.0 0
M  V30 31 C 7.0442 13.1563 0.0 0
M  V30 END ATOM
M  V30 BEGIN BOND
M  V30 1 2 1 2
M  V30 2 1 2 3
M  V30 3 1 2 4
M  V30 4 1 3 5
M  V30 5 2 4 6
M  V30 6 1 4 7
M  V30 7 1 5 8
M  V30 8 1 6 9
M  V30 9 2 7 10
M  V30 10 1 8 11
M  V30 11 2 8 12
M  V30 12 2 9 13
M  V30 13 1 9 14
M  V30 14 1 11 15
M  V30 15 1 12 16
M  V30 16 1 13 17
M  V30 17 1 14 18
M  V30 18 1 17 19
M  V30 19 1 18 20
M  V30 20 2 20 21
M  V30 21 1 20 22
M  V30 22 1 22 23
M  V30 23 2 22 24
M  V30 24 1 23 25
M  V30 25 1 24 26
M  V30 26 1 24 27
M  V30 27 1 25 28
M  V30 28 1 26 29
M  V30 29 2 28 30
M  V30 30 2 29 31
M  V30 31 1 10 13
M  V30 32 2 15 16
M  V30 33 1 18 19
M  V30 34 2 25 26
M  V30 35 1 30 31
M  V30 END BOND
M  V30 END CTAB
M  END
>  <pIC50>
4.310691

>  <Serie>
Naphthyridine

>  <Molecule Name>
CTX-1020754

>  <SMILES>
CC1=C(OC2=C1C=CC=C2)C(=O)N1CCC2=C(C1)N=C(C=C2)C(=O)NCC1=CN=CO1

$$$$
CTX-1020726
OCL MolfileCreator  2D

  0  0  0  0  0  0              0 V3000
M  V30 BEGIN CTAB
M  V30 COUNTS 34 39 0 0 0
M  V30 BEGIN ATOM
M  V30 1 O 3.8971 0.0 0.0 0
M  V30 2 C 2.598 -0.75 0.0 0
M  V30 3 N 1.299 0.0 0.0 0
M  V30 4 C 2.598 -2.25 0.0 0
M  V30 5 C 0.0 -0.75 0.0 0
M  V30 6 N 1.299 -3.0 0.0 0
M  V30 7 C 3.8971 -3.0 0.0 0
M  V30 8 C -1.3703 -0.1398 0.0 0
M  V30 9 C -0.1567 -2.2417 0.0 0
M  V30 10 C 1.299 -4.5 0.0 0
M  V30 11 C 3.8971 -4.5 0.0 0
M  V30 12 N -2.374 -1.2546 0.0 0
M  V30 13 C -1.8338 1.2866 0.0 0
M  V30 14 N -1.624 -2.5536 0.0 0
M  V30 15 C 2.598 -5.25 0.0 0
M  V30 16 C 0.0 -5.25 0.0 0
M  V30 17 C -3.8412 -0.9427 0.0 0
M  V30 18 C -3.301 1.5985 0.0 0
M  V30 19 C 2.598 -6.75 0.0 0
M  V30 20 N 0.0 -6.75 0.0 0
M  V30 21 C -4.3047 0.4838 0.0 0
M  V30 22 C 1.299 -7.5 0.0 0
M  V30 23 C -1.299 -7.5 0.0 0
M  V30 24 O -2.598 -6.75 0.0 0
M  V30 25 C -1.299 -9.0 0.0 0
M  V30 26 O -2.5125 -9.8816 0.0 0
M  V30 27 C -0.0855 -9.8816 0.0 0
M  V30 28 C -2.049 -11.3082 0.0 0
M  V30 29 C -0.549 -11.3082 0.0 0
M  V30 30 C 1.341 -9.4181 0.0 0
M  V30 31 C -2.799 -12.6073 0.0 0
M  V30 32 C 0.2009 -12.6073 0.0 0
M  V30 33 C -2.049 -13.9063 0.0 0
M  V30 34 C -0.549 -13.9063 0.0 0
M  V30 END ATOM
M  V30 BEGIN BOND
M  V30 1 2 1 2
M  V30 2 1 2 3
M  V30 3 1 2 4
M  V30 4 1 3 5
M  V30 5 2 4 6
M  V30 6 1 4 7
M  V30 7 2 5 8
M  V30 8 1 5 9
M  V30 9 1 6 10
M  V30 10 2 7 11
M  V30 11 1 8 12
M  V30 12 1 8 13
M  V30 13 2 9 14
M  V30 14 2 10 15
M  V30 15 1 10 16
M  V30 16 1 12 17
M  V30 17 2 13 18
M  V30 18 1 15 19
M  V30 19 1 16 20
M  V30 20 2 17 21
M  V30 21 1 19 22
M  V30 22 1 20 23
M  V30 23 2 23 24
M  V30 24 1 23 25
M  V30 25 1 25 26
M  V30 26 2 25 27
M  V30 27 1 26 28
M  V30 28 1 27 29
M  V30 29 1 27 30
M  V30 30 1 28 31
M  V30 31 1 29 32
M  V30 32 2 31 33
M  V30 33 2 32 34
M  V30 34 1 11 15
M  V30 35 1 12 14
M  V30 36 1 18 21
M  V30 37 1 20 22
M  V30 38 2 28 29
M  V30 39 1 33 34
M  V30 END BOND
M  V30 END CTAB
M  END
>  <pIC50>
4.08831

>  <Serie>
Naphthyridine

>  <Molecule Name>
CTX-1020726

>  <SMILES>
CC1=C(OC2=C1C=CC=C2)C(=O)N1CCC2=CC=C(N=C2C1)C(=O)NC1=C2C=CC=CN2N=C1

$$$$
CTX-1020845
OCL MolfileCreator  2D

  0  0  0  0  0  0              0 V3000
M  V30 BEGIN CTAB
M  V30 COUNTS 38 43 0 0 0
M  V30 BEGIN ATOM
M  V30 1 Cl 11.1474 -8.1329 0.0 0
M  V30 2 C 9.6802 -7.821 0.0 0
M  V30 3 C 9.0701 -6.4507 0.0 0
M  V30 4 C 8.5655 -8.8247 0.0 0
M  V30 5 S 7.5783 -6.6075 0.0 0
M  V30 6 C 9.8201 -5.1517 0.0 0
M  V30 7 C 7.2665 -8.0747 0.0 0
M  V30 8 C 8.5655 -10.3247 0.0 0
M  V30 9 O 11.3201 -5.1517 0.0 0
M  V30 10 N 9.0701 -3.8526 0.0 0
M  V30 11 C 5.9674 -8.8247 0.0 0
M  V30 12 N 7.2665 -11.0747 0.0 0
M  V30 13 C 7.5701 -3.8526 0.0 0
M  V30 14 C 9.8201 -2.5536 0.0 0
M  V30 15 C 5.9674 -10.3247 0.0 0
M  V30 16 C 6.8201 -2.5536 0.0 0
M  V30 17 C 9.0701 -1.2546 0.0 0
M  V30 18 C 7.5701 -1.2546 0.0 0
M  V30 19 C 5.3529 -2.2417 0.0 0
M  V30 20 S 6.5664 -0.1398 0.0 0
M  V30 21 C 5.1961 -0.75 0.0 0
M  V30 22 C 3.8971 0.0 0.0 0
M  V30 23 O 3.8971 1.5 0.0 0
M  V30 24 N 2.598 -0.75 0.0 0
M  V30 25 C 1.299 0.0 0.0 0
M  V30 26 C 0.0 -0.75 0.0 0
M  V30 27 C -1.299 0.0 0.0 0
M  V30 28 C 0.0 -2.2499 0.0 0
M  V30 29 C -2.598 -0.7499 0.0 0
M  V30 30 C -1.299 -2.9999 0.0 0
M  V30 31 C -2.598 -2.2499 0.0 0
M  V30 32 N -3.8971 -2.9999 0.0 0
M  V30 33 C -5.1961 -2.2499 0.0 0
M  V30 34 C -3.8971 -4.4999 0.0 0
M  V30 35 C -6.4951 -2.9999 0.0 0
M  V30 36 C -5.1961 -5.2499 0.0 0
M  V30 37 N -6.4951 -4.4999 0.0 0
M  V30 38 C -7.7942 -5.2499 0.0 0
M  V30 END ATOM
M  V30 BEGIN BOND
M  V30 1 1 1 2
M  V30 2 2 2 3
M  V30 3 1 2 4
M  V30 4 1 3 5
M  V30 5 1 3 6
M  V30 6 2 4 7
M  V30 7 1 4 8
M  V30 8 2 6 9
M  V30 9 1 6 10
M  V30 10 1 7 11
M  V30 11 2 8 12
M  V30 12 1 10 13
M  V30 13 1 10 14
M  V30 14 2 11 15
M  V30 15 1 13 16
M  V30 16 1 14 17
M  V30 17 2 16 18
M  V30 18 1 16 19
M  V30 19 1 18 20
M  V30 20 2 19 21
M  V30 21 1 21 22
M  V30 22 2 22 23
M  V30 23 1 22 24
M  V30 24 1 24 25
M  V30 25 1 25 26
M  V30 26 2 26 27
M  V30 27 1 26 28
M  V30 28 1 27 29
M  V30 29 2 28 30
M  V30 30 2 29 31
M  V30 31 1 31 32
M  V30 32 1 32 33
M  V30 33 1 32 34
M  V30 34 1 33 35
M  V30 35 1 34 36
M  V30 36 1 35 37
M  V30 37 1 37 38
M  V30 38 1 5 7
M  V30 39 1 12 15
M  V30 40 1 17 18
M  V30 41 1 20 21
M  V30 42 1 30 31
M  V30 43 1 36 37
M  V30 END BOND
M  V30 END CTAB
M  END
>  <pIC50>
4.068542

>  <Serie>
Tetrahydrothienopyridine

>  <Molecule Name>
CTX-1020845

>  <SMILES>
CN1CCN(CC1)C1=CC=C(CNC(=O)C2=CC3=C(CCN(C3)C(=O)C3=C(Cl)C4=CN=CC=C4S3)S2)C=C1

$$$$
CTX-1020752
OCL MolfileCreator  2D

  0  0  0  0  0  0              0 V3000
M  V30 BEGIN CTAB
M  V30 COUNTS 40 45 0 0 0
M  V30 BEGIN ATOM
M  V30 1 O 5.1961 -0.75 0.0 0
M  V30 2 C 3.8971 0.0 0.0 0
M  V30 3 N 2.598 -0.75 0.0 0
M  V30 4 C 3.8971 1.5 0.0 0
M  V30 5 C 1.299 0.0 0.0 0
M  V30 6 N 5.1961 2.25 0.0 0
M  V30 7 C 2.598 2.25 0.0 0
M  V30 8 C 0.0 -0.75 0.0 0
M  V30 9 C 5.1961 3.75 0.0 0
M  V30 10 C 2.598 3.75 0.0 0
M  V30 11 C -1.299 0.0 0.0 0
M  V30 12 C 0.0 -2.2499 0.0 0
M  V30 13 C 3.8971 4.5 0.0 0
M  V30 14 C 6.4951 4.5 0.0 0
M  V30 15 C -2.598 -0.7499 0.0 0
M  V30 16 C -1.299 -2.9999 0.0 0
M  V30 17 C 3.8971 6.0 0.0 0
M  V30 18 N 6.4951 6.0 0.0 0
M  V30 19 C -2.598 -2.2499 0.0 0
M  V30 20 C 5.1961 6.75 0.0 0
M  V30 21 C 7.7942 6.75 0.0 0
M  V30 22 N -3.8971 -2.9999 0.0 0
M  V30 23 O 9.0932 6.0 0.0 0
M  V30 24 C 7.7942 8.25 0.0 0
M  V30 25 C -5.1961 -2.2499 0.0 0
M  V30 26 C -3.8971 -4.4999 0.0 0
M  V30 27 N 9.0077 9.1316 0.0 0
M  V30 28 C 6.5807 9.1316 0.0 0
M  V30 29 C -6.4951 -2.9999 0.0 0
M  V30 30 C -5.1961 -5.2499 0.0 0
M  V30 31 C 8.5442 10.5582 0.0 0
M  V30 32 C 10.4343 8.6681 0.0 0
M  V30 33 C 7.0442 10.5582 0.0 0
M  V30 34 C 5.1541 8.6681 0.0 0
M  V30 35 N -6.4951 -4.4999 0.0 0
M  V30 36 C 9.2942 11.8573 0.0 0
M  V30 37 C 6.2942 11.8573 0.0 0
M  V30 38 C -7.7942 -5.2499 0.0 0
M  V30 39 C 8.5442 13.1563 0.0 0
M  V30 40 C 7.0442 13.1563 0.0 0
M  V30 END ATOM
M  V30 BEGIN BOND
M  V30 1 2 1 2
M  V30 2 1 2 3
M  V30 3 1 2 4
M  V30 4 1 3 5
M  V30 5 2 4 6
M  V30 6 1 4 7
M  V30 7 1 5 8
M  V30 8 1 6 9
M  V30 9 2 7 10
M  V30 10 2 8 11
M  V30 11 1 8 12
M  V30 12 2 9 13
M  V30 13 1 9 14
M  V30 14 1 11 15
M  V30 15 2 12 16
M  V30 16 1 13 17
M  V30 17 1 14 18
M  V30 18 2 15 19
M  V30 19 1 17 20
M  V30 20 1 18 21
M  V30 21 1 19 22
M  V30 22 2 21 23
M  V30 23 1 21 24
M  V30 24 1 22 25
M  V30 25 1 22 26
M  V30 26 1 24 27
M  V30 27 2 24 28
M  V30 28 1 25 29
M  V30 29 1 26 30
M  V30 30 1 27 31
M  V30 31 1 27 32
M  V30 32 1 28 33
M  V30 33 1 28 34
M  V30 34 1 29 35
M  V30 35 1 31 36
M  V30 36 1 33 37
M  V30 37 1 35 38
M  V30 38 2 36 39
M  V30 39 2 37 40
M  V30 40 1 10 13
M  V30 41 1 16 19
M  V30 42 1 18 20
M  V30 43 1 30 35
M  V30 44 2 31 33
M  V30 45 1 39 40
M  V30 END BOND
M  V30 END CTAB
M  END
>  <pIC50>
4.060481

>  <Serie>
Naphthyridine

>  <Molecule Name>
CTX-1020752

>  <SMILES>
CN1C2=C(C=CC=C2)C(C)=C1C(=O)N1CCC2=C(C1)N=C(C=C2)C(=O)NCC1=CC=C(C=C1)N1CCN(C)CC1

$$$$
CTX-1020767
OCL MolfileCreator  2D

  0  0  0  0  0  0              0 V3000
M  V30 BEGIN CTAB
M  V30 COUNTS 31 35 0 0 0
M  V30 BEGIN ATOM
M  V30 1 O 5.1961 -0.75 0.0 0
M  V30 2 C 3.8971 0.0 0.0 0
M  V30 3 N 2.598 -0.75 0.0 0
M  V30 4 C 3.8971 1.5 0.0 0
M  V30 5 C 1.299 0.0 0.0 0
M  V30 6 N 5.1961 2.25 0.0 0
M  V30 7 C 2.598 2.25 0.0 0
M  V30 8 C 0.0 -0.75 0.0 0
M  V30 9 C 5.1961 3.75 0.0 0
M  V30 10 C 2.598 3.75 0.0 0
M  V30 11 N -1.3703 -0.1398 0.0 0
M  V30 12 C -0.1567 -2.2417 0.0 0
M  V30 13 C 3.8971 4.5 0.0 0
M  V30 14 C 6.4951 4.5 0.0 0
M  V30 15 C -2.374 -1.2546 0.0 0
M  V30 16 N -1.624 -2.5536 0.0 0
M  V30 17 C 3.8971 6.0 0.0 0
M  V30 18 N 6.4951 6.0 0.0 0
M  V30 19 C 5.1961 6.75 0.0 0
M  V30 20 C 7.7942 6.75 0.0 0
M  V30 21 O 9.0932 6.0 0.0 0
M  V30 22 C 7.7942 8.25 0.0 0
M  V30 23 O 9.0077 9.1316 0.0 0
M  V30 24 C 6.5807 9.1316 0.0 0
M  V30 25 C 8.5442 10.5582 0.0 0
M  V30 26 C 7.0442 10.5582 0.0 0
M  V30 27 C 5.1541 8.6681 0.0 0
M  V30 28 C 9.2942 11.8573 0.0 0
M  V30 29 C 6.2942 11.8573 0.0 0
M  V30 30 C 8.5442 13.1563 0.0 0
M  V30 31 C 7.0442 13.1563 0.0 0
M  V30 END ATOM
M  V30 BEGIN BOND
M  V30 1 2 1 2
M  V30 2 1 2 3
M  V30 3 1 2 4
M  V30 4 1 3 5
M  V30 5 2 4 6
M  V30 6 1 4 7
M  V30 7 1 5 8
M  V30 8 1 6 9
M  V30 9 2 7 10
M  V30 10 1 8 11
M  V30 11 2 8 12
M  V30 12 2 9 13
M  V30 13 1 9 14
M  V30 14 2 11 15
M  V30 15 1 12 16
M  V30 16 1 13 17
M  V30 17 1 14 18
M  V30 18 1 17 19
M  V30 19 1 18 20
M  V30 20 2 20 21
M  V30 21 1 20 22
M  V30 22 1 22 23
M  V30 23 2 22 24
M  V30 24 1 23 25
M  V30 25 1 24 26
M  V30 26 1 24 27
M  V30 27 1 25 28
M  V30 28 1 26 29
M  V30 29 2 28 30
M  V30 30 2 29 31
M  V30 31 1 10 13
M  V30 32 1 15 16
M  V30 33 1 18 19
M  V30 34 2 25 26
M  V30 35 1 30 31
M  V30 END BOND
M  V30 END CTAB
M  END
>  <pIC50>
4.05061

>  <Serie>
Naphthyridine

>  <Molecule Name>
CTX-1020767

>  <SMILES>
CC1=C(OC2=C1C=CC=C2)C(=O)N1CCC2=C(C1)N=C(C=C2)C(=O)NCC1=CNC=N1

$$$$
CTX-1020751
OCL MolfileCreator  2D

  0  0  0  0  0  0              0 V3000
M  V30 BEGIN CTAB
M  V30 COUNTS 36 40 0 0 0
M  V30 BEGIN ATOM
M  V30 1 F 6.5621 -1.1339 0.0 0
M  V30 2 C 6.0621 -1.9999 0.0 0
M  V30 3 F 6.9282 -2.5 0.0 0
M  V30 4 F 5.5621 -2.866 0.0 0
M  V30 5 C 5.1961 -1.4999 0.0 0
M  V30 6 C 5.1961 -0.5 0.0 0
M  V30 7 C 4.3301 -1.9999 0.0 0
M  V30 8 C 4.3301 0.0 0.0 0
M  V30 9 C 3.4641 -1.5 0.0 0
M  V30 10 C 3.4641 -0.5 0.0 0
M  V30 11 C 2.598 0.0 0.0 0
M  V30 12 N 1.732 -0.5 0.0 0
M  V30 13 C 0.866 0.0 0.0 0
M  V30 14 O 0.866 1.0 0.0 0
M  V30 15 C 0.0 -0.5 0.0 0
M  V30 16 N -0.866 0.0 0.0 0
M  V30 17 C 0.0 -1.4999 0.0 0
M  V30 18 C -1.732 -0.4999 0.0 0
M  V30 19 C -0.866 -1.9999 0.0 0
M  V30 20 C -1.732 -1.4999 0.0 0
M  V30 21 C -2.598 0.0 0.0 0
M  V30 22 C -2.598 -1.9999 0.0 0
M  V30 23 N -3.4641 -0.4999 0.0 0
M  V30 24 C -3.4641 -1.4999 0.0 0
M  V30 25 C -4.3301 0.0 0.0 0
M  V30 26 O -4.3301 1.0 0.0 0
M  V30 27 C -5.1961 -0.4999 0.0 0
M  V30 28 O -6.1096 -0.0932 0.0 0
M  V30 29 C -5.3006 -1.4945 0.0 0
M  V30 30 C -6.7788 -0.8364 0.0 0
M  V30 31 C -6.2788 -1.7024 0.0 0
M  V30 32 C -4.5575 -2.1636 0.0 0
M  V30 33 C -7.7788 -0.8364 0.0 0
M  V30 34 C -6.7788 -2.5684 0.0 0
M  V30 35 C -8.2788 -1.7024 0.0 0
M  V30 36 C -7.7788 -2.5684 0.0 0
M  V30 END ATOM
M  V30 BEGIN BOND
M  V30 1 1 1 2
M  V30 2 1 2 3
M  V30 3 1 2 4
M  V30 4 1 2 5
M  V30 5 2 5 6
M  V30 6 1 5 7
M  V30 7 1 6 8
M  V30 8 2 7 9
M  V30 9 2 8 10
M  V30 10 1 10 11
M  V30 11 1 11 12
M  V30 12 1 12 13
M  V30 13 2 13 14
M  V30 14 1 13 15
M  V30 15 2 15 16
M  V30 16 1 15 17
M  V30 17 1 16 18
M  V30 18 2 17 19
M  V30 19 2 18 20
M  V30 20 1 18 21
M  V30 21 1 20 22
M  V30 22 1 21 23
M  V30 23 1 22 24
M  V30 24 1 23 25
M  V30 25 2 25 26
M  V30 26 1 25 27
M  V30 27 1 27 28
M  V30 28 2 27 29
M  V30 29 1 28 30
M  V30 30 1 29 31
M  V30 31 1 29 32
M  V30 32 1 30 33
M  V30 33 1 31 34
M  V30 34 2 33 35
M  V30 35 2 34 36
M  V30 36 1 9 10
M  V30 37 1 19 20
M  V30 38 1 23 24
M  V30 39 2 30 31
M  V30 40 1 35 36
M  V30 END BOND
M  V30 END CTAB
M  END
>  <pIC50>
4.043832

>  <Serie>
Naphthyridine

>  <Molecule Name>
CTX-1020751

>  <SMILES>
CC1=C(OC2=C1C=CC=C2)C(=O)N1CCC2=C(C1)N=C(C=C2)C(=O)NCC1=CC=C(C=C1)C(F)(F)F

$$$$
