EDEL-CRBN-0001
     RDKit          3D

  0  0  0  0  0  0  0  0  0  0999 V3000
M  V30 BEGIN CTAB
M  V30 COUNTS 25 27 0 0 0
M  V30 BEGIN ATOM
M  V30 1 O 5.360501 0.357708 -1.708575 0
M  V30 2 C 4.908435 -0.232889 -0.730932 0
M  V30 3 N 3.588022 -0.208548 -0.269852 0
M  V30 4 N 5.770211 -1.017992 -0.000432 0
M  V30 5 C 2.558729 0.541762 -0.935712 0
M  V30 6 C 3.220738 -1.144960 0.789282 0
M  V30 7 C 5.607293 -1.413224 1.297095 0
M  V30 8 C 1.213784 0.137253 -0.884713 0
M  V30 9 C 2.852020 1.716211 -1.641150 0
M  V30 10 C 4.259000 -1.150816 1.891421 0
M  V30 11 O 6.537047 -1.878893 1.950031 0
M  V30 12 C 0.186311 0.880693 -1.498119 0
M  V30 13 C 1.846117 2.458880 -2.267744 0
M  V30 14 C 0.520028 2.043133 -2.198781 0
M  V30 15 C -1.253542 0.401139 -1.457766 0
M  V30 16 N -1.675092 -0.055372 -0.126683 0
M  V30 17 C -2.706969 -1.122586 -0.149242 0 CFG=2
M  V30 18 C -1.848529 1.028000 0.841144 0
M  V30 19 C -3.849706 -0.883708 -1.151473 0
M  V30 20 C -3.301199 -1.567603 1.222695 0
M  V30 21 C -3.255638 1.594652 1.050334 0
M  V30 22 O -4.208606 0.164492 -1.663837 0
M  V30 23 O -4.486450 -2.029651 -1.487845 0
M  V30 24 N -3.683659 -0.561138 2.231249 0
M  V30 25 C -4.283579 0.631224 1.650251 0
M  V30 END ATOM
M  V30 BEGIN BOND
M  V30 1 2 1 2
M  V30 2 1 2 3
M  V30 3 1 2 4
M  V30 4 1 3 5
M  V30 5 1 3 6
M  V30 6 1 4 7
M  V30 7 2 5 8
M  V30 8 1 5 9
M  V30 9 1 6 10
M  V30 10 2 7 11
M  V30 11 1 8 12
M  V30 12 2 9 13
M  V30 13 2 12 14
M  V30 14 1 12 15
M  V30 15 1 15 16
M  V30 16 1 16 17
M  V30 17 1 16 18
M  V30 18 1 17 19 CFG=3
M  V30 19 1 17 20
M  V30 20 1 18 21
M  V30 21 2 19 22
M  V30 22 1 19 23
M  V30 23 1 20 24
M  V30 24 1 21 25
M  V30 25 1 7 10
M  V30 26 1 13 14
M  V30 27 1 24 25
M  V30 END BOND
M  V30 BEGIN COLLECTION
M  V30 MDLV30/STERAC1 ATOMS=(1 17)
M  V30 END COLLECTION
M  V30 END CTAB
M  END
>  <ID>  (1) 
EDEL-CRBN-0001

>  <Stereoisomer>  (1) 
original

$$$$
EDEL-CRBN-0001_ent
     RDKit          3D

  0  0  0  0  0  0  0  0  0  0999 V3000
M  V30 BEGIN CTAB
M  V30 COUNTS 25 27 0 0 0
M  V30 BEGIN ATOM
M  V30 1 O 3.153469 -2.279575 0.818868 0
M  V30 2 C 3.903017 -1.308000 0.779171 0
M  V30 3 N 3.706877 -0.112065 0.073623 0
M  V30 4 N 5.110464 -1.399828 1.435459 0
M  V30 5 C 2.510087 0.177034 -0.669441 0
M  V30 6 C 4.710627 0.931081 0.274723 0
M  V30 7 C 6.266334 -0.807227 1.006573 0
M  V30 8 C 1.302080 -0.492638 -0.416241 0
M  V30 9 C 2.505088 1.142263 -1.689577 0
M  V30 10 C 6.099150 0.362402 0.080877 0
M  V30 11 O 7.368866 -1.257812 1.304912 0
M  V30 12 C 0.124710 -0.207964 -1.134651 0
M  V30 13 C 1.344681 1.434574 -2.414960 0
M  V30 14 C 0.159674 0.763395 -2.138608 0
M  V30 15 C -1.156743 -0.962039 -0.837081 0
M  V30 16 N -2.280087 -0.073571 -0.483339 0
M  V30 17 C -3.595759 -0.726396 -0.732862 0 CFG=1
M  V30 18 C -2.117718 0.534293 0.842423 0
M  V30 19 C -3.696295 -2.137026 -0.140850 0
M  V30 20 C -4.866244 0.100588 -0.399249 0
M  V30 21 C -2.963167 1.800004 0.985157 0
M  V30 22 O -3.612208 -3.180365 -0.772927 0
M  V30 23 O -3.831661 -2.182935 1.201621 0
M  V30 24 N -5.099397 0.399898 1.018600 0
M  V30 25 C -4.382683 1.574093 1.498204 0
M  V30 END ATOM
M  V30 BEGIN BOND
M  V30 1 2 1 2
M  V30 2 1 2 3
M  V30 3 1 2 4
M  V30 4 1 3 5
M  V30 5 1 3 6
M  V30 6 1 4 7
M  V30 7 2 5 8
M  V30 8 1 5 9
M  V30 9 1 6 10
M  V30 10 2 7 11
M  V30 11 1 8 12
M  V30 12 2 9 13
M  V30 13 2 12 14
M  V30 14 1 12 15
M  V30 15 1 15 16
M  V30 16 1 16 17
M  V30 17 1 16 18
M  V30 18 1 17 19 CFG=1
M  V30 19 1 17 20
M  V30 20 1 18 21
M  V30 21 2 19 22
M  V30 22 1 19 23
M  V30 23 1 20 24
M  V30 24 1 21 25
M  V30 25 1 7 10
M  V30 26 1 13 14
M  V30 27 1 24 25
M  V30 END BOND
M  V30 BEGIN COLLECTION
M  V30 MDLV30/STERAC1 ATOMS=(1 17)
M  V30 END COLLECTION
M  V30 END CTAB
M  END
>  <ID>  (2) 
EDEL-CRBN-0001_ent

>  <Stereoisomer>  (2) 
enantiomer

$$$$
EDEL-CRBN-0002
     RDKit          3D

  0  0  0  0  0  0  0  0  0  0999 V3000
M  V30 BEGIN CTAB
M  V30 COUNTS 27 29 0 0 0
M  V30 BEGIN ATOM
M  V30 1 O 2.751475 0.630806 -2.874966 0
M  V30 2 C 3.362559 -0.057555 -2.060940 0
M  V30 3 N 3.059030 -0.214140 -0.707808 0
M  V30 4 N 4.432876 -0.802355 -2.503980 0
M  V30 5 C 2.012882 0.544419 -0.094884 0
M  V30 6 C 3.618246 -1.359564 -0.007685 0
M  V30 7 C 5.354976 -1.462086 -1.738991 0
M  V30 8 C 1.921018 1.939147 -0.259619 0
M  V30 9 C 1.060434 -0.100471 0.713739 0
M  V30 10 C 5.107939 -1.450060 -0.259516 0
M  V30 11 O 6.354020 -1.975877 -2.235288 0
M  V30 12 O 2.941117 2.598761 -0.903228 0
M  V30 13 C 0.897796 2.655698 0.370551 0
M  V30 14 C 0.009848 0.607112 1.324988 0
M  V30 15 C 2.475450 3.542883 -1.866731 0
M  V30 16 C -0.053218 1.993634 1.148544 0
M  V30 17 C -1.018384 -0.117102 2.172492 0
M  V30 18 N -2.209034 -0.654314 1.479965 0
M  V30 19 C -3.116160 0.404171 0.949241 0 CFG=2
M  V30 20 C -1.853497 -1.681915 0.492672 0
M  V30 21 C -3.600649 1.308756 2.088638 0
M  V30 22 C -4.408742 -0.073055 0.230222 0
M  V30 23 C -3.029005 -2.593293 0.144318 0
M  V30 24 O -3.377468 2.505816 2.200562 0
M  V30 25 O -4.317448 0.671931 3.040143 0
M  V30 26 N -4.163388 -0.673914 -1.084423 0
M  V30 27 C -3.877649 -2.102836 -1.025902 0
M  V30 END ATOM
M  V30 BEGIN BOND
M  V30 1 2 1 2
M  V30 2 1 2 3
M  V30 3 1 2 4
M  V30 4 1 3 5
M  V30 5 1 3 6
M  V30 6 1 4 7
M  V30 7 2 5 8
M  V30 8 1 5 9
M  V30 9 1 6 10
M  V30 10 2 7 11
M  V30 11 1 8 12
M  V30 12 1 8 13
M  V30 13 2 9 14
M  V30 14 1 12 15
M  V30 15 2 13 16
M  V30 16 1 14 17
M  V30 17 1 17 18
M  V30 18 1 18 19
M  V30 19 1 18 20
M  V30 20 1 19 21 CFG=1
M  V30 21 1 19 22
M  V30 22 1 20 23
M  V30 23 2 21 24
M  V30 24 1 21 25
M  V30 25 1 22 26
M  V30 26 1 23 27
M  V30 27 1 7 10
M  V30 28 1 14 16
M  V30 29 1 26 27
M  V30 END BOND
M  V30 BEGIN COLLECTION
M  V30 MDLV30/STERAC1 ATOMS=(1 19)
M  V30 END COLLECTION
M  V30 END CTAB
M  END
>  <ID>  (3) 
EDEL-CRBN-0002

>  <Stereoisomer>  (3) 
original

$$$$
EDEL-CRBN-0002_ent
     RDKit          3D

  0  0  0  0  0  0  0  0  0  0999 V3000
M  V30 BEGIN CTAB
M  V30 COUNTS 27 29 0 0 0
M  V30 BEGIN ATOM
M  V30 1 O 4.083380 0.259562 -1.652220 0
M  V30 2 C 4.159874 -0.468373 -0.665078 0
M  V30 3 N 3.244599 -0.543780 0.385409 0
M  V30 4 N 5.216137 -1.347405 -0.576511 0
M  V30 5 C 2.135323 0.355215 0.461060 0
M  V30 6 C 3.271020 -1.722811 1.236095 0
M  V30 7 C 5.588323 -2.086129 0.512885 0
M  V30 8 C 2.305154 1.746249 0.316396 0
M  V30 9 C 0.844372 -0.144462 0.705141 0
M  V30 10 C 4.683532 -1.996206 1.706119 0
M  V30 11 O 6.633399 -2.731070 0.526329 0
M  V30 12 O 3.582233 2.251311 0.248771 0
M  V30 13 C 1.203470 2.604608 0.408517 0
M  V30 14 C -0.267915 0.710470 0.773321 0
M  V30 15 C 3.747393 3.222330 -0.783541 0
M  V30 16 C -0.074177 2.088723 0.624342 0
M  V30 17 C -1.656737 0.155160 1.010203 0
M  V30 18 N -2.594147 0.439966 -0.086264 0
M  V30 19 C -4.004760 0.221368 0.344691 0 CFG=1
M  V30 20 C -2.238523 -0.176974 -1.364326 0
M  V30 21 C -4.530011 1.542347 0.917077 0
M  V30 22 C -4.999985 -0.302646 -0.730602 0
M  V30 23 C -2.330129 -1.700934 -1.460747 0
M  V30 24 O -4.493503 1.873281 2.094287 0
M  V30 25 O -4.999009 2.407471 -0.006065 0
M  V30 26 N -4.841656 -1.692640 -1.202519 0
M  V30 27 C -3.581356 -2.335676 -0.859694 0
M  V30 END ATOM
M  V30 BEGIN BOND
M  V30 1 2 1 2
M  V30 2 1 2 3
M  V30 3 1 2 4
M  V30 4 1 3 5
M  V30 5 1 3 6
M  V30 6 1 4 7
M  V30 7 2 5 8
M  V30 8 1 5 9
M  V30 9 1 6 10
M  V30 10 2 7 11
M  V30 11 1 8 12
M  V30 12 1 8 13
M  V30 13 2 9 14
M  V30 14 1 12 15
M  V30 15 2 13 16
M  V30 16 1 14 17
M  V30 17 1 17 18
M  V30 18 1 18 19
M  V30 19 1 18 20
M  V30 20 1 19 21 CFG=3
M  V30 21 1 19 22
M  V30 22 1 20 23
M  V30 23 2 21 24
M  V30 24 1 21 25
M  V30 25 1 22 26
M  V30 26 1 23 27
M  V30 27 1 7 10
M  V30 28 1 14 16
M  V30 29 1 26 27
M  V30 END BOND
M  V30 BEGIN COLLECTION
M  V30 MDLV30/STERAC1 ATOMS=(1 19)
M  V30 END COLLECTION
M  V30 END CTAB
M  END
>  <ID>  (4) 
EDEL-CRBN-0002_ent

>  <Stereoisomer>  (4) 
enantiomer

$$$$
EDEL-CRBN-0003
     RDKit          3D

  0  0  0  0  0  0  0  0  0  0999 V3000
M  V30 BEGIN CTAB
M  V30 COUNTS 27 29 0 0 0
M  V30 BEGIN ATOM
M  V30 1 O 4.963882 0.347305 -2.466632 0
M  V30 2 C 4.648884 -0.523547 -1.659685 0
M  V30 3 N 3.403041 -0.677491 -1.054624 0
M  V30 4 N 5.612924 -1.405119 -1.226576 0
M  V30 5 C 2.257185 0.093268 -1.435070 0
M  V30 6 C 3.193885 -1.880301 -0.250834 0
M  V30 7 C 5.628194 -2.002997 0.005114 0
M  V30 8 C 1.260274 0.450201 -0.499577 0
M  V30 9 C 2.080655 0.491733 -2.766792 0
M  V30 10 C 4.320378 -2.035055 0.745936 0
M  V30 11 O 6.673638 -2.416775 0.500243 0
M  V30 12 O 1.447803 0.224264 0.847180 0
M  V30 13 C 0.062778 1.075491 -0.901675 0
M  V30 14 C 0.922090 1.158960 -3.170226 0
M  V30 15 C 2.275185 1.247253 1.406081 0
M  V30 16 C -0.086879 1.431832 -2.249790 0
M  V30 17 C -1.059476 1.360553 0.076297 0
M  V30 18 N -1.808866 0.166260 0.493468 0
M  V30 19 C -2.663486 0.438443 1.677865 0 CFG=2
M  V30 20 C -2.492817 -0.553990 -0.588525 0
M  V30 21 C -2.849458 -0.828672 2.531477 0
M  V30 22 C -4.023989 1.131472 1.412988 0
M  V30 23 C -3.597548 0.210228 -1.319454 0
M  V30 24 O -2.547888 -1.983759 2.272173 0
M  V30 25 O -3.376597 -0.552992 3.750690 0
M  V30 26 N -5.044753 0.283646 0.799157 0
M  V30 27 C -4.969087 0.154390 -0.649592 0
M  V30 END ATOM
M  V30 BEGIN BOND
M  V30 1 2 1 2
M  V30 2 1 2 3
M  V30 3 1 2 4
M  V30 4 1 3 5
M  V30 5 1 3 6
M  V30 6 1 4 7
M  V30 7 2 5 8
M  V30 8 1 5 9
M  V30 9 1 6 10
M  V30 10 2 7 11
M  V30 11 1 8 12
M  V30 12 1 8 13
M  V30 13 2 9 14
M  V30 14 1 12 15
M  V30 15 2 13 16
M  V30 16 1 13 17
M  V30 17 1 17 18
M  V30 18 1 18 19
M  V30 19 1 18 20
M  V30 20 1 19 21 CFG=3
M  V30 21 1 19 22
M  V30 22 1 20 23
M  V30 23 2 21 24
M  V30 24 1 21 25
M  V30 25 1 22 26
M  V30 26 1 23 27
M  V30 27 1 7 10
M  V30 28 1 14 16
M  V30 29 1 26 27
M  V30 END BOND
M  V30 BEGIN COLLECTION
M  V30 MDLV30/STERAC1 ATOMS=(1 19)
M  V30 END COLLECTION
M  V30 END CTAB
M  END
>  <ID>  (5) 
EDEL-CRBN-0003

>  <Stereoisomer>  (5) 
original

$$$$
EDEL-CRBN-0003_ent
     RDKit          3D

  0  0  0  0  0  0  0  0  0  0999 V3000
M  V30 BEGIN CTAB
M  V30 COUNTS 27 29 0 0 0
M  V30 BEGIN ATOM
M  V30 1 O 2.556020 -2.235180 0.508787 0
M  V30 2 C 3.416184 -1.391175 0.737242 0
M  V30 3 N 3.448714 -0.079174 0.263337 0
M  V30 4 N 4.531319 -1.767301 1.451273 0
M  V30 5 C 2.323586 0.526475 -0.376148 0
M  V30 6 C 4.586738 0.758585 0.619815 0
M  V30 7 C 5.791620 -1.297660 1.202682 0
M  V30 8 C 0.997193 0.363649 0.079695 0
M  V30 9 C 2.546030 1.319986 -1.512071 0
M  V30 10 C 5.877794 -0.007487 0.436430 0
M  V30 11 O 6.790721 -1.939066 1.517542 0
M  V30 12 O 0.728276 -0.292300 1.258870 0
M  V30 13 C -0.090141 0.910543 -0.633956 0
M  V30 14 C 1.481334 1.898849 -2.202998 0
M  V30 15 C 0.931108 0.573025 2.374315 0
M  V30 16 C 0.173948 1.687012 -1.773431 0
M  V30 17 C -1.529707 0.682618 -0.206849 0
M  V30 18 N -2.052884 -0.625783 -0.624713 0
M  V30 19 C -3.214416 -1.092170 0.172760 0 CFG=1
M  V30 20 C -2.328895 -0.729224 -2.061260 0
M  V30 21 C -2.750349 -1.728833 1.485511 0
M  V30 22 C -4.363829 -0.087109 0.429596 0
M  V30 23 C -3.403856 0.188802 -2.654676 0
M  V30 24 O -2.704672 -2.929614 1.717201 0
M  V30 25 O -2.372866 -0.860151 2.445956 0
M  V30 26 N -4.793301 0.775380 -0.686927 0
M  V30 27 C -4.778968 0.118126 -1.989635 0
M  V30 END ATOM
M  V30 BEGIN BOND
M  V30 1 2 1 2
M  V30 2 1 2 3
M  V30 3 1 2 4
M  V30 4 1 3 5
M  V30 5 1 3 6
M  V30 6 1 4 7
M  V30 7 2 5 8
M  V30 8 1 5 9
M  V30 9 1 6 10
M  V30 10 2 7 11
M  V30 11 1 8 12
M  V30 12 1 8 13
M  V30 13 2 9 14
M  V30 14 1 12 15
M  V30 15 2 13 16
M  V30 16 1 13 17
M  V30 17 1 17 18
M  V30 18 1 18 19
M  V30 19 1 18 20
M  V30 20 1 19 21 CFG=1
M  V30 21 1 19 22
M  V30 22 1 20 23
M  V30 23 2 21 24
M  V30 24 1 21 25
M  V30 25 1 22 26
M  V30 26 1 23 27
M  V30 27 1 7 10
M  V30 28 1 14 16
M  V30 29 1 26 27
M  V30 END BOND
M  V30 BEGIN COLLECTION
M  V30 MDLV30/STERAC1 ATOMS=(1 19)
M  V30 END COLLECTION
M  V30 END CTAB
M  END
>  <ID>  (6) 
EDEL-CRBN-0003_ent

>  <Stereoisomer>  (6) 
enantiomer

$$$$
EDEL-CRBN-0004
     RDKit          3D

  0  0  0  0  0  0  0  0  0  0999 V3000
M  V30 BEGIN CTAB
M  V30 COUNTS 29 31 0 0 0
M  V30 BEGIN ATOM
M  V30 1 O 1.859671 2.632785 0.988760 0
M  V30 2 C 2.821369 2.286746 0.308414 0
M  V30 3 N 3.081958 1.007370 -0.170877 0
M  V30 4 N 3.815870 3.202591 0.047999 0
M  V30 5 C 2.132243 -0.051502 -0.039021 0
M  V30 6 C 4.272371 0.787574 -0.976949 0
M  V30 7 C 5.143850 2.883416 -0.046033 0
M  V30 8 C 0.790354 0.122506 -0.448083 0
M  V30 9 C 2.527509 -1.286207 0.524632 0
M  V30 10 C 5.466349 1.438141 -0.315618 0
M  V30 11 O 6.018978 3.721919 0.157290 0
M  V30 12 O 0.402884 1.285696 -1.073542 0
M  V30 13 C -0.169770 -0.880671 -0.236121 0
M  V30 14 O 3.838622 -1.395964 0.925395 0
M  V30 15 C 1.584432 -2.307151 0.675739 0
M  V30 16 C 0.609130 1.186519 -2.481951 0
M  V30 17 C 0.252076 -2.100776 0.311395 0
M  V30 18 C -1.635440 -0.695932 -0.589613 0
M  V30 19 C 4.169215 -2.486237 1.776687 0
M  V30 20 N -2.511623 -0.872619 0.584682 0
M  V30 21 C -3.894345 -1.293804 0.240207 0 CFG=2
M  V30 22 C -2.451079 0.303920 1.476738 0
M  V30 23 C -3.929316 -2.734523 -0.301136 0
M  V30 24 C -4.695063 -0.354181 -0.707220 0
M  V30 25 C -3.745688 1.090328 1.723126 0
M  V30 26 O -3.005255 -3.519296 -0.449304 0
M  V30 27 O -5.186993 -3.149045 -0.585881 0
M  V30 28 N -4.285446 1.053490 -0.771933 0
M  V30 29 C -4.326966 1.781496 0.489955 0
M  V30 END ATOM
M  V30 BEGIN BOND
M  V30 1 2 1 2
M  V30 2 1 2 3
M  V30 3 1 2 4
M  V30 4 1 3 5
M  V30 5 1 3 6
M  V30 6 1 4 7
M  V30 7 2 5 8
M  V30 8 1 5 9
M  V30 9 1 6 10
M  V30 10 2 7 11
M  V30 11 1 8 12
M  V30 12 1 8 13
M  V30 13 1 9 14
M  V30 14 2 9 15
M  V30 15 1 12 16
M  V30 16 2 13 17
M  V30 17 1 13 18
M  V30 18 1 14 19
M  V30 19 1 18 20
M  V30 20 1 20 21
M  V30 21 1 20 22
M  V30 22 1 21 23 CFG=3
M  V30 23 1 21 24
M  V30 24 1 22 25
M  V30 25 2 23 26
M  V30 26 1 23 27
M  V30 27 1 24 28
M  V30 28 1 25 29
M  V30 29 1 7 10
M  V30 30 1 15 17
M  V30 31 1 28 29
M  V30 END BOND
M  V30 BEGIN COLLECTION
M  V30 MDLV30/STERAC1 ATOMS=(1 21)
M  V30 END COLLECTION
M  V30 END CTAB
M  END
>  <ID>  (7) 
EDEL-CRBN-0004

>  <Stereoisomer>  (7) 
original

$$$$
EDEL-CRBN-0004_ent
     RDKit          3D

  0  0  0  0  0  0  0  0  0  0999 V3000
M  V30 BEGIN CTAB
M  V30 COUNTS 29 31 0 0 0
M  V30 BEGIN ATOM
M  V30 1 O 2.947188 0.839819 2.530013 0
M  V30 2 C 3.562097 0.758466 1.470274 0
M  V30 3 N 3.188561 0.013454 0.354155 0
M  V30 4 N 4.758387 1.427562 1.342779 0
M  V30 5 C 1.944927 -0.694881 0.344549 0
M  V30 6 C 4.205515 -0.299933 -0.636303 0
M  V30 7 C 5.460992 1.644974 0.188986 0
M  V30 8 C 0.729510 -0.015270 0.585549 0
M  V30 9 C 1.884894 -2.078033 0.096301 0
M  V30 10 C 4.936608 0.962419 -1.041506 0
M  V30 11 O 6.421049 2.410429 0.156119 0
M  V30 12 O 0.706892 1.346438 0.790336 0
M  V30 13 C -0.503808 -0.700556 0.628843 0
M  V30 14 O 3.021661 -2.815786 -0.133826 0
M  V30 15 C 0.665207 -2.759400 0.091305 0
M  V30 16 C 0.807859 2.050586 -0.447201 0
M  V30 17 C -0.516074 -2.080300 0.381248 0
M  V30 18 C -1.798933 0.022354 0.938843 0
M  V30 19 C 3.460518 -3.419770 1.086620 0
M  V30 20 N -2.337465 0.793435 -0.194206 0
M  V30 21 C -3.129911 0.043753 -1.201221 0 CFG=1
M  V30 22 C -2.963727 2.047839 0.222952 0
M  V30 23 C -2.220513 -0.827431 -2.076791 0
M  V30 24 C -4.298216 -0.825952 -0.661159 0
M  V30 25 C -4.482404 2.104191 0.412637 0
M  V30 26 O -2.298298 -2.036354 -2.241524 0
M  V30 27 O -1.277599 -0.123823 -2.743529 0
M  V30 28 N -5.455631 -0.125451 -0.086802 0
M  V30 29 C -5.132073 0.838778 0.960944 0
M  V30 END ATOM
M  V30 BEGIN BOND
M  V30 1 2 1 2
M  V30 2 1 2 3
M  V30 3 1 2 4
M  V30 4 1 3 5
M  V30 5 1 3 6
M  V30 6 1 4 7
M  V30 7 2 5 8
M  V30 8 1 5 9
M  V30 9 1 6 10
M  V30 10 2 7 11
M  V30 11 1 8 12
M  V30 12 1 8 13
M  V30 13 1 9 14
M  V30 14 2 9 15
M  V30 15 1 12 16
M  V30 16 2 13 17
M  V30 17 1 13 18
M  V30 18 1 14 19
M  V30 19 1 18 20
M  V30 20 1 20 21
M  V30 21 1 20 22
M  V30 22 1 21 23 CFG=1
M  V30 23 1 21 24
M  V30 24 1 22 25
M  V30 25 2 23 26
M  V30 26 1 23 27
M  V30 27 1 24 28
M  V30 28 1 25 29
M  V30 29 1 7 10
M  V30 30 1 15 17
M  V30 31 1 28 29
M  V30 END BOND
M  V30 BEGIN COLLECTION
M  V30 MDLV30/STERAC1 ATOMS=(1 21)
M  V30 END COLLECTION
M  V30 END CTAB
M  END
>  <ID>  (8) 
EDEL-CRBN-0004_ent

>  <Stereoisomer>  (8) 
enantiomer

$$$$
EDEL-CRBN-0005
     RDKit          3D

  0  0  0  0  0  0  0  0  0  0999 V3000
M  V30 BEGIN CTAB
M  V30 COUNTS 30 34 0 0 0
M  V30 BEGIN ATOM
M  V30 1 O 2.029237 -2.414965 -2.860897 0
M  V30 2 C 1.103373 -2.454600 -2.055093 0
M  V30 3 N -0.174511 -2.340350 -2.515433 0
M  V30 4 C 1.264750 -2.711847 -0.564591 0 CFG=2
M  V30 5 C -1.358751 -2.491696 -1.717255 0
M  V30 6 C 0.734098 -1.605630 0.358972 0 CFG=2
M  V30 7 C 2.735906 -2.780738 -0.159196 0
M  V30 8 C -1.559952 -1.311342 -0.807971 0
M  V30 9 C -0.597398 -0.908012 0.132169 0
M  V30 10 C 1.939019 -0.646614 0.491394 0
M  V30 11 N 3.119669 -1.383432 0.035812 0
M  V30 12 C -2.783448 -0.605698 -0.908245 0
M  V30 13 C -0.917949 0.185737 0.957210 0
M  V30 14 C 4.310552 -1.218448 0.866372 0
M  V30 15 C -3.089553 0.499772 -0.104862 0
M  V30 16 C -2.130285 0.877512 0.837209 0
M  V30 17 C 4.831645 0.203488 0.888244 0
M  V30 18 N -4.341330 1.197859 -0.227244 0
M  V30 19 C 5.114355 0.877900 -0.309482 0
M  V30 20 C 5.069778 0.858926 2.104942 0
M  V30 21 C -5.048496 1.253281 -1.435191 0
M  V30 22 C -4.785967 2.073783 0.853953 0
M  V30 23 C 5.610864 2.181870 -0.291232 0
M  V30 24 C 5.567930 2.163457 2.121588 0
M  V30 25 O -4.741489 0.714864 -2.495697 0
M  V30 26 N -6.203151 2.000339 -1.405866 0
M  V30 27 C -6.290421 2.015297 1.016585 0
M  V30 28 C 5.837251 2.824304 0.924265 0
M  V30 29 C -6.940454 2.310200 -0.298530 0
M  V30 30 O -8.092284 2.725604 -0.386351 0
M  V30 END ATOM
M  V30 BEGIN BOND
M  V30 1 2 1 2
M  V30 2 1 2 3
M  V30 3 1 4 2
M  V30 4 1 3 5
M  V30 5 1 4 6
M  V30 6 1 4 7 CFG=3
M  V30 7 1 5 8
M  V30 8 1 6 9
M  V30 9 1 6 10 CFG=3
M  V30 10 1 7 11
M  V30 11 2 8 12
M  V30 12 2 9 13
M  V30 13 1 11 14
M  V30 14 1 12 15
M  V30 15 1 13 16
M  V30 16 1 14 17
M  V30 17 1 15 18
M  V30 18 2 17 19
M  V30 19 1 17 20
M  V30 20 1 18 21
M  V30 21 1 18 22
M  V30 22 1 19 23
M  V30 23 2 20 24
M  V30 24 2 21 25
M  V30 25 1 21 26
M  V30 26 1 22 27
M  V30 27 2 23 28
M  V30 28 1 26 29
M  V30 29 2 29 30
M  V30 30 1 8 9
M  V30 31 1 10 11
M  V30 32 2 15 16
M  V30 33 1 24 28
M  V30 34 1 27 29
M  V30 END BOND
M  V30 BEGIN COLLECTION
M  V30 MDLV30/STERAC1 ATOMS=(2 4 6)
M  V30 END COLLECTION
M  V30 END CTAB
M  END
>  <ID>  (9) 
EDEL-CRBN-0005

>  <Stereoisomer>  (9) 
original

$$$$
EDEL-CRBN-0005_ent
     RDKit          3D

  0  0  0  0  0  0  0  0  0  0999 V3000
M  V30 BEGIN CTAB
M  V30 COUNTS 30 34 0 0 0
M  V30 BEGIN ATOM
M  V30 1 O 0.144458 -4.495319 -0.779781 0
M  V30 2 C 0.022773 -3.447580 -1.418614 0
M  V30 3 N -1.166871 -3.220265 -2.042022 0
M  V30 4 C 1.195383 -2.500503 -1.628976 0 CFG=1
M  V30 5 C -1.598339 -1.977969 -2.633733 0
M  V30 6 C 0.988288 -0.991477 -1.832239 0 CFG=1
M  V30 7 C 2.196188 -2.598154 -0.461675 0
M  V30 8 C -1.519267 -0.869742 -1.617132 0
M  V30 9 C -0.259522 -0.421659 -1.172227 0
M  V30 10 C 2.351129 -0.443802 -1.379859 0
M  V30 11 N 2.632784 -1.223156 -0.175776 0
M  V30 12 C -2.699479 -0.342091 -1.059377 0
M  V30 13 C -0.227020 0.547016 -0.165510 0
M  V30 14 C 4.022048 -1.149388 0.275317 0
M  V30 15 C -2.669765 0.639653 -0.061399 0
M  V30 16 C -1.410222 1.066747 0.378355 0
M  V30 17 C 4.398950 0.230050 0.771580 0
M  V30 18 N -3.881122 1.164248 0.507326 0
M  V30 19 C 5.383861 0.983918 0.118122 0
M  V30 20 C 3.763265 0.775437 1.897565 0
M  V30 21 C -5.071652 1.242783 -0.224589 0
M  V30 22 C -3.833294 1.846175 1.797882 0
M  V30 23 C 5.725068 2.255759 0.582318 0
M  V30 24 C 4.105522 2.046606 2.360009 0
M  V30 25 O -5.248832 0.877914 -1.384375 0
M  V30 26 N -6.136529 1.799604 0.444650 0
M  V30 27 C -5.076505 1.554409 2.611733 0
M  V30 28 C 5.086646 2.786026 1.702360 0
M  V30 29 C -6.287524 1.891186 1.799394 0
M  V30 30 O -7.372466 2.154961 2.309807 0
M  V30 END ATOM
M  V30 BEGIN BOND
M  V30 1 2 1 2
M  V30 2 1 2 3
M  V30 3 1 4 2
M  V30 4 1 3 5
M  V30 5 1 4 6
M  V30 6 1 4 7 CFG=1
M  V30 7 1 5 8
M  V30 8 1 6 9
M  V30 9 1 6 10 CFG=1
M  V30 10 1 7 11
M  V30 11 2 8 12
M  V30 12 2 9 13
M  V30 13 1 11 14
M  V30 14 1 12 15
M  V30 15 1 13 16
M  V30 16 1 14 17
M  V30 17 1 15 18
M  V30 18 2 17 19
M  V30 19 1 17 20
M  V30 20 1 18 21
M  V30 21 1 18 22
M  V30 22 1 19 23
M  V30 23 2 20 24
M  V30 24 2 21 25
M  V30 25 1 21 26
M  V30 26 1 22 27
M  V30 27 2 23 28
M  V30 28 1 26 29
M  V30 29 2 29 30
M  V30 30 1 8 9
M  V30 31 1 10 11
M  V30 32 2 15 16
M  V30 33 1 24 28
M  V30 34 1 27 29
M  V30 END BOND
M  V30 BEGIN COLLECTION
M  V30 MDLV30/STERAC1 ATOMS=(2 4 6)
M  V30 END COLLECTION
M  V30 END CTAB
M  END
>  <ID>  (10) 
EDEL-CRBN-0005_ent

>  <Stereoisomer>  (10) 
enantiomer

$$$$
EDEL-CRBN-0006
     RDKit          3D

  0  0  0  0  0  0  0  0  0  0999 V3000
M  V30 BEGIN CTAB
M  V30 COUNTS 32 36 0 0 0
M  V30 BEGIN ATOM
M  V30 1 O -1.598115 3.216156 1.751781 0
M  V30 2 C -1.270589 2.431403 0.859956 0
M  V30 3 N -0.364383 2.838937 -0.065836 0
M  V30 4 C -1.910250 1.063491 0.758426 0 CFG=2
M  V30 5 C 0.282084 2.006483 -1.045034 0
M  V30 6 C -1.033083 -0.182547 0.548761 0 CFG=2
M  V30 7 C -2.960837 1.009560 -0.348643 0
M  V30 8 C 1.090495 0.935228 -0.366972 0
M  V30 9 C 0.469510 -0.062419 0.403101 0
M  V30 10 C -1.670236 -0.894719 -0.659665 0
M  V30 11 N -3.054716 -0.403742 -0.763175 0
M  V30 12 C 2.495175 0.947599 -0.499149 0
M  V30 13 C 1.282881 -1.017694 1.030998 0
M  V30 14 C -3.966956 -1.185942 0.091581 0
M  V30 15 C 3.315937 -0.007679 0.120119 0
M  V30 16 C 2.679027 -0.971952 0.917854 0
M  V30 17 C -5.424212 -0.827042 -0.111223 0
M  V30 18 N 4.735543 0.018851 -0.102146 0
M  V30 19 O 3.386623 -1.904123 1.638804 0
M  V30 20 C -6.012184 -0.925156 -1.381406 0
M  V30 21 C -6.214749 -0.410087 0.969554 0
M  V30 22 C 5.439711 1.219934 -0.200930 0
M  V30 23 C 5.498986 -1.223441 -0.044248 0
M  V30 24 C 3.604591 -1.421857 2.968132 0
M  V30 25 C -7.358295 -0.607667 -1.567751 0
M  V30 26 C -7.561402 -0.092749 0.781196 0
M  V30 27 O 4.966023 2.350559 -0.116884 0
M  V30 28 N 6.792533 1.091347 -0.405977 0
M  V30 29 C 6.593289 -1.229451 -1.091543 0
M  V30 30 C -8.132353 -0.191770 -0.486378 0
M  V30 31 C 7.426857 0.006289 -0.942850 0
M  V30 32 O 8.582309 0.075783 -1.352330 0
M  V30 END ATOM
M  V30 BEGIN BOND
M  V30 1 2 1 2
M  V30 2 1 2 3
M  V30 3 1 4 2
M  V30 4 1 3 5
M  V30 5 1 4 6
M  V30 6 1 4 7 CFG=3
M  V30 7 1 5 8
M  V30 8 1 6 9
M  V30 9 1 6 10 CFG=3
M  V30 10 1 7 11
M  V30 11 2 8 12
M  V30 12 2 9 13
M  V30 13 1 11 14
M  V30 14 1 12 15
M  V30 15 1 13 16
M  V30 16 1 14 17
M  V30 17 1 15 18
M  V30 18 1 16 19
M  V30 19 2 17 20
M  V30 20 1 17 21
M  V30 21 1 18 22
M  V30 22 1 18 23
M  V30 23 1 19 24
M  V30 24 1 20 25
M  V30 25 2 21 26
M  V30 26 2 22 27
M  V30 27 1 22 28
M  V30 28 1 23 29
M  V30 29 2 25 30
M  V30 30 1 28 31
M  V30 31 2 31 32
M  V30 32 1 8 9
M  V30 33 1 10 11
M  V30 34 2 15 16
M  V30 35 1 26 30
M  V30 36 1 29 31
M  V30 END BOND
M  V30 BEGIN COLLECTION
M  V30 MDLV30/STERAC1 ATOMS=(2 4 6)
M  V30 END COLLECTION
M  V30 END CTAB
M  END
>  <ID>  (11) 
EDEL-CRBN-0006

>  <Stereoisomer>  (11) 
original

$$$$
EDEL-CRBN-0006_ent
     RDKit          3D

  0  0  0  0  0  0  0  0  0  0999 V3000
M  V30 BEGIN CTAB
M  V30 COUNTS 32 36 0 0 0
M  V30 BEGIN ATOM
M  V30 1 O -0.219032 4.412814 0.839618 0
M  V30 2 C -0.220888 3.644146 -0.119187 0
M  V30 3 N 0.858580 3.631715 -0.954926 0
M  V30 4 C -1.394323 2.753414 -0.487310 0 CFG=1
M  V30 5 C 1.085590 2.626873 -1.957475 0
M  V30 6 C -1.152356 1.221567 -0.580759 0 CFG=1
M  V30 7 C -2.533068 2.915203 0.528453 0
M  V30 8 C 1.309527 1.298454 -1.287784 0
M  V30 9 C 0.261535 0.650064 -0.602392 0
M  V30 10 C -2.086717 0.659447 0.509359 0
M  V30 11 N -3.201847 1.610939 0.512955 0
M  V30 12 C 2.597982 0.727356 -1.319602 0
M  V30 13 C 0.542025 -0.595872 -0.009863 0
M  V30 14 C -4.092134 1.445453 1.668163 0
M  V30 15 C 2.866742 -0.513856 -0.728091 0
M  V30 16 C 1.818710 -1.175900 -0.072230 0
M  V30 17 C -4.867513 0.145661 1.631844 0
M  V30 18 N 4.183529 -1.065452 -0.787247 0
M  V30 19 O 2.099845 -2.314971 0.644734 0
M  V30 20 C -4.719102 -0.804751 2.652233 0
M  V30 21 C -5.752745 -0.125144 0.577588 0
M  V30 22 C 4.391904 -2.387822 -1.180574 0
M  V30 23 C 5.335768 -0.181088 -0.714989 0
M  V30 24 C 1.193678 -3.384715 0.375638 0
M  V30 25 C -5.439640 -2.000186 2.616661 0
M  V30 26 C -6.471668 -1.320718 0.543348 0
M  V30 27 O 3.540602 -3.166994 -1.602702 0
M  V30 28 N 5.701135 -2.809823 -1.122498 0
M  V30 29 C 6.444742 -0.832529 0.082994 0
M  V30 30 C -6.315135 -2.257495 1.563051 0
M  V30 31 C 6.746760 -2.178799 -0.506252 0
M  V30 32 O 7.845261 -2.715847 -0.392248 0
M  V30 END ATOM
M  V30 BEGIN BOND
M  V30 1 2 1 2
M  V30 2 1 2 3
M  V30 3 1 4 2
M  V30 4 1 3 5
M  V30 5 1 4 6
M  V30 6 1 4 7 CFG=1
M  V30 7 1 5 8
M  V30 8 1 6 9
M  V30 9 1 6 10 CFG=1
M  V30 10 1 7 11
M  V30 11 2 8 12
M  V30 12 2 9 13
M  V30 13 1 11 14
M  V30 14 1 12 15
M  V30 15 1 13 16
M  V30 16 1 14 17
M  V30 17 1 15 18
M  V30 18 1 16 19
M  V30 19 2 17 20
M  V30 20 1 17 21
M  V30 21 1 18 22
M  V30 22 1 18 23
M  V30 23 1 19 24
M  V30 24 1 20 25
M  V30 25 2 21 26
M  V30 26 2 22 27
M  V30 27 1 22 28
M  V30 28 1 23 29
M  V30 29 2 25 30
M  V30 30 1 28 31
M  V30 31 2 31 32
M  V30 32 1 8 9
M  V30 33 1 10 11
M  V30 34 2 15 16
M  V30 35 1 26 30
M  V30 36 1 29 31
M  V30 END BOND
M  V30 BEGIN COLLECTION
M  V30 MDLV30/STERAC1 ATOMS=(2 4 6)
M  V30 END COLLECTION
M  V30 END CTAB
M  END
>  <ID>  (12) 
EDEL-CRBN-0006_ent

>  <Stereoisomer>  (12) 
enantiomer

$$$$
EDEL-CRBN-0007
     RDKit          3D

  0  0  0  0  0  0  0  0  0  0999 V3000
M  V30 BEGIN CTAB
M  V30 COUNTS 32 36 0 0 0
M  V30 BEGIN ATOM
M  V30 1 O 1.586816 -3.091445 0.083380 0
M  V30 2 C 1.113389 -2.157953 0.726753 0
M  V30 3 N -0.051100 -2.352903 1.410972 0
M  V30 4 C 1.783149 -0.804883 0.879316 0 CFG=2
M  V30 5 C -0.836350 -1.290506 1.982490 0
M  V30 6 C 0.995500 0.454303 0.425180 0 CFG=2
M  V30 7 C 3.100597 -0.760017 0.093541 0
M  V30 8 C -1.380609 -0.416330 0.883303 0
M  V30 9 C -0.498509 0.383930 0.121087 0
M  V30 10 C 1.881424 1.019483 -0.703281 0
M  V30 11 N 3.233882 0.653228 -0.278899 0
M  V30 12 C -2.765851 -0.418759 0.586451 0
M  V30 13 C -1.058281 1.203085 -0.873038 0
M  V30 14 C 4.218478 0.869689 -1.344817 0
M  V30 15 O -3.561394 -1.322044 1.259418 0
M  V30 16 C -3.322532 0.441962 -0.380838 0
M  V30 17 C -2.436265 1.230169 -1.118137 0
M  V30 18 C 5.639383 0.617741 -0.889413 0
M  V30 19 C -3.743410 -2.495545 0.457524 0
M  V30 20 N -4.735951 0.577314 -0.595400 0
M  V30 21 C 6.388487 -0.436948 -1.430241 0
M  V30 22 C 6.227955 1.436504 0.086019 0
M  V30 23 C -5.271492 0.770742 -1.868705 0
M  V30 24 C -5.657768 0.388379 0.519971 0
M  V30 25 C 7.699696 -0.663497 -1.007478 0
M  V30 26 C 7.538761 1.208694 0.507296 0
M  V30 27 O -4.642606 0.807242 -2.923271 0
M  V30 28 N -6.636472 0.925098 -1.911106 0
M  V30 29 C -6.773307 1.411650 0.465846 0
M  V30 30 C 8.274460 0.159607 -0.040537 0
M  V30 31 C -7.425826 1.358979 -0.882714 0
M  V30 32 O -8.570847 1.757717 -1.076648 0
M  V30 END ATOM
M  V30 BEGIN BOND
M  V30 1 2 1 2
M  V30 2 1 2 3
M  V30 3 1 4 2
M  V30 4 1 3 5
M  V30 5 1 4 6
M  V30 6 1 4 7 CFG=3
M  V30 7 1 5 8
M  V30 8 1 6 9
M  V30 9 1 6 10 CFG=3
M  V30 10 1 7 11
M  V30 11 2 8 12
M  V30 12 2 9 13
M  V30 13 1 11 14
M  V30 14 1 12 15
M  V30 15 1 12 16
M  V30 16 1 13 17
M  V30 17 1 14 18
M  V30 18 1 15 19
M  V30 19 1 16 20
M  V30 20 2 18 21
M  V30 21 1 18 22
M  V30 22 1 20 23
M  V30 23 1 20 24
M  V30 24 1 21 25
M  V30 25 2 22 26
M  V30 26 2 23 27
M  V30 27 1 23 28
M  V30 28 1 24 29
M  V30 29 2 25 30
M  V30 30 1 28 31
M  V30 31 2 31 32
M  V30 32 1 8 9
M  V30 33 1 10 11
M  V30 34 2 16 17
M  V30 35 1 26 30
M  V30 36 1 29 31
M  V30 END BOND
M  V30 BEGIN COLLECTION
M  V30 MDLV30/STERAC1 ATOMS=(2 4 6)
M  V30 END COLLECTION
M  V30 END CTAB
M  END
>  <ID>  (13) 
EDEL-CRBN-0007

>  <Stereoisomer>  (13) 
original

$$$$
EDEL-CRBN-0007_ent
     RDKit          3D

  0  0  0  0  0  0  0  0  0  0999 V3000
M  V30 BEGIN CTAB
M  V30 COUNTS 32 36 0 0 0
M  V30 BEGIN ATOM
M  V30 1 O 1.441254 -1.215600 -3.660698 0
M  V30 2 C 1.178930 -0.986048 -2.478954 0
M  V30 3 N 0.334543 -1.830548 -1.832442 0
M  V30 4 C 1.835337 0.158023 -1.737895 0 CFG=1
M  V30 5 C -0.241042 -1.625202 -0.530147 0
M  V30 6 C 0.990717 1.089192 -0.846177 0 CFG=1
M  V30 7 C 2.971889 -0.334857 -0.843890 0
M  V30 8 C -1.096166 -0.387967 -0.514543 0
M  V30 9 C -0.501622 0.878819 -0.679126 0
M  V30 10 C 1.723895 1.088957 0.507953 0
M  V30 11 N 3.100577 0.729715 0.159186 0
M  V30 12 C -2.499684 -0.478904 -0.356604 0
M  V30 13 C -1.324780 2.015121 -0.642649 0
M  V30 14 C 3.881557 0.329547 1.333741 0
M  V30 15 O -3.058384 -1.739552 -0.333495 0
M  V30 16 C -3.317741 0.667600 -0.258623 0
M  V30 17 C -2.702632 1.910991 -0.432333 0
M  V30 18 C 5.341501 0.085684 1.019447 0
M  V30 19 C -3.515949 -2.086214 -1.646737 0
M  V30 20 N -4.718505 0.609304 0.054183 0
M  V30 21 C 5.923243 -1.169656 1.247557 0
M  V30 22 C 6.139479 1.117812 0.503114 0
M  V30 23 C -5.638982 1.482440 -0.525899 0
M  V30 24 C -5.226242 -0.465559 0.900352 0
M  V30 25 C 7.272832 -1.387001 0.962807 0
M  V30 26 C 7.487932 0.898620 0.218544 0
M  V30 27 O -5.393443 2.344931 -1.365241 0
M  V30 28 N -6.936793 1.331150 -0.099484 0
M  V30 29 C -6.269028 0.063759 1.863047 0
M  V30 30 C 8.054159 -0.353485 0.449005 0
M  V30 31 C -7.330990 0.786926 1.090968 0
M  V30 32 O -8.464648 0.957028 1.530875 0
M  V30 END ATOM
M  V30 BEGIN BOND
M  V30 1 2 1 2
M  V30 2 1 2 3
M  V30 3 1 4 2
M  V30 4 1 3 5
M  V30 5 1 4 6
M  V30 6 1 4 7 CFG=1
M  V30 7 1 5 8
M  V30 8 1 6 9
M  V30 9 1 6 10 CFG=1
M  V30 10 1 7 11
M  V30 11 2 8 12
M  V30 12 2 9 13
M  V30 13 1 11 14
M  V30 14 1 12 15
M  V30 15 1 12 16
M  V30 16 1 13 17
M  V30 17 1 14 18
M  V30 18 1 15 19
M  V30 19 1 16 20
M  V30 20 2 18 21
M  V30 21 1 18 22
M  V30 22 1 20 23
M  V30 23 1 20 24
M  V30 24 1 21 25
M  V30 25 2 22 26
M  V30 26 2 23 27
M  V30 27 1 23 28
M  V30 28 1 24 29
M  V30 29 2 25 30
M  V30 30 1 28 31
M  V30 31 2 31 32
M  V30 32 1 8 9
M  V30 33 1 10 11
M  V30 34 2 16 17
M  V30 35 1 26 30
M  V30 36 1 29 31
M  V30 END BOND
M  V30 BEGIN COLLECTION
M  V30 MDLV30/STERAC1 ATOMS=(2 4 6)
M  V30 END COLLECTION
M  V30 END CTAB
M  END
>  <ID>  (14) 
EDEL-CRBN-0007_ent

>  <Stereoisomer>  (14) 
enantiomer

$$$$
EDEL-CRBN-0008
     RDKit          3D

  0  0  0  0  0  0  0  0  0  0999 V3000
M  V30 BEGIN CTAB
M  V30 COUNTS 32 36 0 0 0
M  V30 BEGIN ATOM
M  V30 1 Cl -5.988991 3.726618 3.142494 0
M  V30 2 C -5.950102 2.164494 2.417408 0
M  V30 3 C -5.276808 1.954810 1.213830 0
M  V30 4 C -6.606879 1.105627 3.044445 0
M  V30 5 F -4.661718 2.981400 0.604577 0
M  V30 6 C -5.248876 0.687297 0.619206 0
M  V30 7 C -6.589548 -0.162717 2.462935 0
M  V30 8 C -5.914999 -0.371478 1.257493 0
M  V30 9 C -4.501039 0.467553 -0.674797 0
M  V30 10 N -3.049041 0.309218 -0.492871 0
M  V30 11 C -2.323947 0.420696 -1.768723 0
M  V30 12 C -2.709777 -0.912528 0.259362 0
M  V30 13 C -1.981110 -0.932060 -2.386850 0
M  V30 14 C -1.257817 -1.328830 0.034634 0
M  V30 15 C -1.071844 -1.724238 -1.437552 0
M  V30 16 O -1.344722 -3.158266 -1.598998 0
M  V30 17 C 0.391240 -1.963143 -1.946411 0 CFG=2
M  V30 18 C 0.077023 -3.436144 -1.642835 0
M  V30 19 C 1.608016 -1.207949 -1.262102 0
M  V30 20 C 1.839144 0.154777 -1.517504 0
M  V30 21 C 2.522235 -1.820487 -0.390903 0
M  V30 22 C 2.902468 0.862817 -0.936408 0
M  V30 23 C 3.589432 -1.117712 0.194061 0
M  V30 24 C 3.800573 0.242043 -0.064847 0
M  V30 25 N 4.900754 0.958325 0.521208 0
M  V30 26 C 4.848182 2.336988 0.761786 0
M  V30 27 C 6.021811 0.216579 1.091897 0
M  V30 28 O 3.919138 3.096858 0.501892 0
M  V30 29 N 5.965135 2.871312 1.361279 0
M  V30 30 C 7.331052 0.936495 0.845360 0
M  V30 31 C 7.223869 2.340939 1.350666 0
M  V30 32 O 8.207564 3.006949 1.660259 0
M  V30 END ATOM
M  V30 BEGIN BOND
M  V30 1 1 1 2
M  V30 2 2 2 3
M  V30 3 1 2 4
M  V30 4 1 3 5
M  V30 5 1 3 6
M  V30 6 2 4 7
M  V30 7 2 6 8
M  V30 8 1 6 9
M  V30 9 1 9 10
M  V30 10 1 10 11
M  V30 11 1 10 12
M  V30 12 1 11 13
M  V30 13 1 12 14
M  V30 14 1 13 15
M  V30 15 1 15 16
M  V30 16 1 15 17
M  V30 17 1 16 18
M  V30 18 1 17 19 CFG=1
M  V30 19 2 19 20
M  V30 20 1 19 21
M  V30 21 1 20 22
M  V30 22 2 21 23
M  V30 23 2 22 24
M  V30 24 1 24 25
M  V30 25 1 25 26
M  V30 26 1 25 27
M  V30 27 2 26 28
M  V30 28 1 26 29
M  V30 29 1 27 30
M  V30 30 1 29 31
M  V30 31 2 31 32
M  V30 32 1 7 8
M  V30 33 1 14 15
M  V30 34 1 17 18
M  V30 35 1 23 24
M  V30 36 1 30 31
M  V30 END BOND
M  V30 BEGIN COLLECTION
M  V30 MDLV30/STERAC1 ATOMS=(1 17)
M  V30 END COLLECTION
M  V30 END CTAB
M  END
>  <ID>  (15) 
EDEL-CRBN-0008

>  <Stereoisomer>  (15) 
original

$$$$
EDEL-CRBN-0008_ent
     RDKit          3D

  0  0  0  0  0  0  0  0  0  0999 V3000
M  V30 BEGIN CTAB
M  V30 COUNTS 32 36 0 0 0
M  V30 BEGIN ATOM
M  V30 1 Cl -5.293139 4.475282 -1.263822 0
M  V30 2 C -5.443781 2.983700 -0.415311 0
M  V30 3 C -4.873641 1.815788 -0.922062 0
M  V30 4 C -6.150625 2.951519 0.786617 0
M  V30 5 F -4.213422 1.848062 -2.091208 0
M  V30 6 C -4.997382 0.600387 -0.236587 0
M  V30 7 C -6.287801 1.747151 1.477837 0
M  V30 8 C -5.716050 0.578087 0.969308 0
M  V30 9 C -4.364131 -0.653697 -0.790971 0
M  V30 10 N -2.905412 -0.684813 -0.615339 0
M  V30 11 C -2.289547 -1.589237 -1.601423 0
M  V30 12 C -2.475792 -0.950491 0.765701 0
M  V30 13 C -0.840236 -1.895632 -1.236590 0
M  V30 14 C -2.004735 -2.385748 0.987605 0
M  V30 15 C -0.806231 -2.687581 0.078917 0
M  V30 16 O -0.777401 -4.126015 -0.213405 0
M  V30 17 C 0.574518 -2.825085 0.806918 0 CFG=1
M  V30 18 C 0.645877 -4.165704 0.060521 0
M  V30 19 C 1.682262 -1.701890 0.631421 0
M  V30 20 C 1.616200 -0.513246 1.379412 0
M  V30 21 C 2.774882 -1.802734 -0.244107 0
M  V30 22 C 2.569145 0.509361 1.258894 0
M  V30 23 C 3.731038 -0.781081 -0.372726 0
M  V30 24 C 3.648045 0.396950 0.379054 0
M  V30 25 N 4.615194 1.449652 0.237507 0
M  V30 26 C 4.929089 2.316909 1.290548 0
M  V30 27 C 5.460075 1.496167 -0.952500 0
M  V30 28 O 4.446873 2.309188 2.420257 0
M  V30 29 N 5.890765 3.259121 1.008168 0
M  V30 30 C 5.707638 2.925681 -1.386289 0
M  V30 31 C 6.257936 3.701910 -0.231055 0
M  V30 32 O 6.931199 4.717718 -0.379206 0
M  V30 END ATOM
M  V30 BEGIN BOND
M  V30 1 1 1 2
M  V30 2 2 2 3
M  V30 3 1 2 4
M  V30 4 1 3 5
M  V30 5 1 3 6
M  V30 6 2 4 7
M  V30 7 2 6 8
M  V30 8 1 6 9
M  V30 9 1 9 10
M  V30 10 1 10 11
M  V30 11 1 10 12
M  V30 12 1 11 13
M  V30 13 1 12 14
M  V30 14 1 13 15
M  V30 15 1 15 16
M  V30 16 1 15 17
M  V30 17 1 16 18
M  V30 18 1 17 19 CFG=3
M  V30 19 2 19 20
M  V30 20 1 19 21
M  V30 21 1 20 22
M  V30 22 2 21 23
M  V30 23 2 22 24
M  V30 24 1 24 25
M  V30 25 1 25 26
M  V30 26 1 25 27
M  V30 27 2 26 28
M  V30 28 1 26 29
M  V30 29 1 27 30
M  V30 30 1 29 31
M  V30 31 2 31 32
M  V30 32 1 7 8
M  V30 33 1 14 15
M  V30 34 1 17 18
M  V30 35 1 23 24
M  V30 36 1 30 31
M  V30 END BOND
M  V30 BEGIN COLLECTION
M  V30 MDLV30/STERAC1 ATOMS=(1 17)
M  V30 END COLLECTION
M  V30 END CTAB
M  END
>  <ID>  (16) 
EDEL-CRBN-0008_ent

>  <Stereoisomer>  (16) 
enantiomer

$$$$
EDEL-CRBN-0009
     RDKit          3D

  0  0  0  0  0  0  0  0  0  0999 V3000
M  V30 BEGIN CTAB
M  V30 COUNTS 34 38 0 0 0
M  V30 BEGIN ATOM
M  V30 1 O 0.874357 4.617085 -1.189029 0
M  V30 2 C -0.261374 4.950488 -0.860831 0
M  V30 3 N -1.143963 4.237841 -0.040426 0
M  V30 4 N -0.738772 6.151774 -1.331286 0
M  V30 5 C -0.786770 2.978375 0.556999 0
M  V30 6 C -2.372957 4.908811 0.373659 0
M  V30 7 C -2.051945 6.503114 -1.465527 0
M  V30 8 C 0.129234 2.117164 -0.069775 0
M  V30 9 C -1.369692 2.561137 1.782426 0
M  V30 10 C -3.038277 5.594333 -0.801382 0
M  V30 11 O -2.396359 7.457323 -2.157006 0
M  V30 12 C 0.428473 0.903404 0.526208 0
M  V30 13 C -1.067364 1.326784 2.376136 0
M  V30 14 C -0.166315 0.509900 1.732596 0
M  V30 15 C 1.328802 -0.219946 0.064639 0 CFG=1
M  V30 16 C 0.337159 -0.874458 2.068718 0 CFG=2
M  V30 17 N 1.602166 -0.871169 1.344907 0
M  V30 18 C 0.487765 -1.211821 -0.806165 0
M  V30 19 C -0.597150 -1.931007 1.386363 0
M  V30 20 C 2.518474 -1.869653 1.525849 0
M  V30 21 N -0.303824 -2.205167 -0.042045 0
M  V30 22 O 2.502302 -2.632518 2.483156 0
M  V30 23 O 3.430298 -1.895341 0.520978 0
M  V30 24 C -1.309418 -2.951586 -0.784171 0
M  V30 25 C 4.478103 -2.896306 0.492158 0
M  V30 26 C -2.569334 -2.187421 -1.132943 0
M  V30 27 C 5.270480 -2.590032 -0.788093 0
M  V30 28 C 5.418212 -2.757413 1.694205 0
M  V30 29 C 3.893765 -4.308708 0.378222 0
M  V30 30 C -3.676479 -2.200115 -0.271016 0
M  V30 31 C -2.661675 -1.462917 -2.330778 0
M  V30 32 C -4.838654 -1.495639 -0.591455 0
M  V30 33 C -3.823767 -0.758052 -2.650761 0
M  V30 34 C -4.911112 -0.773286 -1.780265 0
M  V30 END ATOM
M  V30 BEGIN BOND
M  V30 1 2 1 2
M  V30 2 1 2 3
M  V30 3 1 2 4
M  V30 4 1 3 5
M  V30 5 1 3 6
M  V30 6 1 4 7
M  V30 7 2 5 8
M  V30 8 1 5 9
M  V30 9 1 6 10
M  V30 10 2 7 11
M  V30 11 1 8 12
M  V30 12 2 9 13
M  V30 13 2 12 14
M  V30 14 1 12 15
M  V30 15 1 14 16
M  V30 16 1 15 17
M  V30 17 1 15 18 CFG=3
M  V30 18 1 16 19 CFG=3
M  V30 19 1 17 20
M  V30 20 1 18 21
M  V30 21 2 20 22
M  V30 22 1 20 23
M  V30 23 1 21 24
M  V30 24 1 23 25
M  V30 25 1 24 26
M  V30 26 1 25 27
M  V30 27 1 25 28
M  V30 28 1 25 29
M  V30 29 2 26 30
M  V30 30 1 26 31
M  V30 31 1 30 32
M  V30 32 2 31 33
M  V30 33 2 32 34
M  V30 34 1 7 10
M  V30 35 1 13 14
M  V30 36 1 16 17
M  V30 37 1 19 21
M  V30 38 1 33 34
M  V30 END BOND
M  V30 BEGIN COLLECTION
M  V30 MDLV30/STERAC1 ATOMS=(2 15 16)
M  V30 END COLLECTION
M  V30 END CTAB
M  END
>  <ID>  (17) 
EDEL-CRBN-0009

>  <Stereoisomer>  (17) 
original

$$$$
EDEL-CRBN-0009_ent
     RDKit          3D

  0  0  0  0  0  0  0  0  0  0999 V3000
M  V30 BEGIN CTAB
M  V30 COUNTS 34 38 0 0 0
M  V30 BEGIN ATOM
M  V30 1 O 0.007789 4.092930 2.614205 0
M  V30 2 C -0.429071 4.899447 1.797029 0
M  V30 3 N -0.774750 4.645039 0.464342 0
M  V30 4 N -0.615861 6.197166 2.213779 0
M  V30 5 C -0.671549 3.331664 -0.115340 0
M  V30 6 C -1.461144 5.703822 -0.270425 0
M  V30 7 C -0.675782 7.304739 1.416470 0
M  V30 8 C 0.291022 2.416086 0.342017 0
M  V30 9 C -1.530806 2.932956 -1.174221 0
M  V30 10 C -0.785464 7.041407 -0.052599 0
M  V30 11 O -0.564052 8.437205 1.877219 0
M  V30 12 C 0.367708 1.169612 -0.254479 0
M  V30 13 C -1.451142 1.666132 -1.772073 0
M  V30 14 C -0.492733 0.798146 -1.303831 0
M  V30 15 C 1.263217 -0.010521 0.047900 0 CFG=2
M  V30 16 C -0.162257 -0.625767 -1.691177 0 CFG=1
M  V30 17 N 1.225515 -0.692408 -1.245052 0
M  V30 18 C 0.568723 -0.971003 1.071834 0
M  V30 19 C -0.963304 -1.633564 -0.798948 0
M  V30 20 C 2.053650 -1.710931 -1.621561 0
M  V30 21 N -0.812592 -1.391673 0.673807 0
M  V30 22 O 1.798882 -2.482286 -2.536428 0
M  V30 23 O 3.167038 -1.757610 -0.848120 0
M  V30 24 C -1.284855 -2.517328 1.485659 0
M  V30 25 C 4.180810 -2.772695 -1.059666 0
M  V30 26 C -2.771221 -2.768795 1.350262 0
M  V30 27 C 5.250890 -2.478298 0.002768 0
M  V30 28 C 3.619707 -4.177231 -0.811653 0
M  V30 29 C 4.819812 -2.644699 -2.446514 0
M  V30 30 C -3.694354 -1.767844 1.689694 0
M  V30 31 C -3.250009 -4.005753 0.895937 0
M  V30 32 C -5.065736 -1.998025 1.574209 0
M  V30 33 C -4.622668 -4.234363 0.781357 0
M  V30 34 C -5.529343 -3.231374 1.120606 0
M  V30 END ATOM
M  V30 BEGIN BOND
M  V30 1 2 1 2
M  V30 2 1 2 3
M  V30 3 1 2 4
M  V30 4 1 3 5
M  V30 5 1 3 6
M  V30 6 1 4 7
M  V30 7 2 5 8
M  V30 8 1 5 9
M  V30 9 1 6 10
M  V30 10 2 7 11
M  V30 11 1 8 12
M  V30 12 2 9 13
M  V30 13 2 12 14
M  V30 14 1 12 15
M  V30 15 1 14 16
M  V30 16 1 15 17
M  V30 17 1 15 18 CFG=1
M  V30 18 1 16 19 CFG=1
M  V30 19 1 17 20
M  V30 20 1 18 21
M  V30 21 2 20 22
M  V30 22 1 20 23
M  V30 23 1 21 24
M  V30 24 1 23 25
M  V30 25 1 24 26
M  V30 26 1 25 27
M  V30 27 1 25 28
M  V30 28 1 25 29
M  V30 29 2 26 30
M  V30 30 1 26 31
M  V30 31 1 30 32
M  V30 32 2 31 33
M  V30 33 2 32 34
M  V30 34 1 7 10
M  V30 35 1 13 14
M  V30 36 1 16 17
M  V30 37 1 19 21
M  V30 38 1 33 34
M  V30 END BOND
M  V30 BEGIN COLLECTION
M  V30 MDLV30/STERAC1 ATOMS=(2 15 16)
M  V30 END COLLECTION
M  V30 END CTAB
M  END
>  <ID>  (18) 
EDEL-CRBN-0009_ent

>  <Stereoisomer>  (18) 
enantiomer

$$$$
EDEL-CRBN-0010
     RDKit          3D

  0  0  0  0  0  0  0  0  0  0999 V3000
M  V30 BEGIN CTAB
M  V30 COUNTS 34 38 0 0 0
M  V30 BEGIN ATOM
M  V30 1 O 1.987872 -3.081645 -1.866289 0
M  V30 2 C 1.652260 -1.964962 -1.468590 0
M  V30 3 N 0.919068 -1.179280 -2.298755 0
M  V30 4 C 2.103242 -1.445205 -0.121353 0 CFG=2
M  V30 5 C 0.274337 0.058816 -1.950270 0
M  V30 6 C 1.095219 -0.753465 0.817312 0 CFG=2
M  V30 7 C 3.265163 -0.463269 -0.260026 0
M  V30 8 C -0.755165 -0.164168 -0.877298 0
M  V30 9 C -0.355364 -0.565846 0.414172 0
M  V30 10 C 1.767206 0.583935 1.179619 0
M  V30 11 N 3.194241 0.322035 0.978778 0
M  V30 12 C -2.128694 0.011850 -1.147596 0
M  V30 13 C -1.339633 -0.738883 1.406855 0
M  V30 14 C 3.981017 1.558330 0.927937 0
M  V30 15 O -2.504619 0.364404 -2.426856 0
M  V30 16 C -3.107847 -0.144465 -0.145742 0
M  V30 17 C -2.698131 -0.540692 1.134500 0
M  V30 18 C 5.471855 1.309012 0.858716 0
M  V30 19 C -2.932882 -0.796401 -3.147732 0
M  V30 20 N -4.476433 0.134147 -0.439754 0
M  V30 21 O -3.620603 -0.573722 2.152219 0
M  V30 22 C 6.125687 0.618359 1.890294 0
M  V30 23 C 6.225435 1.770847 -0.229934 0
M  V30 24 C -5.489242 -0.743975 -0.072646 0
M  V30 25 C -4.823082 1.516676 -0.738490 0
M  V30 26 C -3.604316 -1.811006 2.865707 0
M  V30 27 C 7.501540 0.392279 1.833073 0
M  V30 28 C 7.602122 1.544224 -0.285223 0
M  V30 29 O -5.336776 -1.915997 0.264262 0
M  V30 30 N -6.762657 -0.243880 -0.210418 0
M  V30 31 C -6.010191 1.559501 -1.674130 0
M  V30 32 C 8.239238 0.855756 0.745651 0
M  V30 33 C -7.126837 0.737410 -1.092079 0
M  V30 34 O -8.294646 0.875330 -1.448041 0
M  V30 END ATOM
M  V30 BEGIN BOND
M  V30 1 2 1 2
M  V30 2 1 2 3
M  V30 3 1 4 2
M  V30 4 1 3 5
M  V30 5 1 4 6
M  V30 6 1 4 7 CFG=3
M  V30 7 1 5 8
M  V30 8 1 6 9
M  V30 9 1 6 10 CFG=3
M  V30 10 1 7 11
M  V30 11 2 8 12
M  V30 12 2 9 13
M  V30 13 1 11 14
M  V30 14 1 12 15
M  V30 15 1 12 16
M  V30 16 1 13 17
M  V30 17 1 14 18
M  V30 18 1 15 19
M  V30 19 1 16 20
M  V30 20 1 17 21
M  V30 21 2 18 22
M  V30 22 1 18 23
M  V30 23 1 20 24
M  V30 24 1 20 25
M  V30 25 1 21 26
M  V30 26 1 22 27
M  V30 27 2 23 28
M  V30 28 2 24 29
M  V30 29 1 24 30
M  V30 30 1 25 31
M  V30 31 2 27 32
M  V30 32 1 30 33
M  V30 33 2 33 34
M  V30 34 1 8 9
M  V30 35 1 10 11
M  V30 36 2 16 17
M  V30 37 1 28 32
M  V30 38 1 31 33
M  V30 END BOND
M  V30 BEGIN COLLECTION
M  V30 MDLV30/STERAC1 ATOMS=(2 4 6)
M  V30 END COLLECTION
M  V30 END CTAB
M  END
>  <ID>  (19) 
EDEL-CRBN-0010

>  <Stereoisomer>  (19) 
original

$$$$
EDEL-CRBN-0010_ent
     RDKit          3D

  0  0  0  0  0  0  0  0  0  0999 V3000
M  V30 BEGIN CTAB
M  V30 COUNTS 34 38 0 0 0
M  V30 BEGIN ATOM
M  V30 1 O 1.718934 -1.544884 -3.478772 0
M  V30 2 C 1.185502 -0.466933 -3.208573 0
M  V30 3 N -0.061946 -0.237978 -3.703307 0
M  V30 4 C 1.934128 0.630763 -2.469523 0 CFG=1
M  V30 5 C -0.952490 0.835551 -3.333785 0
M  V30 6 C 1.200492 1.692381 -1.637974 0 CFG=1
M  V30 7 C 2.970350 0.034009 -1.498220 0
M  V30 8 C -1.170956 0.841055 -1.842605 0
M  V30 9 C -0.097993 1.212169 -0.997515 0
M  V30 10 C 2.335153 2.156217 -0.710056 0
M  V30 11 N 2.962931 0.901678 -0.306696 0
M  V30 12 C -2.390692 0.421711 -1.277782 0
M  V30 13 C -0.288083 1.158056 0.391813 0
M  V30 14 C 4.281198 1.086636 0.300665 0
M  V30 15 O -3.402553 0.028122 -2.126844 0
M  V30 16 C -2.587093 0.408552 0.116633 0
M  V30 17 C -1.511162 0.756081 0.946618 0
M  V30 18 C 4.834157 -0.183434 0.910388 0
M  V30 19 C -3.449265 -1.400966 -2.204048 0
M  V30 20 N -3.868439 0.075280 0.650031 0
M  V30 21 O -1.714400 0.848033 2.303418 0
M  V30 22 C 4.112803 -0.873405 1.896911 0
M  V30 23 C 6.083870 -0.681073 0.514862 0
M  V30 24 C -4.007734 -0.831054 1.694260 0
M  V30 25 C -4.960416 0.998249 0.373254 0
M  V30 26 C -0.750676 0.100772 3.048190 0
M  V30 27 C 4.626356 -2.037785 2.469427 0
M  V30 28 C 6.596820 -1.845748 1.089525 0
M  V30 29 O -3.153411 -1.628276 2.074664 0
M  V30 30 N -5.262782 -0.874566 2.254711 0
M  V30 31 C -6.272960 0.248390 0.336879 0
M  V30 32 C 5.868475 -2.523146 2.065855 0
M  V30 33 C -6.421339 -0.547730 1.603925 0
M  V30 34 O -7.511438 -0.959376 1.993682 0
M  V30 END ATOM
M  V30 BEGIN BOND
M  V30 1 2 1 2
M  V30 2 1 2 3
M  V30 3 1 4 2
M  V30 4 1 3 5
M  V30 5 1 4 6
M  V30 6 1 4 7 CFG=1
M  V30 7 1 5 8
M  V30 8 1 6 9
M  V30 9 1 6 10 CFG=1
M  V30 10 1 7 11
M  V30 11 2 8 12
M  V30 12 2 9 13
M  V30 13 1 11 14
M  V30 14 1 12 15
M  V30 15 1 12 16
M  V30 16 1 13 17
M  V30 17 1 14 18
M  V30 18 1 15 19
M  V30 19 1 16 20
M  V30 20 1 17 21
M  V30 21 2 18 22
M  V30 22 1 18 23
M  V30 23 1 20 24
M  V30 24 1 20 25
M  V30 25 1 21 26
M  V30 26 1 22 27
M  V30 27 2 23 28
M  V30 28 2 24 29
M  V30 29 1 24 30
M  V30 30 1 25 31
M  V30 31 2 27 32
M  V30 32 1 30 33
M  V30 33 2 33 34
M  V30 34 1 8 9
M  V30 35 1 10 11
M  V30 36 2 16 17
M  V30 37 1 28 32
M  V30 38 1 31 33
M  V30 END BOND
M  V30 BEGIN COLLECTION
M  V30 MDLV30/STERAC1 ATOMS=(2 4 6)
M  V30 END COLLECTION
M  V30 END CTAB
M  END
>  <ID>  (20) 
EDEL-CRBN-0010_ent

>  <Stereoisomer>  (20) 
enantiomer

$$$$
EDEL-CRBN-0011
     RDKit          3D

  0  0  0  0  0  0  0  0  0  0999 V3000
M  V30 BEGIN CTAB
M  V30 COUNTS 34 38 0 0 0
M  V30 BEGIN ATOM
M  V30 1 Cl 8.196085 -0.248585 2.061816 0
M  V30 2 C 7.087380 -1.200670 1.150514 0
M  V30 3 C 5.779555 -1.391600 1.597262 0
M  V30 4 C 7.509394 -1.785658 -0.042152 0
M  V30 5 F 5.380751 -0.832030 2.751341 0
M  V30 6 C 4.869237 -2.161484 0.861282 0
M  V30 7 C 6.620154 -2.564853 -0.782331 0
M  V30 8 C 5.310415 -2.753966 -0.332569 0
M  V30 9 C 3.454312 -2.352425 1.356680 0
M  V30 10 N 2.447300 -1.415541 0.848747 0
M  V30 11 C 2.637785 -0.030248 1.291369 0
M  V30 12 C 2.082094 -1.567312 -0.559014 0
M  V30 13 C 1.601636 0.880789 0.637629 0
M  V30 14 C 2.489559 -0.371505 -1.415487 0
M  V30 15 C 1.828808 0.907479 -0.882547 0
M  V30 16 O 2.667581 2.060081 -1.235461 0
M  V30 17 C 0.681118 1.495504 -1.775088 0 CFG=2
M  V30 18 C 1.496358 2.794069 -1.672306 0
M  V30 19 C -0.829156 1.411400 -1.293046 0
M  V30 20 C -1.547942 0.206532 -1.399800 0
M  V30 21 C -1.542627 2.495564 -0.756490 0
M  V30 22 C -2.886492 0.088905 -0.992299 0
M  V30 23 C -2.873040 2.378627 -0.321597 0
M  V30 24 O -3.493066 -1.124363 -1.215392 0
M  V30 25 C -3.568228 1.167166 -0.407385 0
M  V30 26 C -4.055816 -1.147383 -2.530223 0
M  V30 27 N -4.900527 1.066656 0.117713 0
M  V30 28 C -5.815161 2.113485 0.001466 0
M  V30 29 C -5.375810 -0.210799 0.638429 0
M  V30 30 O -5.619552 3.192881 -0.551918 0
M  V30 31 N -7.048481 1.878933 0.560849 0
M  V30 32 C -6.237155 -0.001081 1.866542 0
M  V30 33 C -7.330246 0.971072 1.543040 0
M  V30 34 O -8.384727 1.011340 2.170890 0
M  V30 END ATOM
M  V30 BEGIN BOND
M  V30 1 1 1 2
M  V30 2 2 2 3
M  V30 3 1 2 4
M  V30 4 1 3 5
M  V30 5 1 3 6
M  V30 6 2 4 7
M  V30 7 2 6 8
M  V30 8 1 6 9
M  V30 9 1 9 10
M  V30 10 1 10 11
M  V30 11 1 10 12
M  V30 12 1 11 13
M  V30 13 1 12 14
M  V30 14 1 13 15
M  V30 15 1 15 16
M  V30 16 1 15 17
M  V30 17 1 16 18
M  V30 18 1 17 19 CFG=1
M  V30 19 2 19 20
M  V30 20 1 19 21
M  V30 21 1 20 22
M  V30 22 2 21 23
M  V30 23 1 22 24
M  V30 24 2 22 25
M  V30 25 1 24 26
M  V30 26 1 25 27
M  V30 27 1 27 28
M  V30 28 1 27 29
M  V30 29 2 28 30
M  V30 30 1 28 31
M  V30 31 1 29 32
M  V30 32 1 31 33
M  V30 33 2 33 34
M  V30 34 1 7 8
M  V30 35 1 14 15
M  V30 36 1 17 18
M  V30 37 1 23 25
M  V30 38 1 32 33
M  V30 END BOND
M  V30 BEGIN COLLECTION
M  V30 MDLV30/STERAC1 ATOMS=(1 17)
M  V30 END COLLECTION
M  V30 END CTAB
M  END
>  <ID>  (21) 
EDEL-CRBN-0011

>  <Stereoisomer>  (21) 
original

$$$$
EDEL-CRBN-0011_ent
     RDKit          3D

  0  0  0  0  0  0  0  0  0  0999 V3000
M  V30 BEGIN CTAB
M  V30 COUNTS 34 38 0 0 0
M  V30 BEGIN ATOM
M  V30 1 Cl 0.306829 -1.191988 3.969845 0
M  V30 2 C 1.356663 -0.589340 2.744297 0
M  V30 3 C 2.203570 -1.452359 2.047329 0
M  V30 4 C 1.352878 0.771704 2.450533 0
M  V30 5 F 2.205847 -2.761650 2.344816 0
M  V30 6 C 3.053567 -0.975388 1.041643 0
M  V30 7 C 2.206967 1.267851 1.466581 0
M  V30 8 C 3.055341 0.402937 0.771931 0
M  V30 9 C 3.947483 -1.918731 0.269477 0
M  V30 10 N 3.405136 -2.464989 -0.979187 0
M  V30 11 C 2.300448 -3.416173 -0.827172 0
M  V30 12 C 3.242159 -1.497994 -2.064850 0
M  V30 13 C 0.952445 -2.813149 -1.212803 0
M  V30 14 C 2.399358 -2.079098 -3.197544 0
M  V30 15 C 0.980199 -2.339686 -2.675979 0
M  V30 16 O 0.319324 -3.330693 -3.531408 0
M  V30 17 C -0.085988 -1.277244 -3.109670 0 CFG=1
M  V30 18 C -0.870563 -2.504274 -3.596729 0
M  V30 19 C -0.687813 -0.257691 -2.049041 0
M  V30 20 C -1.765431 -0.555430 -1.198638 0
M  V30 21 C -0.139783 1.029700 -1.901317 0
M  V30 22 C -2.258968 0.368198 -0.261040 0
M  V30 23 C -0.646537 1.968203 -0.988705 0
M  V30 24 O -3.267839 -0.078227 0.559813 0
M  V30 25 C -1.733954 1.666874 -0.162235 0
M  V30 26 C -2.705544 -0.680494 1.729592 0
M  V30 27 N -2.281118 2.676189 0.700619 0
M  V30 28 C -1.472205 3.608878 1.349523 0
M  V30 29 C -3.701088 2.642867 1.037758 0
M  V30 30 O -0.246118 3.673905 1.294465 0
M  V30 31 N -2.140185 4.523204 2.128116 0
M  V30 32 C -4.275651 4.043907 1.074989 0
M  V30 33 C -3.448668 4.893576 1.990455 0
M  V30 34 O -3.885632 5.910616 2.521725 0
M  V30 END ATOM
M  V30 BEGIN BOND
M  V30 1 1 1 2
M  V30 2 2 2 3
M  V30 3 1 2 4
M  V30 4 1 3 5
M  V30 5 1 3 6
M  V30 6 2 4 7
M  V30 7 2 6 8
M  V30 8 1 6 9
M  V30 9 1 9 10
M  V30 10 1 10 11
M  V30 11 1 10 12
M  V30 12 1 11 13
M  V30 13 1 12 14
M  V30 14 1 13 15
M  V30 15 1 15 16
M  V30 16 1 15 17
M  V30 17 1 16 18
M  V30 18 1 17 19 CFG=1
M  V30 19 2 19 20
M  V30 20 1 19 21
M  V30 21 1 20 22
M  V30 22 2 21 23
M  V30 23 1 22 24
M  V30 24 2 22 25
M  V30 25 1 24 26
M  V30 26 1 25 27
M  V30 27 1 27 28
M  V30 28 1 27 29
M  V30 29 2 28 30
M  V30 30 1 28 31
M  V30 31 1 29 32
M  V30 32 1 31 33
M  V30 33 2 33 34
M  V30 34 1 7 8
M  V30 35 1 14 15
M  V30 36 1 17 18
M  V30 37 1 23 25
M  V30 38 1 32 33
M  V30 END BOND
M  V30 BEGIN COLLECTION
M  V30 MDLV30/STERAC1 ATOMS=(1 17)
M  V30 END COLLECTION
M  V30 END CTAB
M  END
>  <ID>  (22) 
EDEL-CRBN-0011_ent

>  <Stereoisomer>  (22) 
enantiomer

$$$$
EDEL-CRBN-0012
     RDKit          3D

  0  0  0  0  0  0  0  0  0  0999 V3000
M  V30 BEGIN CTAB
M  V30 COUNTS 34 38 0 0 0
M  V30 BEGIN ATOM
M  V30 1 Cl 8.196085 -0.248585 2.061816 0
M  V30 2 C 7.087380 -1.200670 1.150514 0
M  V30 3 C 5.779555 -1.391600 1.597262 0
M  V30 4 C 7.509394 -1.785658 -0.042152 0
M  V30 5 F 5.380751 -0.832030 2.751341 0
M  V30 6 C 4.869237 -2.161484 0.861282 0
M  V30 7 C 6.620154 -2.564853 -0.782331 0
M  V30 8 C 5.310415 -2.753966 -0.332569 0
M  V30 9 C 3.454312 -2.352425 1.356680 0
M  V30 10 N 2.447300 -1.415541 0.848747 0
M  V30 11 C 2.637785 -0.030248 1.291369 0
M  V30 12 C 2.082094 -1.567312 -0.559014 0
M  V30 13 C 1.601636 0.880789 0.637629 0
M  V30 14 C 2.489559 -0.371505 -1.415487 0
M  V30 15 C 1.828808 0.907479 -0.882547 0
M  V30 16 O 2.667581 2.060081 -1.235461 0
M  V30 17 C 0.681118 1.495504 -1.775088 0 CFG=2
M  V30 18 C 1.496358 2.794069 -1.672306 0
M  V30 19 C -0.829156 1.411400 -1.293046 0
M  V30 20 C -1.547942 0.206532 -1.399800 0
M  V30 21 C -1.542627 2.495564 -0.756490 0
M  V30 22 C -2.886492 0.088905 -0.992299 0
M  V30 23 C -2.873040 2.378627 -0.321597 0
M  V30 24 O -3.493066 -1.124363 -1.215392 0
M  V30 25 C -3.568228 1.167166 -0.407385 0
M  V30 26 C -4.055816 -1.147383 -2.530223 0
M  V30 27 N -4.900527 1.066656 0.117713 0
M  V30 28 C -5.815161 2.113485 0.001466 0
M  V30 29 C -5.375810 -0.210799 0.638429 0
M  V30 30 O -5.619552 3.192881 -0.551918 0
M  V30 31 N -7.048481 1.878933 0.560849 0
M  V30 32 C -6.237155 -0.001081 1.866542 0
M  V30 33 C -7.330246 0.971072 1.543040 0
M  V30 34 O -8.384727 1.011340 2.170890 0
M  V30 END ATOM
M  V30 BEGIN BOND
M  V30 1 1 1 2
M  V30 2 2 2 3
M  V30 3 1 2 4
M  V30 4 1 3 5
M  V30 5 1 3 6
M  V30 6 2 4 7
M  V30 7 2 6 8
M  V30 8 1 6 9
M  V30 9 1 9 10
M  V30 10 1 10 11
M  V30 11 1 10 12
M  V30 12 1 11 13
M  V30 13 1 12 14
M  V30 14 1 13 15
M  V30 15 1 15 16
M  V30 16 1 15 17
M  V30 17 1 16 18
M  V30 18 1 17 19 CFG=1
M  V30 19 2 19 20
M  V30 20 1 19 21
M  V30 21 1 20 22
M  V30 22 2 21 23
M  V30 23 1 22 24
M  V30 24 2 22 25
M  V30 25 1 24 26
M  V30 26 1 25 27
M  V30 27 1 27 28
M  V30 28 1 27 29
M  V30 29 2 28 30
M  V30 30 1 28 31
M  V30 31 1 29 32
M  V30 32 1 31 33
M  V30 33 2 33 34
M  V30 34 1 7 8
M  V30 35 1 14 15
M  V30 36 1 17 18
M  V30 37 1 23 25
M  V30 38 1 32 33
M  V30 END BOND
M  V30 BEGIN COLLECTION
M  V30 MDLV30/STERAC1 ATOMS=(1 17)
M  V30 END COLLECTION
M  V30 END CTAB
M  END
>  <ID>  (23) 
EDEL-CRBN-0012

>  <Stereoisomer>  (23) 
original

$$$$
EDEL-CRBN-0012_ent
     RDKit          3D

  0  0  0  0  0  0  0  0  0  0999 V3000
M  V30 BEGIN CTAB
M  V30 COUNTS 34 38 0 0 0
M  V30 BEGIN ATOM
M  V30 1 Cl 0.306829 -1.191988 3.969845 0
M  V30 2 C 1.356663 -0.589340 2.744297 0
M  V30 3 C 2.203570 -1.452359 2.047329 0
M  V30 4 C 1.352878 0.771704 2.450533 0
M  V30 5 F 2.205847 -2.761650 2.344816 0
M  V30 6 C 3.053567 -0.975388 1.041643 0
M  V30 7 C 2.206967 1.267851 1.466581 0
M  V30 8 C 3.055341 0.402937 0.771931 0
M  V30 9 C 3.947483 -1.918731 0.269477 0
M  V30 10 N 3.405136 -2.464989 -0.979187 0
M  V30 11 C 2.300448 -3.416173 -0.827172 0
M  V30 12 C 3.242159 -1.497994 -2.064850 0
M  V30 13 C 0.952445 -2.813149 -1.212803 0
M  V30 14 C 2.399358 -2.079098 -3.197544 0
M  V30 15 C 0.980199 -2.339686 -2.675979 0
M  V30 16 O 0.319324 -3.330693 -3.531408 0
M  V30 17 C -0.085988 -1.277244 -3.109670 0 CFG=1
M  V30 18 C -0.870563 -2.504274 -3.596729 0
M  V30 19 C -0.687813 -0.257691 -2.049041 0
M  V30 20 C -1.765431 -0.555430 -1.198638 0
M  V30 21 C -0.139783 1.029700 -1.901317 0
M  V30 22 C -2.258968 0.368198 -0.261040 0
M  V30 23 C -0.646537 1.968203 -0.988705 0
M  V30 24 O -3.267839 -0.078227 0.559813 0
M  V30 25 C -1.733954 1.666874 -0.162235 0
M  V30 26 C -2.705544 -0.680494 1.729592 0
M  V30 27 N -2.281118 2.676189 0.700619 0
M  V30 28 C -1.472205 3.608878 1.349523 0
M  V30 29 C -3.701088 2.642867 1.037758 0
M  V30 30 O -0.246118 3.673905 1.294465 0
M  V30 31 N -2.140185 4.523204 2.128116 0
M  V30 32 C -4.275651 4.043907 1.074989 0
M  V30 33 C -3.448668 4.893576 1.990455 0
M  V30 34 O -3.885632 5.910616 2.521725 0
M  V30 END ATOM
M  V30 BEGIN BOND
M  V30 1 1 1 2
M  V30 2 2 2 3
M  V30 3 1 2 4
M  V30 4 1 3 5
M  V30 5 1 3 6
M  V30 6 2 4 7
M  V30 7 2 6 8
M  V30 8 1 6 9
M  V30 9 1 9 10
M  V30 10 1 10 11
M  V30 11 1 10 12
M  V30 12 1 11 13
M  V30 13 1 12 14
M  V30 14 1 13 15
M  V30 15 1 15 16
M  V30 16 1 15 17
M  V30 17 1 16 18
M  V30 18 1 17 19 CFG=1
M  V30 19 2 19 20
M  V30 20 1 19 21
M  V30 21 1 20 22
M  V30 22 2 21 23
M  V30 23 1 22 24
M  V30 24 2 22 25
M  V30 25 1 24 26
M  V30 26 1 25 27
M  V30 27 1 27 28
M  V30 28 1 27 29
M  V30 29 2 28 30
M  V30 30 1 28 31
M  V30 31 1 29 32
M  V30 32 1 31 33
M  V30 33 2 33 34
M  V30 34 1 7 8
M  V30 35 1 14 15
M  V30 36 1 17 18
M  V30 37 1 23 25
M  V30 38 1 32 33
M  V30 END BOND
M  V30 BEGIN COLLECTION
M  V30 MDLV30/STERAC1 ATOMS=(1 17)
M  V30 END COLLECTION
M  V30 END CTAB
M  END
>  <ID>  (24) 
EDEL-CRBN-0012_ent

>  <Stereoisomer>  (24) 
enantiomer

$$$$
EDEL-CRBN-0013
     RDKit          3D

  0  0  0  0  0  0  0  0  0  0999 V3000
M  V30 BEGIN CTAB
M  V30 COUNTS 36 40 0 0 0
M  V30 BEGIN ATOM
M  V30 1 O -3.765569 -2.863050 -2.504017 0
M  V30 2 C -4.596087 -2.613619 -1.633954 0
M  V30 3 N -4.329565 -2.156414 -0.342779 0
M  V30 4 N -5.926006 -2.799424 -1.926874 0
M  V30 5 C -2.986984 -1.909430 0.108733 0
M  V30 6 C -5.435104 -2.091888 0.606859 0
M  V30 7 C -6.980440 -2.196509 -1.300298 0
M  V30 8 C -2.560939 -2.182742 1.440478 0
M  V30 9 C -2.056072 -1.342215 -0.780849 0
M  V30 10 C -6.655395 -1.464162 -0.034377 0
M  V30 11 O -8.103938 -2.189955 -1.795665 0
M  V30 12 O -3.383454 -2.821713 2.341431 0
M  V30 13 C -1.282112 -1.840415 1.906032 0
M  V30 14 C -0.784692 -1.039325 -0.322456 0
M  V30 15 C -3.150101 -4.232286 2.286045 0
M  V30 16 C -0.405956 -1.273854 1.007838 0
M  V30 17 C 0.388221 -0.400484 -1.032680 0 CFG=2
M  V30 18 C 1.013390 -0.784277 1.179480 0 CFG=1
M  V30 19 N 1.482242 -0.891392 -0.200165 0
M  V30 20 C 0.308150 1.154252 -0.842651 0
M  V30 21 C 0.975532 0.735618 1.557130 0
M  V30 22 C 2.783729 -0.719837 -0.587667 0
M  V30 23 N 0.965602 1.672781 0.397797 0
M  V30 24 O 3.118637 -0.476347 -1.739290 0
M  V30 25 O 3.635466 -0.857097 0.460990 0
M  V30 26 C 0.523101 3.016520 0.775467 0
M  V30 27 C 5.059409 -0.647151 0.290408 0
M  V30 28 C 0.846084 4.073319 -0.258860 0
M  V30 29 C 5.652847 -0.868896 1.690259 0
M  V30 30 C 5.359519 0.792266 -0.143771 0
M  V30 31 C 5.668001 -1.677046 -0.667079 0
M  V30 32 C -0.161659 4.903690 -0.769791 0
M  V30 33 C 2.164217 4.255930 -0.704942 0
M  V30 34 C 0.141797 5.887827 -1.712757 0
M  V30 35 C 2.465313 5.238612 -1.648697 0
M  V30 36 C 1.454071 6.054384 -2.151970 0
M  V30 END ATOM
M  V30 BEGIN BOND
M  V30 1 2 1 2
M  V30 2 1 2 3
M  V30 3 1 2 4
M  V30 4 1 3 5
M  V30 5 1 3 6
M  V30 6 1 4 7
M  V30 7 2 5 8
M  V30 8 1 5 9
M  V30 9 1 6 10
M  V30 10 2 7 11
M  V30 11 1 8 12
M  V30 12 1 8 13
M  V30 13 2 9 14
M  V30 14 1 12 15
M  V30 15 2 13 16
M  V30 16 1 14 17
M  V30 17 1 16 18
M  V30 18 1 17 19
M  V30 19 1 17 20 CFG=1
M  V30 20 1 18 21 CFG=3
M  V30 21 1 19 22
M  V30 22 1 20 23
M  V30 23 2 22 24
M  V30 24 1 22 25
M  V30 25 1 23 26
M  V30 26 1 25 27
M  V30 27 1 26 28
M  V30 28 1 27 29
M  V30 29 1 27 30
M  V30 30 1 27 31
M  V30 31 2 28 32
M  V30 32 1 28 33
M  V30 33 1 32 34
M  V30 34 2 33 35
M  V30 35 2 34 36
M  V30 36 1 7 10
M  V30 37 1 14 16
M  V30 38 1 18 19
M  V30 39 1 21 23
M  V30 40 1 35 36
M  V30 END BOND
M  V30 BEGIN COLLECTION
M  V30 MDLV30/STERAC1 ATOMS=(2 17 18)
M  V30 END COLLECTION
M  V30 END CTAB
M  END
>  <ID>  (25) 
EDEL-CRBN-0013

>  <Stereoisomer>  (25) 
original

$$$$
EDEL-CRBN-0013_ent
     RDKit          3D

  0  0  0  0  0  0  0  0  0  0999 V3000
M  V30 BEGIN CTAB
M  V30 COUNTS 36 40 0 0 0
M  V30 BEGIN ATOM
M  V30 1 O -4.930317 0.681385 -0.025809 0
M  V30 2 C -4.997906 -0.356903 0.628754 0
M  V30 3 N -3.959682 -1.261762 0.853348 0
M  V30 4 N -6.182084 -0.666769 1.258680 0
M  V30 5 C -2.693216 -1.091771 0.212855 0
M  V30 6 C -4.081188 -2.183392 1.971106 0
M  V30 7 C -6.510875 -1.846471 1.868542 0
M  V30 8 C -2.609566 -0.880935 -1.195010 0
M  V30 9 C -1.516906 -1.132878 0.983333 0
M  V30 10 C -5.424371 -2.879743 1.928302 0
M  V30 11 O -7.646661 -2.060816 2.283538 0
M  V30 12 O -3.763302 -1.011751 -1.935597 0
M  V30 13 C -1.373665 -0.695521 -1.831098 0
M  V30 14 C -0.309114 -0.927992 0.344571 0
M  V30 15 C -3.931156 0.013415 -2.913293 0
M  V30 16 C -0.240152 -0.709489 -1.045766 0
M  V30 17 C 1.096408 -0.831794 0.892242 0 CFG=1
M  V30 18 C 1.208565 -0.479617 -1.404453 0 CFG=2
M  V30 19 N 1.854967 -1.177958 -0.303096 0
M  V30 20 C 1.452767 0.654199 1.232137 0
M  V30 21 C 1.565861 1.036409 -1.249364 0
M  V30 22 C 3.185537 -1.487599 -0.331514 0
M  V30 23 N 1.352813 1.650804 0.110610 0
M  V30 24 O 3.861406 -1.456878 -1.350582 0
M  V30 25 O 3.642906 -1.823522 0.900781 0
M  V30 26 C 0.102784 2.427935 0.200155 0
M  V30 27 C 5.036334 -2.167835 1.108980 0
M  V30 28 C 0.054459 3.632131 -0.719132 0
M  V30 29 C 5.139522 -2.469883 2.611917 0
M  V30 30 C 5.955614 -0.985177 0.784463 0
M  V30 31 C 5.423375 -3.428782 0.328989 0
M  V30 32 C -1.078938 3.867949 -1.512088 0
M  V30 33 C 1.114712 4.549648 -0.764197 0
M  V30 34 C -1.140567 4.986510 -2.345022 0
M  V30 35 C 1.051786 5.666517 -1.598647 0
M  V30 36 C -0.074990 5.883800 -2.389426 0
M  V30 END ATOM
M  V30 BEGIN BOND
M  V30 1 2 1 2
M  V30 2 1 2 3
M  V30 3 1 2 4
M  V30 4 1 3 5
M  V30 5 1 3 6
M  V30 6 1 4 7
M  V30 7 2 5 8
M  V30 8 1 5 9
M  V30 9 1 6 10
M  V30 10 2 7 11
M  V30 11 1 8 12
M  V30 12 1 8 13
M  V30 13 2 9 14
M  V30 14 1 12 15
M  V30 15 2 13 16
M  V30 16 1 14 17
M  V30 17 1 16 18
M  V30 18 1 17 19
M  V30 19 1 17 20 CFG=3
M  V30 20 1 18 21 CFG=1
M  V30 21 1 19 22
M  V30 22 1 20 23
M  V30 23 2 22 24
M  V30 24 1 22 25
M  V30 25 1 23 26
M  V30 26 1 25 27
M  V30 27 1 26 28
M  V30 28 1 27 29
M  V30 29 1 27 30
M  V30 30 1 27 31
M  V30 31 2 28 32
M  V30 32 1 28 33
M  V30 33 1 32 34
M  V30 34 2 33 35
M  V30 35 2 34 36
M  V30 36 1 7 10
M  V30 37 1 14 16
M  V30 38 1 18 19
M  V30 39 1 21 23
M  V30 40 1 35 36
M  V30 END BOND
M  V30 BEGIN COLLECTION
M  V30 MDLV30/STERAC1 ATOMS=(2 17 18)
M  V30 END COLLECTION
M  V30 END CTAB
M  END
>  <ID>  (26) 
EDEL-CRBN-0013_ent

>  <Stereoisomer>  (26) 
enantiomer

$$$$
EDEL-CRBN-0014
     RDKit          3D

  0  0  0  0  0  0  0  0  0  0999 V3000
M  V30 BEGIN CTAB
M  V30 COUNTS 36 40 0 0 0
M  V30 BEGIN ATOM
M  V30 1 O -5.023338 -2.816173 -1.861688 0
M  V30 2 C -4.965346 -2.835443 -0.634778 0
M  V30 3 N -3.942721 -2.308268 0.152916 0
M  V30 4 N -5.987856 -3.436282 0.060220 0
M  V30 5 C -2.819466 -1.622754 -0.423898 0
M  V30 6 C -3.954834 -2.593387 1.583564 0
M  V30 7 C -6.326376 -3.194699 1.362415 0
M  V30 8 C -1.511572 -1.735585 0.096976 0
M  V30 9 C -3.031696 -0.756932 -1.528327 0
M  V30 10 C -5.342462 -2.388568 2.155061 0
M  V30 11 O -7.408753 -3.549958 1.820871 0
M  V30 12 O -1.178820 -2.605143 1.101176 0
M  V30 13 C -0.507128 -0.950175 -0.438649 0
M  V30 14 C -2.003847 0.018304 -2.083432 0
M  V30 15 C -0.871715 -3.887022 0.543039 0
M  V30 16 C -0.751576 -0.082257 -1.521197 0
M  V30 17 C 0.941944 -0.794156 -0.043165 0 CFG=1
M  V30 18 C 0.537429 0.644419 -1.832497 0 CFG=2
M  V30 19 N 1.501320 -0.316475 -1.306916 0
M  V30 20 C 1.097288 0.380881 0.979717 0
M  V30 21 C 0.662664 1.928664 -0.943930 0
M  V30 22 C 2.833762 -0.228762 -1.593752 0
M  V30 23 N 0.483924 1.669272 0.524162 0
M  V30 24 O 3.285678 0.476177 -2.485463 0
M  V30 25 O 3.572608 -1.004153 -0.761106 0
M  V30 26 C 0.924968 2.794826 1.354503 0
M  V30 27 C 5.017592 -1.053587 -0.874481 0
M  V30 28 C 0.105026 4.049674 1.145304 0
M  V30 29 C 5.458864 -2.027688 0.228688 0
M  V30 30 C 5.643366 0.317216 -0.594590 0
M  V30 31 C 5.453432 -1.619589 -2.230114 0
M  V30 32 C -1.280340 4.039500 1.368980 0
M  V30 33 C 0.716219 5.244044 0.738188 0
M  V30 34 C -2.037964 5.196722 1.184811 0
M  V30 35 C -0.043397 6.401209 0.555146 0
M  V30 36 C -1.419071 6.377214 0.778483 0
M  V30 END ATOM
M  V30 BEGIN BOND
M  V30 1 2 1 2
M  V30 2 1 2 3
M  V30 3 1 2 4
M  V30 4 1 3 5
M  V30 5 1 3 6
M  V30 6 1 4 7
M  V30 7 2 5 8
M  V30 8 1 5 9
M  V30 9 1 6 10
M  V30 10 2 7 11
M  V30 11 1 8 12
M  V30 12 1 8 13
M  V30 13 2 9 14
M  V30 14 1 12 15
M  V30 15 2 13 16
M  V30 16 1 13 17
M  V30 17 1 16 18
M  V30 18 1 17 19
M  V30 19 1 17 20 CFG=1
M  V30 20 1 18 21 CFG=1
M  V30 21 1 19 22
M  V30 22 1 20 23
M  V30 23 2 22 24
M  V30 24 1 22 25
M  V30 25 1 23 26
M  V30 26 1 25 27
M  V30 27 1 26 28
M  V30 28 1 27 29
M  V30 29 1 27 30
M  V30 30 1 27 31
M  V30 31 2 28 32
M  V30 32 1 28 33
M  V30 33 1 32 34
M  V30 34 2 33 35
M  V30 35 2 34 36
M  V30 36 1 7 10
M  V30 37 1 14 16
M  V30 38 1 18 19
M  V30 39 1 21 23
M  V30 40 1 35 36
M  V30 END BOND
M  V30 BEGIN COLLECTION
M  V30 MDLV30/STERAC1 ATOMS=(2 17 18)
M  V30 END COLLECTION
M  V30 END CTAB
M  END
>  <ID>  (27) 
EDEL-CRBN-0014

>  <Stereoisomer>  (27) 
original

$$$$
EDEL-CRBN-0014_ent
     RDKit          3D

  0  0  0  0  0  0  0  0  0  0999 V3000
M  V30 BEGIN CTAB
M  V30 COUNTS 36 40 0 0 0
M  V30 BEGIN ATOM
M  V30 1 O -4.505245 -0.030411 -0.693746 0
M  V30 2 C -4.843444 -1.058621 -0.115375 0
M  V30 3 N -4.054995 -1.838805 0.734249 0
M  V30 4 N -6.140978 -1.496199 -0.264207 0
M  V30 5 C -2.675694 -1.520799 0.949493 0
M  V30 6 C -4.732845 -2.748746 1.644636 0
M  V30 7 C -6.661759 -2.698859 0.126305 0
M  V30 8 C -1.803949 -1.260395 -0.128300 0
M  V30 9 C -2.161473 -1.480842 2.272147 0
M  V30 10 C -5.733591 -3.596475 0.889195 0
M  V30 11 O -7.797052 -3.043921 -0.189712 0
M  V30 12 O -2.174693 -1.365747 -1.439808 0
M  V30 13 C -0.498072 -0.904200 0.148007 0
M  V30 14 C -0.829885 -1.135857 2.542300 0
M  V30 15 C -2.131905 -2.726587 -1.865664 0
M  V30 16 C -0.014876 -0.842971 1.471160 0
M  V30 17 C 0.627130 -0.501936 -0.775337 0 CFG=2
M  V30 18 C 1.428300 -0.394423 1.412321 0 CFG=1
M  V30 19 N 1.774908 -0.839318 0.064569 0
M  V30 20 C 0.646998 1.053972 -0.952920 0
M  V30 21 C 1.515468 1.168787 1.396081 0
M  V30 22 C 3.041710 -0.906181 -0.441071 0
M  V30 23 N 0.668219 1.810872 0.345003 0
M  V30 24 O 3.289253 -0.956298 -1.637806 0
M  V30 25 O 3.970988 -0.898907 0.547815 0
M  V30 26 C 1.004815 3.227732 0.169998 0
M  V30 27 C 5.387401 -0.944763 0.239450 0
M  V30 28 C -0.006342 4.004096 -0.647324 0
M  V30 29 C 5.763092 -2.248197 -0.473316 0
M  V30 30 C 6.082373 -0.917046 1.609460 0
M  V30 31 C 5.823180 0.291989 -0.554074 0
M  V30 32 C -1.380186 3.904312 -0.377973 0
M  V30 33 C 0.419707 4.870295 -1.664876 0
M  V30 34 C -2.306422 4.635340 -1.122953 0
M  V30 35 C -0.508137 5.604831 -2.406434 0
M  V30 36 C -1.870203 5.485747 -2.136533 0
M  V30 END ATOM
M  V30 BEGIN BOND
M  V30 1 2 1 2
M  V30 2 1 2 3
M  V30 3 1 2 4
M  V30 4 1 3 5
M  V30 5 1 3 6
M  V30 6 1 4 7
M  V30 7 2 5 8
M  V30 8 1 5 9
M  V30 9 1 6 10
M  V30 10 2 7 11
M  V30 11 1 8 12
M  V30 12 1 8 13
M  V30 13 2 9 14
M  V30 14 1 12 15
M  V30 15 2 13 16
M  V30 16 1 13 17
M  V30 17 1 16 18
M  V30 18 1 17 19
M  V30 19 1 17 20 CFG=1
M  V30 20 1 18 21 CFG=3
M  V30 21 1 19 22
M  V30 22 1 20 23
M  V30 23 2 22 24
M  V30 24 1 22 25
M  V30 25 1 23 26
M  V30 26 1 25 27
M  V30 27 1 26 28
M  V30 28 1 27 29
M  V30 29 1 27 30
M  V30 30 1 27 31
M  V30 31 2 28 32
M  V30 32 1 28 33
M  V30 33 1 32 34
M  V30 34 2 33 35
M  V30 35 2 34 36
M  V30 36 1 7 10
M  V30 37 1 14 16
M  V30 38 1 18 19
M  V30 39 1 21 23
M  V30 40 1 35 36
M  V30 END BOND
M  V30 BEGIN COLLECTION
M  V30 MDLV30/STERAC1 ATOMS=(2 17 18)
M  V30 END COLLECTION
M  V30 END CTAB
M  END
>  <ID>  (28) 
EDEL-CRBN-0014_ent

>  <Stereoisomer>  (28) 
enantiomer

$$$$
EDEL-CRBN-0015
     RDKit          3D

  0  0  0  0  0  0  0  0  0  0999 V3000
M  V30 BEGIN CTAB
M  V30 COUNTS 36 40 0 0 0
M  V30 BEGIN ATOM
M  V30 1 Cl 7.123755 4.368960 1.422607 0
M  V30 2 C 6.668988 3.035605 0.431634 0
M  V30 3 C 5.344409 2.598159 0.394546 0
M  V30 4 C 7.638172 2.395419 -0.339846 0
M  V30 5 F 4.411892 3.224314 1.131215 0
M  V30 6 C 4.967934 1.511716 -0.402880 0
M  V30 7 C 7.276738 1.319257 -1.150942 0
M  V30 8 C 5.949763 0.883701 -1.186511 0
M  V30 9 C 3.523233 1.071214 -0.453292 0
M  V30 10 N 3.346635 -0.389262 -0.374496 0
M  V30 11 C 2.002650 -0.769191 -0.842352 0
M  V30 12 C 3.680862 -0.944731 0.950271 0
M  V30 13 C 1.596231 -2.152104 -0.341937 0
M  V30 14 C 2.460759 -1.142713 1.844691 0
M  V30 15 C 1.483861 -2.124067 1.188925 0
M  V30 16 O 1.689277 -3.479824 1.710251 0
M  V30 17 C 0.064063 -2.107270 1.849814 0 CFG=2
M  V30 18 C 0.256696 -3.631882 1.891287 0
M  V30 19 C -1.153565 -1.420340 1.094301 0
M  V30 20 C -1.264611 -0.011981 1.059062 0
M  V30 21 C -2.163835 -2.138726 0.430794 0
M  V30 22 C -2.304281 0.653993 0.393219 0
M  V30 23 C -3.224166 -1.499645 -0.227895 0
M  V30 24 O -2.438338 2.021226 0.352730 0
M  V30 25 C -3.297458 -0.097805 -0.263390 0
M  V30 26 O -4.114176 -2.231791 -0.977909 0
M  V30 27 C -1.586326 2.794259 1.188254 0
M  V30 28 N -4.358078 0.570638 -0.945082 0
M  V30 29 C -4.755320 -3.260773 -0.223422 0
M  V30 30 C -5.688334 0.227453 -0.736728 0
M  V30 31 C -4.015242 1.370442 -2.111195 0
M  V30 32 O -6.118200 -0.495565 0.159546 0
M  V30 33 N -6.579382 0.848966 -1.581039 0
M  V30 34 C -4.949844 2.554591 -2.213763 0
M  V30 35 C -6.370572 2.061610 -2.180669 0
M  V30 36 O -7.308413 2.739431 -2.594331 0
M  V30 END ATOM
M  V30 BEGIN BOND
M  V30 1 1 1 2
M  V30 2 2 2 3
M  V30 3 1 2 4
M  V30 4 1 3 5
M  V30 5 1 3 6
M  V30 6 2 4 7
M  V30 7 2 6 8
M  V30 8 1 6 9
M  V30 9 1 9 10
M  V30 10 1 10 11
M  V30 11 1 10 12
M  V30 12 1 11 13
M  V30 13 1 12 14
M  V30 14 1 13 15
M  V30 15 1 15 16
M  V30 16 1 15 17
M  V30 17 1 16 18
M  V30 18 1 17 19 CFG=3
M  V30 19 2 19 20
M  V30 20 1 19 21
M  V30 21 1 20 22
M  V30 22 2 21 23
M  V30 23 1 22 24
M  V30 24 2 22 25
M  V30 25 1 23 26
M  V30 26 1 24 27
M  V30 27 1 25 28
M  V30 28 1 26 29
M  V30 29 1 28 30
M  V30 30 1 28 31
M  V30 31 2 30 32
M  V30 32 1 30 33
M  V30 33 1 31 34
M  V30 34 1 33 35
M  V30 35 2 35 36
M  V30 36 1 7 8
M  V30 37 1 14 15
M  V30 38 1 17 18
M  V30 39 1 23 25
M  V30 40 1 34 35
M  V30 END BOND
M  V30 BEGIN COLLECTION
M  V30 MDLV30/STERAC1 ATOMS=(1 17)
M  V30 END COLLECTION
M  V30 END CTAB
M  END
>  <ID>  (29) 
EDEL-CRBN-0015

>  <Stereoisomer>  (29) 
original

$$$$
EDEL-CRBN-0015_ent
     RDKit          3D

  0  0  0  0  0  0  0  0  0  0999 V3000
M  V30 BEGIN CTAB
M  V30 COUNTS 36 40 0 0 0
M  V30 BEGIN ATOM
M  V30 1 Cl 9.181867 1.071752 -0.496961 0
M  V30 2 C 7.608558 0.650916 -1.057830 0
M  V30 3 C 6.472707 1.029316 -0.342064 0
M  V30 4 C 7.478275 -0.070975 -2.244207 0
M  V30 5 F 6.602192 1.740093 0.789846 0
M  V30 6 C 5.192090 0.692653 -0.798351 0
M  V30 7 C 6.208720 -0.411158 -2.713111 0
M  V30 8 C 5.071760 -0.031995 -1.995194 0
M  V30 9 C 3.970418 1.091950 -0.004788 0
M  V30 10 N 3.711009 0.217654 1.149117 0
M  V30 11 C 3.388833 -1.163932 0.757788 0
M  V30 12 C 2.725380 0.803245 2.074247 0
M  V30 13 C 2.642311 -1.904034 1.865678 0
M  V30 14 C 1.311683 0.276966 1.841524 0
M  V30 15 C 1.271783 -1.237947 2.076010 0
M  V30 16 O 0.793692 -1.525007 3.428453 0
M  V30 17 C 0.056686 -2.028368 1.479686 0 CFG=1
M  V30 18 C -0.120077 -2.526435 2.925152 0
M  V30 19 C -1.147511 -1.247297 0.774649 0
M  V30 20 C -2.008851 -0.373289 1.473123 0
M  V30 21 C -1.386960 -1.386230 -0.605310 0
M  V30 22 C -3.052578 0.324770 0.846381 0
M  V30 23 C -2.431332 -0.714130 -1.253864 0
M  V30 24 O -3.918231 1.165339 1.505396 0
M  V30 25 C -3.268227 0.155296 -0.535896 0
M  V30 26 O -2.548420 -0.776473 -2.622267 0
M  V30 27 C -3.836449 1.219170 2.923924 0
M  V30 28 N -4.325691 0.863989 -1.181279 0
M  V30 29 C -2.663751 -2.116248 -3.102807 0
M  V30 30 C -5.238126 0.219568 -2.007500 0
M  V30 31 C -4.235978 2.315383 -1.234216 0
M  V30 32 O -5.380063 -0.995967 -2.122366 0
M  V30 33 N -6.101433 1.059745 -2.672419 0
M  V30 34 C -5.620939 2.917713 -1.161574 0
M  V30 35 C -6.480497 2.298199 -2.229298 0
M  V30 36 O -7.512504 2.831337 -2.630370 0
M  V30 END ATOM
M  V30 BEGIN BOND
M  V30 1 1 1 2
M  V30 2 2 2 3
M  V30 3 1 2 4
M  V30 4 1 3 5
M  V30 5 1 3 6
M  V30 6 2 4 7
M  V30 7 2 6 8
M  V30 8 1 6 9
M  V30 9 1 9 10
M  V30 10 1 10 11
M  V30 11 1 10 12
M  V30 12 1 11 13
M  V30 13 1 12 14
M  V30 14 1 13 15
M  V30 15 1 15 16
M  V30 16 1 15 17
M  V30 17 1 16 18
M  V30 18 1 17 19 CFG=1
M  V30 19 2 19 20
M  V30 20 1 19 21
M  V30 21 1 20 22
M  V30 22 2 21 23
M  V30 23 1 22 24
M  V30 24 2 22 25
M  V30 25 1 23 26
M  V30 26 1 24 27
M  V30 27 1 25 28
M  V30 28 1 26 29
M  V30 29 1 28 30
M  V30 30 1 28 31
M  V30 31 2 30 32
M  V30 32 1 30 33
M  V30 33 1 31 34
M  V30 34 1 33 35
M  V30 35 2 35 36
M  V30 36 1 7 8
M  V30 37 1 14 15
M  V30 38 1 17 18
M  V30 39 1 23 25
M  V30 40 1 34 35
M  V30 END BOND
M  V30 BEGIN COLLECTION
M  V30 MDLV30/STERAC1 ATOMS=(1 17)
M  V30 END COLLECTION
M  V30 END CTAB
M  END
>  <ID>  (30) 
EDEL-CRBN-0015_ent

>  <Stereoisomer>  (30) 
enantiomer

$$$$
EDEL-CRBN-0016
     RDKit          3D

  0  0  0  0  0  0  0  0  0  0999 V3000
M  V30 BEGIN CTAB
M  V30 COUNTS 38 42 0 0 0
M  V30 BEGIN ATOM
M  V30 1 O 3.456855 -2.172920 -1.694139 0
M  V30 2 C 4.371604 -1.531875 -1.184684 0
M  V30 3 N 4.255873 -0.311593 -0.524400 0
M  V30 4 N 5.656930 -2.014300 -1.283831 0
M  V30 5 C 2.968777 0.271541 -0.297069 0
M  V30 6 C 5.453951 0.491212 -0.340591 0
M  V30 7 C 6.753903 -1.579172 -0.591402 0
M  V30 8 C 1.966364 -0.466976 0.367006 0
M  V30 9 C 2.671533 1.600960 -0.709526 0
M  V30 10 C 6.554925 -0.357657 0.259099 0
M  V30 11 O 7.814934 -2.197526 -0.614047 0
M  V30 12 O 2.170219 -1.732721 0.844506 0
M  V30 13 C 0.727758 0.114963 0.560681 0
M  V30 14 O 3.598206 2.354849 -1.395386 0
M  V30 15 C 1.428086 2.202245 -0.465573 0
M  V30 16 C 2.760020 -1.687995 2.143289 0
M  V30 17 C 0.464119 1.440715 0.157304 0
M  V30 18 C -0.540580 -0.446695 1.158731 0 CFG=1
M  V30 19 C 3.408205 2.180298 -2.802918 0
M  V30 20 C -0.977618 1.746693 0.495250 0 CFG=2
M  V30 21 N -1.189081 0.792800 1.581374 0
M  V30 22 C -1.440025 -1.058760 0.031806 0
M  V30 23 C -1.917310 1.298061 -0.674130 0
M  V30 24 C -2.258659 0.791495 2.430713 0
M  V30 25 N -1.702996 -0.116388 -1.109137 0
M  V30 26 O -2.588018 -0.178436 3.099051 0
M  V30 27 O -2.899401 1.987480 2.422530 0
M  V30 28 C -2.780735 -0.580261 -1.989659 0
M  V30 29 C -4.076901 2.207616 3.240215 0
M  V30 30 C -2.473911 -1.879891 -2.703900 0
M  V30 31 C -3.752513 2.085274 4.732835 0
M  V30 32 C -5.224081 1.281121 2.822258 0
M  V30 33 C -4.487101 3.658491 2.944697 0
M  V30 34 C -3.431969 -2.902917 -2.756066 0
M  V30 35 C -1.247320 -2.070709 -3.359050 0
M  V30 36 C -3.161598 -4.094748 -3.431909 0
M  V30 37 C -0.976749 -3.264093 -4.029817 0
M  V30 38 C -1.934074 -4.275507 -4.066533 0
M  V30 END ATOM
M  V30 BEGIN BOND
M  V30 1 2 1 2
M  V30 2 1 2 3
M  V30 3 1 2 4
M  V30 4 1 3 5
M  V30 5 1 3 6
M  V30 6 1 4 7
M  V30 7 2 5 8
M  V30 8 1 5 9
M  V30 9 1 6 10
M  V30 10 2 7 11
M  V30 11 1 8 12
M  V30 12 1 8 13
M  V30 13 1 9 14
M  V30 14 2 9 15
M  V30 15 1 12 16
M  V30 16 2 13 17
M  V30 17 1 13 18
M  V30 18 1 14 19
M  V30 19 1 17 20
M  V30 20 1 18 21
M  V30 21 1 18 22 CFG=3
M  V30 22 1 20 23 CFG=3
M  V30 23 1 21 24
M  V30 24 1 22 25
M  V30 25 2 24 26
M  V30 26 1 24 27
M  V30 27 1 25 28
M  V30 28 1 27 29
M  V30 29 1 28 30
M  V30 30 1 29 31
M  V30 31 1 29 32
M  V30 32 1 29 33
M  V30 33 2 30 34
M  V30 34 1 30 35
M  V30 35 1 34 36
M  V30 36 2 35 37
M  V30 37 2 36 38
M  V30 38 1 7 10
M  V30 39 1 15 17
M  V30 40 1 20 21
M  V30 41 1 23 25
M  V30 42 1 37 38
M  V30 END BOND
M  V30 BEGIN COLLECTION
M  V30 MDLV30/STERAC1 ATOMS=(2 18 20)
M  V30 END COLLECTION
M  V30 END CTAB
M  END
>  <ID>  (31) 
EDEL-CRBN-0016

>  <Stereoisomer>  (31) 
original

$$$$
EDEL-CRBN-0016_ent
     RDKit          3D

  0  0  0  0  0  0  0  0  0  0999 V3000
M  V30 BEGIN CTAB
M  V30 COUNTS 38 42 0 0 0
M  V30 BEGIN ATOM
M  V30 1 O 4.401234 2.894621 0.186618 0
M  V30 2 C 5.026845 1.841941 0.294063 0
M  V30 3 N 4.472073 0.569859 0.354239 0
M  V30 4 N 6.389235 1.885794 0.473946 0
M  V30 5 C 3.127789 0.325797 -0.060299 0
M  V30 6 C 5.361224 -0.583105 0.403920 0
M  V30 7 C 7.121112 0.957188 1.162728 0
M  V30 8 C 2.280453 -0.445530 0.761486 0
M  V30 9 C 2.643966 0.806351 -1.309733 0
M  V30 10 C 6.445329 -0.358221 1.433871 0
M  V30 11 O 8.235458 1.224184 1.606345 0
M  V30 12 O 2.650085 -0.911264 1.994321 0
M  V30 13 C 1.019640 -0.761185 0.298503 0
M  V30 14 O 3.523064 1.453551 -2.149471 0
M  V30 15 C 1.348625 0.502877 -1.756211 0
M  V30 16 C 2.654255 0.152241 2.950711 0
M  V30 17 C 0.554669 -0.279859 -0.943092 0
M  V30 18 C -0.096464 -1.557542 0.932589 0 CFG=2
M  V30 19 C 3.012015 2.703066 -2.614827 0
M  V30 20 C -0.869511 -0.757806 -1.117827 0 CFG=1
M  V30 21 N -0.844455 -1.941626 -0.261837 0
M  V30 22 C -1.037933 -0.613416 1.753492 0
M  V30 23 C -1.862649 0.251852 -0.447408 0
M  V30 24 C -1.814869 -2.902506 -0.224369 0
M  V30 25 N -1.523299 0.573986 0.978164 0
M  V30 26 O -1.962106 -3.674248 0.713281 0
M  V30 27 O -2.587189 -2.871379 -1.339049 0
M  V30 28 C -2.612722 1.261202 1.679342 0
M  V30 29 C -3.693807 -3.793692 -1.506115 0
M  V30 30 C -2.922616 2.627324 1.105516 0
M  V30 31 C -4.763421 -3.577191 -0.429956 0
M  V30 32 C -3.209206 -5.246634 -1.552198 0
M  V30 33 C -4.294896 -3.433183 -2.873314 0
M  V30 34 C -4.217987 2.943832 0.672323 0
M  V30 35 C -1.920240 3.605675 1.015311 0
M  V30 36 C -4.501536 4.208894 0.153682 0
M  V30 37 C -2.205261 4.868901 0.495761 0
M  V30 38 C -3.495824 5.170044 0.065308 0
M  V30 END ATOM
M  V30 BEGIN BOND
M  V30 1 2 1 2
M  V30 2 1 2 3
M  V30 3 1 2 4
M  V30 4 1 3 5
M  V30 5 1 3 6
M  V30 6 1 4 7
M  V30 7 2 5 8
M  V30 8 1 5 9
M  V30 9 1 6 10
M  V30 10 2 7 11
M  V30 11 1 8 12
M  V30 12 1 8 13
M  V30 13 1 9 14
M  V30 14 2 9 15
M  V30 15 1 12 16
M  V30 16 2 13 17
M  V30 17 1 13 18
M  V30 18 1 14 19
M  V30 19 1 17 20
M  V30 20 1 18 21
M  V30 21 1 18 22 CFG=1
M  V30 22 1 20 23 CFG=1
M  V30 23 1 21 24
M  V30 24 1 22 25
M  V30 25 2 24 26
M  V30 26 1 24 27
M  V30 27 1 25 28
M  V30 28 1 27 29
M  V30 29 1 28 30
M  V30 30 1 29 31
M  V30 31 1 29 32
M  V30 32 1 29 33
M  V30 33 2 30 34
M  V30 34 1 30 35
M  V30 35 1 34 36
M  V30 36 2 35 37
M  V30 37 2 36 38
M  V30 38 1 7 10
M  V30 39 1 15 17
M  V30 40 1 20 21
M  V30 41 1 23 25
M  V30 42 1 37 38
M  V30 END BOND
M  V30 BEGIN COLLECTION
M  V30 MDLV30/STERAC1 ATOMS=(2 18 20)
M  V30 END COLLECTION
M  V30 END CTAB
M  END
>  <ID>  (32) 
EDEL-CRBN-0016_ent

>  <Stereoisomer>  (32) 
enantiomer

$$$$
