
     RDKit          2D

 26 28  0  0  0  0  0  0  0  0999 V2000
   -3.4389    0.1403    0.0000 N   0  0  0  0  0  0  0  0  0  0  0  0
   -4.3311   -1.0655    0.0000 C   0  0  0  0  0  0  0  0  0  0  0  0
   -3.7329   -2.4411    0.0000 O   0  0  0  0  0  0  0  0  0  0  0  0
   -4.0371    1.5158    0.0000 C   0  0  0  0  0  0  0  0  0  0  0  0
   -1.9485   -0.0295    0.0000 C   0  0  0  0  0  0  0  0  0  0  0  0
   -3.1449    2.7217    0.0000 C   0  0  0  0  0  0  0  0  0  0  0  0
   -1.0564    1.1763    0.0000 C   0  0  0  0  0  0  0  0  0  0  0  0
   -1.6545    2.5519    0.0000 C   0  0  0  0  0  0  0  0  0  0  0  0
    0.4340    1.0066    0.0000 N   0  0  0  0  0  0  0  0  0  0  0  0
   -0.7623    3.7577    0.0000 C   0  0  0  0  0  0  0  0  0  0  0  0
    1.3262    2.2124    0.0000 C   0  0  0  0  0  0  0  0  0  0  0  0
    0.7280    3.5880    0.0000 C   0  0  0  0  0  0  0  0  0  0  0  0
    2.8166    2.0426    0.0000 C   0  0  0  0  0  0  0  0  0  0  0  0
    3.4147    0.6671    0.0000 N   0  0  0  0  0  0  0  0  0  0  0  0
    3.7088    3.2484    0.0000 O   0  0  0  0  0  0  0  0  0  0  0  0
    4.9051    0.4973    0.0000 C   0  0  0  0  0  0  0  0  0  0  0  0
    5.5033   -0.8783    0.0000 C   0  0  0  0  0  0  0  0  0  0  0  0
    4.6111   -2.0841    0.0000 C   0  0  0  0  0  0  0  0  0  0  0  0
    6.9936   -1.0480    0.0000 C   0  0  0  0  0  0  0  0  0  0  0  0
    5.2092   -3.4596    0.0000 C   0  0  0  0  0  0  0  0  0  0  0  0
    7.5918   -2.4236    0.0000 C   0  0  0  0  0  0  0  0  0  0  0  0
    6.6996   -3.6294    0.0000 C   0  0  0  0  0  0  0  0  0  0  0  0
   -5.8215   -0.8958    0.0000 C   0  0  0  0  0  0  0  0  0  0  0  0
   -6.7137   -2.1016    0.0000 O   0  0  0  0  0  0  0  0  0  0  0  0
   -8.2040   -1.9319    0.0000 C   0  0  0  0  0  0  0  0  0  0  0  0
   -9.0962   -3.1377    0.0000 C   0  0  0  0  0  0  0  0  0  0  0  0
  1  2  1  0
  2  3  2  0
  1  4  1  0
  5  1  1  0
  6  4  1  0
  7  5  1  0
  8  6  1  0
  7  8  2  0
  9  7  1  0
 10  8  1  0
 11  9  2  0
 12 10  2  0
 11 12  1  0
 13 11  1  0
 13 14  1  0
 15 13  2  0
 14 16  1  0
 16 17  1  0
 17 18  2  0
 17 19  1  0
 18 20  1  0
 19 21  2  0
 20 22  2  0
 21 22  1  0
  2 23  1  0
 23 24  1  0
 24 25  1  0
 25 26  1  0
M  END
>  <Rank>  (1) 
1

>  <CR_ID>  (1) 
R-003792

>  <Acid_Name>  (1) 
R-003792

>  <SMILES>  (1) 
CCOCC(=O)N1CCc2ccc(C(=O)NCc3ccccc3)nc2C1

>  <MPO_Score>  (1) 
0.9295

>  <MW>  (1) 
353.17

>  <cLogP>  (1) 
1.93 ± 0.40

>  <TPSA>  (1) 
71.5

>  <HBD>  (1) 
1

>  <HBA>  (1) 
4

>  <RotBonds>  (1) 
6

>  <Fsp3>  (1) 
0.350

>  <NumArRings>  (1) 
2

>  <logS_ESOL>  (1) 
-3.19 ± 0.93 log(mol/L)

>  <logS_AD>  (1) 
In

>  <logS_model>  (1) 
ESOL/Delaney-2004 (linear, n=1144, RMSE=0.93 log-units)

>  <logPapp_PAMPA>  (1) 
-5.94 ± 0.80 log(cm/s)

>  <logPapp_class>  (1) 
Medium

>  <logPapp_AD>  (1) 
In

>  <logPapp_model>  (1) 
Hou-2004 PAMPA linear (RMSE=0.8, n=100)

>  <MetStab_score>  (1) 
1.000 (0-1 scale)

>  <MetStab_t12>  (1) 
High (t½>60 min HLM)

>  <Clearance_route>  (1) 
CYP2D6/3A4 (basic-N + Ar)

>  <Met_alerts>  (1) 
None

>  <MetStab_model>  (1) 
Rule-based HLM classifier (cLogP+Fsp3+Ar-rings+alerts; heuristic ±1 class)

>  <CYP_risk>  (1) 
Low

>  <CYP_alerts>  (1) 
None

>  <CYP2D6_flag>  (1) 
False

>  <CYP3A4_flag>  (1) 
False

>  <CYP2C9_flag>  (1) 
False

>  <CYP_model>  (1) 
SMARTS alert panel (pharmacophore-based; flag only – no IC50 predicted)

>  <PPB_pct>  (1) 
90.7 ± 10 %

>  <PPB_fu>  (1) 
0.0925

>  <PPB_class>  (1) 
High (90-95%)

>  <PPB_AD>  (1) 
In

>  <PPB_model>  (1) 
Valko-2003 logP-linear (RMSE≈10% PPB, n=87)

>  <hERG_risk>  (1) 
Low

>  <hERG_model>  (1) 
Structural-alert + cLogP (Redfern-2003 anchor; ±1 class)

>  <des_sol>  (1) 
0.924

>  <des_logp>  (1) 
0.966

>  <des_perm>  (1) 
0.707

>  <des_met>  (1) 
1.000

>  <des_cyp>  (1) 
1.000

>  <des_ppb>  (1) 
1.000

>  <des_herg>  (1) 
1.000

>  <des_mw>  (1) 
0.766

$$$$

     RDKit          2D

 26 28  0  0  0  0  0  0  0  0999 V2000
   -3.4389    0.1403    0.0000 N   0  0  0  0  0  0  0  0  0  0  0  0
   -4.3311   -1.0655    0.0000 C   0  0  0  0  0  0  0  0  0  0  0  0
   -3.7329   -2.4411    0.0000 O   0  0  0  0  0  0  0  0  0  0  0  0
   -4.0371    1.5158    0.0000 C   0  0  0  0  0  0  0  0  0  0  0  0
   -1.9485   -0.0295    0.0000 C   0  0  0  0  0  0  0  0  0  0  0  0
   -3.1449    2.7217    0.0000 C   0  0  0  0  0  0  0  0  0  0  0  0
   -1.0564    1.1763    0.0000 C   0  0  0  0  0  0  0  0  0  0  0  0
   -1.6545    2.5519    0.0000 C   0  0  0  0  0  0  0  0  0  0  0  0
    0.4340    1.0066    0.0000 N   0  0  0  0  0  0  0  0  0  0  0  0
   -0.7623    3.7577    0.0000 C   0  0  0  0  0  0  0  0  0  0  0  0
    1.3262    2.2124    0.0000 C   0  0  0  0  0  0  0  0  0  0  0  0
    0.7280    3.5880    0.0000 C   0  0  0  0  0  0  0  0  0  0  0  0
    2.8166    2.0426    0.0000 C   0  0  0  0  0  0  0  0  0  0  0  0
    3.4147    0.6671    0.0000 N   0  0  0  0  0  0  0  0  0  0  0  0
    3.7088    3.2484    0.0000 O   0  0  0  0  0  0  0  0  0  0  0  0
    4.9051    0.4973    0.0000 C   0  0  0  0  0  0  0  0  0  0  0  0
    5.5033   -0.8783    0.0000 C   0  0  0  0  0  0  0  0  0  0  0  0
    4.6111   -2.0841    0.0000 C   0  0  0  0  0  0  0  0  0  0  0  0
    6.9936   -1.0480    0.0000 C   0  0  0  0  0  0  0  0  0  0  0  0
    5.2092   -3.4596    0.0000 C   0  0  0  0  0  0  0  0  0  0  0  0
    7.5918   -2.4236    0.0000 C   0  0  0  0  0  0  0  0  0  0  0  0
    6.6996   -3.6294    0.0000 C   0  0  0  0  0  0  0  0  0  0  0  0
   -5.8215   -0.8958    0.0000 C   0  0  0  0  0  0  0  0  0  0  0  0
   -6.7137   -2.1016    0.0000 C   0  0  0  0  0  0  0  0  0  0  0  0
   -8.2040   -1.9319    0.0000 O   0  0  0  0  0  0  0  0  0  0  0  0
   -9.0962   -3.1377    0.0000 C   0  0  0  0  0  0  0  0  0  0  0  0
  1  2  1  0
  2  3  2  0
  1  4  1  0
  5  1  1  0
  6  4  1  0
  7  5  1  0
  8  6  1  0
  7  8  2  0
  9  7  1  0
 10  8  1  0
 11  9  2  0
 12 10  2  0
 11 12  1  0
 13 11  1  0
 13 14  1  0
 15 13  2  0
 14 16  1  0
 16 17  1  0
 17 18  2  0
 17 19  1  0
 18 20  1  0
 19 21  2  0
 20 22  2  0
 21 22  1  0
  2 23  1  0
 23 24  1  0
 24 25  1  0
 25 26  1  0
M  END
>  <Rank>  (2) 
2

>  <CR_ID>  (2) 
R-009162

>  <Acid_Name>  (2) 
R-009162

>  <SMILES>  (2) 
COCCC(=O)N1CCc2ccc(C(=O)NCc3ccccc3)nc2C1

>  <MPO_Score>  (2) 
0.9295

>  <MW>  (2) 
353.17

>  <cLogP>  (2) 
1.93 ± 0.40

>  <TPSA>  (2) 
71.5

>  <HBD>  (2) 
1

>  <HBA>  (2) 
4

>  <RotBonds>  (2) 
6

>  <Fsp3>  (2) 
0.350

>  <NumArRings>  (2) 
2

>  <logS_ESOL>  (2) 
-3.19 ± 0.93 log(mol/L)

>  <logS_AD>  (2) 
In

>  <logS_model>  (2) 
ESOL/Delaney-2004 (linear, n=1144, RMSE=0.93 log-units)

>  <logPapp_PAMPA>  (2) 
-5.94 ± 0.80 log(cm/s)

>  <logPapp_class>  (2) 
Medium

>  <logPapp_AD>  (2) 
In

>  <logPapp_model>  (2) 
Hou-2004 PAMPA linear (RMSE=0.8, n=100)

>  <MetStab_score>  (2) 
1.000 (0-1 scale)

>  <MetStab_t12>  (2) 
High (t½>60 min HLM)

>  <Clearance_route>  (2) 
CYP2D6/3A4 (basic-N + Ar)

>  <Met_alerts>  (2) 
None

>  <MetStab_model>  (2) 
Rule-based HLM classifier (cLogP+Fsp3+Ar-rings+alerts; heuristic ±1 class)

>  <CYP_risk>  (2) 
Low

>  <CYP_alerts>  (2) 
None

>  <CYP2D6_flag>  (2) 
False

>  <CYP3A4_flag>  (2) 
False

>  <CYP2C9_flag>  (2) 
False

>  <CYP_model>  (2) 
SMARTS alert panel (pharmacophore-based; flag only – no IC50 predicted)

>  <PPB_pct>  (2) 
90.7 ± 10 %

>  <PPB_fu>  (2) 
0.0925

>  <PPB_class>  (2) 
High (90-95%)

>  <PPB_AD>  (2) 
In

>  <PPB_model>  (2) 
Valko-2003 logP-linear (RMSE≈10% PPB, n=87)

>  <hERG_risk>  (2) 
Low

>  <hERG_model>  (2) 
Structural-alert + cLogP (Redfern-2003 anchor; ±1 class)

>  <des_sol>  (2) 
0.924

>  <des_logp>  (2) 
0.966

>  <des_perm>  (2) 
0.707

>  <des_met>  (2) 
1.000

>  <des_cyp>  (2) 
1.000

>  <des_ppb>  (2) 
1.000

>  <des_herg>  (2) 
1.000

>  <des_mw>  (2) 
0.766

$$$$

     RDKit          2D

 27 30  0  0  0  0  0  0  0  0999 V2000
   -4.1380   -0.8958    0.0000 N   0  0  0  0  0  0  0  0  0  0  0  0
   -5.5368   -0.3541    0.0000 C   0  0  0  0  0  0  0  0  0  0  0  0
   -6.7053   -1.2946    0.0000 O   0  0  0  0  0  0  0  0  0  0  0  0
   -3.9078   -2.3780    0.0000 C   0  0  0  0  0  0  0  0  0  0  0  0
   -2.9695    0.0447    0.0000 C   0  0  0  0  0  0  0  0  0  0  0  0
   -2.5090   -2.9197    0.0000 C   0  0  0  0  0  0  0  0  0  0  0  0
   -1.5707   -0.4970    0.0000 C   0  0  0  0  0  0  0  0  0  0  0  0
   -1.3405   -1.9792    0.0000 C   0  0  0  0  0  0  0  0  0  0  0  0
   -0.4022    0.4435    0.0000 N   0  0  0  0  0  0  0  0  0  0  0  0
    0.0583   -2.5209    0.0000 C   0  0  0  0  0  0  0  0  0  0  0  0
    0.9966   -0.0982    0.0000 C   0  0  0  0  0  0  0  0  0  0  0  0
    1.2268   -1.5804    0.0000 C   0  0  0  0  0  0  0  0  0  0  0  0
    2.1651    0.8423    0.0000 C   0  0  0  0  0  0  0  0  0  0  0  0
    3.5639    0.3006    0.0000 N   0  0  0  0  0  0  0  0  0  0  0  0
    1.9349    2.3245    0.0000 O   0  0  0  0  0  0  0  0  0  0  0  0
    4.7324    1.2411    0.0000 C   0  0  0  0  0  0  0  0  0  0  0  0
    6.1312    0.6994    0.0000 C   0  0  0  0  0  0  0  0  0  0  0  0
    6.3614   -0.7828    0.0000 C   0  0  0  0  0  0  0  0  0  0  0  0
    7.2997    1.6399    0.0000 C   0  0  0  0  0  0  0  0  0  0  0  0
    7.7602   -1.3246    0.0000 C   0  0  0  0  0  0  0  0  0  0  0  0
    8.6984    1.0982    0.0000 C   0  0  0  0  0  0  0  0  0  0  0  0
    8.9287   -0.3841    0.0000 C   0  0  0  0  0  0  0  0  0  0  0  0
   -5.7670    1.1282    0.0000 C   0  0  0  0  0  0  0  0  0  0  0  0
   -7.2492    0.8979    0.0000 C   0  0  0  0  0  0  0  0  0  0  0  0
   -5.9972    2.6104    0.0000 C   0  0  0  0  0  0  0  0  0  0  0  0
   -4.2848    1.3584    0.0000 C   0  0  0  0  0  0  0  0  0  0  0  0
   -7.4795    2.3802    0.0000 O   0  0  0  0  0  0  0  0  0  0  0  0
  1  2  1  0
  2  3  2  0
  1  4  1  0
  5  1  1  0
  6  4  1  0
  7  5  1  0
  8  6  1  0
  7  8  2  0
  9  7  1  0
 10  8  1  0
 11  9  2  0
 12 10  2  0
 11 12  1  0
 13 11  1  0
 13 14  1  0
 15 13  2  0
 14 16  1  0
 16 17  1  0
 17 18  2  0
 17 19  1  0
 18 20  1  0
 19 21  2  0
 20 22  2  0
 21 22  1  0
  2 23  1  0
 23 24  1  0
 23 25  1  0
 23 26  1  0
 24 27  1  0
 25 27  1  0
M  END
>  <Rank>  (3) 
3

>  <CR_ID>  (3) 
R-009782

>  <Acid_Name>  (3) 
R-009782

>  <SMILES>  (3) 
CC1(C(=O)N2CCc3ccc(C(=O)NCc4ccccc4)nc3C2)COC1

>  <MPO_Score>  (3) 
0.9195

>  <MW>  (3) 
365.17

>  <cLogP>  (3) 
1.93 ± 0.40

>  <TPSA>  (3) 
71.5

>  <HBD>  (3) 
1

>  <HBA>  (3) 
4

>  <RotBonds>  (3) 
4

>  <Fsp3>  (3) 
0.381

>  <NumArRings>  (3) 
2

>  <logS_ESOL>  (3) 
-3.39 ± 0.93 log(mol/L)

>  <logS_AD>  (3) 
In

>  <logS_model>  (3) 
ESOL/Delaney-2004 (linear, n=1144, RMSE=0.93 log-units)

>  <logPapp_PAMPA>  (3) 
-5.95 ± 0.80 log(cm/s)

>  <logPapp_class>  (3) 
Medium

>  <logPapp_AD>  (3) 
In

>  <logPapp_model>  (3) 
Hou-2004 PAMPA linear (RMSE=0.8, n=100)

>  <MetStab_score>  (3) 
1.000 (0-1 scale)

>  <MetStab_t12>  (3) 
High (t½>60 min HLM)

>  <Clearance_route>  (3) 
CYP2D6/3A4 (basic-N + Ar)

>  <Met_alerts>  (3) 
None

>  <MetStab_model>  (3) 
Rule-based HLM classifier (cLogP+Fsp3+Ar-rings+alerts; heuristic ±1 class)

>  <CYP_risk>  (3) 
Low

>  <CYP_alerts>  (3) 
None

>  <CYP2D6_flag>  (3) 
False

>  <CYP3A4_flag>  (3) 
False

>  <CYP2C9_flag>  (3) 
False

>  <CYP_model>  (3) 
SMARTS alert panel (pharmacophore-based; flag only – no IC50 predicted)

>  <PPB_pct>  (3) 
90.7 ± 10 %

>  <PPB_fu>  (3) 
0.0925

>  <PPB_class>  (3) 
High (90-95%)

>  <PPB_AD>  (3) 
In

>  <PPB_model>  (3) 
Valko-2003 logP-linear (RMSE≈10% PPB, n=87)

>  <hERG_risk>  (3) 
Low

>  <hERG_model>  (3) 
Structural-alert + cLogP (Redfern-2003 anchor; ±1 class)

>  <des_sol>  (3) 
0.844

>  <des_logp>  (3) 
0.966

>  <des_perm>  (3) 
0.700

>  <des_met>  (3) 
1.000

>  <des_cyp>  (3) 
1.000

>  <des_ppb>  (3) 
1.000

>  <des_herg>  (3) 
1.000

>  <des_mw>  (3) 
0.826

$$$$

     RDKit          2D

 27 29  0  0  0  0  0  0  0  0999 V2000
   -3.3117   -0.3836    0.0000 N   0  0  0  0  0  0  0  0  0  0  0  0
   -4.0810   -1.6713    0.0000 C   0  0  0  0  0  0  0  0  0  0  0  0
   -3.3504   -2.9814    0.0000 O   0  0  0  0  0  0  0  0  0  0  0  0
   -4.0422    0.9265    0.0000 C   0  0  0  0  0  0  0  0  0  0  0  0
   -1.8118   -0.4060    0.0000 C   0  0  0  0  0  0  0  0  0  0  0  0
   -3.2729    2.2142    0.0000 C   0  0  0  0  0  0  0  0  0  0  0  0
   -1.0425    0.8817    0.0000 C   0  0  0  0  0  0  0  0  0  0  0  0
   -1.7730    2.1918    0.0000 C   0  0  0  0  0  0  0  0  0  0  0  0
    0.4573    0.8593    0.0000 N   0  0  0  0  0  0  0  0  0  0  0  0
   -1.0037    3.4795    0.0000 C   0  0  0  0  0  0  0  0  0  0  0  0
    1.2266    2.1470    0.0000 C   0  0  0  0  0  0  0  0  0  0  0  0
    0.4961    3.4571    0.0000 C   0  0  0  0  0  0  0  0  0  0  0  0
    2.7265    2.1246    0.0000 C   0  0  0  0  0  0  0  0  0  0  0  0
    3.4570    0.8145    0.0000 N   0  0  0  0  0  0  0  0  0  0  0  0
    3.4958    3.4123    0.0000 O   0  0  0  0  0  0  0  0  0  0  0  0
    4.9568    0.7921    0.0000 C   0  0  0  0  0  0  0  0  0  0  0  0
    5.6873   -0.5180    0.0000 C   0  0  0  0  0  0  0  0  0  0  0  0
    4.9180   -1.8057    0.0000 C   0  0  0  0  0  0  0  0  0  0  0  0
    7.1872   -0.5404    0.0000 C   0  0  0  0  0  0  0  0  0  0  0  0
    5.6486   -3.1158    0.0000 C   0  0  0  0  0  0  0  0  0  0  0  0
    7.9177   -1.8505    0.0000 C   0  0  0  0  0  0  0  0  0  0  0  0
    7.1484   -3.1382    0.0000 C   0  0  0  0  0  0  0  0  0  0  0  0
   -5.5808   -1.6489    0.0000 C   0  0  0  0  0  0  0  0  0  0  0  0
   -7.0806   -1.6265    0.0000 C   0  0  0  0  0  0  0  0  0  0  0  0
   -5.6032   -3.1488    0.0000 C   0  0  0  0  0  0  0  0  0  0  0  0
   -5.5584   -0.1491    0.0000 C   0  0  0  0  0  0  0  0  0  0  0  0
   -7.8112   -0.3164    0.0000 O   0  0  0  0  0  0  0  0  0  0  0  0
  1  2  1  0
  2  3  2  0
  1  4  1  0
  5  1  1  0
  6  4  1  0
  7  5  1  0
  8  6  1  0
  7  8  2  0
  9  7  1  0
 10  8  1  0
 11  9  2  0
 12 10  2  0
 11 12  1  0
 13 11  1  0
 13 14  1  0
 15 13  2  0
 14 16  1  0
 16 17  1  0
 17 18  2  0
 17 19  1  0
 18 20  1  0
 19 21  2  0
 20 22  2  0
 21 22  1  0
  2 23  1  0
 23 24  1  0
 23 25  1  0
 23 26  1  0
 24 27  1  0
M  END
>  <Rank>  (4) 
4

>  <CR_ID>  (4) 
R-008816

>  <Acid_Name>  (4) 
R-008816

>  <SMILES>  (4) 
CC(C)(CO)C(=O)N1CCc2ccc(C(=O)NCc3ccccc3)nc2C1

>  <MPO_Score>  (4) 
0.9043

>  <MW>  (4) 
367.19

>  <cLogP>  (4) 
1.91 ± 0.40

>  <TPSA>  (4) 
82.5

>  <HBD>  (4) 
2

>  <HBA>  (4) 
4

>  <RotBonds>  (4) 
5

>  <Fsp3>  (4) 
0.381

>  <NumArRings>  (4) 
2

>  <logS_ESOL>  (4) 
-3.32 ± 0.93 log(mol/L)

>  <logS_AD>  (4) 
In

>  <logS_model>  (4) 
ESOL/Delaney-2004 (linear, n=1144, RMSE=0.93 log-units)

>  <logPapp_PAMPA>  (4) 
-6.14 ± 0.80 log(cm/s)

>  <logPapp_class>  (4) 
Medium

>  <logPapp_AD>  (4) 
In

>  <logPapp_model>  (4) 
Hou-2004 PAMPA linear (RMSE=0.8, n=100)

>  <MetStab_score>  (4) 
1.000 (0-1 scale)

>  <MetStab_t12>  (4) 
High (t½>60 min HLM)

>  <Clearance_route>  (4) 
CYP2D6/3A4 (basic-N + Ar)

>  <Met_alerts>  (4) 
None

>  <MetStab_model>  (4) 
Rule-based HLM classifier (cLogP+Fsp3+Ar-rings+alerts; heuristic ±1 class)

>  <CYP_risk>  (4) 
Low

>  <CYP_alerts>  (4) 
None

>  <CYP2D6_flag>  (4) 
False

>  <CYP3A4_flag>  (4) 
False

>  <CYP2C9_flag>  (4) 
False

>  <CYP_model>  (4) 
SMARTS alert panel (pharmacophore-based; flag only – no IC50 predicted)

>  <PPB_pct>  (4) 
90.5 ± 10 %

>  <PPB_fu>  (4) 
0.0951

>  <PPB_class>  (4) 
High (90-95%)

>  <PPB_AD>  (4) 
In

>  <PPB_model>  (4) 
Valko-2003 logP-linear (RMSE≈10% PPB, n=87)

>  <hERG_risk>  (4) 
Low

>  <hERG_model>  (4) 
Structural-alert + cLogP (Redfern-2003 anchor; ±1 class)

>  <des_sol>  (4) 
0.872

>  <des_logp>  (4) 
0.957

>  <des_perm>  (4) 
0.573

>  <des_met>  (4) 
1.000

>  <des_cyp>  (4) 
1.000

>  <des_ppb>  (4) 
1.000

>  <des_herg>  (4) 
1.000

>  <des_mw>  (4) 
0.836

$$$$

     RDKit          2D

 27 30  0  0  0  0  0  0  0  0999 V2000
   -4.1094   -1.2779    0.0000 N   0  0  0  0  0  0  0  0  0  0  0  0
   -5.5322   -0.8029    0.0000 C   0  0  0  0  0  0  0  0  0  0  0  0
   -6.6550   -1.7976    0.0000 O   0  0  0  0  0  0  0  0  0  0  0  0
   -3.8094   -2.7476    0.0000 C   0  0  0  0  0  0  0  0  0  0  0  0
   -2.9867   -0.2833    0.0000 C   0  0  0  0  0  0  0  0  0  0  0  0
   -2.3866   -3.2226    0.0000 C   0  0  0  0  0  0  0  0  0  0  0  0
   -1.5639   -0.7583    0.0000 C   0  0  0  0  0  0  0  0  0  0  0  0
   -1.2638   -2.2280    0.0000 C   0  0  0  0  0  0  0  0  0  0  0  0
   -0.4411    0.2364    0.0000 N   0  0  0  0  0  0  0  0  0  0  0  0
    0.1590   -2.7030    0.0000 C   0  0  0  0  0  0  0  0  0  0  0  0
    0.9817   -0.2386    0.0000 C   0  0  0  0  0  0  0  0  0  0  0  0
    1.2817   -1.7083    0.0000 C   0  0  0  0  0  0  0  0  0  0  0  0
    2.1045    0.7561    0.0000 C   0  0  0  0  0  0  0  0  0  0  0  0
    3.5273    0.2810    0.0000 N   0  0  0  0  0  0  0  0  0  0  0  0
    1.8045    2.2258    0.0000 O   0  0  0  0  0  0  0  0  0  0  0  0
    4.6501    1.2757    0.0000 C   0  0  0  0  0  0  0  0  0  0  0  0
    6.0729    0.8007    0.0000 C   0  0  0  0  0  0  0  0  0  0  0  0
    6.3729   -0.6690    0.0000 C   0  0  0  0  0  0  0  0  0  0  0  0
    7.1956    1.7954    0.0000 C   0  0  0  0  0  0  0  0  0  0  0  0
    7.7957   -1.1440    0.0000 C   0  0  0  0  0  0  0  0  0  0  0  0
    8.6184    1.3204    0.0000 C   0  0  0  0  0  0  0  0  0  0  0  0
    8.9185   -0.1493    0.0000 C   0  0  0  0  0  0  0  0  0  0  0  0
   -5.8323    0.6668    0.0000 C   0  0  0  0  0  0  0  0  0  0  0  0
   -5.0052    1.9182    0.0000 C   0  0  0  0  0  0  0  0  0  0  0  0
   -7.0837    1.4939    0.0000 C   0  0  0  0  0  0  0  0  0  0  0  0
   -6.2566    2.7452    0.0000 C   0  0  0  0  0  0  0  0  0  0  0  0
   -6.5566    4.2149    0.0000 O   0  0  0  0  0  0  0  0  0  0  0  0
  1  2  1  0
  2  3  2  0
  1  4  1  0
  5  1  1  0
  6  4  1  0
  7  5  1  0
  8  6  1  0
  7  8  2  0
  9  7  1  0
 10  8  1  0
 11  9  2  0
 12 10  2  0
 11 12  1  0
 13 11  1  0
 13 14  1  0
 15 13  2  0
 14 16  1  0
 16 17  1  0
 17 18  2  0
 17 19  1  0
 18 20  1  0
 19 21  2  0
 20 22  2  0
 21 22  1  0
 23  2  1  0
 24 23  1  0
 25 23  1  0
 26 24  1  0
 26 25  1  0
 27 26  2  0
M  END
>  <Rank>  (5) 
5

>  <CR_ID>  (5) 
R-009750

>  <Acid_Name>  (5) 
R-009750

>  <SMILES>  (5) 
O=C1CC(C(=O)N2CCc3ccc(C(=O)NCc4ccccc4)nc3C2)C1

>  <MPO_Score>  (5) 
0.9032

>  <MW>  (5) 
363.16

>  <cLogP>  (5) 
1.88 ± 0.40

>  <TPSA>  (5) 
79.4

>  <HBD>  (5) 
1

>  <HBA>  (5) 
4

>  <RotBonds>  (5) 
4

>  <Fsp3>  (5) 
0.333

>  <NumArRings>  (5) 
2

>  <logS_ESOL>  (5) 
-3.34 ± 0.93 log(mol/L)

>  <logS_AD>  (5) 
In

>  <logS_model>  (5) 
ESOL/Delaney-2004 (linear, n=1144, RMSE=0.93 log-units)

>  <logPapp_PAMPA>  (5) 
-6.11 ± 0.80 log(cm/s)

>  <logPapp_class>  (5) 
Medium

>  <logPapp_AD>  (5) 
In

>  <logPapp_model>  (5) 
Hou-2004 PAMPA linear (RMSE=0.8, n=100)

>  <MetStab_score>  (5) 
1.000 (0-1 scale)

>  <MetStab_t12>  (5) 
High (t½>60 min HLM)

>  <Clearance_route>  (5) 
CYP2D6/3A4 (basic-N + Ar)

>  <Met_alerts>  (5) 
None

>  <MetStab_model>  (5) 
Rule-based HLM classifier (cLogP+Fsp3+Ar-rings+alerts; heuristic ±1 class)

>  <CYP_risk>  (5) 
Low

>  <CYP_alerts>  (5) 
None

>  <CYP2D6_flag>  (5) 
False

>  <CYP3A4_flag>  (5) 
False

>  <CYP2C9_flag>  (5) 
False

>  <CYP_model>  (5) 
SMARTS alert panel (pharmacophore-based; flag only – no IC50 predicted)

>  <PPB_pct>  (5) 
89.9 ± 10 %

>  <PPB_fu>  (5) 
0.1008

>  <PPB_class>  (5) 
Moderate (80-90%)

>  <PPB_AD>  (5) 
In

>  <PPB_model>  (5) 
Valko-2003 logP-linear (RMSE≈10% PPB, n=87)

>  <hERG_risk>  (5) 
Low

>  <hERG_model>  (5) 
Structural-alert + cLogP (Redfern-2003 anchor; ±1 class)

>  <des_sol>  (5) 
0.864

>  <des_logp>  (5) 
0.938

>  <des_perm>  (5) 
0.593

>  <des_met>  (5) 
1.000

>  <des_cyp>  (5) 
1.000

>  <des_ppb>  (5) 
1.000

>  <des_herg>  (5) 
1.000

>  <des_mw>  (5) 
0.816

$$$$

     RDKit          2D

 28 31  0  0  0  0  0  0  0  0999 V2000
   -3.8263   -1.2148    0.0000 N   0  0  0  0  0  0  0  0  0  0  0  0
   -5.2452   -0.7283    0.0000 C   0  0  0  0  0  0  0  0  0  0  0  0
   -6.3760   -1.7139    0.0000 O   0  0  0  0  0  0  0  0  0  0  0  0
   -3.5381   -2.6869    0.0000 C   0  0  0  0  0  0  0  0  0  0  0  0
   -2.6955   -0.2292    0.0000 C   0  0  0  0  0  0  0  0  0  0  0  0
   -2.1192   -3.1733    0.0000 C   0  0  0  0  0  0  0  0  0  0  0  0
   -1.2766   -0.7157    0.0000 C   0  0  0  0  0  0  0  0  0  0  0  0
   -0.9884   -2.1877    0.0000 C   0  0  0  0  0  0  0  0  0  0  0  0
   -0.1459    0.2699    0.0000 N   0  0  0  0  0  0  0  0  0  0  0  0
    0.4305   -2.6742    0.0000 C   0  0  0  0  0  0  0  0  0  0  0  0
    1.2731   -0.2165    0.0000 C   0  0  0  0  0  0  0  0  0  0  0  0
    1.5612   -1.6886    0.0000 C   0  0  0  0  0  0  0  0  0  0  0  0
    2.4038    0.7691    0.0000 C   0  0  0  0  0  0  0  0  0  0  0  0
    3.8227    0.2826    0.0000 N   0  0  0  0  0  0  0  0  0  0  0  0
    2.1156    2.2411    0.0000 O   0  0  0  0  0  0  0  0  0  0  0  0
    4.9535    1.2682    0.0000 C   0  0  0  0  0  0  0  0  0  0  0  0
    6.3724    0.7817    0.0000 C   0  0  0  0  0  0  0  0  0  0  0  0
    6.6606   -0.6903    0.0000 C   0  0  0  0  0  0  0  0  0  0  0  0
    7.5032    1.7673    0.0000 C   0  0  0  0  0  0  0  0  0  0  0  0
    8.0795   -1.1768    0.0000 C   0  0  0  0  0  0  0  0  0  0  0  0
    8.9221    1.2809    0.0000 C   0  0  0  0  0  0  0  0  0  0  0  0
    9.2103   -0.1912    0.0000 C   0  0  0  0  0  0  0  0  0  0  0  0
   -5.5334    0.7437    0.0000 C   0  0  0  0  0  0  0  0  0  0  0  0
   -6.8937    1.3758    0.0000 N   0  0  0  0  0  0  0  0  0  0  0  0
   -4.5119    1.8421    0.0000 C   0  0  0  0  0  0  0  0  0  0  0  0
   -6.7129    2.8649    0.0000 C   0  0  0  0  0  0  0  0  0  0  0  0
   -8.2047    0.6469    0.0000 C   0  0  0  0  0  0  0  0  0  0  0  0
   -5.2408    3.1531    0.0000 N   0  0  0  0  0  0  0  0  0  0  0  0
  1  2  1  0
  2  3  2  0
  1  4  1  0
  5  1  1  0
  6  4  1  0
  7  5  1  0
  8  6  1  0
  7  8  2  0
  9  7  1  0
 10  8  1  0
 11  9  2  0
 12 10  2  0
 11 12  1  0
 13 11  1  0
 13 14  1  0
 15 13  2  0
 14 16  1  0
 16 17  1  0
 17 18  2  0
 17 19  1  0
 18 20  1  0
 19 21  2  0
 20 22  2  0
 21 22  1  0
  2 23  1  0
 23 24  1  0
 23 25  2  0
 24 26  1  0
 24 27  1  0
 25 28  1  0
 26 28  2  0
M  END
>  <Rank>  (6) 
6

>  <CR_ID>  (6) 
R-000758

>  <Acid_Name>  (6) 
R-000758

>  <SMILES>  (6) 
Cn1cncc1C(=O)N1CCc2ccc(C(=O)NCc3ccccc3)nc2C1

>  <MPO_Score>  (6) 
0.8972

>  <MW>  (6) 
375.17

>  <cLogP>  (6) 
1.94 ± 0.40

>  <TPSA>  (6) 
80.1

>  <HBD>  (6) 
1

>  <HBA>  (6) 
5

>  <RotBonds>  (6) 
4

>  <Fsp3>  (6) 
0.238

>  <NumArRings>  (6) 
3

>  <logS_ESOL>  (6) 
-3.58 ± 0.93 log(mol/L)

>  <logS_AD>  (6) 
In

>  <logS_model>  (6) 
ESOL/Delaney-2004 (linear, n=1144, RMSE=0.93 log-units)

>  <logPapp_PAMPA>  (6) 
-6.09 ± 0.80 log(cm/s)

>  <logPapp_class>  (6) 
Medium

>  <logPapp_AD>  (6) 
In

>  <logPapp_model>  (6) 
Hou-2004 PAMPA linear (RMSE=0.8, n=100)

>  <MetStab_score>  (6) 
1.000 (0-1 scale)

>  <MetStab_t12>  (6) 
High (t½>60 min HLM)

>  <Clearance_route>  (6) 
CYP2D6/3A4 (basic-N + Ar)

>  <Met_alerts>  (6) 
None

>  <MetStab_model>  (6) 
Rule-based HLM classifier (cLogP+Fsp3+Ar-rings+alerts; heuristic ±1 class)

>  <CYP_risk>  (6) 
Low

>  <CYP_alerts>  (6) 
None

>  <CYP2D6_flag>  (6) 
False

>  <CYP3A4_flag>  (6) 
False

>  <CYP2C9_flag>  (6) 
False

>  <CYP_model>  (6) 
SMARTS alert panel (pharmacophore-based; flag only – no IC50 predicted)

>  <PPB_pct>  (6) 
90.9 ± 10 %

>  <PPB_fu>  (6) 
0.0910

>  <PPB_class>  (6) 
High (90-95%)

>  <PPB_AD>  (6) 
In

>  <PPB_model>  (6) 
Valko-2003 logP-linear (RMSE≈10% PPB, n=87)

>  <hERG_risk>  (6) 
Low

>  <hERG_model>  (6) 
Structural-alert + cLogP (Redfern-2003 anchor; ±1 class)

>  <des_sol>  (6) 
0.768

>  <des_logp>  (6) 
0.972

>  <des_perm>  (6) 
0.607

>  <des_met>  (6) 
1.000

>  <des_cyp>  (6) 
1.000

>  <des_ppb>  (6) 
1.000

>  <des_herg>  (6) 
1.000

>  <des_mw>  (6) 
0.876

$$$$

     RDKit          2D

 28 31  0  0  0  0  0  0  0  0999 V2000
   -3.7884   -1.4720    0.0000 N   0  0  0  0  0  0  0  0  0  0  0  0
   -5.2244   -1.0385    0.0000 C   0  0  0  0  0  0  0  0  0  0  0  0
   -6.3178   -2.0653    0.0000 O   0  0  0  0  0  0  0  0  0  0  0  0
   -3.4458   -2.9323    0.0000 C   0  0  0  0  0  0  0  0  0  0  0  0
   -2.6949   -0.4451    0.0000 C   0  0  0  0  0  0  0  0  0  0  0  0
   -2.0098   -3.3659    0.0000 C   0  0  0  0  0  0  0  0  0  0  0  0
   -1.2589   -0.8787    0.0000 C   0  0  0  0  0  0  0  0  0  0  0  0
   -0.9164   -2.3390    0.0000 C   0  0  0  0  0  0  0  0  0  0  0  0
   -0.1655    0.1482    0.0000 N   0  0  0  0  0  0  0  0  0  0  0  0
    0.5196   -2.7725    0.0000 C   0  0  0  0  0  0  0  0  0  0  0  0
    1.2705   -0.2853    0.0000 C   0  0  0  0  0  0  0  0  0  0  0  0
    1.6130   -1.7457    0.0000 C   0  0  0  0  0  0  0  0  0  0  0  0
    2.3639    0.7415    0.0000 C   0  0  0  0  0  0  0  0  0  0  0  0
    3.7999    0.3080    0.0000 N   0  0  0  0  0  0  0  0  0  0  0  0
    2.0213    2.2019    0.0000 O   0  0  0  0  0  0  0  0  0  0  0  0
    4.8933    1.3349    0.0000 C   0  0  0  0  0  0  0  0  0  0  0  0
    6.3293    0.9014    0.0000 C   0  0  0  0  0  0  0  0  0  0  0  0
    6.6719   -0.5590    0.0000 C   0  0  0  0  0  0  0  0  0  0  0  0
    7.4227    1.9282    0.0000 C   0  0  0  0  0  0  0  0  0  0  0  0
    8.1079   -0.9925    0.0000 C   0  0  0  0  0  0  0  0  0  0  0  0
    8.8587    1.4947    0.0000 C   0  0  0  0  0  0  0  0  0  0  0  0
    9.2013    0.0343    0.0000 C   0  0  0  0  0  0  0  0  0  0  0  0
   -5.5669    0.4219    0.0000 C   0  0  0  0  0  0  0  0  0  0  0  0
   -6.9497    1.0031    0.0000 N   0  0  0  0  0  0  0  0  0  0  0  0
   -4.5868    1.5574    0.0000 C   0  0  0  0  0  0  0  0  0  0  0  0
   -6.8243    2.4979    0.0000 N   0  0  0  0  0  0  0  0  0  0  0  0
   -5.3639    2.8404    0.0000 C   0  0  0  0  0  0  0  0  0  0  0  0
   -7.9598    3.4780    0.0000 C   0  0  0  0  0  0  0  0  0  0  0  0
  1  2  1  0
  2  3  2  0
  1  4  1  0
  5  1  1  0
  6  4  1  0
  7  5  1  0
  8  6  1  0
  7  8  2  0
  9  7  1  0
 10  8  1  0
 11  9  2  0
 12 10  2  0
 11 12  1  0
 13 11  1  0
 13 14  1  0
 15 13  2  0
 14 16  1  0
 16 17  1  0
 17 18  2  0
 17 19  1  0
 18 20  1  0
 19 21  2  0
 20 22  2  0
 21 22  1  0
  2 23  1  0
 23 24  2  0
 23 25  1  0
 24 26  1  0
 25 27  2  0
 26 28  1  0
 26 27  1  0
M  END
>  <Rank>  (7) 
7

>  <CR_ID>  (7) 
R-011937

>  <Acid_Name>  (7) 
R-011937

>  <SMILES>  (7) 
Cn1ccc(C(=O)N2CCc3ccc(C(=O)NCc4ccccc4)nc3C2)n1

>  <MPO_Score>  (7) 
0.8972

>  <MW>  (7) 
375.17

>  <cLogP>  (7) 
1.94 ± 0.40

>  <TPSA>  (7) 
80.1

>  <HBD>  (7) 
1

>  <HBA>  (7) 
5

>  <RotBonds>  (7) 
4

>  <Fsp3>  (7) 
0.238

>  <NumArRings>  (7) 
3

>  <logS_ESOL>  (7) 
-3.58 ± 0.93 log(mol/L)

>  <logS_AD>  (7) 
In

>  <logS_model>  (7) 
ESOL/Delaney-2004 (linear, n=1144, RMSE=0.93 log-units)

>  <logPapp_PAMPA>  (7) 
-6.09 ± 0.80 log(cm/s)

>  <logPapp_class>  (7) 
Medium

>  <logPapp_AD>  (7) 
In

>  <logPapp_model>  (7) 
Hou-2004 PAMPA linear (RMSE=0.8, n=100)

>  <MetStab_score>  (7) 
1.000 (0-1 scale)

>  <MetStab_t12>  (7) 
High (t½>60 min HLM)

>  <Clearance_route>  (7) 
CYP2D6/3A4 (basic-N + Ar)

>  <Met_alerts>  (7) 
None

>  <MetStab_model>  (7) 
Rule-based HLM classifier (cLogP+Fsp3+Ar-rings+alerts; heuristic ±1 class)

>  <CYP_risk>  (7) 
Low

>  <CYP_alerts>  (7) 
None

>  <CYP2D6_flag>  (7) 
False

>  <CYP3A4_flag>  (7) 
False

>  <CYP2C9_flag>  (7) 
False

>  <CYP_model>  (7) 
SMARTS alert panel (pharmacophore-based; flag only – no IC50 predicted)

>  <PPB_pct>  (7) 
90.9 ± 10 %

>  <PPB_fu>  (7) 
0.0910

>  <PPB_class>  (7) 
High (90-95%)

>  <PPB_AD>  (7) 
In

>  <PPB_model>  (7) 
Valko-2003 logP-linear (RMSE≈10% PPB, n=87)

>  <hERG_risk>  (7) 
Low

>  <hERG_model>  (7) 
Structural-alert + cLogP (Redfern-2003 anchor; ±1 class)

>  <des_sol>  (7) 
0.768

>  <des_logp>  (7) 
0.972

>  <des_perm>  (7) 
0.607

>  <des_met>  (7) 
1.000

>  <des_cyp>  (7) 
1.000

>  <des_ppb>  (7) 
1.000

>  <des_herg>  (7) 
1.000

>  <des_mw>  (7) 
0.876

$$$$

     RDKit          2D

 28 31  0  0  0  0  0  0  0  0999 V2000
   -3.8263   -1.2148    0.0000 N   0  0  0  0  0  0  0  0  0  0  0  0
   -5.2452   -0.7283    0.0000 C   0  0  0  0  0  0  0  0  0  0  0  0
   -6.3760   -1.7139    0.0000 O   0  0  0  0  0  0  0  0  0  0  0  0
   -3.5381   -2.6869    0.0000 C   0  0  0  0  0  0  0  0  0  0  0  0
   -2.6955   -0.2292    0.0000 C   0  0  0  0  0  0  0  0  0  0  0  0
   -2.1192   -3.1733    0.0000 C   0  0  0  0  0  0  0  0  0  0  0  0
   -1.2766   -0.7157    0.0000 C   0  0  0  0  0  0  0  0  0  0  0  0
   -0.9884   -2.1877    0.0000 C   0  0  0  0  0  0  0  0  0  0  0  0
   -0.1459    0.2699    0.0000 N   0  0  0  0  0  0  0  0  0  0  0  0
    0.4305   -2.6742    0.0000 C   0  0  0  0  0  0  0  0  0  0  0  0
    1.2731   -0.2165    0.0000 C   0  0  0  0  0  0  0  0  0  0  0  0
    1.5612   -1.6886    0.0000 C   0  0  0  0  0  0  0  0  0  0  0  0
    2.4038    0.7691    0.0000 C   0  0  0  0  0  0  0  0  0  0  0  0
    3.8227    0.2826    0.0000 N   0  0  0  0  0  0  0  0  0  0  0  0
    2.1156    2.2411    0.0000 O   0  0  0  0  0  0  0  0  0  0  0  0
    4.9535    1.2682    0.0000 C   0  0  0  0  0  0  0  0  0  0  0  0
    6.3724    0.7817    0.0000 C   0  0  0  0  0  0  0  0  0  0  0  0
    6.6606   -0.6903    0.0000 C   0  0  0  0  0  0  0  0  0  0  0  0
    7.5032    1.7673    0.0000 C   0  0  0  0  0  0  0  0  0  0  0  0
    8.0795   -1.1768    0.0000 C   0  0  0  0  0  0  0  0  0  0  0  0
    8.9221    1.2809    0.0000 C   0  0  0  0  0  0  0  0  0  0  0  0
    9.2103   -0.1912    0.0000 C   0  0  0  0  0  0  0  0  0  0  0  0
   -5.5334    0.7437    0.0000 C   0  0  0  0  0  0  0  0  0  0  0  0
   -6.8937    1.3758    0.0000 N   0  0  0  0  0  0  0  0  0  0  0  0
   -4.5119    1.8421    0.0000 C   0  0  0  0  0  0  0  0  0  0  0  0
   -6.7129    2.8649    0.0000 N   0  0  0  0  0  0  0  0  0  0  0  0
   -8.2047    0.6469    0.0000 C   0  0  0  0  0  0  0  0  0  0  0  0
   -5.2408    3.1531    0.0000 C   0  0  0  0  0  0  0  0  0  0  0  0
  1  2  1  0
  2  3  2  0
  1  4  1  0
  5  1  1  0
  6  4  1  0
  7  5  1  0
  8  6  1  0
  7  8  2  0
  9  7  1  0
 10  8  1  0
 11  9  2  0
 12 10  2  0
 11 12  1  0
 13 11  1  0
 13 14  1  0
 15 13  2  0
 14 16  1  0
 16 17  1  0
 17 18  2  0
 17 19  1  0
 18 20  1  0
 19 21  2  0
 20 22  2  0
 21 22  1  0
  2 23  1  0
 23 24  1  0
 23 25  2  0
 24 26  1  0
 24 27  1  0
 25 28  1  0
 26 28  2  0
M  END
>  <Rank>  (8) 
8

>  <CR_ID>  (8) 
R-009772

>  <Acid_Name>  (8) 
R-009772

>  <SMILES>  (8) 
Cn1nccc1C(=O)N1CCc2ccc(C(=O)NCc3ccccc3)nc2C1

>  <MPO_Score>  (8) 
0.8972

>  <MW>  (8) 
375.17

>  <cLogP>  (8) 
1.94 ± 0.40

>  <TPSA>  (8) 
80.1

>  <HBD>  (8) 
1

>  <HBA>  (8) 
5

>  <RotBonds>  (8) 
4

>  <Fsp3>  (8) 
0.238

>  <NumArRings>  (8) 
3

>  <logS_ESOL>  (8) 
-3.58 ± 0.93 log(mol/L)

>  <logS_AD>  (8) 
In

>  <logS_model>  (8) 
ESOL/Delaney-2004 (linear, n=1144, RMSE=0.93 log-units)

>  <logPapp_PAMPA>  (8) 
-6.09 ± 0.80 log(cm/s)

>  <logPapp_class>  (8) 
Medium

>  <logPapp_AD>  (8) 
In

>  <logPapp_model>  (8) 
Hou-2004 PAMPA linear (RMSE=0.8, n=100)

>  <MetStab_score>  (8) 
1.000 (0-1 scale)

>  <MetStab_t12>  (8) 
High (t½>60 min HLM)

>  <Clearance_route>  (8) 
CYP2D6/3A4 (basic-N + Ar)

>  <Met_alerts>  (8) 
None

>  <MetStab_model>  (8) 
Rule-based HLM classifier (cLogP+Fsp3+Ar-rings+alerts; heuristic ±1 class)

>  <CYP_risk>  (8) 
Low

>  <CYP_alerts>  (8) 
None

>  <CYP2D6_flag>  (8) 
False

>  <CYP3A4_flag>  (8) 
False

>  <CYP2C9_flag>  (8) 
False

>  <CYP_model>  (8) 
SMARTS alert panel (pharmacophore-based; flag only – no IC50 predicted)

>  <PPB_pct>  (8) 
90.9 ± 10 %

>  <PPB_fu>  (8) 
0.0910

>  <PPB_class>  (8) 
High (90-95%)

>  <PPB_AD>  (8) 
In

>  <PPB_model>  (8) 
Valko-2003 logP-linear (RMSE≈10% PPB, n=87)

>  <hERG_risk>  (8) 
Low

>  <hERG_model>  (8) 
Structural-alert + cLogP (Redfern-2003 anchor; ±1 class)

>  <des_sol>  (8) 
0.768

>  <des_logp>  (8) 
0.972

>  <des_perm>  (8) 
0.607

>  <des_met>  (8) 
1.000

>  <des_cyp>  (8) 
1.000

>  <des_ppb>  (8) 
1.000

>  <des_herg>  (8) 
1.000

>  <des_mw>  (8) 
0.876

$$$$

     RDKit          2D

 28 31  0  0  0  0  0  0  0  0999 V2000
   -4.0116   -1.2504    0.0000 N   0  0  0  0  0  0  0  0  0  0  0  0
   -5.4304   -0.7637    0.0000 C   0  0  0  0  0  0  0  0  0  0  0  0
   -6.5613   -1.7491    0.0000 O   0  0  0  0  0  0  0  0  0  0  0  0
   -3.7236   -2.7225    0.0000 C   0  0  0  0  0  0  0  0  0  0  0  0
   -2.8806   -0.2650    0.0000 C   0  0  0  0  0  0  0  0  0  0  0  0
   -2.3048   -3.2092    0.0000 C   0  0  0  0  0  0  0  0  0  0  0  0
   -1.4618   -0.7517    0.0000 C   0  0  0  0  0  0  0  0  0  0  0  0
   -1.1738   -2.2238    0.0000 C   0  0  0  0  0  0  0  0  0  0  0  0
   -0.3309    0.2338    0.0000 N   0  0  0  0  0  0  0  0  0  0  0  0
    0.2450   -2.7105    0.0000 C   0  0  0  0  0  0  0  0  0  0  0  0
    1.0880   -0.2529    0.0000 C   0  0  0  0  0  0  0  0  0  0  0  0
    1.3759   -1.7250    0.0000 C   0  0  0  0  0  0  0  0  0  0  0  0
    2.2189    0.7325    0.0000 C   0  0  0  0  0  0  0  0  0  0  0  0
    3.6377    0.2458    0.0000 N   0  0  0  0  0  0  0  0  0  0  0  0
    1.9309    2.2046    0.0000 O   0  0  0  0  0  0  0  0  0  0  0  0
    4.7686    1.2312    0.0000 C   0  0  0  0  0  0  0  0  0  0  0  0
    6.1875    0.7446    0.0000 C   0  0  0  0  0  0  0  0  0  0  0  0
    6.4754   -0.7275    0.0000 C   0  0  0  0  0  0  0  0  0  0  0  0
    7.3184    1.7300    0.0000 C   0  0  0  0  0  0  0  0  0  0  0  0
    7.8943   -1.2142    0.0000 C   0  0  0  0  0  0  0  0  0  0  0  0
    8.7372    1.2433    0.0000 C   0  0  0  0  0  0  0  0  0  0  0  0
    9.0252   -0.2288    0.0000 C   0  0  0  0  0  0  0  0  0  0  0  0
   -5.7184    0.7084    0.0000 C   0  0  0  0  0  0  0  0  0  0  0  0
   -7.0786    1.3407    0.0000 N   0  0  0  0  0  0  0  0  0  0  0  0
   -4.6966    1.8066    0.0000 N   0  0  0  0  0  0  0  0  0  0  0  0
   -6.8975    2.8297    0.0000 C   0  0  0  0  0  0  0  0  0  0  0  0
   -5.4254    3.1177    0.0000 C   0  0  0  0  0  0  0  0  0  0  0  0
   -3.2076    1.6256    0.0000 C   0  0  0  0  0  0  0  0  0  0  0  0
  1  2  1  0
  2  3  2  0
  1  4  1  0
  5  1  1  0
  6  4  1  0
  7  5  1  0
  8  6  1  0
  7  8  2  0
  9  7  1  0
 10  8  1  0
 11  9  2  0
 12 10  2  0
 11 12  1  0
 13 11  1  0
 13 14  1  0
 15 13  2  0
 14 16  1  0
 16 17  1  0
 17 18  2  0
 17 19  1  0
 18 20  1  0
 19 21  2  0
 20 22  2  0
 21 22  1  0
  2 23  1  0
 23 24  2  0
 23 25  1  0
 24 26  1  0
 25 27  1  0
 25 28  1  0
 26 27  2  0
M  END
>  <Rank>  (9) 
9

>  <CR_ID>  (9) 
R-008661

>  <Acid_Name>  (9) 
R-008661

>  <SMILES>  (9) 
Cn1ccnc1C(=O)N1CCc2ccc(C(=O)NCc3ccccc3)nc2C1

>  <MPO_Score>  (9) 
0.8972

>  <MW>  (9) 
375.17

>  <cLogP>  (9) 
1.94 ± 0.40

>  <TPSA>  (9) 
80.1

>  <HBD>  (9) 
1

>  <HBA>  (9) 
5

>  <RotBonds>  (9) 
4

>  <Fsp3>  (9) 
0.238

>  <NumArRings>  (9) 
3

>  <logS_ESOL>  (9) 
-3.58 ± 0.93 log(mol/L)

>  <logS_AD>  (9) 
In

>  <logS_model>  (9) 
ESOL/Delaney-2004 (linear, n=1144, RMSE=0.93 log-units)

>  <logPapp_PAMPA>  (9) 
-6.09 ± 0.80 log(cm/s)

>  <logPapp_class>  (9) 
Medium

>  <logPapp_AD>  (9) 
In

>  <logPapp_model>  (9) 
Hou-2004 PAMPA linear (RMSE=0.8, n=100)

>  <MetStab_score>  (9) 
1.000 (0-1 scale)

>  <MetStab_t12>  (9) 
High (t½>60 min HLM)

>  <Clearance_route>  (9) 
CYP2D6/3A4 (basic-N + Ar)

>  <Met_alerts>  (9) 
None

>  <MetStab_model>  (9) 
Rule-based HLM classifier (cLogP+Fsp3+Ar-rings+alerts; heuristic ±1 class)

>  <CYP_risk>  (9) 
Low

>  <CYP_alerts>  (9) 
None

>  <CYP2D6_flag>  (9) 
False

>  <CYP3A4_flag>  (9) 
False

>  <CYP2C9_flag>  (9) 
False

>  <CYP_model>  (9) 
SMARTS alert panel (pharmacophore-based; flag only – no IC50 predicted)

>  <PPB_pct>  (9) 
90.9 ± 10 %

>  <PPB_fu>  (9) 
0.0910

>  <PPB_class>  (9) 
High (90-95%)

>  <PPB_AD>  (9) 
In

>  <PPB_model>  (9) 
Valko-2003 logP-linear (RMSE≈10% PPB, n=87)

>  <hERG_risk>  (9) 
Low

>  <hERG_model>  (9) 
Structural-alert + cLogP (Redfern-2003 anchor; ±1 class)

>  <des_sol>  (9) 
0.768

>  <des_logp>  (9) 
0.972

>  <des_perm>  (9) 
0.607

>  <des_met>  (9) 
1.000

>  <des_cyp>  (9) 
1.000

>  <des_ppb>  (9) 
1.000

>  <des_herg>  (9) 
1.000

>  <des_mw>  (9) 
0.876

$$$$

     RDKit          2D

 28 31  0  0  0  0  0  0  0  0999 V2000
   -3.9191   -1.4527    0.0000 N   0  0  0  0  0  0  0  0  0  0  0  0
   -5.3500   -1.0024    0.0000 C   0  0  0  0  0  0  0  0  0  0  0  0
   -6.4554   -2.0163    0.0000 O   0  0  0  0  0  0  0  0  0  0  0  0
   -3.5937   -2.9170    0.0000 C   0  0  0  0  0  0  0  0  0  0  0  0
   -2.8137   -0.4388    0.0000 C   0  0  0  0  0  0  0  0  0  0  0  0
   -2.1629   -3.3673    0.0000 C   0  0  0  0  0  0  0  0  0  0  0  0
   -1.3829   -0.8891    0.0000 C   0  0  0  0  0  0  0  0  0  0  0  0
   -1.0575   -2.3534    0.0000 C   0  0  0  0  0  0  0  0  0  0  0  0
   -0.2775    0.1248    0.0000 N   0  0  0  0  0  0  0  0  0  0  0  0
    0.3733   -2.8037    0.0000 C   0  0  0  0  0  0  0  0  0  0  0  0
    1.1533   -0.3255    0.0000 C   0  0  0  0  0  0  0  0  0  0  0  0
    1.4787   -1.7898    0.0000 C   0  0  0  0  0  0  0  0  0  0  0  0
    2.2587    0.6885    0.0000 C   0  0  0  0  0  0  0  0  0  0  0  0
    3.6895    0.2381    0.0000 N   0  0  0  0  0  0  0  0  0  0  0  0
    1.9333    2.1527    0.0000 O   0  0  0  0  0  0  0  0  0  0  0  0
    4.7949    1.2521    0.0000 C   0  0  0  0  0  0  0  0  0  0  0  0
    6.2257    0.8018    0.0000 C   0  0  0  0  0  0  0  0  0  0  0  0
    6.5511   -0.6625    0.0000 C   0  0  0  0  0  0  0  0  0  0  0  0
    7.3311    1.8157    0.0000 C   0  0  0  0  0  0  0  0  0  0  0  0
    7.9819   -1.1128    0.0000 C   0  0  0  0  0  0  0  0  0  0  0  0
    8.7619    1.3654    0.0000 C   0  0  0  0  0  0  0  0  0  0  0  0
    9.0873   -0.0989    0.0000 C   0  0  0  0  0  0  0  0  0  0  0  0
   -5.6754    0.4619    0.0000 C   0  0  0  0  0  0  0  0  0  0  0  0
   -7.0513    1.0593    0.0000 N   0  0  0  0  0  0  0  0  0  0  0  0
   -4.6820    1.5858    0.0000 C   0  0  0  0  0  0  0  0  0  0  0  0
   -6.9082    2.5525    0.0000 C   0  0  0  0  0  0  0  0  0  0  0  0
   -5.4440    2.8779    0.0000 N   0  0  0  0  0  0  0  0  0  0  0  0
   -4.8465    4.2538    0.0000 C   0  0  0  0  0  0  0  0  0  0  0  0
  1  2  1  0
  2  3  2  0
  1  4  1  0
  5  1  1  0
  6  4  1  0
  7  5  1  0
  8  6  1  0
  7  8  2  0
  9  7  1  0
 10  8  1  0
 11  9  2  0
 12 10  2  0
 11 12  1  0
 13 11  1  0
 13 14  1  0
 15 13  2  0
 14 16  1  0
 16 17  1  0
 17 18  2  0
 17 19  1  0
 18 20  1  0
 19 21  2  0
 20 22  2  0
 21 22  1  0
  2 23  1  0
 23 24  1  0
 23 25  2  0
 24 26  2  0
 25 27  1  0
 26 27  1  0
 27 28  1  0
M  END
>  <Rank>  (10) 
10

>  <CR_ID>  (10) 
R-009779

>  <Acid_Name>  (10) 
R-009779

>  <SMILES>  (10) 
Cn1cnc(C(=O)N2CCc3ccc(C(=O)NCc4ccccc4)nc3C2)c1

>  <MPO_Score>  (10) 
0.8972

>  <MW>  (10) 
375.17

>  <cLogP>  (10) 
1.94 ± 0.40

>  <TPSA>  (10) 
80.1

>  <HBD>  (10) 
1

>  <HBA>  (10) 
5

>  <RotBonds>  (10) 
4

>  <Fsp3>  (10) 
0.238

>  <NumArRings>  (10) 
3

>  <logS_ESOL>  (10) 
-3.58 ± 0.93 log(mol/L)

>  <logS_AD>  (10) 
In

>  <logS_model>  (10) 
ESOL/Delaney-2004 (linear, n=1144, RMSE=0.93 log-units)

>  <logPapp_PAMPA>  (10) 
-6.09 ± 0.80 log(cm/s)

>  <logPapp_class>  (10) 
Medium

>  <logPapp_AD>  (10) 
In

>  <logPapp_model>  (10) 
Hou-2004 PAMPA linear (RMSE=0.8, n=100)

>  <MetStab_score>  (10) 
1.000 (0-1 scale)

>  <MetStab_t12>  (10) 
High (t½>60 min HLM)

>  <Clearance_route>  (10) 
CYP2D6/3A4 (basic-N + Ar)

>  <Met_alerts>  (10) 
None

>  <MetStab_model>  (10) 
Rule-based HLM classifier (cLogP+Fsp3+Ar-rings+alerts; heuristic ±1 class)

>  <CYP_risk>  (10) 
Low

>  <CYP_alerts>  (10) 
None

>  <CYP2D6_flag>  (10) 
False

>  <CYP3A4_flag>  (10) 
False

>  <CYP2C9_flag>  (10) 
False

>  <CYP_model>  (10) 
SMARTS alert panel (pharmacophore-based; flag only – no IC50 predicted)

>  <PPB_pct>  (10) 
90.9 ± 10 %

>  <PPB_fu>  (10) 
0.0910

>  <PPB_class>  (10) 
High (90-95%)

>  <PPB_AD>  (10) 
In

>  <PPB_model>  (10) 
Valko-2003 logP-linear (RMSE≈10% PPB, n=87)

>  <hERG_risk>  (10) 
Low

>  <hERG_model>  (10) 
Structural-alert + cLogP (Redfern-2003 anchor; ±1 class)

>  <des_sol>  (10) 
0.768

>  <des_logp>  (10) 
0.972

>  <des_perm>  (10) 
0.607

>  <des_met>  (10) 
1.000

>  <des_cyp>  (10) 
1.000

>  <des_ppb>  (10) 
1.000

>  <des_herg>  (10) 
1.000

>  <des_mw>  (10) 
0.876

$$$$

     RDKit          2D

 29 31  0  0  0  0  0  0  0  0999 V2000
   -2.4248    0.6570    0.0000 N   0  0  0  0  0  0  0  0  0  0  0  0
   -3.4303   -0.4560    0.0000 C   0  0  0  0  0  0  0  0  0  0  0  0
   -2.9691   -1.8834    0.0000 O   0  0  0  0  0  0  0  0  0  0  0  0
   -2.8859    2.0844    0.0000 C   0  0  0  0  0  0  0  0  0  0  0  0
   -0.9581    0.3427    0.0000 C   0  0  0  0  0  0  0  0  0  0  0  0
   -1.8804    3.1974    0.0000 C   0  0  0  0  0  0  0  0  0  0  0  0
    0.0475    1.4558    0.0000 C   0  0  0  0  0  0  0  0  0  0  0  0
   -0.4137    2.8831    0.0000 C   0  0  0  0  0  0  0  0  0  0  0  0
    1.5142    1.1415    0.0000 N   0  0  0  0  0  0  0  0  0  0  0  0
    0.5918    3.9962    0.0000 C   0  0  0  0  0  0  0  0  0  0  0  0
    2.5197    2.2546    0.0000 C   0  0  0  0  0  0  0  0  0  0  0  0
    2.0585    3.6819    0.0000 C   0  0  0  0  0  0  0  0  0  0  0  0
    3.9864    1.9403    0.0000 C   0  0  0  0  0  0  0  0  0  0  0  0
    4.4476    0.5129    0.0000 N   0  0  0  0  0  0  0  0  0  0  0  0
    4.9919    3.0533    0.0000 O   0  0  0  0  0  0  0  0  0  0  0  0
    5.9143    0.1986    0.0000 C   0  0  0  0  0  0  0  0  0  0  0  0
    6.3754   -1.2287    0.0000 C   0  0  0  0  0  0  0  0  0  0  0  0
    5.3699   -2.3418    0.0000 C   0  0  0  0  0  0  0  0  0  0  0  0
    7.8422   -1.5430    0.0000 C   0  0  0  0  0  0  0  0  0  0  0  0
    5.8311   -3.7691    0.0000 C   0  0  0  0  0  0  0  0  0  0  0  0
    8.3033   -2.9704    0.0000 C   0  0  0  0  0  0  0  0  0  0  0  0
    7.2978   -4.0834    0.0000 C   0  0  0  0  0  0  0  0  0  0  0  0
   -4.8970   -0.1417    0.0000 C   0  0  0  0  0  0  0  0  0  0  0  0
   -5.9026   -1.2548    0.0000 C   0  0  0  0  0  0  0  0  0  0  0  0
   -7.3693   -0.9405    0.0000 C   0  0  0  0  0  0  0  0  0  0  0  0
   -7.8304    0.4868    0.0000 O   0  0  0  0  0  0  0  0  0  0  0  0
   -8.3748   -2.0536    0.0000 N   0  0  0  0  0  0  0  0  0  0  0  0
   -9.8415   -1.7393    0.0000 C   0  0  0  0  0  0  0  0  0  0  0  0
   -7.9136   -3.4809    0.0000 C   0  0  0  0  0  0  0  0  0  0  0  0
  1  2  1  0
  2  3  2  0
  1  4  1  0
  5  1  1  0
  6  4  1  0
  7  5  1  0
  8  6  1  0
  7  8  2  0
  9  7  1  0
 10  8  1  0
 11  9  2  0
 12 10  2  0
 11 12  1  0
 13 11  1  0
 13 14  1  0
 15 13  2  0
 14 16  1  0
 16 17  1  0
 17 18  2  0
 17 19  1  0
 18 20  1  0
 19 21  2  0
 20 22  2  0
 21 22  1  0
  2 23  1  0
 23 24  1  0
 24 25  1  0
 25 26  2  0
 25 27  1  0
 27 28  1  0
 27 29  1  0
M  END
>  <Rank>  (11) 
11

>  <CR_ID>  (11) 
R-009170

>  <Acid_Name>  (11) 
R-009170

>  <SMILES>  (11) 
CN(C)C(=O)CCC(=O)N1CCc2ccc(C(=O)NCc3ccccc3)nc2C1

>  <MPO_Score>  (11) 
0.8942

>  <MW>  (11) 
394.20

>  <cLogP>  (11) 
1.76 ± 0.40

>  <TPSA>  (11) 
82.6

>  <HBD>  (11) 
1

>  <HBA>  (11) 
4

>  <RotBonds>  (11) 
6

>  <Fsp3>  (11) 
0.364

>  <NumArRings>  (11) 
2

>  <logS_ESOL>  (11) 
-3.31 ± 0.93 log(mol/L)

>  <logS_AD>  (11) 
In

>  <logS_model>  (11) 
ESOL/Delaney-2004 (linear, n=1144, RMSE=0.93 log-units)

>  <logPapp_PAMPA>  (11) 
-6.24 ± 0.80 log(cm/s)

>  <logPapp_class>  (11) 
Medium

>  <logPapp_AD>  (11) 
In

>  <logPapp_model>  (11) 
Hou-2004 PAMPA linear (RMSE=0.8, n=100)

>  <MetStab_score>  (11) 
1.000 (0-1 scale)

>  <MetStab_t12>  (11) 
High (t½>60 min HLM)

>  <Clearance_route>  (11) 
CYP2D6/3A4 (basic-N + Ar)

>  <Met_alerts>  (11) 
None

>  <MetStab_model>  (11) 
Rule-based HLM classifier (cLogP+Fsp3+Ar-rings+alerts; heuristic ±1 class)

>  <CYP_risk>  (11) 
Low

>  <CYP_alerts>  (11) 
None

>  <CYP2D6_flag>  (11) 
False

>  <CYP3A4_flag>  (11) 
False

>  <CYP2C9_flag>  (11) 
False

>  <CYP_model>  (11) 
SMARTS alert panel (pharmacophore-based; flag only – no IC50 predicted)

>  <PPB_pct>  (11) 
88.1 ± 10 %

>  <PPB_fu>  (11) 
0.1187

>  <PPB_class>  (11) 
Moderate (80-90%)

>  <PPB_AD>  (11) 
In

>  <PPB_model>  (11) 
Valko-2003 logP-linear (RMSE≈10% PPB, n=87)

>  <hERG_risk>  (11) 
Low

>  <hERG_model>  (11) 
Structural-alert + cLogP (Redfern-2003 anchor; ±1 class)

>  <des_sol>  (11) 
0.876

>  <des_logp>  (11) 
0.882

>  <des_perm>  (11) 
0.507

>  <des_met>  (11) 
1.000

>  <des_cyp>  (11) 
1.000

>  <des_ppb>  (11) 
1.000

>  <des_herg>  (11) 
1.000

>  <des_mw>  (11) 
0.971

$$$$

     RDKit          2D

 28 30  0  0  0  0  0  0  0  0999 V2000
   -2.5927    0.6791    0.0000 N   0  0  0  0  0  0  0  0  0  0  0  0
   -3.6098   -0.4234    0.0000 C   0  0  0  0  0  0  0  0  0  0  0  0
   -3.1636   -1.8555    0.0000 O   0  0  0  0  0  0  0  0  0  0  0  0
   -3.0389    2.1112    0.0000 C   0  0  0  0  0  0  0  0  0  0  0  0
   -1.1294    0.3495    0.0000 C   0  0  0  0  0  0  0  0  0  0  0  0
   -2.0218    3.2137    0.0000 C   0  0  0  0  0  0  0  0  0  0  0  0
   -0.1123    1.4520    0.0000 C   0  0  0  0  0  0  0  0  0  0  0  0
   -0.5585    2.8841    0.0000 C   0  0  0  0  0  0  0  0  0  0  0  0
    1.3511    1.1224    0.0000 N   0  0  0  0  0  0  0  0  0  0  0  0
    0.4586    3.9866    0.0000 C   0  0  0  0  0  0  0  0  0  0  0  0
    2.3682    2.2249    0.0000 C   0  0  0  0  0  0  0  0  0  0  0  0
    1.9220    3.6570    0.0000 C   0  0  0  0  0  0  0  0  0  0  0  0
    3.8315    1.8953    0.0000 C   0  0  0  0  0  0  0  0  0  0  0  0
    4.2778    0.4632    0.0000 N   0  0  0  0  0  0  0  0  0  0  0  0
    4.8486    2.9977    0.0000 O   0  0  0  0  0  0  0  0  0  0  0  0
    5.7411    0.1336    0.0000 C   0  0  0  0  0  0  0  0  0  0  0  0
    6.1873   -1.2985    0.0000 C   0  0  0  0  0  0  0  0  0  0  0  0
    5.1702   -2.4010    0.0000 C   0  0  0  0  0  0  0  0  0  0  0  0
    7.6507   -1.6281    0.0000 C   0  0  0  0  0  0  0  0  0  0  0  0
    5.6164   -3.8331    0.0000 C   0  0  0  0  0  0  0  0  0  0  0  0
    8.0969   -3.0602    0.0000 C   0  0  0  0  0  0  0  0  0  0  0  0
    7.0798   -4.1627    0.0000 C   0  0  0  0  0  0  0  0  0  0  0  0
   -5.0732   -0.0938    0.0000 C   0  0  0  0  0  0  0  0  0  0  0  0
   -6.0903   -1.1963    0.0000 O   0  0  0  0  0  0  0  0  0  0  0  0
   -7.5536   -0.8667    0.0000 C   0  0  0  0  0  0  0  0  0  0  0  0
   -8.5707   -1.9691    0.0000 C   0  0  0  0  0  0  0  0  0  0  0  0
  -10.0341   -1.6395    0.0000 O   0  0  0  0  0  0  0  0  0  0  0  0
  -11.0512   -2.7420    0.0000 C   0  0  0  0  0  0  0  0  0  0  0  0
  1  2  1  0
  2  3  2  0
  1  4  1  0
  5  1  1  0
  6  4  1  0
  7  5  1  0
  8  6  1  0
  7  8  2  0
  9  7  1  0
 10  8  1  0
 11  9  2  0
 12 10  2  0
 11 12  1  0
 13 11  1  0
 13 14  1  0
 15 13  2  0
 14 16  1  0
 16 17  1  0
 17 18  2  0
 17 19  1  0
 18 20  1  0
 19 21  2  0
 20 22  2  0
 21 22  1  0
  2 23  1  0
 23 24  1  0
 24 25  1  0
 25 26  1  0
 26 27  1  0
 27 28  1  0
M  END
>  <Rank>  (12) 
12

>  <CR_ID>  (12) 
R-005066

>  <Acid_Name>  (12) 
R-005066

>  <SMILES>  (12) 
COCCOCC(=O)N1CCc2ccc(C(=O)NCc3ccccc3)nc2C1

>  <MPO_Score>  (12) 
0.8938

>  <MW>  (12) 
383.18

>  <cLogP>  (12) 
1.56 ± 0.40

>  <TPSA>  (12) 
80.8

>  <HBD>  (12) 
1

>  <HBA>  (12) 
5

>  <RotBonds>  (12) 
8

>  <Fsp3>  (12) 
0.381

>  <NumArRings>  (12) 
2

>  <logS_ESOL>  (12) 
-2.99 ± 0.93 log(mol/L)

>  <logS_AD>  (12) 
In

>  <logS_model>  (12) 
ESOL/Delaney-2004 (linear, n=1144, RMSE=0.93 log-units)

>  <logPapp_PAMPA>  (12) 
-6.30 ± 0.80 log(cm/s)

>  <logPapp_class>  (12) 
Medium

>  <logPapp_AD>  (12) 
In

>  <logPapp_model>  (12) 
Hou-2004 PAMPA linear (RMSE=0.8, n=100)

>  <MetStab_score>  (12) 
1.000 (0-1 scale)

>  <MetStab_t12>  (12) 
High (t½>60 min HLM)

>  <Clearance_route>  (12) 
CYP2D6/3A4 (basic-N + Ar)

>  <Met_alerts>  (12) 
None

>  <MetStab_model>  (12) 
Rule-based HLM classifier (cLogP+Fsp3+Ar-rings+alerts; heuristic ±1 class)

>  <CYP_risk>  (12) 
Low

>  <CYP_alerts>  (12) 
None

>  <CYP2D6_flag>  (12) 
False

>  <CYP3A4_flag>  (12) 
False

>  <CYP2C9_flag>  (12) 
False

>  <CYP_model>  (12) 
SMARTS alert panel (pharmacophore-based; flag only – no IC50 predicted)

>  <PPB_pct>  (12) 
84.1 ± 10 %

>  <PPB_fu>  (12) 
0.1592

>  <PPB_class>  (12) 
Moderate (80-90%)

>  <PPB_AD>  (12) 
In

>  <PPB_model>  (12) 
Valko-2003 logP-linear (RMSE≈10% PPB, n=87)

>  <hERG_risk>  (12) 
Low

>  <hERG_model>  (12) 
Structural-alert + cLogP (Redfern-2003 anchor; ±1 class)

>  <des_sol>  (12) 
1.000

>  <des_logp>  (12) 
0.780

>  <des_perm>  (12) 
0.467

>  <des_met>  (12) 
1.000

>  <des_cyp>  (12) 
1.000

>  <des_ppb>  (12) 
1.000

>  <des_herg>  (12) 
1.000

>  <des_mw>  (12) 
0.916

$$$$

     RDKit          2D

 25 27  0  0  0  0  0  0  0  0999 V2000
   -3.8250   -0.1323    0.0000 N   0  0  0  0  0  0  0  0  0  0  0  0
   -4.6523   -1.3836    0.0000 C   0  0  0  0  0  0  0  0  0  0  0  0
   -3.9824   -2.7256    0.0000 O   0  0  0  0  0  0  0  0  0  0  0  0
   -4.4950    1.2097    0.0000 C   0  0  0  0  0  0  0  0  0  0  0  0
   -2.3278   -0.2232    0.0000 C   0  0  0  0  0  0  0  0  0  0  0  0
   -3.6677    2.4610    0.0000 C   0  0  0  0  0  0  0  0  0  0  0  0
   -1.5005    1.0281    0.0000 C   0  0  0  0  0  0  0  0  0  0  0  0
   -2.1705    2.3701    0.0000 C   0  0  0  0  0  0  0  0  0  0  0  0
   -0.0032    0.9372    0.0000 N   0  0  0  0  0  0  0  0  0  0  0  0
   -1.3432    3.6214    0.0000 C   0  0  0  0  0  0  0  0  0  0  0  0
    0.8240    2.1885    0.0000 C   0  0  0  0  0  0  0  0  0  0  0  0
    0.1541    3.5305    0.0000 C   0  0  0  0  0  0  0  0  0  0  0  0
    2.3213    2.0976    0.0000 C   0  0  0  0  0  0  0  0  0  0  0  0
    2.9912    0.7555    0.0000 N   0  0  0  0  0  0  0  0  0  0  0  0
    3.1486    3.3489    0.0000 O   0  0  0  0  0  0  0  0  0  0  0  0
    4.4885    0.6647    0.0000 C   0  0  0  0  0  0  0  0  0  0  0  0
    5.1584   -0.6774    0.0000 C   0  0  0  0  0  0  0  0  0  0  0  0
    4.3312   -1.9286    0.0000 C   0  0  0  0  0  0  0  0  0  0  0  0
    6.6557   -0.7682    0.0000 C   0  0  0  0  0  0  0  0  0  0  0  0
    5.0011   -3.2707    0.0000 C   0  0  0  0  0  0  0  0  0  0  0  0
    7.3257   -2.1103    0.0000 C   0  0  0  0  0  0  0  0  0  0  0  0
    6.4984   -3.3615    0.0000 C   0  0  0  0  0  0  0  0  0  0  0  0
   -6.1496   -1.2927    0.0000 C   0  0  0  0  0  0  0  0  0  0  0  0
   -6.9769   -2.5440    0.0000 C   0  0  0  0  0  0  0  0  0  0  0  0
   -7.8042   -3.7952    0.0000 N   0  0  0  0  0  0  0  0  0  0  0  0
  1  2  1  0
  2  3  2  0
  1  4  1  0
  5  1  1  0
  6  4  1  0
  7  5  1  0
  8  6  1  0
  7  8  2  0
  9  7  1  0
 10  8  1  0
 11  9  2  0
 12 10  2  0
 11 12  1  0
 13 11  1  0
 13 14  1  0
 15 13  2  0
 14 16  1  0
 16 17  1  0
 17 18  2  0
 17 19  1  0
 18 20  1  0
 19 21  2  0
 20 22  2  0
 21 22  1  0
  2 23  1  0
 23 24  1  0
 24 25  3  0
M  END
>  <Rank>  (13) 
13

>  <CR_ID>  (13) 
R-004810

>  <Acid_Name>  (13) 
R-004810

>  <SMILES>  (13) 
N#CCC(=O)N1CCc2ccc(C(=O)NCc3ccccc3)nc2C1

>  <MPO_Score>  (13) 
0.8936

>  <MW>  (13) 
334.14

>  <cLogP>  (13) 
1.81 ± 0.40

>  <TPSA>  (13) 
86.1

>  <HBD>  (13) 
1

>  <HBA>  (13) 
4

>  <RotBonds>  (13) 
4

>  <Fsp3>  (13) 
0.263

>  <NumArRings>  (13) 
2

>  <logS_ESOL>  (13) 
-3.14 ± 0.93 log(mol/L)

>  <logS_AD>  (13) 
In

>  <logS_model>  (13) 
ESOL/Delaney-2004 (linear, n=1144, RMSE=0.93 log-units)

>  <logPapp_PAMPA>  (13) 
-6.22 ± 0.80 log(cm/s)

>  <logPapp_class>  (13) 
Medium

>  <logPapp_AD>  (13) 
In

>  <logPapp_model>  (13) 
Hou-2004 PAMPA linear (RMSE=0.8, n=100)

>  <MetStab_score>  (13) 
1.000 (0-1 scale)

>  <MetStab_t12>  (13) 
High (t½>60 min HLM)

>  <Clearance_route>  (13) 
CYP2D6/3A4 (basic-N + Ar)

>  <Met_alerts>  (13) 
None

>  <MetStab_model>  (13) 
Rule-based HLM classifier (cLogP+Fsp3+Ar-rings+alerts; heuristic ±1 class)

>  <CYP_risk>  (13) 
Low

>  <CYP_alerts>  (13) 
None

>  <CYP2D6_flag>  (13) 
False

>  <CYP3A4_flag>  (13) 
False

>  <CYP2C9_flag>  (13) 
False

>  <CYP_model>  (13) 
SMARTS alert panel (pharmacophore-based; flag only – no IC50 predicted)

>  <PPB_pct>  (13) 
88.9 ± 10 %

>  <PPB_fu>  (13) 
0.1111

>  <PPB_class>  (13) 
Moderate (80-90%)

>  <PPB_AD>  (13) 
In

>  <PPB_model>  (13) 
Valko-2003 logP-linear (RMSE≈10% PPB, n=87)

>  <hERG_risk>  (13) 
Low

>  <hERG_model>  (13) 
Structural-alert + cLogP (Redfern-2003 anchor; ±1 class)

>  <des_sol>  (13) 
0.944

>  <des_logp>  (13) 
0.905

>  <des_perm>  (13) 
0.520

>  <des_met>  (13) 
1.000

>  <des_cyp>  (13) 
1.000

>  <des_ppb>  (13) 
1.000

>  <des_herg>  (13) 
1.000

>  <des_mw>  (13) 
0.671

$$$$

     RDKit          2D

 28 31  0  0  0  0  0  0  0  0999 V2000
   -3.4841   -1.1923    0.0000 N   0  0  0  0  0  0  0  0  0  0  0  0
   -4.9081   -0.7209    0.0000 C   0  0  0  0  0  0  0  0  0  0  0  0
   -6.0284   -1.7184    0.0000 O   0  0  0  0  0  0  0  0  0  0  0  0
   -3.1804   -2.6612    0.0000 C   0  0  0  0  0  0  0  0  0  0  0  0
   -2.3639   -0.1948    0.0000 C   0  0  0  0  0  0  0  0  0  0  0  0
   -1.7564   -3.1327    0.0000 C   0  0  0  0  0  0  0  0  0  0  0  0
   -0.9399   -0.6662    0.0000 C   0  0  0  0  0  0  0  0  0  0  0  0
   -0.6362   -2.1352    0.0000 C   0  0  0  0  0  0  0  0  0  0  0  0
    0.1804    0.3312    0.0000 N   0  0  0  0  0  0  0  0  0  0  0  0
    0.7878   -2.6066    0.0000 C   0  0  0  0  0  0  0  0  0  0  0  0
    1.6044   -0.1402    0.0000 C   0  0  0  0  0  0  0  0  0  0  0  0
    1.9081   -1.6091    0.0000 C   0  0  0  0  0  0  0  0  0  0  0  0
    2.7246    0.8573    0.0000 C   0  0  0  0  0  0  0  0  0  0  0  0
    4.1486    0.3859    0.0000 N   0  0  0  0  0  0  0  0  0  0  0  0
    2.4209    2.3262    0.0000 O   0  0  0  0  0  0  0  0  0  0  0  0
    5.2689    1.3834    0.0000 C   0  0  0  0  0  0  0  0  0  0  0  0
    6.6929    0.9119    0.0000 C   0  0  0  0  0  0  0  0  0  0  0  0
    6.9966   -0.5570    0.0000 C   0  0  0  0  0  0  0  0  0  0  0  0
    7.8132    1.9094    0.0000 C   0  0  0  0  0  0  0  0  0  0  0  0
    8.4206   -1.0285    0.0000 C   0  0  0  0  0  0  0  0  0  0  0  0
    9.2372    1.4380    0.0000 C   0  0  0  0  0  0  0  0  0  0  0  0
    9.5409   -0.0310    0.0000 C   0  0  0  0  0  0  0  0  0  0  0  0
   -5.2119    0.7481    0.0000 C   0  0  0  0  0  0  0  0  0  0  0  0
   -6.6358    1.2195    0.0000 N   0  0  0  0  0  0  0  0  0  0  0  0
   -7.8542    0.3446    0.0000 N   0  0  0  0  0  0  0  0  0  0  0  0
   -7.0914    2.6486    0.0000 C   0  0  0  0  0  0  0  0  0  0  0  0
   -9.0629    1.2330    0.0000 C   0  0  0  0  0  0  0  0  0  0  0  0
   -8.5914    2.6570    0.0000 C   0  0  0  0  0  0  0  0  0  0  0  0
  1  2  1  0
  2  3  2  0
  1  4  1  0
  5  1  1  0
  6  4  1  0
  7  5  1  0
  8  6  1  0
  7  8  2  0
  9  7  1  0
 10  8  1  0
 11  9  2  0
 12 10  2  0
 11 12  1  0
 13 11  1  0
 13 14  1  0
 15 13  2  0
 14 16  1  0
 16 17  1  0
 17 18  2  0
 17 19  1  0
 18 20  1  0
 19 21  2  0
 20 22  2  0
 21 22  1  0
  2 23  1  0
 23 24  1  0
 24 25  1  0
 24 26  1  0
 25 27  2  0
 26 28  2  0
 27 28  1  0
M  END
>  <Rank>  (14) 
14

>  <CR_ID>  (14) 
R-009773

>  <Acid_Name>  (14) 
R-009773

>  <SMILES>  (14) 
O=C(NCc1ccccc1)c1ccc2c(n1)CN(C(=O)Cn1cccn1)CC2

>  <MPO_Score>  (14) 
0.8918

>  <MW>  (14) 
375.17

>  <cLogP>  (14) 
1.79 ± 0.40

>  <TPSA>  (14) 
80.1

>  <HBD>  (14) 
1

>  <HBA>  (14) 
5

>  <RotBonds>  (14) 
5

>  <Fsp3>  (14) 
0.238

>  <NumArRings>  (14) 
3

>  <logS_ESOL>  (14) 
-3.41 ± 0.93 log(mol/L)

>  <logS_AD>  (14) 
In

>  <logS_model>  (14) 
ESOL/Delaney-2004 (linear, n=1144, RMSE=0.93 log-units)

>  <logPapp_PAMPA>  (14) 
-6.17 ± 0.80 log(cm/s)

>  <logPapp_class>  (14) 
Medium

>  <logPapp_AD>  (14) 
In

>  <logPapp_model>  (14) 
Hou-2004 PAMPA linear (RMSE=0.8, n=100)

>  <MetStab_score>  (14) 
1.000 (0-1 scale)

>  <MetStab_t12>  (14) 
High (t½>60 min HLM)

>  <Clearance_route>  (14) 
CYP2D6/3A4 (basic-N + Ar)

>  <Met_alerts>  (14) 
None

>  <MetStab_model>  (14) 
Rule-based HLM classifier (cLogP+Fsp3+Ar-rings+alerts; heuristic ±1 class)

>  <CYP_risk>  (14) 
Low

>  <CYP_alerts>  (14) 
None

>  <CYP2D6_flag>  (14) 
False

>  <CYP3A4_flag>  (14) 
False

>  <CYP2C9_flag>  (14) 
False

>  <CYP_model>  (14) 
SMARTS alert panel (pharmacophore-based; flag only – no IC50 predicted)

>  <PPB_pct>  (14) 
88.6 ± 10 %

>  <PPB_fu>  (14) 
0.1139

>  <PPB_class>  (14) 
Moderate (80-90%)

>  <PPB_AD>  (14) 
In

>  <PPB_model>  (14) 
Valko-2003 logP-linear (RMSE≈10% PPB, n=87)

>  <hERG_risk>  (14) 
Low

>  <hERG_model>  (14) 
Structural-alert + cLogP (Redfern-2003 anchor; ±1 class)

>  <des_sol>  (14) 
0.836

>  <des_logp>  (14) 
0.896

>  <des_perm>  (14) 
0.553

>  <des_met>  (14) 
1.000

>  <des_cyp>  (14) 
1.000

>  <des_ppb>  (14) 
1.000

>  <des_herg>  (14) 
1.000

>  <des_mw>  (14) 
0.876

$$$$

     RDKit          2D

 26 28  0  0  0  0  0  0  0  0999 V2000
   -3.6096   -0.4181    0.0000 N   0  0  0  0  0  0  0  0  0  0  0  0
   -4.3709   -1.7105    0.0000 C   0  0  0  0  0  0  0  0  0  0  0  0
   -3.6323   -3.0161    0.0000 O   0  0  0  0  0  0  0  0  0  0  0  0
   -4.3482    0.8875    0.0000 C   0  0  0  0  0  0  0  0  0  0  0  0
   -2.1096   -0.4312    0.0000 C   0  0  0  0  0  0  0  0  0  0  0  0
   -3.5868    2.1799    0.0000 C   0  0  0  0  0  0  0  0  0  0  0  0
   -1.3483    0.8612    0.0000 C   0  0  0  0  0  0  0  0  0  0  0  0
   -2.0869    2.1668    0.0000 C   0  0  0  0  0  0  0  0  0  0  0  0
    0.1517    0.8481    0.0000 N   0  0  0  0  0  0  0  0  0  0  0  0
   -1.3256    3.4592    0.0000 C   0  0  0  0  0  0  0  0  0  0  0  0
    0.9130    2.1405    0.0000 C   0  0  0  0  0  0  0  0  0  0  0  0
    0.1744    3.4461    0.0000 C   0  0  0  0  0  0  0  0  0  0  0  0
    2.4129    2.1274    0.0000 C   0  0  0  0  0  0  0  0  0  0  0  0
    3.1515    0.8218    0.0000 N   0  0  0  0  0  0  0  0  0  0  0  0
    3.1743    3.4198    0.0000 O   0  0  0  0  0  0  0  0  0  0  0  0
    4.6515    0.8087    0.0000 C   0  0  0  0  0  0  0  0  0  0  0  0
    5.3901   -0.4969    0.0000 C   0  0  0  0  0  0  0  0  0  0  0  0
    4.6288   -1.7893    0.0000 C   0  0  0  0  0  0  0  0  0  0  0  0
    6.8900   -0.5100    0.0000 C   0  0  0  0  0  0  0  0  0  0  0  0
    5.3674   -3.0948    0.0000 C   0  0  0  0  0  0  0  0  0  0  0  0
    7.6286   -1.8155    0.0000 C   0  0  0  0  0  0  0  0  0  0  0  0
    6.8673   -3.1080    0.0000 C   0  0  0  0  0  0  0  0  0  0  0  0
   -5.8708   -1.6974    0.0000 C   0  0  0  0  0  0  0  0  0  0  0  0
   -7.3708   -1.6843    0.0000 O   0  0  0  0  0  0  0  0  0  0  0  0
   -5.8577   -0.1975    0.0000 C   0  0  0  0  0  0  0  0  0  0  0  0
   -5.8840   -3.1973    0.0000 C   0  0  0  0  0  0  0  0  0  0  0  0
  1  2  1  0
  2  3  2  0
  1  4  1  0
  5  1  1  0
  6  4  1  0
  7  5  1  0
  8  6  1  0
  7  8  2  0
  9  7  1  0
 10  8  1  0
 11  9  2  0
 12 10  2  0
 11 12  1  0
 13 11  1  0
 13 14  1  0
 15 13  2  0
 14 16  1  0
 16 17  1  0
 17 18  2  0
 17 19  1  0
 18 20  1  0
 19 21  2  0
 20 22  2  0
 21 22  1  0
  2 23  1  0
 23 24  1  0
 23 25  1  0
 23 26  1  0
M  END
>  <Rank>  (15) 
15

>  <CR_ID>  (15) 
R-004866

>  <Acid_Name>  (15) 
R-004866

>  <SMILES>  (15) 
CC(C)(O)C(=O)N1CCc2ccc(C(=O)NCc3ccccc3)nc2C1

>  <MPO_Score>  (15) 
0.8871

>  <MW>  (15) 
353.17

>  <cLogP>  (15) 
1.67 ± 0.40

>  <TPSA>  (15) 
82.5

>  <HBD>  (15) 
2

>  <HBA>  (15) 
4

>  <RotBonds>  (15) 
4

>  <Fsp3>  (15) 
0.350

>  <NumArRings>  (15) 
2

>  <logS_ESOL>  (15) 
-3.16 ± 0.93 log(mol/L)

>  <logS_AD>  (15) 
In

>  <logS_model>  (15) 
ESOL/Delaney-2004 (linear, n=1144, RMSE=0.93 log-units)

>  <logPapp_PAMPA>  (15) 
-6.25 ± 0.80 log(cm/s)

>  <logPapp_class>  (15) 
Medium

>  <logPapp_AD>  (15) 
In

>  <logPapp_model>  (15) 
Hou-2004 PAMPA linear (RMSE=0.8, n=100)

>  <MetStab_score>  (15) 
1.000 (0-1 scale)

>  <MetStab_t12>  (15) 
High (t½>60 min HLM)

>  <Clearance_route>  (15) 
CYP2D6/3A4 (basic-N + Ar)

>  <Met_alerts>  (15) 
None

>  <MetStab_model>  (15) 
Rule-based HLM classifier (cLogP+Fsp3+Ar-rings+alerts; heuristic ±1 class)

>  <CYP_risk>  (15) 
Low

>  <CYP_alerts>  (15) 
None

>  <CYP2D6_flag>  (15) 
False

>  <CYP3A4_flag>  (15) 
False

>  <CYP2C9_flag>  (15) 
False

>  <CYP_model>  (15) 
SMARTS alert panel (pharmacophore-based; flag only – no IC50 predicted)

>  <PPB_pct>  (15) 
86.3 ± 10 %

>  <PPB_fu>  (15) 
0.1367

>  <PPB_class>  (15) 
Moderate (80-90%)

>  <PPB_AD>  (15) 
In

>  <PPB_model>  (15) 
Valko-2003 logP-linear (RMSE≈10% PPB, n=87)

>  <hERG_risk>  (15) 
Low

>  <hERG_model>  (15) 
Structural-alert + cLogP (Redfern-2003 anchor; ±1 class)

>  <des_sol>  (15) 
0.936

>  <des_logp>  (15) 
0.834

>  <des_perm>  (15) 
0.500

>  <des_met>  (15) 
1.000

>  <des_cyp>  (15) 
1.000

>  <des_ppb>  (15) 
1.000

>  <des_herg>  (15) 
1.000

>  <des_mw>  (15) 
0.766

$$$$

     RDKit          2D

 29 32  0  0  0  0  0  0  0  0999 V2000
   -3.1445   -1.3240    0.0000 N   0  0  0  0  0  0  0  0  0  0  0  0
   -4.5773   -0.8803    0.0000 C   0  0  0  0  0  0  0  0  0  0  0  0
   -5.6780   -1.8993    0.0000 O   0  0  0  0  0  0  0  0  0  0  0  0
   -2.8123   -2.7868    0.0000 C   0  0  0  0  0  0  0  0  0  0  0  0
   -2.0437   -0.3050    0.0000 C   0  0  0  0  0  0  0  0  0  0  0  0
   -1.3794   -3.2305    0.0000 C   0  0  0  0  0  0  0  0  0  0  0  0
   -0.6109   -0.7487    0.0000 C   0  0  0  0  0  0  0  0  0  0  0  0
   -0.2787   -2.2114    0.0000 C   0  0  0  0  0  0  0  0  0  0  0  0
    0.4898    0.2704    0.0000 N   0  0  0  0  0  0  0  0  0  0  0  0
    1.1541   -2.6552    0.0000 C   0  0  0  0  0  0  0  0  0  0  0  0
    1.9227   -0.1734    0.0000 C   0  0  0  0  0  0  0  0  0  0  0  0
    2.2549   -1.6361    0.0000 C   0  0  0  0  0  0  0  0  0  0  0  0
    3.0234    0.8457    0.0000 C   0  0  0  0  0  0  0  0  0  0  0  0
    4.4563    0.4019    0.0000 N   0  0  0  0  0  0  0  0  0  0  0  0
    2.6912    2.3084    0.0000 O   0  0  0  0  0  0  0  0  0  0  0  0
    5.5570    1.4210    0.0000 C   0  0  0  0  0  0  0  0  0  0  0  0
    6.9898    0.9773    0.0000 C   0  0  0  0  0  0  0  0  0  0  0  0
    7.3220   -0.4855    0.0000 C   0  0  0  0  0  0  0  0  0  0  0  0
    8.0906    1.9963    0.0000 C   0  0  0  0  0  0  0  0  0  0  0  0
    8.7549   -0.9292    0.0000 C   0  0  0  0  0  0  0  0  0  0  0  0
    9.5234    1.5526    0.0000 C   0  0  0  0  0  0  0  0  0  0  0  0
    9.8556    0.0898    0.0000 C   0  0  0  0  0  0  0  0  0  0  0  0
   -4.9095    0.5825    0.0000 C   0  0  0  0  0  0  0  0  0  0  0  0
   -6.3424    1.0262    0.0000 C   0  0  0  0  0  0  0  0  0  0  0  0
   -6.6745    2.4890    0.0000 N   0  0  0  0  0  0  0  0  0  0  0  0
   -7.4431    0.0072    0.0000 C   0  0  0  0  0  0  0  0  0  0  0  0
   -8.1074    2.9327    0.0000 C   0  0  0  0  0  0  0  0  0  0  0  0
   -8.8759    0.4509    0.0000 N   0  0  0  0  0  0  0  0  0  0  0  0
   -9.2081    1.9136    0.0000 C   0  0  0  0  0  0  0  0  0  0  0  0
  1  2  1  0
  2  3  2  0
  1  4  1  0
  5  1  1  0
  6  4  1  0
  7  5  1  0
  8  6  1  0
  7  8  2  0
  9  7  1  0
 10  8  1  0
 11  9  2  0
 12 10  2  0
 11 12  1  0
 13 11  1  0
 13 14  1  0
 15 13  2  0
 14 16  1  0
 16 17  1  0
 17 18  2  0
 17 19  1  0
 18 20  1  0
 19 21  2  0
 20 22  2  0
 21 22  1  0
  2 23  1  0
 23 24  1  0
 24 25  2  0
 24 26  1  0
 25 27  1  0
 26 28  2  0
 27 29  2  0
 28 29  1  0
M  END
>  <Rank>  (16) 
16

>  <CR_ID>  (16) 
R-012063

>  <Acid_Name>  (16) 
R-012063

>  <SMILES>  (16) 
O=C(NCc1ccccc1)c1ccc2c(n1)CN(C(=O)Cc1cnccn1)CC2

>  <MPO_Score>  (16) 
0.8838

>  <MW>  (16) 
387.17

>  <cLogP>  (16) 
1.93 ± 0.40

>  <TPSA>  (16) 
88.1

>  <HBD>  (16) 
1

>  <HBA>  (16) 
5

>  <RotBonds>  (16) 
5

>  <Fsp3>  (16) 
0.227

>  <NumArRings>  (16) 
3

>  <logS_ESOL>  (16) 
-3.59 ± 0.93 log(mol/L)

>  <logS_AD>  (16) 
In

>  <logS_model>  (16) 
ESOL/Delaney-2004 (linear, n=1144, RMSE=0.93 log-units)

>  <logPapp_PAMPA>  (16) 
-6.24 ± 0.80 log(cm/s)

>  <logPapp_class>  (16) 
Medium

>  <logPapp_AD>  (16) 
In

>  <logPapp_model>  (16) 
Hou-2004 PAMPA linear (RMSE=0.8, n=100)

>  <MetStab_score>  (16) 
1.000 (0-1 scale)

>  <MetStab_t12>  (16) 
High (t½>60 min HLM)

>  <Clearance_route>  (16) 
CYP2D6/3A4 (basic-N + Ar)

>  <Met_alerts>  (16) 
None

>  <MetStab_model>  (16) 
Rule-based HLM classifier (cLogP+Fsp3+Ar-rings+alerts; heuristic ±1 class)

>  <CYP_risk>  (16) 
Low

>  <CYP_alerts>  (16) 
None

>  <CYP2D6_flag>  (16) 
False

>  <CYP3A4_flag>  (16) 
False

>  <CYP2C9_flag>  (16) 
False

>  <CYP_model>  (16) 
SMARTS alert panel (pharmacophore-based; flag only – no IC50 predicted)

>  <PPB_pct>  (16) 
90.7 ± 10 %

>  <PPB_fu>  (16) 
0.0930

>  <PPB_class>  (16) 
High (90-95%)

>  <PPB_AD>  (16) 
In

>  <PPB_model>  (16) 
Valko-2003 logP-linear (RMSE≈10% PPB, n=87)

>  <hERG_risk>  (16) 
Low

>  <hERG_model>  (16) 
Structural-alert + cLogP (Redfern-2003 anchor; ±1 class)

>  <des_sol>  (16) 
0.764

>  <des_logp>  (16) 
0.964

>  <des_perm>  (16) 
0.507

>  <des_met>  (16) 
1.000

>  <des_cyp>  (16) 
1.000

>  <des_ppb>  (16) 
1.000

>  <des_herg>  (16) 
1.000

>  <des_mw>  (16) 
0.936

$$$$

     RDKit          2D

 30 33  0  0  0  0  0  0  0  0999 V2000
   -3.4114   -1.9215    0.0000 N   0  0  0  0  0  0  0  0  0  0  0  0
   -4.8675   -1.5612    0.0000 C   0  0  0  0  0  0  0  0  0  0  0  0
   -5.9076   -2.6421    0.0000 O   0  0  0  0  0  0  0  0  0  0  0  0
   -2.9954   -3.3627    0.0000 C   0  0  0  0  0  0  0  0  0  0  0  0
   -2.3713   -0.8407    0.0000 C   0  0  0  0  0  0  0  0  0  0  0  0
   -1.5393   -3.7230    0.0000 C   0  0  0  0  0  0  0  0  0  0  0  0
   -0.9153   -1.2010    0.0000 C   0  0  0  0  0  0  0  0  0  0  0  0
   -0.4992   -2.6421    0.0000 C   0  0  0  0  0  0  0  0  0  0  0  0
    0.1248   -0.1201    0.0000 N   0  0  0  0  0  0  0  0  0  0  0  0
    0.9569   -3.0024    0.0000 C   0  0  0  0  0  0  0  0  0  0  0  0
    1.5809   -0.4804    0.0000 C   0  0  0  0  0  0  0  0  0  0  0  0
    1.9969   -1.9215    0.0000 C   0  0  0  0  0  0  0  0  0  0  0  0
    2.6210    0.6005    0.0000 C   0  0  0  0  0  0  0  0  0  0  0  0
    4.0770    0.2402    0.0000 N   0  0  0  0  0  0  0  0  0  0  0  0
    2.2049    2.0416    0.0000 O   0  0  0  0  0  0  0  0  0  0  0  0
    5.1171    1.3211    0.0000 C   0  0  0  0  0  0  0  0  0  0  0  0
    6.5732    0.9608    0.0000 C   0  0  0  0  0  0  0  0  0  0  0  0
    6.9892   -0.4804    0.0000 C   0  0  0  0  0  0  0  0  0  0  0  0
    7.6133    2.0416    0.0000 C   0  0  0  0  0  0  0  0  0  0  0  0
    8.4453   -0.8407    0.0000 C   0  0  0  0  0  0  0  0  0  0  0  0
    9.0693    1.6813    0.0000 C   0  0  0  0  0  0  0  0  0  0  0  0
    9.4854    0.2402    0.0000 C   0  0  0  0  0  0  0  0  0  0  0  0
   -5.2835   -0.1201    0.0000 C   0  0  0  0  0  0  0  0  0  0  0  0
   -4.2435    0.9608    0.0000 C   0  0  0  0  0  0  0  0  0  0  0  0
   -6.7396    0.2402    0.0000 C   0  0  0  0  0  0  0  0  0  0  0  0
   -4.6595    2.4019    0.0000 N   0  0  0  0  0  0  0  0  0  0  0  0
   -7.1556    1.6813    0.0000 C   0  0  0  0  0  0  0  0  0  0  0  0
   -6.1156    2.7622    0.0000 C   0  0  0  0  0  0  0  0  0  0  0  0
   -3.6194    3.4828    0.0000 C   0  0  0  0  0  0  0  0  0  0  0  0
   -6.5316    4.2034    0.0000 O   0  0  0  0  0  0  0  0  0  0  0  0
  1  2  1  0
  2  3  2  0
  1  4  1  0
  5  1  1  0
  6  4  1  0
  7  5  1  0
  8  6  1  0
  7  8  2  0
  9  7  1  0
 10  8  1  0
 11  9  2  0
 12 10  2  0
 11 12  1  0
 13 11  1  0
 13 14  1  0
 15 13  2  0
 14 16  1  0
 16 17  1  0
 17 18  2  0
 17 19  1  0
 18 20  1  0
 19 21  2  0
 20 22  2  0
 21 22  1  0
 23  2  1  0
 24 23  2  0
 25 23  1  0
 26 24  1  0
 27 25  2  0
 28 26  1  0
 26 29  1  0
 28 27  1  0
 30 28  2  0
M  END
>  <Rank>  (17) 
17

>  <CR_ID>  (17) 
R-000952

>  <Acid_Name>  (17) 
R-000952

>  <SMILES>  (17) 
Cn1cc(C(=O)N2CCc3ccc(C(=O)NCc4ccccc4)nc3C2)ccc1=O

>  <MPO_Score>  (17) 
0.8822

>  <MW>  (17) 
402.17

>  <cLogP>  (17) 
1.91 ± 0.40

>  <TPSA>  (17) 
84.3

>  <HBD>  (17) 
1

>  <HBA>  (17) 
5

>  <RotBonds>  (17) 
4

>  <Fsp3>  (17) 
0.217

>  <NumArRings>  (17) 
3

>  <logS_ESOL>  (17) 
-3.72 ± 0.93 log(mol/L)

>  <logS_AD>  (17) 
In

>  <logS_model>  (17) 
ESOL/Delaney-2004 (linear, n=1144, RMSE=0.93 log-units)

>  <logPapp_PAMPA>  (17) 
-6.20 ± 0.80 log(cm/s)

>  <logPapp_class>  (17) 
Medium

>  <logPapp_AD>  (17) 
In

>  <logPapp_model>  (17) 
Hou-2004 PAMPA linear (RMSE=0.8, n=100)

>  <MetStab_score>  (17) 
1.000 (0-1 scale)

>  <MetStab_t12>  (17) 
High (t½>60 min HLM)

>  <Clearance_route>  (17) 
CYP2D6/3A4 (basic-N + Ar)

>  <Met_alerts>  (17) 
None

>  <MetStab_model>  (17) 
Rule-based HLM classifier (cLogP+Fsp3+Ar-rings+alerts; heuristic ±1 class)

>  <CYP_risk>  (17) 
Low

>  <CYP_alerts>  (17) 
None

>  <CYP2D6_flag>  (17) 
False

>  <CYP3A4_flag>  (17) 
False

>  <CYP2C9_flag>  (17) 
False

>  <CYP_model>  (17) 
SMARTS alert panel (pharmacophore-based; flag only – no IC50 predicted)

>  <PPB_pct>  (17) 
90.4 ± 10 %

>  <PPB_fu>  (17) 
0.0959

>  <PPB_class>  (17) 
High (90-95%)

>  <PPB_AD>  (17) 
In

>  <PPB_model>  (17) 
Valko-2003 logP-linear (RMSE≈10% PPB, n=87)

>  <hERG_risk>  (17) 
Low

>  <hERG_model>  (17) 
Structural-alert + cLogP (Redfern-2003 anchor; ±1 class)

>  <des_sol>  (17) 
0.712

>  <des_logp>  (17) 
0.954

>  <des_perm>  (17) 
0.533

>  <des_met>  (17) 
1.000

>  <des_cyp>  (17) 
1.000

>  <des_ppb>  (17) 
1.000

>  <des_herg>  (17) 
1.000

>  <des_mw>  (17) 
1.000

$$$$

     RDKit          2D

 27 30  0  0  0  0  0  0  0  0999 V2000
   -4.1405   -1.1545    0.0000 N   0  0  0  0  0  0  0  0  0  0  0  0
   -5.5551   -0.6556    0.0000 C   0  0  0  0  0  0  0  0  0  0  0  0
   -6.6944   -1.6312    0.0000 O   0  0  0  0  0  0  0  0  0  0  0  0
   -3.8652   -2.6291    0.0000 C   0  0  0  0  0  0  0  0  0  0  0  0
   -3.0011   -0.1789    0.0000 C   0  0  0  0  0  0  0  0  0  0  0  0
   -2.4506   -3.1280    0.0000 C   0  0  0  0  0  0  0  0  0  0  0  0
   -1.5865   -0.6778    0.0000 C   0  0  0  0  0  0  0  0  0  0  0  0
   -1.3113   -2.1523    0.0000 C   0  0  0  0  0  0  0  0  0  0  0  0
   -0.4471    0.2978    0.0000 N   0  0  0  0  0  0  0  0  0  0  0  0
    0.1033   -2.6512    0.0000 C   0  0  0  0  0  0  0  0  0  0  0  0
    0.9675   -0.2011    0.0000 C   0  0  0  0  0  0  0  0  0  0  0  0
    1.2427   -1.6756    0.0000 C   0  0  0  0  0  0  0  0  0  0  0  0
    2.1068    0.7746    0.0000 C   0  0  0  0  0  0  0  0  0  0  0  0
    3.5214    0.2756    0.0000 N   0  0  0  0  0  0  0  0  0  0  0  0
    1.8316    2.2491    0.0000 O   0  0  0  0  0  0  0  0  0  0  0  0
    4.6608    1.2513    0.0000 C   0  0  0  0  0  0  0  0  0  0  0  0
    6.0754    0.7524    0.0000 C   0  0  0  0  0  0  0  0  0  0  0  0
    6.3506   -0.7222    0.0000 C   0  0  0  0  0  0  0  0  0  0  0  0
    7.2148    1.7280    0.0000 C   0  0  0  0  0  0  0  0  0  0  0  0
    7.7652   -1.2211    0.0000 C   0  0  0  0  0  0  0  0  0  0  0  0
    8.6294    1.2291    0.0000 C   0  0  0  0  0  0  0  0  0  0  0  0
    8.9046   -0.2454    0.0000 C   0  0  0  0  0  0  0  0  0  0  0  0
   -5.8303    0.8189    0.0000 C   0  0  0  0  0  0  0  0  0  0  0  0
   -7.1850    1.4630    0.0000 N   0  0  0  0  0  0  0  0  0  0  0  0
   -4.7992    1.9083    0.0000 C   0  0  0  0  0  0  0  0  0  0  0  0
   -6.9911    2.9504    0.0000 N   0  0  0  0  0  0  0  0  0  0  0  0
   -5.5166    3.2256    0.0000 C   0  0  0  0  0  0  0  0  0  0  0  0
  1  2  1  0
  2  3  2  0
  1  4  1  0
  5  1  1  0
  6  4  1  0
  7  5  1  0
  8  6  1  0
  7  8  2  0
  9  7  1  0
 10  8  1  0
 11  9  2  0
 12 10  2  0
 11 12  1  0
 13 11  1  0
 13 14  1  0
 15 13  2  0
 14 16  1  0
 16 17  1  0
 17 18  2  0
 17 19  1  0
 18 20  1  0
 19 21  2  0
 20 22  2  0
 21 22  1  0
  2 23  1  0
 23 24  1  0
 23 25  2  0
 24 26  1  0
 25 27  1  0
 26 27  2  0
M  END
>  <Rank>  (18) 
18

>  <CR_ID>  (18) 
R-007555

>  <Acid_Name>  (18) 
R-007555

>  <SMILES>  (18) 
O=C(NCc1ccccc1)c1ccc2c(n1)CN(C(=O)c1ccn[nH]1)CC2

>  <MPO_Score>  (18) 
0.8809

>  <MW>  (18) 
361.15

>  <cLogP>  (18) 
1.93 ± 0.40

>  <TPSA>  (18) 
91.0

>  <HBD>  (18) 
2

>  <HBA>  (18) 
4

>  <RotBonds>  (18) 
4

>  <Fsp3>  (18) 
0.200

>  <NumArRings>  (18) 
3

>  <logS_ESOL>  (18) 
-3.50 ± 0.93 log(mol/L)

>  <logS_AD>  (18) 
In

>  <logS_model>  (18) 
ESOL/Delaney-2004 (linear, n=1144, RMSE=0.93 log-units)

>  <logPapp_PAMPA>  (18) 
-6.26 ± 0.80 log(cm/s)

>  <logPapp_class>  (18) 
Medium

>  <logPapp_AD>  (18) 
In

>  <logPapp_model>  (18) 
Hou-2004 PAMPA linear (RMSE=0.8, n=100)

>  <MetStab_score>  (18) 
1.000 (0-1 scale)

>  <MetStab_t12>  (18) 
High (t½>60 min HLM)

>  <Clearance_route>  (18) 
CYP2D6/3A4 (basic-N + Ar)

>  <Met_alerts>  (18) 
None

>  <MetStab_model>  (18) 
Rule-based HLM classifier (cLogP+Fsp3+Ar-rings+alerts; heuristic ±1 class)

>  <CYP_risk>  (18) 
Low

>  <CYP_alerts>  (18) 
None

>  <CYP2D6_flag>  (18) 
False

>  <CYP3A4_flag>  (18) 
False

>  <CYP2C9_flag>  (18) 
False

>  <CYP_model>  (18) 
SMARTS alert panel (pharmacophore-based; flag only – no IC50 predicted)

>  <PPB_pct>  (18) 
90.8 ± 10 %

>  <PPB_fu>  (18) 
0.0925

>  <PPB_class>  (18) 
High (90-95%)

>  <PPB_AD>  (18) 
In

>  <PPB_model>  (18) 
Valko-2003 logP-linear (RMSE≈10% PPB, n=87)

>  <hERG_risk>  (18) 
Low

>  <hERG_model>  (18) 
Structural-alert + cLogP (Redfern-2003 anchor; ±1 class)

>  <des_sol>  (18) 
0.800

>  <des_logp>  (18) 
0.967

>  <des_perm>  (18) 
0.493

>  <des_met>  (18) 
1.000

>  <des_cyp>  (18) 
1.000

>  <des_ppb>  (18) 
1.000

>  <des_herg>  (18) 
1.000

>  <des_mw>  (18) 
0.806

$$$$

     RDKit          2D

 27 30  0  0  0  0  0  0  0  0999 V2000
   -4.1405   -1.1545    0.0000 N   0  0  0  0  0  0  0  0  0  0  0  0
   -5.5551   -0.6556    0.0000 C   0  0  0  0  0  0  0  0  0  0  0  0
   -6.6944   -1.6312    0.0000 O   0  0  0  0  0  0  0  0  0  0  0  0
   -3.8652   -2.6291    0.0000 C   0  0  0  0  0  0  0  0  0  0  0  0
   -3.0011   -0.1789    0.0000 C   0  0  0  0  0  0  0  0  0  0  0  0
   -2.4506   -3.1280    0.0000 C   0  0  0  0  0  0  0  0  0  0  0  0
   -1.5865   -0.6778    0.0000 C   0  0  0  0  0  0  0  0  0  0  0  0
   -1.3113   -2.1523    0.0000 C   0  0  0  0  0  0  0  0  0  0  0  0
   -0.4471    0.2978    0.0000 N   0  0  0  0  0  0  0  0  0  0  0  0
    0.1033   -2.6512    0.0000 C   0  0  0  0  0  0  0  0  0  0  0  0
    0.9675   -0.2011    0.0000 C   0  0  0  0  0  0  0  0  0  0  0  0
    1.2427   -1.6756    0.0000 C   0  0  0  0  0  0  0  0  0  0  0  0
    2.1068    0.7746    0.0000 C   0  0  0  0  0  0  0  0  0  0  0  0
    3.5214    0.2756    0.0000 N   0  0  0  0  0  0  0  0  0  0  0  0
    1.8316    2.2491    0.0000 O   0  0  0  0  0  0  0  0  0  0  0  0
    4.6608    1.2513    0.0000 C   0  0  0  0  0  0  0  0  0  0  0  0
    6.0754    0.7524    0.0000 C   0  0  0  0  0  0  0  0  0  0  0  0
    6.3506   -0.7222    0.0000 C   0  0  0  0  0  0  0  0  0  0  0  0
    7.2148    1.7280    0.0000 C   0  0  0  0  0  0  0  0  0  0  0  0
    7.7652   -1.2211    0.0000 C   0  0  0  0  0  0  0  0  0  0  0  0
    8.6294    1.2291    0.0000 C   0  0  0  0  0  0  0  0  0  0  0  0
    8.9046   -0.2454    0.0000 C   0  0  0  0  0  0  0  0  0  0  0  0
   -5.8303    0.8189    0.0000 C   0  0  0  0  0  0  0  0  0  0  0  0
   -7.1850    1.4630    0.0000 N   0  0  0  0  0  0  0  0  0  0  0  0
   -4.7992    1.9083    0.0000 N   0  0  0  0  0  0  0  0  0  0  0  0
   -6.9911    2.9504    0.0000 C   0  0  0  0  0  0  0  0  0  0  0  0
   -5.5166    3.2256    0.0000 C   0  0  0  0  0  0  0  0  0  0  0  0
  1  2  1  0
  2  3  2  0
  1  4  1  0
  5  1  1  0
  6  4  1  0
  7  5  1  0
  8  6  1  0
  7  8  2  0
  9  7  1  0
 10  8  1  0
 11  9  2  0
 12 10  2  0
 11 12  1  0
 13 11  1  0
 13 14  1  0
 15 13  2  0
 14 16  1  0
 16 17  1  0
 17 18  2  0
 17 19  1  0
 18 20  1  0
 19 21  2  0
 20 22  2  0
 21 22  1  0
  2 23  1  0
 23 24  2  0
 23 25  1  0
 24 26  1  0
 25 27  1  0
 26 27  2  0
M  END
>  <Rank>  (19) 
19

>  <CR_ID>  (19) 
R-002848

>  <Acid_Name>  (19) 
R-002848

>  <SMILES>  (19) 
O=C(NCc1ccccc1)c1ccc2c(n1)CN(C(=O)c1ncc[nH]1)CC2

>  <MPO_Score>  (19) 
0.8809

>  <MW>  (19) 
361.15

>  <cLogP>  (19) 
1.93 ± 0.40

>  <TPSA>  (19) 
91.0

>  <HBD>  (19) 
2

>  <HBA>  (19) 
4

>  <RotBonds>  (19) 
4

>  <Fsp3>  (19) 
0.200

>  <NumArRings>  (19) 
3

>  <logS_ESOL>  (19) 
-3.50 ± 0.93 log(mol/L)

>  <logS_AD>  (19) 
In

>  <logS_model>  (19) 
ESOL/Delaney-2004 (linear, n=1144, RMSE=0.93 log-units)

>  <logPapp_PAMPA>  (19) 
-6.26 ± 0.80 log(cm/s)

>  <logPapp_class>  (19) 
Medium

>  <logPapp_AD>  (19) 
In

>  <logPapp_model>  (19) 
Hou-2004 PAMPA linear (RMSE=0.8, n=100)

>  <MetStab_score>  (19) 
1.000 (0-1 scale)

>  <MetStab_t12>  (19) 
High (t½>60 min HLM)

>  <Clearance_route>  (19) 
CYP2D6/3A4 (basic-N + Ar)

>  <Met_alerts>  (19) 
None

>  <MetStab_model>  (19) 
Rule-based HLM classifier (cLogP+Fsp3+Ar-rings+alerts; heuristic ±1 class)

>  <CYP_risk>  (19) 
Low

>  <CYP_alerts>  (19) 
None

>  <CYP2D6_flag>  (19) 
False

>  <CYP3A4_flag>  (19) 
False

>  <CYP2C9_flag>  (19) 
False

>  <CYP_model>  (19) 
SMARTS alert panel (pharmacophore-based; flag only – no IC50 predicted)

>  <PPB_pct>  (19) 
90.8 ± 10 %

>  <PPB_fu>  (19) 
0.0925

>  <PPB_class>  (19) 
High (90-95%)

>  <PPB_AD>  (19) 
In

>  <PPB_model>  (19) 
Valko-2003 logP-linear (RMSE≈10% PPB, n=87)

>  <hERG_risk>  (19) 
Low

>  <hERG_model>  (19) 
Structural-alert + cLogP (Redfern-2003 anchor; ±1 class)

>  <des_sol>  (19) 
0.800

>  <des_logp>  (19) 
0.967

>  <des_perm>  (19) 
0.493

>  <des_met>  (19) 
1.000

>  <des_cyp>  (19) 
1.000

>  <des_ppb>  (19) 
1.000

>  <des_herg>  (19) 
1.000

>  <des_mw>  (19) 
0.806

$$$$

     RDKit          2D

 29 32  0  0  0  0  0  0  0  0999 V2000
   -3.7103   -1.6171    0.0000 N   0  0  0  0  0  0  0  0  0  0  0  0
   -5.1494   -1.1940    0.0000 C   0  0  0  0  0  0  0  0  0  0  0  0
   -6.2354   -2.2287    0.0000 O   0  0  0  0  0  0  0  0  0  0  0  0
   -3.3572   -3.0750    0.0000 C   0  0  0  0  0  0  0  0  0  0  0  0
   -2.6243   -0.5824    0.0000 C   0  0  0  0  0  0  0  0  0  0  0  0
   -1.9181   -3.4981    0.0000 C   0  0  0  0  0  0  0  0  0  0  0  0
   -1.1852   -1.0055    0.0000 C   0  0  0  0  0  0  0  0  0  0  0  0
   -0.8321   -2.4634    0.0000 C   0  0  0  0  0  0  0  0  0  0  0  0
   -0.0992    0.0292    0.0000 N   0  0  0  0  0  0  0  0  0  0  0  0
    0.6070   -2.8865    0.0000 C   0  0  0  0  0  0  0  0  0  0  0  0
    1.3398   -0.3939    0.0000 C   0  0  0  0  0  0  0  0  0  0  0  0
    1.6929   -1.8518    0.0000 C   0  0  0  0  0  0  0  0  0  0  0  0
    2.4258    0.6408    0.0000 C   0  0  0  0  0  0  0  0  0  0  0  0
    3.8649    0.2177    0.0000 N   0  0  0  0  0  0  0  0  0  0  0  0
    2.0727    2.0986    0.0000 O   0  0  0  0  0  0  0  0  0  0  0  0
    4.9509    1.2524    0.0000 C   0  0  0  0  0  0  0  0  0  0  0  0
    6.3900    0.8292    0.0000 C   0  0  0  0  0  0  0  0  0  0  0  0
    6.7431   -0.6286    0.0000 C   0  0  0  0  0  0  0  0  0  0  0  0
    7.4759    1.8640    0.0000 C   0  0  0  0  0  0  0  0  0  0  0  0
    8.1822   -1.0517    0.0000 C   0  0  0  0  0  0  0  0  0  0  0  0
    8.9150    1.4408    0.0000 C   0  0  0  0  0  0  0  0  0  0  0  0
    9.2681   -0.0170    0.0000 C   0  0  0  0  0  0  0  0  0  0  0  0
   -5.5025    0.2638    0.0000 C   0  0  0  0  0  0  0  0  0  0  0  0
   -4.4165    1.2986    0.0000 N   0  0  0  0  0  0  0  0  0  0  0  0
   -6.9416    0.6870    0.0000 C   0  0  0  0  0  0  0  0  0  0  0  0
   -4.7696    2.7564    0.0000 C   0  0  0  0  0  0  0  0  0  0  0  0
   -7.2947    2.1448    0.0000 C   0  0  0  0  0  0  0  0  0  0  0  0
   -3.6836    3.7911    0.0000 O   0  0  0  0  0  0  0  0  0  0  0  0
   -6.2087    3.1795    0.0000 C   0  0  0  0  0  0  0  0  0  0  0  0
  1  2  1  0
  2  3  2  0
  1  4  1  0
  5  1  1  0
  6  4  1  0
  7  5  1  0
  8  6  1  0
  7  8  2  0
  9  7  1  0
 10  8  1  0
 11  9  2  0
 12 10  2  0
 11 12  1  0
 13 11  1  0
 13 14  1  0
 15 13  2  0
 14 16  1  0
 16 17  1  0
 17 18  2  0
 17 19  1  0
 18 20  1  0
 19 21  2  0
 20 22  2  0
 21 22  1  0
 23  2  1  0
 24 23  1  0
 23 25  2  0
 26 24  1  0
 27 25  1  0
 28 26  2  0
 26 29  1  0
 29 27  2  0
M  END
>  <Rank>  (20) 
20

>  <CR_ID>  (20) 
R-009923

>  <Acid_Name>  (20) 
R-009923

>  <SMILES>  (20) 
O=C(NCc1ccccc1)c1ccc2c(n1)CN(C(=O)c1cccc(=O)[nH]1)CC2

>  <MPO_Score>  (20) 
0.8676

>  <MW>  (20) 
388.15

>  <cLogP>  (20) 
1.90 ± 0.40

>  <TPSA>  (20) 
95.2

>  <HBD>  (20) 
2

>  <HBA>  (20) 
4

>  <RotBonds>  (20) 
4

>  <Fsp3>  (20) 
0.182

>  <NumArRings>  (20) 
3

>  <logS_ESOL>  (20) 
-3.64 ± 0.93 log(mol/L)

>  <logS_AD>  (20) 
In

>  <logS_model>  (20) 
ESOL/Delaney-2004 (linear, n=1144, RMSE=0.93 log-units)

>  <logPapp_PAMPA>  (20) 
-6.36 ± 0.80 log(cm/s)

>  <logPapp_class>  (20) 
Medium

>  <logPapp_AD>  (20) 
In

>  <logPapp_model>  (20) 
Hou-2004 PAMPA linear (RMSE=0.8, n=100)

>  <MetStab_score>  (20) 
1.000 (0-1 scale)

>  <MetStab_t12>  (20) 
High (t½>60 min HLM)

>  <Clearance_route>  (20) 
CYP2D6/3A4 (basic-N + Ar)

>  <Met_alerts>  (20) 
None

>  <MetStab_model>  (20) 
Rule-based HLM classifier (cLogP+Fsp3+Ar-rings+alerts; heuristic ±1 class)

>  <CYP_risk>  (20) 
Low

>  <CYP_alerts>  (20) 
None

>  <CYP2D6_flag>  (20) 
False

>  <CYP3A4_flag>  (20) 
False

>  <CYP2C9_flag>  (20) 
False

>  <CYP_model>  (20) 
SMARTS alert panel (pharmacophore-based; flag only – no IC50 predicted)

>  <PPB_pct>  (20) 
90.3 ± 10 %

>  <PPB_fu>  (20) 
0.0974

>  <PPB_class>  (20) 
High (90-95%)

>  <PPB_AD>  (20) 
In

>  <PPB_model>  (20) 
Valko-2003 logP-linear (RMSE≈10% PPB, n=87)

>  <hERG_risk>  (20) 
Low

>  <hERG_model>  (20) 
Structural-alert + cLogP (Redfern-2003 anchor; ±1 class)

>  <des_sol>  (20) 
0.744

>  <des_logp>  (20) 
0.949

>  <des_perm>  (20) 
0.427

>  <des_met>  (20) 
1.000

>  <des_cyp>  (20) 
1.000

>  <des_ppb>  (20) 
1.000

>  <des_herg>  (20) 
1.000

>  <des_mw>  (20) 
0.941

$$$$

     RDKit          2D

 28 30  0  0  0  0  0  0  0  0999 V2000
   -2.7001    0.6914    0.0000 N   0  0  0  0  0  0  0  0  0  0  0  0
   -3.7127   -0.4153    0.0000 C   0  0  0  0  0  0  0  0  0  0  0  0
   -3.2605   -1.8455    0.0000 O   0  0  0  0  0  0  0  0  0  0  0  0
   -3.1523    2.1217    0.0000 C   0  0  0  0  0  0  0  0  0  0  0  0
   -1.2354    0.3679    0.0000 C   0  0  0  0  0  0  0  0  0  0  0  0
   -2.1398    3.2284    0.0000 C   0  0  0  0  0  0  0  0  0  0  0  0
   -0.2229    1.4746    0.0000 C   0  0  0  0  0  0  0  0  0  0  0  0
   -0.6751    2.9048    0.0000 C   0  0  0  0  0  0  0  0  0  0  0  0
    1.2418    1.1511    0.0000 N   0  0  0  0  0  0  0  0  0  0  0  0
    0.3375    4.0115    0.0000 C   0  0  0  0  0  0  0  0  0  0  0  0
    2.2543    2.2578    0.0000 C   0  0  0  0  0  0  0  0  0  0  0  0
    1.8022    3.6880    0.0000 C   0  0  0  0  0  0  0  0  0  0  0  0
    3.7190    1.9343    0.0000 C   0  0  0  0  0  0  0  0  0  0  0  0
    4.1712    0.5040    0.0000 N   0  0  0  0  0  0  0  0  0  0  0  0
    4.7315    3.0410    0.0000 O   0  0  0  0  0  0  0  0  0  0  0  0
    5.6359    0.1805    0.0000 C   0  0  0  0  0  0  0  0  0  0  0  0
    6.0880   -1.2497    0.0000 C   0  0  0  0  0  0  0  0  0  0  0  0
    5.0755   -2.3564    0.0000 C   0  0  0  0  0  0  0  0  0  0  0  0
    7.5527   -1.5733    0.0000 C   0  0  0  0  0  0  0  0  0  0  0  0
    5.5277   -3.7867    0.0000 C   0  0  0  0  0  0  0  0  0  0  0  0
    8.0049   -3.0035    0.0000 C   0  0  0  0  0  0  0  0  0  0  0  0
    6.9924   -4.1102    0.0000 C   0  0  0  0  0  0  0  0  0  0  0  0
   -5.1774   -0.0917    0.0000 C   0  0  0  0  0  0  0  0  0  0  0  0
   -6.1899   -1.1984    0.0000 C   0  0  0  0  0  0  0  0  0  0  0  0
   -7.6546   -0.8749    0.0000 N   0  0  0  0  0  0  0  0  0  0  0  0
   -8.6671   -1.9816    0.0000 C   0  0  0  0  0  0  0  0  0  0  0  0
   -8.2150   -3.4118    0.0000 O   0  0  0  0  0  0  0  0  0  0  0  0
  -10.1318   -1.6581    0.0000 C   0  0  0  0  0  0  0  0  0  0  0  0
  1  2  1  0
  2  3  2  0
  1  4  1  0
  5  1  1  0
  6  4  1  0
  7  5  1  0
  8  6  1  0
  7  8  2  0
  9  7  1  0
 10  8  1  0
 11  9  2  0
 12 10  2  0
 11 12  1  0
 13 11  1  0
 13 14  1  0
 15 13  2  0
 14 16  1  0
 16 17  1  0
 17 18  2  0
 17 19  1  0
 18 20  1  0
 19 21  2  0
 20 22  2  0
 21 22  1  0
  2 23  1  0
 23 24  1  0
 24 25  1  0
 25 26  1  0
 26 27  2  0
 26 28  1  0
M  END
>  <Rank>  (21) 
21

>  <CR_ID>  (21) 
R-008483

>  <Acid_Name>  (21) 
R-008483

>  <SMILES>  (21) 
CC(=O)NCCC(=O)N1CCc2ccc(C(=O)NCc3ccccc3)nc2C1

>  <MPO_Score>  (21) 
0.8616

>  <MW>  (21) 
380.18

>  <cLogP>  (21) 
1.42 ± 0.40

>  <TPSA>  (21) 
91.4

>  <HBD>  (21) 
2

>  <HBA>  (21) 
4

>  <RotBonds>  (21) 
6

>  <Fsp3>  (21) 
0.333

>  <NumArRings>  (21) 
2

>  <logS_ESOL>  (21) 
-3.01 ± 0.93 log(mol/L)

>  <logS_AD>  (21) 
In

>  <logS_model>  (21) 
ESOL/Delaney-2004 (linear, n=1144, RMSE=0.93 log-units)

>  <logPapp_PAMPA>  (21) 
-6.54 ± 0.80 log(cm/s)

>  <logPapp_class>  (21) 
Medium

>  <logPapp_AD>  (21) 
In

>  <logPapp_model>  (21) 
Hou-2004 PAMPA linear (RMSE=0.8, n=100)

>  <MetStab_score>  (21) 
1.000 (0-1 scale)

>  <MetStab_t12>  (21) 
High (t½>60 min HLM)

>  <Clearance_route>  (21) 
CYP2D6/3A4 (basic-N + Ar)

>  <Met_alerts>  (21) 
None

>  <MetStab_model>  (21) 
Rule-based HLM classifier (cLogP+Fsp3+Ar-rings+alerts; heuristic ±1 class)

>  <CYP_risk>  (21) 
Low

>  <CYP_alerts>  (21) 
None

>  <CYP2D6_flag>  (21) 
False

>  <CYP3A4_flag>  (21) 
False

>  <CYP2C9_flag>  (21) 
False

>  <CYP_model>  (21) 
SMARTS alert panel (pharmacophore-based; flag only – no IC50 predicted)

>  <PPB_pct>  (21) 
80.8 ± 10 %

>  <PPB_fu>  (21) 
0.1920

>  <PPB_class>  (21) 
Moderate (80-90%)

>  <PPB_AD>  (21) 
In

>  <PPB_model>  (21) 
Valko-2003 logP-linear (RMSE≈10% PPB, n=87)

>  <hERG_risk>  (21) 
Low

>  <hERG_model>  (21) 
Structural-alert + cLogP (Redfern-2003 anchor; ±1 class)

>  <des_sol>  (21) 
0.996

>  <des_logp>  (21) 
0.711

>  <des_perm>  (21) 
0.307

>  <des_met>  (21) 
1.000

>  <des_cyp>  (21) 
1.000

>  <des_ppb>  (21) 
1.000

>  <des_herg>  (21) 
1.000

>  <des_mw>  (21) 
0.901

$$$$

     RDKit          2D

 28 30  0  0  0  0  0  0  0  0999 V2000
   -2.7285    0.4113    0.0000 N   0  0  0  0  0  0  0  0  0  0  0  0
   -3.6833   -0.7455    0.0000 C   0  0  0  0  0  0  0  0  0  0  0  0
   -3.1589   -2.1508    0.0000 O   0  0  0  0  0  0  0  0  0  0  0  0
   -3.2529    1.8167    0.0000 C   0  0  0  0  0  0  0  0  0  0  0  0
   -1.2492    0.1628    0.0000 C   0  0  0  0  0  0  0  0  0  0  0  0
   -2.2980    2.9735    0.0000 C   0  0  0  0  0  0  0  0  0  0  0  0
   -0.2944    1.3197    0.0000 C   0  0  0  0  0  0  0  0  0  0  0  0
   -0.8188    2.7250    0.0000 C   0  0  0  0  0  0  0  0  0  0  0  0
    1.1849    1.0711    0.0000 N   0  0  0  0  0  0  0  0  0  0  0  0
    0.1361    3.8818    0.0000 C   0  0  0  0  0  0  0  0  0  0  0  0
    2.1398    2.2280    0.0000 C   0  0  0  0  0  0  0  0  0  0  0  0
    1.6154    3.6333    0.0000 C   0  0  0  0  0  0  0  0  0  0  0  0
    3.6190    1.9794    0.0000 C   0  0  0  0  0  0  0  0  0  0  0  0
    4.1435    0.5741    0.0000 N   0  0  0  0  0  0  0  0  0  0  0  0
    4.5739    3.1363    0.0000 O   0  0  0  0  0  0  0  0  0  0  0  0
    5.6227    0.3256    0.0000 C   0  0  0  0  0  0  0  0  0  0  0  0
    6.1471   -1.0798    0.0000 C   0  0  0  0  0  0  0  0  0  0  0  0
    5.1923   -2.2366    0.0000 C   0  0  0  0  0  0  0  0  0  0  0  0
    7.6264   -1.3283    0.0000 C   0  0  0  0  0  0  0  0  0  0  0  0
    5.7167   -3.6420    0.0000 C   0  0  0  0  0  0  0  0  0  0  0  0
    8.1508   -2.7336    0.0000 C   0  0  0  0  0  0  0  0  0  0  0  0
    7.1959   -3.8905    0.0000 C   0  0  0  0  0  0  0  0  0  0  0  0
   -5.1626   -0.4970    0.0000 C   0  0  0  0  0  0  0  0  0  0  0  0
   -6.1175   -1.6538    0.0000 C   0  0  0  0  0  0  0  0  0  0  0  0
   -7.5967   -1.4053    0.0000 C   0  0  0  0  0  0  0  0  0  0  0  0
   -8.1212    0.0001    0.0000 O   0  0  0  0  0  0  0  0  0  0  0  0
   -8.5516   -2.5621    0.0000 N   0  0  0  0  0  0  0  0  0  0  0  0
  -10.0309   -2.3136    0.0000 C   0  0  0  0  0  0  0  0  0  0  0  0
  1  2  1  0
  2  3  2  0
  1  4  1  0
  5  1  1  0
  6  4  1  0
  7  5  1  0
  8  6  1  0
  7  8  2  0
  9  7  1  0
 10  8  1  0
 11  9  2  0
 12 10  2  0
 11 12  1  0
 13 11  1  0
 13 14  1  0
 15 13  2  0
 14 16  1  0
 16 17  1  0
 17 18  2  0
 17 19  1  0
 18 20  1  0
 19 21  2  0
 20 22  2  0
 21 22  1  0
  2 23  1  0
 23 24  1  0
 24 25  1  0
 25 26  2  0
 25 27  1  0
 27 28  1  0
M  END
>  <Rank>  (22) 
22

>  <CR_ID>  (22) 
R-011413

>  <Acid_Name>  (22) 
R-011413

>  <SMILES>  (22) 
CNC(=O)CCC(=O)N1CCc2ccc(C(=O)NCc3ccccc3)nc2C1

>  <MPO_Score>  (22) 
0.8616

>  <MW>  (22) 
380.18

>  <cLogP>  (22) 
1.42 ± 0.40

>  <TPSA>  (22) 
91.4

>  <HBD>  (22) 
2

>  <HBA>  (22) 
4

>  <RotBonds>  (22) 
6

>  <Fsp3>  (22) 
0.333

>  <NumArRings>  (22) 
2

>  <logS_ESOL>  (22) 
-3.01 ± 0.93 log(mol/L)

>  <logS_AD>  (22) 
In

>  <logS_model>  (22) 
ESOL/Delaney-2004 (linear, n=1144, RMSE=0.93 log-units)

>  <logPapp_PAMPA>  (22) 
-6.54 ± 0.80 log(cm/s)

>  <logPapp_class>  (22) 
Medium

>  <logPapp_AD>  (22) 
In

>  <logPapp_model>  (22) 
Hou-2004 PAMPA linear (RMSE=0.8, n=100)

>  <MetStab_score>  (22) 
1.000 (0-1 scale)

>  <MetStab_t12>  (22) 
High (t½>60 min HLM)

>  <Clearance_route>  (22) 
CYP2D6/3A4 (basic-N + Ar)

>  <Met_alerts>  (22) 
None

>  <MetStab_model>  (22) 
Rule-based HLM classifier (cLogP+Fsp3+Ar-rings+alerts; heuristic ±1 class)

>  <CYP_risk>  (22) 
Low

>  <CYP_alerts>  (22) 
None

>  <CYP2D6_flag>  (22) 
False

>  <CYP3A4_flag>  (22) 
False

>  <CYP2C9_flag>  (22) 
False

>  <CYP_model>  (22) 
SMARTS alert panel (pharmacophore-based; flag only – no IC50 predicted)

>  <PPB_pct>  (22) 
80.8 ± 10 %

>  <PPB_fu>  (22) 
0.1920

>  <PPB_class>  (22) 
Moderate (80-90%)

>  <PPB_AD>  (22) 
In

>  <PPB_model>  (22) 
Valko-2003 logP-linear (RMSE≈10% PPB, n=87)

>  <hERG_risk>  (22) 
Low

>  <hERG_model>  (22) 
Structural-alert + cLogP (Redfern-2003 anchor; ±1 class)

>  <des_sol>  (22) 
0.996

>  <des_logp>  (22) 
0.711

>  <des_perm>  (22) 
0.307

>  <des_met>  (22) 
1.000

>  <des_cyp>  (22) 
1.000

>  <des_ppb>  (22) 
1.000

>  <des_herg>  (22) 
1.000

>  <des_mw>  (22) 
0.901

$$$$

     RDKit          2D

 28 31  0  0  0  0  0  0  0  0999 V2000
   -3.4841   -1.1923    0.0000 N   0  0  0  0  0  0  0  0  0  0  0  0
   -4.9081   -0.7209    0.0000 C   0  0  0  0  0  0  0  0  0  0  0  0
   -6.0284   -1.7184    0.0000 O   0  0  0  0  0  0  0  0  0  0  0  0
   -3.1804   -2.6612    0.0000 C   0  0  0  0  0  0  0  0  0  0  0  0
   -2.3639   -0.1948    0.0000 C   0  0  0  0  0  0  0  0  0  0  0  0
   -1.7564   -3.1327    0.0000 C   0  0  0  0  0  0  0  0  0  0  0  0
   -0.9399   -0.6662    0.0000 C   0  0  0  0  0  0  0  0  0  0  0  0
   -0.6362   -2.1352    0.0000 C   0  0  0  0  0  0  0  0  0  0  0  0
    0.1804    0.3312    0.0000 N   0  0  0  0  0  0  0  0  0  0  0  0
    0.7878   -2.6066    0.0000 C   0  0  0  0  0  0  0  0  0  0  0  0
    1.6044   -0.1402    0.0000 C   0  0  0  0  0  0  0  0  0  0  0  0
    1.9081   -1.6091    0.0000 C   0  0  0  0  0  0  0  0  0  0  0  0
    2.7246    0.8573    0.0000 C   0  0  0  0  0  0  0  0  0  0  0  0
    4.1486    0.3859    0.0000 N   0  0  0  0  0  0  0  0  0  0  0  0
    2.4209    2.3262    0.0000 O   0  0  0  0  0  0  0  0  0  0  0  0
    5.2689    1.3834    0.0000 C   0  0  0  0  0  0  0  0  0  0  0  0
    6.6929    0.9119    0.0000 C   0  0  0  0  0  0  0  0  0  0  0  0
    6.9966   -0.5570    0.0000 C   0  0  0  0  0  0  0  0  0  0  0  0
    7.8132    1.9094    0.0000 C   0  0  0  0  0  0  0  0  0  0  0  0
    8.4206   -1.0285    0.0000 C   0  0  0  0  0  0  0  0  0  0  0  0
    9.2372    1.4380    0.0000 C   0  0  0  0  0  0  0  0  0  0  0  0
    9.5409   -0.0310    0.0000 C   0  0  0  0  0  0  0  0  0  0  0  0
   -5.2119    0.7481    0.0000 C   0  0  0  0  0  0  0  0  0  0  0  0
   -6.6358    1.2195    0.0000 N   0  0  0  0  0  0  0  0  0  0  0  0
   -7.8542    0.3446    0.0000 C   0  0  0  0  0  0  0  0  0  0  0  0
   -7.0914    2.6486    0.0000 C   0  0  0  0  0  0  0  0  0  0  0  0
   -9.0629    1.2330    0.0000 C   0  0  0  0  0  0  0  0  0  0  0  0
   -8.5914    2.6570    0.0000 C   0  0  0  0  0  0  0  0  0  0  0  0
  1  2  1  0
  2  3  2  0
  1  4  1  0
  5  1  1  0
  6  4  1  0
  7  5  1  0
  8  6  1  0
  7  8  2  0
  9  7  1  0
 10  8  1  0
 11  9  2  0
 12 10  2  0
 11 12  1  0
 13 11  1  0
 13 14  1  0
 15 13  2  0
 14 16  1  0
 16 17  1  0
 17 18  2  0
 17 19  1  0
 18 20  1  0
 19 21  2  0
 20 22  2  0
 21 22  1  0
  2 23  1  0
 23 24  1  0
 24 25  1  0
 24 26  1  0
 25 27  1  0
 26 28  1  0
 27 28  1  0
M  END
>  <Rank>  (23) 
23

>  <CR_ID>  (23) 
R-006727

>  <Acid_Name>  (23) 
R-006727

>  <SMILES>  (23) 
O=C(NCc1ccccc1)c1ccc2c(n1)CN(C(=O)CN1CCCC1)CC2

>  <MPO_Score>  (23) 
0.8594

>  <MW>  (23) 
378.21

>  <cLogP>  (23) 
1.99 ± 0.40

>  <TPSA>  (23) 
65.5

>  <HBD>  (23) 
1

>  <HBA>  (23) 
4

>  <RotBonds>  (23) 
5

>  <Fsp3>  (23) 
0.409

>  <NumArRings>  (23) 
2

>  <logS_ESOL>  (23) 
-3.43 ± 0.93 log(mol/L)

>  <logS_AD>  (23) 
In

>  <logS_model>  (23) 
ESOL/Delaney-2004 (linear, n=1144, RMSE=0.93 log-units)

>  <logPapp_PAMPA>  (23) 
-5.84 ± 0.80 log(cm/s)

>  <logPapp_class>  (23) 
Medium

>  <logPapp_AD>  (23) 
In

>  <logPapp_model>  (23) 
Hou-2004 PAMPA linear (RMSE=0.8, n=100)

>  <MetStab_score>  (23) 
1.000 (0-1 scale)

>  <MetStab_t12>  (23) 
High (t½>60 min HLM)

>  <Clearance_route>  (23) 
CYP2D6/3A4 (basic-N + Ar)

>  <Met_alerts>  (23) 
tert-amine: CYP

>  <MetStab_model>  (23) 
Rule-based HLM classifier (cLogP+Fsp3+Ar-rings+alerts; heuristic ±1 class)

>  <CYP_risk>  (23) 
Medium

>  <CYP_alerts>  (23) 
CYP3A4:(cyclic tert-N)

>  <CYP2D6_flag>  (23) 
False

>  <CYP3A4_flag>  (23) 
True

>  <CYP2C9_flag>  (23) 
False

>  <CYP_model>  (23) 
SMARTS alert panel (pharmacophore-based; flag only – no IC50 predicted)

>  <PPB_pct>  (23) 
91.5 ± 10 %

>  <PPB_fu>  (23) 
0.0846

>  <PPB_class>  (23) 
High (90-95%)

>  <PPB_AD>  (23) 
In

>  <PPB_model>  (23) 
Valko-2003 logP-linear (RMSE≈10% PPB, n=87)

>  <hERG_risk>  (23) 
Low

>  <hERG_model>  (23) 
Structural-alert + cLogP (Redfern-2003 anchor; ±1 class)

>  <des_sol>  (23) 
0.828

>  <des_logp>  (23) 
0.996

>  <des_perm>  (23) 
0.773

>  <des_met>  (23) 
1.000

>  <des_cyp>  (23) 
0.500

>  <des_ppb>  (23) 
1.000

>  <des_herg>  (23) 
1.000

>  <des_mw>  (23) 
0.891

$$$$

     RDKit          2D

 30 32  0  0  0  0  0  0  0  0999 V2000
   -2.1291    0.7726    0.0000 N   0  0  0  0  0  0  0  0  0  0  0  0
   -3.1589   -0.3180    0.0000 C   0  0  0  0  0  0  0  0  0  0  0  0
   -2.7294   -1.7552    0.0000 O   0  0  0  0  0  0  0  0  0  0  0  0
   -2.5587    2.2098    0.0000 C   0  0  0  0  0  0  0  0  0  0  0  0
   -0.6697    0.4261    0.0000 C   0  0  0  0  0  0  0  0  0  0  0  0
   -1.5289    3.3004    0.0000 C   0  0  0  0  0  0  0  0  0  0  0  0
    0.3601    1.5167    0.0000 C   0  0  0  0  0  0  0  0  0  0  0  0
   -0.0694    2.9538    0.0000 C   0  0  0  0  0  0  0  0  0  0  0  0
    1.8196    1.1701    0.0000 N   0  0  0  0  0  0  0  0  0  0  0  0
    0.9604    4.0445    0.0000 C   0  0  0  0  0  0  0  0  0  0  0  0
    2.8494    2.2607    0.0000 C   0  0  0  0  0  0  0  0  0  0  0  0
    2.4198    3.6979    0.0000 C   0  0  0  0  0  0  0  0  0  0  0  0
    4.3088    1.9142    0.0000 C   0  0  0  0  0  0  0  0  0  0  0  0
    4.7384    0.4770    0.0000 N   0  0  0  0  0  0  0  0  0  0  0  0
    5.3387    3.0048    0.0000 O   0  0  0  0  0  0  0  0  0  0  0  0
    6.1978    0.1305    0.0000 C   0  0  0  0  0  0  0  0  0  0  0  0
    6.6274   -1.3067    0.0000 C   0  0  0  0  0  0  0  0  0  0  0  0
    5.5976   -2.3973    0.0000 C   0  0  0  0  0  0  0  0  0  0  0  0
    8.0868   -1.6533    0.0000 C   0  0  0  0  0  0  0  0  0  0  0  0
    6.0272   -3.8345    0.0000 C   0  0  0  0  0  0  0  0  0  0  0  0
    8.5164   -3.0904    0.0000 C   0  0  0  0  0  0  0  0  0  0  0  0
    7.4866   -4.1811    0.0000 C   0  0  0  0  0  0  0  0  0  0  0  0
   -4.6184    0.0285    0.0000 C   0  0  0  0  0  0  0  0  0  0  0  0
   -5.6482   -1.0621    0.0000 N   0  0  0  0  0  0  0  0  0  0  0  0
   -7.1076   -0.7155    0.0000 C   0  0  0  0  0  0  0  0  0  0  0  0
   -8.1374   -1.8061    0.0000 C   0  0  0  0  0  0  0  0  0  0  0  0
   -7.5372    0.7217    0.0000 O   0  0  0  0  0  0  0  0  0  0  0  0
   -9.1673   -2.8967    0.0000 F   0  0  0  0  0  0  0  0  0  0  0  0
   -9.2281   -0.7763    0.0000 F   0  0  0  0  0  0  0  0  0  0  0  0
   -7.0468   -2.8360    0.0000 F   0  0  0  0  0  0  0  0  0  0  0  0
  1  2  1  0
  2  3  2  0
  1  4  1  0
  5  1  1  0
  6  4  1  0
  7  5  1  0
  8  6  1  0
  7  8  2  0
  9  7  1  0
 10  8  1  0
 11  9  2  0
 12 10  2  0
 11 12  1  0
 13 11  1  0
 13 14  1  0
 15 13  2  0
 14 16  1  0
 16 17  1  0
 17 18  2  0
 17 19  1  0
 18 20  1  0
 19 21  2  0
 20 22  2  0
 21 22  1  0
 23  2  1  0
 24 23  1  0
 25 24  1  0
 26 25  1  0
 25 27  2  0
 28 26  1  0
 26 29  1  0
 26 30  1  0
M  END
>  <Rank>  (24) 
24

>  <CR_ID>  (24) 
R-008823

>  <Acid_Name>  (24) 
R-008823

>  <SMILES>  (24) 
O=C(NCc1ccccc1)c1ccc2c(n1)CN(C(=O)CNC(=O)C(F)(F)F)CC2

>  <MPO_Score>  (24) 
0.8557

>  <MW>  (24) 
420.14

>  <cLogP>  (24) 
1.57 ± 0.40

>  <TPSA>  (24) 
91.4

>  <HBD>  (24) 
2

>  <HBA>  (24) 
4

>  <RotBonds>  (24) 
5

>  <Fsp3>  (24) 
0.300

>  <NumArRings>  (24) 
2

>  <logS_ESOL>  (24) 
-3.40 ± 0.93 log(mol/L)

>  <logS_AD>  (24) 
In

>  <logS_model>  (24) 
ESOL/Delaney-2004 (linear, n=1144, RMSE=0.93 log-units)

>  <logPapp_PAMPA>  (24) 
-6.49 ± 0.80 log(cm/s)

>  <logPapp_class>  (24) 
Medium

>  <logPapp_AD>  (24) 
In

>  <logPapp_model>  (24) 
Hou-2004 PAMPA linear (RMSE=0.8, n=100)

>  <MetStab_score>  (24) 
1.000 (0-1 scale)

>  <MetStab_t12>  (24) 
High (t½>60 min HLM)

>  <Clearance_route>  (24) 
CYP2D6/3A4 (basic-N + Ar)

>  <Met_alerts>  (24) 
None

>  <MetStab_model>  (24) 
Rule-based HLM classifier (cLogP+Fsp3+Ar-rings+alerts; heuristic ±1 class)

>  <CYP_risk>  (24) 
Low

>  <CYP_alerts>  (24) 
None

>  <CYP2D6_flag>  (24) 
False

>  <CYP3A4_flag>  (24) 
False

>  <CYP2C9_flag>  (24) 
False

>  <CYP_model>  (24) 
SMARTS alert panel (pharmacophore-based; flag only – no IC50 predicted)

>  <PPB_pct>  (24) 
84.4 ± 10 %

>  <PPB_fu>  (24) 
0.1558

>  <PPB_class>  (24) 
Moderate (80-90%)

>  <PPB_AD>  (24) 
In

>  <PPB_model>  (24) 
Valko-2003 logP-linear (RMSE≈10% PPB, n=87)

>  <hERG_risk>  (24) 
Low

>  <hERG_model>  (24) 
Structural-alert + cLogP (Redfern-2003 anchor; ±1 class)

>  <des_sol>  (24) 
0.840

>  <des_logp>  (24) 
0.787

>  <des_perm>  (24) 
0.340

>  <des_met>  (24) 
1.000

>  <des_cyp>  (24) 
1.000

>  <des_ppb>  (24) 
1.000

>  <des_herg>  (24) 
1.000

>  <des_mw>  (24) 
1.000

$$$$

     RDKit          2D

 24 26  0  0  0  0  0  0  0  0999 V2000
   -4.1056   -0.6730    0.0000 N   0  0  0  0  0  0  0  0  0  0  0  0
   -4.8136   -1.9954    0.0000 C   0  0  0  0  0  0  0  0  0  0  0  0
   -4.0224   -3.2697    0.0000 O   0  0  0  0  0  0  0  0  0  0  0  0
   -4.8968    0.6014    0.0000 C   0  0  0  0  0  0  0  0  0  0  0  0
   -2.6063   -0.6250    0.0000 C   0  0  0  0  0  0  0  0  0  0  0  0
   -4.1887    1.9238    0.0000 C   0  0  0  0  0  0  0  0  0  0  0  0
   -1.8983    0.6974    0.0000 C   0  0  0  0  0  0  0  0  0  0  0  0
   -2.6895    1.9718    0.0000 C   0  0  0  0  0  0  0  0  0  0  0  0
   -0.3991    0.7454    0.0000 N   0  0  0  0  0  0  0  0  0  0  0  0
   -1.9814    3.2941    0.0000 C   0  0  0  0  0  0  0  0  0  0  0  0
    0.3090    2.0678    0.0000 C   0  0  0  0  0  0  0  0  0  0  0  0
   -0.4822    3.3421    0.0000 C   0  0  0  0  0  0  0  0  0  0  0  0
    1.8082    2.1158    0.0000 C   0  0  0  0  0  0  0  0  0  0  0  0
    2.5994    0.8414    0.0000 N   0  0  0  0  0  0  0  0  0  0  0  0
    2.5163    3.4381    0.0000 O   0  0  0  0  0  0  0  0  0  0  0  0
    4.0986    0.8894    0.0000 C   0  0  0  0  0  0  0  0  0  0  0  0
    4.8898   -0.3850    0.0000 C   0  0  0  0  0  0  0  0  0  0  0  0
    4.1818   -1.7074    0.0000 C   0  0  0  0  0  0  0  0  0  0  0  0
    6.3891   -0.3370    0.0000 C   0  0  0  0  0  0  0  0  0  0  0  0
    4.9730   -2.9817    0.0000 C   0  0  0  0  0  0  0  0  0  0  0  0
    7.1802   -1.6114    0.0000 C   0  0  0  0  0  0  0  0  0  0  0  0
    6.4722   -2.9337    0.0000 C   0  0  0  0  0  0  0  0  0  0  0  0
   -6.3128   -2.0434    0.0000 C   0  0  0  0  0  0  0  0  0  0  0  0
   -7.0209   -3.3657    0.0000 C   0  0  0  0  0  0  0  0  0  0  0  0
  1  2  1  0
  2  3  2  0
  1  4  1  0
  5  1  1  0
  6  4  1  0
  7  5  1  0
  8  6  1  0
  7  8  2  0
  9  7  1  0
 10  8  1  0
 11  9  2  0
 12 10  2  0
 11 12  1  0
 13 11  1  0
 13 14  1  0
 15 13  2  0
 14 16  1  0
 16 17  1  0
 17 18  2  0
 17 19  1  0
 18 20  1  0
 19 21  2  0
 20 22  2  0
 21 22  1  0
  2 23  1  0
 23 24  1  0
M  END
>  <Rank>  (25) 
25

>  <CR_ID>  (25) 
R-004701

>  <Acid_Name>  (25) 
R-004701

>  <SMILES>  (25) 
CCC(=O)N1CCc2ccc(C(=O)NCc3ccccc3)nc2C1

>  <MPO_Score>  (25) 
0.8478

>  <MW>  (25) 
323.16

>  <cLogP>  (25) 
2.31 ± 0.40

>  <TPSA>  (25) 
62.3

>  <HBD>  (25) 
1

>  <HBA>  (25) 
3

>  <RotBonds>  (25) 
4

>  <Fsp3>  (25) 
0.316

>  <NumArRings>  (25) 
2

>  <logS_ESOL>  (25) 
-3.40 ± 0.93 log(mol/L)

>  <logS_AD>  (25) 
In

>  <logS_model>  (25) 
ESOL/Delaney-2004 (linear, n=1144, RMSE=0.93 log-units)

>  <logPapp_PAMPA>  (25) 
-5.59 ± 0.80 log(cm/s)

>  <logPapp_class>  (25) 
Medium

>  <logPapp_AD>  (25) 
In

>  <logPapp_model>  (25) 
Hou-2004 PAMPA linear (RMSE=0.8, n=100)

>  <MetStab_score>  (25) 
1.000 (0-1 scale)

>  <MetStab_t12>  (25) 
High (t½>60 min HLM)

>  <Clearance_route>  (25) 
CYP2D6/3A4 (basic-N + Ar)

>  <Met_alerts>  (25) 
None

>  <MetStab_model>  (25) 
Rule-based HLM classifier (cLogP+Fsp3+Ar-rings+alerts; heuristic ±1 class)

>  <CYP_risk>  (25) 
Low

>  <CYP_alerts>  (25) 
None

>  <CYP2D6_flag>  (25) 
False

>  <CYP3A4_flag>  (25) 
False

>  <CYP2C9_flag>  (25) 
False

>  <CYP_model>  (25) 
SMARTS alert panel (pharmacophore-based; flag only – no IC50 predicted)

>  <PPB_pct>  (25) 
94.8 ± 10 %

>  <PPB_fu>  (25) 
0.0520

>  <PPB_class>  (25) 
High (90-95%)

>  <PPB_AD>  (25) 
In

>  <PPB_model>  (25) 
Valko-2003 logP-linear (RMSE≈10% PPB, n=87)

>  <hERG_risk>  (25) 
Medium

>  <hERG_model>  (25) 
Structural-alert + cLogP (Redfern-2003 anchor; ±1 class)

>  <des_sol>  (25) 
0.840

>  <des_logp>  (25) 
1.000

>  <des_perm>  (25) 
0.940

>  <des_met>  (25) 
1.000

>  <des_cyp>  (25) 
1.000

>  <des_ppb>  (25) 
1.000

>  <des_herg>  (25) 
0.500

>  <des_mw>  (25) 
0.616

$$$$

     RDKit          2D

 25 28  0  0  0  0  0  0  0  0999 V2000
   -4.6848   -0.6456    0.0000 N   0  0  0  0  0  0  0  0  0  0  0  0
   -6.0651   -0.0584    0.0000 C   0  0  0  0  0  0  0  0  0  0  0  0
   -7.2638   -0.9601    0.0000 O   0  0  0  0  0  0  0  0  0  0  0  0
   -4.5033   -2.1346    0.0000 C   0  0  0  0  0  0  0  0  0  0  0  0
   -3.4861    0.2561    0.0000 C   0  0  0  0  0  0  0  0  0  0  0  0
   -3.1230   -2.7219    0.0000 C   0  0  0  0  0  0  0  0  0  0  0  0
   -2.1058   -0.3312    0.0000 C   0  0  0  0  0  0  0  0  0  0  0  0
   -1.9243   -1.8202    0.0000 C   0  0  0  0  0  0  0  0  0  0  0  0
   -0.9071    0.5705    0.0000 N   0  0  0  0  0  0  0  0  0  0  0  0
   -0.5440   -2.4075    0.0000 C   0  0  0  0  0  0  0  0  0  0  0  0
    0.4732   -0.0168    0.0000 C   0  0  0  0  0  0  0  0  0  0  0  0
    0.6547   -1.5058    0.0000 C   0  0  0  0  0  0  0  0  0  0  0  0
    1.6719    0.8849    0.0000 C   0  0  0  0  0  0  0  0  0  0  0  0
    3.0521    0.2976    0.0000 N   0  0  0  0  0  0  0  0  0  0  0  0
    1.4903    2.3739    0.0000 O   0  0  0  0  0  0  0  0  0  0  0  0
    4.2509    1.1993    0.0000 C   0  0  0  0  0  0  0  0  0  0  0  0
    5.6311    0.6121    0.0000 C   0  0  0  0  0  0  0  0  0  0  0  0
    5.8127   -0.8769    0.0000 C   0  0  0  0  0  0  0  0  0  0  0  0
    6.8298    1.5138    0.0000 C   0  0  0  0  0  0  0  0  0  0  0  0
    7.1929   -1.4642    0.0000 C   0  0  0  0  0  0  0  0  0  0  0  0
    8.2101    0.9265    0.0000 C   0  0  0  0  0  0  0  0  0  0  0  0
    8.3916   -0.5625    0.0000 C   0  0  0  0  0  0  0  0  0  0  0  0
   -6.2466    1.4306    0.0000 C   0  0  0  0  0  0  0  0  0  0  0  0
   -7.1483    2.6293    0.0000 C   0  0  0  0  0  0  0  0  0  0  0  0
   -5.6593    2.8109    0.0000 C   0  0  0  0  0  0  0  0  0  0  0  0
  1  2  1  0
  2  3  2  0
  1  4  1  0
  5  1  1  0
  6  4  1  0
  7  5  1  0
  8  6  1  0
  7  8  2  0
  9  7  1  0
 10  8  1  0
 11  9  2  0
 12 10  2  0
 11 12  1  0
 13 11  1  0
 13 14  1  0
 15 13  2  0
 14 16  1  0
 16 17  1  0
 17 18  2  0
 17 19  1  0
 18 20  1  0
 19 21  2  0
 20 22  2  0
 21 22  1  0
  2 23  1  0
 23 24  1  0
 23 25  1  0
 24 25  1  0
M  END
>  <Rank>  (26) 
26

>  <CR_ID>  (26) 
R-000475

>  <Acid_Name>  (26) 
R-000475

>  <SMILES>  (26) 
O=C(NCc1ccccc1)c1ccc2c(n1)CN(C(=O)C1CC1)CC2

>  <MPO_Score>  (26) 
0.8462

>  <MW>  (26) 
335.16

>  <cLogP>  (26) 
2.31 ± 0.40

>  <TPSA>  (26) 
62.3

>  <HBD>  (26) 
1

>  <HBA>  (26) 
3

>  <RotBonds>  (26) 
4

>  <Fsp3>  (26) 
0.350

>  <NumArRings>  (26) 
2

>  <logS_ESOL>  (26) 
-3.46 ± 0.93 log(mol/L)

>  <logS_AD>  (26) 
In

>  <logS_model>  (26) 
ESOL/Delaney-2004 (linear, n=1144, RMSE=0.93 log-units)

>  <logPapp_PAMPA>  (26) 
-5.60 ± 0.80 log(cm/s)

>  <logPapp_class>  (26) 
Medium

>  <logPapp_AD>  (26) 
In

>  <logPapp_model>  (26) 
Hou-2004 PAMPA linear (RMSE=0.8, n=100)

>  <MetStab_score>  (26) 
1.000 (0-1 scale)

>  <MetStab_t12>  (26) 
High (t½>60 min HLM)

>  <Clearance_route>  (26) 
CYP2D6/3A4 (basic-N + Ar)

>  <Met_alerts>  (26) 
None

>  <MetStab_model>  (26) 
Rule-based HLM classifier (cLogP+Fsp3+Ar-rings+alerts; heuristic ±1 class)

>  <CYP_risk>  (26) 
Low

>  <CYP_alerts>  (26) 
None

>  <CYP2D6_flag>  (26) 
False

>  <CYP3A4_flag>  (26) 
False

>  <CYP2C9_flag>  (26) 
False

>  <CYP_model>  (26) 
SMARTS alert panel (pharmacophore-based; flag only – no IC50 predicted)

>  <PPB_pct>  (26) 
94.8 ± 10 %

>  <PPB_fu>  (26) 
0.0520

>  <PPB_class>  (26) 
High (90-95%)

>  <PPB_AD>  (26) 
In

>  <PPB_model>  (26) 
Valko-2003 logP-linear (RMSE≈10% PPB, n=87)

>  <hERG_risk>  (26) 
Medium

>  <hERG_model>  (26) 
Structural-alert + cLogP (Redfern-2003 anchor; ±1 class)

>  <des_sol>  (26) 
0.816

>  <des_logp>  (26) 
1.000

>  <des_perm>  (26) 
0.933

>  <des_met>  (26) 
1.000

>  <des_cyp>  (26) 
1.000

>  <des_ppb>  (26) 
1.000

>  <des_herg>  (26) 
0.500

>  <des_mw>  (26) 
0.676

$$$$

     RDKit          2D

 25 27  0  0  0  0  0  0  0  0999 V2000
   -3.7932   -0.2700    0.0000 N   0  0  0  0  0  0  0  0  0  0  0  0
   -4.5926   -1.5393    0.0000 C   0  0  0  0  0  0  0  0  0  0  0  0
   -3.8931   -2.8662    0.0000 O   0  0  0  0  0  0  0  0  0  0  0  0
   -4.4927    1.0569    0.0000 C   0  0  0  0  0  0  0  0  0  0  0  0
   -2.2943   -0.3277    0.0000 C   0  0  0  0  0  0  0  0  0  0  0  0
   -3.6933    2.3261    0.0000 C   0  0  0  0  0  0  0  0  0  0  0  0
   -1.4949    0.9415    0.0000 C   0  0  0  0  0  0  0  0  0  0  0  0
   -2.1944    2.2685    0.0000 C   0  0  0  0  0  0  0  0  0  0  0  0
    0.0040    0.8838    0.0000 N   0  0  0  0  0  0  0  0  0  0  0  0
   -1.3950    3.5377    0.0000 C   0  0  0  0  0  0  0  0  0  0  0  0
    0.8034    2.1531    0.0000 C   0  0  0  0  0  0  0  0  0  0  0  0
    0.1039    3.4800    0.0000 C   0  0  0  0  0  0  0  0  0  0  0  0
    2.3023    2.0954    0.0000 C   0  0  0  0  0  0  0  0  0  0  0  0
    3.0018    0.7685    0.0000 N   0  0  0  0  0  0  0  0  0  0  0  0
    3.1017    3.3646    0.0000 O   0  0  0  0  0  0  0  0  0  0  0  0
    4.5007    0.7108    0.0000 C   0  0  0  0  0  0  0  0  0  0  0  0
    5.2002   -0.6161    0.0000 C   0  0  0  0  0  0  0  0  0  0  0  0
    4.4008   -1.8854    0.0000 C   0  0  0  0  0  0  0  0  0  0  0  0
    6.6990   -0.6738    0.0000 C   0  0  0  0  0  0  0  0  0  0  0  0
    5.1002   -3.2123    0.0000 C   0  0  0  0  0  0  0  0  0  0  0  0
    7.3985   -2.0007    0.0000 C   0  0  0  0  0  0  0  0  0  0  0  0
    6.5991   -3.2700    0.0000 C   0  0  0  0  0  0  0  0  0  0  0  0
   -6.0915   -1.4816    0.0000 C   0  0  0  0  0  0  0  0  0  0  0  0
   -6.8909   -2.7508    0.0000 S   0  0  0  0  0  0  0  0  0  0  0  0
   -8.3898   -2.6931    0.0000 C   0  0  0  0  0  0  0  0  0  0  0  0
  1  2  1  0
  2  3  2  0
  1  4  1  0
  5  1  1  0
  6  4  1  0
  7  5  1  0
  8  6  1  0
  7  8  2  0
  9  7  1  0
 10  8  1  0
 11  9  2  0
 12 10  2  0
 11 12  1  0
 13 11  1  0
 13 14  1  0
 15 13  2  0
 14 16  1  0
 16 17  1  0
 17 18  2  0
 17 19  1  0
 18 20  1  0
 19 21  2  0
 20 22  2  0
 21 22  1  0
 23  2  1  0
 24 23  1  0
 24 25  1  0
M  END
>  <Rank>  (27) 
27

>  <CR_ID>  (27) 
R-009785

>  <Acid_Name>  (27) 
R-009785

>  <SMILES>  (27) 
CSCC(=O)N1CCc2ccc(C(=O)NCc3ccccc3)nc2C1

>  <MPO_Score>  (27) 
0.8454

>  <MW>  (27) 
355.14

>  <cLogP>  (27) 
2.26 ± 0.40

>  <TPSA>  (27) 
62.3

>  <HBD>  (27) 
1

>  <HBA>  (27) 
4

>  <RotBonds>  (27) 
5

>  <Fsp3>  (27) 
0.316

>  <NumArRings>  (27) 
2

>  <logS_ESOL>  (27) 
-3.49 ± 0.93 log(mol/L)

>  <logS_AD>  (27) 
In

>  <logS_model>  (27) 
ESOL/Delaney-2004 (linear, n=1144, RMSE=0.93 log-units)

>  <logPapp_PAMPA>  (27) 
-5.64 ± 0.80 log(cm/s)

>  <logPapp_class>  (27) 
Medium

>  <logPapp_AD>  (27) 
In

>  <logPapp_model>  (27) 
Hou-2004 PAMPA linear (RMSE=0.8, n=100)

>  <MetStab_score>  (27) 
1.000 (0-1 scale)

>  <MetStab_t12>  (27) 
High (t½>60 min HLM)

>  <Clearance_route>  (27) 
CYP2D6/3A4 (basic-N + Ar)

>  <Met_alerts>  (27) 
None

>  <MetStab_model>  (27) 
Rule-based HLM classifier (cLogP+Fsp3+Ar-rings+alerts; heuristic ±1 class)

>  <CYP_risk>  (27) 
Low

>  <CYP_alerts>  (27) 
None

>  <CYP2D6_flag>  (27) 
False

>  <CYP3A4_flag>  (27) 
False

>  <CYP2C9_flag>  (27) 
False

>  <CYP_model>  (27) 
SMARTS alert panel (pharmacophore-based; flag only – no IC50 predicted)

>  <PPB_pct>  (27) 
94.4 ± 10 %

>  <PPB_fu>  (27) 
0.0560

>  <PPB_class>  (27) 
High (90-95%)

>  <PPB_AD>  (27) 
In

>  <PPB_model>  (27) 
Valko-2003 logP-linear (RMSE≈10% PPB, n=87)

>  <hERG_risk>  (27) 
Medium

>  <hERG_model>  (27) 
Structural-alert + cLogP (Redfern-2003 anchor; ±1 class)

>  <des_sol>  (27) 
0.804

>  <des_logp>  (27) 
1.000

>  <des_perm>  (27) 
0.907

>  <des_met>  (27) 
1.000

>  <des_cyp>  (27) 
1.000

>  <des_ppb>  (27) 
1.000

>  <des_herg>  (27) 
0.500

>  <des_mw>  (27) 
0.776

$$$$

     RDKit          2D

 25 27  0  0  0  0  0  0  0  0999 V2000
   -3.8298   -0.5898    0.0000 N   0  0  0  0  0  0  0  0  0  0  0  0
   -4.5559   -1.9024    0.0000 C   0  0  0  0  0  0  0  0  0  0  0  0
   -3.7823   -3.1875    0.0000 O   0  0  0  0  0  0  0  0  0  0  0  0
   -4.6035    0.6952    0.0000 C   0  0  0  0  0  0  0  0  0  0  0  0
   -2.3301   -0.5624    0.0000 C   0  0  0  0  0  0  0  0  0  0  0  0
   -3.8774    2.0078    0.0000 C   0  0  0  0  0  0  0  0  0  0  0  0
   -1.6040    0.7502    0.0000 C   0  0  0  0  0  0  0  0  0  0  0  0
   -2.3777    2.0353    0.0000 C   0  0  0  0  0  0  0  0  0  0  0  0
   -0.1043    0.7776    0.0000 N   0  0  0  0  0  0  0  0  0  0  0  0
   -1.6516    3.3478    0.0000 C   0  0  0  0  0  0  0  0  0  0  0  0
    0.6218    2.0902    0.0000 C   0  0  0  0  0  0  0  0  0  0  0  0
   -0.1518    3.3753    0.0000 C   0  0  0  0  0  0  0  0  0  0  0  0
    2.1216    2.1177    0.0000 C   0  0  0  0  0  0  0  0  0  0  0  0
    2.8952    0.8326    0.0000 N   0  0  0  0  0  0  0  0  0  0  0  0
    2.8477    3.4302    0.0000 O   0  0  0  0  0  0  0  0  0  0  0  0
    4.3950    0.8601    0.0000 C   0  0  0  0  0  0  0  0  0  0  0  0
    5.1687   -0.4250    0.0000 C   0  0  0  0  0  0  0  0  0  0  0  0
    4.4426   -1.7376    0.0000 C   0  0  0  0  0  0  0  0  0  0  0  0
    6.6684   -0.3976    0.0000 C   0  0  0  0  0  0  0  0  0  0  0  0
    5.2162   -3.0227    0.0000 C   0  0  0  0  0  0  0  0  0  0  0  0
    7.4421   -1.6826    0.0000 C   0  0  0  0  0  0  0  0  0  0  0  0
    6.7160   -2.9952    0.0000 C   0  0  0  0  0  0  0  0  0  0  0  0
   -6.0557   -1.9299    0.0000 C   0  0  0  0  0  0  0  0  0  0  0  0
   -6.7818   -3.2424    0.0000 F   0  0  0  0  0  0  0  0  0  0  0  0
   -6.8293   -0.6448    0.0000 F   0  0  0  0  0  0  0  0  0  0  0  0
  1  2  1  0
  2  3  2  0
  1  4  1  0
  5  1  1  0
  6  4  1  0
  7  5  1  0
  8  6  1  0
  7  8  2  0
  9  7  1  0
 10  8  1  0
 11  9  2  0
 12 10  2  0
 11 12  1  0
 13 11  1  0
 13 14  1  0
 15 13  2  0
 14 16  1  0
 16 17  1  0
 17 18  2  0
 17 19  1  0
 18 20  1  0
 19 21  2  0
 20 22  2  0
 21 22  1  0
 23  2  1  0
 24 23  1  0
 23 25  1  0
M  END
>  <Rank>  (28) 
28

>  <CR_ID>  (28) 
R-008826

>  <Acid_Name>  (28) 
R-008826

>  <SMILES>  (28) 
O=C(NCc1ccccc1)c1ccc2c(n1)CN(C(=O)C(F)F)CC2

>  <MPO_Score>  (28) 
0.8425

>  <MW>  (28) 
345.13

>  <cLogP>  (28) 
2.16 ± 0.40

>  <TPSA>  (28) 
62.3

>  <HBD>  (28) 
1

>  <HBA>  (28) 
3

>  <RotBonds>  (28) 
4

>  <Fsp3>  (28) 
0.278

>  <NumArRings>  (28) 
2

>  <logS_ESOL>  (28) 
-3.43 ± 0.93 log(mol/L)

>  <logS_AD>  (28) 
In

>  <logS_model>  (28) 
ESOL/Delaney-2004 (linear, n=1144, RMSE=0.93 log-units)

>  <logPapp_PAMPA>  (28) 
-5.68 ± 0.80 log(cm/s)

>  <logPapp_class>  (28) 
Medium

>  <logPapp_AD>  (28) 
In

>  <logPapp_model>  (28) 
Hou-2004 PAMPA linear (RMSE=0.8, n=100)

>  <MetStab_score>  (28) 
1.000 (0-1 scale)

>  <MetStab_t12>  (28) 
High (t½>60 min HLM)

>  <Clearance_route>  (28) 
CYP2D6/3A4 (basic-N + Ar)

>  <Met_alerts>  (28) 
None

>  <MetStab_model>  (28) 
Rule-based HLM classifier (cLogP+Fsp3+Ar-rings+alerts; heuristic ±1 class)

>  <CYP_risk>  (28) 
Low

>  <CYP_alerts>  (28) 
None

>  <CYP2D6_flag>  (28) 
False

>  <CYP3A4_flag>  (28) 
False

>  <CYP2C9_flag>  (28) 
False

>  <CYP_model>  (28) 
SMARTS alert panel (pharmacophore-based; flag only – no IC50 predicted)

>  <PPB_pct>  (28) 
93.5 ± 10 %

>  <PPB_fu>  (28) 
0.0652

>  <PPB_class>  (28) 
High (90-95%)

>  <PPB_AD>  (28) 
In

>  <PPB_model>  (28) 
Valko-2003 logP-linear (RMSE≈10% PPB, n=87)

>  <hERG_risk>  (28) 
Medium

>  <hERG_model>  (28) 
Structural-alert + cLogP (Redfern-2003 anchor; ±1 class)

>  <des_sol>  (28) 
0.828

>  <des_logp>  (28) 
1.000

>  <des_perm>  (28) 
0.880

>  <des_met>  (28) 
1.000

>  <des_cyp>  (28) 
1.000

>  <des_ppb>  (28) 
1.000

>  <des_herg>  (28) 
0.500

>  <des_mw>  (28) 
0.726

$$$$

     RDKit          2D

 29 31  0  0  0  0  0  0  0  0999 V2000
   -2.3987    0.3952    0.0000 N   0  0  0  0  0  0  0  0  0  0  0  0
   -3.3499   -0.7646    0.0000 C   0  0  0  0  0  0  0  0  0  0  0  0
   -2.8210   -2.1683    0.0000 O   0  0  0  0  0  0  0  0  0  0  0  0
   -2.9275    1.7989    0.0000 C   0  0  0  0  0  0  0  0  0  0  0  0
   -0.9187    0.1514    0.0000 C   0  0  0  0  0  0  0  0  0  0  0  0
   -1.9763    2.9587    0.0000 C   0  0  0  0  0  0  0  0  0  0  0  0
    0.0325    1.3112    0.0000 C   0  0  0  0  0  0  0  0  0  0  0  0
   -0.4963    2.7149    0.0000 C   0  0  0  0  0  0  0  0  0  0  0  0
    1.5126    1.0673    0.0000 N   0  0  0  0  0  0  0  0  0  0  0  0
    0.4549    3.8747    0.0000 C   0  0  0  0  0  0  0  0  0  0  0  0
    2.4638    2.2272    0.0000 C   0  0  0  0  0  0  0  0  0  0  0  0
    1.9349    3.6309    0.0000 C   0  0  0  0  0  0  0  0  0  0  0  0
    3.9438    1.9833    0.0000 C   0  0  0  0  0  0  0  0  0  0  0  0
    4.4727    0.5797    0.0000 N   0  0  0  0  0  0  0  0  0  0  0  0
    4.8950    3.1432    0.0000 O   0  0  0  0  0  0  0  0  0  0  0  0
    5.9527    0.3358    0.0000 C   0  0  0  0  0  0  0  0  0  0  0  0
    6.4816   -1.0679    0.0000 C   0  0  0  0  0  0  0  0  0  0  0  0
    5.5304   -2.2277    0.0000 C   0  0  0  0  0  0  0  0  0  0  0  0
    7.9616   -1.3117    0.0000 C   0  0  0  0  0  0  0  0  0  0  0  0
    6.0592   -3.6314    0.0000 C   0  0  0  0  0  0  0  0  0  0  0  0
    8.4905   -2.7154    0.0000 C   0  0  0  0  0  0  0  0  0  0  0  0
    7.5393   -3.8752    0.0000 C   0  0  0  0  0  0  0  0  0  0  0  0
   -4.8299   -0.5208    0.0000 C   0  0  0  0  0  0  0  0  0  0  0  0
   -5.7811   -1.6806    0.0000 C   0  0  0  0  0  0  0  0  0  0  0  0
   -7.2612   -1.4368    0.0000 N   0  0  0  0  0  0  0  0  0  0  0  0
   -8.2124   -2.5966    0.0000 C   0  0  0  0  0  0  0  0  0  0  0  0
   -7.7900   -0.0331    0.0000 C   0  0  0  0  0  0  0  0  0  0  0  0
   -9.6924   -2.3528    0.0000 C   0  0  0  0  0  0  0  0  0  0  0  0
   -9.2701    0.2107    0.0000 C   0  0  0  0  0  0  0  0  0  0  0  0
  1  2  1  0
  2  3  2  0
  1  4  1  0
  5  1  1  0
  6  4  1  0
  7  5  1  0
  8  6  1  0
  7  8  2  0
  9  7  1  0
 10  8  1  0
 11  9  2  0
 12 10  2  0
 11 12  1  0
 13 11  1  0
 13 14  1  0
 15 13  2  0
 14 16  1  0
 16 17  1  0
 17 18  2  0
 17 19  1  0
 18 20  1  0
 19 21  2  0
 20 22  2  0
 21 22  1  0
  2 23  1  0
 23 24  1  0
 24 25  1  0
 25 26  1  0
 25 27  1  0
 26 28  1  0
 27 29  1  0
M  END
>  <Rank>  (29) 
29

>  <CR_ID>  (29) 
R-004945

>  <Acid_Name>  (29) 
R-004945

>  <SMILES>  (29) 
CCN(CC)CCC(=O)N1CCc2ccc(C(=O)NCc3ccccc3)nc2C1

>  <MPO_Score>  (29) 
0.8364

>  <MW>  (29) 
394.24

>  <cLogP>  (29) 
2.63 ± 0.40

>  <TPSA>  (29) 
65.5

>  <HBD>  (29) 
1

>  <HBA>  (29) 
4

>  <RotBonds>  (29) 
8

>  <Fsp3>  (29) 
0.435

>  <NumArRings>  (29) 
2

>  <logS_ESOL>  (29) 
-3.72 ± 0.93 log(mol/L)

>  <logS_AD>  (29) 
In

>  <logS_model>  (29) 
ESOL/Delaney-2004 (linear, n=1144, RMSE=0.93 log-units)

>  <logPapp_PAMPA>  (29) 
-5.54 ± 0.80 log(cm/s)

>  <logPapp_class>  (29) 
Medium

>  <logPapp_AD>  (29) 
In

>  <logPapp_model>  (29) 
Hou-2004 PAMPA linear (RMSE=0.8, n=100)

>  <MetStab_score>  (29) 
1.000 (0-1 scale)

>  <MetStab_t12>  (29) 
High (t½>60 min HLM)

>  <Clearance_route>  (29) 
CYP2D6/3A4 (basic-N + Ar)

>  <Met_alerts>  (29) 
tert-amine: CYP

>  <MetStab_model>  (29) 
Rule-based HLM classifier (cLogP+Fsp3+Ar-rings+alerts; heuristic ±1 class)

>  <CYP_risk>  (29) 
Low

>  <CYP_alerts>  (29) 
None

>  <CYP2D6_flag>  (29) 
False

>  <CYP3A4_flag>  (29) 
False

>  <CYP2C9_flag>  (29) 
False

>  <CYP_model>  (29) 
SMARTS alert panel (pharmacophore-based; flag only – no IC50 predicted)

>  <PPB_pct>  (29) 
96.9 ± 10 %

>  <PPB_fu>  (29) 
0.0312

>  <PPB_class>  (29) 
Very high (>95%)

>  <PPB_AD>  (29) 
In

>  <PPB_model>  (29) 
Valko-2003 logP-linear (RMSE≈10% PPB, n=87)

>  <hERG_risk>  (29) 
Medium

>  <hERG_model>  (29) 
Structural-alert + cLogP (Redfern-2003 anchor; ±1 class)

>  <des_sol>  (29) 
0.712

>  <des_logp>  (29) 
1.000

>  <des_perm>  (29) 
0.973

>  <des_met>  (29) 
1.000

>  <des_cyp>  (29) 
1.000

>  <des_ppb>  (29) 
0.700

>  <des_herg>  (29) 
0.500

>  <des_mw>  (29) 
0.971

$$$$

     RDKit          2D

 27 29  0  0  0  0  0  0  0  0999 V2000
   -3.1114    0.1879    0.0000 N   0  0  0  0  0  0  0  0  0  0  0  0
   -4.0140   -1.0101    0.0000 C   0  0  0  0  0  0  0  0  0  0  0  0
   -3.4278   -2.3909    0.0000 O   0  0  0  0  0  0  0  0  0  0  0  0
   -3.6976    1.5686    0.0000 C   0  0  0  0  0  0  0  0  0  0  0  0
   -1.6226    0.0052    0.0000 C   0  0  0  0  0  0  0  0  0  0  0  0
   -2.7950    2.7666    0.0000 C   0  0  0  0  0  0  0  0  0  0  0  0
   -0.7199    1.2032    0.0000 C   0  0  0  0  0  0  0  0  0  0  0  0
   -1.3061    2.5839    0.0000 C   0  0  0  0  0  0  0  0  0  0  0  0
    0.7689    1.0205    0.0000 N   0  0  0  0  0  0  0  0  0  0  0  0
   -0.4035    3.7820    0.0000 C   0  0  0  0  0  0  0  0  0  0  0  0
    1.6715    2.2186    0.0000 C   0  0  0  0  0  0  0  0  0  0  0  0
    1.0853    3.5993    0.0000 C   0  0  0  0  0  0  0  0  0  0  0  0
    3.1604    2.0359    0.0000 C   0  0  0  0  0  0  0  0  0  0  0  0
    3.7466    0.6552    0.0000 N   0  0  0  0  0  0  0  0  0  0  0  0
    4.0630    3.2339    0.0000 O   0  0  0  0  0  0  0  0  0  0  0  0
    5.2354    0.4725    0.0000 C   0  0  0  0  0  0  0  0  0  0  0  0
    5.8216   -0.9082    0.0000 C   0  0  0  0  0  0  0  0  0  0  0  0
    4.9190   -2.1062    0.0000 C   0  0  0  0  0  0  0  0  0  0  0  0
    7.3104   -1.0909    0.0000 C   0  0  0  0  0  0  0  0  0  0  0  0
    5.5052   -3.4870    0.0000 C   0  0  0  0  0  0  0  0  0  0  0  0
    7.8967   -2.4716    0.0000 C   0  0  0  0  0  0  0  0  0  0  0  0
    6.9940   -3.6696    0.0000 C   0  0  0  0  0  0  0  0  0  0  0  0
   -5.5029   -0.8275    0.0000 C   0  0  0  0  0  0  0  0  0  0  0  0
   -6.4055   -2.0255    0.0000 O   0  0  0  0  0  0  0  0  0  0  0  0
   -7.8943   -1.8428    0.0000 C   0  0  0  0  0  0  0  0  0  0  0  0
   -8.7969   -3.0408    0.0000 C   0  0  0  0  0  0  0  0  0  0  0  0
   -8.4805   -0.4621    0.0000 C   0  0  0  0  0  0  0  0  0  0  0  0
  1  2  1  0
  2  3  2  0
  1  4  1  0
  5  1  1  0
  6  4  1  0
  7  5  1  0
  8  6  1  0
  7  8  2  0
  9  7  1  0
 10  8  1  0
 11  9  2  0
 12 10  2  0
 11 12  1  0
 13 11  1  0
 13 14  1  0
 15 13  2  0
 14 16  1  0
 16 17  1  0
 17 18  2  0
 17 19  1  0
 18 20  1  0
 19 21  2  0
 20 22  2  0
 21 22  1  0
  2 23  1  0
 23 24  1  0
 24 25  1  0
 25 26  1  0
 25 27  1  0
M  END
>  <Rank>  (30) 
30

>  <CR_ID>  (30) 
R-011406

>  <Acid_Name>  (30) 
R-011406

>  <SMILES>  (30) 
CC(C)OCC(=O)N1CCc2ccc(C(=O)NCc3ccccc3)nc2C1

>  <MPO_Score>  (30) 
0.8352

>  <MW>  (30) 
367.19

>  <cLogP>  (30) 
2.32 ± 0.40

>  <TPSA>  (30) 
71.5

>  <HBD>  (30) 
1

>  <HBA>  (30) 
4

>  <RotBonds>  (30) 
6

>  <Fsp3>  (30) 
0.381

>  <NumArRings>  (30) 
2

>  <logS_ESOL>  (30) 
-3.51 ± 0.93 log(mol/L)

>  <logS_AD>  (30) 
In

>  <logS_model>  (30) 
ESOL/Delaney-2004 (linear, n=1144, RMSE=0.93 log-units)

>  <logPapp_PAMPA>  (30) 
-5.76 ± 0.80 log(cm/s)

>  <logPapp_class>  (30) 
Medium

>  <logPapp_AD>  (30) 
In

>  <logPapp_model>  (30) 
Hou-2004 PAMPA linear (RMSE=0.8, n=100)

>  <MetStab_score>  (30) 
1.000 (0-1 scale)

>  <MetStab_t12>  (30) 
High (t½>60 min HLM)

>  <Clearance_route>  (30) 
CYP2D6/3A4 (basic-N + Ar)

>  <Met_alerts>  (30) 
None

>  <MetStab_model>  (30) 
Rule-based HLM classifier (cLogP+Fsp3+Ar-rings+alerts; heuristic ±1 class)

>  <CYP_risk>  (30) 
Low

>  <CYP_alerts>  (30) 
None

>  <CYP2D6_flag>  (30) 
False

>  <CYP3A4_flag>  (30) 
False

>  <CYP2C9_flag>  (30) 
False

>  <CYP_model>  (30) 
SMARTS alert panel (pharmacophore-based; flag only – no IC50 predicted)

>  <PPB_pct>  (30) 
94.9 ± 10 %

>  <PPB_fu>  (30) 
0.0508

>  <PPB_class>  (30) 
High (90-95%)

>  <PPB_AD>  (30) 
In

>  <PPB_model>  (30) 
Valko-2003 logP-linear (RMSE≈10% PPB, n=87)

>  <hERG_risk>  (30) 
Medium

>  <hERG_model>  (30) 
Structural-alert + cLogP (Redfern-2003 anchor; ±1 class)

>  <des_sol>  (30) 
0.796

>  <des_logp>  (30) 
1.000

>  <des_perm>  (30) 
0.827

>  <des_met>  (30) 
1.000

>  <des_cyp>  (30) 
1.000

>  <des_ppb>  (30) 
1.000

>  <des_herg>  (30) 
0.500

>  <des_mw>  (30) 
0.836

$$$$

     RDKit          2D

 28 31  0  0  0  0  0  0  0  0999 V2000
   -3.4841   -1.1923    0.0000 N   0  0  0  0  0  0  0  0  0  0  0  0
   -4.9081   -0.7209    0.0000 C   0  0  0  0  0  0  0  0  0  0  0  0
   -6.0284   -1.7184    0.0000 O   0  0  0  0  0  0  0  0  0  0  0  0
   -3.1804   -2.6612    0.0000 C   0  0  0  0  0  0  0  0  0  0  0  0
   -2.3639   -0.1948    0.0000 C   0  0  0  0  0  0  0  0  0  0  0  0
   -1.7564   -3.1327    0.0000 C   0  0  0  0  0  0  0  0  0  0  0  0
   -0.9399   -0.6662    0.0000 C   0  0  0  0  0  0  0  0  0  0  0  0
   -0.6362   -2.1352    0.0000 C   0  0  0  0  0  0  0  0  0  0  0  0
    0.1804    0.3312    0.0000 N   0  0  0  0  0  0  0  0  0  0  0  0
    0.7878   -2.6066    0.0000 C   0  0  0  0  0  0  0  0  0  0  0  0
    1.6044   -0.1402    0.0000 C   0  0  0  0  0  0  0  0  0  0  0  0
    1.9081   -1.6091    0.0000 C   0  0  0  0  0  0  0  0  0  0  0  0
    2.7246    0.8573    0.0000 C   0  0  0  0  0  0  0  0  0  0  0  0
    4.1486    0.3859    0.0000 N   0  0  0  0  0  0  0  0  0  0  0  0
    2.4209    2.3262    0.0000 O   0  0  0  0  0  0  0  0  0  0  0  0
    5.2689    1.3834    0.0000 C   0  0  0  0  0  0  0  0  0  0  0  0
    6.6929    0.9119    0.0000 C   0  0  0  0  0  0  0  0  0  0  0  0
    6.9966   -0.5570    0.0000 C   0  0  0  0  0  0  0  0  0  0  0  0
    7.8132    1.9094    0.0000 C   0  0  0  0  0  0  0  0  0  0  0  0
    8.4206   -1.0285    0.0000 C   0  0  0  0  0  0  0  0  0  0  0  0
    9.2372    1.4380    0.0000 C   0  0  0  0  0  0  0  0  0  0  0  0
    9.5409   -0.0310    0.0000 C   0  0  0  0  0  0  0  0  0  0  0  0
   -5.2119    0.7481    0.0000 C   0  0  0  0  0  0  0  0  0  0  0  0
   -6.6358    1.2195    0.0000 N   0  0  0  0  0  0  0  0  0  0  0  0
   -7.8542    0.3446    0.0000 N   0  0  0  0  0  0  0  0  0  0  0  0
   -7.0914    2.6486    0.0000 C   0  0  0  0  0  0  0  0  0  0  0  0
   -9.0629    1.2330    0.0000 C   0  0  0  0  0  0  0  0  0  0  0  0
   -8.5914    2.6570    0.0000 N   0  0  0  0  0  0  0  0  0  0  0  0
  1  2  1  0
  2  3  2  0
  1  4  1  0
  5  1  1  0
  6  4  1  0
  7  5  1  0
  8  6  1  0
  7  8  2  0
  9  7  1  0
 10  8  1  0
 11  9  2  0
 12 10  2  0
 11 12  1  0
 13 11  1  0
 13 14  1  0
 15 13  2  0
 14 16  1  0
 16 17  1  0
 17 18  2  0
 17 19  1  0
 18 20  1  0
 19 21  2  0
 20 22  2  0
 21 22  1  0
  2 23  1  0
 23 24  1  0
 24 25  1  0
 24 26  1  0
 25 27  2  0
 26 28  2  0
 27 28  1  0
M  END
>  <Rank>  (31) 
31

>  <CR_ID>  (31) 
R-011939

>  <Acid_Name>  (31) 
R-011939

>  <SMILES>  (31) 
O=C(NCc1ccccc1)c1ccc2c(n1)CN(C(=O)Cn1cncn1)CC2

>  <MPO_Score>  (31) 
0.8340

>  <MW>  (31) 
376.16

>  <cLogP>  (31) 
1.19 ± 0.40

>  <TPSA>  (31) 
93.0

>  <HBD>  (31) 
1

>  <HBA>  (31) 
6

>  <RotBonds>  (31) 
5

>  <Fsp3>  (31) 
0.250

>  <NumArRings>  (31) 
3

>  <logS_ESOL>  (31) 
-3.04 ± 0.93 log(mol/L)

>  <logS_AD>  (31) 
In

>  <logS_model>  (31) 
ESOL/Delaney-2004 (linear, n=1144, RMSE=0.93 log-units)

>  <logPapp_PAMPA>  (31) 
-6.67 ± 0.80 log(cm/s)

>  <logPapp_class>  (31) 
Medium

>  <logPapp_AD>  (31) 
In

>  <logPapp_model>  (31) 
Hou-2004 PAMPA linear (RMSE=0.8, n=100)

>  <MetStab_score>  (31) 
1.000 (0-1 scale)

>  <MetStab_t12>  (31) 
High (t½>60 min HLM)

>  <Clearance_route>  (31) 
CYP2D6/3A4 (basic-N + Ar)

>  <Met_alerts>  (31) 
None

>  <MetStab_model>  (31) 
Rule-based HLM classifier (cLogP+Fsp3+Ar-rings+alerts; heuristic ±1 class)

>  <CYP_risk>  (31) 
Low

>  <CYP_alerts>  (31) 
None

>  <CYP2D6_flag>  (31) 
False

>  <CYP3A4_flag>  (31) 
False

>  <CYP2C9_flag>  (31) 
False

>  <CYP_model>  (31) 
SMARTS alert panel (pharmacophore-based; flag only – no IC50 predicted)

>  <PPB_pct>  (31) 
74.0 ± 10 %

>  <PPB_fu>  (31) 
0.2595

>  <PPB_class>  (31) 
Low (<80%)

>  <PPB_AD>  (31) 
In

>  <PPB_model>  (31) 
Valko-2003 logP-linear (RMSE≈10% PPB, n=87)

>  <hERG_risk>  (31) 
Low

>  <hERG_model>  (31) 
Structural-alert + cLogP (Redfern-2003 anchor; ±1 class)

>  <des_sol>  (31) 
0.984

>  <des_logp>  (31) 
0.594

>  <des_perm>  (31) 
0.220

>  <des_met>  (31) 
1.000

>  <des_cyp>  (31) 
1.000

>  <des_ppb>  (31) 
1.000

>  <des_herg>  (31) 
1.000

>  <des_mw>  (31) 
0.881

$$$$

     RDKit          2D

 28 31  0  0  0  0  0  0  0  0999 V2000
   -3.4841   -1.1923    0.0000 N   0  0  0  0  0  0  0  0  0  0  0  0
   -4.9081   -0.7209    0.0000 C   0  0  0  0  0  0  0  0  0  0  0  0
   -6.0284   -1.7184    0.0000 O   0  0  0  0  0  0  0  0  0  0  0  0
   -3.1804   -2.6612    0.0000 C   0  0  0  0  0  0  0  0  0  0  0  0
   -2.3639   -0.1948    0.0000 C   0  0  0  0  0  0  0  0  0  0  0  0
   -1.7564   -3.1327    0.0000 C   0  0  0  0  0  0  0  0  0  0  0  0
   -0.9399   -0.6662    0.0000 C   0  0  0  0  0  0  0  0  0  0  0  0
   -0.6362   -2.1352    0.0000 C   0  0  0  0  0  0  0  0  0  0  0  0
    0.1804    0.3312    0.0000 N   0  0  0  0  0  0  0  0  0  0  0  0
    0.7878   -2.6066    0.0000 C   0  0  0  0  0  0  0  0  0  0  0  0
    1.6044   -0.1402    0.0000 C   0  0  0  0  0  0  0  0  0  0  0  0
    1.9081   -1.6091    0.0000 C   0  0  0  0  0  0  0  0  0  0  0  0
    2.7246    0.8573    0.0000 C   0  0  0  0  0  0  0  0  0  0  0  0
    4.1486    0.3859    0.0000 N   0  0  0  0  0  0  0  0  0  0  0  0
    2.4209    2.3262    0.0000 O   0  0  0  0  0  0  0  0  0  0  0  0
    5.2689    1.3834    0.0000 C   0  0  0  0  0  0  0  0  0  0  0  0
    6.6929    0.9119    0.0000 C   0  0  0  0  0  0  0  0  0  0  0  0
    6.9966   -0.5570    0.0000 C   0  0  0  0  0  0  0  0  0  0  0  0
    7.8132    1.9094    0.0000 C   0  0  0  0  0  0  0  0  0  0  0  0
    8.4206   -1.0285    0.0000 C   0  0  0  0  0  0  0  0  0  0  0  0
    9.2372    1.4380    0.0000 C   0  0  0  0  0  0  0  0  0  0  0  0
    9.5409   -0.0310    0.0000 C   0  0  0  0  0  0  0  0  0  0  0  0
   -5.2119    0.7481    0.0000 C   0  0  0  0  0  0  0  0  0  0  0  0
   -6.6358    1.2195    0.0000 N   0  0  0  0  0  0  0  0  0  0  0  0
   -7.8542    0.3446    0.0000 N   0  0  0  0  0  0  0  0  0  0  0  0
   -7.0914    2.6486    0.0000 N   0  0  0  0  0  0  0  0  0  0  0  0
   -9.0629    1.2330    0.0000 C   0  0  0  0  0  0  0  0  0  0  0  0
   -8.5914    2.6570    0.0000 C   0  0  0  0  0  0  0  0  0  0  0  0
  1  2  1  0
  2  3  2  0
  1  4  1  0
  5  1  1  0
  6  4  1  0
  7  5  1  0
  8  6  1  0
  7  8  2  0
  9  7  1  0
 10  8  1  0
 11  9  2  0
 12 10  2  0
 11 12  1  0
 13 11  1  0
 13 14  1  0
 15 13  2  0
 14 16  1  0
 16 17  1  0
 17 18  2  0
 17 19  1  0
 18 20  1  0
 19 21  2  0
 20 22  2  0
 21 22  1  0
  2 23  1  0
 23 24  1  0
 24 25  1  0
 24 26  1  0
 25 27  2  0
 26 28  2  0
 27 28  1  0
M  END
>  <Rank>  (32) 
32

>  <CR_ID>  (32) 
R-000905

>  <Acid_Name>  (32) 
R-000905

>  <SMILES>  (32) 
O=C(NCc1ccccc1)c1ccc2c(n1)CN(C(=O)Cn1nccn1)CC2

>  <MPO_Score>  (32) 
0.8340

>  <MW>  (32) 
376.16

>  <cLogP>  (32) 
1.19 ± 0.40

>  <TPSA>  (32) 
93.0

>  <HBD>  (32) 
1

>  <HBA>  (32) 
6

>  <RotBonds>  (32) 
5

>  <Fsp3>  (32) 
0.250

>  <NumArRings>  (32) 
3

>  <logS_ESOL>  (32) 
-3.04 ± 0.93 log(mol/L)

>  <logS_AD>  (32) 
In

>  <logS_model>  (32) 
ESOL/Delaney-2004 (linear, n=1144, RMSE=0.93 log-units)

>  <logPapp_PAMPA>  (32) 
-6.67 ± 0.80 log(cm/s)

>  <logPapp_class>  (32) 
Medium

>  <logPapp_AD>  (32) 
In

>  <logPapp_model>  (32) 
Hou-2004 PAMPA linear (RMSE=0.8, n=100)

>  <MetStab_score>  (32) 
1.000 (0-1 scale)

>  <MetStab_t12>  (32) 
High (t½>60 min HLM)

>  <Clearance_route>  (32) 
CYP2D6/3A4 (basic-N + Ar)

>  <Met_alerts>  (32) 
None

>  <MetStab_model>  (32) 
Rule-based HLM classifier (cLogP+Fsp3+Ar-rings+alerts; heuristic ±1 class)

>  <CYP_risk>  (32) 
Low

>  <CYP_alerts>  (32) 
None

>  <CYP2D6_flag>  (32) 
False

>  <CYP3A4_flag>  (32) 
False

>  <CYP2C9_flag>  (32) 
False

>  <CYP_model>  (32) 
SMARTS alert panel (pharmacophore-based; flag only – no IC50 predicted)

>  <PPB_pct>  (32) 
74.0 ± 10 %

>  <PPB_fu>  (32) 
0.2595

>  <PPB_class>  (32) 
Low (<80%)

>  <PPB_AD>  (32) 
In

>  <PPB_model>  (32) 
Valko-2003 logP-linear (RMSE≈10% PPB, n=87)

>  <hERG_risk>  (32) 
Low

>  <hERG_model>  (32) 
Structural-alert + cLogP (Redfern-2003 anchor; ±1 class)

>  <des_sol>  (32) 
0.984

>  <des_logp>  (32) 
0.594

>  <des_perm>  (32) 
0.220

>  <des_met>  (32) 
1.000

>  <des_cyp>  (32) 
1.000

>  <des_ppb>  (32) 
1.000

>  <des_herg>  (32) 
1.000

>  <des_mw>  (32) 
0.881

$$$$

     RDKit          2D

 26 28  0  0  0  0  0  0  0  0999 V2000
   -3.4389    0.1403    0.0000 N   0  0  0  0  0  0  0  0  0  0  0  0
   -4.3311   -1.0655    0.0000 C   0  0  0  0  0  0  0  0  0  0  0  0
   -3.7329   -2.4411    0.0000 O   0  0  0  0  0  0  0  0  0  0  0  0
   -4.0371    1.5158    0.0000 C   0  0  0  0  0  0  0  0  0  0  0  0
   -1.9485   -0.0295    0.0000 C   0  0  0  0  0  0  0  0  0  0  0  0
   -3.1449    2.7217    0.0000 C   0  0  0  0  0  0  0  0  0  0  0  0
   -1.0564    1.1763    0.0000 C   0  0  0  0  0  0  0  0  0  0  0  0
   -1.6545    2.5519    0.0000 C   0  0  0  0  0  0  0  0  0  0  0  0
    0.4340    1.0066    0.0000 N   0  0  0  0  0  0  0  0  0  0  0  0
   -0.7623    3.7577    0.0000 C   0  0  0  0  0  0  0  0  0  0  0  0
    1.3262    2.2124    0.0000 C   0  0  0  0  0  0  0  0  0  0  0  0
    0.7280    3.5880    0.0000 C   0  0  0  0  0  0  0  0  0  0  0  0
    2.8166    2.0426    0.0000 C   0  0  0  0  0  0  0  0  0  0  0  0
    3.4147    0.6671    0.0000 N   0  0  0  0  0  0  0  0  0  0  0  0
    3.7088    3.2484    0.0000 O   0  0  0  0  0  0  0  0  0  0  0  0
    4.9051    0.4973    0.0000 C   0  0  0  0  0  0  0  0  0  0  0  0
    5.5033   -0.8783    0.0000 C   0  0  0  0  0  0  0  0  0  0  0  0
    4.6111   -2.0841    0.0000 C   0  0  0  0  0  0  0  0  0  0  0  0
    6.9936   -1.0480    0.0000 C   0  0  0  0  0  0  0  0  0  0  0  0
    5.2092   -3.4596    0.0000 C   0  0  0  0  0  0  0  0  0  0  0  0
    7.5918   -2.4236    0.0000 C   0  0  0  0  0  0  0  0  0  0  0  0
    6.6996   -3.6294    0.0000 C   0  0  0  0  0  0  0  0  0  0  0  0
   -5.8215   -0.8958    0.0000 C   0  0  0  0  0  0  0  0  0  0  0  0
   -6.7137   -2.1016    0.0000 S   0  0  0  0  0  0  0  0  0  0  0  0
   -8.2040   -1.9319    0.0000 C   0  0  0  0  0  0  0  0  0  0  0  0
   -9.0962   -3.1377    0.0000 C   0  0  0  0  0  0  0  0  0  0  0  0
  1  2  1  0
  2  3  2  0
  1  4  1  0
  5  1  1  0
  6  4  1  0
  7  5  1  0
  8  6  1  0
  7  8  2  0
  9  7  1  0
 10  8  1  0
 11  9  2  0
 12 10  2  0
 11 12  1  0
 13 11  1  0
 13 14  1  0
 15 13  2  0
 14 16  1  0
 16 17  1  0
 17 18  2  0
 17 19  1  0
 18 20  1  0
 19 21  2  0
 20 22  2  0
 21 22  1  0
 23  2  1  0
 24 23  1  0
 24 25  1  0
 25 26  1  0
M  END
>  <Rank>  (33) 
33

>  <CR_ID>  (33) 
R-009169

>  <Acid_Name>  (33) 
R-009169

>  <SMILES>  (33) 
CCSCC(=O)N1CCc2ccc(C(=O)NCc3ccccc3)nc2C1

>  <MPO_Score>  (33) 
0.8329

>  <MW>  (33) 
369.15

>  <cLogP>  (33) 
2.65 ± 0.40

>  <TPSA>  (33) 
62.3

>  <HBD>  (33) 
1

>  <HBA>  (33) 
4

>  <RotBonds>  (33) 
6

>  <Fsp3>  (33) 
0.350

>  <NumArRings>  (33) 
2

>  <logS_ESOL>  (33) 
-3.74 ± 0.93 log(mol/L)

>  <logS_AD>  (33) 
In

>  <logS_model>  (33) 
ESOL/Delaney-2004 (linear, n=1144, RMSE=0.93 log-units)

>  <logPapp_PAMPA>  (33) 
-5.45 ± 0.80 log(cm/s)

>  <logPapp_class>  (33) 
High

>  <logPapp_AD>  (33) 
In

>  <logPapp_model>  (33) 
Hou-2004 PAMPA linear (RMSE=0.8, n=100)

>  <MetStab_score>  (33) 
1.000 (0-1 scale)

>  <MetStab_t12>  (33) 
High (t½>60 min HLM)

>  <Clearance_route>  (33) 
CYP2D6/3A4 (basic-N + Ar)

>  <Met_alerts>  (33) 
None

>  <MetStab_model>  (33) 
Rule-based HLM classifier (cLogP+Fsp3+Ar-rings+alerts; heuristic ±1 class)

>  <CYP_risk>  (33) 
Low

>  <CYP_alerts>  (33) 
None

>  <CYP2D6_flag>  (33) 
False

>  <CYP3A4_flag>  (33) 
False

>  <CYP2C9_flag>  (33) 
False

>  <CYP_model>  (33) 
SMARTS alert panel (pharmacophore-based; flag only – no IC50 predicted)

>  <PPB_pct>  (33) 
97.0 ± 10 %

>  <PPB_fu>  (33) 
0.0301

>  <PPB_class>  (33) 
Very high (>95%)

>  <PPB_AD>  (33) 
In

>  <PPB_model>  (33) 
Valko-2003 logP-linear (RMSE≈10% PPB, n=87)

>  <hERG_risk>  (33) 
Medium

>  <hERG_model>  (33) 
Structural-alert + cLogP (Redfern-2003 anchor; ±1 class)

>  <des_sol>  (33) 
0.704

>  <des_logp>  (33) 
1.000

>  <des_perm>  (33) 
1.000

>  <des_met>  (33) 
1.000

>  <des_cyp>  (33) 
1.000

>  <des_ppb>  (33) 
0.700

>  <des_herg>  (33) 
0.500

>  <des_mw>  (33) 
0.846

$$$$

     RDKit          2D

 25 27  0  0  0  0  0  0  0  0999 V2000
   -3.8298   -0.5898    0.0000 N   0  0  0  0  0  0  0  0  0  0  0  0
   -4.5559   -1.9024    0.0000 C   0  0  0  0  0  0  0  0  0  0  0  0
   -3.7823   -3.1875    0.0000 O   0  0  0  0  0  0  0  0  0  0  0  0
   -4.6035    0.6952    0.0000 C   0  0  0  0  0  0  0  0  0  0  0  0
   -2.3301   -0.5624    0.0000 C   0  0  0  0  0  0  0  0  0  0  0  0
   -3.8774    2.0078    0.0000 C   0  0  0  0  0  0  0  0  0  0  0  0
   -1.6040    0.7502    0.0000 C   0  0  0  0  0  0  0  0  0  0  0  0
   -2.3777    2.0353    0.0000 C   0  0  0  0  0  0  0  0  0  0  0  0
   -0.1043    0.7776    0.0000 N   0  0  0  0  0  0  0  0  0  0  0  0
   -1.6516    3.3478    0.0000 C   0  0  0  0  0  0  0  0  0  0  0  0
    0.6218    2.0902    0.0000 C   0  0  0  0  0  0  0  0  0  0  0  0
   -0.1518    3.3753    0.0000 C   0  0  0  0  0  0  0  0  0  0  0  0
    2.1216    2.1177    0.0000 C   0  0  0  0  0  0  0  0  0  0  0  0
    2.8952    0.8326    0.0000 N   0  0  0  0  0  0  0  0  0  0  0  0
    2.8477    3.4302    0.0000 O   0  0  0  0  0  0  0  0  0  0  0  0
    4.3950    0.8601    0.0000 C   0  0  0  0  0  0  0  0  0  0  0  0
    5.1687   -0.4250    0.0000 C   0  0  0  0  0  0  0  0  0  0  0  0
    4.4426   -1.7376    0.0000 C   0  0  0  0  0  0  0  0  0  0  0  0
    6.6684   -0.3976    0.0000 C   0  0  0  0  0  0  0  0  0  0  0  0
    5.2162   -3.0227    0.0000 C   0  0  0  0  0  0  0  0  0  0  0  0
    7.4421   -1.6826    0.0000 C   0  0  0  0  0  0  0  0  0  0  0  0
    6.7160   -2.9952    0.0000 C   0  0  0  0  0  0  0  0  0  0  0  0
   -6.0557   -1.9299    0.0000 C   0  0  0  0  0  0  0  0  0  0  0  0
   -6.7818   -3.2424    0.0000 C   0  0  0  0  0  0  0  0  0  0  0  0
   -6.8293   -0.6448    0.0000 C   0  0  0  0  0  0  0  0  0  0  0  0
  1  2  1  0
  2  3  2  0
  1  4  1  0
  5  1  1  0
  6  4  1  0
  7  5  1  0
  8  6  1  0
  7  8  2  0
  9  7  1  0
 10  8  1  0
 11  9  2  0
 12 10  2  0
 11 12  1  0
 13 11  1  0
 13 14  1  0
 15 13  2  0
 14 16  1  0
 16 17  1  0
 17 18  2  0
 17 19  1  0
 18 20  1  0
 19 21  2  0
 20 22  2  0
 21 22  1  0
  2 23  1  0
 23 24  1  0
 23 25  1  0
M  END
>  <Rank>  (34) 
34

>  <CR_ID>  (34) 
R-003235

>  <Acid_Name>  (34) 
R-003235

>  <SMILES>  (34) 
CC(C)C(=O)N1CCc2ccc(C(=O)NCc3ccccc3)nc2C1

>  <MPO_Score>  (34) 
0.8315

>  <MW>  (34) 
337.18

>  <cLogP>  (34) 
2.55 ± 0.40

>  <TPSA>  (34) 
62.3

>  <HBD>  (34) 
1

>  <HBA>  (34) 
3

>  <RotBonds>  (34) 
4

>  <Fsp3>  (34) 
0.350

>  <NumArRings>  (34) 
2

>  <logS_ESOL>  (34) 
-3.63 ± 0.93 log(mol/L)

>  <logS_AD>  (34) 
In

>  <logS_model>  (34) 
ESOL/Delaney-2004 (linear, n=1144, RMSE=0.93 log-units)

>  <logPapp_PAMPA>  (34) 
-5.48 ± 0.80 log(cm/s)

>  <logPapp_class>  (34) 
High

>  <logPapp_AD>  (34) 
In

>  <logPapp_model>  (34) 
Hou-2004 PAMPA linear (RMSE=0.8, n=100)

>  <MetStab_score>  (34) 
1.000 (0-1 scale)

>  <MetStab_t12>  (34) 
High (t½>60 min HLM)

>  <Clearance_route>  (34) 
CYP2D6/3A4 (basic-N + Ar)

>  <Met_alerts>  (34) 
None

>  <MetStab_model>  (34) 
Rule-based HLM classifier (cLogP+Fsp3+Ar-rings+alerts; heuristic ±1 class)

>  <CYP_risk>  (34) 
Low

>  <CYP_alerts>  (34) 
None

>  <CYP2D6_flag>  (34) 
False

>  <CYP3A4_flag>  (34) 
False

>  <CYP2C9_flag>  (34) 
False

>  <CYP_model>  (34) 
SMARTS alert panel (pharmacophore-based; flag only – no IC50 predicted)

>  <PPB_pct>  (34) 
96.5 ± 10 %

>  <PPB_fu>  (34) 
0.0352

>  <PPB_class>  (34) 
Very high (>95%)

>  <PPB_AD>  (34) 
In

>  <PPB_model>  (34) 
Valko-2003 logP-linear (RMSE≈10% PPB, n=87)

>  <hERG_risk>  (34) 
Medium

>  <hERG_model>  (34) 
Structural-alert + cLogP (Redfern-2003 anchor; ±1 class)

>  <des_sol>  (34) 
0.748

>  <des_logp>  (34) 
1.000

>  <des_perm>  (34) 
1.000

>  <des_met>  (34) 
1.000

>  <des_cyp>  (34) 
1.000

>  <des_ppb>  (34) 
0.700

>  <des_herg>  (34) 
0.500

>  <des_mw>  (34) 
0.686

$$$$

     RDKit          2D

 27 29  0  0  0  0  0  0  0  0999 V2000
   -3.3117   -0.3836    0.0000 N   0  0  0  0  0  0  0  0  0  0  0  0
   -4.0810   -1.6713    0.0000 C   0  0  0  0  0  0  0  0  0  0  0  0
   -3.3504   -2.9814    0.0000 O   0  0  0  0  0  0  0  0  0  0  0  0
   -4.0422    0.9265    0.0000 C   0  0  0  0  0  0  0  0  0  0  0  0
   -1.8118   -0.4060    0.0000 C   0  0  0  0  0  0  0  0  0  0  0  0
   -3.2729    2.2142    0.0000 C   0  0  0  0  0  0  0  0  0  0  0  0
   -1.0425    0.8817    0.0000 C   0  0  0  0  0  0  0  0  0  0  0  0
   -1.7730    2.1918    0.0000 C   0  0  0  0  0  0  0  0  0  0  0  0
    0.4573    0.8593    0.0000 N   0  0  0  0  0  0  0  0  0  0  0  0
   -1.0037    3.4795    0.0000 C   0  0  0  0  0  0  0  0  0  0  0  0
    1.2266    2.1470    0.0000 C   0  0  0  0  0  0  0  0  0  0  0  0
    0.4961    3.4571    0.0000 C   0  0  0  0  0  0  0  0  0  0  0  0
    2.7265    2.1246    0.0000 C   0  0  0  0  0  0  0  0  0  0  0  0
    3.4570    0.8145    0.0000 N   0  0  0  0  0  0  0  0  0  0  0  0
    3.4958    3.4123    0.0000 O   0  0  0  0  0  0  0  0  0  0  0  0
    4.9568    0.7921    0.0000 C   0  0  0  0  0  0  0  0  0  0  0  0
    5.6873   -0.5180    0.0000 C   0  0  0  0  0  0  0  0  0  0  0  0
    4.9180   -1.8057    0.0000 C   0  0  0  0  0  0  0  0  0  0  0  0
    7.1872   -0.5404    0.0000 C   0  0  0  0  0  0  0  0  0  0  0  0
    5.6486   -3.1158    0.0000 C   0  0  0  0  0  0  0  0  0  0  0  0
    7.9177   -1.8505    0.0000 C   0  0  0  0  0  0  0  0  0  0  0  0
    7.1484   -3.1382    0.0000 C   0  0  0  0  0  0  0  0  0  0  0  0
   -5.5808   -1.6489    0.0000 C   0  0  0  0  0  0  0  0  0  0  0  0
   -7.0806   -1.6265    0.0000 O   0  0  0  0  0  0  0  0  0  0  0  0
   -5.5584   -0.1491    0.0000 C   0  0  0  0  0  0  0  0  0  0  0  0
   -5.6032   -3.1488    0.0000 C   0  0  0  0  0  0  0  0  0  0  0  0
   -7.8112   -0.3164    0.0000 C   0  0  0  0  0  0  0  0  0  0  0  0
  1  2  1  0
  2  3  2  0
  1  4  1  0
  5  1  1  0
  6  4  1  0
  7  5  1  0
  8  6  1  0
  7  8  2  0
  9  7  1  0
 10  8  1  0
 11  9  2  0
 12 10  2  0
 11 12  1  0
 13 11  1  0
 13 14  1  0
 15 13  2  0
 14 16  1  0
 16 17  1  0
 17 18  2  0
 17 19  1  0
 18 20  1  0
 19 21  2  0
 20 22  2  0
 21 22  1  0
  2 23  1  0
 23 24  1  0
 23 25  1  0
 23 26  1  0
 24 27  1  0
M  END
>  <Rank>  (35) 
35

>  <CR_ID>  (35) 
R-011423

>  <Acid_Name>  (35) 
R-011423

>  <SMILES>  (35) 
COC(C)(C)C(=O)N1CCc2ccc(C(=O)NCc3ccccc3)nc2C1

>  <MPO_Score>  (35) 
0.8310

>  <MW>  (35) 
367.19

>  <cLogP>  (35) 
2.32 ± 0.40

>  <TPSA>  (35) 
71.5

>  <HBD>  (35) 
1

>  <HBA>  (35) 
4

>  <RotBonds>  (35) 
5

>  <Fsp3>  (35) 
0.381

>  <NumArRings>  (35) 
2

>  <logS_ESOL>  (35) 
-3.58 ± 0.93 log(mol/L)

>  <logS_AD>  (35) 
In

>  <logS_model>  (35) 
ESOL/Delaney-2004 (linear, n=1144, RMSE=0.93 log-units)

>  <logPapp_PAMPA>  (35) 
-5.76 ± 0.80 log(cm/s)

>  <logPapp_class>  (35) 
Medium

>  <logPapp_AD>  (35) 
In

>  <logPapp_model>  (35) 
Hou-2004 PAMPA linear (RMSE=0.8, n=100)

>  <MetStab_score>  (35) 
1.000 (0-1 scale)

>  <MetStab_t12>  (35) 
High (t½>60 min HLM)

>  <Clearance_route>  (35) 
CYP2D6/3A4 (basic-N + Ar)

>  <Met_alerts>  (35) 
None

>  <MetStab_model>  (35) 
Rule-based HLM classifier (cLogP+Fsp3+Ar-rings+alerts; heuristic ±1 class)

>  <CYP_risk>  (35) 
Low

>  <CYP_alerts>  (35) 
None

>  <CYP2D6_flag>  (35) 
False

>  <CYP3A4_flag>  (35) 
False

>  <CYP2C9_flag>  (35) 
False

>  <CYP_model>  (35) 
SMARTS alert panel (pharmacophore-based; flag only – no IC50 predicted)

>  <PPB_pct>  (35) 
94.9 ± 10 %

>  <PPB_fu>  (35) 
0.0508

>  <PPB_class>  (35) 
High (90-95%)

>  <PPB_AD>  (35) 
In

>  <PPB_model>  (35) 
Valko-2003 logP-linear (RMSE≈10% PPB, n=87)

>  <hERG_risk>  (35) 
Medium

>  <hERG_model>  (35) 
Structural-alert + cLogP (Redfern-2003 anchor; ±1 class)

>  <des_sol>  (35) 
0.768

>  <des_logp>  (35) 
1.000

>  <des_perm>  (35) 
0.827

>  <des_met>  (35) 
1.000

>  <des_cyp>  (35) 
1.000

>  <des_ppb>  (35) 
1.000

>  <des_herg>  (35) 
0.500

>  <des_mw>  (35) 
0.836

$$$$

     RDKit          2D

 25 27  0  0  0  0  0  0  0  0999 V2000
   -3.7932   -0.2700    0.0000 N   0  0  0  0  0  0  0  0  0  0  0  0
   -4.5926   -1.5393    0.0000 C   0  0  0  0  0  0  0  0  0  0  0  0
   -3.8931   -2.8662    0.0000 O   0  0  0  0  0  0  0  0  0  0  0  0
   -4.4927    1.0569    0.0000 C   0  0  0  0  0  0  0  0  0  0  0  0
   -2.2943   -0.3277    0.0000 C   0  0  0  0  0  0  0  0  0  0  0  0
   -3.6933    2.3261    0.0000 C   0  0  0  0  0  0  0  0  0  0  0  0
   -1.4949    0.9415    0.0000 C   0  0  0  0  0  0  0  0  0  0  0  0
   -2.1944    2.2685    0.0000 C   0  0  0  0  0  0  0  0  0  0  0  0
    0.0040    0.8838    0.0000 N   0  0  0  0  0  0  0  0  0  0  0  0
   -1.3950    3.5377    0.0000 C   0  0  0  0  0  0  0  0  0  0  0  0
    0.8034    2.1531    0.0000 C   0  0  0  0  0  0  0  0  0  0  0  0
    0.1039    3.4800    0.0000 C   0  0  0  0  0  0  0  0  0  0  0  0
    2.3023    2.0954    0.0000 C   0  0  0  0  0  0  0  0  0  0  0  0
    3.0018    0.7685    0.0000 N   0  0  0  0  0  0  0  0  0  0  0  0
    3.1017    3.3646    0.0000 O   0  0  0  0  0  0  0  0  0  0  0  0
    4.5007    0.7108    0.0000 C   0  0  0  0  0  0  0  0  0  0  0  0
    5.2002   -0.6161    0.0000 C   0  0  0  0  0  0  0  0  0  0  0  0
    4.4008   -1.8854    0.0000 C   0  0  0  0  0  0  0  0  0  0  0  0
    6.6990   -0.6738    0.0000 C   0  0  0  0  0  0  0  0  0  0  0  0
    5.1002   -3.2123    0.0000 C   0  0  0  0  0  0  0  0  0  0  0  0
    7.3985   -2.0007    0.0000 C   0  0  0  0  0  0  0  0  0  0  0  0
    6.5991   -3.2700    0.0000 C   0  0  0  0  0  0  0  0  0  0  0  0
   -6.0915   -1.4816    0.0000 C   0  0  0  0  0  0  0  0  0  0  0  0
   -6.8909   -2.7508    0.0000 C   0  0  0  0  0  0  0  0  0  0  0  0
   -8.3898   -2.6931    0.0000 C   0  0  0  0  0  0  0  0  0  0  0  0
  1  2  1  0
  2  3  2  0
  1  4  1  0
  5  1  1  0
  6  4  1  0
  7  5  1  0
  8  6  1  0
  7  8  2  0
  9  7  1  0
 10  8  1  0
 11  9  2  0
 12 10  2  0
 11 12  1  0
 13 11  1  0
 13 14  1  0
 15 13  2  0
 14 16  1  0
 16 17  1  0
 17 18  2  0
 17 19  1  0
 18 20  1  0
 19 21  2  0
 20 22  2  0
 21 22  1  0
  2 23  1  0
 23 24  1  0
 24 25  1  0
M  END
>  <Rank>  (36) 
36

>  <CR_ID>  (36) 
R-004846

>  <Acid_Name>  (36) 
R-004846

>  <SMILES>  (36) 
CCCC(=O)N1CCc2ccc(C(=O)NCc3ccccc3)nc2C1

>  <MPO_Score>  (36) 
0.8303

>  <MW>  (36) 
337.18

>  <cLogP>  (36) 
2.70 ± 0.40

>  <TPSA>  (36) 
62.3

>  <HBD>  (36) 
1

>  <HBA>  (36) 
3

>  <RotBonds>  (36) 
5

>  <Fsp3>  (36) 
0.350

>  <NumArRings>  (36) 
2

>  <logS_ESOL>  (36) 
-3.65 ± 0.93 log(mol/L)

>  <logS_AD>  (36) 
In

>  <logS_model>  (36) 
ESOL/Delaney-2004 (linear, n=1144, RMSE=0.93 log-units)

>  <logPapp_PAMPA>  (36) 
-5.40 ± 0.80 log(cm/s)

>  <logPapp_class>  (36) 
High

>  <logPapp_AD>  (36) 
In

>  <logPapp_model>  (36) 
Hou-2004 PAMPA linear (RMSE=0.8, n=100)

>  <MetStab_score>  (36) 
1.000 (0-1 scale)

>  <MetStab_t12>  (36) 
High (t½>60 min HLM)

>  <Clearance_route>  (36) 
CYP2D6/3A4 (basic-N + Ar)

>  <Met_alerts>  (36) 
None

>  <MetStab_model>  (36) 
Rule-based HLM classifier (cLogP+Fsp3+Ar-rings+alerts; heuristic ±1 class)

>  <CYP_risk>  (36) 
Low

>  <CYP_alerts>  (36) 
None

>  <CYP2D6_flag>  (36) 
False

>  <CYP3A4_flag>  (36) 
False

>  <CYP2C9_flag>  (36) 
False

>  <CYP_model>  (36) 
SMARTS alert panel (pharmacophore-based; flag only – no IC50 predicted)

>  <PPB_pct>  (36) 
97.2 ± 10 %

>  <PPB_fu>  (36) 
0.0279

>  <PPB_class>  (36) 
Very high (>95%)

>  <PPB_AD>  (36) 
In

>  <PPB_model>  (36) 
Valko-2003 logP-linear (RMSE≈10% PPB, n=87)

>  <hERG_risk>  (36) 
Medium

>  <hERG_model>  (36) 
Structural-alert + cLogP (Redfern-2003 anchor; ±1 class)

>  <des_sol>  (36) 
0.740

>  <des_logp>  (36) 
1.000

>  <des_perm>  (36) 
1.000

>  <des_met>  (36) 
1.000

>  <des_cyp>  (36) 
1.000

>  <des_ppb>  (36) 
0.700

>  <des_herg>  (36) 
0.500

>  <des_mw>  (36) 
0.686

$$$$

     RDKit          2D

 28 30  0  0  0  0  0  0  0  0999 V2000
   -2.5927    0.6791    0.0000 N   0  0  0  0  0  0  0  0  0  0  0  0
   -3.6098   -0.4234    0.0000 C   0  0  0  0  0  0  0  0  0  0  0  0
   -3.1636   -1.8555    0.0000 O   0  0  0  0  0  0  0  0  0  0  0  0
   -3.0389    2.1112    0.0000 C   0  0  0  0  0  0  0  0  0  0  0  0
   -1.1294    0.3495    0.0000 C   0  0  0  0  0  0  0  0  0  0  0  0
   -2.0218    3.2137    0.0000 C   0  0  0  0  0  0  0  0  0  0  0  0
   -0.1123    1.4520    0.0000 C   0  0  0  0  0  0  0  0  0  0  0  0
   -0.5585    2.8841    0.0000 C   0  0  0  0  0  0  0  0  0  0  0  0
    1.3511    1.1224    0.0000 N   0  0  0  0  0  0  0  0  0  0  0  0
    0.4586    3.9866    0.0000 C   0  0  0  0  0  0  0  0  0  0  0  0
    2.3682    2.2249    0.0000 C   0  0  0  0  0  0  0  0  0  0  0  0
    1.9220    3.6570    0.0000 C   0  0  0  0  0  0  0  0  0  0  0  0
    3.8315    1.8953    0.0000 C   0  0  0  0  0  0  0  0  0  0  0  0
    4.2778    0.4632    0.0000 N   0  0  0  0  0  0  0  0  0  0  0  0
    4.8486    2.9977    0.0000 O   0  0  0  0  0  0  0  0  0  0  0  0
    5.7411    0.1336    0.0000 C   0  0  0  0  0  0  0  0  0  0  0  0
    6.1873   -1.2985    0.0000 C   0  0  0  0  0  0  0  0  0  0  0  0
    5.1702   -2.4010    0.0000 C   0  0  0  0  0  0  0  0  0  0  0  0
    7.6507   -1.6281    0.0000 C   0  0  0  0  0  0  0  0  0  0  0  0
    5.6164   -3.8331    0.0000 C   0  0  0  0  0  0  0  0  0  0  0  0
    8.0969   -3.0602    0.0000 C   0  0  0  0  0  0  0  0  0  0  0  0
    7.0798   -4.1627    0.0000 C   0  0  0  0  0  0  0  0  0  0  0  0
   -5.0732   -0.0938    0.0000 C   0  0  0  0  0  0  0  0  0  0  0  0
   -6.0903   -1.1963    0.0000 O   0  0  0  0  0  0  0  0  0  0  0  0
   -7.5536   -0.8667    0.0000 C   0  0  0  0  0  0  0  0  0  0  0  0
   -8.5707   -1.9691    0.0000 C   0  0  0  0  0  0  0  0  0  0  0  0
  -10.0341   -1.6395    0.0000 C   0  0  0  0  0  0  0  0  0  0  0  0
  -11.0512   -2.7420    0.0000 C   0  0  0  0  0  0  0  0  0  0  0  0
  1  2  1  0
  2  3  2  0
  1  4  1  0
  5  1  1  0
  6  4  1  0
  7  5  1  0
  8  6  1  0
  7  8  2  0
  9  7  1  0
 10  8  1  0
 11  9  2  0
 12 10  2  0
 11 12  1  0
 13 11  1  0
 13 14  1  0
 15 13  2  0
 14 16  1  0
 16 17  1  0
 17 18  2  0
 17 19  1  0
 18 20  1  0
 19 21  2  0
 20 22  2  0
 21 22  1  0
  2 23  1  0
 23 24  1  0
 24 25  1  0
 25 26  1  0
 26 27  1  0
 27 28  1  0
M  END
>  <Rank>  (37) 
37

>  <CR_ID>  (37) 
R-009819

>  <Acid_Name>  (37) 
R-009819

>  <SMILES>  (37) 
CCCCOCC(=O)N1CCc2ccc(C(=O)NCc3ccccc3)nc2C1

>  <MPO_Score>  (37) 
0.8303

>  <MW>  (37) 
381.21

>  <cLogP>  (37) 
2.71 ± 0.40

>  <TPSA>  (37) 
71.5

>  <HBD>  (37) 
1

>  <HBA>  (37) 
4

>  <RotBonds>  (37) 
8

>  <Fsp3>  (37) 
0.409

>  <NumArRings>  (37) 
2

>  <logS_ESOL>  (37) 
-3.70 ± 0.93 log(mol/L)

>  <logS_AD>  (37) 
In

>  <logS_model>  (37) 
ESOL/Delaney-2004 (linear, n=1144, RMSE=0.93 log-units)

>  <logPapp_PAMPA>  (37) 
-5.58 ± 0.80 log(cm/s)

>  <logPapp_class>  (37) 
Medium

>  <logPapp_AD>  (37) 
In

>  <logPapp_model>  (37) 
Hou-2004 PAMPA linear (RMSE=0.8, n=100)

>  <MetStab_score>  (37) 
1.000 (0-1 scale)

>  <MetStab_t12>  (37) 
High (t½>60 min HLM)

>  <Clearance_route>  (37) 
CYP2D6/3A4 (basic-N + Ar)

>  <Met_alerts>  (37) 
None

>  <MetStab_model>  (37) 
Rule-based HLM classifier (cLogP+Fsp3+Ar-rings+alerts; heuristic ±1 class)

>  <CYP_risk>  (37) 
Low

>  <CYP_alerts>  (37) 
None

>  <CYP2D6_flag>  (37) 
False

>  <CYP3A4_flag>  (37) 
False

>  <CYP2C9_flag>  (37) 
False

>  <CYP_model>  (37) 
SMARTS alert panel (pharmacophore-based; flag only – no IC50 predicted)

>  <PPB_pct>  (37) 
97.3 ± 10 %

>  <PPB_fu>  (37) 
0.0272

>  <PPB_class>  (37) 
Very high (>95%)

>  <PPB_AD>  (37) 
In

>  <PPB_model>  (37) 
Valko-2003 logP-linear (RMSE≈10% PPB, n=87)

>  <hERG_risk>  (37) 
Medium

>  <hERG_model>  (37) 
Structural-alert + cLogP (Redfern-2003 anchor; ±1 class)

>  <des_sol>  (37) 
0.720

>  <des_logp>  (37) 
1.000

>  <des_perm>  (37) 
0.947

>  <des_met>  (37) 
1.000

>  <des_cyp>  (37) 
1.000

>  <des_ppb>  (37) 
0.700

>  <des_herg>  (37) 
0.500

>  <des_mw>  (37) 
0.906

$$$$

     RDKit          2D

 28 31  0  0  0  0  0  0  0  0999 V2000
   -3.9889   -1.0543    0.0000 N   0  0  0  0  0  0  0  0  0  0  0  0
   -5.3957   -0.5337    0.0000 C   0  0  0  0  0  0  0  0  0  0  0  0
   -6.5499   -1.4917    0.0000 O   0  0  0  0  0  0  0  0  0  0  0  0
   -3.7364   -2.5329    0.0000 C   0  0  0  0  0  0  0  0  0  0  0  0
   -2.8347   -0.0964    0.0000 C   0  0  0  0  0  0  0  0  0  0  0  0
   -2.3297   -3.0536    0.0000 C   0  0  0  0  0  0  0  0  0  0  0  0
   -1.4279   -0.6170    0.0000 C   0  0  0  0  0  0  0  0  0  0  0  0
   -1.1754   -2.0956    0.0000 C   0  0  0  0  0  0  0  0  0  0  0  0
   -0.2737    0.3410    0.0000 N   0  0  0  0  0  0  0  0  0  0  0  0
    0.2313   -2.6162    0.0000 C   0  0  0  0  0  0  0  0  0  0  0  0
    1.1331   -0.1797    0.0000 C   0  0  0  0  0  0  0  0  0  0  0  0
    1.3856   -1.6582    0.0000 C   0  0  0  0  0  0  0  0  0  0  0  0
    2.2873    0.7783    0.0000 C   0  0  0  0  0  0  0  0  0  0  0  0
    3.6941    0.2577    0.0000 N   0  0  0  0  0  0  0  0  0  0  0  0
    2.0348    2.2569    0.0000 O   0  0  0  0  0  0  0  0  0  0  0  0
    4.8483    1.2157    0.0000 C   0  0  0  0  0  0  0  0  0  0  0  0
    6.2551    0.6950    0.0000 C   0  0  0  0  0  0  0  0  0  0  0  0
    6.5076   -0.7836    0.0000 C   0  0  0  0  0  0  0  0  0  0  0  0
    7.4093    1.6530    0.0000 C   0  0  0  0  0  0  0  0  0  0  0  0
    7.9143   -1.3042    0.0000 C   0  0  0  0  0  0  0  0  0  0  0  0
    8.8161    1.1324    0.0000 C   0  0  0  0  0  0  0  0  0  0  0  0
    9.0686   -0.3462    0.0000 C   0  0  0  0  0  0  0  0  0  0  0  0
   -5.6482    0.9449    0.0000 C   0  0  0  0  0  0  0  0  0  0  0  0
   -7.1268    0.6924    0.0000 C   0  0  0  0  0  0  0  0  0  0  0  0
   -5.9007    2.4235    0.0000 C   0  0  0  0  0  0  0  0  0  0  0  0
   -4.1696    1.1974    0.0000 C   0  0  0  0  0  0  0  0  0  0  0  0
   -7.3793    2.1710    0.0000 O   0  0  0  0  0  0  0  0  0  0  0  0
   -3.6489    2.6041    0.0000 C   0  0  0  0  0  0  0  0  0  0  0  0
  1  2  1  0
  2  3  2  0
  1  4  1  0
  5  1  1  0
  6  4  1  0
  7  5  1  0
  8  6  1  0
  7  8  2  0
  9  7  1  0
 10  8  1  0
 11  9  2  0
 12 10  2  0
 11 12  1  0
 13 11  1  0
 13 14  1  0
 15 13  2  0
 14 16  1  0
 16 17  1  0
 17 18  2  0
 17 19  1  0
 18 20  1  0
 19 21  2  0
 20 22  2  0
 21 22  1  0
  2 23  1  0
 23 24  1  0
 23 25  1  0
 23 26  1  0
 24 27  1  0
 25 27  1  0
 26 28  1  0
M  END
>  <Rank>  (38) 
38

>  <CR_ID>  (38) 
R-011802

>  <Acid_Name>  (38) 
R-011802

>  <SMILES>  (38) 
CCC1(C(=O)N2CCc3ccc(C(=O)NCc4ccccc4)nc3C2)COC1

>  <MPO_Score>  (38) 
0.8294

>  <MW>  (38) 
379.19

>  <cLogP>  (38) 
2.32 ± 0.40

>  <TPSA>  (38) 
71.5

>  <HBD>  (38) 
1

>  <HBA>  (38) 
4

>  <RotBonds>  (38) 
5

>  <Fsp3>  (38) 
0.409

>  <NumArRings>  (38) 
2

>  <logS_ESOL>  (38) 
-3.64 ± 0.93 log(mol/L)

>  <logS_AD>  (38) 
In

>  <logS_model>  (38) 
ESOL/Delaney-2004 (linear, n=1144, RMSE=0.93 log-units)

>  <logPapp_PAMPA>  (38) 
-5.77 ± 0.80 log(cm/s)

>  <logPapp_class>  (38) 
Medium

>  <logPapp_AD>  (38) 
In

>  <logPapp_model>  (38) 
Hou-2004 PAMPA linear (RMSE=0.8, n=100)

>  <MetStab_score>  (38) 
1.000 (0-1 scale)

>  <MetStab_t12>  (38) 
High (t½>60 min HLM)

>  <Clearance_route>  (38) 
CYP2D6/3A4 (basic-N + Ar)

>  <Met_alerts>  (38) 
None

>  <MetStab_model>  (38) 
Rule-based HLM classifier (cLogP+Fsp3+Ar-rings+alerts; heuristic ±1 class)

>  <CYP_risk>  (38) 
Low

>  <CYP_alerts>  (38) 
None

>  <CYP2D6_flag>  (38) 
False

>  <CYP3A4_flag>  (38) 
False

>  <CYP2C9_flag>  (38) 
False

>  <CYP_model>  (38) 
SMARTS alert panel (pharmacophore-based; flag only – no IC50 predicted)

>  <PPB_pct>  (38) 
94.9 ± 10 %

>  <PPB_fu>  (38) 
0.0507

>  <PPB_class>  (38) 
High (90-95%)

>  <PPB_AD>  (38) 
In

>  <PPB_model>  (38) 
Valko-2003 logP-linear (RMSE≈10% PPB, n=87)

>  <hERG_risk>  (38) 
Medium

>  <hERG_model>  (38) 
Structural-alert + cLogP (Redfern-2003 anchor; ±1 class)

>  <des_sol>  (38) 
0.744

>  <des_logp>  (38) 
1.000

>  <des_perm>  (38) 
0.820

>  <des_met>  (38) 
1.000

>  <des_cyp>  (38) 
1.000

>  <des_ppb>  (38) 
1.000

>  <des_herg>  (38) 
0.500

>  <des_mw>  (38) 
0.896

$$$$

     RDKit          2D

 26 29  0  0  0  0  0  0  0  0999 V2000
   -4.1780   -0.8554    0.0000 N   0  0  0  0  0  0  0  0  0  0  0  0
   -5.5780   -0.3170    0.0000 C   0  0  0  0  0  0  0  0  0  0  0  0
   -6.7444   -1.2602    0.0000 O   0  0  0  0  0  0  0  0  0  0  0  0
   -3.9443   -2.3371    0.0000 C   0  0  0  0  0  0  0  0  0  0  0  0
   -3.0116    0.0878    0.0000 C   0  0  0  0  0  0  0  0  0  0  0  0
   -2.5443   -2.8756    0.0000 C   0  0  0  0  0  0  0  0  0  0  0  0
   -1.6116   -0.4507    0.0000 C   0  0  0  0  0  0  0  0  0  0  0  0
   -1.3780   -1.9324    0.0000 C   0  0  0  0  0  0  0  0  0  0  0  0
   -0.4453    0.4925    0.0000 N   0  0  0  0  0  0  0  0  0  0  0  0
    0.0220   -2.4709    0.0000 C   0  0  0  0  0  0  0  0  0  0  0  0
    0.9547   -0.0460    0.0000 C   0  0  0  0  0  0  0  0  0  0  0  0
    1.1884   -1.5277    0.0000 C   0  0  0  0  0  0  0  0  0  0  0  0
    2.1211    0.8972    0.0000 C   0  0  0  0  0  0  0  0  0  0  0  0
    3.5211    0.3587    0.0000 N   0  0  0  0  0  0  0  0  0  0  0  0
    1.8874    2.3789    0.0000 O   0  0  0  0  0  0  0  0  0  0  0  0
    4.6874    1.3019    0.0000 C   0  0  0  0  0  0  0  0  0  0  0  0
    6.0875    0.7634    0.0000 C   0  0  0  0  0  0  0  0  0  0  0  0
    6.3211   -0.7183    0.0000 C   0  0  0  0  0  0  0  0  0  0  0  0
    7.2538    1.7066    0.0000 C   0  0  0  0  0  0  0  0  0  0  0  0
    7.7211   -1.2568    0.0000 C   0  0  0  0  0  0  0  0  0  0  0  0
    8.6538    1.1681    0.0000 C   0  0  0  0  0  0  0  0  0  0  0  0
    8.8875   -0.3136    0.0000 C   0  0  0  0  0  0  0  0  0  0  0  0
   -5.8117    1.1647    0.0000 C   0  0  0  0  0  0  0  0  0  0  0  0
   -7.2117    1.7032    0.0000 C   0  0  0  0  0  0  0  0  0  0  0  0
   -8.6934    1.4696    0.0000 C   0  0  0  0  0  0  0  0  0  0  0  0
   -8.1549    2.8696    0.0000 C   0  0  0  0  0  0  0  0  0  0  0  0
  1  2  1  0
  2  3  2  0
  1  4  1  0
  5  1  1  0
  6  4  1  0
  7  5  1  0
  8  6  1  0
  7  8  2  0
  9  7  1  0
 10  8  1  0
 11  9  2  0
 12 10  2  0
 11 12  1  0
 13 11  1  0
 13 14  1  0
 15 13  2  0
 14 16  1  0
 16 17  1  0
 17 18  2  0
 17 19  1  0
 18 20  1  0
 19 21  2  0
 20 22  2  0
 21 22  1  0
  2 23  1  0
 23 24  1  0
 24 25  1  0
 24 26  1  0
 25 26  1  0
M  END
>  <Rank>  (39) 
39

>  <CR_ID>  (39) 
R-008546

>  <Acid_Name>  (39) 
R-008546

>  <SMILES>  (39) 
O=C(NCc1ccccc1)c1ccc2c(n1)CN(C(=O)CC1CC1)CC2

>  <MPO_Score>  (39) 
0.8291

>  <MW>  (39) 
349.18

>  <cLogP>  (39) 
2.70 ± 0.40

>  <TPSA>  (39) 
62.3

>  <HBD>  (39) 
1

>  <HBA>  (39) 
3

>  <RotBonds>  (39) 
5

>  <Fsp3>  (39) 
0.381

>  <NumArRings>  (39) 
2

>  <logS_ESOL>  (39) 
-3.72 ± 0.93 log(mol/L)

>  <logS_AD>  (39) 
In

>  <logS_model>  (39) 
ESOL/Delaney-2004 (linear, n=1144, RMSE=0.93 log-units)

>  <logPapp_PAMPA>  (39) 
-5.41 ± 0.80 log(cm/s)

>  <logPapp_class>  (39) 
High

>  <logPapp_AD>  (39) 
In

>  <logPapp_model>  (39) 
Hou-2004 PAMPA linear (RMSE=0.8, n=100)

>  <MetStab_score>  (39) 
1.000 (0-1 scale)

>  <MetStab_t12>  (39) 
High (t½>60 min HLM)

>  <Clearance_route>  (39) 
CYP2D6/3A4 (basic-N + Ar)

>  <Met_alerts>  (39) 
None

>  <MetStab_model>  (39) 
Rule-based HLM classifier (cLogP+Fsp3+Ar-rings+alerts; heuristic ±1 class)

>  <CYP_risk>  (39) 
Low

>  <CYP_alerts>  (39) 
None

>  <CYP2D6_flag>  (39) 
False

>  <CYP3A4_flag>  (39) 
False

>  <CYP2C9_flag>  (39) 
False

>  <CYP_model>  (39) 
SMARTS alert panel (pharmacophore-based; flag only – no IC50 predicted)

>  <PPB_pct>  (39) 
97.2 ± 10 %

>  <PPB_fu>  (39) 
0.0279

>  <PPB_class>  (39) 
Very high (>95%)

>  <PPB_AD>  (39) 
In

>  <PPB_model>  (39) 
Valko-2003 logP-linear (RMSE≈10% PPB, n=87)

>  <hERG_risk>  (39) 
Medium

>  <hERG_model>  (39) 
Structural-alert + cLogP (Redfern-2003 anchor; ±1 class)

>  <des_sol>  (39) 
0.712

>  <des_logp>  (39) 
1.000

>  <des_perm>  (39) 
1.000

>  <des_met>  (39) 
1.000

>  <des_cyp>  (39) 
1.000

>  <des_ppb>  (39) 
0.700

>  <des_herg>  (39) 
0.500

>  <des_mw>  (39) 
0.746

$$$$

     RDKit          2D

 26 29  0  0  0  0  0  0  0  0999 V2000
   -4.4224   -0.7088    0.0000 N   0  0  0  0  0  0  0  0  0  0  0  0
   -5.8074   -0.1328    0.0000 C   0  0  0  0  0  0  0  0  0  0  0  0
   -6.9988   -1.0442    0.0000 O   0  0  0  0  0  0  0  0  0  0  0  0
   -4.2288   -2.1963    0.0000 C   0  0  0  0  0  0  0  0  0  0  0  0
   -3.2311    0.2026    0.0000 C   0  0  0  0  0  0  0  0  0  0  0  0
   -2.8438   -2.7723    0.0000 C   0  0  0  0  0  0  0  0  0  0  0  0
   -1.8461   -0.3734    0.0000 C   0  0  0  0  0  0  0  0  0  0  0  0
   -1.6525   -1.8608    0.0000 C   0  0  0  0  0  0  0  0  0  0  0  0
   -0.6548    0.5380    0.0000 N   0  0  0  0  0  0  0  0  0  0  0  0
   -0.2675   -2.4369    0.0000 C   0  0  0  0  0  0  0  0  0  0  0  0
    0.7302   -0.0380    0.0000 C   0  0  0  0  0  0  0  0  0  0  0  0
    0.9239   -1.5254    0.0000 C   0  0  0  0  0  0  0  0  0  0  0  0
    1.9216    0.8734    0.0000 C   0  0  0  0  0  0  0  0  0  0  0  0
    3.3066    0.2974    0.0000 N   0  0  0  0  0  0  0  0  0  0  0  0
    1.7279    2.3609    0.0000 O   0  0  0  0  0  0  0  0  0  0  0  0
    4.4979    1.2089    0.0000 C   0  0  0  0  0  0  0  0  0  0  0  0
    5.8829    0.6328    0.0000 C   0  0  0  0  0  0  0  0  0  0  0  0
    6.0765   -0.8546    0.0000 C   0  0  0  0  0  0  0  0  0  0  0  0
    7.0742    1.5443    0.0000 C   0  0  0  0  0  0  0  0  0  0  0  0
    7.4615   -1.4306    0.0000 C   0  0  0  0  0  0  0  0  0  0  0  0
    8.4592    0.9682    0.0000 C   0  0  0  0  0  0  0  0  0  0  0  0
    8.6529   -0.5192    0.0000 C   0  0  0  0  0  0  0  0  0  0  0  0
   -6.0011    1.3547    0.0000 C   0  0  0  0  0  0  0  0  0  0  0  0
   -4.5699    1.8037    0.0000 F   0  0  0  0  0  0  0  0  0  0  0  0
   -6.6918    2.6862    0.0000 C   0  0  0  0  0  0  0  0  0  0  0  0
   -7.4996    1.4222    0.0000 C   0  0  0  0  0  0  0  0  0  0  0  0
  1  2  1  0
  2  3  2  0
  1  4  1  0
  5  1  1  0
  6  4  1  0
  7  5  1  0
  8  6  1  0
  7  8  2  0
  9  7  1  0
 10  8  1  0
 11  9  2  0
 12 10  2  0
 11 12  1  0
 13 11  1  0
 13 14  1  0
 15 13  2  0
 14 16  1  0
 16 17  1  0
 17 18  2  0
 17 19  1  0
 18 20  1  0
 19 21  2  0
 20 22  2  0
 21 22  1  0
 23  2  1  0
 24 23  1  0
 23 25  1  0
 23 26  1  0
 25 26  1  0
M  END
>  <Rank>  (40) 
40

>  <CR_ID>  (40) 
R-011774

>  <Acid_Name>  (40) 
R-011774

>  <SMILES>  (40) 
O=C(NCc1ccccc1)c1ccc2c(n1)CN(C(=O)C1(F)CC1)CC2

>  <MPO_Score>  (40) 
0.8291

>  <MW>  (40) 
353.15

>  <cLogP>  (40) 
2.40 ± 0.40

>  <TPSA>  (40) 
62.3

>  <HBD>  (40) 
1

>  <HBA>  (40) 
3

>  <RotBonds>  (40) 
4

>  <Fsp3>  (40) 
0.350

>  <NumArRings>  (40) 
2

>  <logS_ESOL>  (40) 
-3.62 ± 0.93 log(mol/L)

>  <logS_AD>  (40) 
In

>  <logS_model>  (40) 
ESOL/Delaney-2004 (linear, n=1144, RMSE=0.93 log-units)

>  <logPapp_PAMPA>  (40) 
-5.57 ± 0.80 log(cm/s)

>  <logPapp_class>  (40) 
Medium

>  <logPapp_AD>  (40) 
In

>  <logPapp_model>  (40) 
Hou-2004 PAMPA linear (RMSE=0.8, n=100)

>  <MetStab_score>  (40) 
1.000 (0-1 scale)

>  <MetStab_t12>  (40) 
High (t½>60 min HLM)

>  <Clearance_route>  (40) 
CYP2D6/3A4 (basic-N + Ar)

>  <Met_alerts>  (40) 
None

>  <MetStab_model>  (40) 
Rule-based HLM classifier (cLogP+Fsp3+Ar-rings+alerts; heuristic ±1 class)

>  <CYP_risk>  (40) 
Low

>  <CYP_alerts>  (40) 
None

>  <CYP2D6_flag>  (40) 
False

>  <CYP3A4_flag>  (40) 
False

>  <CYP2C9_flag>  (40) 
False

>  <CYP_model>  (40) 
SMARTS alert panel (pharmacophore-based; flag only – no IC50 predicted)

>  <PPB_pct>  (40) 
95.5 ± 10 %

>  <PPB_fu>  (40) 
0.0450

>  <PPB_class>  (40) 
Very high (>95%)

>  <PPB_AD>  (40) 
In

>  <PPB_model>  (40) 
Valko-2003 logP-linear (RMSE≈10% PPB, n=87)

>  <hERG_risk>  (40) 
Medium

>  <hERG_model>  (40) 
Structural-alert + cLogP (Redfern-2003 anchor; ±1 class)

>  <des_sol>  (40) 
0.752

>  <des_logp>  (40) 
1.000

>  <des_perm>  (40) 
0.953

>  <des_met>  (40) 
1.000

>  <des_cyp>  (40) 
1.000

>  <des_ppb>  (40) 
0.700

>  <des_herg>  (40) 
0.500

>  <des_mw>  (40) 
0.766

$$$$

     RDKit          2D

 26 28  0  0  0  0  0  0  0  0999 V2000
   -3.6096   -0.4181    0.0000 N   0  0  0  0  0  0  0  0  0  0  0  0
   -4.3709   -1.7105    0.0000 C   0  0  0  0  0  0  0  0  0  0  0  0
   -3.6323   -3.0161    0.0000 O   0  0  0  0  0  0  0  0  0  0  0  0
   -4.3482    0.8875    0.0000 C   0  0  0  0  0  0  0  0  0  0  0  0
   -2.1096   -0.4312    0.0000 C   0  0  0  0  0  0  0  0  0  0  0  0
   -3.5868    2.1799    0.0000 C   0  0  0  0  0  0  0  0  0  0  0  0
   -1.3483    0.8612    0.0000 C   0  0  0  0  0  0  0  0  0  0  0  0
   -2.0869    2.1668    0.0000 C   0  0  0  0  0  0  0  0  0  0  0  0
    0.1517    0.8481    0.0000 N   0  0  0  0  0  0  0  0  0  0  0  0
   -1.3256    3.4592    0.0000 C   0  0  0  0  0  0  0  0  0  0  0  0
    0.9130    2.1405    0.0000 C   0  0  0  0  0  0  0  0  0  0  0  0
    0.1744    3.4461    0.0000 C   0  0  0  0  0  0  0  0  0  0  0  0
    2.4129    2.1274    0.0000 C   0  0  0  0  0  0  0  0  0  0  0  0
    3.1515    0.8218    0.0000 N   0  0  0  0  0  0  0  0  0  0  0  0
    3.1743    3.4198    0.0000 O   0  0  0  0  0  0  0  0  0  0  0  0
    4.6515    0.8087    0.0000 C   0  0  0  0  0  0  0  0  0  0  0  0
    5.3901   -0.4969    0.0000 C   0  0  0  0  0  0  0  0  0  0  0  0
    4.6288   -1.7893    0.0000 C   0  0  0  0  0  0  0  0  0  0  0  0
    6.8900   -0.5100    0.0000 C   0  0  0  0  0  0  0  0  0  0  0  0
    5.3674   -3.0948    0.0000 C   0  0  0  0  0  0  0  0  0  0  0  0
    7.6286   -1.8155    0.0000 C   0  0  0  0  0  0  0  0  0  0  0  0
    6.8673   -3.1080    0.0000 C   0  0  0  0  0  0  0  0  0  0  0  0
   -5.8708   -1.6974    0.0000 C   0  0  0  0  0  0  0  0  0  0  0  0
   -7.3708   -1.6843    0.0000 F   0  0  0  0  0  0  0  0  0  0  0  0
   -5.8577   -0.1975    0.0000 C   0  0  0  0  0  0  0  0  0  0  0  0
   -5.8840   -3.1973    0.0000 C   0  0  0  0  0  0  0  0  0  0  0  0
  1  2  1  0
  2  3  2  0
  1  4  1  0
  5  1  1  0
  6  4  1  0
  7  5  1  0
  8  6  1  0
  7  8  2  0
  9  7  1  0
 10  8  1  0
 11  9  2  0
 12 10  2  0
 11 12  1  0
 13 11  1  0
 13 14  1  0
 15 13  2  0
 14 16  1  0
 16 17  1  0
 17 18  2  0
 17 19  1  0
 18 20  1  0
 19 21  2  0
 20 22  2  0
 21 22  1  0
 23  2  1  0
 24 23  1  0
 23 25  1  0
 23 26  1  0
M  END
>  <Rank>  (41) 
41

>  <CR_ID>  (41) 
R-011778

>  <Acid_Name>  (41) 
R-011778

>  <SMILES>  (41) 
CC(C)(F)C(=O)N1CCc2ccc(C(=O)NCc3ccccc3)nc2C1

>  <MPO_Score>  (41) 
0.8264

>  <MW>  (41) 
355.17

>  <cLogP>  (41) 
2.64 ± 0.40

>  <TPSA>  (41) 
62.3

>  <HBD>  (41) 
1

>  <HBA>  (41) 
3

>  <RotBonds>  (41) 
4

>  <Fsp3>  (41) 
0.350

>  <NumArRings>  (41) 
2

>  <logS_ESOL>  (41) 
-3.79 ± 0.93 log(mol/L)

>  <logS_AD>  (41) 
In

>  <logS_model>  (41) 
ESOL/Delaney-2004 (linear, n=1144, RMSE=0.93 log-units)

>  <logPapp_PAMPA>  (41) 
-5.45 ± 0.80 log(cm/s)

>  <logPapp_class>  (41) 
High

>  <logPapp_AD>  (41) 
In

>  <logPapp_model>  (41) 
Hou-2004 PAMPA linear (RMSE=0.8, n=100)

>  <MetStab_score>  (41) 
1.000 (0-1 scale)

>  <MetStab_t12>  (41) 
High (t½>60 min HLM)

>  <Clearance_route>  (41) 
CYP2D6/3A4 (basic-N + Ar)

>  <Met_alerts>  (41) 
None

>  <MetStab_model>  (41) 
Rule-based HLM classifier (cLogP+Fsp3+Ar-rings+alerts; heuristic ±1 class)

>  <CYP_risk>  (41) 
Low

>  <CYP_alerts>  (41) 
None

>  <CYP2D6_flag>  (41) 
False

>  <CYP3A4_flag>  (41) 
False

>  <CYP2C9_flag>  (41) 
False

>  <CYP_model>  (41) 
SMARTS alert panel (pharmacophore-based; flag only – no IC50 predicted)

>  <PPB_pct>  (41) 
97.0 ± 10 %

>  <PPB_fu>  (41) 
0.0304

>  <PPB_class>  (41) 
Very high (>95%)

>  <PPB_AD>  (41) 
In

>  <PPB_model>  (41) 
Valko-2003 logP-linear (RMSE≈10% PPB, n=87)

>  <hERG_risk>  (41) 
Medium

>  <hERG_model>  (41) 
Structural-alert + cLogP (Redfern-2003 anchor; ±1 class)

>  <des_sol>  (41) 
0.684

>  <des_logp>  (41) 
1.000

>  <des_perm>  (41) 
1.000

>  <des_met>  (41) 
1.000

>  <des_cyp>  (41) 
1.000

>  <des_ppb>  (41) 
0.700

>  <des_herg>  (41) 
0.500

>  <des_mw>  (41) 
0.776

$$$$

     RDKit          2D

 26 29  0  0  0  0  0  0  0  0999 V2000
   -4.4104   -0.9041    0.0000 N   0  0  0  0  0  0  0  0  0  0  0  0
   -5.8086   -0.3610    0.0000 C   0  0  0  0  0  0  0  0  0  0  0  0
   -6.9780   -1.3004    0.0000 O   0  0  0  0  0  0  0  0  0  0  0  0
   -4.1816   -2.3866    0.0000 C   0  0  0  0  0  0  0  0  0  0  0  0
   -3.2409    0.0352    0.0000 C   0  0  0  0  0  0  0  0  0  0  0  0
   -2.7834   -2.9297    0.0000 C   0  0  0  0  0  0  0  0  0  0  0  0
   -1.8427   -0.5079    0.0000 C   0  0  0  0  0  0  0  0  0  0  0  0
   -1.6139   -1.9903    0.0000 C   0  0  0  0  0  0  0  0  0  0  0  0
   -0.6732    0.4315    0.0000 N   0  0  0  0  0  0  0  0  0  0  0  0
   -0.2157   -2.5334    0.0000 C   0  0  0  0  0  0  0  0  0  0  0  0
    0.7250   -0.1116    0.0000 C   0  0  0  0  0  0  0  0  0  0  0  0
    0.9538   -1.5940    0.0000 C   0  0  0  0  0  0  0  0  0  0  0  0
    1.8944    0.8278    0.0000 C   0  0  0  0  0  0  0  0  0  0  0  0
    3.2927    0.2847    0.0000 N   0  0  0  0  0  0  0  0  0  0  0  0
    1.6656    2.3102    0.0000 O   0  0  0  0  0  0  0  0  0  0  0  0
    4.4621    1.2240    0.0000 C   0  0  0  0  0  0  0  0  0  0  0  0
    5.8603    0.6809    0.0000 C   0  0  0  0  0  0  0  0  0  0  0  0
    6.0891   -0.8015    0.0000 C   0  0  0  0  0  0  0  0  0  0  0  0
    7.0298    1.6203    0.0000 C   0  0  0  0  0  0  0  0  0  0  0  0
    7.4874   -1.3446    0.0000 C   0  0  0  0  0  0  0  0  0  0  0  0
    8.4280    1.0772    0.0000 C   0  0  0  0  0  0  0  0  0  0  0  0
    8.6568   -0.4052    0.0000 C   0  0  0  0  0  0  0  0  0  0  0  0
   -6.0374    1.1214    0.0000 C   0  0  0  0  0  0  0  0  0  0  0  0
   -5.1509    2.3314    0.0000 C   0  0  0  0  0  0  0  0  0  0  0  0
   -7.2474    2.0079    0.0000 C   0  0  0  0  0  0  0  0  0  0  0  0
   -6.3609    3.2179    0.0000 C   0  0  0  0  0  0  0  0  0  0  0  0
  1  2  1  0
  2  3  2  0
  1  4  1  0
  5  1  1  0
  6  4  1  0
  7  5  1  0
  8  6  1  0
  7  8  2  0
  9  7  1  0
 10  8  1  0
 11  9  2  0
 12 10  2  0
 11 12  1  0
 13 11  1  0
 13 14  1  0
 15 13  2  0
 14 16  1  0
 16 17  1  0
 17 18  2  0
 17 19  1  0
 18 20  1  0
 19 21  2  0
 20 22  2  0
 21 22  1  0
  2 23  1  0
 23 24  1  0
 23 25  1  0
 24 26  1  0
 25 26  1  0
M  END
>  <Rank>  (42) 
42

>  <CR_ID>  (42) 
R-008220

>  <Acid_Name>  (42) 
R-008220

>  <SMILES>  (42) 
O=C(NCc1ccccc1)c1ccc2c(n1)CN(C(=O)C1CCC1)CC2

>  <MPO_Score>  (42) 
0.8255

>  <MW>  (42) 
349.18

>  <cLogP>  (42) 
2.70 ± 0.40

>  <TPSA>  (42) 
62.3

>  <HBD>  (42) 
1

>  <HBA>  (42) 
3

>  <RotBonds>  (42) 
4

>  <Fsp3>  (42) 
0.381

>  <NumArRings>  (42) 
2

>  <logS_ESOL>  (42) 
-3.78 ± 0.93 log(mol/L)

>  <logS_AD>  (42) 
In

>  <logS_model>  (42) 
ESOL/Delaney-2004 (linear, n=1144, RMSE=0.93 log-units)

>  <logPapp_PAMPA>  (42) 
-5.41 ± 0.80 log(cm/s)

>  <logPapp_class>  (42) 
High

>  <logPapp_AD>  (42) 
In

>  <logPapp_model>  (42) 
Hou-2004 PAMPA linear (RMSE=0.8, n=100)

>  <MetStab_score>  (42) 
1.000 (0-1 scale)

>  <MetStab_t12>  (42) 
High (t½>60 min HLM)

>  <Clearance_route>  (42) 
CYP2D6/3A4 (basic-N + Ar)

>  <Met_alerts>  (42) 
None

>  <MetStab_model>  (42) 
Rule-based HLM classifier (cLogP+Fsp3+Ar-rings+alerts; heuristic ±1 class)

>  <CYP_risk>  (42) 
Low

>  <CYP_alerts>  (42) 
None

>  <CYP2D6_flag>  (42) 
False

>  <CYP3A4_flag>  (42) 
False

>  <CYP2C9_flag>  (42) 
False

>  <CYP_model>  (42) 
SMARTS alert panel (pharmacophore-based; flag only – no IC50 predicted)

>  <PPB_pct>  (42) 
97.2 ± 10 %

>  <PPB_fu>  (42) 
0.0279

>  <PPB_class>  (42) 
Very high (>95%)

>  <PPB_AD>  (42) 
In

>  <PPB_model>  (42) 
Valko-2003 logP-linear (RMSE≈10% PPB, n=87)

>  <hERG_risk>  (42) 
Medium

>  <hERG_model>  (42) 
Structural-alert + cLogP (Redfern-2003 anchor; ±1 class)

>  <des_sol>  (42) 
0.688

>  <des_logp>  (42) 
1.000

>  <des_perm>  (42) 
1.000

>  <des_met>  (42) 
1.000

>  <des_cyp>  (42) 
1.000

>  <des_ppb>  (42) 
0.700

>  <des_herg>  (42) 
0.500

>  <des_mw>  (42) 
0.746

$$$$

     RDKit          2D

 26 29  0  0  0  0  0  0  0  0999 V2000
   -4.4224   -0.7088    0.0000 N   0  0  0  0  0  0  0  0  0  0  0  0
   -5.8074   -0.1328    0.0000 C   0  0  0  0  0  0  0  0  0  0  0  0
   -6.9988   -1.0442    0.0000 O   0  0  0  0  0  0  0  0  0  0  0  0
   -4.2288   -2.1963    0.0000 C   0  0  0  0  0  0  0  0  0  0  0  0
   -3.2311    0.2026    0.0000 C   0  0  0  0  0  0  0  0  0  0  0  0
   -2.8438   -2.7723    0.0000 C   0  0  0  0  0  0  0  0  0  0  0  0
   -1.8461   -0.3734    0.0000 C   0  0  0  0  0  0  0  0  0  0  0  0
   -1.6525   -1.8608    0.0000 C   0  0  0  0  0  0  0  0  0  0  0  0
   -0.6548    0.5380    0.0000 N   0  0  0  0  0  0  0  0  0  0  0  0
   -0.2675   -2.4369    0.0000 C   0  0  0  0  0  0  0  0  0  0  0  0
    0.7302   -0.0380    0.0000 C   0  0  0  0  0  0  0  0  0  0  0  0
    0.9239   -1.5254    0.0000 C   0  0  0  0  0  0  0  0  0  0  0  0
    1.9216    0.8734    0.0000 C   0  0  0  0  0  0  0  0  0  0  0  0
    3.3066    0.2974    0.0000 N   0  0  0  0  0  0  0  0  0  0  0  0
    1.7279    2.3609    0.0000 O   0  0  0  0  0  0  0  0  0  0  0  0
    4.4979    1.2089    0.0000 C   0  0  0  0  0  0  0  0  0  0  0  0
    5.8829    0.6328    0.0000 C   0  0  0  0  0  0  0  0  0  0  0  0
    6.0765   -0.8546    0.0000 C   0  0  0  0  0  0  0  0  0  0  0  0
    7.0742    1.5443    0.0000 C   0  0  0  0  0  0  0  0  0  0  0  0
    7.4615   -1.4306    0.0000 C   0  0  0  0  0  0  0  0  0  0  0  0
    8.4592    0.9682    0.0000 C   0  0  0  0  0  0  0  0  0  0  0  0
    8.6529   -0.5192    0.0000 C   0  0  0  0  0  0  0  0  0  0  0  0
   -6.0011    1.3547    0.0000 C   0  0  0  0  0  0  0  0  0  0  0  0
   -6.6918    2.6862    0.0000 C   0  0  0  0  0  0  0  0  0  0  0  0
   -7.4996    1.4222    0.0000 C   0  0  0  0  0  0  0  0  0  0  0  0
   -4.5699    1.8037    0.0000 C   0  0  0  0  0  0  0  0  0  0  0  0
  1  2  1  0
  2  3  2  0
  1  4  1  0
  5  1  1  0
  6  4  1  0
  7  5  1  0
  8  6  1  0
  7  8  2  0
  9  7  1  0
 10  8  1  0
 11  9  2  0
 12 10  2  0
 11 12  1  0
 13 11  1  0
 13 14  1  0
 15 13  2  0
 14 16  1  0
 16 17  1  0
 17 18  2  0
 17 19  1  0
 18 20  1  0
 19 21  2  0
 20 22  2  0
 21 22  1  0
  2 23  1  0
 23 24  1  0
 23 25  1  0
 23 26  1  0
 24 25  1  0
M  END
>  <Rank>  (43) 
43

>  <CR_ID>  (43) 
R-009801

>  <Acid_Name>  (43) 
R-009801

>  <SMILES>  (43) 
CC1(C(=O)N2CCc3ccc(C(=O)NCc4ccccc4)nc3C2)CC1

>  <MPO_Score>  (43) 
0.8255

>  <MW>  (43) 
349.18

>  <cLogP>  (43) 
2.70 ± 0.40

>  <TPSA>  (43) 
62.3

>  <HBD>  (43) 
1

>  <HBA>  (43) 
3

>  <RotBonds>  (43) 
4

>  <Fsp3>  (43) 
0.381

>  <NumArRings>  (43) 
2

>  <logS_ESOL>  (43) 
-3.78 ± 0.93 log(mol/L)

>  <logS_AD>  (43) 
In

>  <logS_model>  (43) 
ESOL/Delaney-2004 (linear, n=1144, RMSE=0.93 log-units)

>  <logPapp_PAMPA>  (43) 
-5.41 ± 0.80 log(cm/s)

>  <logPapp_class>  (43) 
High

>  <logPapp_AD>  (43) 
In

>  <logPapp_model>  (43) 
Hou-2004 PAMPA linear (RMSE=0.8, n=100)

>  <MetStab_score>  (43) 
1.000 (0-1 scale)

>  <MetStab_t12>  (43) 
High (t½>60 min HLM)

>  <Clearance_route>  (43) 
CYP2D6/3A4 (basic-N + Ar)

>  <Met_alerts>  (43) 
None

>  <MetStab_model>  (43) 
Rule-based HLM classifier (cLogP+Fsp3+Ar-rings+alerts; heuristic ±1 class)

>  <CYP_risk>  (43) 
Low

>  <CYP_alerts>  (43) 
None

>  <CYP2D6_flag>  (43) 
False

>  <CYP3A4_flag>  (43) 
False

>  <CYP2C9_flag>  (43) 
False

>  <CYP_model>  (43) 
SMARTS alert panel (pharmacophore-based; flag only – no IC50 predicted)

>  <PPB_pct>  (43) 
97.2 ± 10 %

>  <PPB_fu>  (43) 
0.0279

>  <PPB_class>  (43) 
Very high (>95%)

>  <PPB_AD>  (43) 
In

>  <PPB_model>  (43) 
Valko-2003 logP-linear (RMSE≈10% PPB, n=87)

>  <hERG_risk>  (43) 
Medium

>  <hERG_model>  (43) 
Structural-alert + cLogP (Redfern-2003 anchor; ±1 class)

>  <des_sol>  (43) 
0.688

>  <des_logp>  (43) 
1.000

>  <des_perm>  (43) 
1.000

>  <des_met>  (43) 
1.000

>  <des_cyp>  (43) 
1.000

>  <des_ppb>  (43) 
0.700

>  <des_herg>  (43) 
0.500

>  <des_mw>  (43) 
0.746

$$$$

     RDKit          2D

 28 31  0  0  0  0  0  0  0  0999 V2000
   -3.8736   -1.3967    0.0000 N   0  0  0  0  0  0  0  0  0  0  0  0
   -5.3030   -0.9420    0.0000 C   0  0  0  0  0  0  0  0  0  0  0  0
   -6.4115   -1.9526    0.0000 O   0  0  0  0  0  0  0  0  0  0  0  0
   -3.5527   -2.8620    0.0000 C   0  0  0  0  0  0  0  0  0  0  0  0
   -2.7650   -0.3862    0.0000 C   0  0  0  0  0  0  0  0  0  0  0  0
   -2.1232   -3.3167    0.0000 C   0  0  0  0  0  0  0  0  0  0  0  0
   -1.3356   -0.8409    0.0000 C   0  0  0  0  0  0  0  0  0  0  0  0
   -1.0147   -2.3062    0.0000 C   0  0  0  0  0  0  0  0  0  0  0  0
   -0.2271    0.1696    0.0000 N   0  0  0  0  0  0  0  0  0  0  0  0
    0.4147   -2.7609    0.0000 C   0  0  0  0  0  0  0  0  0  0  0  0
    1.2023   -0.2851    0.0000 C   0  0  0  0  0  0  0  0  0  0  0  0
    1.5232   -1.7504    0.0000 C   0  0  0  0  0  0  0  0  0  0  0  0
    2.3108    0.7254    0.0000 C   0  0  0  0  0  0  0  0  0  0  0  0
    3.7402    0.2707    0.0000 N   0  0  0  0  0  0  0  0  0  0  0  0
    1.9899    2.1907    0.0000 O   0  0  0  0  0  0  0  0  0  0  0  0
    4.8487    1.2813    0.0000 C   0  0  0  0  0  0  0  0  0  0  0  0
    6.2781    0.8265    0.0000 C   0  0  0  0  0  0  0  0  0  0  0  0
    6.5990   -0.6387    0.0000 C   0  0  0  0  0  0  0  0  0  0  0  0
    7.3867    1.8371    0.0000 C   0  0  0  0  0  0  0  0  0  0  0  0
    8.0285   -1.0935    0.0000 C   0  0  0  0  0  0  0  0  0  0  0  0
    8.8161    1.3823    0.0000 C   0  0  0  0  0  0  0  0  0  0  0  0
    9.1370   -0.0829    0.0000 C   0  0  0  0  0  0  0  0  0  0  0  0
   -5.6239    0.5233    0.0000 C   0  0  0  0  0  0  0  0  0  0  0  0
   -4.5154    1.5338    0.0000 C   0  0  0  0  0  0  0  0  0  0  0  0
   -7.0533    0.9780    0.0000 C   0  0  0  0  0  0  0  0  0  0  0  0
   -4.8363    2.9991    0.0000 C   0  0  0  0  0  0  0  0  0  0  0  0
   -7.3742    2.4433    0.0000 C   0  0  0  0  0  0  0  0  0  0  0  0
   -6.2657    3.4538    0.0000 O   0  0  0  0  0  0  0  0  0  0  0  0
  1  2  1  0
  2  3  2  0
  1  4  1  0
  5  1  1  0
  6  4  1  0
  7  5  1  0
  8  6  1  0
  7  8  2  0
  9  7  1  0
 10  8  1  0
 11  9  2  0
 12 10  2  0
 11 12  1  0
 13 11  1  0
 13 14  1  0
 15 13  2  0
 14 16  1  0
 16 17  1  0
 17 18  2  0
 17 19  1  0
 18 20  1  0
 19 21  2  0
 20 22  2  0
 21 22  1  0
  2 23  1  0
 23 24  1  0
 23 25  1  0
 24 26  1  0
 25 27  1  0
 26 28  1  0
 27 28  1  0
M  END
>  <Rank>  (44) 
44

>  <CR_ID>  (44) 
R-003996

>  <Acid_Name>  (44) 
R-003996

>  <SMILES>  (44) 
O=C(NCc1ccccc1)c1ccc2c(n1)CN(C(=O)C1CCOCC1)CC2

>  <MPO_Score>  (44) 
0.8252

>  <MW>  (44) 
379.19

>  <cLogP>  (44) 
2.32 ± 0.40

>  <TPSA>  (44) 
71.5

>  <HBD>  (44) 
1

>  <HBA>  (44) 
4

>  <RotBonds>  (44) 
4

>  <Fsp3>  (44) 
0.409

>  <NumArRings>  (44) 
2

>  <logS_ESOL>  (44) 
-3.71 ± 0.93 log(mol/L)

>  <logS_AD>  (44) 
In

>  <logS_model>  (44) 
ESOL/Delaney-2004 (linear, n=1144, RMSE=0.93 log-units)

>  <logPapp_PAMPA>  (44) 
-5.77 ± 0.80 log(cm/s)

>  <logPapp_class>  (44) 
Medium

>  <logPapp_AD>  (44) 
In

>  <logPapp_model>  (44) 
Hou-2004 PAMPA linear (RMSE=0.8, n=100)

>  <MetStab_score>  (44) 
1.000 (0-1 scale)

>  <MetStab_t12>  (44) 
High (t½>60 min HLM)

>  <Clearance_route>  (44) 
CYP2D6/3A4 (basic-N + Ar)

>  <Met_alerts>  (44) 
None

>  <MetStab_model>  (44) 
Rule-based HLM classifier (cLogP+Fsp3+Ar-rings+alerts; heuristic ±1 class)

>  <CYP_risk>  (44) 
Low

>  <CYP_alerts>  (44) 
None

>  <CYP2D6_flag>  (44) 
False

>  <CYP3A4_flag>  (44) 
False

>  <CYP2C9_flag>  (44) 
False

>  <CYP_model>  (44) 
SMARTS alert panel (pharmacophore-based; flag only – no IC50 predicted)

>  <PPB_pct>  (44) 
94.9 ± 10 %

>  <PPB_fu>  (44) 
0.0507

>  <PPB_class>  (44) 
High (90-95%)

>  <PPB_AD>  (44) 
In

>  <PPB_model>  (44) 
Valko-2003 logP-linear (RMSE≈10% PPB, n=87)

>  <hERG_risk>  (44) 
Medium

>  <hERG_model>  (44) 
Structural-alert + cLogP (Redfern-2003 anchor; ±1 class)

>  <des_sol>  (44) 
0.716

>  <des_logp>  (44) 
1.000

>  <des_perm>  (44) 
0.820

>  <des_met>  (44) 
1.000

>  <des_cyp>  (44) 
1.000

>  <des_ppb>  (44) 
1.000

>  <des_herg>  (44) 
0.500

>  <des_mw>  (44) 
0.896

$$$$

     RDKit          2D

 27 29  0  0  0  0  0  0  0  0999 V2000
   -3.1114    0.1879    0.0000 N   0  0  0  0  0  0  0  0  0  0  0  0
   -4.0140   -1.0101    0.0000 C   0  0  0  0  0  0  0  0  0  0  0  0
   -3.4278   -2.3909    0.0000 O   0  0  0  0  0  0  0  0  0  0  0  0
   -3.6976    1.5686    0.0000 C   0  0  0  0  0  0  0  0  0  0  0  0
   -1.6226    0.0052    0.0000 C   0  0  0  0  0  0  0  0  0  0  0  0
   -2.7950    2.7666    0.0000 C   0  0  0  0  0  0  0  0  0  0  0  0
   -0.7199    1.2032    0.0000 C   0  0  0  0  0  0  0  0  0  0  0  0
   -1.3061    2.5839    0.0000 C   0  0  0  0  0  0  0  0  0  0  0  0
    0.7689    1.0205    0.0000 N   0  0  0  0  0  0  0  0  0  0  0  0
   -0.4035    3.7820    0.0000 C   0  0  0  0  0  0  0  0  0  0  0  0
    1.6715    2.2186    0.0000 C   0  0  0  0  0  0  0  0  0  0  0  0
    1.0853    3.5993    0.0000 C   0  0  0  0  0  0  0  0  0  0  0  0
    3.1604    2.0359    0.0000 C   0  0  0  0  0  0  0  0  0  0  0  0
    3.7466    0.6552    0.0000 N   0  0  0  0  0  0  0  0  0  0  0  0
    4.0630    3.2339    0.0000 O   0  0  0  0  0  0  0  0  0  0  0  0
    5.2354    0.4725    0.0000 C   0  0  0  0  0  0  0  0  0  0  0  0
    5.8216   -0.9082    0.0000 C   0  0  0  0  0  0  0  0  0  0  0  0
    4.9190   -2.1062    0.0000 C   0  0  0  0  0  0  0  0  0  0  0  0
    7.3104   -1.0909    0.0000 C   0  0  0  0  0  0  0  0  0  0  0  0
    5.5052   -3.4870    0.0000 C   0  0  0  0  0  0  0  0  0  0  0  0
    7.8967   -2.4716    0.0000 C   0  0  0  0  0  0  0  0  0  0  0  0
    6.9940   -3.6696    0.0000 C   0  0  0  0  0  0  0  0  0  0  0  0
   -5.5029   -0.8275    0.0000 C   0  0  0  0  0  0  0  0  0  0  0  0
   -6.4055   -2.0255    0.0000 N   0  0  0  0  0  0  0  0  0  0  0  0
   -7.8943   -1.8428    0.0000 C   0  0  0  0  0  0  0  0  0  0  0  0
   -8.4805   -0.4621    0.0000 O   0  0  0  0  0  0  0  0  0  0  0  0
   -8.7969   -3.0408    0.0000 C   0  0  0  0  0  0  0  0  0  0  0  0
  1  2  1  0
  2  3  2  0
  1  4  1  0
  5  1  1  0
  6  4  1  0
  7  5  1  0
  8  6  1  0
  7  8  2  0
  9  7  1  0
 10  8  1  0
 11  9  2  0
 12 10  2  0
 11 12  1  0
 13 11  1  0
 13 14  1  0
 15 13  2  0
 14 16  1  0
 16 17  1  0
 17 18  2  0
 17 19  1  0
 18 20  1  0
 19 21  2  0
 20 22  2  0
 21 22  1  0
  2 23  1  0
 23 24  1  0
 24 25  1  0
 25 26  2  0
 25 27  1  0
M  END
>  <Rank>  (45) 
45

>  <CR_ID>  (45) 
R-005007

>  <Acid_Name>  (45) 
R-005007

>  <SMILES>  (45) 
CC(=O)NCC(=O)N1CCc2ccc(C(=O)NCc3ccccc3)nc2C1

>  <MPO_Score>  (45) 
0.8212

>  <MW>  (45) 
366.17

>  <cLogP>  (45) 
1.03 ± 0.40

>  <TPSA>  (45) 
91.4

>  <HBD>  (45) 
2

>  <HBA>  (45) 
4

>  <RotBonds>  (45) 
5

>  <Fsp3>  (45) 
0.300

>  <NumArRings>  (45) 
2

>  <logS_ESOL>  (45) 
-2.76 ± 0.93 log(mol/L)

>  <logS_AD>  (45) 
In

>  <logS_model>  (45) 
ESOL/Delaney-2004 (linear, n=1144, RMSE=0.93 log-units)

>  <logPapp_PAMPA>  (45) 
-6.72 ± 0.80 log(cm/s)

>  <logPapp_class>  (45) 
Medium

>  <logPapp_AD>  (45) 
In

>  <logPapp_model>  (45) 
Hou-2004 PAMPA linear (RMSE=0.8, n=100)

>  <MetStab_score>  (45) 
1.000 (0-1 scale)

>  <MetStab_t12>  (45) 
High (t½>60 min HLM)

>  <Clearance_route>  (45) 
CYP2D6/3A4 (basic-N + Ar)

>  <Met_alerts>  (45) 
None

>  <MetStab_model>  (45) 
Rule-based HLM classifier (cLogP+Fsp3+Ar-rings+alerts; heuristic ±1 class)

>  <CYP_risk>  (45) 
Low

>  <CYP_alerts>  (45) 
None

>  <CYP2D6_flag>  (45) 
False

>  <CYP3A4_flag>  (45) 
False

>  <CYP2C9_flag>  (45) 
False

>  <CYP_model>  (45) 
SMARTS alert panel (pharmacophore-based; flag only – no IC50 predicted)

>  <PPB_pct>  (45) 
68.8 ± 10 %

>  <PPB_fu>  (45) 
0.3121

>  <PPB_class>  (45) 
Low (<80%)

>  <PPB_AD>  (45) 
In

>  <PPB_model>  (45) 
Valko-2003 logP-linear (RMSE≈10% PPB, n=87)

>  <hERG_risk>  (45) 
Low

>  <hERG_model>  (45) 
Structural-alert + cLogP (Redfern-2003 anchor; ±1 class)

>  <des_sol>  (45) 
1.000

>  <des_logp>  (45) 
0.516

>  <des_perm>  (45) 
0.187

>  <des_met>  (45) 
1.000

>  <des_cyp>  (45) 
1.000

>  <des_ppb>  (45) 
1.000

>  <des_herg>  (45) 
1.000

>  <des_mw>  (45) 
0.831

$$$$

     RDKit          2D

 26 28  0  0  0  0  0  0  0  0999 V2000
   -3.5557    0.0922    0.0000 N   0  0  0  0  0  0  0  0  0  0  0  0
   -4.4270   -1.1287    0.0000 C   0  0  0  0  0  0  0  0  0  0  0  0
   -3.8053   -2.4938    0.0000 O   0  0  0  0  0  0  0  0  0  0  0  0
   -4.1774    1.4573    0.0000 C   0  0  0  0  0  0  0  0  0  0  0  0
   -2.0626   -0.0519    0.0000 C   0  0  0  0  0  0  0  0  0  0  0  0
   -3.3060    2.6783    0.0000 C   0  0  0  0  0  0  0  0  0  0  0  0
   -1.1913    1.1691    0.0000 C   0  0  0  0  0  0  0  0  0  0  0  0
   -1.8130    2.5342    0.0000 C   0  0  0  0  0  0  0  0  0  0  0  0
    0.3018    1.0250    0.0000 N   0  0  0  0  0  0  0  0  0  0  0  0
   -0.9416    3.7551    0.0000 C   0  0  0  0  0  0  0  0  0  0  0  0
    1.1731    2.2459    0.0000 C   0  0  0  0  0  0  0  0  0  0  0  0
    0.5514    3.6110    0.0000 C   0  0  0  0  0  0  0  0  0  0  0  0
    2.6662    2.1018    0.0000 C   0  0  0  0  0  0  0  0  0  0  0  0
    3.2879    0.7367    0.0000 N   0  0  0  0  0  0  0  0  0  0  0  0
    3.5375    3.3228    0.0000 O   0  0  0  0  0  0  0  0  0  0  0  0
    4.7810    0.5926    0.0000 C   0  0  0  0  0  0  0  0  0  0  0  0
    5.4027   -0.7725    0.0000 C   0  0  0  0  0  0  0  0  0  0  0  0
    4.5314   -1.9934    0.0000 C   0  0  0  0  0  0  0  0  0  0  0  0
    6.8958   -0.9166    0.0000 C   0  0  0  0  0  0  0  0  0  0  0  0
    5.1531   -3.3585    0.0000 C   0  0  0  0  0  0  0  0  0  0  0  0
    7.5175   -2.2817    0.0000 C   0  0  0  0  0  0  0  0  0  0  0  0
    6.6461   -3.5027    0.0000 C   0  0  0  0  0  0  0  0  0  0  0  0
   -5.9201   -0.9846    0.0000 C   0  0  0  0  0  0  0  0  0  0  0  0
   -6.7914   -2.2056    0.0000 C   0  0  0  0  0  0  0  0  0  0  0  0
   -8.2845   -2.0615    0.0000 C   0  0  0  0  0  0  0  0  0  0  0  0
   -6.1697   -3.5707    0.0000 C   0  0  0  0  0  0  0  0  0  0  0  0
  1  2  1  0
  2  3  2  0
  1  4  1  0
  5  1  1  0
  6  4  1  0
  7  5  1  0
  8  6  1  0
  7  8  2  0
  9  7  1  0
 10  8  1  0
 11  9  2  0
 12 10  2  0
 11 12  1  0
 13 11  1  0
 13 14  1  0
 15 13  2  0
 14 16  1  0
 16 17  1  0
 17 18  2  0
 17 19  1  0
 18 20  1  0
 19 21  2  0
 20 22  2  0
 21 22  1  0
  2 23  1  0
 23 24  1  0
 24 25  1  0
 24 26  1  0
M  END
>  <Rank>  (46) 
46

>  <CR_ID>  (46) 
R-003837

>  <Acid_Name>  (46) 
R-003837

>  <SMILES>  (46) 
CC(C)CC(=O)N1CCc2ccc(C(=O)NCc3ccccc3)nc2C1

>  <MPO_Score>  (46) 
0.8200

>  <MW>  (46) 
351.19

>  <cLogP>  (46) 
2.94 ± 0.40

>  <TPSA>  (46) 
62.3

>  <HBD>  (46) 
1

>  <HBA>  (46) 
3

>  <RotBonds>  (46) 
5

>  <Fsp3>  (46) 
0.381

>  <NumArRings>  (46) 
2

>  <logS_ESOL>  (46) 
-3.88 ± 0.93 log(mol/L)

>  <logS_AD>  (46) 
In

>  <logS_model>  (46) 
ESOL/Delaney-2004 (linear, n=1144, RMSE=0.93 log-units)

>  <logPapp_PAMPA>  (46) 
-5.29 ± 0.80 log(cm/s)

>  <logPapp_class>  (46) 
High

>  <logPapp_AD>  (46) 
In

>  <logPapp_model>  (46) 
Hou-2004 PAMPA linear (RMSE=0.8, n=100)

>  <MetStab_score>  (46) 
1.000 (0-1 scale)

>  <MetStab_t12>  (46) 
High (t½>60 min HLM)

>  <Clearance_route>  (46) 
CYP2D6/3A4 (basic-N + Ar)

>  <Met_alerts>  (46) 
None

>  <MetStab_model>  (46) 
Rule-based HLM classifier (cLogP+Fsp3+Ar-rings+alerts; heuristic ±1 class)

>  <CYP_risk>  (46) 
Low

>  <CYP_alerts>  (46) 
None

>  <CYP2D6_flag>  (46) 
False

>  <CYP3A4_flag>  (46) 
False

>  <CYP2C9_flag>  (46) 
False

>  <CYP_model>  (46) 
SMARTS alert panel (pharmacophore-based; flag only – no IC50 predicted)

>  <PPB_pct>  (46) 
98.1 ± 10 %

>  <PPB_fu>  (46) 
0.0188

>  <PPB_class>  (46) 
Very high (>95%)

>  <PPB_AD>  (46) 
In

>  <PPB_model>  (46) 
Valko-2003 logP-linear (RMSE≈10% PPB, n=87)

>  <hERG_risk>  (46) 
Medium

>  <hERG_model>  (46) 
Structural-alert + cLogP (Redfern-2003 anchor; ±1 class)

>  <des_sol>  (46) 
0.648

>  <des_logp>  (46) 
1.000

>  <des_perm>  (46) 
1.000

>  <des_met>  (46) 
1.000

>  <des_cyp>  (46) 
1.000

>  <des_ppb>  (46) 
0.700

>  <des_herg>  (46) 
0.500

>  <des_mw>  (46) 
0.756

$$$$

     RDKit          2D

 27 30  0  0  0  0  0  0  0  0999 V2000
   -4.1405   -1.1545    0.0000 N   0  0  0  0  0  0  0  0  0  0  0  0
   -5.5551   -0.6556    0.0000 C   0  0  0  0  0  0  0  0  0  0  0  0
   -6.6944   -1.6312    0.0000 O   0  0  0  0  0  0  0  0  0  0  0  0
   -3.8652   -2.6291    0.0000 C   0  0  0  0  0  0  0  0  0  0  0  0
   -3.0011   -0.1789    0.0000 C   0  0  0  0  0  0  0  0  0  0  0  0
   -2.4506   -3.1280    0.0000 C   0  0  0  0  0  0  0  0  0  0  0  0
   -1.5865   -0.6778    0.0000 C   0  0  0  0  0  0  0  0  0  0  0  0
   -1.3113   -2.1523    0.0000 C   0  0  0  0  0  0  0  0  0  0  0  0
   -0.4471    0.2978    0.0000 N   0  0  0  0  0  0  0  0  0  0  0  0
    0.1033   -2.6512    0.0000 C   0  0  0  0  0  0  0  0  0  0  0  0
    0.9675   -0.2011    0.0000 C   0  0  0  0  0  0  0  0  0  0  0  0
    1.2427   -1.6756    0.0000 C   0  0  0  0  0  0  0  0  0  0  0  0
    2.1068    0.7746    0.0000 C   0  0  0  0  0  0  0  0  0  0  0  0
    3.5214    0.2756    0.0000 N   0  0  0  0  0  0  0  0  0  0  0  0
    1.8316    2.2491    0.0000 O   0  0  0  0  0  0  0  0  0  0  0  0
    4.6608    1.2513    0.0000 C   0  0  0  0  0  0  0  0  0  0  0  0
    6.0754    0.7524    0.0000 C   0  0  0  0  0  0  0  0  0  0  0  0
    6.3506   -0.7222    0.0000 C   0  0  0  0  0  0  0  0  0  0  0  0
    7.2148    1.7280    0.0000 C   0  0  0  0  0  0  0  0  0  0  0  0
    7.7652   -1.2211    0.0000 C   0  0  0  0  0  0  0  0  0  0  0  0
    8.6294    1.2291    0.0000 C   0  0  0  0  0  0  0  0  0  0  0  0
    8.9046   -0.2454    0.0000 C   0  0  0  0  0  0  0  0  0  0  0  0
   -5.8303    0.8189    0.0000 C   0  0  0  0  0  0  0  0  0  0  0  0
   -7.1850    1.4630    0.0000 C   0  0  0  0  0  0  0  0  0  0  0  0
   -4.7992    1.9083    0.0000 C   0  0  0  0  0  0  0  0  0  0  0  0
   -6.9911    2.9504    0.0000 C   0  0  0  0  0  0  0  0  0  0  0  0
   -5.5166    3.2256    0.0000 C   0  0  0  0  0  0  0  0  0  0  0  0
  1  2  1  0
  2  3  2  0
  1  4  1  0
  5  1  1  0
  6  4  1  0
  7  5  1  0
  8  6  1  0
  7  8  2  0
  9  7  1  0
 10  8  1  0
 11  9  2  0
 12 10  2  0
 11 12  1  0
 13 11  1  0
 13 14  1  0
 15 13  2  0
 14 16  1  0
 16 17  1  0
 17 18  2  0
 17 19  1  0
 18 20  1  0
 19 21  2  0
 20 22  2  0
 21 22  1  0
  2 23  1  0
 23 24  1  0
 23 25  1  0
 24 26  1  0
 25 27  1  0
 26 27  2  0
M  END
>  <Rank>  (47) 
47

>  <CR_ID>  (47) 
R-008825

>  <Acid_Name>  (47) 
R-008825

>  <SMILES>  (47) 
O=C(NCc1ccccc1)c1ccc2c(n1)CN(C(=O)C1CC=CC1)CC2

>  <MPO_Score>  (47) 
0.8183

>  <MW>  (47) 
361.18

>  <cLogP>  (47) 
2.86 ± 0.40

>  <TPSA>  (47) 
62.3

>  <HBD>  (47) 
1

>  <HBA>  (47) 
3

>  <RotBonds>  (47) 
4

>  <Fsp3>  (47) 
0.318

>  <NumArRings>  (47) 
2

>  <logS_ESOL>  (47) 
-3.95 ± 0.93 log(mol/L)

>  <logS_AD>  (47) 
In

>  <logS_model>  (47) 
ESOL/Delaney-2004 (linear, n=1144, RMSE=0.93 log-units)

>  <logPapp_PAMPA>  (47) 
-5.34 ± 0.80 log(cm/s)

>  <logPapp_class>  (47) 
High

>  <logPapp_AD>  (47) 
In

>  <logPapp_model>  (47) 
Hou-2004 PAMPA linear (RMSE=0.8, n=100)

>  <MetStab_score>  (47) 
1.000 (0-1 scale)

>  <MetStab_t12>  (47) 
High (t½>60 min HLM)

>  <Clearance_route>  (47) 
CYP2D6/3A4 (basic-N + Ar)

>  <Met_alerts>  (47) 
None

>  <MetStab_model>  (47) 
Rule-based HLM classifier (cLogP+Fsp3+Ar-rings+alerts; heuristic ±1 class)

>  <CYP_risk>  (47) 
Low

>  <CYP_alerts>  (47) 
None

>  <CYP2D6_flag>  (47) 
False

>  <CYP3A4_flag>  (47) 
False

>  <CYP2C9_flag>  (47) 
False

>  <CYP_model>  (47) 
SMARTS alert panel (pharmacophore-based; flag only – no IC50 predicted)

>  <PPB_pct>  (47) 
97.9 ± 10 %

>  <PPB_fu>  (47) 
0.0214

>  <PPB_class>  (47) 
Very high (>95%)

>  <PPB_AD>  (47) 
In

>  <PPB_model>  (47) 
Valko-2003 logP-linear (RMSE≈10% PPB, n=87)

>  <hERG_risk>  (47) 
Medium

>  <hERG_model>  (47) 
Structural-alert + cLogP (Redfern-2003 anchor; ±1 class)

>  <des_sol>  (47) 
0.620

>  <des_logp>  (47) 
1.000

>  <des_perm>  (47) 
1.000

>  <des_met>  (47) 
1.000

>  <des_cyp>  (47) 
1.000

>  <des_ppb>  (47) 
0.700

>  <des_herg>  (47) 
0.500

>  <des_mw>  (47) 
0.806

$$$$

     RDKit          2D

 28 30  0  0  0  0  0  0  0  0999 V2000
   -2.8228    0.3197    0.0000 N   0  0  0  0  0  0  0  0  0  0  0  0
   -3.7531   -0.8569    0.0000 C   0  0  0  0  0  0  0  0  0  0  0  0
   -3.1993   -2.2509    0.0000 O   0  0  0  0  0  0  0  0  0  0  0  0
   -3.3766    1.7137    0.0000 C   0  0  0  0  0  0  0  0  0  0  0  0
   -1.3386    0.1023    0.0000 C   0  0  0  0  0  0  0  0  0  0  0  0
   -2.4462    2.8904    0.0000 C   0  0  0  0  0  0  0  0  0  0  0  0
   -0.4082    1.2789    0.0000 C   0  0  0  0  0  0  0  0  0  0  0  0
   -0.9620    2.6729    0.0000 C   0  0  0  0  0  0  0  0  0  0  0  0
    1.0759    1.0615    0.0000 N   0  0  0  0  0  0  0  0  0  0  0  0
   -0.0317    3.8496    0.0000 C   0  0  0  0  0  0  0  0  0  0  0  0
    2.0063    2.2381    0.0000 C   0  0  0  0  0  0  0  0  0  0  0  0
    1.4525    3.6322    0.0000 C   0  0  0  0  0  0  0  0  0  0  0  0
    3.4905    2.0207    0.0000 C   0  0  0  0  0  0  0  0  0  0  0  0
    4.0443    0.6267    0.0000 N   0  0  0  0  0  0  0  0  0  0  0  0
    4.4208    3.1973    0.0000 O   0  0  0  0  0  0  0  0  0  0  0  0
    5.5284    0.4093    0.0000 C   0  0  0  0  0  0  0  0  0  0  0  0
    6.0822   -0.9847    0.0000 C   0  0  0  0  0  0  0  0  0  0  0  0
    5.1518   -2.1614    0.0000 C   0  0  0  0  0  0  0  0  0  0  0  0
    7.5664   -1.2021    0.0000 C   0  0  0  0  0  0  0  0  0  0  0  0
    5.7056   -3.5554    0.0000 C   0  0  0  0  0  0  0  0  0  0  0  0
    8.1202   -2.5962    0.0000 C   0  0  0  0  0  0  0  0  0  0  0  0
    7.1898   -3.7728    0.0000 C   0  0  0  0  0  0  0  0  0  0  0  0
   -5.2373   -0.6395    0.0000 C   0  0  0  0  0  0  0  0  0  0  0  0
   -6.1676   -1.8161    0.0000 O   0  0  0  0  0  0  0  0  0  0  0  0
   -7.6518   -1.5987    0.0000 C   0  0  0  0  0  0  0  0  0  0  0  0
   -7.8692   -3.0829    0.0000 C   0  0  0  0  0  0  0  0  0  0  0  0
   -7.4344   -0.1145    0.0000 C   0  0  0  0  0  0  0  0  0  0  0  0
   -9.1360   -1.3813    0.0000 C   0  0  0  0  0  0  0  0  0  0  0  0
  1  2  1  0
  2  3  2  0
  1  4  1  0
  5  1  1  0
  6  4  1  0
  7  5  1  0
  8  6  1  0
  7  8  2  0
  9  7  1  0
 10  8  1  0
 11  9  2  0
 12 10  2  0
 11 12  1  0
 13 11  1  0
 13 14  1  0
 15 13  2  0
 14 16  1  0
 16 17  1  0
 17 18  2  0
 17 19  1  0
 18 20  1  0
 19 21  2  0
 20 22  2  0
 21 22  1  0
  2 23  1  0
 23 24  1  0
 24 25  1  0
 25 26  1  0
 25 27  1  0
 25 28  1  0
M  END
>  <Rank>  (48) 
48

>  <CR_ID>  (48) 
R-009196

>  <Acid_Name>  (48) 
R-009196

>  <SMILES>  (48) 
CC(C)(C)OCC(=O)N1CCc2ccc(C(=O)NCc3ccccc3)nc2C1

>  <MPO_Score>  (48) 
0.8183

>  <MW>  (48) 
381.21

>  <cLogP>  (48) 
2.71 ± 0.40

>  <TPSA>  (48) 
71.5

>  <HBD>  (48) 
1

>  <HBA>  (48) 
4

>  <RotBonds>  (48) 
5

>  <Fsp3>  (48) 
0.409

>  <NumArRings>  (48) 
2

>  <logS_ESOL>  (48) 
-3.90 ± 0.93 log(mol/L)

>  <logS_AD>  (48) 
In

>  <logS_model>  (48) 
ESOL/Delaney-2004 (linear, n=1144, RMSE=0.93 log-units)

>  <logPapp_PAMPA>  (48) 
-5.58 ± 0.80 log(cm/s)

>  <logPapp_class>  (48) 
Medium

>  <logPapp_AD>  (48) 
In

>  <logPapp_model>  (48) 
Hou-2004 PAMPA linear (RMSE=0.8, n=100)

>  <MetStab_score>  (48) 
1.000 (0-1 scale)

>  <MetStab_t12>  (48) 
High (t½>60 min HLM)

>  <Clearance_route>  (48) 
CYP2D6/3A4 (basic-N + Ar)

>  <Met_alerts>  (48) 
None

>  <MetStab_model>  (48) 
Rule-based HLM classifier (cLogP+Fsp3+Ar-rings+alerts; heuristic ±1 class)

>  <CYP_risk>  (48) 
Low

>  <CYP_alerts>  (48) 
None

>  <CYP2D6_flag>  (48) 
False

>  <CYP3A4_flag>  (48) 
False

>  <CYP2C9_flag>  (48) 
False

>  <CYP_model>  (48) 
SMARTS alert panel (pharmacophore-based; flag only – no IC50 predicted)

>  <PPB_pct>  (48) 
97.3 ± 10 %

>  <PPB_fu>  (48) 
0.0273

>  <PPB_class>  (48) 
Very high (>95%)

>  <PPB_AD>  (48) 
In

>  <PPB_model>  (48) 
Valko-2003 logP-linear (RMSE≈10% PPB, n=87)

>  <hERG_risk>  (48) 
Medium

>  <hERG_model>  (48) 
Structural-alert + cLogP (Redfern-2003 anchor; ±1 class)

>  <des_sol>  (48) 
0.640

>  <des_logp>  (48) 
1.000

>  <des_perm>  (48) 
0.947

>  <des_met>  (48) 
1.000

>  <des_cyp>  (48) 
1.000

>  <des_ppb>  (48) 
0.700

>  <des_herg>  (48) 
0.500

>  <des_mw>  (48) 
0.906

$$$$

     RDKit          2D

 29 32  0  0  0  0  0  0  0  0999 V2000
   -3.1445   -1.3240    0.0000 N   0  0  0  0  0  0  0  0  0  0  0  0
   -4.5773   -0.8803    0.0000 C   0  0  0  0  0  0  0  0  0  0  0  0
   -5.6780   -1.8993    0.0000 O   0  0  0  0  0  0  0  0  0  0  0  0
   -2.8123   -2.7868    0.0000 C   0  0  0  0  0  0  0  0  0  0  0  0
   -2.0437   -0.3050    0.0000 C   0  0  0  0  0  0  0  0  0  0  0  0
   -1.3794   -3.2305    0.0000 C   0  0  0  0  0  0  0  0  0  0  0  0
   -0.6109   -0.7487    0.0000 C   0  0  0  0  0  0  0  0  0  0  0  0
   -0.2787   -2.2114    0.0000 C   0  0  0  0  0  0  0  0  0  0  0  0
    0.4898    0.2704    0.0000 N   0  0  0  0  0  0  0  0  0  0  0  0
    1.1541   -2.6552    0.0000 C   0  0  0  0  0  0  0  0  0  0  0  0
    1.9227   -0.1734    0.0000 C   0  0  0  0  0  0  0  0  0  0  0  0
    2.2549   -1.6361    0.0000 C   0  0  0  0  0  0  0  0  0  0  0  0
    3.0234    0.8457    0.0000 C   0  0  0  0  0  0  0  0  0  0  0  0
    4.4563    0.4019    0.0000 N   0  0  0  0  0  0  0  0  0  0  0  0
    2.6912    2.3084    0.0000 O   0  0  0  0  0  0  0  0  0  0  0  0
    5.5570    1.4210    0.0000 C   0  0  0  0  0  0  0  0  0  0  0  0
    6.9898    0.9773    0.0000 C   0  0  0  0  0  0  0  0  0  0  0  0
    7.3220   -0.4855    0.0000 C   0  0  0  0  0  0  0  0  0  0  0  0
    8.0906    1.9963    0.0000 C   0  0  0  0  0  0  0  0  0  0  0  0
    8.7549   -0.9292    0.0000 C   0  0  0  0  0  0  0  0  0  0  0  0
    9.5234    1.5526    0.0000 C   0  0  0  0  0  0  0  0  0  0  0  0
    9.8556    0.0898    0.0000 C   0  0  0  0  0  0  0  0  0  0  0  0
   -4.9095    0.5825    0.0000 C   0  0  0  0  0  0  0  0  0  0  0  0
   -6.3424    1.0262    0.0000 C   0  0  0  0  0  0  0  0  0  0  0  0
   -6.6745    2.4890    0.0000 C   0  0  0  0  0  0  0  0  0  0  0  0
   -7.4431    0.0072    0.0000 C   0  0  0  0  0  0  0  0  0  0  0  0
   -8.1074    2.9327    0.0000 C   0  0  0  0  0  0  0  0  0  0  0  0
   -8.8759    0.4509    0.0000 C   0  0  0  0  0  0  0  0  0  0  0  0
   -9.2081    1.9136    0.0000 O   0  0  0  0  0  0  0  0  0  0  0  0
  1  2  1  0
  2  3  2  0
  1  4  1  0
  5  1  1  0
  6  4  1  0
  7  5  1  0
  8  6  1  0
  7  8  2  0
  9  7  1  0
 10  8  1  0
 11  9  2  0
 12 10  2  0
 11 12  1  0
 13 11  1  0
 13 14  1  0
 15 13  2  0
 14 16  1  0
 16 17  1  0
 17 18  2  0
 17 19  1  0
 18 20  1  0
 19 21  2  0
 20 22  2  0
 21 22  1  0
  2 23  1  0
 23 24  1  0
 24 25  1  0
 24 26  1  0
 25 27  1  0
 26 28  1  0
 27 29  1  0
 28 29  1  0
M  END
>  <Rank>  (49) 
49

>  <CR_ID>  (49) 
R-010363

>  <Acid_Name>  (49) 
R-010363

>  <SMILES>  (49) 
O=C(NCc1ccccc1)c1ccc2c(n1)CN(C(=O)CC1CCOCC1)CC2

>  <MPO_Score>  (49) 
0.8167

>  <MW>  (49) 
393.21

>  <cLogP>  (49) 
2.71 ± 0.40

>  <TPSA>  (49) 
71.5

>  <HBD>  (49) 
1

>  <HBA>  (49) 
4

>  <RotBonds>  (49) 
5

>  <Fsp3>  (49) 
0.435

>  <NumArRings>  (49) 
2

>  <logS_ESOL>  (49) 
-3.96 ± 0.93 log(mol/L)

>  <logS_AD>  (49) 
In

>  <logS_model>  (49) 
ESOL/Delaney-2004 (linear, n=1144, RMSE=0.93 log-units)

>  <logPapp_PAMPA>  (49) 
-5.59 ± 0.80 log(cm/s)

>  <logPapp_class>  (49) 
Medium

>  <logPapp_AD>  (49) 
In

>  <logPapp_model>  (49) 
Hou-2004 PAMPA linear (RMSE=0.8, n=100)

>  <MetStab_score>  (49) 
1.000 (0-1 scale)

>  <MetStab_t12>  (49) 
High (t½>60 min HLM)

>  <Clearance_route>  (49) 
CYP2D6/3A4 (basic-N + Ar)

>  <Met_alerts>  (49) 
None

>  <MetStab_model>  (49) 
Rule-based HLM classifier (cLogP+Fsp3+Ar-rings+alerts; heuristic ±1 class)

>  <CYP_risk>  (49) 
Low

>  <CYP_alerts>  (49) 
None

>  <CYP2D6_flag>  (49) 
False

>  <CYP3A4_flag>  (49) 
False

>  <CYP2C9_flag>  (49) 
False

>  <CYP_model>  (49) 
SMARTS alert panel (pharmacophore-based; flag only – no IC50 predicted)

>  <PPB_pct>  (49) 
97.3 ± 10 %

>  <PPB_fu>  (49) 
0.0272

>  <PPB_class>  (49) 
Very high (>95%)

>  <PPB_AD>  (49) 
In

>  <PPB_model>  (49) 
Valko-2003 logP-linear (RMSE≈10% PPB, n=87)

>  <hERG_risk>  (49) 
Medium

>  <hERG_model>  (49) 
Structural-alert + cLogP (Redfern-2003 anchor; ±1 class)

>  <des_sol>  (49) 
0.616

>  <des_logp>  (49) 
1.000

>  <des_perm>  (49) 
0.940

>  <des_met>  (49) 
1.000

>  <des_cyp>  (49) 
1.000

>  <des_ppb>  (49) 
0.700

>  <des_herg>  (49) 
0.500

>  <des_mw>  (49) 
0.966

$$$$

     RDKit          2D

 28 31  0  0  0  0  0  0  0  0999 V2000
   -3.8451   -0.9260    0.0000 N   0  0  0  0  0  0  0  0  0  0  0  0
   -5.2457   -0.3892    0.0000 C   0  0  0  0  0  0  0  0  0  0  0  0
   -6.4110   -1.3337    0.0000 O   0  0  0  0  0  0  0  0  0  0  0  0
   -3.6097   -2.4074    0.0000 C   0  0  0  0  0  0  0  0  0  0  0  0
   -2.6798    0.0186    0.0000 C   0  0  0  0  0  0  0  0  0  0  0  0
   -2.2090   -2.9443    0.0000 C   0  0  0  0  0  0  0  0  0  0  0  0
   -1.2792   -0.5183    0.0000 C   0  0  0  0  0  0  0  0  0  0  0  0
   -1.0438   -1.9997    0.0000 C   0  0  0  0  0  0  0  0  0  0  0  0
   -0.1139    0.4263    0.0000 N   0  0  0  0  0  0  0  0  0  0  0  0
    0.3569   -2.5366    0.0000 C   0  0  0  0  0  0  0  0  0  0  0  0
    1.2867   -0.1106    0.0000 C   0  0  0  0  0  0  0  0  0  0  0  0
    1.5221   -1.5920    0.0000 C   0  0  0  0  0  0  0  0  0  0  0  0
    2.4520    0.8340    0.0000 C   0  0  0  0  0  0  0  0  0  0  0  0
    3.8526    0.2971    0.0000 N   0  0  0  0  0  0  0  0  0  0  0  0
    2.2166    2.3154    0.0000 O   0  0  0  0  0  0  0  0  0  0  0  0
    5.0178    1.2417    0.0000 C   0  0  0  0  0  0  0  0  0  0  0  0
    6.4185    0.7048    0.0000 C   0  0  0  0  0  0  0  0  0  0  0  0
    6.6539   -0.7766    0.0000 C   0  0  0  0  0  0  0  0  0  0  0  0
    7.5837    1.6494    0.0000 C   0  0  0  0  0  0  0  0  0  0  0  0
    8.0545   -1.3134    0.0000 C   0  0  0  0  0  0  0  0  0  0  0  0
    8.9844    1.1125    0.0000 C   0  0  0  0  0  0  0  0  0  0  0  0
    9.2198   -0.3689    0.0000 C   0  0  0  0  0  0  0  0  0  0  0  0
   -5.4811    1.0923    0.0000 C   0  0  0  0  0  0  0  0  0  0  0  0
   -6.9809    1.1177    0.0000 C   0  0  0  0  0  0  0  0  0  0  0  0
   -5.1956    2.5648    0.0000 C   0  0  0  0  0  0  0  0  0  0  0  0
   -4.0631    1.5813    0.0000 C   0  0  0  0  0  0  0  0  0  0  0  0
   -7.7087    2.4293    0.0000 O   0  0  0  0  0  0  0  0  0  0  0  0
   -7.7528   -0.1684    0.0000 N   0  0  0  0  0  0  0  0  0  0  0  0
  1  2  1  0
  2  3  2  0
  1  4  1  0
  5  1  1  0
  6  4  1  0
  7  5  1  0
  8  6  1  0
  7  8  2  0
  9  7  1  0
 10  8  1  0
 11  9  2  0
 12 10  2  0
 11 12  1  0
 13 11  1  0
 13 14  1  0
 15 13  2  0
 14 16  1  0
 16 17  1  0
 17 18  2  0
 17 19  1  0
 18 20  1  0
 19 21  2  0
 20 22  2  0
 21 22  1  0
  2 23  1  0
 23 24  1  0
 23 25  1  0
 23 26  1  0
 24 27  2  0
 24 28  1  0
 25 26  1  0
M  END
>  <Rank>  (50) 
50

>  <CR_ID>  (50) 
R-005132

>  <Acid_Name>  (50) 
R-005132

>  <SMILES>  (50) 
NC(=O)C1(C(=O)N2CCc3ccc(C(=O)NCc4ccccc4)nc3C2)CC1

>  <MPO_Score>  (50) 
0.8146

>  <MW>  (50) 
378.17

>  <cLogP>  (50) 
1.16 ± 0.40

>  <TPSA>  (50) 
105.4

>  <HBD>  (50) 
2

>  <HBA>  (50) 
4

>  <RotBonds>  (50) 
5

>  <Fsp3>  (50) 
0.333

>  <NumArRings>  (50) 
2

>  <logS_ESOL>  (50) 
-2.90 ± 0.93 log(mol/L)

>  <logS_AD>  (50) 
In

>  <logS_model>  (50) 
ESOL/Delaney-2004 (linear, n=1144, RMSE=0.93 log-units)

>  <logPapp_PAMPA>  (50) 
-6.88 ± 0.80 log(cm/s)

>  <logPapp_class>  (50) 
Medium

>  <logPapp_AD>  (50) 
In

>  <logPapp_model>  (50) 
Hou-2004 PAMPA linear (RMSE=0.8, n=100)

>  <MetStab_score>  (50) 
1.000 (0-1 scale)

>  <MetStab_t12>  (50) 
High (t½>60 min HLM)

>  <Clearance_route>  (50) 
CYP2D6/3A4 (basic-N + Ar)

>  <Met_alerts>  (50) 
None

>  <MetStab_model>  (50) 
Rule-based HLM classifier (cLogP+Fsp3+Ar-rings+alerts; heuristic ±1 class)

>  <CYP_risk>  (50) 
Low

>  <CYP_alerts>  (50) 
None

>  <CYP2D6_flag>  (50) 
False

>  <CYP3A4_flag>  (50) 
False

>  <CYP2C9_flag>  (50) 
False

>  <CYP_model>  (50) 
SMARTS alert panel (pharmacophore-based; flag only – no IC50 predicted)

>  <PPB_pct>  (50) 
73.2 ± 10 %

>  <PPB_fu>  (50) 
0.2679

>  <PPB_class>  (50) 
Low (<80%)

>  <PPB_AD>  (50) 
In

>  <PPB_model>  (50) 
Valko-2003 logP-linear (RMSE≈10% PPB, n=87)

>  <hERG_risk>  (50) 
Low

>  <hERG_model>  (50) 
Structural-alert + cLogP (Redfern-2003 anchor; ±1 class)

>  <des_sol>  (50) 
1.000

>  <des_logp>  (50) 
0.581

>  <des_perm>  (50) 
0.080

>  <des_met>  (50) 
1.000

>  <des_cyp>  (50) 
1.000

>  <des_ppb>  (50) 
1.000

>  <des_herg>  (50) 
1.000

>  <des_mw>  (50) 
0.891

$$$$

     RDKit          2D

 24 26  0  0  0  0  0  0  0  0999 V2000
   -4.1056   -0.6730    0.0000 N   0  0  0  0  0  0  0  0  0  0  0  0
   -4.8136   -1.9954    0.0000 C   0  0  0  0  0  0  0  0  0  0  0  0
   -4.0224   -3.2697    0.0000 O   0  0  0  0  0  0  0  0  0  0  0  0
   -4.8968    0.6014    0.0000 C   0  0  0  0  0  0  0  0  0  0  0  0
   -2.6063   -0.6250    0.0000 C   0  0  0  0  0  0  0  0  0  0  0  0
   -4.1887    1.9238    0.0000 C   0  0  0  0  0  0  0  0  0  0  0  0
   -1.8983    0.6974    0.0000 C   0  0  0  0  0  0  0  0  0  0  0  0
   -2.6895    1.9718    0.0000 C   0  0  0  0  0  0  0  0  0  0  0  0
   -0.3991    0.7454    0.0000 N   0  0  0  0  0  0  0  0  0  0  0  0
   -1.9814    3.2941    0.0000 C   0  0  0  0  0  0  0  0  0  0  0  0
    0.3090    2.0678    0.0000 C   0  0  0  0  0  0  0  0  0  0  0  0
   -0.4822    3.3421    0.0000 C   0  0  0  0  0  0  0  0  0  0  0  0
    1.8082    2.1158    0.0000 C   0  0  0  0  0  0  0  0  0  0  0  0
    2.5994    0.8414    0.0000 N   0  0  0  0  0  0  0  0  0  0  0  0
    2.5163    3.4381    0.0000 O   0  0  0  0  0  0  0  0  0  0  0  0
    4.0986    0.8894    0.0000 C   0  0  0  0  0  0  0  0  0  0  0  0
    4.8898   -0.3850    0.0000 C   0  0  0  0  0  0  0  0  0  0  0  0
    4.1818   -1.7074    0.0000 C   0  0  0  0  0  0  0  0  0  0  0  0
    6.3891   -0.3370    0.0000 C   0  0  0  0  0  0  0  0  0  0  0  0
    4.9730   -2.9817    0.0000 C   0  0  0  0  0  0  0  0  0  0  0  0
    7.1802   -1.6114    0.0000 C   0  0  0  0  0  0  0  0  0  0  0  0
    6.4722   -2.9337    0.0000 C   0  0  0  0  0  0  0  0  0  0  0  0
   -6.3128   -2.0434    0.0000 C   0  0  0  0  0  0  0  0  0  0  0  0
   -7.0209   -3.3657    0.0000 O   0  0  0  0  0  0  0  0  0  0  0  0
  1  2  1  0
  2  3  2  0
  1  4  1  0
  5  1  1  0
  6  4  1  0
  7  5  1  0
  8  6  1  0
  7  8  2  0
  9  7  1  0
 10  8  1  0
 11  9  2  0
 12 10  2  0
 11 12  1  0
 13 11  1  0
 13 14  1  0
 15 13  2  0
 14 16  1  0
 16 17  1  0
 17 18  2  0
 17 19  1  0
 18 20  1  0
 19 21  2  0
 20 22  2  0
 21 22  1  0
  2 23  1  0
 23 24  1  0
M  END
>  <Rank>  (51) 
51

>  <CR_ID>  (51) 
R-004774

>  <Acid_Name>  (51) 
R-004774

>  <SMILES>  (51) 
O=C(NCc1ccccc1)c1ccc2c(n1)CN(C(=O)CO)CC2

>  <MPO_Score>  (51) 
0.8137

>  <MW>  (51) 
325.14

>  <cLogP>  (51) 
0.89 ± 0.40

>  <TPSA>  (51) 
82.5

>  <HBD>  (51) 
2

>  <HBA>  (51) 
4

>  <RotBonds>  (51) 
4

>  <Fsp3>  (51) 
0.278

>  <NumArRings>  (51) 
2

>  <logS_ESOL>  (51) 
-2.52 ± 0.93 log(mol/L)

>  <logS_AD>  (51) 
In

>  <logS_model>  (51) 
ESOL/Delaney-2004 (linear, n=1144, RMSE=0.93 log-units)

>  <logPapp_PAMPA>  (51) 
-6.62 ± 0.80 log(cm/s)

>  <logPapp_class>  (51) 
Medium

>  <logPapp_AD>  (51) 
In

>  <logPapp_model>  (51) 
Hou-2004 PAMPA linear (RMSE=0.8, n=100)

>  <MetStab_score>  (51) 
1.000 (0-1 scale)

>  <MetStab_t12>  (51) 
High (t½>60 min HLM)

>  <Clearance_route>  (51) 
CYP2D6/3A4 (basic-N + Ar)

>  <Met_alerts>  (51) 
None

>  <MetStab_model>  (51) 
Rule-based HLM classifier (cLogP+Fsp3+Ar-rings+alerts; heuristic ±1 class)

>  <CYP_risk>  (51) 
Low

>  <CYP_alerts>  (51) 
None

>  <CYP2D6_flag>  (51) 
False

>  <CYP3A4_flag>  (51) 
False

>  <CYP2C9_flag>  (51) 
False

>  <CYP_model>  (51) 
SMARTS alert panel (pharmacophore-based; flag only – no IC50 predicted)

>  <PPB_pct>  (51) 
63.5 ± 10 %

>  <PPB_fu>  (51) 
0.3654

>  <PPB_class>  (51) 
Low (<80%)

>  <PPB_AD>  (51) 
In

>  <PPB_model>  (51) 
Valko-2003 logP-linear (RMSE≈10% PPB, n=87)

>  <hERG_risk>  (51) 
Low

>  <hERG_model>  (51) 
Structural-alert + cLogP (Redfern-2003 anchor; ±1 class)

>  <des_sol>  (51) 
1.000

>  <des_logp>  (51) 
0.444

>  <des_perm>  (51) 
0.253

>  <des_met>  (51) 
1.000

>  <des_cyp>  (51) 
1.000

>  <des_ppb>  (51) 
1.000

>  <des_herg>  (51) 
1.000

>  <des_mw>  (51) 
0.626

$$$$

     RDKit          2D

 28 31  0  0  0  0  0  0  0  0999 V2000
   -3.8365   -1.5170    0.0000 N   0  0  0  0  0  0  0  0  0  0  0  0
   -5.2733   -1.0862    0.0000 C   0  0  0  0  0  0  0  0  0  0  0  0
   -6.3648   -2.1151    0.0000 O   0  0  0  0  0  0  0  0  0  0  0  0
   -3.4912   -2.9767    0.0000 C   0  0  0  0  0  0  0  0  0  0  0  0
   -2.7450   -0.4881    0.0000 C   0  0  0  0  0  0  0  0  0  0  0  0
   -2.0544   -3.4076    0.0000 C   0  0  0  0  0  0  0  0  0  0  0  0
   -1.3082   -0.9189    0.0000 C   0  0  0  0  0  0  0  0  0  0  0  0
   -0.9629   -2.3786    0.0000 C   0  0  0  0  0  0  0  0  0  0  0  0
   -0.2167    0.1100    0.0000 N   0  0  0  0  0  0  0  0  0  0  0  0
    0.4739   -2.8095    0.0000 C   0  0  0  0  0  0  0  0  0  0  0  0
    1.2201   -0.3208    0.0000 C   0  0  0  0  0  0  0  0  0  0  0  0
    1.5654   -1.7805    0.0000 C   0  0  0  0  0  0  0  0  0  0  0  0
    2.3116    0.7081    0.0000 C   0  0  0  0  0  0  0  0  0  0  0  0
    3.7484    0.2773    0.0000 N   0  0  0  0  0  0  0  0  0  0  0  0
    1.9663    2.1678    0.0000 O   0  0  0  0  0  0  0  0  0  0  0  0
    4.8399    1.3062    0.0000 C   0  0  0  0  0  0  0  0  0  0  0  0
    6.2767    0.8754    0.0000 C   0  0  0  0  0  0  0  0  0  0  0  0
    6.6220   -0.5843    0.0000 C   0  0  0  0  0  0  0  0  0  0  0  0
    7.3682    1.9043    0.0000 C   0  0  0  0  0  0  0  0  0  0  0  0
    8.0588   -1.0151    0.0000 C   0  0  0  0  0  0  0  0  0  0  0  0
    8.8050    1.4735    0.0000 C   0  0  0  0  0  0  0  0  0  0  0  0
    9.1503    0.0138    0.0000 C   0  0  0  0  0  0  0  0  0  0  0  0
   -5.6186    0.3735    0.0000 C   0  0  0  0  0  0  0  0  0  0  0  0
   -4.8306    1.6498    0.0000 C   0  0  0  0  0  0  0  0  0  0  0  0
   -6.8950    1.1615    0.0000 C   0  0  0  0  0  0  0  0  0  0  0  0
   -6.1070    2.4378    0.0000 C   0  0  0  0  0  0  0  0  0  0  0  0
   -7.3833    3.2258    0.0000 F   0  0  0  0  0  0  0  0  0  0  0  0
   -5.3190    3.7142    0.0000 F   0  0  0  0  0  0  0  0  0  0  0  0
  1  2  1  0
  2  3  2  0
  1  4  1  0
  5  1  1  0
  6  4  1  0
  7  5  1  0
  8  6  1  0
  7  8  2  0
  9  7  1  0
 10  8  1  0
 11  9  2  0
 12 10  2  0
 11 12  1  0
 13 11  1  0
 13 14  1  0
 15 13  2  0
 14 16  1  0
 16 17  1  0
 17 18  2  0
 17 19  1  0
 18 20  1  0
 19 21  2  0
 20 22  2  0
 21 22  1  0
 23  2  1  0
 24 23  1  0
 25 23  1  0
 26 24  1  0
 26 25  1  0
 27 26  1  0
 26 28  1  0
M  END
>  <Rank>  (52) 
52

>  <CR_ID>  (52) 
R-011949

>  <Acid_Name>  (52) 
R-011949

>  <SMILES>  (52) 
O=C(NCc1ccccc1)c1ccc2c(n1)CN(C(=O)C1CC(F)(F)C1)CC2

>  <MPO_Score>  (52) 
0.8135

>  <MW>  (52) 
385.16

>  <cLogP>  (52) 
2.94 ± 0.40

>  <TPSA>  (52) 
62.3

>  <HBD>  (52) 
1

>  <HBA>  (52) 
3

>  <RotBonds>  (52) 
4

>  <Fsp3>  (52) 
0.381

>  <NumArRings>  (52) 
2

>  <logS_ESOL>  (52) 
-4.13 ± 0.93 log(mol/L)

>  <logS_AD>  (52) 
In

>  <logS_model>  (52) 
ESOL/Delaney-2004 (linear, n=1144, RMSE=0.93 log-units)

>  <logPapp_PAMPA>  (52) 
-5.32 ± 0.80 log(cm/s)

>  <logPapp_class>  (52) 
High

>  <logPapp_AD>  (52) 
In

>  <logPapp_model>  (52) 
Hou-2004 PAMPA linear (RMSE=0.8, n=100)

>  <MetStab_score>  (52) 
1.000 (0-1 scale)

>  <MetStab_t12>  (52) 
High (t½>60 min HLM)

>  <Clearance_route>  (52) 
CYP2D6/3A4 (basic-N + Ar)

>  <Met_alerts>  (52) 
None

>  <MetStab_model>  (52) 
Rule-based HLM classifier (cLogP+Fsp3+Ar-rings+alerts; heuristic ±1 class)

>  <CYP_risk>  (52) 
Low

>  <CYP_alerts>  (52) 
None

>  <CYP2D6_flag>  (52) 
False

>  <CYP3A4_flag>  (52) 
False

>  <CYP2C9_flag>  (52) 
False

>  <CYP_model>  (52) 
SMARTS alert panel (pharmacophore-based; flag only – no IC50 predicted)

>  <PPB_pct>  (52) 
98.1 ± 10 %

>  <PPB_fu>  (52) 
0.0188

>  <PPB_class>  (52) 
Very high (>95%)

>  <PPB_AD>  (52) 
In

>  <PPB_model>  (52) 
Valko-2003 logP-linear (RMSE≈10% PPB, n=87)

>  <hERG_risk>  (52) 
Medium

>  <hERG_model>  (52) 
Structural-alert + cLogP (Redfern-2003 anchor; ±1 class)

>  <des_sol>  (52) 
0.548

>  <des_logp>  (52) 
1.000

>  <des_perm>  (52) 
1.000

>  <des_met>  (52) 
1.000

>  <des_cyp>  (52) 
1.000

>  <des_ppb>  (52) 
0.700

>  <des_herg>  (52) 
0.500

>  <des_mw>  (52) 
0.926

$$$$

     RDKit          2D

 28 31  0  0  0  0  0  0  0  0999 V2000
   -3.8263   -1.2148    0.0000 N   0  0  0  0  0  0  0  0  0  0  0  0
   -5.2452   -0.7283    0.0000 C   0  0  0  0  0  0  0  0  0  0  0  0
   -6.3760   -1.7139    0.0000 O   0  0  0  0  0  0  0  0  0  0  0  0
   -3.5381   -2.6869    0.0000 C   0  0  0  0  0  0  0  0  0  0  0  0
   -2.6955   -0.2292    0.0000 C   0  0  0  0  0  0  0  0  0  0  0  0
   -2.1192   -3.1733    0.0000 C   0  0  0  0  0  0  0  0  0  0  0  0
   -1.2766   -0.7157    0.0000 C   0  0  0  0  0  0  0  0  0  0  0  0
   -0.9884   -2.1877    0.0000 C   0  0  0  0  0  0  0  0  0  0  0  0
   -0.1459    0.2699    0.0000 N   0  0  0  0  0  0  0  0  0  0  0  0
    0.4305   -2.6742    0.0000 C   0  0  0  0  0  0  0  0  0  0  0  0
    1.2731   -0.2165    0.0000 C   0  0  0  0  0  0  0  0  0  0  0  0
    1.5612   -1.6886    0.0000 C   0  0  0  0  0  0  0  0  0  0  0  0
    2.4038    0.7691    0.0000 C   0  0  0  0  0  0  0  0  0  0  0  0
    3.8227    0.2826    0.0000 N   0  0  0  0  0  0  0  0  0  0  0  0
    2.1156    2.2411    0.0000 O   0  0  0  0  0  0  0  0  0  0  0  0
    4.9535    1.2682    0.0000 C   0  0  0  0  0  0  0  0  0  0  0  0
    6.3724    0.7817    0.0000 C   0  0  0  0  0  0  0  0  0  0  0  0
    6.6606   -0.6903    0.0000 C   0  0  0  0  0  0  0  0  0  0  0  0
    7.5032    1.7673    0.0000 C   0  0  0  0  0  0  0  0  0  0  0  0
    8.0795   -1.1768    0.0000 C   0  0  0  0  0  0  0  0  0  0  0  0
    8.9221    1.2809    0.0000 C   0  0  0  0  0  0  0  0  0  0  0  0
    9.2103   -0.1912    0.0000 C   0  0  0  0  0  0  0  0  0  0  0  0
   -5.5334    0.7437    0.0000 C   0  0  0  0  0  0  0  0  0  0  0  0
   -6.8937    1.3758    0.0000 N   0  0  0  0  0  0  0  0  0  0  0  0
   -4.5119    1.8421    0.0000 C   0  0  0  0  0  0  0  0  0  0  0  0
   -6.7129    2.8649    0.0000 C   0  0  0  0  0  0  0  0  0  0  0  0
   -8.2047    0.6469    0.0000 C   0  0  0  0  0  0  0  0  0  0  0  0
   -5.2408    3.1531    0.0000 C   0  0  0  0  0  0  0  0  0  0  0  0
  1  2  1  0
  2  3  2  0
  1  4  1  0
  5  1  1  0
  6  4  1  0
  7  5  1  0
  8  6  1  0
  7  8  2  0
  9  7  1  0
 10  8  1  0
 11  9  2  0
 12 10  2  0
 11 12  1  0
 13 11  1  0
 13 14  1  0
 15 13  2  0
 14 16  1  0
 16 17  1  0
 17 18  2  0
 17 19  1  0
 18 20  1  0
 19 21  2  0
 20 22  2  0
 21 22  1  0
  2 23  1  0
 23 24  1  0
 23 25  2  0
 24 26  1  0
 24 27  1  0
 25 28  1  0
 26 28  2  0
M  END
>  <Rank>  (53) 
53

>  <CR_ID>  (53) 
R-005803

>  <Acid_Name>  (53) 
R-005803

>  <SMILES>  (53) 
Cn1cccc1C(=O)N1CCc2ccc(C(=O)NCc3ccccc3)nc2C1

>  <MPO_Score>  (53) 
0.8125

>  <MW>  (53) 
374.17

>  <cLogP>  (53) 
2.55 ± 0.40

>  <TPSA>  (53) 
67.2

>  <HBD>  (53) 
1

>  <HBA>  (53) 
4

>  <RotBonds>  (53) 
4

>  <Fsp3>  (53) 
0.227

>  <NumArRings>  (53) 
3

>  <logS_ESOL>  (53) 
-3.95 ± 0.93 log(mol/L)

>  <logS_AD>  (53) 
In

>  <logS_model>  (53) 
ESOL/Delaney-2004 (linear, n=1144, RMSE=0.93 log-units)

>  <logPapp_PAMPA>  (53) 
-5.59 ± 0.80 log(cm/s)

>  <logPapp_class>  (53) 
Medium

>  <logPapp_AD>  (53) 
In

>  <logPapp_model>  (53) 
Hou-2004 PAMPA linear (RMSE=0.8, n=100)

>  <MetStab_score>  (53) 
1.000 (0-1 scale)

>  <MetStab_t12>  (53) 
High (t½>60 min HLM)

>  <Clearance_route>  (53) 
CYP2D6/3A4 (basic-N + Ar)

>  <Met_alerts>  (53) 
None

>  <MetStab_model>  (53) 
Rule-based HLM classifier (cLogP+Fsp3+Ar-rings+alerts; heuristic ±1 class)

>  <CYP_risk>  (53) 
Low

>  <CYP_alerts>  (53) 
None

>  <CYP2D6_flag>  (53) 
False

>  <CYP3A4_flag>  (53) 
False

>  <CYP2C9_flag>  (53) 
False

>  <CYP_model>  (53) 
SMARTS alert panel (pharmacophore-based; flag only – no IC50 predicted)

>  <PPB_pct>  (53) 
96.5 ± 10 %

>  <PPB_fu>  (53) 
0.0354

>  <PPB_class>  (53) 
Very high (>95%)

>  <PPB_AD>  (53) 
In

>  <PPB_model>  (53) 
Valko-2003 logP-linear (RMSE≈10% PPB, n=87)

>  <hERG_risk>  (53) 
Medium

>  <hERG_model>  (53) 
Structural-alert + cLogP (Redfern-2003 anchor; ±1 class)

>  <des_sol>  (53) 
0.620

>  <des_logp>  (53) 
1.000

>  <des_perm>  (53) 
0.940

>  <des_met>  (53) 
1.000

>  <des_cyp>  (53) 
1.000

>  <des_ppb>  (53) 
0.700

>  <des_herg>  (53) 
0.500

>  <des_mw>  (53) 
0.871

$$$$

     RDKit          2D

 30 32  0  0  0  0  0  0  0  0999 V2000
   -1.8939    0.7781    0.0000 N   0  0  0  0  0  0  0  0  0  0  0  0
   -2.9326   -0.3041    0.0000 C   0  0  0  0  0  0  0  0  0  0  0  0
   -2.5147   -1.7447    0.0000 O   0  0  0  0  0  0  0  0  0  0  0  0
   -2.3119    2.2187    0.0000 C   0  0  0  0  0  0  0  0  0  0  0  0
   -0.4374    0.4198    0.0000 C   0  0  0  0  0  0  0  0  0  0  0  0
   -1.2732    3.3010    0.0000 C   0  0  0  0  0  0  0  0  0  0  0  0
    0.6013    1.5020    0.0000 C   0  0  0  0  0  0  0  0  0  0  0  0
    0.1833    2.9426    0.0000 C   0  0  0  0  0  0  0  0  0  0  0  0
    2.0578    1.1436    0.0000 N   0  0  0  0  0  0  0  0  0  0  0  0
    1.2220    4.0248    0.0000 C   0  0  0  0  0  0  0  0  0  0  0  0
    3.0965    2.2259    0.0000 C   0  0  0  0  0  0  0  0  0  0  0  0
    2.6785    3.6665    0.0000 C   0  0  0  0  0  0  0  0  0  0  0  0
    4.5530    1.8675    0.0000 C   0  0  0  0  0  0  0  0  0  0  0  0
    4.9709    0.4269    0.0000 N   0  0  0  0  0  0  0  0  0  0  0  0
    5.5917    2.9497    0.0000 O   0  0  0  0  0  0  0  0  0  0  0  0
    6.4275    0.0685    0.0000 C   0  0  0  0  0  0  0  0  0  0  0  0
    6.8454   -1.3721    0.0000 C   0  0  0  0  0  0  0  0  0  0  0  0
    5.8068   -2.4543    0.0000 C   0  0  0  0  0  0  0  0  0  0  0  0
    8.3020   -1.7305    0.0000 C   0  0  0  0  0  0  0  0  0  0  0  0
    6.2247   -3.8949    0.0000 C   0  0  0  0  0  0  0  0  0  0  0  0
    8.7199   -3.1711    0.0000 C   0  0  0  0  0  0  0  0  0  0  0  0
    7.6813   -4.2533    0.0000 C   0  0  0  0  0  0  0  0  0  0  0  0
   -4.3891    0.0543    0.0000 C   0  0  0  0  0  0  0  0  0  0  0  0
   -5.4278   -1.0280    0.0000 C   0  0  0  0  0  0  0  0  0  0  0  0
   -6.8843   -0.6696    0.0000 C   0  0  0  0  0  0  0  0  0  0  0  0
   -7.9230   -1.7518    0.0000 C   0  0  0  0  0  0  0  0  0  0  0  0
   -9.3795   -1.3935    0.0000 C   0  0  0  0  0  0  0  0  0  0  0  0
  -10.8361   -1.0351    0.0000 O   0  0  0  0  0  0  0  0  0  0  0  0
   -9.0212    0.0631    0.0000 C   0  0  0  0  0  0  0  0  0  0  0  0
   -9.7379   -2.8500    0.0000 C   0  0  0  0  0  0  0  0  0  0  0  0
  1  2  1  0
  2  3  2  0
  1  4  1  0
  5  1  1  0
  6  4  1  0
  7  5  1  0
  8  6  1  0
  7  8  2  0
  9  7  1  0
 10  8  1  0
 11  9  2  0
 12 10  2  0
 11 12  1  0
 13 11  1  0
 13 14  1  0
 15 13  2  0
 14 16  1  0
 16 17  1  0
 17 18  2  0
 17 19  1  0
 18 20  1  0
 19 21  2  0
 20 22  2  0
 21 22  1  0
  2 23  1  0
 23 24  1  0
 24 25  1  0
 25 26  1  0
 26 27  1  0
 27 28  1  0
 27 29  1  0
 27 30  1  0
M  END
>  <Rank>  (54) 
54

>  <CR_ID>  (54) 
R-010196

>  <Acid_Name>  (54) 
R-010196

>  <SMILES>  (54) 
CC(C)(O)CCCCC(=O)N1CCc2ccc(C(=O)NCc3ccccc3)nc2C1

>  <MPO_Score>  (54) 
0.8122

>  <MW>  (54) 
409.24

>  <cLogP>  (54) 
3.23 ± 0.40

>  <TPSA>  (54) 
82.5

>  <HBD>  (54) 
2

>  <HBA>  (54) 
4

>  <RotBonds>  (54) 
8

>  <Fsp3>  (54) 
0.458

>  <NumArRings>  (54) 
2

>  <logS_ESOL>  (54) 
-4.18 ± 0.93 log(mol/L)

>  <logS_AD>  (54) 
In

>  <logS_model>  (54) 
ESOL/Delaney-2004 (linear, n=1144, RMSE=0.93 log-units)

>  <logPapp_PAMPA>  (54) 
-5.52 ± 0.80 log(cm/s)

>  <logPapp_class>  (54) 
Medium

>  <logPapp_AD>  (54) 
In

>  <logPapp_model>  (54) 
Hou-2004 PAMPA linear (RMSE=0.8, n=100)

>  <MetStab_score>  (54) 
1.000 (0-1 scale)

>  <MetStab_t12>  (54) 
High (t½>60 min HLM)

>  <Clearance_route>  (54) 
CYP2D6/3A4 (basic-N + Ar)

>  <Met_alerts>  (54) 
None

>  <MetStab_model>  (54) 
Rule-based HLM classifier (cLogP+Fsp3+Ar-rings+alerts; heuristic ±1 class)

>  <CYP_risk>  (54) 
Low

>  <CYP_alerts>  (54) 
None

>  <CYP2D6_flag>  (54) 
False

>  <CYP3A4_flag>  (54) 
False

>  <CYP2C9_flag>  (54) 
False

>  <CYP_model>  (54) 
SMARTS alert panel (pharmacophore-based; flag only – no IC50 predicted)

>  <PPB_pct>  (54) 
98.8 ± 10 %

>  <PPB_fu>  (54) 
0.0118

>  <PPB_class>  (54) 
Very high (>95%)

>  <PPB_AD>  (54) 
In

>  <PPB_model>  (54) 
Valko-2003 logP-linear (RMSE≈10% PPB, n=87)

>  <hERG_risk>  (54) 
Medium

>  <hERG_model>  (54) 
Structural-alert + cLogP (Redfern-2003 anchor; ±1 class)

>  <des_sol>  (54) 
0.528

>  <des_logp>  (54) 
1.000

>  <des_perm>  (54) 
0.987

>  <des_met>  (54) 
1.000

>  <des_cyp>  (54) 
1.000

>  <des_ppb>  (54) 
0.700

>  <des_herg>  (54) 
0.500

>  <des_mw>  (54) 
1.000

$$$$

     RDKit          2D

 27 29  0  0  0  0  0  0  0  0999 V2000
   -3.1114    0.1879    0.0000 N   0  0  0  0  0  0  0  0  0  0  0  0
   -4.0140   -1.0101    0.0000 C   0  0  0  0  0  0  0  0  0  0  0  0
   -3.4278   -2.3909    0.0000 O   0  0  0  0  0  0  0  0  0  0  0  0
   -3.6976    1.5686    0.0000 C   0  0  0  0  0  0  0  0  0  0  0  0
   -1.6226    0.0052    0.0000 C   0  0  0  0  0  0  0  0  0  0  0  0
   -2.7950    2.7666    0.0000 C   0  0  0  0  0  0  0  0  0  0  0  0
   -0.7199    1.2032    0.0000 C   0  0  0  0  0  0  0  0  0  0  0  0
   -1.3061    2.5839    0.0000 C   0  0  0  0  0  0  0  0  0  0  0  0
    0.7689    1.0205    0.0000 N   0  0  0  0  0  0  0  0  0  0  0  0
   -0.4035    3.7820    0.0000 C   0  0  0  0  0  0  0  0  0  0  0  0
    1.6715    2.2186    0.0000 C   0  0  0  0  0  0  0  0  0  0  0  0
    1.0853    3.5993    0.0000 C   0  0  0  0  0  0  0  0  0  0  0  0
    3.1604    2.0359    0.0000 C   0  0  0  0  0  0  0  0  0  0  0  0
    3.7466    0.6552    0.0000 N   0  0  0  0  0  0  0  0  0  0  0  0
    4.0630    3.2339    0.0000 O   0  0  0  0  0  0  0  0  0  0  0  0
    5.2354    0.4725    0.0000 C   0  0  0  0  0  0  0  0  0  0  0  0
    5.8216   -0.9082    0.0000 C   0  0  0  0  0  0  0  0  0  0  0  0
    4.9190   -2.1062    0.0000 C   0  0  0  0  0  0  0  0  0  0  0  0
    7.3104   -1.0909    0.0000 C   0  0  0  0  0  0  0  0  0  0  0  0
    5.5052   -3.4870    0.0000 C   0  0  0  0  0  0  0  0  0  0  0  0
    7.8967   -2.4716    0.0000 C   0  0  0  0  0  0  0  0  0  0  0  0
    6.9940   -3.6696    0.0000 C   0  0  0  0  0  0  0  0  0  0  0  0
   -5.5029   -0.8275    0.0000 C   0  0  0  0  0  0  0  0  0  0  0  0
   -6.4055   -2.0255    0.0000 C   0  0  0  0  0  0  0  0  0  0  0  0
   -7.8943   -1.8428    0.0000 C   0  0  0  0  0  0  0  0  0  0  0  0
   -8.4805   -0.4621    0.0000 O   0  0  0  0  0  0  0  0  0  0  0  0
   -8.7969   -3.0408    0.0000 N   0  0  0  0  0  0  0  0  0  0  0  0
  1  2  1  0
  2  3  2  0
  1  4  1  0
  5  1  1  0
  6  4  1  0
  7  5  1  0
  8  6  1  0
  7  8  2  0
  9  7  1  0
 10  8  1  0
 11  9  2  0
 12 10  2  0
 11 12  1  0
 13 11  1  0
 13 14  1  0
 15 13  2  0
 14 16  1  0
 16 17  1  0
 17 18  2  0
 17 19  1  0
 18 20  1  0
 19 21  2  0
 20 22  2  0
 21 22  1  0
  2 23  1  0
 23 24  1  0
 24 25  1  0
 25 26  2  0
 25 27  1  0
M  END
>  <Rank>  (55) 
55

>  <CR_ID>  (55) 
R-009776

>  <Acid_Name>  (55) 
R-009776

>  <SMILES>  (55) 
NC(=O)CCC(=O)N1CCc2ccc(C(=O)NCc3ccccc3)nc2C1

>  <MPO_Score>  (55) 
0.8116

>  <MW>  (55) 
366.17

>  <cLogP>  (55) 
1.16 ± 0.40

>  <TPSA>  (55) 
105.4

>  <HBD>  (55) 
2

>  <HBA>  (55) 
4

>  <RotBonds>  (55) 
6

>  <Fsp3>  (55) 
0.300

>  <NumArRings>  (55) 
2

>  <logS_ESOL>  (55) 
-2.78 ± 0.93 log(mol/L)

>  <logS_AD>  (55) 
In

>  <logS_model>  (55) 
ESOL/Delaney-2004 (linear, n=1144, RMSE=0.93 log-units)

>  <logPapp_PAMPA>  (55) 
-6.88 ± 0.80 log(cm/s)

>  <logPapp_class>  (55) 
Medium

>  <logPapp_AD>  (55) 
In

>  <logPapp_model>  (55) 
Hou-2004 PAMPA linear (RMSE=0.8, n=100)

>  <MetStab_score>  (55) 
1.000 (0-1 scale)

>  <MetStab_t12>  (55) 
High (t½>60 min HLM)

>  <Clearance_route>  (55) 
CYP2D6/3A4 (basic-N + Ar)

>  <Met_alerts>  (55) 
None

>  <MetStab_model>  (55) 
Rule-based HLM classifier (cLogP+Fsp3+Ar-rings+alerts; heuristic ±1 class)

>  <CYP_risk>  (55) 
Low

>  <CYP_alerts>  (55) 
None

>  <CYP2D6_flag>  (55) 
False

>  <CYP3A4_flag>  (55) 
False

>  <CYP2C9_flag>  (55) 
False

>  <CYP_model>  (55) 
SMARTS alert panel (pharmacophore-based; flag only – no IC50 predicted)

>  <PPB_pct>  (55) 
73.2 ± 10 %

>  <PPB_fu>  (55) 
0.2679

>  <PPB_class>  (55) 
Low (<80%)

>  <PPB_AD>  (55) 
In

>  <PPB_model>  (55) 
Valko-2003 logP-linear (RMSE≈10% PPB, n=87)

>  <hERG_risk>  (55) 
Low

>  <hERG_model>  (55) 
Structural-alert + cLogP (Redfern-2003 anchor; ±1 class)

>  <des_sol>  (55) 
1.000

>  <des_logp>  (55) 
0.581

>  <des_perm>  (55) 
0.080

>  <des_met>  (55) 
1.000

>  <des_cyp>  (55) 
1.000

>  <des_ppb>  (55) 
1.000

>  <des_herg>  (55) 
1.000

>  <des_mw>  (55) 
0.831

$$$$

     RDKit          2D

 27 29  0  0  0  0  0  0  0  0999 V2000
   -3.2971    0.2771    0.0000 N   0  0  0  0  0  0  0  0  0  0  0  0
   -4.2061   -0.9161    0.0000 C   0  0  0  0  0  0  0  0  0  0  0  0
   -3.6274   -2.2999    0.0000 O   0  0  0  0  0  0  0  0  0  0  0  0
   -3.8758    1.6609    0.0000 C   0  0  0  0  0  0  0  0  0  0  0  0
   -1.8093    0.0864    0.0000 C   0  0  0  0  0  0  0  0  0  0  0  0
   -2.9668    2.8541    0.0000 C   0  0  0  0  0  0  0  0  0  0  0  0
   -0.9002    1.2795    0.0000 C   0  0  0  0  0  0  0  0  0  0  0  0
   -1.4789    2.6634    0.0000 C   0  0  0  0  0  0  0  0  0  0  0  0
    0.5876    1.0888    0.0000 N   0  0  0  0  0  0  0  0  0  0  0  0
   -0.5699    3.8565    0.0000 C   0  0  0  0  0  0  0  0  0  0  0  0
    1.4967    2.2820    0.0000 C   0  0  0  0  0  0  0  0  0  0  0  0
    0.9179    3.6658    0.0000 C   0  0  0  0  0  0  0  0  0  0  0  0
    2.9845    2.0913    0.0000 C   0  0  0  0  0  0  0  0  0  0  0  0
    3.5633    0.7074    0.0000 N   0  0  0  0  0  0  0  0  0  0  0  0
    3.8936    3.2844    0.0000 O   0  0  0  0  0  0  0  0  0  0  0  0
    5.0511    0.5167    0.0000 C   0  0  0  0  0  0  0  0  0  0  0  0
    5.6299   -0.8671    0.0000 C   0  0  0  0  0  0  0  0  0  0  0  0
    4.7208   -2.0603    0.0000 C   0  0  0  0  0  0  0  0  0  0  0  0
    7.1177   -1.0578    0.0000 C   0  0  0  0  0  0  0  0  0  0  0  0
    5.2996   -3.4441    0.0000 C   0  0  0  0  0  0  0  0  0  0  0  0
    7.6965   -2.4417    0.0000 C   0  0  0  0  0  0  0  0  0  0  0  0
    6.7874   -3.6348    0.0000 C   0  0  0  0  0  0  0  0  0  0  0  0
   -5.6940   -0.7254    0.0000 C   0  0  0  0  0  0  0  0  0  0  0  0
   -6.6030   -1.9185    0.0000 C   0  0  0  0  0  0  0  0  0  0  0  0
   -7.5121   -3.1117    0.0000 O   0  0  0  0  0  0  0  0  0  0  0  0
   -5.4099   -2.8276    0.0000 C   0  0  0  0  0  0  0  0  0  0  0  0
   -7.7962   -1.0094    0.0000 C   0  0  0  0  0  0  0  0  0  0  0  0
  1  2  1  0
  2  3  2  0
  1  4  1  0
  5  1  1  0
  6  4  1  0
  7  5  1  0
  8  6  1  0
  7  8  2  0
  9  7  1  0
 10  8  1  0
 11  9  2  0
 12 10  2  0
 11 12  1  0
 13 11  1  0
 13 14  1  0
 15 13  2  0
 14 16  1  0
 16 17  1  0
 17 18  2  0
 17 19  1  0
 18 20  1  0
 19 21  2  0
 20 22  2  0
 21 22  1  0
  2 23  1  0
 23 24  1  0
 24 25  1  0
 24 26  1  0
 24 27  1  0
M  END
>  <Rank>  (56) 
56

>  <CR_ID>  (56) 
R-009778

>  <Acid_Name>  (56) 
R-009778

>  <SMILES>  (56) 
CC(C)(O)CC(=O)N1CCc2ccc(C(=O)NCc3ccccc3)nc2C1

>  <MPO_Score>  (56) 
0.8102

>  <MW>  (56) 
367.19

>  <cLogP>  (56) 
2.06 ± 0.40

>  <TPSA>  (56) 
82.5

>  <HBD>  (56) 
2

>  <HBA>  (56) 
4

>  <RotBonds>  (56) 
5

>  <Fsp3>  (56) 
0.381

>  <NumArRings>  (56) 
2

>  <logS_ESOL>  (56) 
-3.41 ± 0.93 log(mol/L)

>  <logS_AD>  (56) 
In

>  <logS_model>  (56) 
ESOL/Delaney-2004 (linear, n=1144, RMSE=0.93 log-units)

>  <logPapp_PAMPA>  (56) 
-6.07 ± 0.80 log(cm/s)

>  <logPapp_class>  (56) 
Medium

>  <logPapp_AD>  (56) 
In

>  <logPapp_model>  (56) 
Hou-2004 PAMPA linear (RMSE=0.8, n=100)

>  <MetStab_score>  (56) 
1.000 (0-1 scale)

>  <MetStab_t12>  (56) 
High (t½>60 min HLM)

>  <Clearance_route>  (56) 
CYP2D6/3A4 (basic-N + Ar)

>  <Met_alerts>  (56) 
None

>  <MetStab_model>  (56) 
Rule-based HLM classifier (cLogP+Fsp3+Ar-rings+alerts; heuristic ±1 class)

>  <CYP_risk>  (56) 
Low

>  <CYP_alerts>  (56) 
None

>  <CYP2D6_flag>  (56) 
False

>  <CYP3A4_flag>  (56) 
False

>  <CYP2C9_flag>  (56) 
False

>  <CYP_model>  (56) 
SMARTS alert panel (pharmacophore-based; flag only – no IC50 predicted)

>  <PPB_pct>  (56) 
92.3 ± 10 %

>  <PPB_fu>  (56) 
0.0766

>  <PPB_class>  (56) 
High (90-95%)

>  <PPB_AD>  (56) 
In

>  <PPB_model>  (56) 
Valko-2003 logP-linear (RMSE≈10% PPB, n=87)

>  <hERG_risk>  (56) 
Medium

>  <hERG_model>  (56) 
Structural-alert + cLogP (Redfern-2003 anchor; ±1 class)

>  <des_sol>  (56) 
0.836

>  <des_logp>  (56) 
1.000

>  <des_perm>  (56) 
0.620

>  <des_met>  (56) 
1.000

>  <des_cyp>  (56) 
1.000

>  <des_ppb>  (56) 
1.000

>  <des_herg>  (56) 
0.500

>  <des_mw>  (56) 
0.836

$$$$

     RDKit          2D

 30 33  0  0  0  0  0  0  0  0999 V2000
   -2.8299   -2.2270    0.0000 N   0  0  0  0  0  0  0  0  0  0  0  0
   -4.3071   -1.9664    0.0000 C   0  0  0  0  0  0  0  0  0  0  0  0
   -5.2713   -3.1154    0.0000 O   0  0  0  0  0  0  0  0  0  0  0  0
   -2.3169   -3.6365    0.0000 C   0  0  0  0  0  0  0  0  0  0  0  0
   -1.8656   -1.0780    0.0000 C   0  0  0  0  0  0  0  0  0  0  0  0
   -0.8397   -3.8971    0.0000 C   0  0  0  0  0  0  0  0  0  0  0  0
   -0.3884   -1.3385    0.0000 C   0  0  0  0  0  0  0  0  0  0  0  0
    0.1245   -2.7481    0.0000 C   0  0  0  0  0  0  0  0  0  0  0  0
    0.5758   -0.1895    0.0000 N   0  0  0  0  0  0  0  0  0  0  0  0
    1.6017   -3.0087    0.0000 C   0  0  0  0  0  0  0  0  0  0  0  0
    2.0530   -0.4501    0.0000 C   0  0  0  0  0  0  0  0  0  0  0  0
    2.5660   -1.8597    0.0000 C   0  0  0  0  0  0  0  0  0  0  0  0
    3.0173    0.6989    0.0000 C   0  0  0  0  0  0  0  0  0  0  0  0
    4.4945    0.4384    0.0000 N   0  0  0  0  0  0  0  0  0  0  0  0
    2.5043    2.1085    0.0000 O   0  0  0  0  0  0  0  0  0  0  0  0
    5.4587    1.5874    0.0000 C   0  0  0  0  0  0  0  0  0  0  0  0
    6.9359    1.3268    0.0000 C   0  0  0  0  0  0  0  0  0  0  0  0
    7.4489   -0.0828    0.0000 C   0  0  0  0  0  0  0  0  0  0  0  0
    7.9002    2.4758    0.0000 C   0  0  0  0  0  0  0  0  0  0  0  0
    8.9261   -0.3433    0.0000 C   0  0  0  0  0  0  0  0  0  0  0  0
    9.3774    2.2152    0.0000 C   0  0  0  0  0  0  0  0  0  0  0  0
    9.8903    0.8057    0.0000 C   0  0  0  0  0  0  0  0  0  0  0  0
   -4.8200   -0.5568    0.0000 C   0  0  0  0  0  0  0  0  0  0  0  0
   -6.2972   -0.2962    0.0000 O   0  0  0  0  0  0  0  0  0  0  0  0
   -6.8101    1.1133    0.0000 C   0  0  0  0  0  0  0  0  0  0  0  0
   -5.8459    2.2623    0.0000 C   0  0  0  0  0  0  0  0  0  0  0  0
   -8.2873    1.3739    0.0000 C   0  0  0  0  0  0  0  0  0  0  0  0
   -6.3588    3.6719    0.0000 C   0  0  0  0  0  0  0  0  0  0  0  0
   -8.8003    2.7835    0.0000 C   0  0  0  0  0  0  0  0  0  0  0  0
   -7.8360    3.9325    0.0000 C   0  0  0  0  0  0  0  0  0  0  0  0
  1  2  1  0
  2  3  2  0
  1  4  1  0
  5  1  1  0
  6  4  1  0
  7  5  1  0
  8  6  1  0
  7  8  2  0
  9  7  1  0
 10  8  1  0
 11  9  2  0
 12 10  2  0
 11 12  1  0
 13 11  1  0
 13 14  1  0
 15 13  2  0
 14 16  1  0
 16 17  1  0
 17 18  2  0
 17 19  1  0
 18 20  1  0
 19 21  2  0
 20 22  2  0
 21 22  1  0
  2 23  1  0
 23 24  1  0
 24 25  1  0
 25 26  2  0
 25 27  1  0
 26 28  1  0
 27 29  2  0
 28 30  2  0
 29 30  1  0
M  END
>  <Rank>  (57) 
57

>  <CR_ID>  (57) 
R-003289

>  <Acid_Name>  (57) 
R-003289

>  <SMILES>  (57) 
O=C(NCc1ccccc1)c1ccc2c(n1)CN(C(=O)COc1ccccc1)CC2

>  <MPO_Score>  (57) 
0.8100

>  <MW>  (57) 
401.17

>  <cLogP>  (57) 
2.98 ± 0.40

>  <TPSA>  (57) 
71.5

>  <HBD>  (57) 
1

>  <HBA>  (57) 
4

>  <RotBonds>  (57) 
6

>  <Fsp3>  (57) 
0.208

>  <NumArRings>  (57) 
3

>  <logS_ESOL>  (57) 
-4.25 ± 0.93 log(mol/L)

>  <logS_AD>  (57) 
In

>  <logS_model>  (57) 
ESOL/Delaney-2004 (linear, n=1144, RMSE=0.93 log-units)

>  <logPapp_PAMPA>  (57) 
-5.46 ± 0.80 log(cm/s)

>  <logPapp_class>  (57) 
High

>  <logPapp_AD>  (57) 
In

>  <logPapp_model>  (57) 
Hou-2004 PAMPA linear (RMSE=0.8, n=100)

>  <MetStab_score>  (57) 
1.000 (0-1 scale)

>  <MetStab_t12>  (57) 
High (t½>60 min HLM)

>  <Clearance_route>  (57) 
CYP2D6/3A4 (basic-N + Ar)

>  <Met_alerts>  (57) 
phenol: UGT/CYP

>  <MetStab_model>  (57) 
Rule-based HLM classifier (cLogP+Fsp3+Ar-rings+alerts; heuristic ±1 class)

>  <CYP_risk>  (57) 
Low

>  <CYP_alerts>  (57) 
None

>  <CYP2D6_flag>  (57) 
False

>  <CYP3A4_flag>  (57) 
False

>  <CYP2C9_flag>  (57) 
False

>  <CYP_model>  (57) 
SMARTS alert panel (pharmacophore-based; flag only – no IC50 predicted)

>  <PPB_pct>  (57) 
98.2 ± 10 %

>  <PPB_fu>  (57) 
0.0178

>  <PPB_class>  (57) 
Very high (>95%)

>  <PPB_AD>  (57) 
In

>  <PPB_model>  (57) 
Valko-2003 logP-linear (RMSE≈10% PPB, n=87)

>  <hERG_risk>  (57) 
Medium

>  <hERG_model>  (57) 
Structural-alert + cLogP (Redfern-2003 anchor; ±1 class)

>  <des_sol>  (57) 
0.500

>  <des_logp>  (57) 
1.000

>  <des_perm>  (57) 
1.000

>  <des_met>  (57) 
1.000

>  <des_cyp>  (57) 
1.000

>  <des_ppb>  (57) 
0.700

>  <des_herg>  (57) 
0.500

>  <des_mw>  (57) 
1.000

$$$$

     RDKit          2D

 27 30  0  0  0  0  0  0  0  0999 V2000
   -4.1405   -1.1545    0.0000 N   0  0  0  0  0  0  0  0  0  0  0  0
   -5.5551   -0.6556    0.0000 C   0  0  0  0  0  0  0  0  0  0  0  0
   -6.6944   -1.6312    0.0000 O   0  0  0  0  0  0  0  0  0  0  0  0
   -3.8652   -2.6291    0.0000 C   0  0  0  0  0  0  0  0  0  0  0  0
   -3.0011   -0.1789    0.0000 C   0  0  0  0  0  0  0  0  0  0  0  0
   -2.4506   -3.1280    0.0000 C   0  0  0  0  0  0  0  0  0  0  0  0
   -1.5865   -0.6778    0.0000 C   0  0  0  0  0  0  0  0  0  0  0  0
   -1.3113   -2.1523    0.0000 C   0  0  0  0  0  0  0  0  0  0  0  0
   -0.4471    0.2978    0.0000 N   0  0  0  0  0  0  0  0  0  0  0  0
    0.1033   -2.6512    0.0000 C   0  0  0  0  0  0  0  0  0  0  0  0
    0.9675   -0.2011    0.0000 C   0  0  0  0  0  0  0  0  0  0  0  0
    1.2427   -1.6756    0.0000 C   0  0  0  0  0  0  0  0  0  0  0  0
    2.1068    0.7746    0.0000 C   0  0  0  0  0  0  0  0  0  0  0  0
    3.5214    0.2756    0.0000 N   0  0  0  0  0  0  0  0  0  0  0  0
    1.8316    2.2491    0.0000 O   0  0  0  0  0  0  0  0  0  0  0  0
    4.6608    1.2513    0.0000 C   0  0  0  0  0  0  0  0  0  0  0  0
    6.0754    0.7524    0.0000 C   0  0  0  0  0  0  0  0  0  0  0  0
    6.3506   -0.7222    0.0000 C   0  0  0  0  0  0  0  0  0  0  0  0
    7.2148    1.7280    0.0000 C   0  0  0  0  0  0  0  0  0  0  0  0
    7.7652   -1.2211    0.0000 C   0  0  0  0  0  0  0  0  0  0  0  0
    8.6294    1.2291    0.0000 C   0  0  0  0  0  0  0  0  0  0  0  0
    8.9046   -0.2454    0.0000 C   0  0  0  0  0  0  0  0  0  0  0  0
   -5.8303    0.8189    0.0000 C   0  0  0  0  0  0  0  0  0  0  0  0
   -7.1850    1.4630    0.0000 C   0  0  0  0  0  0  0  0  0  0  0  0
   -4.7992    1.9083    0.0000 C   0  0  0  0  0  0  0  0  0  0  0  0
   -6.9911    2.9504    0.0000 C   0  0  0  0  0  0  0  0  0  0  0  0
   -5.5166    3.2256    0.0000 C   0  0  0  0  0  0  0  0  0  0  0  0
  1  2  1  0
  2  3  2  0
  1  4  1  0
  5  1  1  0
  6  4  1  0
  7  5  1  0
  8  6  1  0
  7  8  2  0
  9  7  1  0
 10  8  1  0
 11  9  2  0
 12 10  2  0
 11 12  1  0
 13 11  1  0
 13 14  1  0
 15 13  2  0
 14 16  1  0
 16 17  1  0
 17 18  2  0
 17 19  1  0
 18 20  1  0
 19 21  2  0
 20 22  2  0
 21 22  1  0
  2 23  1  0
 23 24  1  0
 23 25  1  0
 24 26  1  0
 25 27  1  0
 26 27  1  0
M  END
>  <Rank>  (58) 
58

>  <CR_ID>  (58) 
R-001406

>  <Acid_Name>  (58) 
R-001406

>  <SMILES>  (58) 
O=C(NCc1ccccc1)c1ccc2c(n1)CN(C(=O)C1CCCC1)CC2

>  <MPO_Score>  (58) 
0.8098

>  <MW>  (58) 
363.19

>  <cLogP>  (58) 
3.09 ± 0.40

>  <TPSA>  (58) 
62.3

>  <HBD>  (58) 
1

>  <HBA>  (58) 
3

>  <RotBonds>  (58) 
4

>  <Fsp3>  (58) 
0.409

>  <NumArRings>  (58) 
2

>  <logS_ESOL>  (58) 
-4.10 ± 0.93 log(mol/L)

>  <logS_AD>  (58) 
In

>  <logS_model>  (58) 
ESOL/Delaney-2004 (linear, n=1144, RMSE=0.93 log-units)

>  <logPapp_PAMPA>  (58) 
-5.23 ± 0.80 log(cm/s)

>  <logPapp_class>  (58) 
High

>  <logPapp_AD>  (58) 
In

>  <logPapp_model>  (58) 
Hou-2004 PAMPA linear (RMSE=0.8, n=100)

>  <MetStab_score>  (58) 
1.000 (0-1 scale)

>  <MetStab_t12>  (58) 
High (t½>60 min HLM)

>  <Clearance_route>  (58) 
CYP2D6/3A4 (basic-N + Ar)

>  <Met_alerts>  (58) 
None

>  <MetStab_model>  (58) 
Rule-based HLM classifier (cLogP+Fsp3+Ar-rings+alerts; heuristic ±1 class)

>  <CYP_risk>  (58) 
Low

>  <CYP_alerts>  (58) 
None

>  <CYP2D6_flag>  (58) 
False

>  <CYP3A4_flag>  (58) 
False

>  <CYP2C9_flag>  (58) 
False

>  <CYP_model>  (58) 
SMARTS alert panel (pharmacophore-based; flag only – no IC50 predicted)

>  <PPB_pct>  (58) 
98.5 ± 10 %

>  <PPB_fu>  (58) 
0.0148

>  <PPB_class>  (58) 
Very high (>95%)

>  <PPB_AD>  (58) 
In

>  <PPB_model>  (58) 
Valko-2003 logP-linear (RMSE≈10% PPB, n=87)

>  <hERG_risk>  (58) 
Medium

>  <hERG_model>  (58) 
Structural-alert + cLogP (Redfern-2003 anchor; ±1 class)

>  <des_sol>  (58) 
0.560

>  <des_logp>  (58) 
1.000

>  <des_perm>  (58) 
1.000

>  <des_met>  (58) 
1.000

>  <des_cyp>  (58) 
1.000

>  <des_ppb>  (58) 
0.700

>  <des_herg>  (58) 
0.500

>  <des_mw>  (58) 
0.816

$$$$

     RDKit          2D

 26 28  0  0  0  0  0  0  0  0999 V2000
   -3.4170    0.0072    0.0000 N   0  0  0  0  0  0  0  0  0  0  0  0
   -4.2807   -1.2192    0.0000 C   0  0  0  0  0  0  0  0  0  0  0  0
   -3.6504   -2.5803    0.0000 O   0  0  0  0  0  0  0  0  0  0  0  0
   -4.0473    1.3684    0.0000 C   0  0  0  0  0  0  0  0  0  0  0  0
   -1.9231   -0.1275    0.0000 C   0  0  0  0  0  0  0  0  0  0  0  0
   -3.1836    2.5948    0.0000 C   0  0  0  0  0  0  0  0  0  0  0  0
   -1.0594    1.0989    0.0000 C   0  0  0  0  0  0  0  0  0  0  0  0
   -1.6897    2.4600    0.0000 C   0  0  0  0  0  0  0  0  0  0  0  0
    0.4345    0.9641    0.0000 N   0  0  0  0  0  0  0  0  0  0  0  0
   -0.8260    3.6865    0.0000 C   0  0  0  0  0  0  0  0  0  0  0  0
    1.2982    2.1905    0.0000 C   0  0  0  0  0  0  0  0  0  0  0  0
    0.6679    3.5517    0.0000 C   0  0  0  0  0  0  0  0  0  0  0  0
    2.7921    2.0558    0.0000 C   0  0  0  0  0  0  0  0  0  0  0  0
    3.4224    0.6946    0.0000 N   0  0  0  0  0  0  0  0  0  0  0  0
    3.6558    3.2822    0.0000 O   0  0  0  0  0  0  0  0  0  0  0  0
    4.9163    0.5598    0.0000 C   0  0  0  0  0  0  0  0  0  0  0  0
    5.5466   -0.8013    0.0000 C   0  0  0  0  0  0  0  0  0  0  0  0
    4.6829   -2.0277    0.0000 C   0  0  0  0  0  0  0  0  0  0  0  0
    7.0405   -0.9361    0.0000 C   0  0  0  0  0  0  0  0  0  0  0  0
    5.3132   -3.3889    0.0000 C   0  0  0  0  0  0  0  0  0  0  0  0
    7.6708   -2.2973    0.0000 C   0  0  0  0  0  0  0  0  0  0  0  0
    6.8071   -3.5237    0.0000 C   0  0  0  0  0  0  0  0  0  0  0  0
   -5.7746   -1.0844    0.0000 C   0  0  0  0  0  0  0  0  0  0  0  0
   -6.6383   -2.3108    0.0000 C   0  0  0  0  0  0  0  0  0  0  0  0
   -8.1322   -2.1760    0.0000 C   0  0  0  0  0  0  0  0  0  0  0  0
   -9.6262   -2.0413    0.0000 N   0  0  0  0  0  0  0  0  0  0  0  0
  1  2  1  0
  2  3  2  0
  1  4  1  0
  5  1  1  0
  6  4  1  0
  7  5  1  0
  8  6  1  0
  7  8  2  0
  9  7  1  0
 10  8  1  0
 11  9  2  0
 12 10  2  0
 11 12  1  0
 13 11  1  0
 13 14  1  0
 15 13  2  0
 14 16  1  0
 16 17  1  0
 17 18  2  0
 17 19  1  0
 18 20  1  0
 19 21  2  0
 20 22  2  0
 21 22  1  0
  2 23  1  0
 23 24  1  0
 24 25  1  0
 25 26  3  0
M  END
>  <Rank>  (59) 
59

>  <CR_ID>  (59) 
R-011409

>  <Acid_Name>  (59) 
R-011409

>  <SMILES>  (59) 
N#CCCC(=O)N1CCc2ccc(C(=O)NCc3ccccc3)nc2C1

>  <MPO_Score>  (59) 
0.8090

>  <MW>  (59) 
348.16

>  <cLogP>  (59) 
2.20 ± 0.40

>  <TPSA>  (59) 
86.1

>  <HBD>  (59) 
1

>  <HBA>  (59) 
4

>  <RotBonds>  (59) 
5

>  <Fsp3>  (59) 
0.300

>  <NumArRings>  (59) 
2

>  <logS_ESOL>  (59) 
-3.40 ± 0.93 log(mol/L)

>  <logS_AD>  (59) 
In

>  <logS_model>  (59) 
ESOL/Delaney-2004 (linear, n=1144, RMSE=0.93 log-units)

>  <logPapp_PAMPA>  (59) 
-6.04 ± 0.80 log(cm/s)

>  <logPapp_class>  (59) 
Medium

>  <logPapp_AD>  (59) 
In

>  <logPapp_model>  (59) 
Hou-2004 PAMPA linear (RMSE=0.8, n=100)

>  <MetStab_score>  (59) 
1.000 (0-1 scale)

>  <MetStab_t12>  (59) 
High (t½>60 min HLM)

>  <Clearance_route>  (59) 
CYP2D6/3A4 (basic-N + Ar)

>  <Met_alerts>  (59) 
None

>  <MetStab_model>  (59) 
Rule-based HLM classifier (cLogP+Fsp3+Ar-rings+alerts; heuristic ±1 class)

>  <CYP_risk>  (59) 
Low

>  <CYP_alerts>  (59) 
None

>  <CYP2D6_flag>  (59) 
False

>  <CYP3A4_flag>  (59) 
False

>  <CYP2C9_flag>  (59) 
False

>  <CYP_model>  (59) 
SMARTS alert panel (pharmacophore-based; flag only – no IC50 predicted)

>  <PPB_pct>  (59) 
93.9 ± 10 %

>  <PPB_fu>  (59) 
0.0614

>  <PPB_class>  (59) 
High (90-95%)

>  <PPB_AD>  (59) 
In

>  <PPB_model>  (59) 
Valko-2003 logP-linear (RMSE≈10% PPB, n=87)

>  <hERG_risk>  (59) 
Medium

>  <hERG_model>  (59) 
Structural-alert + cLogP (Redfern-2003 anchor; ±1 class)

>  <des_sol>  (59) 
0.840

>  <des_logp>  (59) 
1.000

>  <des_perm>  (59) 
0.640

>  <des_met>  (59) 
1.000

>  <des_cyp>  (59) 
1.000

>  <des_ppb>  (59) 
1.000

>  <des_herg>  (59) 
0.500

>  <des_mw>  (59) 
0.741

$$$$

     RDKit          2D

 29 32  0  0  0  0  0  0  0  0999 V2000
   -3.1445   -1.3240    0.0000 N   0  0  0  0  0  0  0  0  0  0  0  0
   -4.5773   -0.8803    0.0000 C   0  0  0  0  0  0  0  0  0  0  0  0
   -5.6780   -1.8993    0.0000 O   0  0  0  0  0  0  0  0  0  0  0  0
   -2.8123   -2.7868    0.0000 C   0  0  0  0  0  0  0  0  0  0  0  0
   -2.0437   -0.3050    0.0000 C   0  0  0  0  0  0  0  0  0  0  0  0
   -1.3794   -3.2305    0.0000 C   0  0  0  0  0  0  0  0  0  0  0  0
   -0.6109   -0.7487    0.0000 C   0  0  0  0  0  0  0  0  0  0  0  0
   -0.2787   -2.2114    0.0000 C   0  0  0  0  0  0  0  0  0  0  0  0
    0.4898    0.2704    0.0000 N   0  0  0  0  0  0  0  0  0  0  0  0
    1.1541   -2.6552    0.0000 C   0  0  0  0  0  0  0  0  0  0  0  0
    1.9227   -0.1734    0.0000 C   0  0  0  0  0  0  0  0  0  0  0  0
    2.2549   -1.6361    0.0000 C   0  0  0  0  0  0  0  0  0  0  0  0
    3.0234    0.8457    0.0000 C   0  0  0  0  0  0  0  0  0  0  0  0
    4.4563    0.4019    0.0000 N   0  0  0  0  0  0  0  0  0  0  0  0
    2.6912    2.3084    0.0000 O   0  0  0  0  0  0  0  0  0  0  0  0
    5.5570    1.4210    0.0000 C   0  0  0  0  0  0  0  0  0  0  0  0
    6.9898    0.9773    0.0000 C   0  0  0  0  0  0  0  0  0  0  0  0
    7.3220   -0.4855    0.0000 C   0  0  0  0  0  0  0  0  0  0  0  0
    8.0906    1.9963    0.0000 C   0  0  0  0  0  0  0  0  0  0  0  0
    8.7549   -0.9292    0.0000 C   0  0  0  0  0  0  0  0  0  0  0  0
    9.5234    1.5526    0.0000 C   0  0  0  0  0  0  0  0  0  0  0  0
    9.8556    0.0898    0.0000 C   0  0  0  0  0  0  0  0  0  0  0  0
   -4.9095    0.5825    0.0000 C   0  0  0  0  0  0  0  0  0  0  0  0
   -6.3424    1.0262    0.0000 C   0  0  0  0  0  0  0  0  0  0  0  0
   -6.6745    2.4890    0.0000 C   0  0  0  0  0  0  0  0  0  0  0  0
   -7.4431    0.0072    0.0000 C   0  0  0  0  0  0  0  0  0  0  0  0
   -8.1074    2.9327    0.0000 N   0  0  0  0  0  0  0  0  0  0  0  0
   -8.8759    0.4509    0.0000 N   0  0  0  0  0  0  0  0  0  0  0  0
   -9.2081    1.9136    0.0000 C   0  0  0  0  0  0  0  0  0  0  0  0
  1  2  1  0
  2  3  2  0
  1  4  1  0
  5  1  1  0
  6  4  1  0
  7  5  1  0
  8  6  1  0
  7  8  2  0
  9  7  1  0
 10  8  1  0
 11  9  2  0
 12 10  2  0
 11 12  1  0
 13 11  1  0
 13 14  1  0
 15 13  2  0
 14 16  1  0
 16 17  1  0
 17 18  2  0
 17 19  1  0
 18 20  1  0
 19 21  2  0
 20 22  2  0
 21 22  1  0
  2 23  1  0
 23 24  1  0
 24 25  2  0
 24 26  1  0
 25 27  1  0
 26 28  2  0
 27 29  2  0
 28 29  1  0
M  END
>  <Rank>  (60) 
60

>  <CR_ID>  (60) 
R-012069

>  <Acid_Name>  (60) 
R-012069

>  <SMILES>  (60) 
O=C(NCc1ccccc1)c1ccc2c(n1)CN(C(=O)Cc1cncnc1)CC2

>  <MPO_Score>  (60) 
0.8088

>  <MW>  (60) 
387.17

>  <cLogP>  (60) 
1.93 ± 0.40

>  <TPSA>  (60) 
88.1

>  <HBD>  (60) 
1

>  <HBA>  (60) 
5

>  <RotBonds>  (60) 
5

>  <Fsp3>  (60) 
0.227

>  <NumArRings>  (60) 
3

>  <logS_ESOL>  (60) 
-3.59 ± 0.93 log(mol/L)

>  <logS_AD>  (60) 
In

>  <logS_model>  (60) 
ESOL/Delaney-2004 (linear, n=1144, RMSE=0.93 log-units)

>  <logPapp_PAMPA>  (60) 
-6.24 ± 0.80 log(cm/s)

>  <logPapp_class>  (60) 
Medium

>  <logPapp_AD>  (60) 
In

>  <logPapp_model>  (60) 
Hou-2004 PAMPA linear (RMSE=0.8, n=100)

>  <MetStab_score>  (60) 
1.000 (0-1 scale)

>  <MetStab_t12>  (60) 
High (t½>60 min HLM)

>  <Clearance_route>  (60) 
CYP2D6/3A4 (basic-N + Ar)

>  <Met_alerts>  (60) 
None

>  <MetStab_model>  (60) 
Rule-based HLM classifier (cLogP+Fsp3+Ar-rings+alerts; heuristic ±1 class)

>  <CYP_risk>  (60) 
Medium

>  <CYP_alerts>  (60) 
CYP3A4:(imidazole/pyrimidine)

>  <CYP2D6_flag>  (60) 
False

>  <CYP3A4_flag>  (60) 
True

>  <CYP2C9_flag>  (60) 
False

>  <CYP_model>  (60) 
SMARTS alert panel (pharmacophore-based; flag only – no IC50 predicted)

>  <PPB_pct>  (60) 
90.7 ± 10 %

>  <PPB_fu>  (60) 
0.0930

>  <PPB_class>  (60) 
High (90-95%)

>  <PPB_AD>  (60) 
In

>  <PPB_model>  (60) 
Valko-2003 logP-linear (RMSE≈10% PPB, n=87)

>  <hERG_risk>  (60) 
Low

>  <hERG_model>  (60) 
Structural-alert + cLogP (Redfern-2003 anchor; ±1 class)

>  <des_sol>  (60) 
0.764

>  <des_logp>  (60) 
0.964

>  <des_perm>  (60) 
0.507

>  <des_met>  (60) 
1.000

>  <des_cyp>  (60) 
0.500

>  <des_ppb>  (60) 
1.000

>  <des_herg>  (60) 
1.000

>  <des_mw>  (60) 
0.936

$$$$

     RDKit          2D

 30 33  0  0  0  0  0  0  0  0999 V2000
   -2.8299   -2.2270    0.0000 N   0  0  0  0  0  0  0  0  0  0  0  0
   -4.3071   -1.9664    0.0000 C   0  0  0  0  0  0  0  0  0  0  0  0
   -5.2713   -3.1154    0.0000 O   0  0  0  0  0  0  0  0  0  0  0  0
   -2.3169   -3.6365    0.0000 C   0  0  0  0  0  0  0  0  0  0  0  0
   -1.8656   -1.0780    0.0000 C   0  0  0  0  0  0  0  0  0  0  0  0
   -0.8397   -3.8971    0.0000 C   0  0  0  0  0  0  0  0  0  0  0  0
   -0.3884   -1.3385    0.0000 C   0  0  0  0  0  0  0  0  0  0  0  0
    0.1245   -2.7481    0.0000 C   0  0  0  0  0  0  0  0  0  0  0  0
    0.5758   -0.1895    0.0000 N   0  0  0  0  0  0  0  0  0  0  0  0
    1.6017   -3.0087    0.0000 C   0  0  0  0  0  0  0  0  0  0  0  0
    2.0530   -0.4501    0.0000 C   0  0  0  0  0  0  0  0  0  0  0  0
    2.5660   -1.8597    0.0000 C   0  0  0  0  0  0  0  0  0  0  0  0
    3.0173    0.6989    0.0000 C   0  0  0  0  0  0  0  0  0  0  0  0
    4.4945    0.4384    0.0000 N   0  0  0  0  0  0  0  0  0  0  0  0
    2.5043    2.1085    0.0000 O   0  0  0  0  0  0  0  0  0  0  0  0
    5.4587    1.5874    0.0000 C   0  0  0  0  0  0  0  0  0  0  0  0
    6.9359    1.3268    0.0000 C   0  0  0  0  0  0  0  0  0  0  0  0
    7.4489   -0.0828    0.0000 C   0  0  0  0  0  0  0  0  0  0  0  0
    7.9002    2.4758    0.0000 C   0  0  0  0  0  0  0  0  0  0  0  0
    8.9261   -0.3433    0.0000 C   0  0  0  0  0  0  0  0  0  0  0  0
    9.3774    2.2152    0.0000 C   0  0  0  0  0  0  0  0  0  0  0  0
    9.8903    0.8057    0.0000 C   0  0  0  0  0  0  0  0  0  0  0  0
   -4.8200   -0.5568    0.0000 C   0  0  0  0  0  0  0  0  0  0  0  0
   -6.2972   -0.2962    0.0000 C   0  0  0  0  0  0  0  0  0  0  0  0
   -6.8101    1.1133    0.0000 C   0  0  0  0  0  0  0  0  0  0  0  0
   -5.8459    2.2623    0.0000 C   0  0  0  0  0  0  0  0  0  0  0  0
   -8.2873    1.3739    0.0000 C   0  0  0  0  0  0  0  0  0  0  0  0
   -6.3588    3.6719    0.0000 N   0  0  0  0  0  0  0  0  0  0  0  0
   -8.8003    2.7835    0.0000 C   0  0  0  0  0  0  0  0  0  0  0  0
   -7.8360    3.9325    0.0000 C   0  0  0  0  0  0  0  0  0  0  0  0
  1  2  1  0
  2  3  2  0
  1  4  1  0
  5  1  1  0
  6  4  1  0
  7  5  1  0
  8  6  1  0
  7  8  2  0
  9  7  1  0
 10  8  1  0
 11  9  2  0
 12 10  2  0
 11 12  1  0
 13 11  1  0
 13 14  1  0
 15 13  2  0
 14 16  1  0
 16 17  1  0
 17 18  2  0
 17 19  1  0
 18 20  1  0
 19 21  2  0
 20 22  2  0
 21 22  1  0
  2 23  1  0
 23 24  1  0
 24 25  1  0
 25 26  2  0
 25 27  1  0
 26 28  1  0
 27 29  2  0
 28 30  2  0
 29 30  1  0
M  END
>  <Rank>  (61) 
61

>  <CR_ID>  (61) 
R-004416

>  <Acid_Name>  (61) 
R-004416

>  <SMILES>  (61) 
O=C(NCc1ccccc1)c1ccc2c(n1)CN(C(=O)CCc1cccnc1)CC2

>  <MPO_Score>  (61) 
0.8084

>  <MW>  (61) 
400.19

>  <cLogP>  (61) 
2.92 ± 0.40

>  <TPSA>  (61) 
75.2

>  <HBD>  (61) 
1

>  <HBA>  (61) 
4

>  <RotBonds>  (61) 
6

>  <Fsp3>  (61) 
0.250

>  <NumArRings>  (61) 
3

>  <logS_ESOL>  (61) 
-4.21 ± 0.93 log(mol/L)

>  <logS_AD>  (61) 
In

>  <logS_model>  (61) 
ESOL/Delaney-2004 (linear, n=1144, RMSE=0.93 log-units)

>  <logPapp_PAMPA>  (61) 
-5.54 ± 0.80 log(cm/s)

>  <logPapp_class>  (61) 
Medium

>  <logPapp_AD>  (61) 
In

>  <logPapp_model>  (61) 
Hou-2004 PAMPA linear (RMSE=0.8, n=100)

>  <MetStab_score>  (61) 
1.000 (0-1 scale)

>  <MetStab_t12>  (61) 
High (t½>60 min HLM)

>  <Clearance_route>  (61) 
CYP2D6/3A4 (basic-N + Ar)

>  <Met_alerts>  (61) 
None

>  <MetStab_model>  (61) 
Rule-based HLM classifier (cLogP+Fsp3+Ar-rings+alerts; heuristic ±1 class)

>  <CYP_risk>  (61) 
Low

>  <CYP_alerts>  (61) 
None

>  <CYP2D6_flag>  (61) 
False

>  <CYP3A4_flag>  (61) 
False

>  <CYP2C9_flag>  (61) 
False

>  <CYP_model>  (61) 
SMARTS alert panel (pharmacophore-based; flag only – no IC50 predicted)

>  <PPB_pct>  (61) 
98.1 ± 10 %

>  <PPB_fu>  (61) 
0.0193

>  <PPB_class>  (61) 
Very high (>95%)

>  <PPB_AD>  (61) 
In

>  <PPB_model>  (61) 
Valko-2003 logP-linear (RMSE≈10% PPB, n=87)

>  <hERG_risk>  (61) 
Medium

>  <hERG_model>  (61) 
Structural-alert + cLogP (Redfern-2003 anchor; ±1 class)

>  <des_sol>  (61) 
0.516

>  <des_logp>  (61) 
1.000

>  <des_perm>  (61) 
0.973

>  <des_met>  (61) 
1.000

>  <des_cyp>  (61) 
1.000

>  <des_ppb>  (61) 
0.700

>  <des_herg>  (61) 
0.500

>  <des_mw>  (61) 
1.000

$$$$

     RDKit          2D

 27 29  0  0  0  0  0  0  0  0999 V2000
   -3.2971    0.2771    0.0000 N   0  0  0  0  0  0  0  0  0  0  0  0
   -4.2061   -0.9161    0.0000 C   0  0  0  0  0  0  0  0  0  0  0  0
   -3.6274   -2.2999    0.0000 O   0  0  0  0  0  0  0  0  0  0  0  0
   -3.8758    1.6609    0.0000 C   0  0  0  0  0  0  0  0  0  0  0  0
   -1.8093    0.0864    0.0000 C   0  0  0  0  0  0  0  0  0  0  0  0
   -2.9668    2.8541    0.0000 C   0  0  0  0  0  0  0  0  0  0  0  0
   -0.9002    1.2795    0.0000 C   0  0  0  0  0  0  0  0  0  0  0  0
   -1.4789    2.6634    0.0000 C   0  0  0  0  0  0  0  0  0  0  0  0
    0.5876    1.0888    0.0000 N   0  0  0  0  0  0  0  0  0  0  0  0
   -0.5699    3.8565    0.0000 C   0  0  0  0  0  0  0  0  0  0  0  0
    1.4967    2.2820    0.0000 C   0  0  0  0  0  0  0  0  0  0  0  0
    0.9179    3.6658    0.0000 C   0  0  0  0  0  0  0  0  0  0  0  0
    2.9845    2.0913    0.0000 C   0  0  0  0  0  0  0  0  0  0  0  0
    3.5633    0.7074    0.0000 N   0  0  0  0  0  0  0  0  0  0  0  0
    3.8936    3.2844    0.0000 O   0  0  0  0  0  0  0  0  0  0  0  0
    5.0511    0.5167    0.0000 C   0  0  0  0  0  0  0  0  0  0  0  0
    5.6299   -0.8671    0.0000 C   0  0  0  0  0  0  0  0  0  0  0  0
    4.7208   -2.0603    0.0000 C   0  0  0  0  0  0  0  0  0  0  0  0
    7.1177   -1.0578    0.0000 C   0  0  0  0  0  0  0  0  0  0  0  0
    5.2996   -3.4441    0.0000 C   0  0  0  0  0  0  0  0  0  0  0  0
    7.6965   -2.4417    0.0000 C   0  0  0  0  0  0  0  0  0  0  0  0
    6.7874   -3.6348    0.0000 C   0  0  0  0  0  0  0  0  0  0  0  0
   -5.6940   -0.7254    0.0000 C   0  0  0  0  0  0  0  0  0  0  0  0
   -6.6030   -1.9185    0.0000 S   0  0  0  0  0  0  0  0  0  0  0  0
   -5.4099   -2.8276    0.0000 O   0  0  0  0  0  0  0  0  0  0  0  0
   -7.7962   -1.0094    0.0000 O   0  0  0  0  0  0  0  0  0  0  0  0
   -7.5121   -3.1117    0.0000 C   0  0  0  0  0  0  0  0  0  0  0  0
  1  2  1  0
  2  3  2  0
  1  4  1  0
  5  1  1  0
  6  4  1  0
  7  5  1  0
  8  6  1  0
  7  8  2  0
  9  7  1  0
 10  8  1  0
 11  9  2  0
 12 10  2  0
 11 12  1  0
 13 11  1  0
 13 14  1  0
 15 13  2  0
 14 16  1  0
 16 17  1  0
 17 18  2  0
 17 19  1  0
 18 20  1  0
 19 21  2  0
 20 22  2  0
 21 22  1  0
 23  2  1  0
 24 23  1  0
 24 25  2  0
 24 26  2  0
 24 27  1  0
M  END
>  <Rank>  (62) 
62

>  <CR_ID>  (62) 
R-008531

>  <Acid_Name>  (62) 
R-008531

>  <SMILES>  (62) 
CS(=O)(=O)CC(=O)N1CCc2ccc(C(=O)NCc3ccccc3)nc2C1

>  <MPO_Score>  (62) 
0.8078

>  <MW>  (62) 
387.13

>  <cLogP>  (62) 
0.94 ± 0.40

>  <TPSA>  (62) 
96.4

>  <HBD>  (62) 
1

>  <HBA>  (62) 
5

>  <RotBonds>  (62) 
5

>  <Fsp3>  (62) 
0.316

>  <NumArRings>  (62) 
2

>  <logS_ESOL>  (62) 
-2.83 ± 0.93 log(mol/L)

>  <logS_AD>  (62) 
In

>  <logS_model>  (62) 
ESOL/Delaney-2004 (linear, n=1144, RMSE=0.93 log-units)

>  <logPapp_PAMPA>  (62) 
-6.86 ± 0.80 log(cm/s)

>  <logPapp_class>  (62) 
Medium

>  <logPapp_AD>  (62) 
In

>  <logPapp_model>  (62) 
Hou-2004 PAMPA linear (RMSE=0.8, n=100)

>  <MetStab_score>  (62) 
1.000 (0-1 scale)

>  <MetStab_t12>  (62) 
High (t½>60 min HLM)

>  <Clearance_route>  (62) 
CYP2D6/3A4 (basic-N + Ar)

>  <Met_alerts>  (62) 
None

>  <MetStab_model>  (62) 
Rule-based HLM classifier (cLogP+Fsp3+Ar-rings+alerts; heuristic ±1 class)

>  <CYP_risk>  (62) 
Low

>  <CYP_alerts>  (62) 
None

>  <CYP2D6_flag>  (62) 
False

>  <CYP3A4_flag>  (62) 
False

>  <CYP2C9_flag>  (62) 
False

>  <CYP_model>  (62) 
SMARTS alert panel (pharmacophore-based; flag only – no IC50 predicted)

>  <PPB_pct>  (62) 
65.4 ± 10 %

>  <PPB_fu>  (62) 
0.3455

>  <PPB_class>  (62) 
Low (<80%)

>  <PPB_AD>  (62) 
In

>  <PPB_model>  (62) 
Valko-2003 logP-linear (RMSE≈10% PPB, n=87)

>  <hERG_risk>  (62) 
Low

>  <hERG_model>  (62) 
Structural-alert + cLogP (Redfern-2003 anchor; ±1 class)

>  <des_sol>  (62) 
1.000

>  <des_logp>  (62) 
0.470

>  <des_perm>  (62) 
0.093

>  <des_met>  (62) 
1.000

>  <des_cyp>  (62) 
1.000

>  <des_ppb>  (62) 
1.000

>  <des_herg>  (62) 
1.000

>  <des_mw>  (62) 
0.936

$$$$

     RDKit          2D

 29 32  0  0  0  0  0  0  0  0999 V2000
   -3.1690   -1.9913    0.0000 N   0  0  0  0  0  0  0  0  0  0  0  0
   -4.6359   -1.6779    0.0000 C   0  0  0  0  0  0  0  0  0  0  0  0
   -5.6408   -2.7916    0.0000 O   0  0  0  0  0  0  0  0  0  0  0  0
   -2.7070   -3.4184    0.0000 C   0  0  0  0  0  0  0  0  0  0  0  0
   -2.1642   -0.8776    0.0000 C   0  0  0  0  0  0  0  0  0  0  0  0
   -1.2401   -3.7317    0.0000 C   0  0  0  0  0  0  0  0  0  0  0  0
   -0.6973   -1.1910    0.0000 C   0  0  0  0  0  0  0  0  0  0  0  0
   -0.2352   -2.6180    0.0000 C   0  0  0  0  0  0  0  0  0  0  0  0
    0.3075   -0.0773    0.0000 N   0  0  0  0  0  0  0  0  0  0  0  0
    1.2317   -2.9314    0.0000 C   0  0  0  0  0  0  0  0  0  0  0  0
    1.7744   -0.3907    0.0000 C   0  0  0  0  0  0  0  0  0  0  0  0
    2.2365   -1.8177    0.0000 C   0  0  0  0  0  0  0  0  0  0  0  0
    2.7793    0.7230    0.0000 C   0  0  0  0  0  0  0  0  0  0  0  0
    4.2462    0.4096    0.0000 N   0  0  0  0  0  0  0  0  0  0  0  0
    2.3172    2.1501    0.0000 O   0  0  0  0  0  0  0  0  0  0  0  0
    5.2510    1.5233    0.0000 C   0  0  0  0  0  0  0  0  0  0  0  0
    6.7179    1.2100    0.0000 C   0  0  0  0  0  0  0  0  0  0  0  0
    7.1800   -0.2171    0.0000 C   0  0  0  0  0  0  0  0  0  0  0  0
    7.7227    2.3237    0.0000 C   0  0  0  0  0  0  0  0  0  0  0  0
    8.6469   -0.5305    0.0000 C   0  0  0  0  0  0  0  0  0  0  0  0
    9.1896    2.0103    0.0000 C   0  0  0  0  0  0  0  0  0  0  0  0
    9.6517    0.5832    0.0000 C   0  0  0  0  0  0  0  0  0  0  0  0
   -5.0980   -0.2509    0.0000 C   0  0  0  0  0  0  0  0  0  0  0  0
   -6.5649    0.0625    0.0000 C   0  0  0  0  0  0  0  0  0  0  0  0
   -7.0270    1.4896    0.0000 C   0  0  0  0  0  0  0  0  0  0  0  0
   -8.4531    1.9545    0.0000 O   0  0  0  0  0  0  0  0  0  0  0  0
   -6.1441    2.7022    0.0000 C   0  0  0  0  0  0  0  0  0  0  0  0
   -8.4515    3.4545    0.0000 C   0  0  0  0  0  0  0  0  0  0  0  0
   -7.0245    3.9166    0.0000 C   0  0  0  0  0  0  0  0  0  0  0  0
  1  2  1  0
  2  3  2  0
  1  4  1  0
  5  1  1  0
  6  4  1  0
  7  5  1  0
  8  6  1  0
  7  8  2  0
  9  7  1  0
 10  8  1  0
 11  9  2  0
 12 10  2  0
 11 12  1  0
 13 11  1  0
 13 14  1  0
 15 13  2  0
 14 16  1  0
 16 17  1  0
 17 18  2  0
 17 19  1  0
 18 20  1  0
 19 21  2  0
 20 22  2  0
 21 22  1  0
  2 23  1  0
 23 24  1  0
 24 25  1  0
 25 26  1  0
 25 27  2  0
 26 28  1  0
 27 29  1  0
 28 29  2  0
M  END
>  <Rank>  (63) 
63

>  <CR_ID>  (63) 
R-008470

>  <Acid_Name>  (63) 
R-008470

>  <SMILES>  (63) 
O=C(NCc1ccccc1)c1ccc2c(n1)CN(C(=O)CCc1ccco1)CC2

>  <MPO_Score>  (63) 
0.8067

>  <MW>  (63) 
389.17

>  <cLogP>  (63) 
3.12 ± 0.40

>  <TPSA>  (63) 
75.4

>  <HBD>  (63) 
1

>  <HBA>  (63) 
4

>  <RotBonds>  (63) 
6

>  <Fsp3>  (63) 
0.261

>  <NumArRings>  (63) 
3

>  <logS_ESOL>  (63) 
-4.26 ± 0.93 log(mol/L)

>  <logS_AD>  (63) 
In

>  <logS_model>  (63) 
ESOL/Delaney-2004 (linear, n=1144, RMSE=0.93 log-units)

>  <logPapp_PAMPA>  (63) 
-5.44 ± 0.80 log(cm/s)

>  <logPapp_class>  (63) 
High

>  <logPapp_AD>  (63) 
In

>  <logPapp_model>  (63) 
Hou-2004 PAMPA linear (RMSE=0.8, n=100)

>  <MetStab_score>  (63) 
1.000 (0-1 scale)

>  <MetStab_t12>  (63) 
High (t½>60 min HLM)

>  <Clearance_route>  (63) 
CYP2D6/3A4 (basic-N + Ar)

>  <Met_alerts>  (63) 
None

>  <MetStab_model>  (63) 
Rule-based HLM classifier (cLogP+Fsp3+Ar-rings+alerts; heuristic ±1 class)

>  <CYP_risk>  (63) 
Low

>  <CYP_alerts>  (63) 
None

>  <CYP2D6_flag>  (63) 
False

>  <CYP3A4_flag>  (63) 
False

>  <CYP2C9_flag>  (63) 
False

>  <CYP_model>  (63) 
SMARTS alert panel (pharmacophore-based; flag only – no IC50 predicted)

>  <PPB_pct>  (63) 
98.6 ± 10 %

>  <PPB_fu>  (63) 
0.0140

>  <PPB_class>  (63) 
Very high (>95%)

>  <PPB_AD>  (63) 
In

>  <PPB_model>  (63) 
Valko-2003 logP-linear (RMSE≈10% PPB, n=87)

>  <hERG_risk>  (63) 
Medium

>  <hERG_model>  (63) 
Structural-alert + cLogP (Redfern-2003 anchor; ±1 class)

>  <des_sol>  (63) 
0.496

>  <des_logp>  (63) 
1.000

>  <des_perm>  (63) 
1.000

>  <des_met>  (63) 
1.000

>  <des_cyp>  (63) 
1.000

>  <des_ppb>  (63) 
0.700

>  <des_herg>  (63) 
0.500

>  <des_mw>  (63) 
0.946

$$$$

     RDKit          2D

 28 30  0  0  0  0  0  0  0  0999 V2000
   -2.8228    0.3197    0.0000 N   0  0  0  0  0  0  0  0  0  0  0  0
   -3.7531   -0.8569    0.0000 C   0  0  0  0  0  0  0  0  0  0  0  0
   -3.1993   -2.2509    0.0000 O   0  0  0  0  0  0  0  0  0  0  0  0
   -3.3766    1.7137    0.0000 C   0  0  0  0  0  0  0  0  0  0  0  0
   -1.3386    0.1023    0.0000 C   0  0  0  0  0  0  0  0  0  0  0  0
   -2.4462    2.8904    0.0000 C   0  0  0  0  0  0  0  0  0  0  0  0
   -0.4082    1.2789    0.0000 C   0  0  0  0  0  0  0  0  0  0  0  0
   -0.9620    2.6729    0.0000 C   0  0  0  0  0  0  0  0  0  0  0  0
    1.0759    1.0615    0.0000 N   0  0  0  0  0  0  0  0  0  0  0  0
   -0.0317    3.8496    0.0000 C   0  0  0  0  0  0  0  0  0  0  0  0
    2.0063    2.2381    0.0000 C   0  0  0  0  0  0  0  0  0  0  0  0
    1.4525    3.6322    0.0000 C   0  0  0  0  0  0  0  0  0  0  0  0
    3.4905    2.0207    0.0000 C   0  0  0  0  0  0  0  0  0  0  0  0
    4.0443    0.6267    0.0000 N   0  0  0  0  0  0  0  0  0  0  0  0
    4.4208    3.1973    0.0000 O   0  0  0  0  0  0  0  0  0  0  0  0
    5.5284    0.4093    0.0000 C   0  0  0  0  0  0  0  0  0  0  0  0
    6.0822   -0.9847    0.0000 C   0  0  0  0  0  0  0  0  0  0  0  0
    5.1518   -2.1614    0.0000 C   0  0  0  0  0  0  0  0  0  0  0  0
    7.5664   -1.2021    0.0000 C   0  0  0  0  0  0  0  0  0  0  0  0
    5.7056   -3.5554    0.0000 C   0  0  0  0  0  0  0  0  0  0  0  0
    8.1202   -2.5962    0.0000 C   0  0  0  0  0  0  0  0  0  0  0  0
    7.1898   -3.7728    0.0000 C   0  0  0  0  0  0  0  0  0  0  0  0
   -5.2373   -0.6395    0.0000 C   0  0  0  0  0  0  0  0  0  0  0  0
   -6.1676   -1.8161    0.0000 C   0  0  0  0  0  0  0  0  0  0  0  0
   -7.6518   -1.5987    0.0000 C   0  0  0  0  0  0  0  0  0  0  0  0
   -9.1360   -1.3813    0.0000 F   0  0  0  0  0  0  0  0  0  0  0  0
   -7.8692   -3.0829    0.0000 F   0  0  0  0  0  0  0  0  0  0  0  0
   -7.4344   -0.1145    0.0000 F   0  0  0  0  0  0  0  0  0  0  0  0
  1  2  1  0
  2  3  2  0
  1  4  1  0
  5  1  1  0
  6  4  1  0
  7  5  1  0
  8  6  1  0
  7  8  2  0
  9  7  1  0
 10  8  1  0
 11  9  2  0
 12 10  2  0
 11 12  1  0
 13 11  1  0
 13 14  1  0
 15 13  2  0
 14 16  1  0
 16 17  1  0
 17 18  2  0
 17 19  1  0
 18 20  1  0
 19 21  2  0
 20 22  2  0
 21 22  1  0
 23  2  1  0
 24 23  1  0
 25 24  1  0
 26 25  1  0
 25 27  1  0
 25 28  1  0
M  END
>  <Rank>  (64) 
64

>  <CR_ID>  (64) 
R-000821

>  <Acid_Name>  (64) 
R-000821

>  <SMILES>  (64) 
O=C(NCc1ccccc1)c1ccc2c(n1)CN(C(=O)CCC(F)(F)F)CC2

>  <MPO_Score>  (64) 
0.8054

>  <MW>  (64) 
391.15

>  <cLogP>  (64) 
3.24 ± 0.40

>  <TPSA>  (64) 
62.3

>  <HBD>  (64) 
1

>  <HBA>  (64) 
3

>  <RotBonds>  (64) 
5

>  <Fsp3>  (64) 
0.350

>  <NumArRings>  (64) 
2

>  <logS_ESOL>  (64) 
-4.29 ± 0.93 log(mol/L)

>  <logS_AD>  (64) 
In

>  <logS_model>  (64) 
ESOL/Delaney-2004 (linear, n=1144, RMSE=0.93 log-units)

>  <logPapp_PAMPA>  (64) 
-5.18 ± 0.80 log(cm/s)

>  <logPapp_class>  (64) 
High

>  <logPapp_AD>  (64) 
In

>  <logPapp_model>  (64) 
Hou-2004 PAMPA linear (RMSE=0.8, n=100)

>  <MetStab_score>  (64) 
1.000 (0-1 scale)

>  <MetStab_t12>  (64) 
High (t½>60 min HLM)

>  <Clearance_route>  (64) 
CYP2D6/3A4 (basic-N + Ar)

>  <Met_alerts>  (64) 
None

>  <MetStab_model>  (64) 
Rule-based HLM classifier (cLogP+Fsp3+Ar-rings+alerts; heuristic ±1 class)

>  <CYP_risk>  (64) 
Low

>  <CYP_alerts>  (64) 
None

>  <CYP2D6_flag>  (64) 
False

>  <CYP3A4_flag>  (64) 
False

>  <CYP2C9_flag>  (64) 
False

>  <CYP_model>  (64) 
SMARTS alert panel (pharmacophore-based; flag only – no IC50 predicted)

>  <PPB_pct>  (64) 
98.8 ± 10 %

>  <PPB_fu>  (64) 
0.0116

>  <PPB_class>  (64) 
Very high (>95%)

>  <PPB_AD>  (64) 
In

>  <PPB_model>  (64) 
Valko-2003 logP-linear (RMSE≈10% PPB, n=87)

>  <hERG_risk>  (64) 
Medium

>  <hERG_model>  (64) 
Structural-alert + cLogP (Redfern-2003 anchor; ±1 class)

>  <des_sol>  (64) 
0.484

>  <des_logp>  (64) 
1.000

>  <des_perm>  (64) 
1.000

>  <des_met>  (64) 
1.000

>  <des_cyp>  (64) 
1.000

>  <des_ppb>  (64) 
0.700

>  <des_herg>  (64) 
0.500

>  <des_mw>  (64) 
0.956

$$$$

     RDKit          2D

 31 34  0  0  0  0  0  0  0  0999 V2000
   -2.1461   -2.0822    0.0000 N   0  0  0  0  0  0  0  0  0  0  0  0
   -3.6222   -1.8157    0.0000 C   0  0  0  0  0  0  0  0  0  0  0  0
   -4.5911   -2.9608    0.0000 O   0  0  0  0  0  0  0  0  0  0  0  0
   -1.6389   -3.4939    0.0000 C   0  0  0  0  0  0  0  0  0  0  0  0
   -1.1772   -0.9371    0.0000 C   0  0  0  0  0  0  0  0  0  0  0  0
   -0.1628   -3.7604    0.0000 C   0  0  0  0  0  0  0  0  0  0  0  0
    0.2989   -1.2037    0.0000 C   0  0  0  0  0  0  0  0  0  0  0  0
    0.8061   -2.6153    0.0000 C   0  0  0  0  0  0  0  0  0  0  0  0
    1.2678   -0.0586    0.0000 N   0  0  0  0  0  0  0  0  0  0  0  0
    2.2823   -2.8819    0.0000 C   0  0  0  0  0  0  0  0  0  0  0  0
    2.7440   -0.3252    0.0000 C   0  0  0  0  0  0  0  0  0  0  0  0
    3.2512   -1.7368    0.0000 C   0  0  0  0  0  0  0  0  0  0  0  0
    3.7129    0.8199    0.0000 C   0  0  0  0  0  0  0  0  0  0  0  0
    5.1890    0.5534    0.0000 N   0  0  0  0  0  0  0  0  0  0  0  0
    3.2056    2.2316    0.0000 O   0  0  0  0  0  0  0  0  0  0  0  0
    6.1579    1.6984    0.0000 C   0  0  0  0  0  0  0  0  0  0  0  0
    7.6340    1.4319    0.0000 C   0  0  0  0  0  0  0  0  0  0  0  0
    8.1412    0.0203    0.0000 C   0  0  0  0  0  0  0  0  0  0  0  0
    8.6029    2.5770    0.0000 C   0  0  0  0  0  0  0  0  0  0  0  0
    9.6174   -0.2463    0.0000 C   0  0  0  0  0  0  0  0  0  0  0  0
   10.0791    2.3104    0.0000 C   0  0  0  0  0  0  0  0  0  0  0  0
   10.5863    0.8988    0.0000 C   0  0  0  0  0  0  0  0  0  0  0  0
   -4.1295   -0.4040    0.0000 C   0  0  0  0  0  0  0  0  0  0  0  0
   -5.6056   -0.1375    0.0000 O   0  0  0  0  0  0  0  0  0  0  0  0
   -6.1128    1.2742    0.0000 C   0  0  0  0  0  0  0  0  0  0  0  0
   -7.5889    1.5407    0.0000 C   0  0  0  0  0  0  0  0  0  0  0  0
   -8.0961    2.9524    0.0000 C   0  0  0  0  0  0  0  0  0  0  0  0
   -8.5578    0.3956    0.0000 C   0  0  0  0  0  0  0  0  0  0  0  0
   -9.5723    3.2189    0.0000 C   0  0  0  0  0  0  0  0  0  0  0  0
  -10.0340    0.6622    0.0000 C   0  0  0  0  0  0  0  0  0  0  0  0
  -10.5412    2.0738    0.0000 C   0  0  0  0  0  0  0  0  0  0  0  0
  1  2  1  0
  2  3  2  0
  1  4  1  0
  5  1  1  0
  6  4  1  0
  7  5  1  0
  8  6  1  0
  7  8  2  0
  9  7  1  0
 10  8  1  0
 11  9  2  0
 12 10  2  0
 11 12  1  0
 13 11  1  0
 13 14  1  0
 15 13  2  0
 14 16  1  0
 16 17  1  0
 17 18  2  0
 17 19  1  0
 18 20  1  0
 19 21  2  0
 20 22  2  0
 21 22  1  0
  2 23  1  0
 23 24  1  0
 24 25  1  0
 25 26  1  0
 26 27  2  0
 26 28  1  0
 27 29  1  0
 28 30  2  0
 29 31  2  0
 30 31  1  0
M  END
>  <Rank>  (65) 
65

>  <CR_ID>  (65) 
R-008728

>  <Acid_Name>  (65) 
R-008728

>  <SMILES>  (65) 
O=C(NCc1ccccc1)c1ccc2c(n1)CN(C(=O)COCc1ccccc1)CC2

>  <MPO_Score>  (65) 
0.8046

>  <MW>  (65) 
415.19

>  <cLogP>  (65) 
3.11 ± 0.40

>  <TPSA>  (65) 
71.5

>  <HBD>  (65) 
1

>  <HBA>  (65) 
4

>  <RotBonds>  (65) 
7

>  <Fsp3>  (65) 
0.240

>  <NumArRings>  (65) 
3

>  <logS_ESOL>  (65) 
-4.34 ± 0.93 log(mol/L)

>  <logS_AD>  (65) 
In

>  <logS_model>  (65) 
ESOL/Delaney-2004 (linear, n=1144, RMSE=0.93 log-units)

>  <logPapp_PAMPA>  (65) 
-5.40 ± 0.80 log(cm/s)

>  <logPapp_class>  (65) 
High

>  <logPapp_AD>  (65) 
In

>  <logPapp_model>  (65) 
Hou-2004 PAMPA linear (RMSE=0.8, n=100)

>  <MetStab_score>  (65) 
1.000 (0-1 scale)

>  <MetStab_t12>  (65) 
High (t½>60 min HLM)

>  <Clearance_route>  (65) 
CYP2D6/3A4 (basic-N + Ar)

>  <Met_alerts>  (65) 
None

>  <MetStab_model>  (65) 
Rule-based HLM classifier (cLogP+Fsp3+Ar-rings+alerts; heuristic ±1 class)

>  <CYP_risk>  (65) 
Low

>  <CYP_alerts>  (65) 
None

>  <CYP2D6_flag>  (65) 
False

>  <CYP3A4_flag>  (65) 
False

>  <CYP2C9_flag>  (65) 
False

>  <CYP_model>  (65) 
SMARTS alert panel (pharmacophore-based; flag only – no IC50 predicted)

>  <PPB_pct>  (65) 
98.6 ± 10 %

>  <PPB_fu>  (65) 
0.0142

>  <PPB_class>  (65) 
Very high (>95%)

>  <PPB_AD>  (65) 
In

>  <PPB_model>  (65) 
Valko-2003 logP-linear (RMSE≈10% PPB, n=87)

>  <hERG_risk>  (65) 
Medium

>  <hERG_model>  (65) 
Structural-alert + cLogP (Redfern-2003 anchor; ±1 class)

>  <des_sol>  (65) 
0.464

>  <des_logp>  (65) 
1.000

>  <des_perm>  (65) 
1.000

>  <des_met>  (65) 
1.000

>  <des_cyp>  (65) 
1.000

>  <des_ppb>  (65) 
0.700

>  <des_herg>  (65) 
0.500

>  <des_mw>  (65) 
1.000

$$$$

     RDKit          2D

 29 32  0  0  0  0  0  0  0  0999 V2000
   -3.1033   -1.4488    0.0000 N   0  0  0  0  0  0  0  0  0  0  0  0
   -4.5447   -1.0336    0.0000 C   0  0  0  0  0  0  0  0  0  0  0  0
   -5.6249   -2.0743    0.0000 O   0  0  0  0  0  0  0  0  0  0  0  0
   -2.7422   -2.9047    0.0000 C   0  0  0  0  0  0  0  0  0  0  0  0
   -2.0230   -0.4081    0.0000 C   0  0  0  0  0  0  0  0  0  0  0  0
   -1.3008   -3.3199    0.0000 C   0  0  0  0  0  0  0  0  0  0  0  0
   -0.5816   -0.8233    0.0000 C   0  0  0  0  0  0  0  0  0  0  0  0
   -0.2205   -2.2792    0.0000 C   0  0  0  0  0  0  0  0  0  0  0  0
    0.4987    0.2173    0.0000 N   0  0  0  0  0  0  0  0  0  0  0  0
    1.2209   -2.6944    0.0000 C   0  0  0  0  0  0  0  0  0  0  0  0
    1.9401   -0.1979    0.0000 C   0  0  0  0  0  0  0  0  0  0  0  0
    2.3012   -1.6537    0.0000 C   0  0  0  0  0  0  0  0  0  0  0  0
    3.0203    0.8428    0.0000 C   0  0  0  0  0  0  0  0  0  0  0  0
    4.4617    0.4276    0.0000 N   0  0  0  0  0  0  0  0  0  0  0  0
    2.6592    2.2987    0.0000 O   0  0  0  0  0  0  0  0  0  0  0  0
    5.5420    1.4683    0.0000 C   0  0  0  0  0  0  0  0  0  0  0  0
    6.9834    1.0531    0.0000 C   0  0  0  0  0  0  0  0  0  0  0  0
    7.3445   -0.4028    0.0000 C   0  0  0  0  0  0  0  0  0  0  0  0
    8.0637    2.0937    0.0000 C   0  0  0  0  0  0  0  0  0  0  0  0
    8.7859   -0.8180    0.0000 C   0  0  0  0  0  0  0  0  0  0  0  0
    9.5051    1.6785    0.0000 C   0  0  0  0  0  0  0  0  0  0  0  0
    9.8662    0.2227    0.0000 C   0  0  0  0  0  0  0  0  0  0  0  0
   -4.9058    0.4223    0.0000 C   0  0  0  0  0  0  0  0  0  0  0  0
   -6.3472    0.8375    0.0000 N   0  0  0  0  0  0  0  0  0  0  0  0
   -7.5303   -0.0846    0.0000 N   0  0  0  0  0  0  0  0  0  0  0  0
   -6.8585    2.2477    0.0000 C   0  0  0  0  0  0  0  0  0  0  0  0
   -8.7728    0.7557    0.0000 C   0  0  0  0  0  0  0  0  0  0  0  0
   -8.3576    2.1971    0.0000 C   0  0  0  0  0  0  0  0  0  0  0  0
   -9.2797    3.3803    0.0000 C   0  0  0  0  0  0  0  0  0  0  0  0
  1  2  1  0
  2  3  2  0
  1  4  1  0
  5  1  1  0
  6  4  1  0
  7  5  1  0
  8  6  1  0
  7  8  2  0
  9  7  1  0
 10  8  1  0
 11  9  2  0
 12 10  2  0
 11 12  1  0
 13 11  1  0
 13 14  1  0
 15 13  2  0
 14 16  1  0
 16 17  1  0
 17 18  2  0
 17 19  1  0
 18 20  1  0
 19 21  2  0
 20 22  2  0
 21 22  1  0
  2 23  1  0
 23 24  1  0
 24 25  1  0
 24 26  1  0
 25 27  2  0
 26 28  2  0
 27 28  1  0
 28 29  1  0
M  END
>  <Rank>  (66) 
66

>  <CR_ID>  (66) 
R-011810

>  <Acid_Name>  (66) 
R-011810

>  <SMILES>  (66) 
Cc1cnn(CC(=O)N2CCc3ccc(C(=O)NCc4ccccc4)nc3C2)c1

>  <MPO_Score>  (66) 
0.8045

>  <MW>  (66) 
389.19

>  <cLogP>  (66) 
2.10 ± 0.40

>  <TPSA>  (66) 
80.1

>  <HBD>  (66) 
1

>  <HBA>  (66) 
5

>  <RotBonds>  (66) 
5

>  <Fsp3>  (66) 
0.273

>  <NumArRings>  (66) 
3

>  <logS_ESOL>  (66) 
-3.68 ± 0.93 log(mol/L)

>  <logS_AD>  (66) 
In

>  <logS_model>  (66) 
ESOL/Delaney-2004 (linear, n=1144, RMSE=0.93 log-units)

>  <logPapp_PAMPA>  (66) 
-6.02 ± 0.80 log(cm/s)

>  <logPapp_class>  (66) 
Medium

>  <logPapp_AD>  (66) 
In

>  <logPapp_model>  (66) 
Hou-2004 PAMPA linear (RMSE=0.8, n=100)

>  <MetStab_score>  (66) 
1.000 (0-1 scale)

>  <MetStab_t12>  (66) 
High (t½>60 min HLM)

>  <Clearance_route>  (66) 
CYP2D6/3A4 (basic-N + Ar)

>  <Met_alerts>  (66) 
Ar-CH3: CYP soft spot

>  <MetStab_model>  (66) 
Rule-based HLM classifier (cLogP+Fsp3+Ar-rings+alerts; heuristic ±1 class)

>  <CYP_risk>  (66) 
Low

>  <CYP_alerts>  (66) 
None

>  <CYP2D6_flag>  (66) 
False

>  <CYP3A4_flag>  (66) 
False

>  <CYP2C9_flag>  (66) 
False

>  <CYP_model>  (66) 
SMARTS alert panel (pharmacophore-based; flag only – no IC50 predicted)

>  <PPB_pct>  (66) 
92.8 ± 10 %

>  <PPB_fu>  (66) 
0.0716

>  <PPB_class>  (66) 
High (90-95%)

>  <PPB_AD>  (66) 
In

>  <PPB_model>  (66) 
Valko-2003 logP-linear (RMSE≈10% PPB, n=87)

>  <hERG_risk>  (66) 
Medium

>  <hERG_model>  (66) 
Structural-alert + cLogP (Redfern-2003 anchor; ±1 class)

>  <des_sol>  (66) 
0.728

>  <des_logp>  (66) 
1.000

>  <des_perm>  (66) 
0.653

>  <des_met>  (66) 
1.000

>  <des_cyp>  (66) 
1.000

>  <des_ppb>  (66) 
1.000

>  <des_herg>  (66) 
0.500

>  <des_mw>  (66) 
0.946

$$$$

     RDKit          2D

 27 30  0  0  0  0  0  0  0  0999 V2000
   -4.1405   -1.1545    0.0000 N   0  0  0  0  0  0  0  0  0  0  0  0
   -5.5551   -0.6556    0.0000 C   0  0  0  0  0  0  0  0  0  0  0  0
   -6.6944   -1.6312    0.0000 O   0  0  0  0  0  0  0  0  0  0  0  0
   -3.8652   -2.6291    0.0000 C   0  0  0  0  0  0  0  0  0  0  0  0
   -3.0011   -0.1789    0.0000 C   0  0  0  0  0  0  0  0  0  0  0  0
   -2.4506   -3.1280    0.0000 C   0  0  0  0  0  0  0  0  0  0  0  0
   -1.5865   -0.6778    0.0000 C   0  0  0  0  0  0  0  0  0  0  0  0
   -1.3113   -2.1523    0.0000 C   0  0  0  0  0  0  0  0  0  0  0  0
   -0.4471    0.2978    0.0000 N   0  0  0  0  0  0  0  0  0  0  0  0
    0.1033   -2.6512    0.0000 C   0  0  0  0  0  0  0  0  0  0  0  0
    0.9675   -0.2011    0.0000 C   0  0  0  0  0  0  0  0  0  0  0  0
    1.2427   -1.6756    0.0000 C   0  0  0  0  0  0  0  0  0  0  0  0
    2.1068    0.7746    0.0000 C   0  0  0  0  0  0  0  0  0  0  0  0
    3.5214    0.2756    0.0000 N   0  0  0  0  0  0  0  0  0  0  0  0
    1.8316    2.2491    0.0000 O   0  0  0  0  0  0  0  0  0  0  0  0
    4.6608    1.2513    0.0000 C   0  0  0  0  0  0  0  0  0  0  0  0
    6.0754    0.7524    0.0000 C   0  0  0  0  0  0  0  0  0  0  0  0
    6.3506   -0.7222    0.0000 C   0  0  0  0  0  0  0  0  0  0  0  0
    7.2148    1.7280    0.0000 C   0  0  0  0  0  0  0  0  0  0  0  0
    7.7652   -1.2211    0.0000 C   0  0  0  0  0  0  0  0  0  0  0  0
    8.6294    1.2291    0.0000 C   0  0  0  0  0  0  0  0  0  0  0  0
    8.9046   -0.2454    0.0000 C   0  0  0  0  0  0  0  0  0  0  0  0
   -5.8303    0.8189    0.0000 C   0  0  0  0  0  0  0  0  0  0  0  0
   -7.1850    1.4630    0.0000 O   0  0  0  0  0  0  0  0  0  0  0  0
   -4.7992    1.9083    0.0000 C   0  0  0  0  0  0  0  0  0  0  0  0
   -6.9911    2.9504    0.0000 C   0  0  0  0  0  0  0  0  0  0  0  0
   -5.5166    3.2256    0.0000 C   0  0  0  0  0  0  0  0  0  0  0  0
  1  2  1  0
  2  3  2  0
  1  4  1  0
  5  1  1  0
  6  4  1  0
  7  5  1  0
  8  6  1  0
  7  8  2  0
  9  7  1  0
 10  8  1  0
 11  9  2  0
 12 10  2  0
 11 12  1  0
 13 11  1  0
 13 14  1  0
 15 13  2  0
 14 16  1  0
 16 17  1  0
 17 18  2  0
 17 19  1  0
 18 20  1  0
 19 21  2  0
 20 22  2  0
 21 22  1  0
  2 23  1  0
 23 24  1  0
 23 25  2  0
 24 26  1  0
 25 27  1  0
 26 27  2  0
M  END
>  <Rank>  (67) 
67

>  <CR_ID>  (67) 
R-004886

>  <Acid_Name>  (67) 
R-004886

>  <SMILES>  (67) 
O=C(NCc1ccccc1)c1ccc2c(n1)CN(C(=O)c1ccco1)CC2

>  <MPO_Score>  (67) 
0.8043

>  <MW>  (67) 
361.14

>  <cLogP>  (67) 
2.80 ± 0.40

>  <TPSA>  (67) 
75.4

>  <HBD>  (67) 
1

>  <HBA>  (67) 
4

>  <RotBonds>  (67) 
4

>  <Fsp3>  (67) 
0.190

>  <NumArRings>  (67) 
3

>  <logS_ESOL>  (67) 
-4.05 ± 0.93 log(mol/L)

>  <logS_AD>  (67) 
In

>  <logS_model>  (67) 
ESOL/Delaney-2004 (linear, n=1144, RMSE=0.93 log-units)

>  <logPapp_PAMPA>  (67) 
-5.58 ± 0.80 log(cm/s)

>  <logPapp_class>  (67) 
Medium

>  <logPapp_AD>  (67) 
In

>  <logPapp_model>  (67) 
Hou-2004 PAMPA linear (RMSE=0.8, n=100)

>  <MetStab_score>  (67) 
1.000 (0-1 scale)

>  <MetStab_t12>  (67) 
High (t½>60 min HLM)

>  <Clearance_route>  (67) 
CYP2D6/3A4 (basic-N + Ar)

>  <Met_alerts>  (67) 
None

>  <MetStab_model>  (67) 
Rule-based HLM classifier (cLogP+Fsp3+Ar-rings+alerts; heuristic ±1 class)

>  <CYP_risk>  (67) 
Low

>  <CYP_alerts>  (67) 
None

>  <CYP2D6_flag>  (67) 
False

>  <CYP3A4_flag>  (67) 
False

>  <CYP2C9_flag>  (67) 
False

>  <CYP_model>  (67) 
SMARTS alert panel (pharmacophore-based; flag only – no IC50 predicted)

>  <PPB_pct>  (67) 
97.6 ± 10 %

>  <PPB_fu>  (67) 
0.0235

>  <PPB_class>  (67) 
Very high (>95%)

>  <PPB_AD>  (67) 
In

>  <PPB_model>  (67) 
Valko-2003 logP-linear (RMSE≈10% PPB, n=87)

>  <hERG_risk>  (67) 
Medium

>  <hERG_model>  (67) 
Structural-alert + cLogP (Redfern-2003 anchor; ±1 class)

>  <des_sol>  (67) 
0.580

>  <des_logp>  (67) 
1.000

>  <des_perm>  (67) 
0.947

>  <des_met>  (67) 
1.000

>  <des_cyp>  (67) 
1.000

>  <des_ppb>  (67) 
0.700

>  <des_herg>  (67) 
0.500

>  <des_mw>  (67) 
0.806

$$$$

     RDKit          2D

 27 30  0  0  0  0  0  0  0  0999 V2000
   -4.1405   -1.1545    0.0000 N   0  0  0  0  0  0  0  0  0  0  0  0
   -5.5551   -0.6556    0.0000 C   0  0  0  0  0  0  0  0  0  0  0  0
   -6.6944   -1.6312    0.0000 O   0  0  0  0  0  0  0  0  0  0  0  0
   -3.8652   -2.6291    0.0000 C   0  0  0  0  0  0  0  0  0  0  0  0
   -3.0011   -0.1789    0.0000 C   0  0  0  0  0  0  0  0  0  0  0  0
   -2.4506   -3.1280    0.0000 C   0  0  0  0  0  0  0  0  0  0  0  0
   -1.5865   -0.6778    0.0000 C   0  0  0  0  0  0  0  0  0  0  0  0
   -1.3113   -2.1523    0.0000 C   0  0  0  0  0  0  0  0  0  0  0  0
   -0.4471    0.2978    0.0000 N   0  0  0  0  0  0  0  0  0  0  0  0
    0.1033   -2.6512    0.0000 C   0  0  0  0  0  0  0  0  0  0  0  0
    0.9675   -0.2011    0.0000 C   0  0  0  0  0  0  0  0  0  0  0  0
    1.2427   -1.6756    0.0000 C   0  0  0  0  0  0  0  0  0  0  0  0
    2.1068    0.7746    0.0000 C   0  0  0  0  0  0  0  0  0  0  0  0
    3.5214    0.2756    0.0000 N   0  0  0  0  0  0  0  0  0  0  0  0
    1.8316    2.2491    0.0000 O   0  0  0  0  0  0  0  0  0  0  0  0
    4.6608    1.2513    0.0000 C   0  0  0  0  0  0  0  0  0  0  0  0
    6.0754    0.7524    0.0000 C   0  0  0  0  0  0  0  0  0  0  0  0
    6.3506   -0.7222    0.0000 C   0  0  0  0  0  0  0  0  0  0  0  0
    7.2148    1.7280    0.0000 C   0  0  0  0  0  0  0  0  0  0  0  0
    7.7652   -1.2211    0.0000 C   0  0  0  0  0  0  0  0  0  0  0  0
    8.6294    1.2291    0.0000 C   0  0  0  0  0  0  0  0  0  0  0  0
    8.9046   -0.2454    0.0000 C   0  0  0  0  0  0  0  0  0  0  0  0
   -5.8303    0.8189    0.0000 C   0  0  0  0  0  0  0  0  0  0  0  0
   -7.1850    1.4630    0.0000 C   0  0  0  0  0  0  0  0  0  0  0  0
   -4.7992    1.9083    0.0000 C   0  0  0  0  0  0  0  0  0  0  0  0
   -6.9911    2.9504    0.0000 O   0  0  0  0  0  0  0  0  0  0  0  0
   -5.5166    3.2256    0.0000 C   0  0  0  0  0  0  0  0  0  0  0  0
  1  2  1  0
  2  3  2  0
  1  4  1  0
  5  1  1  0
  6  4  1  0
  7  5  1  0
  8  6  1  0
  7  8  2  0
  9  7  1  0
 10  8  1  0
 11  9  2  0
 12 10  2  0
 11 12  1  0
 13 11  1  0
 13 14  1  0
 15 13  2  0
 14 16  1  0
 16 17  1  0
 17 18  2  0
 17 19  1  0
 18 20  1  0
 19 21  2  0
 20 22  2  0
 21 22  1  0
  2 23  1  0
 23 24  2  0
 23 25  1  0
 24 26  1  0
 25 27  2  0
 26 27  1  0
M  END
>  <Rank>  (68) 
68

>  <CR_ID>  (68) 
R-004861

>  <Acid_Name>  (68) 
R-004861

>  <SMILES>  (68) 
O=C(NCc1ccccc1)c1ccc2c(n1)CN(C(=O)c1ccoc1)CC2

>  <MPO_Score>  (68) 
0.8043

>  <MW>  (68) 
361.14

>  <cLogP>  (68) 
2.80 ± 0.40

>  <TPSA>  (68) 
75.4

>  <HBD>  (68) 
1

>  <HBA>  (68) 
4

>  <RotBonds>  (68) 
4

>  <Fsp3>  (68) 
0.190

>  <NumArRings>  (68) 
3

>  <logS_ESOL>  (68) 
-4.05 ± 0.93 log(mol/L)

>  <logS_AD>  (68) 
In

>  <logS_model>  (68) 
ESOL/Delaney-2004 (linear, n=1144, RMSE=0.93 log-units)

>  <logPapp_PAMPA>  (68) 
-5.58 ± 0.80 log(cm/s)

>  <logPapp_class>  (68) 
Medium

>  <logPapp_AD>  (68) 
In

>  <logPapp_model>  (68) 
Hou-2004 PAMPA linear (RMSE=0.8, n=100)

>  <MetStab_score>  (68) 
1.000 (0-1 scale)

>  <MetStab_t12>  (68) 
High (t½>60 min HLM)

>  <Clearance_route>  (68) 
CYP2D6/3A4 (basic-N + Ar)

>  <Met_alerts>  (68) 
None

>  <MetStab_model>  (68) 
Rule-based HLM classifier (cLogP+Fsp3+Ar-rings+alerts; heuristic ±1 class)

>  <CYP_risk>  (68) 
Low

>  <CYP_alerts>  (68) 
None

>  <CYP2D6_flag>  (68) 
False

>  <CYP3A4_flag>  (68) 
False

>  <CYP2C9_flag>  (68) 
False

>  <CYP_model>  (68) 
SMARTS alert panel (pharmacophore-based; flag only – no IC50 predicted)

>  <PPB_pct>  (68) 
97.6 ± 10 %

>  <PPB_fu>  (68) 
0.0235

>  <PPB_class>  (68) 
Very high (>95%)

>  <PPB_AD>  (68) 
In

>  <PPB_model>  (68) 
Valko-2003 logP-linear (RMSE≈10% PPB, n=87)

>  <hERG_risk>  (68) 
Medium

>  <hERG_model>  (68) 
Structural-alert + cLogP (Redfern-2003 anchor; ±1 class)

>  <des_sol>  (68) 
0.580

>  <des_logp>  (68) 
1.000

>  <des_perm>  (68) 
0.947

>  <des_met>  (68) 
1.000

>  <des_cyp>  (68) 
1.000

>  <des_ppb>  (68) 
0.700

>  <des_herg>  (68) 
0.500

>  <des_mw>  (68) 
0.806

$$$$

     RDKit          2D

 31 34  0  0  0  0  0  0  0  0999 V2000
   -2.6658   -2.3184    0.0000 N   0  0  0  0  0  0  0  0  0  0  0  0
   -4.1456   -2.0726    0.0000 C   0  0  0  0  0  0  0  0  0  0  0  0
   -5.0982   -3.2313    0.0000 O   0  0  0  0  0  0  0  0  0  0  0  0
   -2.1388   -3.7227    0.0000 C   0  0  0  0  0  0  0  0  0  0  0  0
   -1.7131   -1.1598    0.0000 C   0  0  0  0  0  0  0  0  0  0  0  0
   -0.6590   -3.9685    0.0000 C   0  0  0  0  0  0  0  0  0  0  0  0
   -0.2334   -1.4055    0.0000 C   0  0  0  0  0  0  0  0  0  0  0  0
    0.2936   -2.8099    0.0000 C   0  0  0  0  0  0  0  0  0  0  0  0
    0.7193   -0.2469    0.0000 N   0  0  0  0  0  0  0  0  0  0  0  0
    1.7734   -3.0556    0.0000 C   0  0  0  0  0  0  0  0  0  0  0  0
    2.1990   -0.4926    0.0000 C   0  0  0  0  0  0  0  0  0  0  0  0
    2.7261   -1.8970    0.0000 C   0  0  0  0  0  0  0  0  0  0  0  0
    3.1517    0.6660    0.0000 C   0  0  0  0  0  0  0  0  0  0  0  0
    4.6314    0.4202    0.0000 N   0  0  0  0  0  0  0  0  0  0  0  0
    2.6246    2.0703    0.0000 O   0  0  0  0  0  0  0  0  0  0  0  0
    5.5841    1.5789    0.0000 C   0  0  0  0  0  0  0  0  0  0  0  0
    7.0638    1.3331    0.0000 C   0  0  0  0  0  0  0  0  0  0  0  0
    7.5909   -0.0712    0.0000 C   0  0  0  0  0  0  0  0  0  0  0  0
    8.0165    2.4917    0.0000 C   0  0  0  0  0  0  0  0  0  0  0  0
    9.0706   -0.3170    0.0000 C   0  0  0  0  0  0  0  0  0  0  0  0
    9.4963    2.2460    0.0000 C   0  0  0  0  0  0  0  0  0  0  0  0
   10.0233    0.8416    0.0000 C   0  0  0  0  0  0  0  0  0  0  0  0
   -4.6726   -0.6683    0.0000 C   0  0  0  0  0  0  0  0  0  0  0  0
   -6.1523   -0.4225    0.0000 C   0  0  0  0  0  0  0  0  0  0  0  0
   -6.6794    0.9818    0.0000 N   0  0  0  0  0  0  0  0  0  0  0  0
   -5.7267    2.1404    0.0000 C   0  0  0  0  0  0  0  0  0  0  0  0
   -8.1591    1.2276    0.0000 C   0  0  0  0  0  0  0  0  0  0  0  0
   -4.2470    1.8947    0.0000 O   0  0  0  0  0  0  0  0  0  0  0  0
   -6.2538    3.5448    0.0000 C   0  0  0  0  0  0  0  0  0  0  0  0
   -8.6862    2.6319    0.0000 C   0  0  0  0  0  0  0  0  0  0  0  0
   -7.7335    3.7905    0.0000 C   0  0  0  0  0  0  0  0  0  0  0  0
  1  2  1  0
  2  3  2  0
  1  4  1  0
  5  1  1  0
  6  4  1  0
  7  5  1  0
  8  6  1  0
  7  8  2  0
  9  7  1  0
 10  8  1  0
 11  9  2  0
 12 10  2  0
 11 12  1  0
 13 11  1  0
 13 14  1  0
 15 13  2  0
 14 16  1  0
 16 17  1  0
 17 18  2  0
 17 19  1  0
 18 20  1  0
 19 21  2  0
 20 22  2  0
 21 22  1  0
 23  2  1  0
 24 23  1  0
 25 24  1  0
 26 25  1  0
 25 27  1  0
 28 26  2  0
 26 29  1  0
 27 30  1  0
 29 31  1  0
 31 30  1  0
M  END
>  <Rank>  (69) 
69

>  <CR_ID>  (69) 
R-001332

>  <Acid_Name>  (69) 
R-001332

>  <SMILES>  (69) 
O=C(NCc1ccccc1)c1ccc2c(n1)CN(C(=O)CCN1CCCCC1=O)CC2

>  <MPO_Score>  (69) 
0.8042

>  <MW>  (69) 
420.22

>  <cLogP>  (69) 
2.30 ± 0.40

>  <TPSA>  (69) 
82.6

>  <HBD>  (69) 
1

>  <HBA>  (69) 
4

>  <RotBonds>  (69) 
6

>  <Fsp3>  (69) 
0.417

>  <NumArRings>  (69) 
2

>  <logS_ESOL>  (69) 
-3.78 ± 0.93 log(mol/L)

>  <logS_AD>  (69) 
In

>  <logS_model>  (69) 
ESOL/Delaney-2004 (linear, n=1144, RMSE=0.93 log-units)

>  <logPapp_PAMPA>  (69) 
-5.99 ± 0.80 log(cm/s)

>  <logPapp_class>  (69) 
Medium

>  <logPapp_AD>  (69) 
In

>  <logPapp_model>  (69) 
Hou-2004 PAMPA linear (RMSE=0.8, n=100)

>  <MetStab_score>  (69) 
1.000 (0-1 scale)

>  <MetStab_t12>  (69) 
High (t½>60 min HLM)

>  <Clearance_route>  (69) 
CYP2D6/3A4 (basic-N + Ar)

>  <Met_alerts>  (69) 
None

>  <MetStab_model>  (69) 
Rule-based HLM classifier (cLogP+Fsp3+Ar-rings+alerts; heuristic ±1 class)

>  <CYP_risk>  (69) 
Low

>  <CYP_alerts>  (69) 
None

>  <CYP2D6_flag>  (69) 
False

>  <CYP3A4_flag>  (69) 
False

>  <CYP2C9_flag>  (69) 
False

>  <CYP_model>  (69) 
SMARTS alert panel (pharmacophore-based; flag only – no IC50 predicted)

>  <PPB_pct>  (69) 
94.7 ± 10 %

>  <PPB_fu>  (69) 
0.0526

>  <PPB_class>  (69) 
High (90-95%)

>  <PPB_AD>  (69) 
In

>  <PPB_model>  (69) 
Valko-2003 logP-linear (RMSE≈10% PPB, n=87)

>  <hERG_risk>  (69) 
Medium

>  <hERG_model>  (69) 
Structural-alert + cLogP (Redfern-2003 anchor; ±1 class)

>  <des_sol>  (69) 
0.688

>  <des_logp>  (69) 
1.000

>  <des_perm>  (69) 
0.673

>  <des_met>  (69) 
1.000

>  <des_cyp>  (69) 
1.000

>  <des_ppb>  (69) 
1.000

>  <des_herg>  (69) 
0.500

>  <des_mw>  (69) 
1.000

$$$$

     RDKit          2D

 31 34  0  0  0  0  0  0  0  0999 V2000
   -2.3232   -2.0788    0.0000 N   0  0  0  0  0  0  0  0  0  0  0  0
   -3.7974   -1.8016    0.0000 C   0  0  0  0  0  0  0  0  0  0  0  0
   -4.7746   -2.9396    0.0000 O   0  0  0  0  0  0  0  0  0  0  0  0
   -1.8262   -3.4941    0.0000 C   0  0  0  0  0  0  0  0  0  0  0  0
   -1.3461   -0.9408    0.0000 C   0  0  0  0  0  0  0  0  0  0  0  0
   -0.3521   -3.7713    0.0000 C   0  0  0  0  0  0  0  0  0  0  0  0
    0.1281   -1.2180    0.0000 C   0  0  0  0  0  0  0  0  0  0  0  0
    0.6251   -2.6332    0.0000 C   0  0  0  0  0  0  0  0  0  0  0  0
    1.1052   -0.0799    0.0000 N   0  0  0  0  0  0  0  0  0  0  0  0
    2.0992   -2.9105    0.0000 C   0  0  0  0  0  0  0  0  0  0  0  0
    2.5794   -0.3571    0.0000 C   0  0  0  0  0  0  0  0  0  0  0  0
    3.0764   -1.7724    0.0000 C   0  0  0  0  0  0  0  0  0  0  0  0
    3.5566    0.7809    0.0000 C   0  0  0  0  0  0  0  0  0  0  0  0
    5.0307    0.5037    0.0000 N   0  0  0  0  0  0  0  0  0  0  0  0
    3.0596    2.1962    0.0000 O   0  0  0  0  0  0  0  0  0  0  0  0
    6.0079    1.6417    0.0000 C   0  0  0  0  0  0  0  0  0  0  0  0
    7.4820    1.3645    0.0000 C   0  0  0  0  0  0  0  0  0  0  0  0
    7.9790   -0.0508    0.0000 C   0  0  0  0  0  0  0  0  0  0  0  0
    8.4592    2.5026    0.0000 C   0  0  0  0  0  0  0  0  0  0  0  0
    9.4532   -0.3280    0.0000 C   0  0  0  0  0  0  0  0  0  0  0  0
    9.9334    2.2253    0.0000 C   0  0  0  0  0  0  0  0  0  0  0  0
   10.4304    0.8101    0.0000 C   0  0  0  0  0  0  0  0  0  0  0  0
   -4.2944   -0.3863    0.0000 C   0  0  0  0  0  0  0  0  0  0  0  0
   -5.7686   -0.1091    0.0000 C   0  0  0  0  0  0  0  0  0  0  0  0
   -6.2656    1.3062    0.0000 C   0  0  0  0  0  0  0  0  0  0  0  0
   -5.2884    2.4442    0.0000 O   0  0  0  0  0  0  0  0  0  0  0  0
   -7.7397    1.5834    0.0000 N   0  0  0  0  0  0  0  0  0  0  0  0
   -8.8305    0.5537    0.0000 C   0  0  0  0  0  0  0  0  0  0  0  0
   -8.3819    2.9390    0.0000 C   0  0  0  0  0  0  0  0  0  0  0  0
  -10.1468    1.2729    0.0000 C   0  0  0  0  0  0  0  0  0  0  0  0
   -9.8696    2.7471    0.0000 C   0  0  0  0  0  0  0  0  0  0  0  0
  1  2  1  0
  2  3  2  0
  1  4  1  0
  5  1  1  0
  6  4  1  0
  7  5  1  0
  8  6  1  0
  7  8  2  0
  9  7  1  0
 10  8  1  0
 11  9  2  0
 12 10  2  0
 11 12  1  0
 13 11  1  0
 13 14  1  0
 15 13  2  0
 14 16  1  0
 16 17  1  0
 17 18  2  0
 17 19  1  0
 18 20  1  0
 19 21  2  0
 20 22  2  0
 21 22  1  0
  2 23  1  0
 23 24  1  0
 24 25  1  0
 25 26  2  0
 25 27  1  0
 27 28  1  0
 27 29  1  0
 28 30  1  0
 29 31  1  0
 30 31  1  0
M  END
>  <Rank>  (70) 
70

>  <CR_ID>  (70) 
R-008472

>  <Acid_Name>  (70) 
R-008472

>  <SMILES>  (70) 
O=C(NCc1ccccc1)c1ccc2c(n1)CN(C(=O)CCC(=O)N1CCCC1)CC2

>  <MPO_Score>  (70) 
0.8042

>  <MW>  (70) 
420.22

>  <cLogP>  (70) 
2.30 ± 0.40

>  <TPSA>  (70) 
82.6

>  <HBD>  (70) 
1

>  <HBA>  (70) 
4

>  <RotBonds>  (70) 
6

>  <Fsp3>  (70) 
0.417

>  <NumArRings>  (70) 
2

>  <logS_ESOL>  (70) 
-3.78 ± 0.93 log(mol/L)

>  <logS_AD>  (70) 
In

>  <logS_model>  (70) 
ESOL/Delaney-2004 (linear, n=1144, RMSE=0.93 log-units)

>  <logPapp_PAMPA>  (70) 
-5.99 ± 0.80 log(cm/s)

>  <logPapp_class>  (70) 
Medium

>  <logPapp_AD>  (70) 
In

>  <logPapp_model>  (70) 
Hou-2004 PAMPA linear (RMSE=0.8, n=100)

>  <MetStab_score>  (70) 
1.000 (0-1 scale)

>  <MetStab_t12>  (70) 
High (t½>60 min HLM)

>  <Clearance_route>  (70) 
CYP2D6/3A4 (basic-N + Ar)

>  <Met_alerts>  (70) 
None

>  <MetStab_model>  (70) 
Rule-based HLM classifier (cLogP+Fsp3+Ar-rings+alerts; heuristic ±1 class)

>  <CYP_risk>  (70) 
Low

>  <CYP_alerts>  (70) 
None

>  <CYP2D6_flag>  (70) 
False

>  <CYP3A4_flag>  (70) 
False

>  <CYP2C9_flag>  (70) 
False

>  <CYP_model>  (70) 
SMARTS alert panel (pharmacophore-based; flag only – no IC50 predicted)

>  <PPB_pct>  (70) 
94.7 ± 10 %

>  <PPB_fu>  (70) 
0.0526

>  <PPB_class>  (70) 
High (90-95%)

>  <PPB_AD>  (70) 
In

>  <PPB_model>  (70) 
Valko-2003 logP-linear (RMSE≈10% PPB, n=87)

>  <hERG_risk>  (70) 
Medium

>  <hERG_model>  (70) 
Structural-alert + cLogP (Redfern-2003 anchor; ±1 class)

>  <des_sol>  (70) 
0.688

>  <des_logp>  (70) 
1.000

>  <des_perm>  (70) 
0.673

>  <des_met>  (70) 
1.000

>  <des_cyp>  (70) 
1.000

>  <des_ppb>  (70) 
1.000

>  <des_herg>  (70) 
0.500

>  <des_mw>  (70) 
1.000

$$$$

     RDKit          2D

 27 30  0  0  0  0  0  0  0  0999 V2000
   -4.2972   -0.8398    0.0000 N   0  0  0  0  0  0  0  0  0  0  0  0
   -5.6884   -0.2792    0.0000 C   0  0  0  0  0  0  0  0  0  0  0  0
   -6.8696   -1.2037    0.0000 O   0  0  0  0  0  0  0  0  0  0  0  0
   -4.0871   -2.3250    0.0000 C   0  0  0  0  0  0  0  0  0  0  0  0
   -3.1160    0.0847    0.0000 C   0  0  0  0  0  0  0  0  0  0  0  0
   -2.6958   -2.8857    0.0000 C   0  0  0  0  0  0  0  0  0  0  0  0
   -1.7247   -0.4759    0.0000 C   0  0  0  0  0  0  0  0  0  0  0  0
   -1.5146   -1.9611    0.0000 C   0  0  0  0  0  0  0  0  0  0  0  0
   -0.5435    0.4486    0.0000 N   0  0  0  0  0  0  0  0  0  0  0  0
   -0.1233   -2.5218    0.0000 C   0  0  0  0  0  0  0  0  0  0  0  0
    0.8478   -0.1120    0.0000 C   0  0  0  0  0  0  0  0  0  0  0  0
    1.0579   -1.5973    0.0000 C   0  0  0  0  0  0  0  0  0  0  0  0
    2.0290    0.8125    0.0000 C   0  0  0  0  0  0  0  0  0  0  0  0
    3.4202    0.2518    0.0000 N   0  0  0  0  0  0  0  0  0  0  0  0
    1.8189    2.2977    0.0000 O   0  0  0  0  0  0  0  0  0  0  0  0
    4.6014    1.1764    0.0000 C   0  0  0  0  0  0  0  0  0  0  0  0
    5.9927    0.6157    0.0000 C   0  0  0  0  0  0  0  0  0  0  0  0
    6.2028   -0.8695    0.0000 C   0  0  0  0  0  0  0  0  0  0  0  0
    7.1739    1.5403    0.0000 C   0  0  0  0  0  0  0  0  0  0  0  0
    7.5941   -1.4302    0.0000 C   0  0  0  0  0  0  0  0  0  0  0  0
    8.5652    0.9796    0.0000 C   0  0  0  0  0  0  0  0  0  0  0  0
    8.7753   -0.5056    0.0000 C   0  0  0  0  0  0  0  0  0  0  0  0
   -5.8985    1.2061    0.0000 C   0  0  0  0  0  0  0  0  0  0  0  0
   -4.4724    1.6709    0.0000 C   0  0  0  0  0  0  0  0  0  0  0  0
   -6.6039    2.5299    0.0000 C   0  0  0  0  0  0  0  0  0  0  0  0
   -7.3977    1.2571    0.0000 C   0  0  0  0  0  0  0  0  0  0  0  0
   -3.0462    2.1357    0.0000 N   0  0  0  0  0  0  0  0  0  0  0  0
  1  2  1  0
  2  3  2  0
  1  4  1  0
  5  1  1  0
  6  4  1  0
  7  5  1  0
  8  6  1  0
  7  8  2  0
  9  7  1  0
 10  8  1  0
 11  9  2  0
 12 10  2  0
 11 12  1  0
 13 11  1  0
 13 14  1  0
 15 13  2  0
 14 16  1  0
 16 17  1  0
 17 18  2  0
 17 19  1  0
 18 20  1  0
 19 21  2  0
 20 22  2  0
 21 22  1  0
  2 23  1  0
 23 24  1  0
 23 25  1  0
 23 26  1  0
 24 27  3  0
 25 26  1  0
M  END
>  <Rank>  (71) 
71

>  <CR_ID>  (71) 
R-011414

>  <Acid_Name>  (71) 
R-011414

>  <SMILES>  (71) 
N#CC1(C(=O)N2CCc3ccc(C(=O)NCc4ccccc4)nc3C2)CC1

>  <MPO_Score>  (71) 
0.8038

>  <MW>  (71) 
360.16

>  <cLogP>  (71) 
2.20 ± 0.40

>  <TPSA>  (71) 
86.1

>  <HBD>  (71) 
1

>  <HBA>  (71) 
4

>  <RotBonds>  (71) 
4

>  <Fsp3>  (71) 
0.333

>  <NumArRings>  (71) 
2

>  <logS_ESOL>  (71) 
-3.52 ± 0.93 log(mol/L)

>  <logS_AD>  (71) 
In

>  <logS_model>  (71) 
ESOL/Delaney-2004 (linear, n=1144, RMSE=0.93 log-units)

>  <logPapp_PAMPA>  (71) 
-6.05 ± 0.80 log(cm/s)

>  <logPapp_class>  (71) 
Medium

>  <logPapp_AD>  (71) 
In

>  <logPapp_model>  (71) 
Hou-2004 PAMPA linear (RMSE=0.8, n=100)

>  <MetStab_score>  (71) 
1.000 (0-1 scale)

>  <MetStab_t12>  (71) 
High (t½>60 min HLM)

>  <Clearance_route>  (71) 
CYP2D6/3A4 (basic-N + Ar)

>  <Met_alerts>  (71) 
None

>  <MetStab_model>  (71) 
Rule-based HLM classifier (cLogP+Fsp3+Ar-rings+alerts; heuristic ±1 class)

>  <CYP_risk>  (71) 
Low

>  <CYP_alerts>  (71) 
None

>  <CYP2D6_flag>  (71) 
False

>  <CYP3A4_flag>  (71) 
False

>  <CYP2C9_flag>  (71) 
False

>  <CYP_model>  (71) 
SMARTS alert panel (pharmacophore-based; flag only – no IC50 predicted)

>  <PPB_pct>  (71) 
93.9 ± 10 %

>  <PPB_fu>  (71) 
0.0614

>  <PPB_class>  (71) 
High (90-95%)

>  <PPB_AD>  (71) 
In

>  <PPB_model>  (71) 
Valko-2003 logP-linear (RMSE≈10% PPB, n=87)

>  <hERG_risk>  (71) 
Medium

>  <hERG_model>  (71) 
Structural-alert + cLogP (Redfern-2003 anchor; ±1 class)

>  <des_sol>  (71) 
0.792

>  <des_logp>  (71) 
1.000

>  <des_perm>  (71) 
0.633

>  <des_met>  (71) 
1.000

>  <des_cyp>  (71) 
1.000

>  <des_ppb>  (71) 
1.000

>  <des_herg>  (71) 
0.500

>  <des_mw>  (71) 
0.801

$$$$

     RDKit          2D

  0  0  0  0  0  0  0  0  0  0999 V3000
M  V30 BEGIN CTAB
M  V30 COUNTS 28 31 0 0 0
M  V30 BEGIN ATOM
M  V30 1 N -3.873561 -1.396739 0.000000 0
M  V30 2 C -5.302975 -0.942012 0.000000 0
M  V30 3 O -6.411487 -1.952557 0.000000 0
M  V30 4 C -3.552660 -2.862011 0.000000 0
M  V30 5 C -2.765049 -0.386194 0.000000 0
M  V30 6 C -2.123246 -3.316738 0.000000 0
M  V30 7 C -1.335636 -0.840922 0.000000 0
M  V30 8 C -1.014734 -2.306194 0.000000 0
M  V30 9 N -0.227123 0.169623 0.000000 0
M  V30 10 C 0.414679 -2.760921 0.000000 0
M  V30 11 C 1.202290 -0.285104 0.000000 0
M  V30 12 C 1.523192 -1.750376 0.000000 0
M  V30 13 C 2.310802 0.725441 0.000000 0
M  V30 14 N 3.740216 0.270714 0.000000 0
M  V30 15 O 1.989901 2.190713 0.000000 0
M  V30 16 C 4.848728 1.281259 0.000000 0
M  V30 17 C 6.278141 0.826531 0.000000 0
M  V30 18 C 6.599043 -0.638741 0.000000 0
M  V30 19 C 7.386654 1.837076 0.000000 0
M  V30 20 C 8.028456 -1.093468 0.000000 0
M  V30 21 C 8.816067 1.382349 0.000000 0
M  V30 22 C 9.136969 -0.082923 0.000000 0
M  V30 23 C -5.623876 0.523260 0.000000 0
M  V30 24 C -4.515364 1.533805 0.000000 0
M  V30 25 C -7.053290 0.977987 0.000000 0
M  V30 26 C -4.836266 2.999077 0.000000 0
M  V30 27 C -7.374191 2.443260 0.000000 0
M  V30 28 C -6.265679 3.453804 0.000000 0
M  V30 END ATOM
M  V30 BEGIN BOND
M  V30 1 1 1 2
M  V30 2 2 2 3
M  V30 3 1 1 4
M  V30 4 1 5 1
M  V30 5 1 6 4
M  V30 6 1 7 5
M  V30 7 1 8 6
M  V30 8 2 7 8
M  V30 9 1 9 7
M  V30 10 1 10 8
M  V30 11 2 11 9
M  V30 12 2 12 10
M  V30 13 1 11 12
M  V30 14 1 13 11
M  V30 15 1 13 14
M  V30 16 2 15 13
M  V30 17 1 14 16
M  V30 18 1 16 17
M  V30 19 2 17 18
M  V30 20 1 17 19
M  V30 21 1 18 20
M  V30 22 2 19 21
M  V30 23 2 20 22
M  V30 24 1 21 22
M  V30 25 1 23 2 CFG=1
M  V30 26 1 23 24
M  V30 27 1 23 25
M  V30 28 1 24 26
M  V30 29 1 25 27
M  V30 30 2 26 28
M  V30 31 1 27 28
M  V30 END BOND
M  V30 BEGIN COLLECTION
M  V30 MDLV30/STERAC1 ATOMS=(1 23)
M  V30 END COLLECTION
M  V30 END CTAB
M  END
>  <Rank>  (72) 
72

>  <CR_ID>  (72) 
R-010531

>  <Acid_Name>  (72) 
R-010531

>  <SMILES>  (72) 
O=C(NCc1ccccc1)c1ccc2c(n1)CN(C(=O)[C@@H]1CC=CCC1)CC2

>  <MPO_Score>  (72) 
0.8026

>  <MW>  (72) 
375.19

>  <cLogP>  (72) 
3.25 ± 0.40

>  <TPSA>  (72) 
62.3

>  <HBD>  (72) 
1

>  <HBA>  (72) 
3

>  <RotBonds>  (72) 
4

>  <Fsp3>  (72) 
0.348

>  <NumArRings>  (72) 
2

>  <logS_ESOL>  (72) 
-4.27 ± 0.93 log(mol/L)

>  <logS_AD>  (72) 
In

>  <logS_model>  (72) 
ESOL/Delaney-2004 (linear, n=1144, RMSE=0.93 log-units)

>  <logPapp_PAMPA>  (72) 
-5.16 ± 0.80 log(cm/s)

>  <logPapp_class>  (72) 
High

>  <logPapp_AD>  (72) 
In

>  <logPapp_model>  (72) 
Hou-2004 PAMPA linear (RMSE=0.8, n=100)

>  <MetStab_score>  (72) 
1.000 (0-1 scale)

>  <MetStab_t12>  (72) 
High (t½>60 min HLM)

>  <Clearance_route>  (72) 
CYP2D6/3A4 (basic-N + Ar)

>  <Met_alerts>  (72) 
None

>  <MetStab_model>  (72) 
Rule-based HLM classifier (cLogP+Fsp3+Ar-rings+alerts; heuristic ±1 class)

>  <CYP_risk>  (72) 
Low

>  <CYP_alerts>  (72) 
None

>  <CYP2D6_flag>  (72) 
False

>  <CYP3A4_flag>  (72) 
False

>  <CYP2C9_flag>  (72) 
False

>  <CYP_model>  (72) 
SMARTS alert panel (pharmacophore-based; flag only – no IC50 predicted)

>  <PPB_pct>  (72) 
98.9 ± 10 %

>  <PPB_fu>  (72) 
0.0113

>  <PPB_class>  (72) 
Very high (>95%)

>  <PPB_AD>  (72) 
In

>  <PPB_model>  (72) 
Valko-2003 logP-linear (RMSE≈10% PPB, n=87)

>  <hERG_risk>  (72) 
Medium

>  <hERG_model>  (72) 
Structural-alert + cLogP (Redfern-2003 anchor; ±1 class)

>  <des_sol>  (72) 
0.492

>  <des_logp>  (72) 
1.000

>  <des_perm>  (72) 
1.000

>  <des_met>  (72) 
1.000

>  <des_cyp>  (72) 
1.000

>  <des_ppb>  (72) 
0.700

>  <des_herg>  (72) 
0.500

>  <des_mw>  (72) 
0.876

$$$$

     RDKit          2D

 29 32  0  0  0  0  0  0  0  0999 V2000
   -3.7132   -1.2978    0.0000 N   0  0  0  0  0  0  0  0  0  0  0  0
   -5.1354   -0.8211    0.0000 C   0  0  0  0  0  0  0  0  0  0  0  0
   -6.2594   -1.8145    0.0000 O   0  0  0  0  0  0  0  0  0  0  0  0
   -3.4149   -2.7678    0.0000 C   0  0  0  0  0  0  0  0  0  0  0  0
   -2.5893   -0.3044    0.0000 C   0  0  0  0  0  0  0  0  0  0  0  0
   -1.9926   -3.2444    0.0000 C   0  0  0  0  0  0  0  0  0  0  0  0
   -1.1670   -0.7810    0.0000 C   0  0  0  0  0  0  0  0  0  0  0  0
   -0.8687   -2.2511    0.0000 C   0  0  0  0  0  0  0  0  0  0  0  0
   -0.0431    0.2124    0.0000 N   0  0  0  0  0  0  0  0  0  0  0  0
    0.5536   -2.7277    0.0000 C   0  0  0  0  0  0  0  0  0  0  0  0
    1.3792   -0.2643    0.0000 C   0  0  0  0  0  0  0  0  0  0  0  0
    1.6775   -1.7343    0.0000 C   0  0  0  0  0  0  0  0  0  0  0  0
    2.5031    0.7291    0.0000 C   0  0  0  0  0  0  0  0  0  0  0  0
    3.9253    0.2524    0.0000 N   0  0  0  0  0  0  0  0  0  0  0  0
    2.2047    2.1991    0.0000 O   0  0  0  0  0  0  0  0  0  0  0  0
    5.0492    1.2458    0.0000 C   0  0  0  0  0  0  0  0  0  0  0  0
    6.4715    0.7692    0.0000 C   0  0  0  0  0  0  0  0  0  0  0  0
    6.7698   -0.7009    0.0000 C   0  0  0  0  0  0  0  0  0  0  0  0
    7.5954    1.7625    0.0000 C   0  0  0  0  0  0  0  0  0  0  0  0
    8.1921   -1.1775    0.0000 C   0  0  0  0  0  0  0  0  0  0  0  0
    9.0177    1.2859    0.0000 C   0  0  0  0  0  0  0  0  0  0  0  0
    9.3160   -0.1842    0.0000 C   0  0  0  0  0  0  0  0  0  0  0  0
   -5.4338    0.6489    0.0000 C   0  0  0  0  0  0  0  0  0  0  0  0
   -6.7984    1.2716    0.0000 N   0  0  0  0  0  0  0  0  0  0  0  0
   -4.4198    1.7544    0.0000 C   0  0  0  0  0  0  0  0  0  0  0  0
   -6.6279    2.7619    0.0000 C   0  0  0  0  0  0  0  0  0  0  0  0
   -8.1043    0.5336    0.0000 C   0  0  0  0  0  0  0  0  0  0  0  0
   -5.1578    3.0602    0.0000 N   0  0  0  0  0  0  0  0  0  0  0  0
   -2.9296    1.5838    0.0000 C   0  0  0  0  0  0  0  0  0  0  0  0
  1  2  1  0
  2  3  2  0
  1  4  1  0
  5  1  1  0
  6  4  1  0
  7  5  1  0
  8  6  1  0
  7  8  2  0
  9  7  1  0
 10  8  1  0
 11  9  2  0
 12 10  2  0
 11 12  1  0
 13 11  1  0
 13 14  1  0
 15 13  2  0
 14 16  1  0
 16 17  1  0
 17 18  2  0
 17 19  1  0
 18 20  1  0
 19 21  2  0
 20 22  2  0
 21 22  1  0
  2 23  1  0
 23 24  1  0
 23 25  2  0
 24 26  1  0
 24 27  1  0
 25 28  1  0
 25 29  1  0
 26 28  2  0
M  END
>  <Rank>  (73) 
73

>  <CR_ID>  (73) 
R-011857

>  <Acid_Name>  (73) 
R-011857

>  <SMILES>  (73) 
Cc1ncn(C)c1C(=O)N1CCc2ccc(C(=O)NCc3ccccc3)nc2C1

>  <MPO_Score>  (73) 
0.8019

>  <MW>  (73) 
389.19

>  <cLogP>  (73) 
2.25 ± 0.40

>  <TPSA>  (73) 
80.1

>  <HBD>  (73) 
1

>  <HBA>  (73) 
5

>  <RotBonds>  (73) 
4

>  <Fsp3>  (73) 
0.273

>  <NumArRings>  (73) 
3

>  <logS_ESOL>  (73) 
-3.84 ± 0.93 log(mol/L)

>  <logS_AD>  (73) 
In

>  <logS_model>  (73) 
ESOL/Delaney-2004 (linear, n=1144, RMSE=0.93 log-units)

>  <logPapp_PAMPA>  (73) 
-5.95 ± 0.80 log(cm/s)

>  <logPapp_class>  (73) 
Medium

>  <logPapp_AD>  (73) 
In

>  <logPapp_model>  (73) 
Hou-2004 PAMPA linear (RMSE=0.8, n=100)

>  <MetStab_score>  (73) 
1.000 (0-1 scale)

>  <MetStab_t12>  (73) 
High (t½>60 min HLM)

>  <Clearance_route>  (73) 
CYP2D6/3A4 (basic-N + Ar)

>  <Met_alerts>  (73) 
Ar-CH3: CYP soft spot

>  <MetStab_model>  (73) 
Rule-based HLM classifier (cLogP+Fsp3+Ar-rings+alerts; heuristic ±1 class)

>  <CYP_risk>  (73) 
Low

>  <CYP_alerts>  (73) 
None

>  <CYP2D6_flag>  (73) 
False

>  <CYP3A4_flag>  (73) 
False

>  <CYP2C9_flag>  (73) 
False

>  <CYP_model>  (73) 
SMARTS alert panel (pharmacophore-based; flag only – no IC50 predicted)

>  <PPB_pct>  (73) 
94.3 ± 10 %

>  <PPB_fu>  (73) 
0.0567

>  <PPB_class>  (73) 
High (90-95%)

>  <PPB_AD>  (73) 
In

>  <PPB_model>  (73) 
Valko-2003 logP-linear (RMSE≈10% PPB, n=87)

>  <hERG_risk>  (73) 
Medium

>  <hERG_model>  (73) 
Structural-alert + cLogP (Redfern-2003 anchor; ±1 class)

>  <des_sol>  (73) 
0.664

>  <des_logp>  (73) 
1.000

>  <des_perm>  (73) 
0.700

>  <des_met>  (73) 
1.000

>  <des_cyp>  (73) 
1.000

>  <des_ppb>  (73) 
1.000

>  <des_herg>  (73) 
0.500

>  <des_mw>  (73) 
0.946

$$$$

     RDKit          2D

 29 32  0  0  0  0  0  0  0  0999 V2000
   -3.5758   -1.7204    0.0000 N   0  0  0  0  0  0  0  0  0  0  0  0
   -5.0236   -1.3281    0.0000 C   0  0  0  0  0  0  0  0  0  0  0  0
   -6.0872   -2.3858    0.0000 O   0  0  0  0  0  0  0  0  0  0  0  0
   -3.1917   -3.1704    0.0000 C   0  0  0  0  0  0  0  0  0  0  0  0
   -2.5121   -0.6628    0.0000 C   0  0  0  0  0  0  0  0  0  0  0  0
   -1.7439   -3.5627    0.0000 C   0  0  0  0  0  0  0  0  0  0  0  0
   -1.0643   -1.0551    0.0000 C   0  0  0  0  0  0  0  0  0  0  0  0
   -0.6802   -2.5051    0.0000 C   0  0  0  0  0  0  0  0  0  0  0  0
   -0.0007    0.0026    0.0000 N   0  0  0  0  0  0  0  0  0  0  0  0
    0.7676   -2.8974    0.0000 C   0  0  0  0  0  0  0  0  0  0  0  0
    1.4471   -0.3898    0.0000 C   0  0  0  0  0  0  0  0  0  0  0  0
    1.8312   -1.8398    0.0000 C   0  0  0  0  0  0  0  0  0  0  0  0
    2.5108    0.6679    0.0000 C   0  0  0  0  0  0  0  0  0  0  0  0
    3.9586    0.2755    0.0000 N   0  0  0  0  0  0  0  0  0  0  0  0
    2.1266    2.1179    0.0000 O   0  0  0  0  0  0  0  0  0  0  0  0
    5.0222    1.3332    0.0000 C   0  0  0  0  0  0  0  0  0  0  0  0
    6.4700    0.9409    0.0000 C   0  0  0  0  0  0  0  0  0  0  0  0
    6.8541   -0.5091    0.0000 C   0  0  0  0  0  0  0  0  0  0  0  0
    7.5337    1.9985    0.0000 C   0  0  0  0  0  0  0  0  0  0  0  0
    8.3019   -0.9014    0.0000 C   0  0  0  0  0  0  0  0  0  0  0  0
    8.9814    1.6062    0.0000 C   0  0  0  0  0  0  0  0  0  0  0  0
    9.3656    0.1562    0.0000 C   0  0  0  0  0  0  0  0  0  0  0  0
   -5.4077    0.1219    0.0000 C   0  0  0  0  0  0  0  0  0  0  0  0
   -6.8065    0.6634    0.0000 N   0  0  0  0  0  0  0  0  0  0  0  0
   -4.4604    1.2849    0.0000 C   0  0  0  0  0  0  0  0  0  0  0  0
   -6.7238    2.1611    0.0000 N   0  0  0  0  0  0  0  0  0  0  0  0
   -5.2738    2.5452    0.0000 C   0  0  0  0  0  0  0  0  0  0  0  0
   -7.8868    3.1084    0.0000 C   0  0  0  0  0  0  0  0  0  0  0  0
   -4.7323    3.9441    0.0000 C   0  0  0  0  0  0  0  0  0  0  0  0
  1  2  1  0
  2  3  2  0
  1  4  1  0
  5  1  1  0
  6  4  1  0
  7  5  1  0
  8  6  1  0
  7  8  2  0
  9  7  1  0
 10  8  1  0
 11  9  2  0
 12 10  2  0
 11 12  1  0
 13 11  1  0
 13 14  1  0
 15 13  2  0
 14 16  1  0
 16 17  1  0
 17 18  2  0
 17 19  1  0
 18 20  1  0
 19 21  2  0
 20 22  2  0
 21 22  1  0
  2 23  1  0
 23 24  2  0
 23 25  1  0
 24 26  1  0
 25 27  2  0
 26 28  1  0
 26 27  1  0
 27 29  1  0
M  END
>  <Rank>  (74) 
74

>  <CR_ID>  (74) 
R-005202

>  <Acid_Name>  (74) 
R-005202

>  <SMILES>  (74) 
Cc1cc(C(=O)N2CCc3ccc(C(=O)NCc4ccccc4)nc3C2)nn1C

>  <MPO_Score>  (74) 
0.8019

>  <MW>  (74) 
389.19

>  <cLogP>  (74) 
2.25 ± 0.40

>  <TPSA>  (74) 
80.1

>  <HBD>  (74) 
1

>  <HBA>  (74) 
5

>  <RotBonds>  (74) 
4

>  <Fsp3>  (74) 
0.273

>  <NumArRings>  (74) 
3

>  <logS_ESOL>  (74) 
-3.84 ± 0.93 log(mol/L)

>  <logS_AD>  (74) 
In

>  <logS_model>  (74) 
ESOL/Delaney-2004 (linear, n=1144, RMSE=0.93 log-units)

>  <logPapp_PAMPA>  (74) 
-5.95 ± 0.80 log(cm/s)

>  <logPapp_class>  (74) 
Medium

>  <logPapp_AD>  (74) 
In

>  <logPapp_model>  (74) 
Hou-2004 PAMPA linear (RMSE=0.8, n=100)

>  <MetStab_score>  (74) 
1.000 (0-1 scale)

>  <MetStab_t12>  (74) 
High (t½>60 min HLM)

>  <Clearance_route>  (74) 
CYP2D6/3A4 (basic-N + Ar)

>  <Met_alerts>  (74) 
Ar-CH3: CYP soft spot

>  <MetStab_model>  (74) 
Rule-based HLM classifier (cLogP+Fsp3+Ar-rings+alerts; heuristic ±1 class)

>  <CYP_risk>  (74) 
Low

>  <CYP_alerts>  (74) 
None

>  <CYP2D6_flag>  (74) 
False

>  <CYP3A4_flag>  (74) 
False

>  <CYP2C9_flag>  (74) 
False

>  <CYP_model>  (74) 
SMARTS alert panel (pharmacophore-based; flag only – no IC50 predicted)

>  <PPB_pct>  (74) 
94.3 ± 10 %

>  <PPB_fu>  (74) 
0.0567

>  <PPB_class>  (74) 
High (90-95%)

>  <PPB_AD>  (74) 
In

>  <PPB_model>  (74) 
Valko-2003 logP-linear (RMSE≈10% PPB, n=87)

>  <hERG_risk>  (74) 
Medium

>  <hERG_model>  (74) 
Structural-alert + cLogP (Redfern-2003 anchor; ±1 class)

>  <des_sol>  (74) 
0.664

>  <des_logp>  (74) 
1.000

>  <des_perm>  (74) 
0.700

>  <des_met>  (74) 
1.000

>  <des_cyp>  (74) 
1.000

>  <des_ppb>  (74) 
1.000

>  <des_herg>  (74) 
0.500

>  <des_mw>  (74) 
0.946

$$$$

     RDKit          2D

 29 32  0  0  0  0  0  0  0  0999 V2000
   -3.6264   -1.4754    0.0000 N   0  0  0  0  0  0  0  0  0  0  0  0
   -5.0587   -1.0300    0.0000 C   0  0  0  0  0  0  0  0  0  0  0  0
   -6.1607   -2.0478    0.0000 O   0  0  0  0  0  0  0  0  0  0  0  0
   -3.2960   -2.9386    0.0000 C   0  0  0  0  0  0  0  0  0  0  0  0
   -2.5245   -0.4577    0.0000 C   0  0  0  0  0  0  0  0  0  0  0  0
   -1.8636   -3.3840    0.0000 C   0  0  0  0  0  0  0  0  0  0  0  0
   -1.0922   -0.9031    0.0000 C   0  0  0  0  0  0  0  0  0  0  0  0
   -0.7617   -2.3663    0.0000 C   0  0  0  0  0  0  0  0  0  0  0  0
    0.0098    0.1146    0.0000 N   0  0  0  0  0  0  0  0  0  0  0  0
    0.6706   -2.8117    0.0000 C   0  0  0  0  0  0  0  0  0  0  0  0
    1.4421   -0.3308    0.0000 C   0  0  0  0  0  0  0  0  0  0  0  0
    1.7725   -1.7939    0.0000 C   0  0  0  0  0  0  0  0  0  0  0  0
    2.5440    0.6869    0.0000 C   0  0  0  0  0  0  0  0  0  0  0  0
    3.9764    0.2415    0.0000 N   0  0  0  0  0  0  0  0  0  0  0  0
    2.2136    2.1501    0.0000 O   0  0  0  0  0  0  0  0  0  0  0  0
    5.0783    1.2593    0.0000 C   0  0  0  0  0  0  0  0  0  0  0  0
    6.5106    0.8139    0.0000 C   0  0  0  0  0  0  0  0  0  0  0  0
    6.8410   -0.6493    0.0000 C   0  0  0  0  0  0  0  0  0  0  0  0
    7.6125    1.8316    0.0000 C   0  0  0  0  0  0  0  0  0  0  0  0
    8.2734   -1.0947    0.0000 C   0  0  0  0  0  0  0  0  0  0  0  0
    9.0449    1.3862    0.0000 C   0  0  0  0  0  0  0  0  0  0  0  0
    9.3753   -0.0770    0.0000 C   0  0  0  0  0  0  0  0  0  0  0  0
   -5.3892    0.4331    0.0000 C   0  0  0  0  0  0  0  0  0  0  0  0
   -6.7671    1.0258    0.0000 N   0  0  0  0  0  0  0  0  0  0  0  0
   -4.3997    1.5605    0.0000 C   0  0  0  0  0  0  0  0  0  0  0  0
   -6.6292    2.5195    0.0000 N   0  0  0  0  0  0  0  0  0  0  0  0
   -8.0565    0.2594    0.0000 C   0  0  0  0  0  0  0  0  0  0  0  0
   -5.1661    2.8499    0.0000 C   0  0  0  0  0  0  0  0  0  0  0  0
   -4.5734    4.2279    0.0000 C   0  0  0  0  0  0  0  0  0  0  0  0
  1  2  1  0
  2  3  2  0
  1  4  1  0
  5  1  1  0
  6  4  1  0
  7  5  1  0
  8  6  1  0
  7  8  2  0
  9  7  1  0
 10  8  1  0
 11  9  2  0
 12 10  2  0
 11 12  1  0
 13 11  1  0
 13 14  1  0
 15 13  2  0
 14 16  1  0
 16 17  1  0
 17 18  2  0
 17 19  1  0
 18 20  1  0
 19 21  2  0
 20 22  2  0
 21 22  1  0
  2 23  1  0
 23 24  1  0
 23 25  2  0
 24 26  1  0
 24 27  1  0
 25 28  1  0
 26 28  2  0
 28 29  1  0
M  END
>  <Rank>  (75) 
75

>  <CR_ID>  (75) 
R-005861

>  <Acid_Name>  (75) 
R-005861

>  <SMILES>  (75) 
Cc1cc(C(=O)N2CCc3ccc(C(=O)NCc4ccccc4)nc3C2)n(C)n1

>  <MPO_Score>  (75) 
0.8019

>  <MW>  (75) 
389.19

>  <cLogP>  (75) 
2.25 ± 0.40

>  <TPSA>  (75) 
80.1

>  <HBD>  (75) 
1

>  <HBA>  (75) 
5

>  <RotBonds>  (75) 
4

>  <Fsp3>  (75) 
0.273

>  <NumArRings>  (75) 
3

>  <logS_ESOL>  (75) 
-3.84 ± 0.93 log(mol/L)

>  <logS_AD>  (75) 
In

>  <logS_model>  (75) 
ESOL/Delaney-2004 (linear, n=1144, RMSE=0.93 log-units)

>  <logPapp_PAMPA>  (75) 
-5.95 ± 0.80 log(cm/s)

>  <logPapp_class>  (75) 
Medium

>  <logPapp_AD>  (75) 
In

>  <logPapp_model>  (75) 
Hou-2004 PAMPA linear (RMSE=0.8, n=100)

>  <MetStab_score>  (75) 
1.000 (0-1 scale)

>  <MetStab_t12>  (75) 
High (t½>60 min HLM)

>  <Clearance_route>  (75) 
CYP2D6/3A4 (basic-N + Ar)

>  <Met_alerts>  (75) 
Ar-CH3: CYP soft spot

>  <MetStab_model>  (75) 
Rule-based HLM classifier (cLogP+Fsp3+Ar-rings+alerts; heuristic ±1 class)

>  <CYP_risk>  (75) 
Low

>  <CYP_alerts>  (75) 
None

>  <CYP2D6_flag>  (75) 
False

>  <CYP3A4_flag>  (75) 
False

>  <CYP2C9_flag>  (75) 
False

>  <CYP_model>  (75) 
SMARTS alert panel (pharmacophore-based; flag only – no IC50 predicted)

>  <PPB_pct>  (75) 
94.3 ± 10 %

>  <PPB_fu>  (75) 
0.0567

>  <PPB_class>  (75) 
High (90-95%)

>  <PPB_AD>  (75) 
In

>  <PPB_model>  (75) 
Valko-2003 logP-linear (RMSE≈10% PPB, n=87)

>  <hERG_risk>  (75) 
Medium

>  <hERG_model>  (75) 
Structural-alert + cLogP (Redfern-2003 anchor; ±1 class)

>  <des_sol>  (75) 
0.664

>  <des_logp>  (75) 
1.000

>  <des_perm>  (75) 
0.700

>  <des_met>  (75) 
1.000

>  <des_cyp>  (75) 
1.000

>  <des_ppb>  (75) 
1.000

>  <des_herg>  (75) 
0.500

>  <des_mw>  (75) 
0.946

$$$$

     RDKit          2D

 29 32  0  0  0  0  0  0  0  0999 V2000
   -3.6264   -1.4754    0.0000 N   0  0  0  0  0  0  0  0  0  0  0  0
   -5.0587   -1.0300    0.0000 C   0  0  0  0  0  0  0  0  0  0  0  0
   -6.1607   -2.0478    0.0000 O   0  0  0  0  0  0  0  0  0  0  0  0
   -3.2960   -2.9386    0.0000 C   0  0  0  0  0  0  0  0  0  0  0  0
   -2.5245   -0.4577    0.0000 C   0  0  0  0  0  0  0  0  0  0  0  0
   -1.8636   -3.3840    0.0000 C   0  0  0  0  0  0  0  0  0  0  0  0
   -1.0922   -0.9031    0.0000 C   0  0  0  0  0  0  0  0  0  0  0  0
   -0.7617   -2.3663    0.0000 C   0  0  0  0  0  0  0  0  0  0  0  0
    0.0098    0.1146    0.0000 N   0  0  0  0  0  0  0  0  0  0  0  0
    0.6706   -2.8117    0.0000 C   0  0  0  0  0  0  0  0  0  0  0  0
    1.4421   -0.3308    0.0000 C   0  0  0  0  0  0  0  0  0  0  0  0
    1.7725   -1.7939    0.0000 C   0  0  0  0  0  0  0  0  0  0  0  0
    2.5440    0.6869    0.0000 C   0  0  0  0  0  0  0  0  0  0  0  0
    3.9764    0.2415    0.0000 N   0  0  0  0  0  0  0  0  0  0  0  0
    2.2136    2.1501    0.0000 O   0  0  0  0  0  0  0  0  0  0  0  0
    5.0783    1.2593    0.0000 C   0  0  0  0  0  0  0  0  0  0  0  0
    6.5106    0.8139    0.0000 C   0  0  0  0  0  0  0  0  0  0  0  0
    6.8410   -0.6493    0.0000 C   0  0  0  0  0  0  0  0  0  0  0  0
    7.6125    1.8316    0.0000 C   0  0  0  0  0  0  0  0  0  0  0  0
    8.2734   -1.0947    0.0000 C   0  0  0  0  0  0  0  0  0  0  0  0
    9.0449    1.3862    0.0000 C   0  0  0  0  0  0  0  0  0  0  0  0
    9.3753   -0.0770    0.0000 C   0  0  0  0  0  0  0  0  0  0  0  0
   -5.3892    0.4331    0.0000 C   0  0  0  0  0  0  0  0  0  0  0  0
   -6.7671    1.0258    0.0000 C   0  0  0  0  0  0  0  0  0  0  0  0
   -4.3997    1.5605    0.0000 C   0  0  0  0  0  0  0  0  0  0  0  0
   -6.6292    2.5195    0.0000 N   0  0  0  0  0  0  0  0  0  0  0  0
   -8.0565    0.2594    0.0000 C   0  0  0  0  0  0  0  0  0  0  0  0
   -5.1661    2.8499    0.0000 N   0  0  0  0  0  0  0  0  0  0  0  0
   -4.5734    4.2279    0.0000 C   0  0  0  0  0  0  0  0  0  0  0  0
  1  2  1  0
  2  3  2  0
  1  4  1  0
  5  1  1  0
  6  4  1  0
  7  5  1  0
  8  6  1  0
  7  8  2  0
  9  7  1  0
 10  8  1  0
 11  9  2  0
 12 10  2  0
 11 12  1  0
 13 11  1  0
 13 14  1  0
 15 13  2  0
 14 16  1  0
 16 17  1  0
 17 18  2  0
 17 19  1  0
 18 20  1  0
 19 21  2  0
 20 22  2  0
 21 22  1  0
  2 23  1  0
 23 24  1  0
 23 25  2  0
 24 26  2  0
 24 27  1  0
 25 28  1  0
 26 28  1  0
 28 29  1  0
M  END
>  <Rank>  (76) 
76

>  <CR_ID>  (76) 
R-011809

>  <Acid_Name>  (76) 
R-011809

>  <SMILES>  (76) 
Cc1nn(C)cc1C(=O)N1CCc2ccc(C(=O)NCc3ccccc3)nc2C1

>  <MPO_Score>  (76) 
0.8019

>  <MW>  (76) 
389.19

>  <cLogP>  (76) 
2.25 ± 0.40

>  <TPSA>  (76) 
80.1

>  <HBD>  (76) 
1

>  <HBA>  (76) 
5

>  <RotBonds>  (76) 
4

>  <Fsp3>  (76) 
0.273

>  <NumArRings>  (76) 
3

>  <logS_ESOL>  (76) 
-3.84 ± 0.93 log(mol/L)

>  <logS_AD>  (76) 
In

>  <logS_model>  (76) 
ESOL/Delaney-2004 (linear, n=1144, RMSE=0.93 log-units)

>  <logPapp_PAMPA>  (76) 
-5.95 ± 0.80 log(cm/s)

>  <logPapp_class>  (76) 
Medium

>  <logPapp_AD>  (76) 
In

>  <logPapp_model>  (76) 
Hou-2004 PAMPA linear (RMSE=0.8, n=100)

>  <MetStab_score>  (76) 
1.000 (0-1 scale)

>  <MetStab_t12>  (76) 
High (t½>60 min HLM)

>  <Clearance_route>  (76) 
CYP2D6/3A4 (basic-N + Ar)

>  <Met_alerts>  (76) 
Ar-CH3: CYP soft spot

>  <MetStab_model>  (76) 
Rule-based HLM classifier (cLogP+Fsp3+Ar-rings+alerts; heuristic ±1 class)

>  <CYP_risk>  (76) 
Low

>  <CYP_alerts>  (76) 
None

>  <CYP2D6_flag>  (76) 
False

>  <CYP3A4_flag>  (76) 
False

>  <CYP2C9_flag>  (76) 
False

>  <CYP_model>  (76) 
SMARTS alert panel (pharmacophore-based; flag only – no IC50 predicted)

>  <PPB_pct>  (76) 
94.3 ± 10 %

>  <PPB_fu>  (76) 
0.0567

>  <PPB_class>  (76) 
High (90-95%)

>  <PPB_AD>  (76) 
In

>  <PPB_model>  (76) 
Valko-2003 logP-linear (RMSE≈10% PPB, n=87)

>  <hERG_risk>  (76) 
Medium

>  <hERG_model>  (76) 
Structural-alert + cLogP (Redfern-2003 anchor; ±1 class)

>  <des_sol>  (76) 
0.664

>  <des_logp>  (76) 
1.000

>  <des_perm>  (76) 
0.700

>  <des_met>  (76) 
1.000

>  <des_cyp>  (76) 
1.000

>  <des_ppb>  (76) 
1.000

>  <des_herg>  (76) 
0.500

>  <des_mw>  (76) 
0.946

$$$$

     RDKit          2D

 27 29  0  0  0  0  0  0  0  0999 V2000
   -3.0373    0.5327    0.0000 N   0  0  0  0  0  0  0  0  0  0  0  0
   -4.0183   -0.6020    0.0000 C   0  0  0  0  0  0  0  0  0  0  0  0
   -3.5261   -2.0190    0.0000 O   0  0  0  0  0  0  0  0  0  0  0  0
   -3.5296    1.9497    0.0000 C   0  0  0  0  0  0  0  0  0  0  0  0
   -1.5641    0.2506    0.0000 C   0  0  0  0  0  0  0  0  0  0  0  0
   -2.5486    3.0844    0.0000 C   0  0  0  0  0  0  0  0  0  0  0  0
   -0.5832    1.3853    0.0000 C   0  0  0  0  0  0  0  0  0  0  0  0
   -1.0754    2.8023    0.0000 C   0  0  0  0  0  0  0  0  0  0  0  0
    0.8901    1.1032    0.0000 N   0  0  0  0  0  0  0  0  0  0  0  0
   -0.0944    3.9370    0.0000 C   0  0  0  0  0  0  0  0  0  0  0  0
    1.8710    2.2380    0.0000 C   0  0  0  0  0  0  0  0  0  0  0  0
    1.3788    3.6549    0.0000 C   0  0  0  0  0  0  0  0  0  0  0  0
    3.3443    1.9558    0.0000 C   0  0  0  0  0  0  0  0  0  0  0  0
    3.8365    0.5389    0.0000 N   0  0  0  0  0  0  0  0  0  0  0  0
    4.3252    3.0906    0.0000 O   0  0  0  0  0  0  0  0  0  0  0  0
    5.3097    0.2567    0.0000 C   0  0  0  0  0  0  0  0  0  0  0  0
    5.8020   -1.1602    0.0000 C   0  0  0  0  0  0  0  0  0  0  0  0
    4.8210   -2.2950    0.0000 C   0  0  0  0  0  0  0  0  0  0  0  0
    7.2752   -1.4424    0.0000 C   0  0  0  0  0  0  0  0  0  0  0  0
    5.3133   -3.7119    0.0000 C   0  0  0  0  0  0  0  0  0  0  0  0
    7.7675   -2.8593    0.0000 C   0  0  0  0  0  0  0  0  0  0  0  0
    6.7865   -3.9941    0.0000 C   0  0  0  0  0  0  0  0  0  0  0  0
   -5.4915   -0.3199    0.0000 C   0  0  0  0  0  0  0  0  0  0  0  0
   -6.4725   -1.4547    0.0000 C   0  0  0  0  0  0  0  0  0  0  0  0
   -7.9457   -1.1725    0.0000 C   0  0  0  0  0  0  0  0  0  0  0  0
   -8.9267   -2.3073    0.0000 C   0  0  0  0  0  0  0  0  0  0  0  0
   -9.9077   -3.4420    0.0000 N   0  0  0  0  0  0  0  0  0  0  0  0
  1  2  1  0
  2  3  2  0
  1  4  1  0
  5  1  1  0
  6  4  1  0
  7  5  1  0
  8  6  1  0
  7  8  2  0
  9  7  1  0
 10  8  1  0
 11  9  2  0
 12 10  2  0
 11 12  1  0
 13 11  1  0
 13 14  1  0
 15 13  2  0
 14 16  1  0
 16 17  1  0
 17 18  2  0
 17 19  1  0
 18 20  1  0
 19 21  2  0
 20 22  2  0
 21 22  1  0
  2 23  1  0
 23 24  1  0
 24 25  1  0
 25 26  1  0
 26 27  3  0
M  END
>  <Rank>  (77) 
77

>  <CR_ID>  (77) 
R-011776

>  <Acid_Name>  (77) 
R-011776

>  <SMILES>  (77) 
N#CCCCC(=O)N1CCc2ccc(C(=O)NCc3ccccc3)nc2C1

>  <MPO_Score>  (77) 
0.8015

>  <MW>  (77) 
362.17

>  <cLogP>  (77) 
2.59 ± 0.40

>  <TPSA>  (77) 
86.1

>  <HBD>  (77) 
1

>  <HBA>  (77) 
4

>  <RotBonds>  (77) 
6

>  <Fsp3>  (77) 
0.333

>  <NumArRings>  (77) 
2

>  <logS_ESOL>  (77) 
-3.65 ± 0.93 log(mol/L)

>  <logS_AD>  (77) 
In

>  <logS_model>  (77) 
ESOL/Delaney-2004 (linear, n=1144, RMSE=0.93 log-units)

>  <logPapp_PAMPA>  (77) 
-5.85 ± 0.80 log(cm/s)

>  <logPapp_class>  (77) 
Medium

>  <logPapp_AD>  (77) 
In

>  <logPapp_model>  (77) 
Hou-2004 PAMPA linear (RMSE=0.8, n=100)

>  <MetStab_score>  (77) 
1.000 (0-1 scale)

>  <MetStab_t12>  (77) 
High (t½>60 min HLM)

>  <Clearance_route>  (77) 
CYP2D6/3A4 (basic-N + Ar)

>  <Met_alerts>  (77) 
None

>  <MetStab_model>  (77) 
Rule-based HLM classifier (cLogP+Fsp3+Ar-rings+alerts; heuristic ±1 class)

>  <CYP_risk>  (77) 
Low

>  <CYP_alerts>  (77) 
None

>  <CYP2D6_flag>  (77) 
False

>  <CYP3A4_flag>  (77) 
False

>  <CYP2C9_flag>  (77) 
False

>  <CYP_model>  (77) 
SMARTS alert panel (pharmacophore-based; flag only – no IC50 predicted)

>  <PPB_pct>  (77) 
96.7 ± 10 %

>  <PPB_fu>  (77) 
0.0331

>  <PPB_class>  (77) 
Very high (>95%)

>  <PPB_AD>  (77) 
In

>  <PPB_model>  (77) 
Valko-2003 logP-linear (RMSE≈10% PPB, n=87)

>  <hERG_risk>  (77) 
Medium

>  <hERG_model>  (77) 
Structural-alert + cLogP (Redfern-2003 anchor; ±1 class)

>  <des_sol>  (77) 
0.740

>  <des_logp>  (77) 
1.000

>  <des_perm>  (77) 
0.767

>  <des_met>  (77) 
1.000

>  <des_cyp>  (77) 
1.000

>  <des_ppb>  (77) 
0.700

>  <des_herg>  (77) 
0.500

>  <des_mw>  (77) 
0.811

$$$$

     RDKit          2D

 29 32  0  0  0  0  0  0  0  0999 V2000
   -3.1445   -1.3240    0.0000 N   0  0  0  0  0  0  0  0  0  0  0  0
   -4.5773   -0.8803    0.0000 C   0  0  0  0  0  0  0  0  0  0  0  0
   -5.6780   -1.8993    0.0000 O   0  0  0  0  0  0  0  0  0  0  0  0
   -2.8123   -2.7868    0.0000 C   0  0  0  0  0  0  0  0  0  0  0  0
   -2.0437   -0.3050    0.0000 C   0  0  0  0  0  0  0  0  0  0  0  0
   -1.3794   -3.2305    0.0000 C   0  0  0  0  0  0  0  0  0  0  0  0
   -0.6109   -0.7487    0.0000 C   0  0  0  0  0  0  0  0  0  0  0  0
   -0.2787   -2.2114    0.0000 C   0  0  0  0  0  0  0  0  0  0  0  0
    0.4898    0.2704    0.0000 N   0  0  0  0  0  0  0  0  0  0  0  0
    1.1541   -2.6552    0.0000 C   0  0  0  0  0  0  0  0  0  0  0  0
    1.9227   -0.1734    0.0000 C   0  0  0  0  0  0  0  0  0  0  0  0
    2.2549   -1.6361    0.0000 C   0  0  0  0  0  0  0  0  0  0  0  0
    3.0234    0.8457    0.0000 C   0  0  0  0  0  0  0  0  0  0  0  0
    4.4563    0.4019    0.0000 N   0  0  0  0  0  0  0  0  0  0  0  0
    2.6912    2.3084    0.0000 O   0  0  0  0  0  0  0  0  0  0  0  0
    5.5570    1.4210    0.0000 C   0  0  0  0  0  0  0  0  0  0  0  0
    6.9898    0.9773    0.0000 C   0  0  0  0  0  0  0  0  0  0  0  0
    7.3220   -0.4855    0.0000 C   0  0  0  0  0  0  0  0  0  0  0  0
    8.0906    1.9963    0.0000 C   0  0  0  0  0  0  0  0  0  0  0  0
    8.7549   -0.9292    0.0000 C   0  0  0  0  0  0  0  0  0  0  0  0
    9.5234    1.5526    0.0000 C   0  0  0  0  0  0  0  0  0  0  0  0
    9.8556    0.0898    0.0000 C   0  0  0  0  0  0  0  0  0  0  0  0
   -4.9095    0.5825    0.0000 C   0  0  0  0  0  0  0  0  0  0  0  0
   -6.3424    1.0262    0.0000 C   0  0  0  0  0  0  0  0  0  0  0  0
   -6.6745    2.4890    0.0000 C   0  0  0  0  0  0  0  0  0  0  0  0
   -7.4431    0.0072    0.0000 C   0  0  0  0  0  0  0  0  0  0  0  0
   -8.1074    2.9327    0.0000 C   0  0  0  0  0  0  0  0  0  0  0  0
   -8.8759    0.4509    0.0000 C   0  0  0  0  0  0  0  0  0  0  0  0
   -9.2081    1.9136    0.0000 C   0  0  0  0  0  0  0  0  0  0  0  0
  1  2  1  0
  2  3  2  0
  1  4  1  0
  5  1  1  0
  6  4  1  0
  7  5  1  0
  8  6  1  0
  7  8  2  0
  9  7  1  0
 10  8  1  0
 11  9  2  0
 12 10  2  0
 11 12  1  0
 13 11  1  0
 13 14  1  0
 15 13  2  0
 14 16  1  0
 16 17  1  0
 17 18  2  0
 17 19  1  0
 18 20  1  0
 19 21  2  0
 20 22  2  0
 21 22  1  0
  2 23  1  0
 23 24  1  0
 24 25  2  0
 24 26  1  0
 25 27  1  0
 26 28  2  0
 27 29  2  0
 28 29  1  0
M  END
>  <Rank>  (78) 
78

>  <CR_ID>  (78) 
R-004910

>  <Acid_Name>  (78) 
R-004910

>  <SMILES>  (78) 
O=C(NCc1ccccc1)c1ccc2c(n1)CN(C(=O)Cc1ccccc1)CC2

>  <MPO_Score>  (78) 
0.8015

>  <MW>  (78) 
385.18

>  <cLogP>  (78) 
3.14 ± 0.40

>  <TPSA>  (78) 
62.3

>  <HBD>  (78) 
1

>  <HBA>  (78) 
3

>  <RotBonds>  (78) 
5

>  <Fsp3>  (78) 
0.208

>  <NumArRings>  (78) 
3

>  <logS_ESOL>  (78) 
-4.33 ± 0.93 log(mol/L)

>  <logS_AD>  (78) 
In

>  <logS_model>  (78) 
ESOL/Delaney-2004 (linear, n=1144, RMSE=0.93 log-units)

>  <logPapp_PAMPA>  (78) 
-5.22 ± 0.80 log(cm/s)

>  <logPapp_class>  (78) 
High

>  <logPapp_AD>  (78) 
In

>  <logPapp_model>  (78) 
Hou-2004 PAMPA linear (RMSE=0.8, n=100)

>  <MetStab_score>  (78) 
1.000 (0-1 scale)

>  <MetStab_t12>  (78) 
High (t½>60 min HLM)

>  <Clearance_route>  (78) 
CYP2D6/3A4 (basic-N + Ar)

>  <Met_alerts>  (78) 
None

>  <MetStab_model>  (78) 
Rule-based HLM classifier (cLogP+Fsp3+Ar-rings+alerts; heuristic ±1 class)

>  <CYP_risk>  (78) 
Low

>  <CYP_alerts>  (78) 
None

>  <CYP2D6_flag>  (78) 
False

>  <CYP3A4_flag>  (78) 
False

>  <CYP2C9_flag>  (78) 
False

>  <CYP_model>  (78) 
SMARTS alert panel (pharmacophore-based; flag only – no IC50 predicted)

>  <PPB_pct>  (78) 
98.6 ± 10 %

>  <PPB_fu>  (78) 
0.0136

>  <PPB_class>  (78) 
Very high (>95%)

>  <PPB_AD>  (78) 
In

>  <PPB_model>  (78) 
Valko-2003 logP-linear (RMSE≈10% PPB, n=87)

>  <hERG_risk>  (78) 
Medium

>  <hERG_model>  (78) 
Structural-alert + cLogP (Redfern-2003 anchor; ±1 class)

>  <des_sol>  (78) 
0.468

>  <des_logp>  (78) 
1.000

>  <des_perm>  (78) 
1.000

>  <des_met>  (78) 
1.000

>  <des_cyp>  (78) 
1.000

>  <des_ppb>  (78) 
0.700

>  <des_herg>  (78) 
0.500

>  <des_mw>  (78) 
0.926

$$$$

     RDKit          2D

 29 32  0  0  0  0  0  0  0  0999 V2000
   -3.5171   -1.6172    0.0000 N   0  0  0  0  0  0  0  0  0  0  0  0
   -4.9611   -1.2113    0.0000 C   0  0  0  0  0  0  0  0  0  0  0  0
   -6.0346   -2.2589    0.0000 O   0  0  0  0  0  0  0  0  0  0  0  0
   -3.1465   -3.0707    0.0000 C   0  0  0  0  0  0  0  0  0  0  0  0
   -2.4435   -0.5695    0.0000 C   0  0  0  0  0  0  0  0  0  0  0  0
   -1.7025   -3.4765    0.0000 C   0  0  0  0  0  0  0  0  0  0  0  0
   -0.9995   -0.9754    0.0000 C   0  0  0  0  0  0  0  0  0  0  0  0
   -0.6290   -2.4289    0.0000 C   0  0  0  0  0  0  0  0  0  0  0  0
    0.0740    0.0723    0.0000 N   0  0  0  0  0  0  0  0  0  0  0  0
    0.8151   -2.8348    0.0000 C   0  0  0  0  0  0  0  0  0  0  0  0
    1.5181   -0.3336    0.0000 C   0  0  0  0  0  0  0  0  0  0  0  0
    1.8886   -1.7871    0.0000 C   0  0  0  0  0  0  0  0  0  0  0  0
    2.5916    0.7140    0.0000 C   0  0  0  0  0  0  0  0  0  0  0  0
    4.0356    0.3081    0.0000 N   0  0  0  0  0  0  0  0  0  0  0  0
    2.2211    2.1675    0.0000 O   0  0  0  0  0  0  0  0  0  0  0  0
    5.1092    1.3558    0.0000 C   0  0  0  0  0  0  0  0  0  0  0  0
    6.5532    0.9499    0.0000 C   0  0  0  0  0  0  0  0  0  0  0  0
    6.9237   -0.5036    0.0000 C   0  0  0  0  0  0  0  0  0  0  0  0
    7.6267    1.9976    0.0000 C   0  0  0  0  0  0  0  0  0  0  0  0
    8.3678   -0.9095    0.0000 C   0  0  0  0  0  0  0  0  0  0  0  0
    9.0708    1.5917    0.0000 C   0  0  0  0  0  0  0  0  0  0  0  0
    9.4413    0.1382    0.0000 C   0  0  0  0  0  0  0  0  0  0  0  0
   -5.3316    0.2422    0.0000 C   0  0  0  0  0  0  0  0  0  0  0  0
   -4.2581    1.2899    0.0000 N   0  0  0  0  0  0  0  0  0  0  0  0
   -6.7757    0.6481    0.0000 C   0  0  0  0  0  0  0  0  0  0  0  0
   -4.6286    2.7434    0.0000 C   0  0  0  0  0  0  0  0  0  0  0  0
   -7.1462    2.1016    0.0000 C   0  0  0  0  0  0  0  0  0  0  0  0
   -6.0727    3.1493    0.0000 C   0  0  0  0  0  0  0  0  0  0  0  0
   -8.5902    2.5075    0.0000 C   0  0  0  0  0  0  0  0  0  0  0  0
  1  2  1  0
  2  3  2  0
  1  4  1  0
  5  1  1  0
  6  4  1  0
  7  5  1  0
  8  6  1  0
  7  8  2  0
  9  7  1  0
 10  8  1  0
 11  9  2  0
 12 10  2  0
 11 12  1  0
 13 11  1  0
 13 14  1  0
 15 13  2  0
 14 16  1  0
 16 17  1  0
 17 18  2  0
 17 19  1  0
 18 20  1  0
 19 21  2  0
 20 22  2  0
 21 22  1  0
  2 23  1  0
 23 24  2  0
 23 25  1  0
 24 26  1  0
 25 27  2  0
 26 28  2  0
 27 29  1  0
 27 28  1  0
M  END
>  <Rank>  (79) 
79

>  <CR_ID>  (79) 
R-010754

>  <Acid_Name>  (79) 
R-010754

>  <SMILES>  (79) 
Cc1ccnc(C(=O)N2CCc3ccc(C(=O)NCc4ccccc4)nc3C2)c1

>  <MPO_Score>  (79) 
0.8013

>  <MW>  (79) 
386.17

>  <cLogP>  (79) 
2.91 ± 0.40

>  <TPSA>  (79) 
75.2

>  <HBD>  (79) 
1

>  <HBA>  (79) 
4

>  <RotBonds>  (79) 
4

>  <Fsp3>  (79) 
0.217

>  <NumArRings>  (79) 
3

>  <logS_ESOL>  (79) 
-4.27 ± 0.93 log(mol/L)

>  <logS_AD>  (79) 
In

>  <logS_model>  (79) 
ESOL/Delaney-2004 (linear, n=1144, RMSE=0.93 log-units)

>  <logPapp_PAMPA>  (79) 
-5.54 ± 0.80 log(cm/s)

>  <logPapp_class>  (79) 
Medium

>  <logPapp_AD>  (79) 
In

>  <logPapp_model>  (79) 
Hou-2004 PAMPA linear (RMSE=0.8, n=100)

>  <MetStab_score>  (79) 
1.000 (0-1 scale)

>  <MetStab_t12>  (79) 
High (t½>60 min HLM)

>  <Clearance_route>  (79) 
CYP2D6/3A4 (basic-N + Ar)

>  <Met_alerts>  (79) 
Ar-CH3: CYP soft spot

>  <MetStab_model>  (79) 
Rule-based HLM classifier (cLogP+Fsp3+Ar-rings+alerts; heuristic ±1 class)

>  <CYP_risk>  (79) 
Low

>  <CYP_alerts>  (79) 
None

>  <CYP2D6_flag>  (79) 
False

>  <CYP3A4_flag>  (79) 
False

>  <CYP2C9_flag>  (79) 
False

>  <CYP_model>  (79) 
SMARTS alert panel (pharmacophore-based; flag only – no IC50 predicted)

>  <PPB_pct>  (79) 
98.0 ± 10 %

>  <PPB_fu>  (79) 
0.0197

>  <PPB_class>  (79) 
Very high (>95%)

>  <PPB_AD>  (79) 
In

>  <PPB_model>  (79) 
Valko-2003 logP-linear (RMSE≈10% PPB, n=87)

>  <hERG_risk>  (79) 
Medium

>  <hERG_model>  (79) 
Structural-alert + cLogP (Redfern-2003 anchor; ±1 class)

>  <des_sol>  (79) 
0.492

>  <des_logp>  (79) 
1.000

>  <des_perm>  (79) 
0.973

>  <des_met>  (79) 
1.000

>  <des_cyp>  (79) 
1.000

>  <des_ppb>  (79) 
0.700

>  <des_herg>  (79) 
0.500

>  <des_mw>  (79) 
0.931

$$$$

     RDKit          2D

 29 32  0  0  0  0  0  0  0  0999 V2000
   -3.5171   -1.6172    0.0000 N   0  0  0  0  0  0  0  0  0  0  0  0
   -4.9611   -1.2113    0.0000 C   0  0  0  0  0  0  0  0  0  0  0  0
   -6.0346   -2.2589    0.0000 O   0  0  0  0  0  0  0  0  0  0  0  0
   -3.1465   -3.0707    0.0000 C   0  0  0  0  0  0  0  0  0  0  0  0
   -2.4435   -0.5695    0.0000 C   0  0  0  0  0  0  0  0  0  0  0  0
   -1.7025   -3.4765    0.0000 C   0  0  0  0  0  0  0  0  0  0  0  0
   -0.9995   -0.9754    0.0000 C   0  0  0  0  0  0  0  0  0  0  0  0
   -0.6290   -2.4289    0.0000 C   0  0  0  0  0  0  0  0  0  0  0  0
    0.0740    0.0723    0.0000 N   0  0  0  0  0  0  0  0  0  0  0  0
    0.8151   -2.8348    0.0000 C   0  0  0  0  0  0  0  0  0  0  0  0
    1.5181   -0.3336    0.0000 C   0  0  0  0  0  0  0  0  0  0  0  0
    1.8886   -1.7871    0.0000 C   0  0  0  0  0  0  0  0  0  0  0  0
    2.5916    0.7140    0.0000 C   0  0  0  0  0  0  0  0  0  0  0  0
    4.0356    0.3081    0.0000 N   0  0  0  0  0  0  0  0  0  0  0  0
    2.2211    2.1675    0.0000 O   0  0  0  0  0  0  0  0  0  0  0  0
    5.1092    1.3558    0.0000 C   0  0  0  0  0  0  0  0  0  0  0  0
    6.5532    0.9499    0.0000 C   0  0  0  0  0  0  0  0  0  0  0  0
    6.9237   -0.5036    0.0000 C   0  0  0  0  0  0  0  0  0  0  0  0
    7.6267    1.9976    0.0000 C   0  0  0  0  0  0  0  0  0  0  0  0
    8.3678   -0.9095    0.0000 C   0  0  0  0  0  0  0  0  0  0  0  0
    9.0708    1.5917    0.0000 C   0  0  0  0  0  0  0  0  0  0  0  0
    9.4413    0.1382    0.0000 C   0  0  0  0  0  0  0  0  0  0  0  0
   -5.3316    0.2422    0.0000 C   0  0  0  0  0  0  0  0  0  0  0  0
   -4.2581    1.2899    0.0000 C   0  0  0  0  0  0  0  0  0  0  0  0
   -6.7757    0.6481    0.0000 C   0  0  0  0  0  0  0  0  0  0  0  0
   -4.6286    2.7434    0.0000 N   0  0  0  0  0  0  0  0  0  0  0  0
   -7.1462    2.1016    0.0000 C   0  0  0  0  0  0  0  0  0  0  0  0
   -6.0727    3.1493    0.0000 C   0  0  0  0  0  0  0  0  0  0  0  0
   -8.5902    2.5075    0.0000 C   0  0  0  0  0  0  0  0  0  0  0  0
  1  2  1  0
  2  3  2  0
  1  4  1  0
  5  1  1  0
  6  4  1  0
  7  5  1  0
  8  6  1  0
  7  8  2  0
  9  7  1  0
 10  8  1  0
 11  9  2  0
 12 10  2  0
 11 12  1  0
 13 11  1  0
 13 14  1  0
 15 13  2  0
 14 16  1  0
 16 17  1  0
 17 18  2  0
 17 19  1  0
 18 20  1  0
 19 21  2  0
 20 22  2  0
 21 22  1  0
  2 23  1  0
 23 24  2  0
 23 25  1  0
 24 26  1  0
 25 27  2  0
 26 28  2  0
 27 29  1  0
 27 28  1  0
M  END
>  <Rank>  (80) 
80

>  <CR_ID>  (80) 
R-005178

>  <Acid_Name>  (80) 
R-005178

>  <SMILES>  (80) 
Cc1cncc(C(=O)N2CCc3ccc(C(=O)NCc4ccccc4)nc3C2)c1

>  <MPO_Score>  (80) 
0.8013

>  <MW>  (80) 
386.17

>  <cLogP>  (80) 
2.91 ± 0.40

>  <TPSA>  (80) 
75.2

>  <HBD>  (80) 
1

>  <HBA>  (80) 
4

>  <RotBonds>  (80) 
4

>  <Fsp3>  (80) 
0.217

>  <NumArRings>  (80) 
3

>  <logS_ESOL>  (80) 
-4.27 ± 0.93 log(mol/L)

>  <logS_AD>  (80) 
In

>  <logS_model>  (80) 
ESOL/Delaney-2004 (linear, n=1144, RMSE=0.93 log-units)

>  <logPapp_PAMPA>  (80) 
-5.54 ± 0.80 log(cm/s)

>  <logPapp_class>  (80) 
Medium

>  <logPapp_AD>  (80) 
In

>  <logPapp_model>  (80) 
Hou-2004 PAMPA linear (RMSE=0.8, n=100)

>  <MetStab_score>  (80) 
1.000 (0-1 scale)

>  <MetStab_t12>  (80) 
High (t½>60 min HLM)

>  <Clearance_route>  (80) 
CYP2D6/3A4 (basic-N + Ar)

>  <Met_alerts>  (80) 
Ar-CH3: CYP soft spot

>  <MetStab_model>  (80) 
Rule-based HLM classifier (cLogP+Fsp3+Ar-rings+alerts; heuristic ±1 class)

>  <CYP_risk>  (80) 
Low

>  <CYP_alerts>  (80) 
None

>  <CYP2D6_flag>  (80) 
False

>  <CYP3A4_flag>  (80) 
False

>  <CYP2C9_flag>  (80) 
False

>  <CYP_model>  (80) 
SMARTS alert panel (pharmacophore-based; flag only – no IC50 predicted)

>  <PPB_pct>  (80) 
98.0 ± 10 %

>  <PPB_fu>  (80) 
0.0197

>  <PPB_class>  (80) 
Very high (>95%)

>  <PPB_AD>  (80) 
In

>  <PPB_model>  (80) 
Valko-2003 logP-linear (RMSE≈10% PPB, n=87)

>  <hERG_risk>  (80) 
Medium

>  <hERG_model>  (80) 
Structural-alert + cLogP (Redfern-2003 anchor; ±1 class)

>  <des_sol>  (80) 
0.492

>  <des_logp>  (80) 
1.000

>  <des_perm>  (80) 
0.973

>  <des_met>  (80) 
1.000

>  <des_cyp>  (80) 
1.000

>  <des_ppb>  (80) 
0.700

>  <des_herg>  (80) 
0.500

>  <des_mw>  (80) 
0.931

$$$$

     RDKit          2D

 29 32  0  0  0  0  0  0  0  0999 V2000
   -3.5702   -1.7331    0.0000 N   0  0  0  0  0  0  0  0  0  0  0  0
   -5.0191   -1.3449    0.0000 C   0  0  0  0  0  0  0  0  0  0  0  0
   -6.0798   -2.4055    0.0000 O   0  0  0  0  0  0  0  0  0  0  0  0
   -3.1820   -3.1820    0.0000 C   0  0  0  0  0  0  0  0  0  0  0  0
   -2.5095   -0.6724    0.0000 C   0  0  0  0  0  0  0  0  0  0  0  0
   -1.7331   -3.5702    0.0000 C   0  0  0  0  0  0  0  0  0  0  0  0
   -1.0607   -1.0607    0.0000 C   0  0  0  0  0  0  0  0  0  0  0  0
   -0.6724   -2.5095    0.0000 C   0  0  0  0  0  0  0  0  0  0  0  0
    0.0000    0.0000    0.0000 N   0  0  0  0  0  0  0  0  0  0  0  0
    0.7765   -2.8978    0.0000 C   0  0  0  0  0  0  0  0  0  0  0  0
    1.4489   -0.3882    0.0000 C   0  0  0  0  0  0  0  0  0  0  0  0
    1.8371   -1.8371    0.0000 C   0  0  0  0  0  0  0  0  0  0  0  0
    2.5095    0.6724    0.0000 C   0  0  0  0  0  0  0  0  0  0  0  0
    3.9584    0.2842    0.0000 N   0  0  0  0  0  0  0  0  0  0  0  0
    2.1213    2.1213    0.0000 O   0  0  0  0  0  0  0  0  0  0  0  0
    5.0191    1.3449    0.0000 C   0  0  0  0  0  0  0  0  0  0  0  0
    6.4680    0.9566    0.0000 C   0  0  0  0  0  0  0  0  0  0  0  0
    6.8562   -0.4923    0.0000 C   0  0  0  0  0  0  0  0  0  0  0  0
    7.5286    2.0173    0.0000 C   0  0  0  0  0  0  0  0  0  0  0  0
    8.3051   -0.8805    0.0000 C   0  0  0  0  0  0  0  0  0  0  0  0
    8.9775    1.6291    0.0000 C   0  0  0  0  0  0  0  0  0  0  0  0
    9.3658    0.1802    0.0000 C   0  0  0  0  0  0  0  0  0  0  0  0
   -5.4073    0.1040    0.0000 C   0  0  0  0  0  0  0  0  0  0  0  0
   -4.3467    1.1647    0.0000 C   0  0  0  0  0  0  0  0  0  0  0  0
   -6.8562    0.4923    0.0000 C   0  0  0  0  0  0  0  0  0  0  0  0
   -4.7349    2.6136    0.0000 N   0  0  0  0  0  0  0  0  0  0  0  0
   -7.2444    1.9411    0.0000 C   0  0  0  0  0  0  0  0  0  0  0  0
   -6.1838    3.0018    0.0000 C   0  0  0  0  0  0  0  0  0  0  0  0
   -6.5720    4.4507    0.0000 C   0  0  0  0  0  0  0  0  0  0  0  0
  1  2  1  0
  2  3  2  0
  1  4  1  0
  5  1  1  0
  6  4  1  0
  7  5  1  0
  8  6  1  0
  7  8  2  0
  9  7  1  0
 10  8  1  0
 11  9  2  0
 12 10  2  0
 11 12  1  0
 13 11  1  0
 13 14  1  0
 15 13  2  0
 14 16  1  0
 16 17  1  0
 17 18  2  0
 17 19  1  0
 18 20  1  0
 19 21  2  0
 20 22  2  0
 21 22  1  0
  2 23  1  0
 23 24  2  0
 23 25  1  0
 24 26  1  0
 25 27  2  0
 26 28  2  0
 27 28  1  0
 28 29  1  0
M  END
>  <Rank>  (81) 
81

>  <CR_ID>  (81) 
R-005046

>  <Acid_Name>  (81) 
R-005046

>  <SMILES>  (81) 
Cc1ccc(C(=O)N2CCc3ccc(C(=O)NCc4ccccc4)nc3C2)cn1

>  <MPO_Score>  (81) 
0.8013

>  <MW>  (81) 
386.17

>  <cLogP>  (81) 
2.91 ± 0.40

>  <TPSA>  (81) 
75.2

>  <HBD>  (81) 
1

>  <HBA>  (81) 
4

>  <RotBonds>  (81) 
4

>  <Fsp3>  (81) 
0.217

>  <NumArRings>  (81) 
3

>  <logS_ESOL>  (81) 
-4.27 ± 0.93 log(mol/L)

>  <logS_AD>  (81) 
In

>  <logS_model>  (81) 
ESOL/Delaney-2004 (linear, n=1144, RMSE=0.93 log-units)

>  <logPapp_PAMPA>  (81) 
-5.54 ± 0.80 log(cm/s)

>  <logPapp_class>  (81) 
Medium

>  <logPapp_AD>  (81) 
In

>  <logPapp_model>  (81) 
Hou-2004 PAMPA linear (RMSE=0.8, n=100)

>  <MetStab_score>  (81) 
1.000 (0-1 scale)

>  <MetStab_t12>  (81) 
High (t½>60 min HLM)

>  <Clearance_route>  (81) 
CYP2D6/3A4 (basic-N + Ar)

>  <Met_alerts>  (81) 
Ar-CH3: CYP soft spot

>  <MetStab_model>  (81) 
Rule-based HLM classifier (cLogP+Fsp3+Ar-rings+alerts; heuristic ±1 class)

>  <CYP_risk>  (81) 
Low

>  <CYP_alerts>  (81) 
None

>  <CYP2D6_flag>  (81) 
False

>  <CYP3A4_flag>  (81) 
False

>  <CYP2C9_flag>  (81) 
False

>  <CYP_model>  (81) 
SMARTS alert panel (pharmacophore-based; flag only – no IC50 predicted)

>  <PPB_pct>  (81) 
98.0 ± 10 %

>  <PPB_fu>  (81) 
0.0197

>  <PPB_class>  (81) 
Very high (>95%)

>  <PPB_AD>  (81) 
In

>  <PPB_model>  (81) 
Valko-2003 logP-linear (RMSE≈10% PPB, n=87)

>  <hERG_risk>  (81) 
Medium

>  <hERG_model>  (81) 
Structural-alert + cLogP (Redfern-2003 anchor; ±1 class)

>  <des_sol>  (81) 
0.492

>  <des_logp>  (81) 
1.000

>  <des_perm>  (81) 
0.973

>  <des_met>  (81) 
1.000

>  <des_cyp>  (81) 
1.000

>  <des_ppb>  (81) 
0.700

>  <des_herg>  (81) 
0.500

>  <des_mw>  (81) 
0.931

$$$$

     RDKit          2D

 29 32  0  0  0  0  0  0  0  0999 V2000
   -3.1445   -1.3240    0.0000 N   0  0  0  0  0  0  0  0  0  0  0  0
   -4.5773   -0.8803    0.0000 C   0  0  0  0  0  0  0  0  0  0  0  0
   -5.6780   -1.8993    0.0000 O   0  0  0  0  0  0  0  0  0  0  0  0
   -2.8123   -2.7868    0.0000 C   0  0  0  0  0  0  0  0  0  0  0  0
   -2.0437   -0.3050    0.0000 C   0  0  0  0  0  0  0  0  0  0  0  0
   -1.3794   -3.2305    0.0000 C   0  0  0  0  0  0  0  0  0  0  0  0
   -0.6109   -0.7487    0.0000 C   0  0  0  0  0  0  0  0  0  0  0  0
   -0.2787   -2.2114    0.0000 C   0  0  0  0  0  0  0  0  0  0  0  0
    0.4898    0.2704    0.0000 N   0  0  0  0  0  0  0  0  0  0  0  0
    1.1541   -2.6552    0.0000 C   0  0  0  0  0  0  0  0  0  0  0  0
    1.9227   -0.1734    0.0000 C   0  0  0  0  0  0  0  0  0  0  0  0
    2.2549   -1.6361    0.0000 C   0  0  0  0  0  0  0  0  0  0  0  0
    3.0234    0.8457    0.0000 C   0  0  0  0  0  0  0  0  0  0  0  0
    4.4563    0.4019    0.0000 N   0  0  0  0  0  0  0  0  0  0  0  0
    2.6912    2.3084    0.0000 O   0  0  0  0  0  0  0  0  0  0  0  0
    5.5570    1.4210    0.0000 C   0  0  0  0  0  0  0  0  0  0  0  0
    6.9898    0.9773    0.0000 C   0  0  0  0  0  0  0  0  0  0  0  0
    7.3220   -0.4855    0.0000 C   0  0  0  0  0  0  0  0  0  0  0  0
    8.0906    1.9963    0.0000 C   0  0  0  0  0  0  0  0  0  0  0  0
    8.7549   -0.9292    0.0000 C   0  0  0  0  0  0  0  0  0  0  0  0
    9.5234    1.5526    0.0000 C   0  0  0  0  0  0  0  0  0  0  0  0
    9.8556    0.0898    0.0000 C   0  0  0  0  0  0  0  0  0  0  0  0
   -4.9095    0.5825    0.0000 C   0  0  0  0  0  0  0  0  0  0  0  0
   -6.3424    1.0262    0.0000 C   0  0  0  0  0  0  0  0  0  0  0  0
   -6.6745    2.4890    0.0000 C   0  0  0  0  0  0  0  0  0  0  0  0
   -7.4431    0.0072    0.0000 C   0  0  0  0  0  0  0  0  0  0  0  0
   -8.1074    2.9327    0.0000 N   0  0  0  0  0  0  0  0  0  0  0  0
   -8.8759    0.4509    0.0000 C   0  0  0  0  0  0  0  0  0  0  0  0
   -9.2081    1.9136    0.0000 C   0  0  0  0  0  0  0  0  0  0  0  0
  1  2  1  0
  2  3  2  0
  1  4  1  0
  5  1  1  0
  6  4  1  0
  7  5  1  0
  8  6  1  0
  7  8  2  0
  9  7  1  0
 10  8  1  0
 11  9  2  0
 12 10  2  0
 11 12  1  0
 13 11  1  0
 13 14  1  0
 15 13  2  0
 14 16  1  0
 16 17  1  0
 17 18  2  0
 17 19  1  0
 18 20  1  0
 19 21  2  0
 20 22  2  0
 21 22  1  0
  2 23  1  0
 23 24  1  0
 24 25  2  0
 24 26  1  0
 25 27  1  0
 26 28  2  0
 27 29  2  0
 28 29  1  0
M  END
>  <Rank>  (82) 
82

>  <CR_ID>  (82) 
R-003326

>  <Acid_Name>  (82) 
R-003326

>  <SMILES>  (82) 
O=C(NCc1ccccc1)c1ccc2c(n1)CN(C(=O)Cc1cccnc1)CC2

>  <MPO_Score>  (82) 
0.8009

>  <MW>  (82) 
386.17

>  <cLogP>  (82) 
2.53 ± 0.40

>  <TPSA>  (82) 
75.2

>  <HBD>  (82) 
1

>  <HBA>  (82) 
4

>  <RotBonds>  (82) 
5

>  <Fsp3>  (82) 
0.217

>  <NumArRings>  (82) 
3

>  <logS_ESOL>  (82) 
-3.96 ± 0.93 log(mol/L)

>  <logS_AD>  (82) 
In

>  <logS_model>  (82) 
ESOL/Delaney-2004 (linear, n=1144, RMSE=0.93 log-units)

>  <logPapp_PAMPA>  (82) 
-5.73 ± 0.80 log(cm/s)

>  <logPapp_class>  (82) 
Medium

>  <logPapp_AD>  (82) 
In

>  <logPapp_model>  (82) 
Hou-2004 PAMPA linear (RMSE=0.8, n=100)

>  <MetStab_score>  (82) 
1.000 (0-1 scale)

>  <MetStab_t12>  (82) 
High (t½>60 min HLM)

>  <Clearance_route>  (82) 
CYP2D6/3A4 (basic-N + Ar)

>  <Met_alerts>  (82) 
None

>  <MetStab_model>  (82) 
Rule-based HLM classifier (cLogP+Fsp3+Ar-rings+alerts; heuristic ±1 class)

>  <CYP_risk>  (82) 
Low

>  <CYP_alerts>  (82) 
None

>  <CYP2D6_flag>  (82) 
False

>  <CYP3A4_flag>  (82) 
False

>  <CYP2C9_flag>  (82) 
False

>  <CYP_model>  (82) 
SMARTS alert panel (pharmacophore-based; flag only – no IC50 predicted)

>  <PPB_pct>  (82) 
96.4 ± 10 %

>  <PPB_fu>  (82) 
0.0363

>  <PPB_class>  (82) 
Very high (>95%)

>  <PPB_AD>  (82) 
In

>  <PPB_model>  (82) 
Valko-2003 logP-linear (RMSE≈10% PPB, n=87)

>  <hERG_risk>  (82) 
Medium

>  <hERG_model>  (82) 
Structural-alert + cLogP (Redfern-2003 anchor; ±1 class)

>  <des_sol>  (82) 
0.616

>  <des_logp>  (82) 
1.000

>  <des_perm>  (82) 
0.847

>  <des_met>  (82) 
1.000

>  <des_cyp>  (82) 
1.000

>  <des_ppb>  (82) 
0.700

>  <des_herg>  (82) 
0.500

>  <des_mw>  (82) 
0.931

$$$$

     RDKit          2D

 28 31  0  0  0  0  0  0  0  0999 V2000
   -3.7884   -1.4720    0.0000 N   0  0  0  0  0  0  0  0  0  0  0  0
   -5.2244   -1.0385    0.0000 C   0  0  0  0  0  0  0  0  0  0  0  0
   -6.3178   -2.0653    0.0000 O   0  0  0  0  0  0  0  0  0  0  0  0
   -3.4458   -2.9323    0.0000 C   0  0  0  0  0  0  0  0  0  0  0  0
   -2.6949   -0.4451    0.0000 C   0  0  0  0  0  0  0  0  0  0  0  0
   -2.0098   -3.3659    0.0000 C   0  0  0  0  0  0  0  0  0  0  0  0
   -1.2589   -0.8787    0.0000 C   0  0  0  0  0  0  0  0  0  0  0  0
   -0.9164   -2.3390    0.0000 C   0  0  0  0  0  0  0  0  0  0  0  0
   -0.1655    0.1482    0.0000 N   0  0  0  0  0  0  0  0  0  0  0  0
    0.5196   -2.7725    0.0000 C   0  0  0  0  0  0  0  0  0  0  0  0
    1.2705   -0.2853    0.0000 C   0  0  0  0  0  0  0  0  0  0  0  0
    1.6130   -1.7457    0.0000 C   0  0  0  0  0  0  0  0  0  0  0  0
    2.3639    0.7415    0.0000 C   0  0  0  0  0  0  0  0  0  0  0  0
    3.7999    0.3080    0.0000 N   0  0  0  0  0  0  0  0  0  0  0  0
    2.0213    2.2019    0.0000 O   0  0  0  0  0  0  0  0  0  0  0  0
    4.8933    1.3349    0.0000 C   0  0  0  0  0  0  0  0  0  0  0  0
    6.3293    0.9014    0.0000 C   0  0  0  0  0  0  0  0  0  0  0  0
    6.6719   -0.5590    0.0000 C   0  0  0  0  0  0  0  0  0  0  0  0
    7.4227    1.9282    0.0000 C   0  0  0  0  0  0  0  0  0  0  0  0
    8.1079   -0.9925    0.0000 C   0  0  0  0  0  0  0  0  0  0  0  0
    8.8587    1.4947    0.0000 C   0  0  0  0  0  0  0  0  0  0  0  0
    9.2013    0.0343    0.0000 C   0  0  0  0  0  0  0  0  0  0  0  0
   -5.5669    0.4219    0.0000 C   0  0  0  0  0  0  0  0  0  0  0  0
   -6.9497    1.0031    0.0000 O   0  0  0  0  0  0  0  0  0  0  0  0
   -4.5868    1.5574    0.0000 C   0  0  0  0  0  0  0  0  0  0  0  0
   -6.8243    2.4979    0.0000 C   0  0  0  0  0  0  0  0  0  0  0  0
   -5.3639    2.8404    0.0000 C   0  0  0  0  0  0  0  0  0  0  0  0
   -7.9598    3.4780    0.0000 C   0  0  0  0  0  0  0  0  0  0  0  0
  1  2  1  0
  2  3  2  0
  1  4  1  0
  5  1  1  0
  6  4  1  0
  7  5  1  0
  8  6  1  0
  7  8  2  0
  9  7  1  0
 10  8  1  0
 11  9  2  0
 12 10  2  0
 11 12  1  0
 13 11  1  0
 13 14  1  0
 15 13  2  0
 14 16  1  0
 16 17  1  0
 17 18  2  0
 17 19  1  0
 18 20  1  0
 19 21  2  0
 20 22  2  0
 21 22  1  0
  2 23  1  0
 23 24  1  0
 23 25  2  0
 24 26  1  0
 25 27  1  0
 26 28  1  0
 26 27  2  0
M  END
>  <Rank>  (83) 
83

>  <CR_ID>  (83) 
R-000235

>  <Acid_Name>  (83) 
R-000235

>  <SMILES>  (83) 
Cc1ccc(C(=O)N2CCc3ccc(C(=O)NCc4ccccc4)nc3C2)o1

>  <MPO_Score>  (83) 
0.8002

>  <MW>  (83) 
375.16

>  <cLogP>  (83) 
3.11 ± 0.40

>  <TPSA>  (83) 
75.4

>  <HBD>  (83) 
1

>  <HBA>  (83) 
4

>  <RotBonds>  (83) 
4

>  <Fsp3>  (83) 
0.227

>  <NumArRings>  (83) 
3

>  <logS_ESOL>  (83) 
-4.31 ± 0.93 log(mol/L)

>  <logS_AD>  (83) 
In

>  <logS_model>  (83) 
ESOL/Delaney-2004 (linear, n=1144, RMSE=0.93 log-units)

>  <logPapp_PAMPA>  (83) 
-5.43 ± 0.80 log(cm/s)

>  <logPapp_class>  (83) 
High

>  <logPapp_AD>  (83) 
In

>  <logPapp_model>  (83) 
Hou-2004 PAMPA linear (RMSE=0.8, n=100)

>  <MetStab_score>  (83) 
1.000 (0-1 scale)

>  <MetStab_t12>  (83) 
High (t½>60 min HLM)

>  <Clearance_route>  (83) 
CYP2D6/3A4 (basic-N + Ar)

>  <Met_alerts>  (83) 
Ar-CH3: CYP soft spot

>  <MetStab_model>  (83) 
Rule-based HLM classifier (cLogP+Fsp3+Ar-rings+alerts; heuristic ±1 class)

>  <CYP_risk>  (83) 
Low

>  <CYP_alerts>  (83) 
None

>  <CYP2D6_flag>  (83) 
False

>  <CYP3A4_flag>  (83) 
False

>  <CYP2C9_flag>  (83) 
False

>  <CYP_model>  (83) 
SMARTS alert panel (pharmacophore-based; flag only – no IC50 predicted)

>  <PPB_pct>  (83) 
98.6 ± 10 %

>  <PPB_fu>  (83) 
0.0142

>  <PPB_class>  (83) 
Very high (>95%)

>  <PPB_AD>  (83) 
In

>  <PPB_model>  (83) 
Valko-2003 logP-linear (RMSE≈10% PPB, n=87)

>  <hERG_risk>  (83) 
Medium

>  <hERG_model>  (83) 
Structural-alert + cLogP (Redfern-2003 anchor; ±1 class)

>  <des_sol>  (83) 
0.476

>  <des_logp>  (83) 
1.000

>  <des_perm>  (83) 
1.000

>  <des_met>  (83) 
1.000

>  <des_cyp>  (83) 
1.000

>  <des_ppb>  (83) 
0.700

>  <des_herg>  (83) 
0.500

>  <des_mw>  (83) 
0.876

$$$$

     RDKit          2D

 28 31  0  0  0  0  0  0  0  0999 V2000
   -4.0116   -1.2504    0.0000 N   0  0  0  0  0  0  0  0  0  0  0  0
   -5.4304   -0.7637    0.0000 C   0  0  0  0  0  0  0  0  0  0  0  0
   -6.5613   -1.7491    0.0000 O   0  0  0  0  0  0  0  0  0  0  0  0
   -3.7236   -2.7225    0.0000 C   0  0  0  0  0  0  0  0  0  0  0  0
   -2.8806   -0.2650    0.0000 C   0  0  0  0  0  0  0  0  0  0  0  0
   -2.3048   -3.2092    0.0000 C   0  0  0  0  0  0  0  0  0  0  0  0
   -1.4618   -0.7517    0.0000 C   0  0  0  0  0  0  0  0  0  0  0  0
   -1.1738   -2.2238    0.0000 C   0  0  0  0  0  0  0  0  0  0  0  0
   -0.3309    0.2338    0.0000 N   0  0  0  0  0  0  0  0  0  0  0  0
    0.2450   -2.7105    0.0000 C   0  0  0  0  0  0  0  0  0  0  0  0
    1.0880   -0.2529    0.0000 C   0  0  0  0  0  0  0  0  0  0  0  0
    1.3759   -1.7250    0.0000 C   0  0  0  0  0  0  0  0  0  0  0  0
    2.2189    0.7325    0.0000 C   0  0  0  0  0  0  0  0  0  0  0  0
    3.6377    0.2458    0.0000 N   0  0  0  0  0  0  0  0  0  0  0  0
    1.9309    2.2046    0.0000 O   0  0  0  0  0  0  0  0  0  0  0  0
    4.7686    1.2312    0.0000 C   0  0  0  0  0  0  0  0  0  0  0  0
    6.1875    0.7446    0.0000 C   0  0  0  0  0  0  0  0  0  0  0  0
    6.4754   -0.7275    0.0000 C   0  0  0  0  0  0  0  0  0  0  0  0
    7.3184    1.7300    0.0000 C   0  0  0  0  0  0  0  0  0  0  0  0
    7.8943   -1.2142    0.0000 C   0  0  0  0  0  0  0  0  0  0  0  0
    8.7372    1.2433    0.0000 C   0  0  0  0  0  0  0  0  0  0  0  0
    9.0252   -0.2288    0.0000 C   0  0  0  0  0  0  0  0  0  0  0  0
   -5.7184    0.7084    0.0000 C   0  0  0  0  0  0  0  0  0  0  0  0
   -7.0786    1.3407    0.0000 O   0  0  0  0  0  0  0  0  0  0  0  0
   -4.6966    1.8066    0.0000 C   0  0  0  0  0  0  0  0  0  0  0  0
   -6.8975    2.8297    0.0000 C   0  0  0  0  0  0  0  0  0  0  0  0
   -5.4254    3.1177    0.0000 C   0  0  0  0  0  0  0  0  0  0  0  0
   -3.2076    1.6256    0.0000 C   0  0  0  0  0  0  0  0  0  0  0  0
  1  2  1  0
  2  3  2  0
  1  4  1  0
  5  1  1  0
  6  4  1  0
  7  5  1  0
  8  6  1  0
  7  8  2  0
  9  7  1  0
 10  8  1  0
 11  9  2  0
 12 10  2  0
 11 12  1  0
 13 11  1  0
 13 14  1  0
 15 13  2  0
 14 16  1  0
 16 17  1  0
 17 18  2  0
 17 19  1  0
 18 20  1  0
 19 21  2  0
 20 22  2  0
 21 22  1  0
  2 23  1  0
 23 24  1  0
 23 25  2  0
 24 26  1  0
 25 27  1  0
 25 28  1  0
 26 27  2  0
M  END
>  <Rank>  (84) 
84

>  <CR_ID>  (84) 
R-005384

>  <Acid_Name>  (84) 
R-005384

>  <SMILES>  (84) 
Cc1ccoc1C(=O)N1CCc2ccc(C(=O)NCc3ccccc3)nc2C1

>  <MPO_Score>  (84) 
0.8002

>  <MW>  (84) 
375.16

>  <cLogP>  (84) 
3.11 ± 0.40

>  <TPSA>  (84) 
75.4

>  <HBD>  (84) 
1

>  <HBA>  (84) 
4

>  <RotBonds>  (84) 
4

>  <Fsp3>  (84) 
0.227

>  <NumArRings>  (84) 
3

>  <logS_ESOL>  (84) 
-4.31 ± 0.93 log(mol/L)

>  <logS_AD>  (84) 
In

>  <logS_model>  (84) 
ESOL/Delaney-2004 (linear, n=1144, RMSE=0.93 log-units)

>  <logPapp_PAMPA>  (84) 
-5.43 ± 0.80 log(cm/s)

>  <logPapp_class>  (84) 
High

>  <logPapp_AD>  (84) 
In

>  <logPapp_model>  (84) 
Hou-2004 PAMPA linear (RMSE=0.8, n=100)

>  <MetStab_score>  (84) 
1.000 (0-1 scale)

>  <MetStab_t12>  (84) 
High (t½>60 min HLM)

>  <Clearance_route>  (84) 
CYP2D6/3A4 (basic-N + Ar)

>  <Met_alerts>  (84) 
Ar-CH3: CYP soft spot

>  <MetStab_model>  (84) 
Rule-based HLM classifier (cLogP+Fsp3+Ar-rings+alerts; heuristic ±1 class)

>  <CYP_risk>  (84) 
Low

>  <CYP_alerts>  (84) 
None

>  <CYP2D6_flag>  (84) 
False

>  <CYP3A4_flag>  (84) 
False

>  <CYP2C9_flag>  (84) 
False

>  <CYP_model>  (84) 
SMARTS alert panel (pharmacophore-based; flag only – no IC50 predicted)

>  <PPB_pct>  (84) 
98.6 ± 10 %

>  <PPB_fu>  (84) 
0.0142

>  <PPB_class>  (84) 
Very high (>95%)

>  <PPB_AD>  (84) 
In

>  <PPB_model>  (84) 
Valko-2003 logP-linear (RMSE≈10% PPB, n=87)

>  <hERG_risk>  (84) 
Medium

>  <hERG_model>  (84) 
Structural-alert + cLogP (Redfern-2003 anchor; ±1 class)

>  <des_sol>  (84) 
0.476

>  <des_logp>  (84) 
1.000

>  <des_perm>  (84) 
1.000

>  <des_met>  (84) 
1.000

>  <des_cyp>  (84) 
1.000

>  <des_ppb>  (84) 
0.700

>  <des_herg>  (84) 
0.500

>  <des_mw>  (84) 
0.876

$$$$

     RDKit          2D

 28 31  0  0  0  0  0  0  0  0999 V2000
   -3.8263   -1.2148    0.0000 N   0  0  0  0  0  0  0  0  0  0  0  0
   -5.2452   -0.7283    0.0000 C   0  0  0  0  0  0  0  0  0  0  0  0
   -6.3760   -1.7139    0.0000 O   0  0  0  0  0  0  0  0  0  0  0  0
   -3.5381   -2.6869    0.0000 C   0  0  0  0  0  0  0  0  0  0  0  0
   -2.6955   -0.2292    0.0000 C   0  0  0  0  0  0  0  0  0  0  0  0
   -2.1192   -3.1733    0.0000 C   0  0  0  0  0  0  0  0  0  0  0  0
   -1.2766   -0.7157    0.0000 C   0  0  0  0  0  0  0  0  0  0  0  0
   -0.9884   -2.1877    0.0000 C   0  0  0  0  0  0  0  0  0  0  0  0
   -0.1459    0.2699    0.0000 N   0  0  0  0  0  0  0  0  0  0  0  0
    0.4305   -2.6742    0.0000 C   0  0  0  0  0  0  0  0  0  0  0  0
    1.2731   -0.2165    0.0000 C   0  0  0  0  0  0  0  0  0  0  0  0
    1.5612   -1.6886    0.0000 C   0  0  0  0  0  0  0  0  0  0  0  0
    2.4038    0.7691    0.0000 C   0  0  0  0  0  0  0  0  0  0  0  0
    3.8227    0.2826    0.0000 N   0  0  0  0  0  0  0  0  0  0  0  0
    2.1156    2.2411    0.0000 O   0  0  0  0  0  0  0  0  0  0  0  0
    4.9535    1.2682    0.0000 C   0  0  0  0  0  0  0  0  0  0  0  0
    6.3724    0.7817    0.0000 C   0  0  0  0  0  0  0  0  0  0  0  0
    6.6606   -0.6903    0.0000 C   0  0  0  0  0  0  0  0  0  0  0  0
    7.5032    1.7673    0.0000 C   0  0  0  0  0  0  0  0  0  0  0  0
    8.0795   -1.1768    0.0000 C   0  0  0  0  0  0  0  0  0  0  0  0
    8.9221    1.2809    0.0000 C   0  0  0  0  0  0  0  0  0  0  0  0
    9.2103   -0.1912    0.0000 C   0  0  0  0  0  0  0  0  0  0  0  0
   -5.5334    0.7437    0.0000 C   0  0  0  0  0  0  0  0  0  0  0  0
   -6.8937    1.3758    0.0000 C   0  0  0  0  0  0  0  0  0  0  0  0
   -4.5119    1.8421    0.0000 C   0  0  0  0  0  0  0  0  0  0  0  0
   -6.7129    2.8649    0.0000 O   0  0  0  0  0  0  0  0  0  0  0  0
   -8.2047    0.6469    0.0000 C   0  0  0  0  0  0  0  0  0  0  0  0
   -5.2408    3.1531    0.0000 C   0  0  0  0  0  0  0  0  0  0  0  0
  1  2  1  0
  2  3  2  0
  1  4  1  0
  5  1  1  0
  6  4  1  0
  7  5  1  0
  8  6  1  0
  7  8  2  0
  9  7  1  0
 10  8  1  0
 11  9  2  0
 12 10  2  0
 11 12  1  0
 13 11  1  0
 13 14  1  0
 15 13  2  0
 14 16  1  0
 16 17  1  0
 17 18  2  0
 17 19  1  0
 18 20  1  0
 19 21  2  0
 20 22  2  0
 21 22  1  0
  2 23  1  0
 23 24  2  0
 23 25  1  0
 24 26  1  0
 24 27  1  0
 25 28  2  0
 26 28  1  0
M  END
>  <Rank>  (85) 
85

>  <CR_ID>  (85) 
R-007558

>  <Acid_Name>  (85) 
R-007558

>  <SMILES>  (85) 
Cc1occc1C(=O)N1CCc2ccc(C(=O)NCc3ccccc3)nc2C1

>  <MPO_Score>  (85) 
0.8002

>  <MW>  (85) 
375.16

>  <cLogP>  (85) 
3.11 ± 0.40

>  <TPSA>  (85) 
75.4

>  <HBD>  (85) 
1

>  <HBA>  (85) 
4

>  <RotBonds>  (85) 
4

>  <Fsp3>  (85) 
0.227

>  <NumArRings>  (85) 
3

>  <logS_ESOL>  (85) 
-4.31 ± 0.93 log(mol/L)

>  <logS_AD>  (85) 
In

>  <logS_model>  (85) 
ESOL/Delaney-2004 (linear, n=1144, RMSE=0.93 log-units)

>  <logPapp_PAMPA>  (85) 
-5.43 ± 0.80 log(cm/s)

>  <logPapp_class>  (85) 
High

>  <logPapp_AD>  (85) 
In

>  <logPapp_model>  (85) 
Hou-2004 PAMPA linear (RMSE=0.8, n=100)

>  <MetStab_score>  (85) 
1.000 (0-1 scale)

>  <MetStab_t12>  (85) 
High (t½>60 min HLM)

>  <Clearance_route>  (85) 
CYP2D6/3A4 (basic-N + Ar)

>  <Met_alerts>  (85) 
Ar-CH3: CYP soft spot

>  <MetStab_model>  (85) 
Rule-based HLM classifier (cLogP+Fsp3+Ar-rings+alerts; heuristic ±1 class)

>  <CYP_risk>  (85) 
Low

>  <CYP_alerts>  (85) 
None

>  <CYP2D6_flag>  (85) 
False

>  <CYP3A4_flag>  (85) 
False

>  <CYP2C9_flag>  (85) 
False

>  <CYP_model>  (85) 
SMARTS alert panel (pharmacophore-based; flag only – no IC50 predicted)

>  <PPB_pct>  (85) 
98.6 ± 10 %

>  <PPB_fu>  (85) 
0.0142

>  <PPB_class>  (85) 
Very high (>95%)

>  <PPB_AD>  (85) 
In

>  <PPB_model>  (85) 
Valko-2003 logP-linear (RMSE≈10% PPB, n=87)

>  <hERG_risk>  (85) 
Medium

>  <hERG_model>  (85) 
Structural-alert + cLogP (Redfern-2003 anchor; ±1 class)

>  <des_sol>  (85) 
0.476

>  <des_logp>  (85) 
1.000

>  <des_perm>  (85) 
1.000

>  <des_met>  (85) 
1.000

>  <des_cyp>  (85) 
1.000

>  <des_ppb>  (85) 
0.700

>  <des_herg>  (85) 
0.500

>  <des_mw>  (85) 
0.876

$$$$

     RDKit          2D

 28 31  0  0  0  0  0  0  0  0999 V2000
   -3.8736   -1.3967    0.0000 N   0  0  0  0  0  0  0  0  0  0  0  0
   -5.3030   -0.9420    0.0000 C   0  0  0  0  0  0  0  0  0  0  0  0
   -6.4115   -1.9526    0.0000 O   0  0  0  0  0  0  0  0  0  0  0  0
   -3.5527   -2.8620    0.0000 C   0  0  0  0  0  0  0  0  0  0  0  0
   -2.7650   -0.3862    0.0000 C   0  0  0  0  0  0  0  0  0  0  0  0
   -2.1232   -3.3167    0.0000 C   0  0  0  0  0  0  0  0  0  0  0  0
   -1.3356   -0.8409    0.0000 C   0  0  0  0  0  0  0  0  0  0  0  0
   -1.0147   -2.3062    0.0000 C   0  0  0  0  0  0  0  0  0  0  0  0
   -0.2271    0.1696    0.0000 N   0  0  0  0  0  0  0  0  0  0  0  0
    0.4147   -2.7609    0.0000 C   0  0  0  0  0  0  0  0  0  0  0  0
    1.2023   -0.2851    0.0000 C   0  0  0  0  0  0  0  0  0  0  0  0
    1.5232   -1.7504    0.0000 C   0  0  0  0  0  0  0  0  0  0  0  0
    2.3108    0.7254    0.0000 C   0  0  0  0  0  0  0  0  0  0  0  0
    3.7402    0.2707    0.0000 N   0  0  0  0  0  0  0  0  0  0  0  0
    1.9899    2.1907    0.0000 O   0  0  0  0  0  0  0  0  0  0  0  0
    4.8487    1.2813    0.0000 C   0  0  0  0  0  0  0  0  0  0  0  0
    6.2781    0.8265    0.0000 C   0  0  0  0  0  0  0  0  0  0  0  0
    6.5990   -0.6387    0.0000 C   0  0  0  0  0  0  0  0  0  0  0  0
    7.3867    1.8371    0.0000 C   0  0  0  0  0  0  0  0  0  0  0  0
    8.0285   -1.0935    0.0000 C   0  0  0  0  0  0  0  0  0  0  0  0
    8.8161    1.3823    0.0000 C   0  0  0  0  0  0  0  0  0  0  0  0
    9.1370   -0.0829    0.0000 C   0  0  0  0  0  0  0  0  0  0  0  0
   -5.6239    0.5233    0.0000 C   0  0  0  0  0  0  0  0  0  0  0  0
   -4.5154    1.5338    0.0000 C   0  0  0  0  0  0  0  0  0  0  0  0
   -7.0533    0.9780    0.0000 C   0  0  0  0  0  0  0  0  0  0  0  0
   -4.8363    2.9991    0.0000 C   0  0  0  0  0  0  0  0  0  0  0  0
   -7.3742    2.4433    0.0000 C   0  0  0  0  0  0  0  0  0  0  0  0
   -6.2657    3.4538    0.0000 N   0  0  0  0  0  0  0  0  0  0  0  0
  1  2  1  0
  2  3  2  0
  1  4  1  0
  5  1  1  0
  6  4  1  0
  7  5  1  0
  8  6  1  0
  7  8  2  0
  9  7  1  0
 10  8  1  0
 11  9  2  0
 12 10  2  0
 11 12  1  0
 13 11  1  0
 13 14  1  0
 15 13  2  0
 14 16  1  0
 16 17  1  0
 17 18  2  0
 17 19  1  0
 18 20  1  0
 19 21  2  0
 20 22  2  0
 21 22  1  0
  2 23  1  0
 23 24  2  0
 23 25  1  0
 24 26  1  0
 25 27  2  0
 26 28  2  0
 27 28  1  0
M  END
>  <Rank>  (86) 
86

>  <CR_ID>  (86) 
R-004104

>  <Acid_Name>  (86) 
R-004104

>  <SMILES>  (86) 
O=C(NCc1ccccc1)c1ccc2c(n1)CN(C(=O)c1ccncc1)CC2

>  <MPO_Score>  (86) 
0.8000

>  <MW>  (86) 
372.16

>  <cLogP>  (86) 
2.61 ± 0.40

>  <TPSA>  (86) 
75.2

>  <HBD>  (86) 
1

>  <HBA>  (86) 
4

>  <RotBonds>  (86) 
4

>  <Fsp3>  (86) 
0.182

>  <NumArRings>  (86) 
3

>  <logS_ESOL>  (86) 
-4.00 ± 0.93 log(mol/L)

>  <logS_AD>  (86) 
In

>  <logS_model>  (86) 
ESOL/Delaney-2004 (linear, n=1144, RMSE=0.93 log-units)

>  <logPapp_PAMPA>  (86) 
-5.68 ± 0.80 log(cm/s)

>  <logPapp_class>  (86) 
Medium

>  <logPapp_AD>  (86) 
In

>  <logPapp_model>  (86) 
Hou-2004 PAMPA linear (RMSE=0.8, n=100)

>  <MetStab_score>  (86) 
1.000 (0-1 scale)

>  <MetStab_t12>  (86) 
High (t½>60 min HLM)

>  <Clearance_route>  (86) 
CYP2D6/3A4 (basic-N + Ar)

>  <Met_alerts>  (86) 
None

>  <MetStab_model>  (86) 
Rule-based HLM classifier (cLogP+Fsp3+Ar-rings+alerts; heuristic ±1 class)

>  <CYP_risk>  (86) 
Low

>  <CYP_alerts>  (86) 
None

>  <CYP2D6_flag>  (86) 
False

>  <CYP3A4_flag>  (86) 
False

>  <CYP2C9_flag>  (86) 
False

>  <CYP_model>  (86) 
SMARTS alert panel (pharmacophore-based; flag only – no IC50 predicted)

>  <PPB_pct>  (86) 
96.8 ± 10 %

>  <PPB_fu>  (86) 
0.0324

>  <PPB_class>  (86) 
Very high (>95%)

>  <PPB_AD>  (86) 
In

>  <PPB_model>  (86) 
Valko-2003 logP-linear (RMSE≈10% PPB, n=87)

>  <hERG_risk>  (86) 
Medium

>  <hERG_model>  (86) 
Structural-alert + cLogP (Redfern-2003 anchor; ±1 class)

>  <des_sol>  (86) 
0.600

>  <des_logp>  (86) 
1.000

>  <des_perm>  (86) 
0.880

>  <des_met>  (86) 
1.000

>  <des_cyp>  (86) 
1.000

>  <des_ppb>  (86) 
0.700

>  <des_herg>  (86) 
0.500

>  <des_mw>  (86) 
0.861

$$$$

     RDKit          2D

 28 31  0  0  0  0  0  0  0  0999 V2000
   -3.8736   -1.3967    0.0000 N   0  0  0  0  0  0  0  0  0  0  0  0
   -5.3030   -0.9420    0.0000 C   0  0  0  0  0  0  0  0  0  0  0  0
   -6.4115   -1.9526    0.0000 O   0  0  0  0  0  0  0  0  0  0  0  0
   -3.5527   -2.8620    0.0000 C   0  0  0  0  0  0  0  0  0  0  0  0
   -2.7650   -0.3862    0.0000 C   0  0  0  0  0  0  0  0  0  0  0  0
   -2.1232   -3.3167    0.0000 C   0  0  0  0  0  0  0  0  0  0  0  0
   -1.3356   -0.8409    0.0000 C   0  0  0  0  0  0  0  0  0  0  0  0
   -1.0147   -2.3062    0.0000 C   0  0  0  0  0  0  0  0  0  0  0  0
   -0.2271    0.1696    0.0000 N   0  0  0  0  0  0  0  0  0  0  0  0
    0.4147   -2.7609    0.0000 C   0  0  0  0  0  0  0  0  0  0  0  0
    1.2023   -0.2851    0.0000 C   0  0  0  0  0  0  0  0  0  0  0  0
    1.5232   -1.7504    0.0000 C   0  0  0  0  0  0  0  0  0  0  0  0
    2.3108    0.7254    0.0000 C   0  0  0  0  0  0  0  0  0  0  0  0
    3.7402    0.2707    0.0000 N   0  0  0  0  0  0  0  0  0  0  0  0
    1.9899    2.1907    0.0000 O   0  0  0  0  0  0  0  0  0  0  0  0
    4.8487    1.2813    0.0000 C   0  0  0  0  0  0  0  0  0  0  0  0
    6.2781    0.8265    0.0000 C   0  0  0  0  0  0  0  0  0  0  0  0
    6.5990   -0.6387    0.0000 C   0  0  0  0  0  0  0  0  0  0  0  0
    7.3867    1.8371    0.0000 C   0  0  0  0  0  0  0  0  0  0  0  0
    8.0285   -1.0935    0.0000 C   0  0  0  0  0  0  0  0  0  0  0  0
    8.8161    1.3823    0.0000 C   0  0  0  0  0  0  0  0  0  0  0  0
    9.1370   -0.0829    0.0000 C   0  0  0  0  0  0  0  0  0  0  0  0
   -5.6239    0.5233    0.0000 C   0  0  0  0  0  0  0  0  0  0  0  0
   -4.5154    1.5338    0.0000 N   0  0  0  0  0  0  0  0  0  0  0  0
   -7.0533    0.9780    0.0000 C   0  0  0  0  0  0  0  0  0  0  0  0
   -4.8363    2.9991    0.0000 C   0  0  0  0  0  0  0  0  0  0  0  0
   -7.3742    2.4433    0.0000 C   0  0  0  0  0  0  0  0  0  0  0  0
   -6.2657    3.4538    0.0000 C   0  0  0  0  0  0  0  0  0  0  0  0
  1  2  1  0
  2  3  2  0
  1  4  1  0
  5  1  1  0
  6  4  1  0
  7  5  1  0
  8  6  1  0
  7  8  2  0
  9  7  1  0
 10  8  1  0
 11  9  2  0
 12 10  2  0
 11 12  1  0
 13 11  1  0
 13 14  1  0
 15 13  2  0
 14 16  1  0
 16 17  1  0
 17 18  2  0
 17 19  1  0
 18 20  1  0
 19 21  2  0
 20 22  2  0
 21 22  1  0
  2 23  1  0
 23 24  2  0
 23 25  1  0
 24 26  1  0
 25 27  2  0
 26 28  2  0
 27 28  1  0
M  END
>  <Rank>  (87) 
87

>  <CR_ID>  (87) 
R-004459

>  <Acid_Name>  (87) 
R-004459

>  <SMILES>  (87) 
O=C(NCc1ccccc1)c1ccc2c(n1)CN(C(=O)c1ccccn1)CC2

>  <MPO_Score>  (87) 
0.8000

>  <MW>  (87) 
372.16

>  <cLogP>  (87) 
2.61 ± 0.40

>  <TPSA>  (87) 
75.2

>  <HBD>  (87) 
1

>  <HBA>  (87) 
4

>  <RotBonds>  (87) 
4

>  <Fsp3>  (87) 
0.182

>  <NumArRings>  (87) 
3

>  <logS_ESOL>  (87) 
-4.00 ± 0.93 log(mol/L)

>  <logS_AD>  (87) 
In

>  <logS_model>  (87) 
ESOL/Delaney-2004 (linear, n=1144, RMSE=0.93 log-units)

>  <logPapp_PAMPA>  (87) 
-5.68 ± 0.80 log(cm/s)

>  <logPapp_class>  (87) 
Medium

>  <logPapp_AD>  (87) 
In

>  <logPapp_model>  (87) 
Hou-2004 PAMPA linear (RMSE=0.8, n=100)

>  <MetStab_score>  (87) 
1.000 (0-1 scale)

>  <MetStab_t12>  (87) 
High (t½>60 min HLM)

>  <Clearance_route>  (87) 
CYP2D6/3A4 (basic-N + Ar)

>  <Met_alerts>  (87) 
None

>  <MetStab_model>  (87) 
Rule-based HLM classifier (cLogP+Fsp3+Ar-rings+alerts; heuristic ±1 class)

>  <CYP_risk>  (87) 
Low

>  <CYP_alerts>  (87) 
None

>  <CYP2D6_flag>  (87) 
False

>  <CYP3A4_flag>  (87) 
False

>  <CYP2C9_flag>  (87) 
False

>  <CYP_model>  (87) 
SMARTS alert panel (pharmacophore-based; flag only – no IC50 predicted)

>  <PPB_pct>  (87) 
96.8 ± 10 %

>  <PPB_fu>  (87) 
0.0324

>  <PPB_class>  (87) 
Very high (>95%)

>  <PPB_AD>  (87) 
In

>  <PPB_model>  (87) 
Valko-2003 logP-linear (RMSE≈10% PPB, n=87)

>  <hERG_risk>  (87) 
Medium

>  <hERG_model>  (87) 
Structural-alert + cLogP (Redfern-2003 anchor; ±1 class)

>  <des_sol>  (87) 
0.600

>  <des_logp>  (87) 
1.000

>  <des_perm>  (87) 
0.880

>  <des_met>  (87) 
1.000

>  <des_cyp>  (87) 
1.000

>  <des_ppb>  (87) 
0.700

>  <des_herg>  (87) 
0.500

>  <des_mw>  (87) 
0.861

$$$$

     RDKit          2D

 28 31  0  0  0  0  0  0  0  0999 V2000
   -3.8736   -1.3967    0.0000 N   0  0  0  0  0  0  0  0  0  0  0  0
   -5.3030   -0.9420    0.0000 C   0  0  0  0  0  0  0  0  0  0  0  0
   -6.4115   -1.9526    0.0000 O   0  0  0  0  0  0  0  0  0  0  0  0
   -3.5527   -2.8620    0.0000 C   0  0  0  0  0  0  0  0  0  0  0  0
   -2.7650   -0.3862    0.0000 C   0  0  0  0  0  0  0  0  0  0  0  0
   -2.1232   -3.3167    0.0000 C   0  0  0  0  0  0  0  0  0  0  0  0
   -1.3356   -0.8409    0.0000 C   0  0  0  0  0  0  0  0  0  0  0  0
   -1.0147   -2.3062    0.0000 C   0  0  0  0  0  0  0  0  0  0  0  0
   -0.2271    0.1696    0.0000 N   0  0  0  0  0  0  0  0  0  0  0  0
    0.4147   -2.7609    0.0000 C   0  0  0  0  0  0  0  0  0  0  0  0
    1.2023   -0.2851    0.0000 C   0  0  0  0  0  0  0  0  0  0  0  0
    1.5232   -1.7504    0.0000 C   0  0  0  0  0  0  0  0  0  0  0  0
    2.3108    0.7254    0.0000 C   0  0  0  0  0  0  0  0  0  0  0  0
    3.7402    0.2707    0.0000 N   0  0  0  0  0  0  0  0  0  0  0  0
    1.9899    2.1907    0.0000 O   0  0  0  0  0  0  0  0  0  0  0  0
    4.8487    1.2813    0.0000 C   0  0  0  0  0  0  0  0  0  0  0  0
    6.2781    0.8265    0.0000 C   0  0  0  0  0  0  0  0  0  0  0  0
    6.5990   -0.6387    0.0000 C   0  0  0  0  0  0  0  0  0  0  0  0
    7.3867    1.8371    0.0000 C   0  0  0  0  0  0  0  0  0  0  0  0
    8.0285   -1.0935    0.0000 C   0  0  0  0  0  0  0  0  0  0  0  0
    8.8161    1.3823    0.0000 C   0  0  0  0  0  0  0  0  0  0  0  0
    9.1370   -0.0829    0.0000 C   0  0  0  0  0  0  0  0  0  0  0  0
   -5.6239    0.5233    0.0000 C   0  0  0  0  0  0  0  0  0  0  0  0
   -4.5154    1.5338    0.0000 C   0  0  0  0  0  0  0  0  0  0  0  0
   -7.0533    0.9780    0.0000 C   0  0  0  0  0  0  0  0  0  0  0  0
   -4.8363    2.9991    0.0000 N   0  0  0  0  0  0  0  0  0  0  0  0
   -7.3742    2.4433    0.0000 C   0  0  0  0  0  0  0  0  0  0  0  0
   -6.2657    3.4538    0.0000 C   0  0  0  0  0  0  0  0  0  0  0  0
  1  2  1  0
  2  3  2  0
  1  4  1  0
  5  1  1  0
  6  4  1  0
  7  5  1  0
  8  6  1  0
  7  8  2  0
  9  7  1  0
 10  8  1  0
 11  9  2  0
 12 10  2  0
 11 12  1  0
 13 11  1  0
 13 14  1  0
 15 13  2  0
 14 16  1  0
 16 17  1  0
 17 18  2  0
 17 19  1  0
 18 20  1  0
 19 21  2  0
 20 22  2  0
 21 22  1  0
  2 23  1  0
 23 24  2  0
 23 25  1  0
 24 26  1  0
 25 27  2  0
 26 28  2  0
 27 28  1  0
M  END
>  <Rank>  (88) 
88

>  <CR_ID>  (88) 
R-004480

>  <Acid_Name>  (88) 
R-004480

>  <SMILES>  (88) 
O=C(NCc1ccccc1)c1ccc2c(n1)CN(C(=O)c1cccnc1)CC2

>  <MPO_Score>  (88) 
0.8000

>  <MW>  (88) 
372.16

>  <cLogP>  (88) 
2.61 ± 0.40

>  <TPSA>  (88) 
75.2

>  <HBD>  (88) 
1

>  <HBA>  (88) 
4

>  <RotBonds>  (88) 
4

>  <Fsp3>  (88) 
0.182

>  <NumArRings>  (88) 
3

>  <logS_ESOL>  (88) 
-4.00 ± 0.93 log(mol/L)

>  <logS_AD>  (88) 
In

>  <logS_model>  (88) 
ESOL/Delaney-2004 (linear, n=1144, RMSE=0.93 log-units)

>  <logPapp_PAMPA>  (88) 
-5.68 ± 0.80 log(cm/s)

>  <logPapp_class>  (88) 
Medium

>  <logPapp_AD>  (88) 
In

>  <logPapp_model>  (88) 
Hou-2004 PAMPA linear (RMSE=0.8, n=100)

>  <MetStab_score>  (88) 
1.000 (0-1 scale)

>  <MetStab_t12>  (88) 
High (t½>60 min HLM)

>  <Clearance_route>  (88) 
CYP2D6/3A4 (basic-N + Ar)

>  <Met_alerts>  (88) 
None

>  <MetStab_model>  (88) 
Rule-based HLM classifier (cLogP+Fsp3+Ar-rings+alerts; heuristic ±1 class)

>  <CYP_risk>  (88) 
Low

>  <CYP_alerts>  (88) 
None

>  <CYP2D6_flag>  (88) 
False

>  <CYP3A4_flag>  (88) 
False

>  <CYP2C9_flag>  (88) 
False

>  <CYP_model>  (88) 
SMARTS alert panel (pharmacophore-based; flag only – no IC50 predicted)

>  <PPB_pct>  (88) 
96.8 ± 10 %

>  <PPB_fu>  (88) 
0.0324

>  <PPB_class>  (88) 
Very high (>95%)

>  <PPB_AD>  (88) 
In

>  <PPB_model>  (88) 
Valko-2003 logP-linear (RMSE≈10% PPB, n=87)

>  <hERG_risk>  (88) 
Medium

>  <hERG_model>  (88) 
Structural-alert + cLogP (Redfern-2003 anchor; ±1 class)

>  <des_sol>  (88) 
0.600

>  <des_logp>  (88) 
1.000

>  <des_perm>  (88) 
0.880

>  <des_met>  (88) 
1.000

>  <des_cyp>  (88) 
1.000

>  <des_ppb>  (88) 
0.700

>  <des_herg>  (88) 
0.500

>  <des_mw>  (88) 
0.861

$$$$

     RDKit          2D

 29 32  0  0  0  0  0  0  0  0999 V2000
   -3.9650   -1.0491    0.0000 N   0  0  0  0  0  0  0  0  0  0  0  0
   -5.3692   -0.5215    0.0000 C   0  0  0  0  0  0  0  0  0  0  0  0
   -6.5282   -1.4737    0.0000 O   0  0  0  0  0  0  0  0  0  0  0  0
   -3.7199   -2.5289    0.0000 C   0  0  0  0  0  0  0  0  0  0  0  0
   -2.8060   -0.0969    0.0000 C   0  0  0  0  0  0  0  0  0  0  0  0
   -2.3157   -3.0565    0.0000 C   0  0  0  0  0  0  0  0  0  0  0  0
   -1.4019   -0.6245    0.0000 C   0  0  0  0  0  0  0  0  0  0  0  0
   -1.1567   -2.1043    0.0000 C   0  0  0  0  0  0  0  0  0  0  0  0
   -0.2429    0.3277    0.0000 N   0  0  0  0  0  0  0  0  0  0  0  0
    0.2474   -2.6319    0.0000 C   0  0  0  0  0  0  0  0  0  0  0  0
    1.1613   -0.1999    0.0000 C   0  0  0  0  0  0  0  0  0  0  0  0
    1.4064   -1.6797    0.0000 C   0  0  0  0  0  0  0  0  0  0  0  0
    2.3203    0.7523    0.0000 C   0  0  0  0  0  0  0  0  0  0  0  0
    3.7244    0.2247    0.0000 N   0  0  0  0  0  0  0  0  0  0  0  0
    2.0751    2.2322    0.0000 O   0  0  0  0  0  0  0  0  0  0  0  0
    4.8834    1.1770    0.0000 C   0  0  0  0  0  0  0  0  0  0  0  0
    6.2875    0.6493    0.0000 C   0  0  0  0  0  0  0  0  0  0  0  0
    6.5327   -0.8305    0.0000 C   0  0  0  0  0  0  0  0  0  0  0  0
    7.4465    1.6016    0.0000 C   0  0  0  0  0  0  0  0  0  0  0  0
    7.9368   -1.3581    0.0000 C   0  0  0  0  0  0  0  0  0  0  0  0
    8.8507    1.0739    0.0000 C   0  0  0  0  0  0  0  0  0  0  0  0
    9.0958   -0.4059    0.0000 C   0  0  0  0  0  0  0  0  0  0  0  0
   -5.6143    0.9583    0.0000 C   0  0  0  0  0  0  0  0  0  0  0  0
   -4.1995    1.4567    0.0000 C   0  0  0  0  0  0  0  0  0  0  0  0
   -6.3508    2.2651    0.0000 C   0  0  0  0  0  0  0  0  0  0  0  0
   -7.1142    0.9739    0.0000 C   0  0  0  0  0  0  0  0  0  0  0  0
   -2.7848    1.9551    0.0000 F   0  0  0  0  0  0  0  0  0  0  0  0
   -4.6979    2.8715    0.0000 F   0  0  0  0  0  0  0  0  0  0  0  0
   -3.7012    0.0420    0.0000 F   0  0  0  0  0  0  0  0  0  0  0  0
  1  2  1  0
  2  3  2  0
  1  4  1  0
  5  1  1  0
  6  4  1  0
  7  5  1  0
  8  6  1  0
  7  8  2  0
  9  7  1  0
 10  8  1  0
 11  9  2  0
 12 10  2  0
 11 12  1  0
 13 11  1  0
 13 14  1  0
 15 13  2  0
 14 16  1  0
 16 17  1  0
 17 18  2  0
 17 19  1  0
 18 20  1  0
 19 21  2  0
 20 22  2  0
 21 22  1  0
 23  2  1  0
 24 23  1  0
 23 25  1  0
 23 26  1  0
 27 24  1  0
 24 28  1  0
 24 29  1  0
 25 26  1  0
M  END
>  <Rank>  (89) 
89

>  <CR_ID>  (89) 
R-010356

>  <Acid_Name>  (89) 
R-010356

>  <SMILES>  (89) 
O=C(NCc1ccccc1)c1ccc2c(n1)CN(C(=O)C1(C(F)(F)F)CC1)CC2

>  <MPO_Score>  (89) 
0.7998

>  <MW>  (89) 
403.15

>  <cLogP>  (89) 
3.24 ± 0.40

>  <TPSA>  (89) 
62.3

>  <HBD>  (89) 
1

>  <HBA>  (89) 
3

>  <RotBonds>  (89) 
4

>  <Fsp3>  (89) 
0.381

>  <NumArRings>  (89) 
2

>  <logS_ESOL>  (89) 
-4.42 ± 0.93 log(mol/L)

>  <logS_AD>  (89) 
In

>  <logS_model>  (89) 
ESOL/Delaney-2004 (linear, n=1144, RMSE=0.93 log-units)

>  <logPapp_PAMPA>  (89) 
-5.19 ± 0.80 log(cm/s)

>  <logPapp_class>  (89) 
High

>  <logPapp_AD>  (89) 
In

>  <logPapp_model>  (89) 
Hou-2004 PAMPA linear (RMSE=0.8, n=100)

>  <MetStab_score>  (89) 
1.000 (0-1 scale)

>  <MetStab_t12>  (89) 
High (t½>60 min HLM)

>  <Clearance_route>  (89) 
CYP2D6/3A4 (basic-N + Ar)

>  <Met_alerts>  (89) 
None

>  <MetStab_model>  (89) 
Rule-based HLM classifier (cLogP+Fsp3+Ar-rings+alerts; heuristic ±1 class)

>  <CYP_risk>  (89) 
Low

>  <CYP_alerts>  (89) 
None

>  <CYP2D6_flag>  (89) 
False

>  <CYP3A4_flag>  (89) 
False

>  <CYP2C9_flag>  (89) 
False

>  <CYP_model>  (89) 
SMARTS alert panel (pharmacophore-based; flag only – no IC50 predicted)

>  <PPB_pct>  (89) 
98.8 ± 10 %

>  <PPB_fu>  (89) 
0.0116

>  <PPB_class>  (89) 
Very high (>95%)

>  <PPB_AD>  (89) 
In

>  <PPB_model>  (89) 
Valko-2003 logP-linear (RMSE≈10% PPB, n=87)

>  <hERG_risk>  (89) 
Medium

>  <hERG_model>  (89) 
Structural-alert + cLogP (Redfern-2003 anchor; ±1 class)

>  <des_sol>  (89) 
0.432

>  <des_logp>  (89) 
1.000

>  <des_perm>  (89) 
1.000

>  <des_met>  (89) 
1.000

>  <des_cyp>  (89) 
1.000

>  <des_ppb>  (89) 
0.700

>  <des_herg>  (89) 
0.500

>  <des_mw>  (89) 
1.000

$$$$

     RDKit          2D

 27 30  0  0  0  0  0  0  0  0999 V2000
   -4.1405   -1.1545    0.0000 N   0  0  0  0  0  0  0  0  0  0  0  0
   -5.5551   -0.6556    0.0000 C   0  0  0  0  0  0  0  0  0  0  0  0
   -6.6944   -1.6312    0.0000 O   0  0  0  0  0  0  0  0  0  0  0  0
   -3.8652   -2.6291    0.0000 C   0  0  0  0  0  0  0  0  0  0  0  0
   -3.0011   -0.1789    0.0000 C   0  0  0  0  0  0  0  0  0  0  0  0
   -2.4506   -3.1280    0.0000 C   0  0  0  0  0  0  0  0  0  0  0  0
   -1.5865   -0.6778    0.0000 C   0  0  0  0  0  0  0  0  0  0  0  0
   -1.3113   -2.1523    0.0000 C   0  0  0  0  0  0  0  0  0  0  0  0
   -0.4471    0.2978    0.0000 N   0  0  0  0  0  0  0  0  0  0  0  0
    0.1033   -2.6512    0.0000 C   0  0  0  0  0  0  0  0  0  0  0  0
    0.9675   -0.2011    0.0000 C   0  0  0  0  0  0  0  0  0  0  0  0
    1.2427   -1.6756    0.0000 C   0  0  0  0  0  0  0  0  0  0  0  0
    2.1068    0.7746    0.0000 C   0  0  0  0  0  0  0  0  0  0  0  0
    3.5214    0.2756    0.0000 N   0  0  0  0  0  0  0  0  0  0  0  0
    1.8316    2.2491    0.0000 O   0  0  0  0  0  0  0  0  0  0  0  0
    4.6608    1.2513    0.0000 C   0  0  0  0  0  0  0  0  0  0  0  0
    6.0754    0.7524    0.0000 C   0  0  0  0  0  0  0  0  0  0  0  0
    6.3506   -0.7222    0.0000 C   0  0  0  0  0  0  0  0  0  0  0  0
    7.2148    1.7280    0.0000 C   0  0  0  0  0  0  0  0  0  0  0  0
    7.7652   -1.2211    0.0000 C   0  0  0  0  0  0  0  0  0  0  0  0
    8.6294    1.2291    0.0000 C   0  0  0  0  0  0  0  0  0  0  0  0
    8.9046   -0.2454    0.0000 C   0  0  0  0  0  0  0  0  0  0  0  0
   -5.8303    0.8189    0.0000 C   0  0  0  0  0  0  0  0  0  0  0  0
   -7.1850    1.4630    0.0000 S   0  0  0  0  0  0  0  0  0  0  0  0
   -4.7992    1.9083    0.0000 C   0  0  0  0  0  0  0  0  0  0  0  0
   -6.9911    2.9504    0.0000 C   0  0  0  0  0  0  0  0  0  0  0  0
   -5.5166    3.2256    0.0000 N   0  0  0  0  0  0  0  0  0  0  0  0
  1  2  1  0
  2  3  2  0
  1  4  1  0
  5  1  1  0
  6  4  1  0
  7  5  1  0
  8  6  1  0
  7  8  2  0
  9  7  1  0
 10  8  1  0
 11  9  2  0
 12 10  2  0
 11 12  1  0
 13 11  1  0
 13 14  1  0
 15 13  2  0
 14 16  1  0
 16 17  1  0
 17 18  2  0
 17 19  1  0
 18 20  1  0
 19 21  2  0
 20 22  2  0
 21 22  1  0
 23  2  1  0
 24 23  1  0
 23 25  2  0
 24 26  1  0
 25 27  1  0
 26 27  2  0
M  END
>  <Rank>  (90) 
90

>  <CR_ID>  (90) 
R-010314

>  <Acid_Name>  (90) 
R-010314

>  <SMILES>  (90) 
O=C(NCc1ccccc1)c1ccc2c(n1)CN(C(=O)c1cncs1)CC2

>  <MPO_Score>  (90) 
0.7993

>  <MW>  (90) 
378.12

>  <cLogP>  (90) 
2.67 ± 0.40

>  <TPSA>  (90) 
75.2

>  <HBD>  (90) 
1

>  <HBA>  (90) 
5

>  <RotBonds>  (90) 
4

>  <Fsp3>  (90) 
0.200

>  <NumArRings>  (90) 
3

>  <logS_ESOL>  (90) 
-4.07 ± 0.93 log(mol/L)

>  <logS_AD>  (90) 
In

>  <logS_model>  (90) 
ESOL/Delaney-2004 (linear, n=1144, RMSE=0.93 log-units)

>  <logPapp_PAMPA>  (90) 
-5.66 ± 0.80 log(cm/s)

>  <logPapp_class>  (90) 
Medium

>  <logPapp_AD>  (90) 
In

>  <logPapp_model>  (90) 
Hou-2004 PAMPA linear (RMSE=0.8, n=100)

>  <MetStab_score>  (90) 
1.000 (0-1 scale)

>  <MetStab_t12>  (90) 
High (t½>60 min HLM)

>  <Clearance_route>  (90) 
CYP2D6/3A4 (basic-N + Ar)

>  <Met_alerts>  (90) 
None

>  <MetStab_model>  (90) 
Rule-based HLM classifier (cLogP+Fsp3+Ar-rings+alerts; heuristic ±1 class)

>  <CYP_risk>  (90) 
Low

>  <CYP_alerts>  (90) 
None

>  <CYP2D6_flag>  (90) 
False

>  <CYP3A4_flag>  (90) 
False

>  <CYP2C9_flag>  (90) 
False

>  <CYP_model>  (90) 
SMARTS alert panel (pharmacophore-based; flag only – no IC50 predicted)

>  <PPB_pct>  (90) 
97.1 ± 10 %

>  <PPB_fu>  (90) 
0.0293

>  <PPB_class>  (90) 
Very high (>95%)

>  <PPB_AD>  (90) 
In

>  <PPB_model>  (90) 
Valko-2003 logP-linear (RMSE≈10% PPB, n=87)

>  <hERG_risk>  (90) 
Medium

>  <hERG_model>  (90) 
Structural-alert + cLogP (Redfern-2003 anchor; ±1 class)

>  <des_sol>  (90) 
0.572

>  <des_logp>  (90) 
1.000

>  <des_perm>  (90) 
0.893

>  <des_met>  (90) 
1.000

>  <des_cyp>  (90) 
1.000

>  <des_ppb>  (90) 
0.700

>  <des_herg>  (90) 
0.500

>  <des_mw>  (90) 
0.891

$$$$

     RDKit          2D

 27 30  0  0  0  0  0  0  0  0999 V2000
   -4.1405   -1.1545    0.0000 N   0  0  0  0  0  0  0  0  0  0  0  0
   -5.5551   -0.6556    0.0000 C   0  0  0  0  0  0  0  0  0  0  0  0
   -6.6944   -1.6312    0.0000 O   0  0  0  0  0  0  0  0  0  0  0  0
   -3.8652   -2.6291    0.0000 C   0  0  0  0  0  0  0  0  0  0  0  0
   -3.0011   -0.1789    0.0000 C   0  0  0  0  0  0  0  0  0  0  0  0
   -2.4506   -3.1280    0.0000 C   0  0  0  0  0  0  0  0  0  0  0  0
   -1.5865   -0.6778    0.0000 C   0  0  0  0  0  0  0  0  0  0  0  0
   -1.3113   -2.1523    0.0000 C   0  0  0  0  0  0  0  0  0  0  0  0
   -0.4471    0.2978    0.0000 N   0  0  0  0  0  0  0  0  0  0  0  0
    0.1033   -2.6512    0.0000 C   0  0  0  0  0  0  0  0  0  0  0  0
    0.9675   -0.2011    0.0000 C   0  0  0  0  0  0  0  0  0  0  0  0
    1.2427   -1.6756    0.0000 C   0  0  0  0  0  0  0  0  0  0  0  0
    2.1068    0.7746    0.0000 C   0  0  0  0  0  0  0  0  0  0  0  0
    3.5214    0.2756    0.0000 N   0  0  0  0  0  0  0  0  0  0  0  0
    1.8316    2.2491    0.0000 O   0  0  0  0  0  0  0  0  0  0  0  0
    4.6608    1.2513    0.0000 C   0  0  0  0  0  0  0  0  0  0  0  0
    6.0754    0.7524    0.0000 C   0  0  0  0  0  0  0  0  0  0  0  0
    6.3506   -0.7222    0.0000 C   0  0  0  0  0  0  0  0  0  0  0  0
    7.2148    1.7280    0.0000 C   0  0  0  0  0  0  0  0  0  0  0  0
    7.7652   -1.2211    0.0000 C   0  0  0  0  0  0  0  0  0  0  0  0
    8.6294    1.2291    0.0000 C   0  0  0  0  0  0  0  0  0  0  0  0
    8.9046   -0.2454    0.0000 C   0  0  0  0  0  0  0  0  0  0  0  0
   -5.8303    0.8189    0.0000 C   0  0  0  0  0  0  0  0  0  0  0  0
   -7.1850    1.4630    0.0000 C   0  0  0  0  0  0  0  0  0  0  0  0
   -4.7992    1.9083    0.0000 N   0  0  0  0  0  0  0  0  0  0  0  0
   -6.9911    2.9504    0.0000 S   0  0  0  0  0  0  0  0  0  0  0  0
   -5.5166    3.2256    0.0000 C   0  0  0  0  0  0  0  0  0  0  0  0
  1  2  1  0
  2  3  2  0
  1  4  1  0
  5  1  1  0
  6  4  1  0
  7  5  1  0
  8  6  1  0
  7  8  2  0
  9  7  1  0
 10  8  1  0
 11  9  2  0
 12 10  2  0
 11 12  1  0
 13 11  1  0
 13 14  1  0
 15 13  2  0
 14 16  1  0
 16 17  1  0
 17 18  2  0
 17 19  1  0
 18 20  1  0
 19 21  2  0
 20 22  2  0
 21 22  1  0
 23  2  1  0
 24 23  2  0
 25 23  1  0
 26 24  1  0
 27 25  2  0
 26 27  1  0
M  END
>  <Rank>  (91) 
91

>  <CR_ID>  (91) 
R-009802

>  <Acid_Name>  (91) 
R-009802

>  <SMILES>  (91) 
O=C(NCc1ccccc1)c1ccc2c(n1)CN(C(=O)c1cscn1)CC2

>  <MPO_Score>  (91) 
0.7993

>  <MW>  (91) 
378.12

>  <cLogP>  (91) 
2.67 ± 0.40

>  <TPSA>  (91) 
75.2

>  <HBD>  (91) 
1

>  <HBA>  (91) 
5

>  <RotBonds>  (91) 
4

>  <Fsp3>  (91) 
0.200

>  <NumArRings>  (91) 
3

>  <logS_ESOL>  (91) 
-4.07 ± 0.93 log(mol/L)

>  <logS_AD>  (91) 
In

>  <logS_model>  (91) 
ESOL/Delaney-2004 (linear, n=1144, RMSE=0.93 log-units)

>  <logPapp_PAMPA>  (91) 
-5.66 ± 0.80 log(cm/s)

>  <logPapp_class>  (91) 
Medium

>  <logPapp_AD>  (91) 
In

>  <logPapp_model>  (91) 
Hou-2004 PAMPA linear (RMSE=0.8, n=100)

>  <MetStab_score>  (91) 
1.000 (0-1 scale)

>  <MetStab_t12>  (91) 
High (t½>60 min HLM)

>  <Clearance_route>  (91) 
CYP2D6/3A4 (basic-N + Ar)

>  <Met_alerts>  (91) 
None

>  <MetStab_model>  (91) 
Rule-based HLM classifier (cLogP+Fsp3+Ar-rings+alerts; heuristic ±1 class)

>  <CYP_risk>  (91) 
Low

>  <CYP_alerts>  (91) 
None

>  <CYP2D6_flag>  (91) 
False

>  <CYP3A4_flag>  (91) 
False

>  <CYP2C9_flag>  (91) 
False

>  <CYP_model>  (91) 
SMARTS alert panel (pharmacophore-based; flag only – no IC50 predicted)

>  <PPB_pct>  (91) 
97.1 ± 10 %

>  <PPB_fu>  (91) 
0.0293

>  <PPB_class>  (91) 
Very high (>95%)

>  <PPB_AD>  (91) 
In

>  <PPB_model>  (91) 
Valko-2003 logP-linear (RMSE≈10% PPB, n=87)

>  <hERG_risk>  (91) 
Medium

>  <hERG_model>  (91) 
Structural-alert + cLogP (Redfern-2003 anchor; ±1 class)

>  <des_sol>  (91) 
0.572

>  <des_logp>  (91) 
1.000

>  <des_perm>  (91) 
0.893

>  <des_met>  (91) 
1.000

>  <des_cyp>  (91) 
1.000

>  <des_ppb>  (91) 
0.700

>  <des_herg>  (91) 
0.500

>  <des_mw>  (91) 
0.891

$$$$

     RDKit          2D

 27 30  0  0  0  0  0  0  0  0999 V2000
   -4.1405   -1.1545    0.0000 N   0  0  0  0  0  0  0  0  0  0  0  0
   -5.5551   -0.6556    0.0000 C   0  0  0  0  0  0  0  0  0  0  0  0
   -6.6944   -1.6312    0.0000 O   0  0  0  0  0  0  0  0  0  0  0  0
   -3.8652   -2.6291    0.0000 C   0  0  0  0  0  0  0  0  0  0  0  0
   -3.0011   -0.1789    0.0000 C   0  0  0  0  0  0  0  0  0  0  0  0
   -2.4506   -3.1280    0.0000 C   0  0  0  0  0  0  0  0  0  0  0  0
   -1.5865   -0.6778    0.0000 C   0  0  0  0  0  0  0  0  0  0  0  0
   -1.3113   -2.1523    0.0000 C   0  0  0  0  0  0  0  0  0  0  0  0
   -0.4471    0.2978    0.0000 N   0  0  0  0  0  0  0  0  0  0  0  0
    0.1033   -2.6512    0.0000 C   0  0  0  0  0  0  0  0  0  0  0  0
    0.9675   -0.2011    0.0000 C   0  0  0  0  0  0  0  0  0  0  0  0
    1.2427   -1.6756    0.0000 C   0  0  0  0  0  0  0  0  0  0  0  0
    2.1068    0.7746    0.0000 C   0  0  0  0  0  0  0  0  0  0  0  0
    3.5214    0.2756    0.0000 N   0  0  0  0  0  0  0  0  0  0  0  0
    1.8316    2.2491    0.0000 O   0  0  0  0  0  0  0  0  0  0  0  0
    4.6608    1.2513    0.0000 C   0  0  0  0  0  0  0  0  0  0  0  0
    6.0754    0.7524    0.0000 C   0  0  0  0  0  0  0  0  0  0  0  0
    6.3506   -0.7222    0.0000 C   0  0  0  0  0  0  0  0  0  0  0  0
    7.2148    1.7280    0.0000 C   0  0  0  0  0  0  0  0  0  0  0  0
    7.7652   -1.2211    0.0000 C   0  0  0  0  0  0  0  0  0  0  0  0
    8.6294    1.2291    0.0000 C   0  0  0  0  0  0  0  0  0  0  0  0
    8.9046   -0.2454    0.0000 C   0  0  0  0  0  0  0  0  0  0  0  0
   -5.8303    0.8189    0.0000 C   0  0  0  0  0  0  0  0  0  0  0  0
   -7.1850    1.4630    0.0000 S   0  0  0  0  0  0  0  0  0  0  0  0
   -4.7992    1.9083    0.0000 N   0  0  0  0  0  0  0  0  0  0  0  0
   -6.9911    2.9504    0.0000 C   0  0  0  0  0  0  0  0  0  0  0  0
   -5.5166    3.2256    0.0000 C   0  0  0  0  0  0  0  0  0  0  0  0
  1  2  1  0
  2  3  2  0
  1  4  1  0
  5  1  1  0
  6  4  1  0
  7  5  1  0
  8  6  1  0
  7  8  2  0
  9  7  1  0
 10  8  1  0
 11  9  2  0
 12 10  2  0
 11 12  1  0
 13 11  1  0
 13 14  1  0
 15 13  2  0
 14 16  1  0
 16 17  1  0
 17 18  2  0
 17 19  1  0
 18 20  1  0
 19 21  2  0
 20 22  2  0
 21 22  1  0
 23  2  1  0
 24 23  1  0
 23 25  2  0
 24 26  1  0
 25 27  1  0
 26 27  2  0
M  END
>  <Rank>  (92) 
92

>  <CR_ID>  (92) 
R-000647

>  <Acid_Name>  (92) 
R-000647

>  <SMILES>  (92) 
O=C(NCc1ccccc1)c1ccc2c(n1)CN(C(=O)c1nccs1)CC2

>  <MPO_Score>  (92) 
0.7993

>  <MW>  (92) 
378.12

>  <cLogP>  (92) 
2.67 ± 0.40

>  <TPSA>  (92) 
75.2

>  <HBD>  (92) 
1

>  <HBA>  (92) 
5

>  <RotBonds>  (92) 
4

>  <Fsp3>  (92) 
0.200

>  <NumArRings>  (92) 
3

>  <logS_ESOL>  (92) 
-4.07 ± 0.93 log(mol/L)

>  <logS_AD>  (92) 
In

>  <logS_model>  (92) 
ESOL/Delaney-2004 (linear, n=1144, RMSE=0.93 log-units)

>  <logPapp_PAMPA>  (92) 
-5.66 ± 0.80 log(cm/s)

>  <logPapp_class>  (92) 
Medium

>  <logPapp_AD>  (92) 
In

>  <logPapp_model>  (92) 
Hou-2004 PAMPA linear (RMSE=0.8, n=100)

>  <MetStab_score>  (92) 
1.000 (0-1 scale)

>  <MetStab_t12>  (92) 
High (t½>60 min HLM)

>  <Clearance_route>  (92) 
CYP2D6/3A4 (basic-N + Ar)

>  <Met_alerts>  (92) 
None

>  <MetStab_model>  (92) 
Rule-based HLM classifier (cLogP+Fsp3+Ar-rings+alerts; heuristic ±1 class)

>  <CYP_risk>  (92) 
Low

>  <CYP_alerts>  (92) 
None

>  <CYP2D6_flag>  (92) 
False

>  <CYP3A4_flag>  (92) 
False

>  <CYP2C9_flag>  (92) 
False

>  <CYP_model>  (92) 
SMARTS alert panel (pharmacophore-based; flag only – no IC50 predicted)

>  <PPB_pct>  (92) 
97.1 ± 10 %

>  <PPB_fu>  (92) 
0.0293

>  <PPB_class>  (92) 
Very high (>95%)

>  <PPB_AD>  (92) 
In

>  <PPB_model>  (92) 
Valko-2003 logP-linear (RMSE≈10% PPB, n=87)

>  <hERG_risk>  (92) 
Medium

>  <hERG_model>  (92) 
Structural-alert + cLogP (Redfern-2003 anchor; ±1 class)

>  <des_sol>  (92) 
0.572

>  <des_logp>  (92) 
1.000

>  <des_perm>  (92) 
0.893

>  <des_met>  (92) 
1.000

>  <des_cyp>  (92) 
1.000

>  <des_ppb>  (92) 
0.700

>  <des_herg>  (92) 
0.500

>  <des_mw>  (92) 
0.891

$$$$

     RDKit          2D

 31 34  0  0  0  0  0  0  0  0999 V2000
   -2.3572   -1.6591    0.0000 N   0  0  0  0  0  0  0  0  0  0  0  0
   -3.8129   -1.2971    0.0000 C   0  0  0  0  0  0  0  0  0  0  0  0
   -4.8543   -2.3767    0.0000 O   0  0  0  0  0  0  0  0  0  0  0  0
   -1.9430   -3.1008    0.0000 C   0  0  0  0  0  0  0  0  0  0  0  0
   -1.3159   -0.5795    0.0000 C   0  0  0  0  0  0  0  0  0  0  0  0
   -0.4873   -3.4628    0.0000 C   0  0  0  0  0  0  0  0  0  0  0  0
    0.1398   -0.9416    0.0000 C   0  0  0  0  0  0  0  0  0  0  0  0
    0.5541   -2.3832    0.0000 C   0  0  0  0  0  0  0  0  0  0  0  0
    1.1811    0.1380    0.0000 N   0  0  0  0  0  0  0  0  0  0  0  0
    2.0097   -2.7453    0.0000 C   0  0  0  0  0  0  0  0  0  0  0  0
    2.6368   -0.2240    0.0000 C   0  0  0  0  0  0  0  0  0  0  0  0
    3.0511   -1.6657    0.0000 C   0  0  0  0  0  0  0  0  0  0  0  0
    3.6782    0.8556    0.0000 C   0  0  0  0  0  0  0  0  0  0  0  0
    5.1338    0.4936    0.0000 N   0  0  0  0  0  0  0  0  0  0  0  0
    3.2639    2.2973    0.0000 O   0  0  0  0  0  0  0  0  0  0  0  0
    6.1752    1.5732    0.0000 C   0  0  0  0  0  0  0  0  0  0  0  0
    7.6308    1.2111    0.0000 C   0  0  0  0  0  0  0  0  0  0  0  0
    8.0451   -0.2305    0.0000 C   0  0  0  0  0  0  0  0  0  0  0  0
    8.6722    2.2907    0.0000 C   0  0  0  0  0  0  0  0  0  0  0  0
    9.5008   -0.5926    0.0000 C   0  0  0  0  0  0  0  0  0  0  0  0
   10.1278    1.9287    0.0000 C   0  0  0  0  0  0  0  0  0  0  0  0
   10.5421    0.4870    0.0000 C   0  0  0  0  0  0  0  0  0  0  0  0
   -4.2272    0.1446    0.0000 C   0  0  0  0  0  0  0  0  0  0  0  0
   -5.6828    0.5066    0.0000 C   0  0  0  0  0  0  0  0  0  0  0  0
   -6.0971    1.9483    0.0000 C   0  0  0  0  0  0  0  0  0  0  0  0
   -6.7242   -0.5730    0.0000 C   0  0  0  0  0  0  0  0  0  0  0  0
   -7.5528    2.3103    0.0000 C   0  0  0  0  0  0  0  0  0  0  0  0
   -8.1799   -0.2110    0.0000 C   0  0  0  0  0  0  0  0  0  0  0  0
   -8.5941    1.2307    0.0000 C   0  0  0  0  0  0  0  0  0  0  0  0
  -10.0498    1.5927    0.0000 O   0  0  0  0  0  0  0  0  0  0  0  0
  -10.4641    3.0344    0.0000 C   0  0  0  0  0  0  0  0  0  0  0  0
  1  2  1  0
  2  3  2  0
  1  4  1  0
  5  1  1  0
  6  4  1  0
  7  5  1  0
  8  6  1  0
  7  8  2  0
  9  7  1  0
 10  8  1  0
 11  9  2  0
 12 10  2  0
 11 12  1  0
 13 11  1  0
 13 14  1  0
 15 13  2  0
 14 16  1  0
 16 17  1  0
 17 18  2  0
 17 19  1  0
 18 20  1  0
 19 21  2  0
 20 22  2  0
 21 22  1  0
  2 23  1  0
 23 24  1  0
 24 25  2  0
 24 26  1  0
 25 27  1  0
 26 28  2  0
 27 29  2  0
 28 29  1  0
 29 30  1  0
 30 31  1  0
M  END
>  <Rank>  (93) 
93

>  <CR_ID>  (93) 
R-004903

>  <Acid_Name>  (93) 
R-004903

>  <SMILES>  (93) 
COc1ccc(CC(=O)N2CCc3ccc(C(=O)NCc4ccccc4)nc3C2)cc1

>  <MPO_Score>  (93) 
0.7992

>  <MW>  (93) 
415.19

>  <cLogP>  (93) 
3.15 ± 0.40

>  <TPSA>  (93) 
71.5

>  <HBD>  (93) 
1

>  <HBA>  (93) 
4

>  <RotBonds>  (93) 
6

>  <Fsp3>  (93) 
0.240

>  <NumArRings>  (93) 
3

>  <logS_ESOL>  (93) 
-4.43 ± 0.93 log(mol/L)

>  <logS_AD>  (93) 
In

>  <logS_model>  (93) 
ESOL/Delaney-2004 (linear, n=1144, RMSE=0.93 log-units)

>  <logPapp_PAMPA>  (93) 
-5.39 ± 0.80 log(cm/s)

>  <logPapp_class>  (93) 
High

>  <logPapp_AD>  (93) 
In

>  <logPapp_model>  (93) 
Hou-2004 PAMPA linear (RMSE=0.8, n=100)

>  <MetStab_score>  (93) 
1.000 (0-1 scale)

>  <MetStab_t12>  (93) 
High (t½>60 min HLM)

>  <Clearance_route>  (93) 
CYP2D6/3A4 (basic-N + Ar)

>  <Met_alerts>  (93) 
phenol: UGT/CYP

>  <MetStab_model>  (93) 
Rule-based HLM classifier (cLogP+Fsp3+Ar-rings+alerts; heuristic ±1 class)

>  <CYP_risk>  (93) 
Low

>  <CYP_alerts>  (93) 
None

>  <CYP2D6_flag>  (93) 
False

>  <CYP3A4_flag>  (93) 
False

>  <CYP2C9_flag>  (93) 
False

>  <CYP_model>  (93) 
SMARTS alert panel (pharmacophore-based; flag only – no IC50 predicted)

>  <PPB_pct>  (93) 
98.7 ± 10 %

>  <PPB_fu>  (93) 
0.0134

>  <PPB_class>  (93) 
Very high (>95%)

>  <PPB_AD>  (93) 
In

>  <PPB_model>  (93) 
Valko-2003 logP-linear (RMSE≈10% PPB, n=87)

>  <hERG_risk>  (93) 
Medium

>  <hERG_model>  (93) 
Structural-alert + cLogP (Redfern-2003 anchor; ±1 class)

>  <des_sol>  (93) 
0.428

>  <des_logp>  (93) 
1.000

>  <des_perm>  (93) 
1.000

>  <des_met>  (93) 
1.000

>  <des_cyp>  (93) 
1.000

>  <des_ppb>  (93) 
0.700

>  <des_herg>  (93) 
0.500

>  <des_mw>  (93) 
1.000

$$$$

     RDKit          2D

 31 34  0  0  0  0  0  0  0  0999 V2000
   -2.5087   -1.8285    0.0000 N   0  0  0  0  0  0  0  0  0  0  0  0
   -3.9701   -1.4906    0.0000 C   0  0  0  0  0  0  0  0  0  0  0  0
   -4.9935   -2.5873    0.0000 O   0  0  0  0  0  0  0  0  0  0  0  0
   -2.0706   -3.2631    0.0000 C   0  0  0  0  0  0  0  0  0  0  0  0
   -1.4853   -0.7318    0.0000 C   0  0  0  0  0  0  0  0  0  0  0  0
   -0.6092   -3.6010    0.0000 C   0  0  0  0  0  0  0  0  0  0  0  0
   -0.0239   -1.0697    0.0000 C   0  0  0  0  0  0  0  0  0  0  0  0
    0.4142   -2.5043    0.0000 C   0  0  0  0  0  0  0  0  0  0  0  0
    0.9995    0.0269    0.0000 N   0  0  0  0  0  0  0  0  0  0  0  0
    1.8757   -2.8423    0.0000 C   0  0  0  0  0  0  0  0  0  0  0  0
    2.4609   -0.3110    0.0000 C   0  0  0  0  0  0  0  0  0  0  0  0
    2.8990   -1.7456    0.0000 C   0  0  0  0  0  0  0  0  0  0  0  0
    3.4843    0.7857    0.0000 C   0  0  0  0  0  0  0  0  0  0  0  0
    4.9458    0.4478    0.0000 N   0  0  0  0  0  0  0  0  0  0  0  0
    3.0462    2.2203    0.0000 O   0  0  0  0  0  0  0  0  0  0  0  0
    5.9691    1.5445    0.0000 C   0  0  0  0  0  0  0  0  0  0  0  0
    7.4306    1.2066    0.0000 C   0  0  0  0  0  0  0  0  0  0  0  0
    7.8686   -0.2281    0.0000 C   0  0  0  0  0  0  0  0  0  0  0  0
    8.4539    2.3032    0.0000 C   0  0  0  0  0  0  0  0  0  0  0  0
    9.3301   -0.5660    0.0000 C   0  0  0  0  0  0  0  0  0  0  0  0
    9.9154    1.9653    0.0000 C   0  0  0  0  0  0  0  0  0  0  0  0
   10.3534    0.5307    0.0000 C   0  0  0  0  0  0  0  0  0  0  0  0
   -4.4082   -0.0560    0.0000 C   0  0  0  0  0  0  0  0  0  0  0  0
   -5.8696    0.2820    0.0000 C   0  0  0  0  0  0  0  0  0  0  0  0
   -6.3077    1.7166    0.0000 C   0  0  0  0  0  0  0  0  0  0  0  0
   -6.8930   -0.8147    0.0000 C   0  0  0  0  0  0  0  0  0  0  0  0
   -7.7691    2.0545    0.0000 C   0  0  0  0  0  0  0  0  0  0  0  0
   -8.3544   -0.4768    0.0000 C   0  0  0  0  0  0  0  0  0  0  0  0
   -8.2072    3.4891    0.0000 O   0  0  0  0  0  0  0  0  0  0  0  0
   -8.7925    0.9578    0.0000 C   0  0  0  0  0  0  0  0  0  0  0  0
   -7.1838    4.5858    0.0000 C   0  0  0  0  0  0  0  0  0  0  0  0
  1  2  1  0
  2  3  2  0
  1  4  1  0
  5  1  1  0
  6  4  1  0
  7  5  1  0
  8  6  1  0
  7  8  2  0
  9  7  1  0
 10  8  1  0
 11  9  2  0
 12 10  2  0
 11 12  1  0
 13 11  1  0
 13 14  1  0
 15 13  2  0
 14 16  1  0
 16 17  1  0
 17 18  2  0
 17 19  1  0
 18 20  1  0
 19 21  2  0
 20 22  2  0
 21 22  1  0
  2 23  1  0
 23 24  1  0
 24 25  2  0
 24 26  1  0
 25 27  1  0
 26 28  2  0
 27 29  1  0
 27 30  2  0
 28 30  1  0
 29 31  1  0
M  END
>  <Rank>  (94) 
94

>  <CR_ID>  (94) 
R-001142

>  <Acid_Name>  (94) 
R-001142

>  <SMILES>  (94) 
COc1cccc(CC(=O)N2CCc3ccc(C(=O)NCc4ccccc4)nc3C2)c1

>  <MPO_Score>  (94) 
0.7992

>  <MW>  (94) 
415.19

>  <cLogP>  (94) 
3.15 ± 0.40

>  <TPSA>  (94) 
71.5

>  <HBD>  (94) 
1

>  <HBA>  (94) 
4

>  <RotBonds>  (94) 
6

>  <Fsp3>  (94) 
0.240

>  <NumArRings>  (94) 
3

>  <logS_ESOL>  (94) 
-4.43 ± 0.93 log(mol/L)

>  <logS_AD>  (94) 
In

>  <logS_model>  (94) 
ESOL/Delaney-2004 (linear, n=1144, RMSE=0.93 log-units)

>  <logPapp_PAMPA>  (94) 
-5.39 ± 0.80 log(cm/s)

>  <logPapp_class>  (94) 
High

>  <logPapp_AD>  (94) 
In

>  <logPapp_model>  (94) 
Hou-2004 PAMPA linear (RMSE=0.8, n=100)

>  <MetStab_score>  (94) 
1.000 (0-1 scale)

>  <MetStab_t12>  (94) 
High (t½>60 min HLM)

>  <Clearance_route>  (94) 
CYP2D6/3A4 (basic-N + Ar)

>  <Met_alerts>  (94) 
phenol: UGT/CYP

>  <MetStab_model>  (94) 
Rule-based HLM classifier (cLogP+Fsp3+Ar-rings+alerts; heuristic ±1 class)

>  <CYP_risk>  (94) 
Low

>  <CYP_alerts>  (94) 
None

>  <CYP2D6_flag>  (94) 
False

>  <CYP3A4_flag>  (94) 
False

>  <CYP2C9_flag>  (94) 
False

>  <CYP_model>  (94) 
SMARTS alert panel (pharmacophore-based; flag only – no IC50 predicted)

>  <PPB_pct>  (94) 
98.7 ± 10 %

>  <PPB_fu>  (94) 
0.0134

>  <PPB_class>  (94) 
Very high (>95%)

>  <PPB_AD>  (94) 
In

>  <PPB_model>  (94) 
Valko-2003 logP-linear (RMSE≈10% PPB, n=87)

>  <hERG_risk>  (94) 
Medium

>  <hERG_model>  (94) 
Structural-alert + cLogP (Redfern-2003 anchor; ±1 class)

>  <des_sol>  (94) 
0.428

>  <des_logp>  (94) 
1.000

>  <des_perm>  (94) 
1.000

>  <des_met>  (94) 
1.000

>  <des_cyp>  (94) 
1.000

>  <des_ppb>  (94) 
0.700

>  <des_herg>  (94) 
0.500

>  <des_mw>  (94) 
1.000

$$$$

     RDKit          2D

 31 34  0  0  0  0  0  0  0  0999 V2000
   -2.6926   -1.7314    0.0000 N   0  0  0  0  0  0  0  0  0  0  0  0
   -4.1455   -1.3584    0.0000 C   0  0  0  0  0  0  0  0  0  0  0  0
   -5.1950   -2.4301    0.0000 O   0  0  0  0  0  0  0  0  0  0  0  0
   -2.2892   -3.1762    0.0000 C   0  0  0  0  0  0  0  0  0  0  0  0
   -1.6431   -0.6597    0.0000 C   0  0  0  0  0  0  0  0  0  0  0  0
   -0.8364   -3.5492    0.0000 C   0  0  0  0  0  0  0  0  0  0  0  0
   -0.1902   -1.0327    0.0000 C   0  0  0  0  0  0  0  0  0  0  0  0
    0.2131   -2.4775    0.0000 C   0  0  0  0  0  0  0  0  0  0  0  0
    0.8593    0.0390    0.0000 N   0  0  0  0  0  0  0  0  0  0  0  0
    1.6660   -2.8505    0.0000 C   0  0  0  0  0  0  0  0  0  0  0  0
    2.3121   -0.3341    0.0000 C   0  0  0  0  0  0  0  0  0  0  0  0
    2.7155   -1.7788    0.0000 C   0  0  0  0  0  0  0  0  0  0  0  0
    3.3616    0.7376    0.0000 C   0  0  0  0  0  0  0  0  0  0  0  0
    4.8145    0.3646    0.0000 N   0  0  0  0  0  0  0  0  0  0  0  0
    2.9583    2.1824    0.0000 O   0  0  0  0  0  0  0  0  0  0  0  0
    5.8640    1.4363    0.0000 C   0  0  0  0  0  0  0  0  0  0  0  0
    7.3169    1.0633    0.0000 C   0  0  0  0  0  0  0  0  0  0  0  0
    7.7203   -0.3815    0.0000 C   0  0  0  0  0  0  0  0  0  0  0  0
    8.3664    2.1350    0.0000 C   0  0  0  0  0  0  0  0  0  0  0  0
    9.1731   -0.7545    0.0000 C   0  0  0  0  0  0  0  0  0  0  0  0
    9.8193    1.7619    0.0000 C   0  0  0  0  0  0  0  0  0  0  0  0
   10.2226    0.3172    0.0000 C   0  0  0  0  0  0  0  0  0  0  0  0
   -4.5489    0.0864    0.0000 C   0  0  0  0  0  0  0  0  0  0  0  0
   -6.0017    0.4594    0.0000 C   0  0  0  0  0  0  0  0  0  0  0  0
   -6.4051    1.9042    0.0000 C   0  0  0  0  0  0  0  0  0  0  0  0
   -7.0512   -0.6123    0.0000 C   0  0  0  0  0  0  0  0  0  0  0  0
   -5.3556    2.9759    0.0000 O   0  0  0  0  0  0  0  0  0  0  0  0
   -7.8580    2.2772    0.0000 C   0  0  0  0  0  0  0  0  0  0  0  0
   -8.5041   -0.2393    0.0000 C   0  0  0  0  0  0  0  0  0  0  0  0
   -5.7590    4.4206    0.0000 C   0  0  0  0  0  0  0  0  0  0  0  0
   -8.9075    1.2055    0.0000 C   0  0  0  0  0  0  0  0  0  0  0  0
  1  2  1  0
  2  3  2  0
  1  4  1  0
  5  1  1  0
  6  4  1  0
  7  5  1  0
  8  6  1  0
  7  8  2  0
  9  7  1  0
 10  8  1  0
 11  9  2  0
 12 10  2  0
 11 12  1  0
 13 11  1  0
 13 14  1  0
 15 13  2  0
 14 16  1  0
 16 17  1  0
 17 18  2  0
 17 19  1  0
 18 20  1  0
 19 21  2  0
 20 22  2  0
 21 22  1  0
  2 23  1  0
 23 24  1  0
 24 25  2  0
 24 26  1  0
 25 27  1  0
 25 28  1  0
 26 29  2  0
 27 30  1  0
 28 31  2  0
 29 31  1  0
M  END
>  <Rank>  (95) 
95

>  <CR_ID>  (95) 
R-005790

>  <Acid_Name>  (95) 
R-005790

>  <SMILES>  (95) 
COc1ccccc1CC(=O)N1CCc2ccc(C(=O)NCc3ccccc3)nc2C1

>  <MPO_Score>  (95) 
0.7992

>  <MW>  (95) 
415.19

>  <cLogP>  (95) 
3.15 ± 0.40

>  <TPSA>  (95) 
71.5

>  <HBD>  (95) 
1

>  <HBA>  (95) 
4

>  <RotBonds>  (95) 
6

>  <Fsp3>  (95) 
0.240

>  <NumArRings>  (95) 
3

>  <logS_ESOL>  (95) 
-4.43 ± 0.93 log(mol/L)

>  <logS_AD>  (95) 
In

>  <logS_model>  (95) 
ESOL/Delaney-2004 (linear, n=1144, RMSE=0.93 log-units)

>  <logPapp_PAMPA>  (95) 
-5.39 ± 0.80 log(cm/s)

>  <logPapp_class>  (95) 
High

>  <logPapp_AD>  (95) 
In

>  <logPapp_model>  (95) 
Hou-2004 PAMPA linear (RMSE=0.8, n=100)

>  <MetStab_score>  (95) 
1.000 (0-1 scale)

>  <MetStab_t12>  (95) 
High (t½>60 min HLM)

>  <Clearance_route>  (95) 
CYP2D6/3A4 (basic-N + Ar)

>  <Met_alerts>  (95) 
phenol: UGT/CYP

>  <MetStab_model>  (95) 
Rule-based HLM classifier (cLogP+Fsp3+Ar-rings+alerts; heuristic ±1 class)

>  <CYP_risk>  (95) 
Low

>  <CYP_alerts>  (95) 
None

>  <CYP2D6_flag>  (95) 
False

>  <CYP3A4_flag>  (95) 
False

>  <CYP2C9_flag>  (95) 
False

>  <CYP_model>  (95) 
SMARTS alert panel (pharmacophore-based; flag only – no IC50 predicted)

>  <PPB_pct>  (95) 
98.7 ± 10 %

>  <PPB_fu>  (95) 
0.0134

>  <PPB_class>  (95) 
Very high (>95%)

>  <PPB_AD>  (95) 
In

>  <PPB_model>  (95) 
Valko-2003 logP-linear (RMSE≈10% PPB, n=87)

>  <hERG_risk>  (95) 
Medium

>  <hERG_model>  (95) 
Structural-alert + cLogP (Redfern-2003 anchor; ±1 class)

>  <des_sol>  (95) 
0.428

>  <des_logp>  (95) 
1.000

>  <des_perm>  (95) 
1.000

>  <des_met>  (95) 
1.000

>  <des_cyp>  (95) 
1.000

>  <des_ppb>  (95) 
0.700

>  <des_herg>  (95) 
0.500

>  <des_mw>  (95) 
1.000

$$$$

     RDKit          2D

 28 31  0  0  0  0  0  0  0  0999 V2000
   -3.4841   -1.1923    0.0000 N   0  0  0  0  0  0  0  0  0  0  0  0
   -4.9081   -0.7209    0.0000 C   0  0  0  0  0  0  0  0  0  0  0  0
   -6.0284   -1.7184    0.0000 O   0  0  0  0  0  0  0  0  0  0  0  0
   -3.1804   -2.6612    0.0000 C   0  0  0  0  0  0  0  0  0  0  0  0
   -2.3639   -0.1948    0.0000 C   0  0  0  0  0  0  0  0  0  0  0  0
   -1.7564   -3.1327    0.0000 C   0  0  0  0  0  0  0  0  0  0  0  0
   -0.9399   -0.6662    0.0000 C   0  0  0  0  0  0  0  0  0  0  0  0
   -0.6362   -2.1352    0.0000 C   0  0  0  0  0  0  0  0  0  0  0  0
    0.1804    0.3312    0.0000 N   0  0  0  0  0  0  0  0  0  0  0  0
    0.7878   -2.6066    0.0000 C   0  0  0  0  0  0  0  0  0  0  0  0
    1.6044   -0.1402    0.0000 C   0  0  0  0  0  0  0  0  0  0  0  0
    1.9081   -1.6091    0.0000 C   0  0  0  0  0  0  0  0  0  0  0  0
    2.7246    0.8573    0.0000 C   0  0  0  0  0  0  0  0  0  0  0  0
    4.1486    0.3859    0.0000 N   0  0  0  0  0  0  0  0  0  0  0  0
    2.4209    2.3262    0.0000 O   0  0  0  0  0  0  0  0  0  0  0  0
    5.2689    1.3834    0.0000 C   0  0  0  0  0  0  0  0  0  0  0  0
    6.6929    0.9119    0.0000 C   0  0  0  0  0  0  0  0  0  0  0  0
    6.9966   -0.5570    0.0000 C   0  0  0  0  0  0  0  0  0  0  0  0
    7.8132    1.9094    0.0000 C   0  0  0  0  0  0  0  0  0  0  0  0
    8.4206   -1.0285    0.0000 C   0  0  0  0  0  0  0  0  0  0  0  0
    9.2372    1.4380    0.0000 C   0  0  0  0  0  0  0  0  0  0  0  0
    9.5409   -0.0310    0.0000 C   0  0  0  0  0  0  0  0  0  0  0  0
   -5.2119    0.7481    0.0000 C   0  0  0  0  0  0  0  0  0  0  0  0
   -6.6358    1.2195    0.0000 C   0  0  0  0  0  0  0  0  0  0  0  0
   -7.8542    0.3446    0.0000 C   0  0  0  0  0  0  0  0  0  0  0  0
   -7.0914    2.6486    0.0000 C   0  0  0  0  0  0  0  0  0  0  0  0
   -9.0629    1.2330    0.0000 S   0  0  0  0  0  0  0  0  0  0  0  0
   -8.5914    2.6570    0.0000 C   0  0  0  0  0  0  0  0  0  0  0  0
  1  2  1  0
  2  3  2  0
  1  4  1  0
  5  1  1  0
  6  4  1  0
  7  5  1  0
  8  6  1  0
  7  8  2  0
  9  7  1  0
 10  8  1  0
 11  9  2  0
 12 10  2  0
 11 12  1  0
 13 11  1  0
 13 14  1  0
 15 13  2  0
 14 16  1  0
 16 17  1  0
 17 18  2  0
 17 19  1  0
 18 20  1  0
 19 21  2  0
 20 22  2  0
 21 22  1  0
 23  2  1  0
 24 23  1  0
 25 24  2  0
 24 26  1  0
 27 25  1  0
 28 26  2  0
 27 28  1  0
M  END
>  <Rank>  (96) 
96

>  <CR_ID>  (96) 
R-004495

>  <Acid_Name>  (96) 
R-004495

>  <SMILES>  (96) 
O=C(NCc1ccccc1)c1ccc2c(n1)CN(C(=O)Cc1ccsc1)CC2

>  <MPO_Score>  (96) 
0.7988

>  <MW>  (96) 
391.14

>  <cLogP>  (96) 
3.20 ± 0.40

>  <TPSA>  (96) 
62.3

>  <HBD>  (96) 
1

>  <HBA>  (96) 
4

>  <RotBonds>  (96) 
5

>  <Fsp3>  (96) 
0.227

>  <NumArRings>  (96) 
3

>  <logS_ESOL>  (96) 
-4.40 ± 0.93 log(mol/L)

>  <logS_AD>  (96) 
In

>  <logS_model>  (96) 
ESOL/Delaney-2004 (linear, n=1144, RMSE=0.93 log-units)

>  <logPapp_PAMPA>  (96) 
-5.20 ± 0.80 log(cm/s)

>  <logPapp_class>  (96) 
High

>  <logPapp_AD>  (96) 
In

>  <logPapp_model>  (96) 
Hou-2004 PAMPA linear (RMSE=0.8, n=100)

>  <MetStab_score>  (96) 
1.000 (0-1 scale)

>  <MetStab_t12>  (96) 
High (t½>60 min HLM)

>  <Clearance_route>  (96) 
CYP2D6/3A4 (basic-N + Ar)

>  <Met_alerts>  (96) 
None

>  <MetStab_model>  (96) 
Rule-based HLM classifier (cLogP+Fsp3+Ar-rings+alerts; heuristic ±1 class)

>  <CYP_risk>  (96) 
Low

>  <CYP_alerts>  (96) 
None

>  <CYP2D6_flag>  (96) 
False

>  <CYP3A4_flag>  (96) 
False

>  <CYP2C9_flag>  (96) 
False

>  <CYP_model>  (96) 
SMARTS alert panel (pharmacophore-based; flag only – no IC50 predicted)

>  <PPB_pct>  (96) 
98.8 ± 10 %

>  <PPB_fu>  (96) 
0.0123

>  <PPB_class>  (96) 
Very high (>95%)

>  <PPB_AD>  (96) 
In

>  <PPB_model>  (96) 
Valko-2003 logP-linear (RMSE≈10% PPB, n=87)

>  <hERG_risk>  (96) 
Medium

>  <hERG_model>  (96) 
Structural-alert + cLogP (Redfern-2003 anchor; ±1 class)

>  <des_sol>  (96) 
0.440

>  <des_logp>  (96) 
1.000

>  <des_perm>  (96) 
1.000

>  <des_met>  (96) 
1.000

>  <des_cyp>  (96) 
1.000

>  <des_ppb>  (96) 
0.700

>  <des_herg>  (96) 
0.500

>  <des_mw>  (96) 
0.956

$$$$
