Compound_10_ent1


 39 42  0  0  0  0  0  0  0  0999 V2000
   83.8035  149.5555   16.3003 C   0  0  0  0  0  0  0  0  0  0  0  0
   81.9134  149.6110   18.1662 S   0  0  0  0  0  0  0  0  0  0  0  0
   82.0828  148.4717   19.1442 O   0  0  0  0  0  0  0  0  0  0  0  0
   82.7972  150.7360   18.7057 O   0  0  0  0  0  0  0  0  0  0  0  0
   82.4902  149.1637   16.6560 N   0  0  0  0  0  0  0  0  0  0  0  0
   80.2447  150.1361   18.2487 C   0  0  0  0  0  0  0  0  0  0  0  0
   81.5720  148.8725   15.6260 C   0  0  0  0  0  0  0  0  0  0  0  0
   79.3144  149.4457   17.2977 C   0  0  0  0  0  0  0  0  0  0  0  0
   80.6780  150.0194   15.2074 C   0  0  0  0  0  0  0  0  0  0  0  0
   79.4473  149.9259   15.9438 N   0  0  0  0  0  0  0  0  0  0  0  0
   78.2925  150.3533   15.2460 C   0  0  0  0  0  0  0  0  0  0  0  0
   78.4016  150.7686   14.0727 O   0  0  0  0  0  0  0  0  0  0  0  0
   76.9407  150.3222   15.8737 C   0  0  0  0  0  0  0  0  0  0  0  0
   77.0076  150.3310   17.2645 O   0  0  0  0  0  0  0  0  0  0  0  0
   76.2086  151.0421   18.1332 C   0  0  0  0  0  0  0  0  0  0  0  0
   74.8790  151.3131   17.9515 C   0  0  0  0  0  0  0  0  0  0  0  0
   76.8049  151.5301   19.2994 C   0  0  0  0  0  0  0  0  0  0  0  0
   74.1710  152.0373   18.8859 C   0  0  0  0  0  0  0  0  0  0  0  0
   76.1011  152.2539   20.2351 C   0  0  0  0  0  0  0  0  0  0  0  0
   74.7630  152.5228   20.0444 C   0  0  0  0  0  0  0  0  0  0  0  0
   83.8601  150.4650   15.1263 C   0  0  0  0  0  0  0  0  0  0  0  0
   84.1226  151.8186   15.2662 C   0  0  0  0  0  0  0  0  0  0  0  0
   83.6464  149.9087   13.8835 C   0  0  0  0  0  0  0  0  0  0  0  0
   84.1829  152.6714   14.1737 C   0  0  0  0  0  0  0  0  0  0  0  0
   83.7026  150.7419   12.7863 C   0  0  0  0  0  0  0  0  0  0  0  0
   83.9650  152.0857   12.9436 C   0  0  0  0  0  0  0  0  0  0  0  0
   84.4551  154.0915   14.2928 C   0  0  0  0  0  0  0  0  0  0  0  0
   85.2242  154.4666   15.2183 O   0  0  0  0  0  0  0  0  0  0  0  0
   83.9308  155.0896   13.4580 N   0  0  0  0  0  0  0  0  0  0  0  0
   83.3297  154.8058   12.7318 H   0  0  0  0  0  0  0  0  0  0  0  0
   84.2063  156.5039   13.5833 C   0  0  0  0  0  0  0  0  0  0  0  0
   85.4416  156.9109   12.8835 C   0  0  0  0  0  0  0  0  0  0  0  0
   84.3914  156.8239   15.0503 C   0  0  0  0  0  0  0  0  0  0  0  0
   86.1275  156.1629   12.1408 O   0  0  0  0  0  0  0  0  0  0  0  0
   85.8646  158.2614   13.0850 N   0  0  0  0  0  0  0  0  0  0  0  0
   84.7630  158.2404   15.3182 C   0  0  0  0  0  0  0  0  0  0  0  0
   85.2350  158.9927   14.1313 C   0  0  0  0  0  0  0  0  0  0  0  0
   85.1062  160.2359   14.0070 O   0  0  0  0  0  0  0  0  0  0  0  0
   86.5627  158.6690   12.5231 H   0  0  0  0  0  0  0  0  0  0  0  0
  2  3  2  0
  2  4  2  0
  2  5  1  0
  2  6  1  0
  5  7  1  0
  5  1  1  0
  6  8  1  0
  7  9  1  0
  1 21  1  0
  8 10  1  0
  9 10  1  0
 21 22  2  0
 21 23  1  0
 10 11  1  0
 22 24  1  0
 23 25  2  0
 11 12  2  0
 11 13  1  0
 24 27  1  0
 24 26  2  0
 25 26  1  0
 13 14  1  0
 27 28  2  0
 27 29  1  0
 14 15  1  0
 29 30  1  0
 15 16  2  0
 15 17  1  0
 31 29  1  0
 31 32  1  0
 31 33  1  0
 16 18  1  0
 17 19  2  0
 32 34  2  0
 32 35  1  0
 33 36  1  0
 18 20  2  0
 19 20  1  0
 35 37  1  0
 35 39  1  0
 36 37  1  0
 37 38  2  0
M  END
> <Molecule Name>
Compound 10

> <EC50 (µM) (Excel)>
14.3

> <Error (µM)>
1.3

> <HTRC CRBN-DDB1 EC50 (µM)>
14.29 ±  1.32

> <EC50 fitting (µM)>
23.96

> <Modèle Fitting>
3PL

> <Parent_Compound>
Compound 10

> <MMFF94s_energy_kcalmol>
144.245
$$$$

> <minimizedAffinity>
-9.46683

> <CNNscore>
0.5844262838

> <CNNaffinity>
6.6795601845

> <CNN_VS>
3.9037106037

> <CNNaffinity_variance>
0.1838857383

$$$$
Compound_10_ent1


 39 42  0  0  0  0  0  0  0  0999 V2000
   85.7897  149.4166   14.9435 C   0  0  0  0  0  0  0  0  0  0  0  0
   86.6533  148.3530   12.6674 S   0  0  0  0  0  0  0  0  0  0  0  0
   87.4516  147.0961   12.9244 O   0  0  0  0  0  0  0  0  0  0  0  0
   85.1968  147.8937   12.5937 O   0  0  0  0  0  0  0  0  0  0  0  0
   86.8098  149.4088   13.9614 N   0  0  0  0  0  0  0  0  0  0  0  0
   87.1173  148.9624   11.0926 C   0  0  0  0  0  0  0  0  0  0  0  0
   87.6188  150.5553   13.8216 C   0  0  0  0  0  0  0  0  0  0  0  0
   88.2619  149.9300   11.0985 C   0  0  0  0  0  0  0  0  0  0  0  0
   87.1730  151.5417   12.7642 C   0  0  0  0  0  0  0  0  0  0  0  0
   87.8743  151.2460   11.5450 N   0  0  0  0  0  0  0  0  0  0  0  0
   88.1900  152.3685   10.7429 C   0  0  0  0  0  0  0  0  0  0  0  0
   87.8581  153.5106   11.1256 O   0  0  0  0  0  0  0  0  0  0  0  0
   88.9120  152.2275    9.4462 C   0  0  0  0  0  0  0  0  0  0  0  0
   89.4763  153.4293    9.0265 O   0  0  0  0  0  0  0  0  0  0  0  0
   89.3860  154.0010    7.7760 C   0  0  0  0  0  0  0  0  0  0  0  0
   90.3346  154.7992    7.1950 C   0  0  0  0  0  0  0  0  0  0  0  0
   88.2275  153.7466    7.0367 C   0  0  0  0  0  0  0  0  0  0  0  0
   90.1425  155.3229    5.9350 C   0  0  0  0  0  0  0  0  0  0  0  0
   88.0319  154.2678    5.7778 C   0  0  0  0  0  0  0  0  0  0  0  0
   88.9916  155.0707    5.2002 C   0  0  0  0  0  0  0  0  0  0  0  0
   84.7584  150.4648   14.7276 C   0  0  0  0  0  0  0  0  0  0  0  0
   85.0724  151.8140   14.7671 C   0  0  0  0  0  0  0  0  0  0  0  0
   83.4698  150.0434   14.4790 C   0  0  0  0  0  0  0  0  0  0  0  0
   84.1154  152.7967   14.5603 C   0  0  0  0  0  0  0  0  0  0  0  0
   82.5057  151.0070   14.2711 C   0  0  0  0  0  0  0  0  0  0  0  0
   82.8355  152.3444   14.3138 C   0  0  0  0  0  0  0  0  0  0  0  0
   84.4176  154.2153   14.5970 C   0  0  0  0  0  0  0  0  0  0  0  0
   85.2804  154.6109   15.4264 O   0  0  0  0  0  0  0  0  0  0  0  0
   83.8264  155.1909   13.7806 N   0  0  0  0  0  0  0  0  0  0  0  0
   83.1519  154.8911   13.1290 H   0  0  0  0  0  0  0  0  0  0  0  0
   84.1324  156.6039   13.8233 C   0  0  0  0  0  0  0  0  0  0  0  0
   85.2872  156.9655   12.9766 C   0  0  0  0  0  0  0  0  0  0  0  0
   84.4838  156.9711   15.2482 C   0  0  0  0  0  0  0  0  0  0  0  0
   85.8763  156.1809   12.1899 O   0  0  0  0  0  0  0  0  0  0  0  0
   85.7474  158.3149   13.0810 N   0  0  0  0  0  0  0  0  0  0  0  0
   84.9013  158.3895   15.4218 C   0  0  0  0  0  0  0  0  0  0  0  0
   85.2478  159.0923   14.1635 C   0  0  0  0  0  0  0  0  0  0  0  0
   85.1221  160.3325   14.0093 O   0  0  0  0  0  0  0  0  0  0  0  0
   86.3839  158.6909   12.4308 H   0  0  0  0  0  0  0  0  0  0  0  0
  2  3  2  0
  2  4  2  0
  2  5  1  0
  2  6  1  0
  5  7  1  0
  5  1  1  0
  6  8  1  0
  7  9  1  0
  1 21  1  0
  8 10  1  0
  9 10  1  0
 21 22  2  0
 21 23  1  0
 10 11  1  0
 22 24  1  0
 23 25  2  0
 11 12  2  0
 11 13  1  0
 24 27  1  0
 24 26  2  0
 25 26  1  0
 13 14  1  0
 27 28  2  0
 27 29  1  0
 14 15  1  0
 29 30  1  0
 15 16  2  0
 15 17  1  0
 31 29  1  0
 31 32  1  0
 31 33  1  0
 16 18  1  0
 17 19  2  0
 32 34  2  0
 32 35  1  0
 33 36  1  0
 18 20  2  0
 19 20  1  0
 35 37  1  0
 35 39  1  0
 36 37  1  0
 37 38  2  0
M  END
> <Molecule Name>
Compound 10

> <EC50 (µM) (Excel)>
14.3

> <Error (µM)>
1.3

> <HTRC CRBN-DDB1 EC50 (µM)>
14.29 ±  1.32

> <EC50 fitting (µM)>
23.96

> <Modèle Fitting>
3PL

> <Parent_Compound>
Compound 10

> <MMFF94s_energy_kcalmol>
144.245
$$$$

> <minimizedAffinity>
-8.87465

> <CNNscore>
0.5698404908

> <CNNaffinity>
6.7787213326

> <CNN_VS>
3.8627898693

> <CNNaffinity_variance>
0.0781782717

$$$$
Compound_10_ent1


 39 42  0  0  0  0  0  0  0  0999 V2000
   83.9010  149.6805   16.6570 C   0  0  0  0  0  0  0  0  0  0  0  0
   81.5486  148.7560   17.4747 S   0  0  0  0  0  0  0  0  0  0  0  0
   80.4139  149.4488   16.7565 O   0  0  0  0  0  0  0  0  0  0  0  0
   81.9457  147.5922   16.5661 O   0  0  0  0  0  0  0  0  0  0  0  0
   82.8609  149.7917   17.6114 N   0  0  0  0  0  0  0  0  0  0  0  0
   80.9074  148.0955   18.9645 C   0  0  0  0  0  0  0  0  0  0  0  0
   83.1546  150.3707   18.8632 C   0  0  0  0  0  0  0  0  0  0  0  0
   80.9823  149.0112   20.1487 C   0  0  0  0  0  0  0  0  0  0  0  0
   83.5074  149.3954   19.9650 C   0  0  0  0  0  0  0  0  0  0  0  0
   82.3116  149.0945   20.7033 N   0  0  0  0  0  0  0  0  0  0  0  0
   82.4984  148.8651   22.0872 C   0  0  0  0  0  0  0  0  0  0  0  0
   83.6472  148.9375   22.5730 O   0  0  0  0  0  0  0  0  0  0  0  0
   81.3572  148.5374   22.9888 C   0  0  0  0  0  0  0  0  0  0  0  0
   80.5250  147.5607   22.4481 O   0  0  0  0  0  0  0  0  0  0  0  0
   79.2133  147.3039   22.7834 C   0  0  0  0  0  0  0  0  0  0  0  0
   78.5625  147.7929   23.8842 C   0  0  0  0  0  0  0  0  0  0  0  0
   78.4838  146.4728   21.9286 C   0  0  0  0  0  0  0  0  0  0  0  0
   77.2448  147.4712   24.1273 C   0  0  0  0  0  0  0  0  0  0  0  0
   77.1675  146.1491   22.1680 C   0  0  0  0  0  0  0  0  0  0  0  0
   76.5198  146.6451   23.2787 C   0  0  0  0  0  0  0  0  0  0  0  0
   83.7405  150.5838   15.4879 C   0  0  0  0  0  0  0  0  0  0  0  0
   84.0874  151.9241   15.5505 C   0  0  0  0  0  0  0  0  0  0  0  0
   83.2359  150.0352   14.3285 C   0  0  0  0  0  0  0  0  0  0  0  0
   83.9457  152.7707   14.4607 C   0  0  0  0  0  0  0  0  0  0  0  0
   83.0882  150.8625   13.2353 C   0  0  0  0  0  0  0  0  0  0  0  0
   83.4384  152.1930   13.3151 C   0  0  0  0  0  0  0  0  0  0  0  0
   84.3005  154.1769   14.5002 C   0  0  0  0  0  0  0  0  0  0  0  0
   85.1964  154.5342   15.3117 O   0  0  0  0  0  0  0  0  0  0  0  0
   83.7266  155.1798   13.7048 N   0  0  0  0  0  0  0  0  0  0  0  0
   83.0265  154.9099   13.0673 H   0  0  0  0  0  0  0  0  0  0  0  0
   84.0851  156.5803   13.7501 C   0  0  0  0  0  0  0  0  0  0  0  0
   85.2949  156.8875   12.9605 C   0  0  0  0  0  0  0  0  0  0  0  0
   84.3776  156.9497   15.1877 C   0  0  0  0  0  0  0  0  0  0  0  0
   85.8921  156.0719   12.2124 O   0  0  0  0  0  0  0  0  0  0  0  0
   85.8017  158.2191   13.0759 N   0  0  0  0  0  0  0  0  0  0  0  0
   84.8410  158.3527   15.3694 C   0  0  0  0  0  0  0  0  0  0  0  0
   85.2784  159.0274   14.1241 C   0  0  0  0  0  0  0  0  0  0  0  0
   85.2095  160.2697   13.9522 O   0  0  0  0  0  0  0  0  0  0  0  0
   86.4847  158.5630   12.4558 H   0  0  0  0  0  0  0  0  0  0  0  0
  2  3  2  0
  2  4  2  0
  2  5  1  0
  2  6  1  0
  5  7  1  0
  5  1  1  0
  6  8  1  0
  7  9  1  0
  1 21  1  0
  8 10  1  0
  9 10  1  0
 21 22  2  0
 21 23  1  0
 10 11  1  0
 22 24  1  0
 23 25  2  0
 11 12  2  0
 11 13  1  0
 24 27  1  0
 24 26  2  0
 25 26  1  0
 13 14  1  0
 27 28  2  0
 27 29  1  0
 14 15  1  0
 29 30  1  0
 15 16  2  0
 15 17  1  0
 31 29  1  0
 31 32  1  0
 31 33  1  0
 16 18  1  0
 17 19  2  0
 32 34  2  0
 32 35  1  0
 33 36  1  0
 18 20  2  0
 19 20  1  0
 35 37  1  0
 35 39  1  0
 36 37  1  0
 37 38  2  0
M  END
> <Molecule Name>
Compound 10

> <EC50 (µM) (Excel)>
14.3

> <Error (µM)>
1.3

> <HTRC CRBN-DDB1 EC50 (µM)>
14.29 ±  1.32

> <EC50 fitting (µM)>
23.96

> <Modèle Fitting>
3PL

> <Parent_Compound>
Compound 10

> <MMFF94s_energy_kcalmol>
144.245
$$$$

> <minimizedAffinity>
-8.80463

> <CNNscore>
0.5235199928

> <CNNaffinity>
6.5512719154

> <CNN_VS>
3.4297218323

> <CNNaffinity_variance>
0.1291911155

$$$$
Compound_10_ent1


 39 42  0  0  0  0  0  0  0  0999 V2000
   82.4764  149.9281   16.3318 C   0  0  0  0  0  0  0  0  0  0  0  0
   79.8879  150.5255   16.3450 S   0  0  0  0  0  0  0  0  0  0  0  0
   79.2631  150.2014   17.6821 O   0  0  0  0  0  0  0  0  0  0  0  0
   80.4475  151.9402   16.4974 O   0  0  0  0  0  0  0  0  0  0  0  0
   81.1649  149.4820   16.0385 N   0  0  0  0  0  0  0  0  0  0  0  0
   78.6026  150.5686   15.1563 C   0  0  0  0  0  0  0  0  0  0  0  0
   81.0005  148.4514   15.0902 C   0  0  0  0  0  0  0  0  0  0  0  0
   78.3183  149.2608   14.4814 C   0  0  0  0  0  0  0  0  0  0  0  0
   80.7228  148.9076   13.6744 C   0  0  0  0  0  0  0  0  0  0  0  0
   79.2994  148.9295   13.4768 N   0  0  0  0  0  0  0  0  0  0  0  0
   78.8659  148.5939   12.1721 C   0  0  0  0  0  0  0  0  0  0  0  0
   79.7112  148.3046   11.2987 O   0  0  0  0  0  0  0  0  0  0  0  0
   77.4207  148.5750   11.8065 C   0  0  0  0  0  0  0  0  0  0  0  0
   77.1497  147.6687   10.7847 O   0  0  0  0  0  0  0  0  0  0  0  0
   76.4612  147.9112    9.6160 C   0  0  0  0  0  0  0  0  0  0  0  0
   75.5027  148.8731    9.4414 C   0  0  0  0  0  0  0  0  0  0  0  0
   76.7650  147.1069    8.5140 C   0  0  0  0  0  0  0  0  0  0  0  0
   74.8722  149.0306    8.2263 C   0  0  0  0  0  0  0  0  0  0  0  0
   76.1374  147.2611    7.2986 C   0  0  0  0  0  0  0  0  0  0  0  0
   75.1733  148.2315    7.1313 C   0  0  0  0  0  0  0  0  0  0  0  0
   83.1196  150.6716   15.2172 C   0  0  0  0  0  0  0  0  0  0  0  0
   83.4238  152.0196   15.3214 C   0  0  0  0  0  0  0  0  0  0  0  0
   83.4104  149.9655   14.0698 C   0  0  0  0  0  0  0  0  0  0  0  0
   84.0297  152.7175   14.2869 C   0  0  0  0  0  0  0  0  0  0  0  0
   84.0129  150.6436   13.0313 C   0  0  0  0  0  0  0  0  0  0  0  0
   84.3084  151.9842   13.1520 C   0  0  0  0  0  0  0  0  0  0  0  0
   84.3579  154.1283   14.3701 C   0  0  0  0  0  0  0  0  0  0  0  0
   85.2297  154.4802   15.2099 O   0  0  0  0  0  0  0  0  0  0  0  0
   83.7827  155.1413   13.5885 N   0  0  0  0  0  0  0  0  0  0  0  0
   83.1014  154.8757   12.9293 H   0  0  0  0  0  0  0  0  0  0  0  0
   84.1145  156.5462   13.6775 C   0  0  0  0  0  0  0  0  0  0  0  0
   85.3234  156.8991   12.9060 C   0  0  0  0  0  0  0  0  0  0  0  0
   84.3906  156.8784   15.1274 C   0  0  0  0  0  0  0  0  0  0  0  0
   85.9408  156.1172   12.1385 O   0  0  0  0  0  0  0  0  0  0  0  0
   85.8043  158.2359   13.0641 N   0  0  0  0  0  0  0  0  0  0  0  0
   84.8263  158.2838   15.3536 C   0  0  0  0  0  0  0  0  0  0  0  0
   85.2591  159.0031   14.1319 C   0  0  0  0  0  0  0  0  0  0  0  0
   85.1679  160.2484   13.9961 O   0  0  0  0  0  0  0  0  0  0  0  0
   86.4848  158.6106   12.4593 H   0  0  0  0  0  0  0  0  0  0  0  0
  2  3  2  0
  2  4  2  0
  2  5  1  0
  2  6  1  0
  5  7  1  0
  5  1  1  0
  6  8  1  0
  7  9  1  0
  1 21  1  0
  8 10  1  0
  9 10  1  0
 21 22  2  0
 21 23  1  0
 10 11  1  0
 22 24  1  0
 23 25  2  0
 11 12  2  0
 11 13  1  0
 24 27  1  0
 24 26  2  0
 25 26  1  0
 13 14  1  0
 27 28  2  0
 27 29  1  0
 14 15  1  0
 29 30  1  0
 15 16  2  0
 15 17  1  0
 31 29  1  0
 31 32  1  0
 31 33  1  0
 16 18  1  0
 17 19  2  0
 32 34  2  0
 32 35  1  0
 33 36  1  0
 18 20  2  0
 19 20  1  0
 35 37  1  0
 35 39  1  0
 36 37  1  0
 37 38  2  0
M  END
> <Molecule Name>
Compound 10

> <EC50 (µM) (Excel)>
14.3

> <Error (µM)>
1.3

> <HTRC CRBN-DDB1 EC50 (µM)>
14.29 ±  1.32

> <EC50 fitting (µM)>
23.96

> <Modèle Fitting>
3PL

> <Parent_Compound>
Compound 10

> <MMFF94s_energy_kcalmol>
144.245
$$$$

> <minimizedAffinity>
-9.70358

> <CNNscore>
0.5013101697

> <CNNaffinity>
6.7746505737

> <CNN_VS>
3.3962011337

> <CNNaffinity_variance>
0.1587606668

$$$$
Compound_10_ent1


 39 42  0  0  0  0  0  0  0  0999 V2000
   81.7249  149.8723   13.2068 C   0  0  0  0  0  0  0  0  0  0  0  0
   79.8184  148.2475   14.0914 S   0  0  0  0  0  0  0  0  0  0  0  0
   78.6115  148.2820   13.1829 O   0  0  0  0  0  0  0  0  0  0  0  0
   80.7472  147.1965   13.4828 O   0  0  0  0  0  0  0  0  0  0  0  0
   80.6045  149.7290   14.0606 N   0  0  0  0  0  0  0  0  0  0  0  0
   79.2867  147.6699   15.6568 C   0  0  0  0  0  0  0  0  0  0  0  0
   80.4853  150.5956   15.1667 C   0  0  0  0  0  0  0  0  0  0  0  0
   78.8477  148.7383   16.6119 C   0  0  0  0  0  0  0  0  0  0  0  0
   81.0344  150.0637   16.4726 C   0  0  0  0  0  0  0  0  0  0  0  0
   79.9578  149.4484   17.1992 N   0  0  0  0  0  0  0  0  0  0  0  0
   80.0324  149.5708   18.6072 C   0  0  0  0  0  0  0  0  0  0  0  0
   80.9907  150.1862   19.1209 O   0  0  0  0  0  0  0  0  0  0  0  0
   78.9942  148.9834   19.5014 C   0  0  0  0  0  0  0  0  0  0  0  0
   79.5364  148.5054   20.6916 O   0  0  0  0  0  0  0  0  0  0  0  0
   78.8585  148.1884   21.8486 C   0  0  0  0  0  0  0  0  0  0  0  0
   79.3683  147.4752   22.9002 C   0  0  0  0  0  0  0  0  0  0  0  0
   77.5373  148.6309   21.9595 C   0  0  0  0  0  0  0  0  0  0  0  0
   78.6008  147.2116   24.0140 C   0  0  0  0  0  0  0  0  0  0  0  0
   76.7675  148.3697   23.0703 C   0  0  0  0  0  0  0  0  0  0  0  0
   77.2881  147.6506   24.1244 C   0  0  0  0  0  0  0  0  0  0  0  0
   82.9116  150.4716   13.8713 C   0  0  0  0  0  0  0  0  0  0  0  0
   83.1386  151.8387   13.8610 C   0  0  0  0  0  0  0  0  0  0  0  0
   83.7816  149.6129   14.5081 C   0  0  0  0  0  0  0  0  0  0  0  0
   84.2410  152.4044   14.4847 C   0  0  0  0  0  0  0  0  0  0  0  0
   84.8830  150.1583   15.1333 C   0  0  0  0  0  0  0  0  0  0  0  0
   85.0933  151.5201   15.1133 C   0  0  0  0  0  0  0  0  0  0  0  0
   84.5021  153.8316   14.4881 C   0  0  0  0  0  0  0  0  0  0  0  0
   85.2476  154.2904   15.3951 O   0  0  0  0  0  0  0  0  0  0  0  0
   83.9913  154.7507   13.5595 N   0  0  0  0  0  0  0  0  0  0  0  0
   83.4086  154.4014   12.8469 H   0  0  0  0  0  0  0  0  0  0  0  0
   84.2555  156.1727   13.5695 C   0  0  0  0  0  0  0  0  0  0  0  0
   85.4944  156.5300   12.8494 C   0  0  0  0  0  0  0  0  0  0  0  0
   84.4243  156.6146   15.0066 C   0  0  0  0  0  0  0  0  0  0  0  0
   86.1926  155.7286   12.1774 O   0  0  0  0  0  0  0  0  0  0  0  0
   85.9059  157.8959   12.9420 N   0  0  0  0  0  0  0  0  0  0  0  0
   84.7833  158.0512   15.1593 C   0  0  0  0  0  0  0  0  0  0  0  0
   85.2612  158.7064   13.9185 C   0  0  0  0  0  0  0  0  0  0  0  0
   85.1248  159.9339   13.6903 O   0  0  0  0  0  0  0  0  0  0  0  0
   86.6064  158.2610   12.3545 H   0  0  0  0  0  0  0  0  0  0  0  0
  2  3  2  0
  2  4  2  0
  2  5  1  0
  2  6  1  0
  5  7  1  0
  5  1  1  0
  6  8  1  0
  7  9  1  0
  1 21  1  0
  8 10  1  0
  9 10  1  0
 21 22  2  0
 21 23  1  0
 10 11  1  0
 22 24  1  0
 23 25  2  0
 11 12  2  0
 11 13  1  0
 24 27  1  0
 24 26  2  0
 25 26  1  0
 13 14  1  0
 27 28  2  0
 27 29  1  0
 14 15  1  0
 29 30  1  0
 15 16  2  0
 15 17  1  0
 31 29  1  0
 31 32  1  0
 31 33  1  0
 16 18  1  0
 17 19  2  0
 32 34  2  0
 32 35  1  0
 33 36  1  0
 18 20  2  0
 19 20  1  0
 35 37  1  0
 35 39  1  0
 36 37  1  0
 37 38  2  0
M  END
> <Molecule Name>
Compound 10

> <EC50 (µM) (Excel)>
14.3

> <Error (µM)>
1.3

> <HTRC CRBN-DDB1 EC50 (µM)>
14.29 ±  1.32

> <EC50 fitting (µM)>
23.96

> <Modèle Fitting>
3PL

> <Parent_Compound>
Compound 10

> <MMFF94s_energy_kcalmol>
144.245
$$$$

> <minimizedAffinity>
-8.61726

> <CNNscore>
0.4706613421

> <CNNaffinity>
6.4434776306

> <CNN_VS>
3.0326957703

> <CNNaffinity_variance>
0.1255655140

$$$$
