Compound_10_ent2
 OpenBabel09072607323D

 65 68  0  0  0  0  0  0  0  0999 V2000
   -0.0491    1.0445    0.9581 S   0  0  0  0  0  0  0  0  0  0  0  0
   -1.4089    1.5169    0.4564 O   0  0  0  0  0  0  0  0  0  0  0  0
   -0.3198    0.3467    2.2638 O   0  0  0  0  0  0  0  0  0  0  0  0
    0.5926   -0.0332   -0.1292 N   0  0  0  0  0  0  0  0  0  0  0  0
    0.9162    2.4699    1.3062 C   0  0  0  0  0  0  0  0  0  0  0  0
    1.5107    0.3775   -1.1026 C   0  0  0  0  0  0  0  0  0  0  0  0
   -0.0545   -1.2719   -0.2369 C   0  0  0  0  0  0  0  0  0  0  0  0
    1.8042    2.8887    0.1661 C   0  0  0  0  0  0  0  0  0  0  0  0
    2.8942    0.6475   -0.4814 C   0  0  0  0  0  0  0  0  0  0  0  0
   -1.1421   -1.3712   -1.2311 C   0  0  0  0  0  0  0  0  0  0  0  0
    2.9263    1.9390    0.1217 N   0  0  0  0  0  0  0  0  0  0  0  0
   -2.4665   -1.1175   -0.8899 C   0  0  0  0  0  0  0  0  0  0  0  0
   -0.8826   -1.7164   -2.5394 C   0  0  0  0  0  0  0  0  0  0  0  0
    4.1000    2.3701    0.7294 C   0  0  0  0  0  0  0  0  0  0  0  0
   -3.4935   -1.2012   -1.8048 C   0  0  0  0  0  0  0  0  0  0  0  0
   -1.8799   -1.8128   -3.4909 C   0  0  0  0  0  0  0  0  0  0  0  0
    4.1407    3.5237    1.2772 O   0  0  0  0  0  0  0  0  0  0  0  0
    5.3345    1.5880    0.7970 C   0  0  0  0  0  0  0  0  0  0  0  0
   -4.8862   -0.9442   -1.4858 C   0  0  0  0  0  0  0  0  0  0  0  0
   -3.1677   -1.5513   -3.0974 C   0  0  0  0  0  0  0  0  0  0  0  0
    5.2991    0.3344    0.1987 O   0  0  0  0  0  0  0  0  0  0  0  0
   -5.7426   -1.0505   -2.4045 O   0  0  0  0  0  0  0  0  0  0  0  0
   -5.3505   -0.5778   -0.1950 N   0  0  0  0  0  0  0  0  0  0  0  0
    6.3563   -0.5313    0.1656 C   0  0  0  0  0  0  0  0  0  0  0  0
   -6.7644   -0.3486   -0.0046 C   0  0  1  0  0  0  0  0  0  0  0  0
    7.5464   -0.1767    0.7497 C   0  0  0  0  0  0  0  0  0  0  0  0
    6.2153   -1.7701   -0.4629 C   0  0  0  0  0  0  0  0  0  0  0  0
   -7.3167   -1.1916    1.0787 C   0  0  0  0  0  0  0  0  0  0  0  0
   -6.9900    1.1027    0.3803 C   0  0  0  0  0  0  0  0  0  0  0  0
    8.5732   -1.0868    0.6854 C   0  0  0  0  0  0  0  0  0  0  0  0
    7.2582   -2.6640   -0.5141 C   0  0  0  0  0  0  0  0  0  0  0  0
   -7.9824   -2.2132    0.7916 O   0  0  0  0  0  0  0  0  0  0  0  0
   -7.0696   -0.8078    2.4205 N   0  0  0  0  0  0  0  0  0  0  0  0
   -6.2585    1.4617    1.6568 C   0  0  0  0  0  0  0  0  0  0  0  0
    8.4537   -2.3165    0.0687 C   0  0  0  0  0  0  0  0  0  0  0  0
   -6.5083    0.4732    2.7324 C   0  0  0  0  0  0  0  0  0  0  0  0
   -6.2308    0.7516    3.9159 O   0  0  0  0  0  0  0  0  0  0  0  0
    1.5321    2.2621    2.1561 H   0  0  0  0  0  0  0  0  0  0  0  0
    0.2343    3.2748    1.4851 H   0  0  0  0  0  0  0  0  0  0  0  0
    1.1535    1.2747   -1.5635 H   0  0  0  0  0  0  0  0  0  0  0  0
    1.6101   -0.4037   -1.8270 H   0  0  0  0  0  0  0  0  0  0  0  0
   -0.4698   -1.5045    0.7214 H   0  0  0  0  0  0  0  0  0  0  0  0
    0.6982   -1.9522   -0.5767 H   0  0  0  0  0  0  0  0  0  0  0  0
    2.1693    3.8810    0.3304 H   0  0  0  0  0  0  0  0  0  0  0  0
    1.2651    2.8853   -0.7581 H   0  0  0  0  0  0  0  0  0  0  0  0
    3.6400    0.5976   -1.2471 H   0  0  0  0  0  0  0  0  0  0  0  0
    3.0869   -0.0903    0.2692 H   0  0  0  0  0  0  0  0  0  0  0  0
   -2.6880   -0.8571    0.0838 H   0  0  0  0  0  0  0  0  0  0  0  0
    0.0918   -1.9100   -2.8188 H   0  0  0  0  0  0  0  0  0  0  0  0
   -1.6630   -2.0730   -4.4657 H   0  0  0  0  0  0  0  0  0  0  0  0
    5.5777    1.4502    1.8298 H   0  0  0  0  0  0  0  0  0  0  0  0
    6.0598    2.1487    0.2452 H   0  0  0  0  0  0  0  0  0  0  0  0
   -3.9230   -1.6195   -3.7974 H   0  0  0  0  0  0  0  0  0  0  0  0
   -4.7211   -0.4817    0.5559 H   0  0  0  0  0  0  0  0  0  0  0  0
   -7.2556   -0.5933   -0.9231 H   0  0  0  0  0  0  0  0  0  0  0  0
    7.6649    0.7355    1.2176 H   0  0  0  0  0  0  0  0  0  0  0  0
    5.3125   -2.0189   -0.8965 H   0  0  0  0  0  0  0  0  0  0  0  0
   -8.0379    1.2650    0.5233 H   0  0  0  0  0  0  0  0  0  0  0  0
   -6.6113    1.7203   -0.4072 H   0  0  0  0  0  0  0  0  0  0  0  0
    9.4768   -0.8398    1.1185 H   0  0  0  0  0  0  0  0  0  0  0  0
    7.1460   -3.5776   -0.9807 H   0  0  0  0  0  0  0  0  0  0  0  0
   -7.2872   -1.4317    3.1504 H   0  0  0  0  0  0  0  0  0  0  0  0
   -6.5904    2.4238    1.9870 H   0  0  0  0  0  0  0  0  0  0  0  0
   -5.2091    1.4670    1.4479 H   0  0  0  0  0  0  0  0  0  0  0  0
    9.2537   -2.9680    0.0456 H   0  0  0  0  0  0  0  0  0  0  0  0
  1  2  2  0  0  0  0
  1  3  2  0  0  0  0
  1  4  1  0  0  0  0
  1  5  1  0  0  0  0
  4  6  1  0  0  0  0
  4  7  1  0  0  0  0
  5  8  1  0  0  0  0
  5 38  1  0  0  0  0
  5 39  1  0  0  0  0
  6  9  1  0  0  0  0
  6 40  1  0  0  0  0
  6 41  1  0  0  0  0
  7 10  1  0  0  0  0
  7 42  1  0  0  0  0
  7 43  1  0  0  0  0
  8 11  1  0  0  0  0
  8 44  1  0  0  0  0
  8 45  1  0  0  0  0
  9 11  1  0  0  0  0
  9 46  1  0  0  0  0
  9 47  1  0  0  0  0
 10 12  2  0  0  0  0
 10 13  1  0  0  0  0
 11 14  1  0  0  0  0
 12 15  1  0  0  0  0
 12 48  1  0  0  0  0
 13 16  2  0  0  0  0
 13 49  1  0  0  0  0
 14 17  2  0  0  0  0
 14 18  1  0  0  0  0
 15 19  1  0  0  0  0
 15 20  2  0  0  0  0
 16 20  1  0  0  0  0
 16 50  1  0  0  0  0
 18 21  1  0  0  0  0
 18 51  1  0  0  0  0
 18 52  1  0  0  0  0
 19 22  2  0  0  0  0
 19 23  1  0  0  0  0
 20 53  1  0  0  0  0
 21 24  1  0  0  0  0
 23 54  1  0  0  0  0
 24 26  2  0  0  0  0
 24 27  1  0  0  0  0
 25 23  1  0  0  0  0
 25 28  1  0  0  0  0
 25 29  1  0  0  0  0
 25 55  1  6  0  0  0
 26 30  1  0  0  0  0
 26 56  1  0  0  0  0
 27 31  2  0  0  0  0
 27 57  1  0  0  0  0
 28 32  2  0  0  0  0
 28 33  1  0  0  0  0
 29 34  1  0  0  0  0
 29 58  1  0  0  0  0
 29 59  1  0  0  0  0
 30 35  2  0  0  0  0
 30 60  1  0  0  0  0
 31 35  1  0  0  0  0
 31 61  1  0  0  0  0
 33 36  1  0  0  0  0
 33 62  1  0  0  0  0
 34 36  1  0  0  0  0
 34 63  1  0  0  0  0
 34 64  1  0  0  0  0
 35 65  1  0  0  0  0
 36 37  2  0  0  0  0
M  END
>  <Molecule Name>
Compound 10

>  <EC50 (µM) (Excel)>
14.3

>  <Error (µM)>
1.3

>  <HTRC CRBN-DDB1 EC50 (µM)>
14.29 ±  1.32

>  <EC50 fitting (µM)>
23.96

>  <Modèle Fitting>
3PL

>  <Parent_Compound>
Compound 10

>  <MMFF94s_energy_kcalmol>
145.091
$$$$
