Compound_7_ent2


 36 38  0  0  0  0  0  0  0  0999 V2000
   83.9112  150.6298   13.5024 C   0  0  0  0  0  0  0  0  0  0  0  0
   84.2544  151.9612   13.5412 C   0  0  0  0  0  0  0  0  0  0  0  0
   82.7221  150.2464   14.0606 C   0  0  0  0  0  0  0  0  0  0  0  0
   83.4633  152.9223   14.1119 C   0  0  0  0  0  0  0  0  0  0  0  0
   81.8954  151.1602   14.6420 C   0  0  0  0  0  0  0  0  0  0  0  0
   82.2718  152.5006   14.6651 C   0  0  0  0  0  0  0  0  0  0  0  0
   83.7931  154.3259   14.1737 C   0  0  0  0  0  0  0  0  0  0  0  0
   82.9119  155.2199   13.9164 O   0  0  0  0  0  0  0  0  0  0  0  0
   85.0703  154.8125   14.5111 N   0  0  0  0  0  0  0  0  0  0  0  0
   85.7854  154.1679   14.7168 H   0  0  0  0  0  0  0  0  0  0  0  0
   85.3727  156.2485   14.5668 C   0  0  0  0  0  0  0  0  0  0  0  0
   85.6198  156.7224   13.1806 C   0  0  0  0  0  0  0  0  0  0  0  0
   84.1575  157.0308   15.0722 C   0  0  0  0  0  0  0  0  0  0  0  0
   85.9640  155.9674   12.2376 O   0  0  0  0  0  0  0  0  0  0  0  0
   85.4498  158.1117   12.9352 N   0  0  0  0  0  0  0  0  0  0  0  0
   84.6768  158.4447   15.3415 C   0  0  0  0  0  0  0  0  0  0  0  0
   85.1557  158.9777   14.0304 C   0  0  0  0  0  0  0  0  0  0  0  0
   85.2902  160.2263   13.9290 O   0  0  0  0  0  0  0  0  0  0  0  0
   85.5337  158.4715   12.0227 H   0  0  0  0  0  0  0  0  0  0  0  0
   84.7903  149.6497   12.8873 C   0  0  0  0  0  0  0  0  0  0  0  0
   87.1445  150.2287   11.7441 S   0  0  0  0  0  0  0  0  0  0  0  0
   86.4494  150.5083   10.4529 O   0  0  0  0  0  0  0  0  0  0  0  0
   88.0506  149.0319   11.4547 O   0  0  0  0  0  0  0  0  0  0  0  0
   86.1629  149.8296   13.0286 N   0  0  0  0  0  0  0  0  0  0  0  0
   88.2574  151.5773   12.0675 C   0  0  0  0  0  0  0  0  0  0  0  0
   86.8510  149.2901   14.1328 C   0  0  0  0  0  0  0  0  0  0  0  0
   89.3860  151.1823   12.9819 C   0  0  0  0  0  0  0  0  0  0  0  0
   87.7268  150.3621   14.7889 C   0  0  0  0  0  0  0  0  0  0  0  0
   88.9920  150.3700   14.0886 N   0  0  0  0  0  0  0  0  0  0  0  0
   89.9521  149.4420   14.5842 C   0  0  0  0  0  0  0  0  0  0  0  0
   89.7133  148.6810   15.5512 O   0  0  0  0  0  0  0  0  0  0  0  0
   91.2049  149.3581   13.9920 O   0  0  0  0  0  0  0  0  0  0  0  0
   91.6926  148.0986   13.5690 C   0  0  0  0  0  0  0  0  0  0  0  0
   92.1213  147.2457   14.7475 C   0  0  0  0  0  0  0  0  0  0  0  0
   90.5770  147.3945   12.8488 C   0  0  0  0  0  0  0  0  0  0  0  0
   92.8312  148.3450   12.6128 C   0  0  0  0  0  0  0  0  0  0  0  0
 21 22  2  0
 21 23  2  0
 21 24  1  0
 21 25  1  0
 24 26  1  0
 24 20  1  0
 25 27  1  0
 26 28  1  0
 20  1  1  0
 27 29  1  0
 28 29  1  0
  1  2  2  0
  1  3  1  0
 29 30  1  0
  2  4  1  0
  3  5  2  0
 30 31  2  0
 30 32  1  0
  4  7  1  0
  4  6  2  0
  5  6  1  0
 32 33  1  0
  7  8  2  0
  7  9  1  0
 33 34  1  0
 33 35  1  0
 33 36  1  0
  9 10  1  0
 11  9  1  0
 11 12  1  0
 11 13  1  0
 12 14  2  0
 12 15  1  0
 13 16  1  0
 15 17  1  0
 15 19  1  0
 16 17  1  0
 17 18  2  0
M  END
> <Molecule Name>
Compound 7

> <EC50 (µM) (Excel)>
4.1

> <Error (µM)>
0.2

> <HTRC CRBN-DDB1 EC50 (µM)>
4.06 ±  0.18

> <EC50 fitting (µM)>
3.77

> <Modèle Fitting>
4PL

> <Parent_Compound>
Compound 7

> <MMFF94s_energy_kcalmol>
148.317
$$$$

> <minimizedAffinity>
-7.88665

> <CNNscore>
0.8314337730

> <CNNaffinity>
7.0160164833

> <CNN_VS>
5.8333530426

> <CNNaffinity_variance>
0.1101305559

$$$$
Compound_7_ent2


 36 38  0  0  0  0  0  0  0  0999 V2000
   82.9919  150.4060   15.1020 C   0  0  0  0  0  0  0  0  0  0  0  0
   83.5235  151.6455   15.3721 C   0  0  0  0  0  0  0  0  0  0  0  0
   82.8678  150.0203   13.7950 C   0  0  0  0  0  0  0  0  0  0  0  0
   83.9347  152.5130   14.3955 C   0  0  0  0  0  0  0  0  0  0  0  0
   83.2609  150.8430   12.7826 C   0  0  0  0  0  0  0  0  0  0  0  0
   83.7952  152.0919   13.0891 C   0  0  0  0  0  0  0  0  0  0  0  0
   84.4928  153.8209   14.6420 C   0  0  0  0  0  0  0  0  0  0  0  0
   85.2108  154.0439   15.6796 O   0  0  0  0  0  0  0  0  0  0  0  0
   84.3000  154.9242   13.7893 N   0  0  0  0  0  0  0  0  0  0  0  0
   83.7548  154.8081   12.9777 H   0  0  0  0  0  0  0  0  0  0  0  0
   84.8840  156.2424   14.0683 C   0  0  0  0  0  0  0  0  0  0  0  0
   85.1002  156.9354   12.7721 C   0  0  0  0  0  0  0  0  0  0  0  0
   83.8953  157.1090   14.8529 C   0  0  0  0  0  0  0  0  0  0  0  0
   85.2063  156.3378   11.6723 O   0  0  0  0  0  0  0  0  0  0  0  0
   85.1878  158.3532   12.8069 N   0  0  0  0  0  0  0  0  0  0  0  0
   84.7050  158.3244   15.3097 C   0  0  0  0  0  0  0  0  0  0  0  0
   85.1656  159.0179   14.0692 C   0  0  0  0  0  0  0  0  0  0  0  0
   85.5352  160.2173   14.1814 O   0  0  0  0  0  0  0  0  0  0  0  0
   85.2627  158.8694   11.9719 H   0  0  0  0  0  0  0  0  0  0  0  0
   82.5671  149.5254   16.1772 C   0  0  0  0  0  0  0  0  0  0  0  0
   80.2543  150.8792   16.1280 S   0  0  0  0  0  0  0  0  0  0  0  0
   80.7236  151.6387   14.9316 O   0  0  0  0  0  0  0  0  0  0  0  0
   80.0817  151.9323   17.2226 O   0  0  0  0  0  0  0  0  0  0  0  0
   81.2913  149.7093   16.7013 N   0  0  0  0  0  0  0  0  0  0  0  0
   78.6088  150.2948   15.7921 C   0  0  0  0  0  0  0  0  0  0  0  0
   80.9613  149.2254   17.9823 C   0  0  0  0  0  0  0  0  0  0  0  0
   77.8276  150.0273   17.0506 C   0  0  0  0  0  0  0  0  0  0  0  0
   79.6575  148.4232   17.9280 C   0  0  0  0  0  0  0  0  0  0  0  0
   78.5688  149.3637   18.0753 N   0  0  0  0  0  0  0  0  0  0  0  0
   78.2064  149.6479   19.4232 C   0  0  0  0  0  0  0  0  0  0  0  0
   78.7891  149.1214   20.4002 O   0  0  0  0  0  0  0  0  0  0  0  0
   77.1740  150.5365   19.6908 O   0  0  0  0  0  0  0  0  0  0  0  0
   75.9743  150.0571   20.2685 C   0  0  0  0  0  0  0  0  0  0  0  0
   74.7618  150.7688   19.6995 C   0  0  0  0  0  0  0  0  0  0  0  0
   75.8650  148.5930   19.9471 C   0  0  0  0  0  0  0  0  0  0  0  0
   76.0798  150.2373   21.7611 C   0  0  0  0  0  0  0  0  0  0  0  0
 21 22  2  0
 21 23  2  0
 21 24  1  0
 21 25  1  0
 24 26  1  0
 24 20  1  0
 25 27  1  0
 26 28  1  0
 20  1  1  0
 27 29  1  0
 28 29  1  0
  1  2  2  0
  1  3  1  0
 29 30  1  0
  2  4  1  0
  3  5  2  0
 30 31  2  0
 30 32  1  0
  4  7  1  0
  4  6  2  0
  5  6  1  0
 32 33  1  0
  7  8  2  0
  7  9  1  0
 33 34  1  0
 33 35  1  0
 33 36  1  0
  9 10  1  0
 11  9  1  0
 11 12  1  0
 11 13  1  0
 12 14  2  0
 12 15  1  0
 13 16  1  0
 15 17  1  0
 15 19  1  0
 16 17  1  0
 17 18  2  0
M  END
> <Molecule Name>
Compound 7

> <EC50 (µM) (Excel)>
4.1

> <Error (µM)>
0.2

> <HTRC CRBN-DDB1 EC50 (µM)>
4.06 ±  0.18

> <EC50 fitting (µM)>
3.77

> <Modèle Fitting>
4PL

> <Parent_Compound>
Compound 7

> <MMFF94s_energy_kcalmol>
148.317
$$$$

> <minimizedAffinity>
-9.33168

> <CNNscore>
0.8100507259

> <CNNaffinity>
7.0977787971

> <CNN_VS>
5.7495608330

> <CNNaffinity_variance>
0.1524820179

$$$$
Compound_7_ent2


 36 38  0  0  0  0  0  0  0  0999 V2000
   83.1882  150.2562   15.2214 C   0  0  0  0  0  0  0  0  0  0  0  0
   83.6898  151.5130   15.4680 C   0  0  0  0  0  0  0  0  0  0  0  0
   82.9958  149.8745   13.9215 C   0  0  0  0  0  0  0  0  0  0  0  0
   84.0061  152.4014   14.4750 C   0  0  0  0  0  0  0  0  0  0  0  0
   83.2934  150.7176   12.8935 C   0  0  0  0  0  0  0  0  0  0  0  0
   83.7997  151.9835   13.1764 C   0  0  0  0  0  0  0  0  0  0  0  0
   84.5302  153.7275   14.6971 C   0  0  0  0  0  0  0  0  0  0  0  0
   85.1754  154.0082   15.7681 O   0  0  0  0  0  0  0  0  0  0  0  0
   84.3802  154.7882   13.7838 N   0  0  0  0  0  0  0  0  0  0  0  0
   83.8912  154.6272   12.9446 H   0  0  0  0  0  0  0  0  0  0  0  0
   84.9278  156.1266   14.0396 C   0  0  0  0  0  0  0  0  0  0  0  0
   85.1235  156.8031   12.7315 C   0  0  0  0  0  0  0  0  0  0  0  0
   83.9163  156.9788   14.8108 C   0  0  0  0  0  0  0  0  0  0  0  0
   85.2449  156.1901   11.6418 O   0  0  0  0  0  0  0  0  0  0  0  0
   85.1719  158.2232   12.7420 N   0  0  0  0  0  0  0  0  0  0  0  0
   84.6926  158.2236   15.2458 C   0  0  0  0  0  0  0  0  0  0  0  0
   85.1327  158.9084   13.9930 C   0  0  0  0  0  0  0  0  0  0  0  0
   85.4690  160.1192   14.0842 O   0  0  0  0  0  0  0  0  0  0  0  0
   85.2317  158.7270   11.8983 H   0  0  0  0  0  0  0  0  0  0  0  0
   82.8651  149.3537   16.3136 C   0  0  0  0  0  0  0  0  0  0  0  0
   83.6957  147.7957   18.3304 S   0  0  0  0  0  0  0  0  0  0  0  0
   82.2809  147.6049   18.7664 O   0  0  0  0  0  0  0  0  0  0  0  0
   84.3730  148.5235   19.4917 O   0  0  0  0  0  0  0  0  0  0  0  0
   83.9176  148.7076   16.9549 N   0  0  0  0  0  0  0  0  0  0  0  0
   84.4709  146.1963   18.2785 C   0  0  0  0  0  0  0  0  0  0  0  0
   85.2496  149.1129   16.7417 C   0  0  0  0  0  0  0  0  0  0  0  0
   85.9678  146.2803   18.4125 C   0  0  0  0  0  0  0  0  0  0  0  0
   86.1259  147.9027   16.4041 C   0  0  0  0  0  0  0  0  0  0  0  0
   86.5698  147.3318   17.6564 N   0  0  0  0  0  0  0  0  0  0  0  0
   87.7619  147.9066   18.1829 C   0  0  0  0  0  0  0  0  0  0  0  0
   88.3733  148.8341   17.6021 O   0  0  0  0  0  0  0  0  0  0  0  0
   88.2857  147.4405   19.3810 O   0  0  0  0  0  0  0  0  0  0  0  0
   89.6020  147.8031   19.7538 C   0  0  0  0  0  0  0  0  0  0  0  0
   90.3082  148.5503   18.6388 C   0  0  0  0  0  0  0  0  0  0  0  0
   89.5059  148.7073   20.9504 C   0  0  0  0  0  0  0  0  0  0  0  0
   90.3349  146.5423   20.1344 C   0  0  0  0  0  0  0  0  0  0  0  0
 21 22  2  0
 21 23  2  0
 21 24  1  0
 21 25  1  0
 24 26  1  0
 24 20  1  0
 25 27  1  0
 26 28  1  0
 20  1  1  0
 27 29  1  0
 28 29  1  0
  1  2  2  0
  1  3  1  0
 29 30  1  0
  2  4  1  0
  3  5  2  0
 30 31  2  0
 30 32  1  0
  4  7  1  0
  4  6  2  0
  5  6  1  0
 32 33  1  0
  7  8  2  0
  7  9  1  0
 33 34  1  0
 33 35  1  0
 33 36  1  0
  9 10  1  0
 11  9  1  0
 11 12  1  0
 11 13  1  0
 12 14  2  0
 12 15  1  0
 13 16  1  0
 15 17  1  0
 15 19  1  0
 16 17  1  0
 17 18  2  0
M  END
> <Molecule Name>
Compound 7

> <EC50 (µM) (Excel)>
4.1

> <Error (µM)>
0.2

> <HTRC CRBN-DDB1 EC50 (µM)>
4.06 ±  0.18

> <EC50 fitting (µM)>
3.77

> <Modèle Fitting>
4PL

> <Parent_Compound>
Compound 7

> <MMFF94s_energy_kcalmol>
148.317
$$$$

> <minimizedAffinity>
-8.07019

> <CNNscore>
0.7719250321

> <CNNaffinity>
7.0289959908

> <CNN_VS>
5.4258580208

> <CNNaffinity_variance>
0.3087514937

$$$$
Compound_7_ent2


 36 38  0  0  0  0  0  0  0  0999 V2000
   84.2295  150.0780   14.9265 C   0  0  0  0  0  0  0  0  0  0  0  0
   84.5386  151.4126   14.8038 C   0  0  0  0  0  0  0  0  0  0  0  0
   82.9183  149.7002   14.8241 C   0  0  0  0  0  0  0  0  0  0  0  0
   83.5970  152.3824   14.5842 C   0  0  0  0  0  0  0  0  0  0  0  0
   81.9396  150.6226   14.6058 C   0  0  0  0  0  0  0  0  0  0  0  0
   82.2852  151.9662   14.4863 C   0  0  0  0  0  0  0  0  0  0  0  0
   83.8847  153.7906   14.4543 C   0  0  0  0  0  0  0  0  0  0  0  0
   82.9675  154.6204   14.1193 O   0  0  0  0  0  0  0  0  0  0  0  0
   85.1568  154.3504   14.6780 N   0  0  0  0  0  0  0  0  0  0  0  0
   85.8985  153.7568   14.9366 H   0  0  0  0  0  0  0  0  0  0  0  0
   85.4159  155.7892   14.5389 C   0  0  0  0  0  0  0  0  0  0  0  0
   85.6701  156.0760   13.1036 C   0  0  0  0  0  0  0  0  0  0  0  0
   84.1705  156.5950   14.9184 C   0  0  0  0  0  0  0  0  0  0  0  0
   86.0509  155.2098   12.2773 O   0  0  0  0  0  0  0  0  0  0  0  0
   85.4630  157.4124   12.6675 N   0  0  0  0  0  0  0  0  0  0  0  0
   84.6437  158.0480   14.9962 C   0  0  0  0  0  0  0  0  0  0  0  0
   85.1267  158.4108   13.6298 C   0  0  0  0  0  0  0  0  0  0  0  0
   85.2259  159.6373   13.3590 O   0  0  0  0  0  0  0  0  0  0  0  0
   85.5503  157.6461   11.7151 H   0  0  0  0  0  0  0  0  0  0  0  0
   85.2683  149.0897   15.1633 C   0  0  0  0  0  0  0  0  0  0  0  0
   87.0992  149.1090   13.2058 S   0  0  0  0  0  0  0  0  0  0  0  0
   87.6942  150.3547   13.7738 O   0  0  0  0  0  0  0  0  0  0  0  0
   86.5845  149.5109   11.8235 O   0  0  0  0  0  0  0  0  0  0  0  0
   85.8258  148.4559   14.0570 N   0  0  0  0  0  0  0  0  0  0  0  0
   88.4250  147.9680   12.8861 C   0  0  0  0  0  0  0  0  0  0  0  0
   85.1067  147.4714   13.3515 C   0  0  0  0  0  0  0  0  0  0  0  0
   88.0663  146.9528   11.8342 C   0  0  0  0  0  0  0  0  0  0  0  0
   85.9685  146.2199   13.1582 C   0  0  0  0  0  0  0  0  0  0  0  0
   86.7479  146.4174   11.9562 N   0  0  0  0  0  0  0  0  0  0  0  0
   86.0977  146.0187   10.7533 C   0  0  0  0  0  0  0  0  0  0  0  0
   84.9411  145.5357   10.7437 O   0  0  0  0  0  0  0  0  0  0  0  0
   86.7473  146.1600    9.5346 O   0  0  0  0  0  0  0  0  0  0  0  0
   87.0669  145.0076    8.7777 C   0  0  0  0  0  0  0  0  0  0  0  0
   87.9075  145.3565    7.5645 C   0  0  0  0  0  0  0  0  0  0  0  0
   87.8599  144.0857    9.6609 C   0  0  0  0  0  0  0  0  0  0  0  0
   85.7725  144.3407    8.3887 C   0  0  0  0  0  0  0  0  0  0  0  0
 21 22  2  0
 21 23  2  0
 21 24  1  0
 21 25  1  0
 24 26  1  0
 24 20  1  0
 25 27  1  0
 26 28  1  0
 20  1  1  0
 27 29  1  0
 28 29  1  0
  1  2  2  0
  1  3  1  0
 29 30  1  0
  2  4  1  0
  3  5  2  0
 30 31  2  0
 30 32  1  0
  4  7  1  0
  4  6  2  0
  5  6  1  0
 32 33  1  0
  7  8  2  0
  7  9  1  0
 33 34  1  0
 33 35  1  0
 33 36  1  0
  9 10  1  0
 11  9  1  0
 11 12  1  0
 11 13  1  0
 12 14  2  0
 12 15  1  0
 13 16  1  0
 15 17  1  0
 15 19  1  0
 16 17  1  0
 17 18  2  0
M  END
> <Molecule Name>
Compound 7

> <EC50 (µM) (Excel)>
4.1

> <Error (µM)>
0.2

> <HTRC CRBN-DDB1 EC50 (µM)>
4.06 ±  0.18

> <EC50 fitting (µM)>
3.77

> <Modèle Fitting>
4PL

> <Parent_Compound>
Compound 7

> <MMFF94s_energy_kcalmol>
148.317
$$$$

> <minimizedAffinity>
-6.73895

> <CNNscore>
0.7464094758

> <CNNaffinity>
7.2746582031

> <CNN_VS>
5.4298739433

> <CNNaffinity_variance>
1.9685368538

$$$$
Compound_7_ent2


 36 38  0  0  0  0  0  0  0  0999 V2000
   83.2832  150.6116   13.7900 C   0  0  0  0  0  0  0  0  0  0  0  0
   83.7316  151.9114   13.7532 C   0  0  0  0  0  0  0  0  0  0  0  0
   82.1047  150.3464   14.4327 C   0  0  0  0  0  0  0  0  0  0  0  0
   83.0554  152.9536   14.3292 C   0  0  0  0  0  0  0  0  0  0  0  0
   81.3899  151.3447   15.0234 C   0  0  0  0  0  0  0  0  0  0  0  0
   81.8711  152.6503   14.9686 C   0  0  0  0  0  0  0  0  0  0  0  0
   83.4976  154.3273   14.3131 C   0  0  0  0  0  0  0  0  0  0  0  0
   82.7111  155.2664   13.9371 O   0  0  0  0  0  0  0  0  0  0  0  0
   84.7891  154.7350   14.6972 N   0  0  0  0  0  0  0  0  0  0  0  0
   85.4343  154.0531   14.9937 H   0  0  0  0  0  0  0  0  0  0  0  0
   85.2072  156.1426   14.6711 C   0  0  0  0  0  0  0  0  0  0  0  0
   85.5443  156.4981   13.2686 C   0  0  0  0  0  0  0  0  0  0  0  0
   84.0429  157.0528   15.0713 C   0  0  0  0  0  0  0  0  0  0  0  0
   85.8597  155.6545   12.3930 O   0  0  0  0  0  0  0  0  0  0  0  0
   85.4992  157.8762   12.9251 N   0  0  0  0  0  0  0  0  0  0  0  0
   84.6671  158.4358   15.2688 C   0  0  0  0  0  0  0  0  0  0  0  0
   85.2371  158.8367   13.9472 C   0  0  0  0  0  0  0  0  0  0  0  0
   85.4783  160.0605   13.7695 O   0  0  0  0  0  0  0  0  0  0  0  0
   85.6466  158.1641   11.9952 H   0  0  0  0  0  0  0  0  0  0  0  0
   84.0428  149.5417   13.1653 C   0  0  0  0  0  0  0  0  0  0  0  0
   86.3665  149.4427   14.4976 S   0  0  0  0  0  0  0  0  0  0  0  0
   85.6453  148.9881   15.7230 O   0  0  0  0  0  0  0  0  0  0  0  0
   86.9710  150.7957   14.8732 O   0  0  0  0  0  0  0  0  0  0  0  0
   85.4291  149.6597   13.1386 N   0  0  0  0  0  0  0  0  0  0  0  0
   87.7632  148.3688   14.2569 C   0  0  0  0  0  0  0  0  0  0  0  0
   86.0732  150.3617   12.1012 C   0  0  0  0  0  0  0  0  0  0  0  0
   88.8517  149.0176   13.4445 C   0  0  0  0  0  0  0  0  0  0  0  0
   87.2068  149.5169   11.5116 C   0  0  0  0  0  0  0  0  0  0  0  0
   88.3842  149.7576   12.3159 N   0  0  0  0  0  0  0  0  0  0  0  0
   89.1617  150.8804   11.9115 C   0  0  0  0  0  0  0  0  0  0  0  0
   88.8449  151.5994   10.9347 O   0  0  0  0  0  0  0  0  0  0  0  0
   90.3161  151.2112   12.6078 O   0  0  0  0  0  0  0  0  0  0  0  0
   91.5755  151.0631   11.9792 C   0  0  0  0  0  0  0  0  0  0  0  0
   91.5020  151.4043   10.5032 C   0  0  0  0  0  0  0  0  0  0  0  0
   92.5327  152.0126   12.6433 C   0  0  0  0  0  0  0  0  0  0  0  0
   92.0365  149.6459   12.2038 C   0  0  0  0  0  0  0  0  0  0  0  0
 21 22  2  0
 21 23  2  0
 21 24  1  0
 21 25  1  0
 24 26  1  0
 24 20  1  0
 25 27  1  0
 26 28  1  0
 20  1  1  0
 27 29  1  0
 28 29  1  0
  1  2  2  0
  1  3  1  0
 29 30  1  0
  2  4  1  0
  3  5  2  0
 30 31  2  0
 30 32  1  0
  4  7  1  0
  4  6  2  0
  5  6  1  0
 32 33  1  0
  7  8  2  0
  7  9  1  0
 33 34  1  0
 33 35  1  0
 33 36  1  0
  9 10  1  0
 11  9  1  0
 11 12  1  0
 11 13  1  0
 12 14  2  0
 12 15  1  0
 13 16  1  0
 15 17  1  0
 15 19  1  0
 16 17  1  0
 17 18  2  0
M  END
> <Molecule Name>
Compound 7

> <EC50 (µM) (Excel)>
4.1

> <Error (µM)>
0.2

> <HTRC CRBN-DDB1 EC50 (µM)>
4.06 ±  0.18

> <EC50 fitting (µM)>
3.77

> <Modèle Fitting>
4PL

> <Parent_Compound>
Compound 7

> <MMFF94s_energy_kcalmol>
148.317
$$$$

> <minimizedAffinity>
-8.30540

> <CNNscore>
0.7402366400

> <CNNaffinity>
7.0419268608

> <CNN_VS>
5.2126922607

> <CNNaffinity_variance>
0.2279458046

$$$$
