Compound_12_ent1
 OpenBabel09072607323D

 68 71  0  0  0  0  0  0  0  0999 V2000
   -0.5104    0.4596   -1.4671 S   0  0  0  0  0  0  0  0  0  0  0  0
   -1.3550   -0.2554   -2.4786 O   0  0  0  0  0  0  0  0  0  0  0  0
   -1.4291    1.4490   -0.7630 O   0  0  0  0  0  0  0  0  0  0  0  0
    0.2486   -0.5933   -0.3603 N   0  0  0  0  0  0  0  0  0  0  0  0
    0.6586    1.4533   -2.3749 C   0  0  0  0  0  0  0  0  0  0  0  0
    1.6888   -0.4583   -0.3293 C   0  0  0  0  0  0  0  0  0  0  0  0
   -0.3464   -0.6376    0.9337 C   0  0  0  0  0  0  0  0  0  0  0  0
    1.2630    2.5268   -1.4916 C   0  0  0  0  0  0  0  0  0  0  0  0
    2.0434    0.8876    0.3196 C   0  0  0  0  0  0  0  0  0  0  0  0
   -1.3874   -1.6472    1.1305 C   0  0  0  0  0  0  0  0  0  0  0  0
    2.2884    1.8916   -0.6806 N   0  0  0  0  0  0  0  0  0  0  0  0
   -2.7343   -1.3559    0.8725 C   0  0  0  0  0  0  0  0  0  0  0  0
   -1.0111   -2.8932    1.5777 C   0  0  0  0  0  0  0  0  0  0  0  0
    3.6316    2.2863   -0.8865 C   0  0  0  0  0  0  0  0  0  0  0  0
   -3.7184   -2.2915    1.0540 C   0  0  0  0  0  0  0  0  0  0  0  0
   -1.9987   -3.8363    1.7612 C   0  0  0  0  0  0  0  0  0  0  0  0
    3.9238    3.1708   -1.7552 O   0  0  0  0  0  0  0  0  0  0  0  0
    4.7323    1.6768   -0.0927 C   0  0  0  0  0  0  0  0  0  0  0  0
   -5.1216   -2.0103    0.7914 C   0  0  0  0  0  0  0  0  0  0  0  0
   -3.3244   -3.5539    1.5087 C   0  0  0  0  0  0  0  0  0  0  0  0
    6.0341    2.2782   -0.5265 C   0  0  0  0  0  0  0  0  0  0  0  0
   -6.0135   -2.9096    0.9858 O   0  0  0  0  0  0  0  0  0  0  0  0
   -5.6234   -0.7740    0.3166 N   0  0  0  0  0  0  0  0  0  0  0  0
    7.1724    1.8333    0.0931 O   0  0  0  0  0  0  0  0  0  0  0  0
   -7.0352   -0.5284    0.0654 C   0  0  2  0  0  0  0  0  0  0  0  0
    7.7564    0.5945    0.1284 C   0  0  0  0  0  0  0  0  0  0  0  0
   -7.3121   -0.3357   -1.3716 C   0  0  0  0  0  0  0  0  0  0  0  0
   -7.6039    0.5217    0.9607 C   0  0  0  0  0  0  0  0  0  0  0  0
    8.9196    0.4581    0.8785 C   0  0  0  0  0  0  0  0  0  0  0  0
    7.3138   -0.5298   -0.5035 C   0  0  0  0  0  0  0  0  0  0  0  0
   -6.4963   -0.7387   -2.2202 O   0  0  0  0  0  0  0  0  0  0  0  0
   -8.5111    0.3097   -1.7583 N   0  0  0  0  0  0  0  0  0  0  0  0
   -8.1666    1.7233    0.2335 C   0  0  0  0  0  0  0  0  0  0  0  0
    9.6070   -0.7203    0.9992 C   0  0  0  0  0  0  0  0  0  0  0  0
    7.9582   -1.7536   -0.4250 C   0  0  0  0  0  0  0  0  0  0  0  0
   -9.0995    1.2027   -0.8033 C   0  0  0  0  0  0  0  0  0  0  0  0
    9.1033   -1.8315    0.3305 C   0  0  0  0  0  0  0  0  0  0  0  0
  -10.3076    1.4926   -0.8761 O   0  0  0  0  0  0  0  0  0  0  0  0
    0.1572    1.9188   -3.1976 H   0  0  0  0  0  0  0  0  0  0  0  0
    1.4453    0.8182   -2.7252 H   0  0  0  0  0  0  0  0  0  0  0  0
    2.0749   -0.4900   -1.3267 H   0  0  0  0  0  0  0  0  0  0  0  0
    2.1180   -1.2595    0.2353 H   0  0  0  0  0  0  0  0  0  0  0  0
   -0.7805    0.3212    1.1267 H   0  0  0  0  0  0  0  0  0  0  0  0
    0.4436   -0.9056    1.6038 H   0  0  0  0  0  0  0  0  0  0  0  0
    0.5087    2.9508   -0.8622 H   0  0  0  0  0  0  0  0  0  0  0  0
    1.6814    3.3137   -2.0837 H   0  0  0  0  0  0  0  0  0  0  0  0
    2.9225    0.7672    0.9177 H   0  0  0  0  0  0  0  0  0  0  0  0
    1.2193    1.2026    0.9250 H   0  0  0  0  0  0  0  0  0  0  0  0
   -2.9906   -0.4139    0.5378 H   0  0  0  0  0  0  0  0  0  0  0  0
   -0.0214   -3.1140    1.7694 H   0  0  0  0  0  0  0  0  0  0  0  0
   -1.7397   -4.7775    2.0960 H   0  0  0  0  0  0  0  0  0  0  0  0
    4.7520    0.6199   -0.2584 H   0  0  0  0  0  0  0  0  0  0  0  0
    4.5753    1.8649    0.9489 H   0  0  0  0  0  0  0  0  0  0  0  0
   -4.0369   -4.2854    1.6576 H   0  0  0  0  0  0  0  0  0  0  0  0
    5.9707    3.3335   -0.3617 H   0  0  0  0  0  0  0  0  0  0  0  0
    6.1453    1.9813   -1.5485 H   0  0  0  0  0  0  0  0  0  0  0  0
   -4.9847   -0.0440    0.1480 H   0  0  0  0  0  0  0  0  0  0  0  0
   -7.5707   -1.4151    0.3333 H   0  0  0  0  0  0  0  0  0  0  0  0
   -6.8281    0.8596    1.6155 H   0  0  0  0  0  0  0  0  0  0  0  0
   -8.4213    0.0693    1.4823 H   0  0  0  0  0  0  0  0  0  0  0  0
    9.2841    1.2890    1.3703 H   0  0  0  0  0  0  0  0  0  0  0  0
    6.4536   -0.4657   -1.0700 H   0  0  0  0  0  0  0  0  0  0  0  0
   -8.9208    0.1531   -2.6397 H   0  0  0  0  0  0  0  0  0  0  0  0
   -7.3762    2.2778   -0.2276 H   0  0  0  0  0  0  0  0  0  0  0  0
   -8.6734    2.3785    0.9108 H   0  0  0  0  0  0  0  0  0  0  0  0
   10.4674   -0.7818    1.5657 H   0  0  0  0  0  0  0  0  0  0  0  0
    7.5895   -2.5814   -0.9188 H   0  0  0  0  0  0  0  0  0  0  0  0
    9.6001   -2.7331    0.4034 H   0  0  0  0  0  0  0  0  0  0  0  0
  1  2  2  0  0  0  0
  1  3  2  0  0  0  0
  1  4  1  0  0  0  0
  1  5  1  0  0  0  0
  4  6  1  0  0  0  0
  4  7  1  0  0  0  0
  5  8  1  0  0  0  0
  5 39  1  0  0  0  0
  5 40  1  0  0  0  0
  6  9  1  0  0  0  0
  6 41  1  0  0  0  0
  6 42  1  0  0  0  0
  7 10  1  0  0  0  0
  7 43  1  0  0  0  0
  7 44  1  0  0  0  0
  8 11  1  0  0  0  0
  8 45  1  0  0  0  0
  8 46  1  0  0  0  0
  9 11  1  0  0  0  0
  9 47  1  0  0  0  0
  9 48  1  0  0  0  0
 10 12  2  0  0  0  0
 10 13  1  0  0  0  0
 11 14  1  0  0  0  0
 12 15  1  0  0  0  0
 12 49  1  0  0  0  0
 13 16  2  0  0  0  0
 13 50  1  0  0  0  0
 14 17  2  0  0  0  0
 14 18  1  0  0  0  0
 15 19  1  0  0  0  0
 15 20  2  0  0  0  0
 16 20  1  0  0  0  0
 16 51  1  0  0  0  0
 18 21  1  0  0  0  0
 18 52  1  0  0  0  0
 18 53  1  0  0  0  0
 19 22  2  0  0  0  0
 19 23  1  0  0  0  0
 20 54  1  0  0  0  0
 21 24  1  0  0  0  0
 21 55  1  0  0  0  0
 21 56  1  0  0  0  0
 23 57  1  0  0  0  0
 24 26  1  0  0  0  0
 25 23  1  0  0  0  0
 25 27  1  0  0  0  0
 25 28  1  0  0  0  0
 25 58  1  1  0  0  0
 26 29  2  0  0  0  0
 26 30  1  0  0  0  0
 27 31  2  0  0  0  0
 27 32  1  0  0  0  0
 28 33  1  0  0  0  0
 28 59  1  0  0  0  0
 28 60  1  0  0  0  0
 29 34  1  0  0  0  0
 29 61  1  0  0  0  0
 30 35  2  0  0  0  0
 30 62  1  0  0  0  0
 32 36  1  0  0  0  0
 32 63  1  0  0  0  0
 33 36  1  0  0  0  0
 33 64  1  0  0  0  0
 33 65  1  0  0  0  0
 34 37  2  0  0  0  0
 34 66  1  0  0  0  0
 35 37  1  0  0  0  0
 35 67  1  0  0  0  0
 36 38  2  0  0  0  0
 37 68  1  0  0  0  0
M  END
>  <Molecule Name>
Compound 12

>  <EC50 (µM) (Excel)>
61.9

>  <Error (µM)>
8.1

>  <HTRC CRBN-DDB1 EC50 (µM)>
61.88 ±  8.05

>  <EC50 fitting (µM)>
111.51

>  <Modèle Fitting>
4PL

>  <Parent_Compound>
Compound 12

>  <MMFF94s_energy_kcalmol>
156.552
$$$$
