Compound_7_ent1
 OpenBabel09072607323D

 64 66  0  0  0  0  0  0  0  0999 V2000
    2.3873    1.0557   -2.2280 S   0  0  0  0  0  0  0  0  0  0  0  0
    2.2834    0.8742   -3.6979 O   0  0  0  0  0  0  0  0  0  0  0  0
    3.2041   -0.1370   -1.7250 O   0  0  0  0  0  0  0  0  0  0  0  0
    0.9252    1.0584   -1.4214 N   0  0  0  0  0  0  0  0  0  0  0  0
    3.3955    2.4868   -1.8786 C   0  0  0  0  0  0  0  0  0  0  0  0
    0.9694    0.8893   -0.0223 C   0  0  0  0  0  0  0  0  0  0  0  0
   -0.2330    1.5708   -2.0195 C   0  0  0  0  0  0  0  0  0  0  0  0
    4.0400    2.3619   -0.5031 C   0  0  0  0  0  0  0  0  0  0  0  0
    1.7102    2.0718    0.5787 C   0  0  0  0  0  0  0  0  0  0  0  0
   -1.1502    0.6190   -2.6272 C   0  0  0  0  0  0  0  0  0  0  0  0
    3.1171    1.7640    0.4394 N   0  0  0  0  0  0  0  0  0  0  0  0
   -2.1786    0.0711   -1.8961 C   0  0  0  0  0  0  0  0  0  0  0  0
   -1.0122    0.2328   -3.9353 C   0  0  0  0  0  0  0  0  0  0  0  0
    3.6118    0.7718    1.3200 C   0  0  0  0  0  0  0  0  0  0  0  0
   -3.0685   -0.8327   -2.3920 C   0  0  0  0  0  0  0  0  0  0  0  0
   -1.8833   -0.6865   -4.5072 C   0  0  0  0  0  0  0  0  0  0  0  0
    2.9080    0.1876    2.1776 O   0  0  0  0  0  0  0  0  0  0  0  0
    4.9617    0.3842    1.2656 O   0  0  0  0  0  0  0  0  0  0  0  0
   -4.1882   -1.4196   -1.6852 C   0  0  0  0  0  0  0  0  0  0  0  0
   -2.8891   -1.1975   -3.7277 C   0  0  0  0  0  0  0  0  0  0  0  0
    5.4664   -0.6068    2.1360 C   0  0  0  0  0  0  0  0  0  0  0  0
   -4.8309   -2.3754   -2.1702 O   0  0  0  0  0  0  0  0  0  0  0  0
   -4.5816   -0.9057   -0.4106 N   0  0  0  0  0  0  0  0  0  0  0  0
    5.3211   -0.2329    3.5939 C   0  0  0  0  0  0  0  0  0  0  0  0
    4.7966   -1.9426    1.8638 C   0  0  0  0  0  0  0  0  0  0  0  0
    6.9377   -0.7730    1.7645 C   0  0  0  0  0  0  0  0  0  0  0  0
   -5.7146   -1.4710    0.3395 C   0  0  2  0  0  0  0  0  0  0  0  0
   -6.8841   -0.5747    0.2378 C   0  0  0  0  0  0  0  0  0  0  0  0
   -5.3437   -1.8909    1.7122 C   0  0  0  0  0  0  0  0  0  0  0  0
   -7.1631   -0.1116   -0.8976 O   0  0  0  0  0  0  0  0  0  0  0  0
   -7.6835   -0.2214    1.3278 N   0  0  0  0  0  0  0  0  0  0  0  0
   -5.8436   -0.9654    2.7928 C   0  0  0  0  0  0  0  0  0  0  0  0
   -7.2637   -0.6091    2.6385 C   0  0  0  0  0  0  0  0  0  0  0  0
   -8.1203   -0.6180    3.5539 O   0  0  0  0  0  0  0  0  0  0  0  0
    2.7827    3.3636   -1.9022 H   0  0  0  0  0  0  0  0  0  0  0  0
    4.1665    2.5560   -2.6173 H   0  0  0  0  0  0  0  0  0  0  0  0
    1.4831   -0.0185    0.2162 H   0  0  0  0  0  0  0  0  0  0  0  0
   -0.0231    0.8365    0.3739 H   0  0  0  0  0  0  0  0  0  0  0  0
    0.0755    2.2524   -2.7845 H   0  0  0  0  0  0  0  0  0  0  0  0
   -0.7861    2.0078   -1.2145 H   0  0  0  0  0  0  0  0  0  0  0  0
    4.3172    3.3349   -0.1549 H   0  0  0  0  0  0  0  0  0  0  0  0
    4.9050    1.7372   -0.5827 H   0  0  0  0  0  0  0  0  0  0  0  0
    1.4539    2.1870    1.6111 H   0  0  0  0  0  0  0  0  0  0  0  0
    1.4558    2.9880    0.0881 H   0  0  0  0  0  0  0  0  0  0  0  0
   -2.2821    0.3628   -0.9116 H   0  0  0  0  0  0  0  0  0  0  0  0
   -0.2491    0.6312   -4.5045 H   0  0  0  0  0  0  0  0  0  0  0  0
   -1.7762   -0.9767   -5.4917 H   0  0  0  0  0  0  0  0  0  0  0  0
   -3.5405   -1.8801   -4.1457 H   0  0  0  0  0  0  0  0  0  0  0  0
   -4.0803   -0.1520   -0.0235 H   0  0  0  0  0  0  0  0  0  0  0  0
    4.2839   -0.1217    3.8319 H   0  0  0  0  0  0  0  0  0  0  0  0
    5.8302    0.6901    3.7778 H   0  0  0  0  0  0  0  0  0  0  0  0
    5.7465   -1.0025    4.2036 H   0  0  0  0  0  0  0  0  0  0  0  0
    3.7574   -1.8772    2.1099 H   0  0  0  0  0  0  0  0  0  0  0  0
    5.2576   -2.7011    2.4613 H   0  0  0  0  0  0  0  0  0  0  0  0
    4.9030   -2.1905    0.8284 H   0  0  0  0  0  0  0  0  0  0  0  0
    7.4558    0.1467    1.9395 H   0  0  0  0  0  0  0  0  0  0  0  0
    7.0169   -1.0358    0.7303 H   0  0  0  0  0  0  0  0  0  0  0  0
    7.3716   -1.5464    2.3633 H   0  0  0  0  0  0  0  0  0  0  0  0
   -6.0121   -2.3937   -0.1133 H   0  0  0  0  0  0  0  0  0  0  0  0
   -4.2764   -1.9346    1.7739 H   0  0  0  0  0  0  0  0  0  0  0  0
   -5.8054   -2.8414    1.8806 H   0  0  0  0  0  0  0  0  0  0  0  0
   -8.5182    0.2838    1.1962 H   0  0  0  0  0  0  0  0  0  0  0  0
   -5.2627   -0.0672    2.7671 H   0  0  0  0  0  0  0  0  0  0  0  0
   -5.7441   -1.4812    3.7250 H   0  0  0  0  0  0  0  0  0  0  0  0
  1  2  2  0  0  0  0
  1  3  2  0  0  0  0
  1  4  1  0  0  0  0
  1  5  1  0  0  0  0
  4  6  1  0  0  0  0
  4  7  1  0  0  0  0
  5  8  1  0  0  0  0
  5 35  1  0  0  0  0
  5 36  1  0  0  0  0
  6  9  1  0  0  0  0
  6 37  1  0  0  0  0
  6 38  1  0  0  0  0
  7 10  1  0  0  0  0
  7 39  1  0  0  0  0
  7 40  1  0  0  0  0
  8 11  1  0  0  0  0
  8 41  1  0  0  0  0
  8 42  1  0  0  0  0
  9 11  1  0  0  0  0
  9 43  1  0  0  0  0
  9 44  1  0  0  0  0
 10 12  2  0  0  0  0
 10 13  1  0  0  0  0
 11 14  1  0  0  0  0
 12 15  1  0  0  0  0
 12 45  1  0  0  0  0
 13 16  2  0  0  0  0
 13 46  1  0  0  0  0
 14 17  2  0  0  0  0
 14 18  1  0  0  0  0
 15 19  1  0  0  0  0
 15 20  2  0  0  0  0
 16 20  1  0  0  0  0
 16 47  1  0  0  0  0
 18 21  1  0  0  0  0
 19 22  2  0  0  0  0
 19 23  1  0  0  0  0
 20 48  1  0  0  0  0
 21 24  1  0  0  0  0
 21 25  1  0  0  0  0
 21 26  1  0  0  0  0
 23 49  1  0  0  0  0
 24 50  1  0  0  0  0
 24 51  1  0  0  0  0
 24 52  1  0  0  0  0
 25 53  1  0  0  0  0
 25 54  1  0  0  0  0
 25 55  1  0  0  0  0
 26 56  1  0  0  0  0
 26 57  1  0  0  0  0
 26 58  1  0  0  0  0
 27 23  1  0  0  0  0
 27 28  1  0  0  0  0
 27 29  1  0  0  0  0
 27 59  1  6  0  0  0
 28 30  2  0  0  0  0
 28 31  1  0  0  0  0
 29 32  1  0  0  0  0
 29 60  1  0  0  0  0
 29 61  1  0  0  0  0
 31 33  1  0  0  0  0
 31 62  1  0  0  0  0
 32 33  1  0  0  0  0
 32 63  1  0  0  0  0
 32 64  1  0  0  0  0
 33 34  2  0  0  0  0
M  END
>  <Molecule Name>
Compound 7

>  <EC50 (µM) (Excel)>
4.1

>  <Error (µM)>
0.2

>  <HTRC CRBN-DDB1 EC50 (µM)>
4.06 ±  0.18

>  <EC50 fitting (µM)>
3.77

>  <Modèle Fitting>
4PL

>  <Parent_Compound>
Compound 7

>  <MMFF94s_energy_kcalmol>
145.431
$$$$
