Compound_4_s12
 OpenBabel09072607323D

 51 54  0  0  0  0  0  0  0  0999 V2000
   -4.8279    2.0511    0.5475 O   0  0  0  0  0  0  0  0  0  0  0  0
   -5.1570    0.8382    0.5073 C   0  0  0  0  0  0  0  0  0  0  0  0
   -4.1269   -0.1493    0.4186 N   0  0  0  0  0  0  0  0  0  0  0  0
   -6.5328    0.4776    0.5505 N   0  0  0  0  0  0  0  0  0  0  0  0
   -2.8382    0.1641   -0.0942 C   0  0  0  0  0  0  0  0  0  0  0  0
   -4.4725   -1.4903    0.8823 C   0  0  0  0  0  0  0  0  0  0  0  0
   -6.8177   -0.9161    0.5003 C   0  0  0  0  0  0  0  0  0  0  0  0
   -1.7888    0.6114    0.7110 C   0  0  0  0  0  0  0  0  0  0  0  0
   -2.5611    0.0376   -1.4387 C   0  0  0  0  0  0  0  0  0  0  0  0
   -5.7408   -1.8952    0.1766 C   0  0  0  0  0  0  0  0  0  0  0  0
   -8.0023   -1.2886    0.7373 O   0  0  0  0  0  0  0  0  0  0  0  0
   -0.5520    0.9057    0.1771 C   0  0  0  0  0  0  0  0  0  0  0  0
   -1.3093    0.3363   -1.9737 C   0  0  0  0  0  0  0  0  0  0  0  0
   -0.2968    0.7715   -1.1750 C   0  0  0  0  0  0  0  0  0  0  0  0
    0.7132    1.3852    0.8018 C   0  0  1  0  0  0  0  0  0  0  0  0
    1.1288    1.1833   -1.3591 C   0  0  2  0  0  0  0  0  0  0  0  0
    1.6741    0.7160   -0.0959 N   0  0  0  0  0  0  0  0  0  0  0  0
    0.9085    2.8081    0.3949 C   0  0  1  0  0  0  0  0  0  0  0  0
    1.1485    2.6739   -1.1162 C   0  0  1  0  0  0  0  0  0  0  0  0
    2.7602   -0.1051    0.1972 C   0  0  0  0  0  0  0  0  0  0  0  0
   -0.1880    3.6199    0.6556 O   0  0  0  0  0  0  0  0  0  0  0  0
    2.3314    3.2693   -1.4872 O   0  0  0  0  0  0  0  0  0  0  0  0
    3.0758   -0.3976    1.3743 O   0  0  0  0  0  0  0  0  0  0  0  0
    3.5279   -0.6245   -0.8307 O   0  0  0  0  0  0  0  0  0  0  0  0
    4.6213   -1.4498   -0.5600 C   0  0  0  0  0  0  0  0  0  0  0  0
    4.1373   -2.6673    0.1843 C   0  0  0  0  0  0  0  0  0  0  0  0
    5.7130   -0.7837    0.2274 C   0  0  0  0  0  0  0  0  0  0  0  0
    5.2482   -1.9080   -1.8792 C   0  0  0  0  0  0  0  0  0  0  0  0
   -7.2464    1.1531    0.6116 H   0  0  0  0  0  0  0  0  0  0  0  0
   -4.6288   -1.4828    1.9408 H   0  0  0  0  0  0  0  0  0  0  0  0
   -3.6831   -2.1803    0.6685 H   0  0  0  0  0  0  0  0  0  0  0  0
   -1.9418    0.7239    1.7254 H   0  0  0  0  0  0  0  0  0  0  0  0
   -3.3074   -0.2900   -2.0718 H   0  0  0  0  0  0  0  0  0  0  0  0
   -6.0352   -2.8711    0.5020 H   0  0  0  0  0  0  0  0  0  0  0  0
   -5.5745   -1.9094   -0.8803 H   0  0  0  0  0  0  0  0  0  0  0  0
   -1.1482    0.2262   -2.9871 H   0  0  0  0  0  0  0  0  0  0  0  0
    0.7677    1.2403    1.8605 H   0  0  0  0  0  0  0  0  0  0  0  0
    1.5793    0.8725   -2.2785 H   0  0  0  0  0  0  0  0  0  0  0  0
    1.7003    3.2808    0.9375 H   0  0  0  0  0  0  0  0  0  0  0  0
    0.4097    3.1729   -1.7079 H   0  0  0  0  0  0  0  0  0  0  0  0
   -0.9675    3.2668    0.1989 H   0  0  0  0  0  0  0  0  0  0  0  0
    3.0635    2.8705   -0.9914 H   0  0  0  0  0  0  0  0  0  0  0  0
    3.6951   -2.3664    1.1110 H   0  0  0  0  0  0  0  0  0  0  0  0
    4.9637   -3.3186    0.3784 H   0  0  0  0  0  0  0  0  0  0  0  0
    3.4094   -3.1814   -0.4079 H   0  0  0  0  0  0  0  0  0  0  0  0
    5.3214   -0.4443    1.1635 H   0  0  0  0  0  0  0  0  0  0  0  0
    6.0922    0.0510   -0.3243 H   0  0  0  0  0  0  0  0  0  0  0  0
    6.5032   -1.4832    0.4039 H   0  0  0  0  0  0  0  0  0  0  0  0
    4.5050   -2.3914   -2.4783 H   0  0  0  0  0  0  0  0  0  0  0  0
    6.0443   -2.5936   -1.6766 H   0  0  0  0  0  0  0  0  0  0  0  0
    5.6334   -1.0593   -2.4048 H   0  0  0  0  0  0  0  0  0  0  0  0
  1  2  2  0  0  0  0
  2  3  1  0  0  0  0
  2  4  1  0  0  0  0
  3  5  1  0  0  0  0
  3  6  1  0  0  0  0
  4  7  1  0  0  0  0
  4 29  1  0  0  0  0
  5  8  2  0  0  0  0
  5  9  1  0  0  0  0
  6 10  1  0  0  0  0
  6 30  1  0  0  0  0
  6 31  1  0  0  0  0
  7 11  2  0  0  0  0
  7 10  1  0  0  0  0
  8 12  1  0  0  0  0
  8 32  1  0  0  0  0
  9 13  2  0  0  0  0
  9 33  1  0  0  0  0
 10 34  1  0  0  0  0
 10 35  1  0  0  0  0
 12 14  2  0  0  0  0
 13 14  1  0  0  0  0
 13 36  1  0  0  0  0
 15 12  1  0  0  0  0
 15 17  1  0  0  0  0
 15 18  1  0  0  0  0
 15 37  1  1  0  0  0
 16 14  1  0  0  0  0
 16 19  1  0  0  0  0
 16 17  1  0  0  0  0
 16 38  1  6  0  0  0
 17 20  1  0  0  0  0
 18 21  1  0  0  0  0
 18 19  1  0  0  0  0
 18 39  1  1  0  0  0
 19 22  1  0  0  0  0
 19 40  1  6  0  0  0
 20 23  2  0  0  0  0
 20 24  1  0  0  0  0
 21 41  1  0  0  0  0
 22 42  1  0  0  0  0
 24 25  1  0  0  0  0
 25 26  1  0  0  0  0
 25 27  1  0  0  0  0
 25 28  1  0  0  0  0
 26 43  1  0  0  0  0
 26 44  1  0  0  0  0
 26 45  1  0  0  0  0
 27 46  1  0  0  0  0
 27 47  1  0  0  0  0
 27 48  1  0  0  0  0
 28 49  1  0  0  0  0
 28 50  1  0  0  0  0
 28 51  1  0  0  0  0
M  END
>  <Molecule Name>
Compound 4

>  <EC50 (µM) (Excel)>
11.8

>  <Error (µM)>
7.4

>  <HTRC CRBN-DDB1 EC50 (µM)>
11.78 ±  7.41

>  <EC50 fitting (µM)>
15.10

>  <Modèle Fitting>
4PL

>  <Parent_Compound>
Compound 4

>  <MMFF94s_energy_kcalmol>
162.454
$$$$
