Compound_8_ent1


 31 33  0  0  0  0  0  0  0  0999 V2000
   86.9656  150.9736   13.9869 C   0  0  0  0  0  0  0  0  0  0  0  0
   86.0285  151.9581   13.6400 C   0  0  0  0  0  0  0  0  0  0  0  0
   87.1958  150.6619   15.2844 C   0  0  0  0  0  0  0  0  0  0  0  0
   85.3116  152.6395   14.5994 C   0  0  0  0  0  0  0  0  0  0  0  0
   86.4741  151.3459   16.2715 C   0  0  0  0  0  0  0  0  0  0  0  0
   85.5580  152.3091   15.9109 C   0  0  0  0  0  0  0  0  0  0  0  0
   84.3416  153.6614   14.1911 C   0  0  0  0  0  0  0  0  0  0  0  0
   83.1300  153.3429   14.0256 O   0  0  0  0  0  0  0  0  0  0  0  0
   84.6925  154.9952   13.9710 N   0  0  0  0  0  0  0  0  0  0  0  0
   85.6319  155.2623   14.0951 H   0  0  0  0  0  0  0  0  0  0  0  0
   83.7156  156.0196   13.5608 C   0  0  0  0  0  0  0  0  0  0  0  0
   84.2164  156.7418   12.3702 C   0  0  0  0  0  0  0  0  0  0  0  0
   83.4702  156.9155   14.7301 C   0  0  0  0  0  0  0  0  0  0  0  0
   83.7779  156.4722   11.2255 O   0  0  0  0  0  0  0  0  0  0  0  0
   85.2016  157.7425   12.5588 N   0  0  0  0  0  0  0  0  0  0  0  0
   84.7577  157.6376   15.0636 C   0  0  0  0  0  0  0  0  0  0  0  0
   85.3853  158.2596   13.8895 C   0  0  0  0  0  0  0  0  0  0  0  0
   86.1073  159.2769   14.0468 O   0  0  0  0  0  0  0  0  0  0  0  0
   85.7421  158.0731   11.8052 H   0  0  0  0  0  0  0  0  0  0  0  0
   87.6909  150.3332   12.8614 C   0  0  0  0  0  0  0  0  0  0  0  0
   89.0925  151.6674   11.1329 S   0  0  0  0  0  0  0  0  0  0  0  0
   90.4806  152.2405   10.8997 O   0  0  0  0  0  0  0  0  0  0  0  0
   88.0629  152.7321   11.0138 O   0  0  0  0  0  0  0  0  0  0  0  0
   88.9813  150.9126   12.6544 N   0  0  0  0  0  0  0  0  0  0  0  0
   88.7593  150.4183    9.8801 C   0  0  0  0  0  0  0  0  0  0  0  0
   89.9949  149.9427   12.9214 C   0  0  0  0  0  0  0  0  0  0  0  0
   89.6535  149.2114   10.1968 C   0  0  0  0  0  0  0  0  0  0  0  0
   91.1549  149.9158   11.9816 C   0  0  0  0  0  0  0  0  0  0  0  0
   90.8948  149.7358   10.6309 N   0  0  0  0  0  0  0  0  0  0  0  0
   90.9943  150.6506   10.1908 H   0  0  0  0  0  0  0  0  0  0  0  0
   91.5550  149.0039   10.3681 H   0  0  0  0  0  0  0  0  0  0  0  0
 21 22  2  0
 21 23  2  0
 21 24  1  0
 21 25  1  0
 24 26  1  0
 24 20  1  0
 25 27  1  0
 26 28  1  0
 20  1  1  0
 27 29  1  0
 28 29  1  0
  1  2  2  0
  1  3  1  0
 29 30  1  0
 29 31  1  0
  2  4  1  0
  3  5  2  0
  4  7  1  0
  4  6  2  0
  5  6  1  0
  7  8  2  0
  7  9  1  0
  9 10  1  0
 11  9  1  0
 11 12  1  0
 11 13  1  0
 12 14  2  0
 12 15  1  0
 13 16  1  0
 15 17  1  0
 15 19  1  0
 16 17  1  0
 17 18  2  0
M  CHG 1  29   1
M  END
> <Molecule Name>
Compound 8

> <EC50 (µM) (Excel)>
6.8

> <Error (µM)>
1.0

> <HTRC CRBN-DDB1 EC50 (µM)>
6.77 ±  1.02

> <EC50 fitting (µM)>
7.19

> <Modèle Fitting>
4PL

> <Parent_Compound>
Compound 8

> <MMFF94s_energy_kcalmol>
133.791
$$$$
