Compound_7_ent2


 36 38  0  0  0  0  0  0  0  0999 V2000
   83.9112  150.6298   13.5024 C   0  0  0  0  0  0  0  0  0  0  0  0
   84.2544  151.9612   13.5412 C   0  0  0  0  0  0  0  0  0  0  0  0
   82.7221  150.2464   14.0606 C   0  0  0  0  0  0  0  0  0  0  0  0
   83.4633  152.9223   14.1119 C   0  0  0  0  0  0  0  0  0  0  0  0
   81.8954  151.1602   14.6420 C   0  0  0  0  0  0  0  0  0  0  0  0
   82.2718  152.5006   14.6651 C   0  0  0  0  0  0  0  0  0  0  0  0
   83.7931  154.3259   14.1737 C   0  0  0  0  0  0  0  0  0  0  0  0
   82.9119  155.2199   13.9164 O   0  0  0  0  0  0  0  0  0  0  0  0
   85.0703  154.8125   14.5111 N   0  0  0  0  0  0  0  0  0  0  0  0
   85.7854  154.1679   14.7168 H   0  0  0  0  0  0  0  0  0  0  0  0
   85.3727  156.2485   14.5668 C   0  0  0  0  0  0  0  0  0  0  0  0
   85.6198  156.7224   13.1806 C   0  0  0  0  0  0  0  0  0  0  0  0
   84.1575  157.0308   15.0722 C   0  0  0  0  0  0  0  0  0  0  0  0
   85.9640  155.9674   12.2376 O   0  0  0  0  0  0  0  0  0  0  0  0
   85.4498  158.1117   12.9352 N   0  0  0  0  0  0  0  0  0  0  0  0
   84.6768  158.4447   15.3415 C   0  0  0  0  0  0  0  0  0  0  0  0
   85.1557  158.9777   14.0304 C   0  0  0  0  0  0  0  0  0  0  0  0
   85.2902  160.2263   13.9290 O   0  0  0  0  0  0  0  0  0  0  0  0
   85.5337  158.4715   12.0227 H   0  0  0  0  0  0  0  0  0  0  0  0
   84.7903  149.6497   12.8873 C   0  0  0  0  0  0  0  0  0  0  0  0
   87.1445  150.2287   11.7441 S   0  0  0  0  0  0  0  0  0  0  0  0
   86.4494  150.5083   10.4529 O   0  0  0  0  0  0  0  0  0  0  0  0
   88.0506  149.0319   11.4547 O   0  0  0  0  0  0  0  0  0  0  0  0
   86.1629  149.8296   13.0286 N   0  0  0  0  0  0  0  0  0  0  0  0
   88.2574  151.5773   12.0675 C   0  0  0  0  0  0  0  0  0  0  0  0
   86.8510  149.2901   14.1328 C   0  0  0  0  0  0  0  0  0  0  0  0
   89.3860  151.1823   12.9819 C   0  0  0  0  0  0  0  0  0  0  0  0
   87.7268  150.3621   14.7889 C   0  0  0  0  0  0  0  0  0  0  0  0
   88.9920  150.3700   14.0886 N   0  0  0  0  0  0  0  0  0  0  0  0
   89.9521  149.4420   14.5842 C   0  0  0  0  0  0  0  0  0  0  0  0
   89.7133  148.6810   15.5512 O   0  0  0  0  0  0  0  0  0  0  0  0
   91.2049  149.3581   13.9920 O   0  0  0  0  0  0  0  0  0  0  0  0
   91.6926  148.0986   13.5690 C   0  0  0  0  0  0  0  0  0  0  0  0
   92.1213  147.2457   14.7475 C   0  0  0  0  0  0  0  0  0  0  0  0
   90.5770  147.3945   12.8488 C   0  0  0  0  0  0  0  0  0  0  0  0
   92.8312  148.3450   12.6128 C   0  0  0  0  0  0  0  0  0  0  0  0
 21 22  2  0
 21 23  2  0
 21 24  1  0
 21 25  1  0
 24 26  1  0
 24 20  1  0
 25 27  1  0
 26 28  1  0
 20  1  1  0
 27 29  1  0
 28 29  1  0
  1  2  2  0
  1  3  1  0
 29 30  1  0
  2  4  1  0
  3  5  2  0
 30 31  2  0
 30 32  1  0
  4  7  1  0
  4  6  2  0
  5  6  1  0
 32 33  1  0
  7  8  2  0
  7  9  1  0
 33 34  1  0
 33 35  1  0
 33 36  1  0
  9 10  1  0
 11  9  1  0
 11 12  1  0
 11 13  1  0
 12 14  2  0
 12 15  1  0
 13 16  1  0
 15 17  1  0
 15 19  1  0
 16 17  1  0
 17 18  2  0
M  END
> <Molecule Name>
Compound 7

> <EC50 (µM) (Excel)>
4.1

> <Error (µM)>
0.2

> <HTRC CRBN-DDB1 EC50 (µM)>
4.06 ±  0.18

> <EC50 fitting (µM)>
3.77

> <Modèle Fitting>
4PL

> <Parent_Compound>
Compound 7

> <MMFF94s_energy_kcalmol>
148.317
$$$$
