Compound_4_s5


 31 34  0  0  0  0  0  0  0  0999 V2000
   83.9619  154.9773   14.3233 C   0  0  0  0  0  0  0  0  0  0  0  0
   84.6168  153.8332   14.7242 C   0  0  0  0  0  0  0  0  0  0  0  0
   82.6040  154.9701   14.0509 C   0  0  0  0  0  0  0  0  0  0  0  0
   83.9503  152.6534   14.8666 C   0  0  0  0  0  0  0  0  0  0  0  0
   81.9329  153.7573   14.2001 C   0  0  0  0  0  0  0  0  0  0  0  0
   82.5949  152.6250   14.5996 C   0  0  0  0  0  0  0  0  0  0  0  0
   84.3187  151.2635   15.2698 C   0  0  0  0  0  0  0  0  0  0  0  0
   82.1564  151.2238   14.8372 C   0  0  0  0  0  0  0  0  0  0  0  0
   83.3706  150.5300   14.4740 N   0  0  0  0  0  0  0  0  0  0  0  0
   83.7028  151.0742   16.6429 C   0  0  0  0  0  0  0  0  0  0  0  0
   82.2040  151.0278   16.3383 C   0  0  0  0  0  0  0  0  0  0  0  0
   83.5090  149.4617   13.5952 C   0  0  0  0  0  0  0  0  0  0  0  0
   84.0085  152.1658   17.4333 O   0  0  0  0  0  0  0  0  0  0  0  0
   81.7095  149.7823   16.6432 O   0  0  0  0  0  0  0  0  0  0  0  0
   84.6492  148.9346   13.3592 O   0  0  0  0  0  0  0  0  0  0  0  0
   83.7100  152.9772   16.9934 H   0  0  0  0  0  0  0  0  0  0  0  0
   82.2084  149.1082   16.1557 H   0  0  0  0  0  0  0  0  0  0  0  0
   84.8358  156.0479   11.8576 O   0  0  0  0  0  0  0  0  0  0  0  0
   84.8596  156.7674   12.8945 C   0  0  0  0  0  0  0  0  0  0  0  0
   84.6886  156.1945   14.1843 N   0  0  0  0  0  0  0  0  0  0  0  0
   85.0589  158.1799   12.8050 N   0  0  0  0  0  0  0  0  0  0  0  0
   85.2664  156.8774   15.3207 C   0  0  0  0  0  0  0  0  0  0  0  0
   85.0770  158.9445   14.0049 C   0  0  0  0  0  0  0  0  0  0  0  0
   84.8587  158.3304   15.3309 C   0  0  0  0  0  0  0  0  0  0  0  0
   85.2861  160.1982   13.9577 O   0  0  0  0  0  0  0  0  0  0  0  0
   85.1812  158.6152   11.9304 H   0  0  0  0  0  0  0  0  0  0  0  0
   82.4554  148.8729   12.9026 O   0  0  0  0  0  0  0  0  0  0  0  0
   81.6562  147.8492   13.4052 C   0  0  0  0  0  0  0  0  0  0  0  0
   82.2913  147.0983   14.5484 C   0  0  0  0  0  0  0  0  0  0  0  0
   80.2698  148.2908   13.7966 C   0  0  0  0  0  0  0  0  0  0  0  0
   81.4808  146.8243   12.2758 C   0  0  0  0  0  0  0  0  0  0  0  0
 18 19  2  0
 19 20  1  0
 19 21  1  0
 20  1  1  0
 20 22  1  0
 21 23  1  0
 21 26  1  0
  1  2  2  0
  1  3  1  0
 22 24  1  0
 23 25  2  0
 23 24  1  0
  2  4  1  0
  3  5  2  0
  4  6  2  0
  5  6  1  0
  7  4  1  0
  7  9  1  0
  7 10  1  0
  8  6  1  0
  8 11  1  0
  8  9  1  0
  9 12  1  0
 10 13  1  0
 10 11  1  0
 11 14  1  0
 12 15  2  0
 12 27  1  0
 13 16  1  0
 14 17  1  0
 27 28  1  0
 28 29  1  0
 28 30  1  0
 28 31  1  0
M  END
> <Molecule Name>
Compound 4

> <EC50 (µM) (Excel)>
11.8

> <Error (µM)>
7.4

> <HTRC CRBN-DDB1 EC50 (µM)>
11.78 ±  7.41

> <EC50 fitting (µM)>
15.10

> <Modèle Fitting>
4PL

> <Parent_Compound>
Compound 4

> <MMFF94s_energy_kcalmol>
163.563
$$$$
