Compound_9_ent2


 36 38  0  0  0  0  0  0  0  0999 V2000
   82.4104  150.3827   15.6561 C   0  0  0  0  0  0  0  0  0  0  0  0
   83.4163  151.2699   15.3570 C   0  0  0  0  0  0  0  0  0  0  0  0
   81.1047  150.8584   15.6705 C   0  0  0  0  0  0  0  0  0  0  0  0
   83.2025  152.6034   15.0707 C   0  0  0  0  0  0  0  0  0  0  0  0
   80.8587  152.1798   15.3902 C   0  0  0  0  0  0  0  0  0  0  0  0
   81.9058  153.0567   15.0895 C   0  0  0  0  0  0  0  0  0  0  0  0
   84.3093  153.4995   14.7625 C   0  0  0  0  0  0  0  0  0  0  0  0
   85.4832  153.2337   15.1848 O   0  0  0  0  0  0  0  0  0  0  0  0
   84.1721  154.6764   14.0067 N   0  0  0  0  0  0  0  0  0  0  0  0
   83.2878  154.9297   13.6559 H   0  0  0  0  0  0  0  0  0  0  0  0
   85.3238  155.5251   13.7372 C   0  0  0  0  0  0  0  0  0  0  0  0
   85.0980  156.3628   12.5417 C   0  0  0  0  0  0  0  0  0  0  0  0
   85.5297  156.3633   14.9836 C   0  0  0  0  0  0  0  0  0  0  0  0
   84.9132  155.8152   11.4359 O   0  0  0  0  0  0  0  0  0  0  0  0
   85.0864  157.7766   12.6196 N   0  0  0  0  0  0  0  0  0  0  0  0
   84.5384  157.5172   15.0313 C   0  0  0  0  0  0  0  0  0  0  0  0
   84.8437  158.3970   13.8755 C   0  0  0  0  0  0  0  0  0  0  0  0
   84.8802  159.6422   14.0273 O   0  0  0  0  0  0  0  0  0  0  0  0
   85.2441  158.3222   11.8154 H   0  0  0  0  0  0  0  0  0  0  0  0
   82.7008  148.9441   15.9555 C   0  0  0  0  0  0  0  0  0  0  0  0
   85.0998  147.9335   16.1244 S   0  0  0  0  0  0  0  0  0  0  0  0
   84.9604  148.2976   17.5741 O   0  0  0  0  0  0  0  0  0  0  0  0
   85.1718  146.4262   16.0606 O   0  0  0  0  0  0  0  0  0  0  0  0
   83.8123  148.4878   15.2408 N   0  0  0  0  0  0  0  0  0  0  0  0
   86.6726  148.5411   15.5786 C   0  0  0  0  0  0  0  0  0  0  0  0
   83.7840  148.3949   13.8542 C   0  0  0  0  0  0  0  0  0  0  0  0
   86.3874  149.8665   14.9043 C   0  0  0  0  0  0  0  0  0  0  0  0
   85.0809  148.5042   13.1214 C   0  0  0  0  0  0  0  0  0  0  0  0
   85.9265  149.5748   13.5710 N   0  0  0  0  0  0  0  0  0  0  0  0
   86.3751  150.4772   12.5833 C   0  0  0  0  0  0  0  0  0  0  0  0
   86.0224  150.3012   11.3710 O   0  0  0  0  0  0  0  0  0  0  0  0
   87.2437  151.6409   12.8477 C   0  0  0  0  0  0  0  0  0  0  0  0
   87.9293  152.1140   11.6872 N   0  0  0  0  0  0  0  0  0  0  0  0
   89.2843  151.6787   11.5584 C   0  0  0  0  0  0  0  0  0  0  0  0
   87.6945  153.4839   11.3610 C   0  0  0  0  0  0  0  0  0  0  0  0
   87.4626  151.6167   10.9287 H   0  0  0  0  0  0  0  0  0  0  0  0
 21 22  2  0
 21 23  2  0
 21 24  1  0
 21 25  1  0
 24 26  1  0
 24 20  1  0
 25 27  1  0
 26 28  1  0
 20  1  1  0
 27 29  1  0
 28 29  1  0
  1  2  2  0
  1  3  1  0
 29 30  1  0
  2  4  1  0
  3  5  2  0
 30 31  2  0
 30 32  1  0
  4  7  1  0
  4  6  2  0
  5  6  1  0
 32 33  1  0
  7  8  2  0
  7  9  1  0
 33 34  1  0
 33 35  1  0
 33 36  1  0
  9 10  1  0
 11  9  1  0
 11 12  1  0
 11 13  1  0
 12 14  2  0
 12 15  1  0
 13 16  1  0
 15 17  1  0
 15 19  1  0
 16 17  1  0
 17 18  2  0
M  CHG 1  33   1
M  END
> <Molecule Name>
Compound 9

> <EC50 (µM) (Excel)>
54.0

> <Error (µM)>
9.3

> <HTRC CRBN-DDB1 EC50 (µM)>
53.95 ±  9.32

> <EC50 fitting (µM)>
108.30

> <Modèle Fitting>
4PL

> <Parent_Compound>
Compound 9

> <MMFF94s_energy_kcalmol>
152.432
$$$$
