Compound_11_ent2
 OpenBabel09072607323D

 60 63  0  0  0  0  0  0  0  0999 V2000
    1.5915    0.4177   -0.9801 S   0  0  0  0  0  0  0  0  0  0  0  0
    0.4368    1.3912   -1.0285 O   0  0  0  0  0  0  0  0  0  0  0  0
    1.4248   -0.3921   -2.2791 O   0  0  0  0  0  0  0  0  0  0  0  0
    1.5592   -0.6498    0.2840 N   0  0  0  0  0  0  0  0  0  0  0  0
    3.1055    1.2779   -1.1456 C   0  0  0  0  0  0  0  0  0  0  0  0
    2.0891   -0.3931    1.5439 C   0  0  0  0  0  0  0  0  0  0  0  0
    0.7416   -1.8032    0.1601 C   0  0  0  0  0  0  0  0  0  0  0  0
    4.2884    0.5814   -0.4864 C   0  0  0  0  0  0  0  0  0  0  0  0
    2.9503    0.7966    1.7462 C   0  0  0  0  0  0  0  0  0  0  0  0
   -0.6584   -1.5960    0.5622 C   0  0  0  0  0  0  0  0  0  0  0  0
    4.1761    0.6915    0.9631 N   0  0  0  0  0  0  0  0  0  0  0  0
   -1.6192   -1.1809   -0.3456 C   0  0  0  0  0  0  0  0  0  0  0  0
   -1.1150   -1.7965    1.8613 C   0  0  0  0  0  0  0  0  0  0  0  0
    5.4056    0.6995    1.6432 C   0  0  0  0  0  0  0  0  0  0  0  0
   -2.9306   -0.9696   -0.0351 C   0  0  0  0  0  0  0  0  0  0  0  0
   -2.4282   -1.5901    2.1935 C   0  0  0  0  0  0  0  0  0  0  0  0
    5.4138    0.7876    2.9065 O   0  0  0  0  0  0  0  0  0  0  0  0
    6.7147    0.6140    1.0079 C   0  0  0  0  0  0  0  0  0  0  0  0
   -3.8705   -0.5291   -1.0562 C   0  0  0  0  0  0  0  0  0  0  0  0
   -3.3595   -1.1701    1.2389 C   0  0  0  0  0  0  0  0  0  0  0  0
    7.6100    1.6365    1.1236 N   0  0  0  0  0  0  0  0  0  0  0  0
    7.0558   -0.5035    0.2846 C   0  0  0  0  0  0  0  0  0  0  0  0
   -3.4729   -0.3395   -2.2629 O   0  0  0  0  0  0  0  0  0  0  0  0
   -5.2437   -0.2793   -0.8340 N   0  0  0  0  0  0  0  0  0  0  0  0
    8.8085    1.5751    0.5504 C   0  0  0  0  0  0  0  0  0  0  0  0
    8.2880   -0.6086   -0.3259 C   0  0  0  0  0  0  0  0  0  0  0  0
   -6.1674    0.1643   -1.8719 C   0  0  1  0  0  0  0  0  0  0  0  0
    9.1643    0.4452   -0.1858 C   0  0  0  0  0  0  0  0  0  0  0  0
   -7.1896   -0.8770   -2.0397 C   0  0  0  0  0  0  0  0  0  0  0  0
   -6.7367    1.4797   -1.4106 C   0  0  0  0  0  0  0  0  0  0  0  0
   -7.2240   -1.5813   -3.0711 O   0  0  0  0  0  0  0  0  0  0  0  0
   -8.1387   -1.0549   -0.9865 N   0  0  0  0  0  0  0  0  0  0  0  0
   -7.8993    1.3675   -0.4888 C   0  0  0  0  0  0  0  0  0  0  0  0
   -8.2225    0.0057   -0.0378 C   0  0  0  0  0  0  0  0  0  0  0  0
   -8.5697   -0.2719    1.1452 O   0  0  0  0  0  0  0  0  0  0  0  0
    2.9936    2.2446   -0.7009 H   0  0  0  0  0  0  0  0  0  0  0  0
    3.3201    1.3286   -2.1926 H   0  0  0  0  0  0  0  0  0  0  0  0
    2.6712   -1.2485    1.8166 H   0  0  0  0  0  0  0  0  0  0  0  0
    1.2263   -0.1826    2.1407 H   0  0  0  0  0  0  0  0  0  0  0  0
    1.1561   -2.5758    0.7735 H   0  0  0  0  0  0  0  0  0  0  0  0
    0.7284   -2.0606   -0.8784 H   0  0  0  0  0  0  0  0  0  0  0  0
    5.1982    1.0430   -0.8090 H   0  0  0  0  0  0  0  0  0  0  0  0
    4.2922   -0.4518   -0.7647 H   0  0  0  0  0  0  0  0  0  0  0  0
    3.2027    0.8740    2.7831 H   0  0  0  0  0  0  0  0  0  0  0  0
    2.4137    1.6652    1.4260 H   0  0  0  0  0  0  0  0  0  0  0  0
   -1.3232   -1.0210   -1.3212 H   0  0  0  0  0  0  0  0  0  0  0  0
   -0.4518   -2.1066    2.5886 H   0  0  0  0  0  0  0  0  0  0  0  0
   -2.7355   -1.7475    3.1660 H   0  0  0  0  0  0  0  0  0  0  0  0
   -4.3473   -1.0163    1.4951 H   0  0  0  0  0  0  0  0  0  0  0  0
    6.3785   -1.2772    0.1967 H   0  0  0  0  0  0  0  0  0  0  0  0
   -5.5976   -0.4126    0.0750 H   0  0  0  0  0  0  0  0  0  0  0  0
    9.4718    2.3594    0.6498 H   0  0  0  0  0  0  0  0  0  0  0  0
    8.5448   -1.4477   -0.8690 H   0  0  0  0  0  0  0  0  0  0  0  0
   -5.7028    0.3113   -2.8245 H   0  0  0  0  0  0  0  0  0  0  0  0
   10.0944    0.3980   -0.6305 H   0  0  0  0  0  0  0  0  0  0  0  0
   -7.0486    2.0287   -2.2745 H   0  0  0  0  0  0  0  0  0  0  0  0
   -5.9604    1.9668   -0.8584 H   0  0  0  0  0  0  0  0  0  0  0  0
   -8.7004   -1.8607   -0.9201 H   0  0  0  0  0  0  0  0  0  0  0  0
   -8.7579    1.7602   -0.9923 H   0  0  0  0  0  0  0  0  0  0  0  0
   -7.6285    1.9114    0.3920 H   0  0  0  0  0  0  0  0  0  0  0  0
  1  2  2  0  0  0  0
  1  3  2  0  0  0  0
  1  4  1  0  0  0  0
  1  5  1  0  0  0  0
  4  6  1  0  0  0  0
  4  7  1  0  0  0  0
  5  8  1  0  0  0  0
  5 36  1  0  0  0  0
  5 37  1  0  0  0  0
  6  9  1  0  0  0  0
  6 38  1  0  0  0  0
  6 39  1  0  0  0  0
  7 10  1  0  0  0  0
  7 40  1  0  0  0  0
  7 41  1  0  0  0  0
  8 11  1  0  0  0  0
  8 42  1  0  0  0  0
  8 43  1  0  0  0  0
  9 11  1  0  0  0  0
  9 44  1  0  0  0  0
  9 45  1  0  0  0  0
 10 12  2  0  0  0  0
 10 13  1  0  0  0  0
 11 14  1  0  0  0  0
 12 15  1  0  0  0  0
 12 46  1  0  0  0  0
 13 16  2  0  0  0  0
 13 47  1  0  0  0  0
 14 17  2  0  0  0  0
 14 18  1  0  0  0  0
 15 19  1  0  0  0  0
 15 20  2  0  0  0  0
 16 20  1  0  0  0  0
 16 48  1  0  0  0  0
 18 21  2  0  0  0  0
 18 22  1  0  0  0  0
 19 23  2  0  0  0  0
 19 24  1  0  0  0  0
 20 49  1  0  0  0  0
 21 25  1  0  0  0  0
 22 26  2  0  0  0  0
 22 50  1  0  0  0  0
 24 51  1  0  0  0  0
 25 28  2  0  0  0  0
 25 52  1  0  0  0  0
 26 28  1  0  0  0  0
 26 53  1  0  0  0  0
 27 24  1  0  0  0  0
 27 29  1  0  0  0  0
 27 30  1  0  0  0  0
 27 54  1  6  0  0  0
 28 55  1  0  0  0  0
 29 31  2  0  0  0  0
 29 32  1  0  0  0  0
 30 33  1  0  0  0  0
 30 56  1  0  0  0  0
 30 57  1  0  0  0  0
 32 34  1  0  0  0  0
 32 58  1  0  0  0  0
 33 34  1  0  0  0  0
 33 59  1  0  0  0  0
 33 60  1  0  0  0  0
 34 35  2  0  0  0  0
M  END
>  <Molecule Name>
Compound 11

>  <EC50 (µM) (Excel)>
37.7

>  <Error (µM)>
0.8

>  <HTRC CRBN-DDB1 EC50 (µM)>
37.72 ±  0.78

>  <EC50 fitting (µM)>
52.96

>  <Modèle Fitting>
3PL

>  <Parent_Compound>
Compound 11

>  <MMFF94s_energy_kcalmol>
152.433
$$$$
