Compound_12_ent1


 40 43  0  0  0  0  0  0  0  0999 V2000
   86.8853  147.9759   14.5941 S   0  0  0  0  0  0  0  0  0  0  0  0
   87.5753  146.7823   15.1831 O   0  0  0  0  0  0  0  0  0  0  0  0
   85.3931  147.6762   14.6421 O   0  0  0  0  0  0  0  0  0  0  0  0
   87.2615  149.4335   15.3962 N   0  0  0  0  0  0  0  0  0  0  0  0
   87.3099  148.0204   12.8632 C   0  0  0  0  0  0  0  0  0  0  0  0
   87.8124  150.4475   14.5235 C   0  0  0  0  0  0  0  0  0  0  0  0
   86.3511  148.9036   12.0895 C   0  0  0  0  0  0  0  0  0  0  0  0
   86.7007  150.9523   13.5920 C   0  0  0  0  0  0  0  0  0  0  0  0
   86.7516  150.2816   12.3207 N   0  0  0  0  0  0  0  0  0  0  0  0
   87.2292  151.0246   11.2152 C   0  0  0  0  0  0  0  0  0  0  0  0
   87.3015  150.4961   10.0586 O   0  0  0  0  0  0  0  0  0  0  0  0
   86.2437  149.9228   16.2651 C   0  0  0  0  0  0  0  0  0  0  0  0
   85.1898  150.7215   15.6382 C   0  0  0  0  0  0  0  0  0  0  0  0
   85.3483  152.1007   15.4423 C   0  0  0  0  0  0  0  0  0  0  0  0
   84.0350  150.0842   15.2454 C   0  0  0  0  0  0  0  0  0  0  0  0
   84.3690  152.8598   14.8580 C   0  0  0  0  0  0  0  0  0  0  0  0
   83.0482  150.8451   14.6574 C   0  0  0  0  0  0  0  0  0  0  0  0
   83.2001  152.2016   14.4630 C   0  0  0  0  0  0  0  0  0  0  0  0
   84.5136  154.2918   14.6447 C   0  0  0  0  0  0  0  0  0  0  0  0
   85.2902  154.9862   15.3907 O   0  0  0  0  0  0  0  0  0  0  0  0
   83.8436  155.0312   13.6396 N   0  0  0  0  0  0  0  0  0  0  0  0
   83.2324  154.5513   13.0352 H   0  0  0  0  0  0  0  0  0  0  0  0
   84.0132  156.4643   13.4553 C   0  0  0  0  0  0  0  0  0  0  0  0
   85.3234  156.7902   12.8585 C   0  0  0  0  0  0  0  0  0  0  0  0
   83.6691  157.2458   14.6795 C   0  0  0  0  0  0  0  0  0  0  0  0
   85.9654  155.9125   12.2539 O   0  0  0  0  0  0  0  0  0  0  0  0
   85.8272  158.1068   12.9876 N   0  0  0  0  0  0  0  0  0  0  0  0
   84.8103  158.0698   15.2345 C   0  0  0  0  0  0  0  0  0  0  0  0
   85.3537  158.8716   14.1040 C   0  0  0  0  0  0  0  0  0  0  0  0
   85.4132  160.1146   14.0840 O   0  0  0  0  0  0  0  0  0  0  0  0
   86.4711  158.4788   12.3424 H   0  0  0  0  0  0  0  0  0  0  0  0
   87.6575  152.4398   11.3795 C   0  0  0  0  0  0  0  0  0  0  0  0
   88.8298  152.6992   10.4835 C   0  0  0  0  0  0  0  0  0  0  0  0
   88.6667  153.6193    9.4813 O   0  0  0  0  0  0  0  0  0  0  0  0
   88.7729  153.5012    8.1205 C   0  0  0  0  0  0  0  0  0  0  0  0
   89.2212  154.6135    7.4161 C   0  0  0  0  0  0  0  0  0  0  0  0
   88.4796  152.3970    7.3763 C   0  0  0  0  0  0  0  0  0  0  0  0
   89.3723  154.6354    6.0551 C   0  0  0  0  0  0  0  0  0  0  0  0
   88.6093  152.3487    5.9979 C   0  0  0  0  0  0  0  0  0  0  0  0
   89.0569  153.4765    5.3530 C   0  0  0  0  0  0  0  0  0  0  0  0
  1  2  2  0
  1  3  2  0
  1  4  1  0
  1  5  1  0
  4  6  1  0
  4 12  1  0
  5  7  1  0
  6  8  1  0
 12 13  1  0
  7  9  1  0
  8  9  1  0
 13 14  2  0
 13 15  1  0
  9 10  1  0
 14 16  1  0
 15 17  2  0
 10 11  2  0
 10 32  1  0
 16 19  1  0
 16 18  2  0
 17 18  1  0
 32 33  1  0
 19 20  2  0
 19 21  1  0
 33 34  1  0
 21 22  1  0
 34 35  1  0
 23 21  1  0
 23 24  1  0
 23 25  1  0
 35 36  2  0
 35 37  1  0
 24 26  2  0
 24 27  1  0
 25 28  1  0
 36 38  1  0
 37 39  2  0
 27 29  1  0
 27 31  1  0
 28 29  1  0
 38 40  2  0
 39 40  1  0
 29 30  2  0
M  END
> <Molecule Name>
Compound 12

> <EC50 (µM) (Excel)>
61.9

> <Error (µM)>
8.1

> <HTRC CRBN-DDB1 EC50 (µM)>
61.88 ±  8.05

> <EC50 fitting (µM)>
111.51

> <Modèle Fitting>
4PL

> <Parent_Compound>
Compound 12

> <MMFF94s_energy_kcalmol>
156.552
$$$$
