Compound_7_ent2
 OpenBabel09072607323D

 64 66  0  0  0  0  0  0  0  0999 V2000
    0.6707   -0.9720    0.5269 S   0  0  0  0  0  0  0  0  0  0  0  0
   -0.6566   -1.6551    0.5186 O   0  0  0  0  0  0  0  0  0  0  0  0
    1.6483   -2.0133    1.0719 O   0  0  0  0  0  0  0  0  0  0  0  0
    0.7847    0.3873    1.4819 N   0  0  0  0  0  0  0  0  0  0  0  0
    1.1652   -0.7205   -1.1625 C   0  0  0  0  0  0  0  0  0  0  0  0
    2.1045    0.8285    1.6998 C   0  0  0  0  0  0  0  0  0  0  0  0
   -0.2509    0.7994    2.3150 C   0  0  0  0  0  0  0  0  0  0  0  0
    2.6566   -0.5783   -1.3080 C   0  0  0  0  0  0  0  0  0  0  0  0
    2.7073    1.3654    0.3980 C   0  0  0  0  0  0  0  0  0  0  0  0
   -1.2058    1.7587    1.7860 C   0  0  0  0  0  0  0  0  0  0  0  0
    3.2716    0.2380   -0.3104 N   0  0  0  0  0  0  0  0  0  0  0  0
   -2.3409    1.3389    1.1324 C   0  0  0  0  0  0  0  0  0  0  0  0
   -0.9926    3.1032    1.9245 C   0  0  0  0  0  0  0  0  0  0  0  0
    4.6130   -0.0792    0.0484 C   0  0  0  0  0  0  0  0  0  0  0  0
   -3.2686    2.2020    0.6130 C   0  0  0  0  0  0  0  0  0  0  0  0
   -1.8824    4.0074    1.4275 C   0  0  0  0  0  0  0  0  0  0  0  0
    5.2488    0.5712    0.9110 O   0  0  0  0  0  0  0  0  0  0  0  0
    5.2617   -1.1423   -0.5649 O   0  0  0  0  0  0  0  0  0  0  0  0
   -4.4674    1.7973   -0.0811 C   0  0  0  0  0  0  0  0  0  0  0  0
   -3.0220    3.5503    0.7707 C   0  0  0  0  0  0  0  0  0  0  0  0
    6.5948   -1.4484   -0.2012 C   0  0  0  0  0  0  0  0  0  0  0  0
   -5.2884    2.6689   -0.5374 O   0  0  0  0  0  0  0  0  0  0  0  0
   -4.8218    0.4537   -0.3066 N   0  0  0  0  0  0  0  0  0  0  0  0
    7.5247   -0.2806   -0.4692 C   0  0  0  0  0  0  0  0  0  0  0  0
    6.6104   -1.7449    1.2721 C   0  0  0  0  0  0  0  0  0  0  0  0
    7.0078   -2.6797   -0.9659 C   0  0  0  0  0  0  0  0  0  0  0  0
   -6.0491    0.0754   -1.0188 C   0  0  1  0  0  0  0  0  0  0  0  0
   -5.6653   -0.7441   -2.1970 C   0  0  0  0  0  0  0  0  0  0  0  0
   -6.9197   -0.8268   -0.1400 C   0  0  0  0  0  0  0  0  0  0  0  0
   -4.5266   -0.7119   -2.7264 O   0  0  0  0  0  0  0  0  0  0  0  0
   -6.6605   -1.6039   -2.7350 N   0  0  0  0  0  0  0  0  0  0  0  0
   -8.2605   -0.9225   -0.8711 C   0  0  0  0  0  0  0  0  0  0  0  0
   -7.9791   -1.5626   -2.1914 C   0  0  0  0  0  0  0  0  0  0  0  0
   -8.9551   -2.0666   -2.8086 O   0  0  0  0  0  0  0  0  0  0  0  0
    0.6977    0.1696   -1.5287 H   0  0  0  0  0  0  0  0  0  0  0  0
    0.8630   -1.5806   -1.7227 H   0  0  0  0  0  0  0  0  0  0  0  0
    2.6968    0.0098    2.0517 H   0  0  0  0  0  0  0  0  0  0  0  0
    2.0936    1.6127    2.4277 H   0  0  0  0  0  0  0  0  0  0  0  0
    0.1938    1.2379    3.1838 H   0  0  0  0  0  0  0  0  0  0  0  0
   -0.8263   -0.0861    2.4875 H   0  0  0  0  0  0  0  0  0  0  0  0
    2.8597   -0.1465   -2.2657 H   0  0  0  0  0  0  0  0  0  0  0  0
    3.0692   -1.5593   -1.1968 H   0  0  0  0  0  0  0  0  0  0  0  0
    3.4722    2.0810    0.6163 H   0  0  0  0  0  0  0  0  0  0  0  0
    1.9597    1.8500   -0.1946 H   0  0  0  0  0  0  0  0  0  0  0  0
   -2.5012    0.3247    1.0284 H   0  0  0  0  0  0  0  0  0  0  0  0
   -0.1464    3.4369    2.4120 H   0  0  0  0  0  0  0  0  0  0  0  0
   -1.7137    5.0197    1.5366 H   0  0  0  0  0  0  0  0  0  0  0  0
   -3.6964    4.2345    0.3939 H   0  0  0  0  0  0  0  0  0  0  0  0
   -4.2263   -0.2569    0.0246 H   0  0  0  0  0  0  0  0  0  0  0  0
    7.1982    0.5710    0.0904 H   0  0  0  0  0  0  0  0  0  0  0  0
    7.5125   -0.0473   -1.5134 H   0  0  0  0  0  0  0  0  0  0  0  0
    8.5194   -0.5416   -0.1737 H   0  0  0  0  0  0  0  0  0  0  0  0
    6.3172   -0.8707    1.8150 H   0  0  0  0  0  0  0  0  0  0  0  0
    7.5975   -2.0337    1.5674 H   0  0  0  0  0  0  0  0  0  0  0  0
    5.9277   -2.5414    1.4829 H   0  0  0  0  0  0  0  0  0  0  0  0
    6.9967   -2.4686   -2.0148 H   0  0  0  0  0  0  0  0  0  0  0  0
    6.3251   -3.4762   -0.7551 H   0  0  0  0  0  0  0  0  0  0  0  0
    7.9949   -2.9685   -0.6707 H   0  0  0  0  0  0  0  0  0  0  0  0
   -6.5787    0.9657   -1.2868 H   0  0  0  0  0  0  0  0  0  0  0  0
   -7.0507   -0.3934    0.8295 H   0  0  0  0  0  0  0  0  0  0  0  0
   -6.4758   -1.7887    0.0104 H   0  0  0  0  0  0  0  0  0  0  0  0
   -6.4433   -2.2192   -3.4722 H   0  0  0  0  0  0  0  0  0  0  0  0
   -8.6739    0.0540   -1.0143 H   0  0  0  0  0  0  0  0  0  0  0  0
   -8.9686   -1.4933   -0.3075 H   0  0  0  0  0  0  0  0  0  0  0  0
  1  2  2  0  0  0  0
  1  3  2  0  0  0  0
  1  4  1  0  0  0  0
  1  5  1  0  0  0  0
  4  6  1  0  0  0  0
  4  7  1  0  0  0  0
  5  8  1  0  0  0  0
  5 35  1  0  0  0  0
  5 36  1  0  0  0  0
  6  9  1  0  0  0  0
  6 37  1  0  0  0  0
  6 38  1  0  0  0  0
  7 10  1  0  0  0  0
  7 39  1  0  0  0  0
  7 40  1  0  0  0  0
  8 11  1  0  0  0  0
  8 41  1  0  0  0  0
  8 42  1  0  0  0  0
  9 11  1  0  0  0  0
  9 43  1  0  0  0  0
  9 44  1  0  0  0  0
 10 12  2  0  0  0  0
 10 13  1  0  0  0  0
 11 14  1  0  0  0  0
 12 15  1  0  0  0  0
 12 45  1  0  0  0  0
 13 16  2  0  0  0  0
 13 46  1  0  0  0  0
 14 17  2  0  0  0  0
 14 18  1  0  0  0  0
 15 19  1  0  0  0  0
 15 20  2  0  0  0  0
 16 20  1  0  0  0  0
 16 47  1  0  0  0  0
 18 21  1  0  0  0  0
 19 22  2  0  0  0  0
 19 23  1  0  0  0  0
 20 48  1  0  0  0  0
 21 24  1  0  0  0  0
 21 25  1  0  0  0  0
 21 26  1  0  0  0  0
 23 49  1  0  0  0  0
 24 50  1  0  0  0  0
 24 51  1  0  0  0  0
 24 52  1  0  0  0  0
 25 53  1  0  0  0  0
 25 54  1  0  0  0  0
 25 55  1  0  0  0  0
 26 56  1  0  0  0  0
 26 57  1  0  0  0  0
 26 58  1  0  0  0  0
 27 23  1  0  0  0  0
 27 28  1  0  0  0  0
 27 29  1  0  0  0  0
 27 59  1  6  0  0  0
 28 30  2  0  0  0  0
 28 31  1  0  0  0  0
 29 32  1  0  0  0  0
 29 60  1  0  0  0  0
 29 61  1  0  0  0  0
 31 33  1  0  0  0  0
 31 62  1  0  0  0  0
 32 33  1  0  0  0  0
 32 63  1  0  0  0  0
 32 64  1  0  0  0  0
 33 34  2  0  0  0  0
M  END
>  <Molecule Name>
Compound 7

>  <EC50 (µM) (Excel)>
4.1

>  <Error (µM)>
0.2

>  <HTRC CRBN-DDB1 EC50 (µM)>
4.06 ±  0.18

>  <EC50 fitting (µM)>
3.77

>  <Modèle Fitting>
4PL

>  <Parent_Compound>
Compound 7

>  <MMFF94s_energy_kcalmol>
148.317
$$$$
