Compound_8_ent1
 OpenBabel09072607323D

 52 53  0  0  0  0  0  0  0  0999 V2000
    0.6828    0.0000    0.0000 Cl  0  0  0  0  0  0  0  0  0  0  0  0
    4.0997    0.2295    1.3194 S   0  0  0  0  0  0  0  0  0  0  0  0
    4.6797   -0.7938    2.2817 O   0  0  0  0  0  0  0  0  0  0  0  0
    3.3972    1.3058    2.0651 O   0  0  0  0  0  0  0  0  0  0  0  0
    3.0394   -0.4991    0.2050 N   0  0  0  0  0  0  0  0  0  0  0  0
    5.4435    0.9770    0.3833 C   0  0  0  0  0  0  0  0  0  0  0  0
    3.5782   -1.6218   -0.4939 C   0  0  0  0  0  0  0  0  0  0  0  0
    2.5245    0.4515   -0.7304 C   0  0  0  0  0  0  0  0  0  0  0  0
    5.9727   -0.0942   -0.5806 C   0  0  0  0  0  0  0  0  0  0  0  0
    4.8630   -2.1764    0.0268 C   0  0  0  0  0  0  0  0  0  0  0  0
    1.2084    0.9929   -0.3088 C   0  0  0  0  0  0  0  0  0  0  0  0
    5.9485   -1.3188    0.1295 N   0  3  0  0  0  0  0  0  0  0  0  0
    0.0913    0.1906   -0.5845 C   0  0  0  0  0  0  0  0  0  0  0  0
    1.0648    2.2009    0.2859 C   0  0  0  0  0  0  0  0  0  0  0  0
   -1.1849    0.5981   -0.2622 C   0  0  0  0  0  0  0  0  0  0  0  0
   -0.2268    2.6289    0.6201 C   0  0  0  0  0  0  0  0  0  0  0  0
   -2.3243   -0.2734   -0.5691 C   0  0  0  0  0  0  0  0  0  0  0  0
   -1.3111    1.8267    0.3416 C   0  0  0  0  0  0  0  0  0  0  0  0
   -2.1251   -1.3903   -1.1256 O   0  0  0  0  0  0  0  0  0  0  0  0
   -3.6447    0.0720   -0.2730 N   0  0  0  0  0  0  0  0  0  0  0  0
   -4.7873   -0.8059   -0.5826 C   0  0  2  0  0  0  0  0  0  0  0  0
   -5.7195   -0.1113   -1.4983 C   0  0  0  0  0  0  0  0  0  0  0  0
   -5.4225   -1.2065    0.7081 C   0  0  0  0  0  0  0  0  0  0  0  0
   -5.7284   -0.3752   -2.7254 O   0  0  0  0  0  0  0  0  0  0  0  0
   -6.5984    0.8567   -0.9523 N   0  0  0  0  0  0  0  0  0  0  0  0
   -5.9814    0.0313    1.3759 C   0  0  0  0  0  0  0  0  0  0  0  0
   -6.8051    0.8462    0.4722 C   0  0  0  0  0  0  0  0  0  0  0  0
   -7.7219    1.5594    0.9537 O   0  0  0  0  0  0  0  0  0  0  0  0
    1.9108    0.0000    0.0000 H   0  0  0  0  0  0  0  0  0  0  0  0
    6.2223    1.2911    1.0464 H   0  0  0  0  0  0  0  0  0  0  0  0
    5.1013    1.8369   -0.1537 H   0  0  0  0  0  0  0  0  0  0  0  0
    3.7397   -1.3257   -1.5094 H   0  0  0  0  0  0  0  0  0  0  0  0
    2.8600   -2.4050   -0.3683 H   0  0  0  0  0  0  0  0  0  0  0  0
    2.4126   -0.0260   -1.6814 H   0  0  0  0  0  0  0  0  0  0  0  0
    3.2145    1.2675   -0.7846 H   0  0  0  0  0  0  0  0  0  0  0  0
    6.9728    0.1397   -0.8807 H   0  0  0  0  0  0  0  0  0  0  0  0
    5.3750   -0.1479   -1.4665 H   0  0  0  0  0  0  0  0  0  0  0  0
    5.1503   -2.9769   -0.6224 H   0  0  0  0  0  0  0  0  0  0  0  0
    4.6446   -2.4532    1.0370 H   0  0  0  0  0  0  0  0  0  0  0  0
    6.0418   -1.0842    1.1178 H   0  0  0  0  0  0  0  0  0  0  0  0
    6.7003   -1.8506   -0.3092 H   0  0  0  0  0  0  0  0  0  0  0  0
    0.2284   -0.7257   -1.0391 H   0  0  0  0  0  0  0  0  0  0  0  0
    1.8864    2.7917    0.4880 H   0  0  0  0  0  0  0  0  0  0  0  0
   -0.3656    3.5449    1.0748 H   0  0  0  0  0  0  0  0  0  0  0  0
   -2.2540    2.1605    0.5958 H   0  0  0  0  0  0  0  0  0  0  0  0
   -3.8196    0.9383    0.1608 H   0  0  0  0  0  0  0  0  0  0  0  0
   -4.4751   -1.6943   -1.0906 H   0  0  0  0  0  0  0  0  0  0  0  0
   -4.6914   -1.6602    1.3441 H   0  0  0  0  0  0  0  0  0  0  0  0
   -6.2080   -1.9099    0.5261 H   0  0  0  0  0  0  0  0  0  0  0  0
   -7.0523    1.5141   -1.5276 H   0  0  0  0  0  0  0  0  0  0  0  0
   -5.1654    0.6285    1.7257 H   0  0  0  0  0  0  0  0  0  0  0  0
   -6.6102   -0.2931    2.1785 H   0  0  0  0  0  0  0  0  0  0  0  0
  1 29  1  0  0  0  0
  2  3  2  0  0  0  0
  2  4  2  0  0  0  0
  2  5  1  0  0  0  0
  2  6  1  0  0  0  0
  5  7  1  0  0  0  0
  5  8  1  0  0  0  0
  6  9  1  0  0  0  0
  6 30  1  0  0  0  0
  6 31  1  0  0  0  0
  7 10  1  0  0  0  0
  7 32  1  0  0  0  0
  7 33  1  0  0  0  0
  8 11  1  0  0  0  0
  8 34  1  0  0  0  0
  8 35  1  0  0  0  0
  9 12  1  0  0  0  0
  9 36  1  0  0  0  0
  9 37  1  0  0  0  0
 10 12  1  0  0  0  0
 10 38  1  0  0  0  0
 10 39  1  0  0  0  0
 11 13  2  0  0  0  0
 11 14  1  0  0  0  0
 12 40  1  0  0  0  0
 12 41  1  0  0  0  0
 13 15  1  0  0  0  0
 13 42  1  0  0  0  0
 14 16  2  0  0  0  0
 14 43  1  0  0  0  0
 15 17  1  0  0  0  0
 15 18  2  0  0  0  0
 16 18  1  0  0  0  0
 16 44  1  0  0  0  0
 17 19  2  0  0  0  0
 17 20  1  0  0  0  0
 18 45  1  0  0  0  0
 20 46  1  0  0  0  0
 21 20  1  0  0  0  0
 21 22  1  0  0  0  0
 21 23  1  0  0  0  0
 21 47  1  6  0  0  0
 22 24  2  0  0  0  0
 22 25  1  0  0  0  0
 23 26  1  0  0  0  0
 23 48  1  0  0  0  0
 23 49  1  0  0  0  0
 25 27  1  0  0  0  0
 25 50  1  0  0  0  0
 26 27  1  0  0  0  0
 26 51  1  0  0  0  0
 26 52  1  0  0  0  0
 27 28  2  0  0  0  0
M  CHG  1  12   1
M  END
>  <Molecule Name>
Compound 8

>  <EC50 (µM) (Excel)>
6.8

>  <Error (µM)>
1.0

>  <HTRC CRBN-DDB1 EC50 (µM)>
6.77 ±  1.02

>  <EC50 fitting (µM)>
7.19

>  <Modèle Fitting>
4PL

>  <Parent_Compound>
Compound 8

>  <MMFF94s_energy_kcalmol>
133.791
$$$$
