Compound_4_s4


 31 34  0  0  0  0  0  0  0  0999 V2000
   84.1574  154.9794   14.2387 C   0  0  0  0  0  0  0  0  0  0  0  0
   85.0555  153.9263   14.2117 C   0  0  0  0  0  0  0  0  0  0  0  0
   82.8195  154.6224   14.3468 C   0  0  0  0  0  0  0  0  0  0  0  0
   84.6765  152.6044   14.2855 C   0  0  0  0  0  0  0  0  0  0  0  0
   82.3882  153.3146   14.4237 C   0  0  0  0  0  0  0  0  0  0  0  0
   83.3276  152.3090   14.3921 C   0  0  0  0  0  0  0  0  0  0  0  0
   85.4000  151.2863   14.2839 C   0  0  0  0  0  0  0  0  0  0  0  0
   83.2506  150.8214   14.4464 C   0  0  0  0  0  0  0  0  0  0  0  0
   84.4958  150.5406   15.1279 N   0  0  0  0  0  0  0  0  0  0  0  0
   85.1229  150.6249   12.9526 C   0  0  0  0  0  0  0  0  0  0  0  0
   83.6222  150.3467   13.0538 C   0  0  0  0  0  0  0  0  0  0  0  0
   84.6856  149.7592   16.2733 C   0  0  0  0  0  0  0  0  0  0  0  0
   85.4031  151.4533   11.8738 O   0  0  0  0  0  0  0  0  0  0  0  0
   82.9946  151.0853   12.0707 O   0  0  0  0  0  0  0  0  0  0  0  0
   85.8267  149.5696   16.8025 O   0  0  0  0  0  0  0  0  0  0  0  0
   84.8888  152.2719   11.9526 H   0  0  0  0  0  0  0  0  0  0  0  0
   83.2295  152.0212   12.1699 H   0  0  0  0  0  0  0  0  0  0  0  0
   84.3060  156.3476   11.8262 O   0  0  0  0  0  0  0  0  0  0  0  0
   84.5800  156.9618   12.8912 C   0  0  0  0  0  0  0  0  0  0  0  0
   84.5693  156.3341   14.1614 N   0  0  0  0  0  0  0  0  0  0  0  0
   84.9092  158.3529   12.7538 N   0  0  0  0  0  0  0  0  0  0  0  0
   84.9664  157.0630   15.3212 C   0  0  0  0  0  0  0  0  0  0  0  0
   85.2203  159.0534   13.9564 C   0  0  0  0  0  0  0  0  0  0  0  0
   84.6199  158.5455   15.2142 C   0  0  0  0  0  0  0  0  0  0  0  0
   85.9854  160.0708   13.9227 O   0  0  0  0  0  0  0  0  0  0  0  0
   84.9197  158.7991   11.8763 H   0  0  0  0  0  0  0  0  0  0  0  0
   83.6330  149.1163   16.9383 O   0  0  0  0  0  0  0  0  0  0  0  0
   83.0683  149.5716   18.1267 C   0  0  0  0  0  0  0  0  0  0  0  0
   83.7689  149.0919   19.3606 C   0  0  0  0  0  0  0  0  0  0  0  0
   81.5888  149.2773   18.1478 C   0  0  0  0  0  0  0  0  0  0  0  0
   83.2003  151.1016   18.1173 C   0  0  0  0  0  0  0  0  0  0  0  0
 18 19  2  0
 19 20  1  0
 19 21  1  0
 20  1  1  0
 20 22  1  0
 21 23  1  0
 21 26  1  0
  1  2  2  0
  1  3  1  0
 22 24  1  0
 23 25  2  0
 23 24  1  0
  2  4  1  0
  3  5  2  0
  4  6  2  0
  5  6  1  0
  7  4  1  0
  7  9  1  0
  7 10  1  0
  8  6  1  0
  8 11  1  0
  8  9  1  0
  9 12  1  0
 10 13  1  0
 10 11  1  0
 11 14  1  0
 12 15  2  0
 12 27  1  0
 13 16  1  0
 14 17  1  0
 27 28  1  0
 28 29  1  0
 28 30  1  0
 28 31  1  0
M  END
> <Molecule Name>
Compound 4

> <EC50 (µM) (Excel)>
11.8

> <Error (µM)>
7.4

> <HTRC CRBN-DDB1 EC50 (µM)>
11.78 ±  7.41

> <EC50 fitting (µM)>
15.10

> <Modèle Fitting>
4PL

> <Parent_Compound>
Compound 4

> <MMFF94s_energy_kcalmol>
179.945
$$$$

> <minimizedAffinity>
-9.38529

> <CNNscore>
0.9720361233

> <CNNaffinity>
7.3967170715

> <CNN_VS>
7.1898760796

> <CNNaffinity_variance>
0.3947106600

$$$$
Compound_4_s4


 31 34  0  0  0  0  0  0  0  0999 V2000
   84.4583  154.6575   14.1863 C   0  0  0  0  0  0  0  0  0  0  0  0
   85.4499  153.6993   14.0644 C   0  0  0  0  0  0  0  0  0  0  0  0
   83.1764  154.1683   14.4013 C   0  0  0  0  0  0  0  0  0  0  0  0
   85.2105  152.3457   14.1466 C   0  0  0  0  0  0  0  0  0  0  0  0
   82.8840  152.8235   14.4913 C   0  0  0  0  0  0  0  0  0  0  0  0
   83.9114  151.9166   14.3621 C   0  0  0  0  0  0  0  0  0  0  0  0
   86.0571  151.1061   14.0601 C   0  0  0  0  0  0  0  0  0  0  0  0
   83.9859  150.4282   14.3963 C   0  0  0  0  0  0  0  0  0  0  0  0
   85.3069  150.2664   14.9645 N   0  0  0  0  0  0  0  0  0  0  0  0
   85.7325  150.4328   12.7456 C   0  0  0  0  0  0  0  0  0  0  0  0
   84.2808  150.0058   12.9690 C   0  0  0  0  0  0  0  0  0  0  0  0
   85.6707  149.4971   16.0755 C   0  0  0  0  0  0  0  0  0  0  0  0
   85.8359  151.2949   11.6618 O   0  0  0  0  0  0  0  0  0  0  0  0
   83.5012  150.6874   12.0560 O   0  0  0  0  0  0  0  0  0  0  0  0
   86.8663  149.4170   16.5024 O   0  0  0  0  0  0  0  0  0  0  0  0
   85.2523  152.0576   11.7985 H   0  0  0  0  0  0  0  0  0  0  0  0
   83.6506  151.6411   12.1515 H   0  0  0  0  0  0  0  0  0  0  0  0
   84.5460  155.9989   11.7558 O   0  0  0  0  0  0  0  0  0  0  0  0
   84.7157  156.6541   12.8181 C   0  0  0  0  0  0  0  0  0  0  0  0
   84.7269  156.0472   14.0984 N   0  0  0  0  0  0  0  0  0  0  0  0
   84.9004  158.0702   12.6667 N   0  0  0  0  0  0  0  0  0  0  0  0
   85.0034  156.8308   15.2575 C   0  0  0  0  0  0  0  0  0  0  0  0
   85.0929  158.8171   13.8663 C   0  0  0  0  0  0  0  0  0  0  0  0
   84.5058  158.2663   15.1122 C   0  0  0  0  0  0  0  0  0  0  0  0
   85.7467  159.9096   13.8398 O   0  0  0  0  0  0  0  0  0  0  0  0
   84.8944  158.5023   11.7822 H   0  0  0  0  0  0  0  0  0  0  0  0
   84.7477  148.7466   16.8160 O   0  0  0  0  0  0  0  0  0  0  0  0
   85.0298  147.5089   17.3880 C   0  0  0  0  0  0  0  0  0  0  0  0
   85.9260  146.6414   16.5587 C   0  0  0  0  0  0  0  0  0  0  0  0
   83.7509  146.8127   17.7825 C   0  0  0  0  0  0  0  0  0  0  0  0
   85.7844  147.7915   18.6953 C   0  0  0  0  0  0  0  0  0  0  0  0
 18 19  2  0
 19 20  1  0
 19 21  1  0
 20  1  1  0
 20 22  1  0
 21 23  1  0
 21 26  1  0
  1  2  2  0
  1  3  1  0
 22 24  1  0
 23 25  2  0
 23 24  1  0
  2  4  1  0
  3  5  2  0
  4  6  2  0
  5  6  1  0
  7  4  1  0
  7  9  1  0
  7 10  1  0
  8  6  1  0
  8 11  1  0
  8  9  1  0
  9 12  1  0
 10 13  1  0
 10 11  1  0
 11 14  1  0
 12 15  2  0
 12 27  1  0
 13 16  1  0
 14 17  1  0
 27 28  1  0
 28 29  1  0
 28 30  1  0
 28 31  1  0
M  END
> <Molecule Name>
Compound 4

> <EC50 (µM) (Excel)>
11.8

> <Error (µM)>
7.4

> <HTRC CRBN-DDB1 EC50 (µM)>
11.78 ±  7.41

> <EC50 fitting (µM)>
15.10

> <Modèle Fitting>
4PL

> <Parent_Compound>
Compound 4

> <MMFF94s_energy_kcalmol>
179.945
$$$$

> <minimizedAffinity>
-8.47890

> <CNNscore>
0.9601237774

> <CNNaffinity>
7.0496039391

> <CNN_VS>
6.7684922218

> <CNNaffinity_variance>
0.2861924767

$$$$
Compound_4_s4


 31 34  0  0  0  0  0  0  0  0999 V2000
   84.7148  154.4789   13.7998 C   0  0  0  0  0  0  0  0  0  0  0  0
   83.8227  153.8133   14.6227 C   0  0  0  0  0  0  0  0  0  0  0  0
   85.4472  153.6746   12.9363 C   0  0  0  0  0  0  0  0  0  0  0  0
   83.6520  152.4469   14.6079 C   0  0  0  0  0  0  0  0  0  0  0  0
   85.3139  152.3029   12.8825 C   0  0  0  0  0  0  0  0  0  0  0  0
   84.4105  151.6960   13.7253 C   0  0  0  0  0  0  0  0  0  0  0  0
   82.7854  151.4726   15.3568 C   0  0  0  0  0  0  0  0  0  0  0  0
   84.0008  150.2813   13.9546 C   0  0  0  0  0  0  0  0  0  0  0  0
   82.6145  150.4875   14.3145 N   0  0  0  0  0  0  0  0  0  0  0  0
   83.6853  150.7051   16.2990 C   0  0  0  0  0  0  0  0  0  0  0  0
   84.5554  149.9163   15.3191 C   0  0  0  0  0  0  0  0  0  0  0  0
   81.4871  149.8691   13.7619 C   0  0  0  0  0  0  0  0  0  0  0  0
   84.4621  151.5369   17.0949 O   0  0  0  0  0  0  0  0  0  0  0  0
   85.8576  150.3454   15.4800 O   0  0  0  0  0  0  0  0  0  0  0  0
   80.3006  150.1177   14.1473 O   0  0  0  0  0  0  0  0  0  0  0  0
   84.9917  152.1219   16.5309 H   0  0  0  0  0  0  0  0  0  0  0  0
   85.8987  151.3067   15.3577 H   0  0  0  0  0  0  0  0  0  0  0  0
   84.5079  156.0452   11.5155 O   0  0  0  0  0  0  0  0  0  0  0  0
   84.7161  156.6092   12.6223 C   0  0  0  0  0  0  0  0  0  0  0  0
   84.8749  155.8876   13.8313 N   0  0  0  0  0  0  0  0  0  0  0  0
   84.7858  158.0434   12.5997 N   0  0  0  0  0  0  0  0  0  0  0  0
   85.1880  156.5784   15.0392 C   0  0  0  0  0  0  0  0  0  0  0  0
   85.0213  158.6873   13.8502 C   0  0  0  0  0  0  0  0  0  0  0  0
   84.5785  157.9772   15.0751 C   0  0  0  0  0  0  0  0  0  0  0  0
   85.5907  159.8259   13.8846 O   0  0  0  0  0  0  0  0  0  0  0  0
   84.6769  158.5548   11.7656 H   0  0  0  0  0  0  0  0  0  0  0  0
   81.5675  148.9205   12.7338 O   0  0  0  0  0  0  0  0  0  0  0  0
   80.6602  147.8784   12.5624 C   0  0  0  0  0  0  0  0  0  0  0  0
   81.2205  146.6914   11.8407 C   0  0  0  0  0  0  0  0  0  0  0  0
   79.3881  148.3919   11.9346 C   0  0  0  0  0  0  0  0  0  0  0  0
   80.2783  147.3934   13.9685 C   0  0  0  0  0  0  0  0  0  0  0  0
 18 19  2  0
 19 20  1  0
 19 21  1  0
 20  1  1  0
 20 22  1  0
 21 23  1  0
 21 26  1  0
  1  2  2  0
  1  3  1  0
 22 24  1  0
 23 25  2  0
 23 24  1  0
  2  4  1  0
  3  5  2  0
  4  6  2  0
  5  6  1  0
  7  4  1  0
  7  9  1  0
  7 10  1  0
  8  6  1  0
  8 11  1  0
  8  9  1  0
  9 12  1  0
 10 13  1  0
 10 11  1  0
 11 14  1  0
 12 15  2  0
 12 27  1  0
 13 16  1  0
 14 17  1  0
 27 28  1  0
 28 29  1  0
 28 30  1  0
 28 31  1  0
M  END
> <Molecule Name>
Compound 4

> <EC50 (µM) (Excel)>
11.8

> <Error (µM)>
7.4

> <HTRC CRBN-DDB1 EC50 (µM)>
11.78 ±  7.41

> <EC50 fitting (µM)>
15.10

> <Modèle Fitting>
4PL

> <Parent_Compound>
Compound 4

> <MMFF94s_energy_kcalmol>
179.945
$$$$

> <minimizedAffinity>
-9.56904

> <CNNscore>
0.9160841107

> <CNNaffinity>
6.9795780182

> <CNN_VS>
6.3938803673

> <CNNaffinity_variance>
0.1436844319

$$$$
Compound_4_s4


 31 34  0  0  0  0  0  0  0  0999 V2000
   85.2407  154.5039   14.2752 C   0  0  0  0  0  0  0  0  0  0  0  0
   85.2840  153.6580   13.1802 C   0  0  0  0  0  0  0  0  0  0  0  0
   85.2295  153.8779   15.5150 C   0  0  0  0  0  0  0  0  0  0  0  0
   85.3145  152.2851   13.2833 C   0  0  0  0  0  0  0  0  0  0  0  0
   85.2588  152.5080   15.6722 C   0  0  0  0  0  0  0  0  0  0  0  0
   85.3013  151.7172   14.5464 C   0  0  0  0  0  0  0  0  0  0  0  0
   85.3658  151.1435   12.3060 C   0  0  0  0  0  0  0  0  0  0  0  0
   85.3374  150.2444   14.3193 C   0  0  0  0  0  0  0  0  0  0  0  0
   86.1224  150.2074   13.1043 N   0  0  0  0  0  0  0  0  0  0  0  0
   84.0105  150.4733   12.3287 C   0  0  0  0  0  0  0  0  0  0  0  0
   83.9788  149.8913   13.7429 C   0  0  0  0  0  0  0  0  0  0  0  0
   87.2740  149.4527   12.8537 C   0  0  0  0  0  0  0  0  0  0  0  0
   82.9664  151.3686   12.1362 O   0  0  0  0  0  0  0  0  0  0  0  0
   82.9505  150.5103   14.4250 O   0  0  0  0  0  0  0  0  0  0  0  0
   87.8989  149.4874   11.7462 O   0  0  0  0  0  0  0  0  0  0  0  0
   83.0064  152.0623   12.8130 H   0  0  0  0  0  0  0  0  0  0  0  0
   83.0768  151.4717   14.3972 H   0  0  0  0  0  0  0  0  0  0  0  0
   85.2640  155.7672   11.8018 O   0  0  0  0  0  0  0  0  0  0  0  0
   85.1878  156.4715   12.8433 C   0  0  0  0  0  0  0  0  0  0  0  0
   85.2098  155.9157   14.1464 N   0  0  0  0  0  0  0  0  0  0  0  0
   85.0756  157.8891   12.6430 N   0  0  0  0  0  0  0  0  0  0  0  0
   85.2006  156.7713   15.2876 C   0  0  0  0  0  0  0  0  0  0  0  0
   84.9890  158.6914   13.8188 C   0  0  0  0  0  0  0  0  0  0  0  0
   84.4205  158.0583   15.0340 C   0  0  0  0  0  0  0  0  0  0  0  0
   85.3908  159.8996   13.7980 O   0  0  0  0  0  0  0  0  0  0  0  0
   85.0593  158.2858   11.7421 H   0  0  0  0  0  0  0  0  0  0  0  0
   87.8401  148.5913   13.8029 O   0  0  0  0  0  0  0  0  0  0  0  0
   87.5410  147.2350   13.9009 C   0  0  0  0  0  0  0  0  0  0  0  0
   88.7173  146.3320   13.6904 C   0  0  0  0  0  0  0  0  0  0  0  0
   86.3774  146.8911   13.0043 C   0  0  0  0  0  0  0  0  0  0  0  0
   87.0589  146.9949   15.3391 C   0  0  0  0  0  0  0  0  0  0  0  0
 18 19  2  0
 19 20  1  0
 19 21  1  0
 20  1  1  0
 20 22  1  0
 21 23  1  0
 21 26  1  0
  1  2  2  0
  1  3  1  0
 22 24  1  0
 23 25  2  0
 23 24  1  0
  2  4  1  0
  3  5  2  0
  4  6  2  0
  5  6  1  0
  7  4  1  0
  7  9  1  0
  7 10  1  0
  8  6  1  0
  8 11  1  0
  8  9  1  0
  9 12  1  0
 10 13  1  0
 10 11  1  0
 11 14  1  0
 12 15  2  0
 12 27  1  0
 13 16  1  0
 14 17  1  0
 27 28  1  0
 28 29  1  0
 28 30  1  0
 28 31  1  0
M  END
> <Molecule Name>
Compound 4

> <EC50 (µM) (Excel)>
11.8

> <Error (µM)>
7.4

> <HTRC CRBN-DDB1 EC50 (µM)>
11.78 ±  7.41

> <EC50 fitting (µM)>
15.10

> <Modèle Fitting>
4PL

> <Parent_Compound>
Compound 4

> <MMFF94s_energy_kcalmol>
179.945
$$$$

> <minimizedAffinity>
-8.43275

> <CNNscore>
0.8763809204

> <CNNaffinity>
6.7103199959

> <CNN_VS>
5.8807964325

> <CNNaffinity_variance>
0.3934115469

$$$$
Compound_4_s4


 31 34  0  0  0  0  0  0  0  0999 V2000
   84.6676  154.4793   14.0838 C   0  0  0  0  0  0  0  0  0  0  0  0
   84.8321  153.7512   15.2495 C   0  0  0  0  0  0  0  0  0  0  0  0
   84.2977  153.7433   12.9655 C   0  0  0  0  0  0  0  0  0  0  0  0
   84.6482  152.3885   15.3247 C   0  0  0  0  0  0  0  0  0  0  0  0
   84.1012  152.3784   12.9880 C   0  0  0  0  0  0  0  0  0  0  0  0
   84.2795  151.7074   14.1765 C   0  0  0  0  0  0  0  0  0  0  0  0
   84.7468  151.3580   16.4153 C   0  0  0  0  0  0  0  0  0  0  0  0
   84.1668  150.2776   14.5826 C   0  0  0  0  0  0  0  0  0  0  0  0
   83.7249  150.4498   15.9497 N   0  0  0  0  0  0  0  0  0  0  0  0
   85.9811  150.5295   16.1383 C   0  0  0  0  0  0  0  0  0  0  0  0
   85.5895  149.8181   14.8421 C   0  0  0  0  0  0  0  0  0  0  0  0
   82.6130  149.8667   16.5681 C   0  0  0  0  0  0  0  0  0  0  0  0
   87.1179  151.3058   15.9554 O   0  0  0  0  0  0  0  0  0  0  0  0
   86.4580  150.2415   13.8561 O   0  0  0  0  0  0  0  0  0  0  0  0
   82.3037  150.0804   17.7834 O   0  0  0  0  0  0  0  0  0  0  0  0
   86.9680  151.9329   15.2306 H   0  0  0  0  0  0  0  0  0  0  0  0
   86.4333  151.2095   13.7973 H   0  0  0  0  0  0  0  0  0  0  0  0
   84.7223  155.8740   11.6825 O   0  0  0  0  0  0  0  0  0  0  0  0
   84.8392  156.5150   12.7605 C   0  0  0  0  0  0  0  0  0  0  0  0
   84.8623  155.8829   14.0283 N   0  0  0  0  0  0  0  0  0  0  0  0
   84.9497  157.9418   12.6406 N   0  0  0  0  0  0  0  0  0  0  0  0
   85.0773  156.6558   15.2075 C   0  0  0  0  0  0  0  0  0  0  0  0
   85.0823  158.6727   13.8580 C   0  0  0  0  0  0  0  0  0  0  0  0
   84.5055  158.0653   15.0824 C   0  0  0  0  0  0  0  0  0  0  0  0
   85.6765  159.7989   13.8648 O   0  0  0  0  0  0  0  0  0  0  0  0
   84.9348  158.3913   11.7649 H   0  0  0  0  0  0  0  0  0  0  0  0
   81.7419  148.9952   15.9011 O   0  0  0  0  0  0  0  0  0  0  0  0
   80.5842  149.4026   15.2436 C   0  0  0  0  0  0  0  0  0  0  0  0
   79.3181  148.8930   15.8607 C   0  0  0  0  0  0  0  0  0  0  0  0
   80.6810  149.0856   13.7718 C   0  0  0  0  0  0  0  0  0  0  0  0
   80.5353  150.9339   15.3494 C   0  0  0  0  0  0  0  0  0  0  0  0
 18 19  2  0
 19 20  1  0
 19 21  1  0
 20  1  1  0
 20 22  1  0
 21 23  1  0
 21 26  1  0
  1  2  2  0
  1  3  1  0
 22 24  1  0
 23 25  2  0
 23 24  1  0
  2  4  1  0
  3  5  2  0
  4  6  2  0
  5  6  1  0
  7  4  1  0
  7  9  1  0
  7 10  1  0
  8  6  1  0
  8 11  1  0
  8  9  1  0
  9 12  1  0
 10 13  1  0
 10 11  1  0
 11 14  1  0
 12 15  2  0
 12 27  1  0
 13 16  1  0
 14 17  1  0
 27 28  1  0
 28 29  1  0
 28 30  1  0
 28 31  1  0
M  END
> <Molecule Name>
Compound 4

> <EC50 (µM) (Excel)>
11.8

> <Error (µM)>
7.4

> <HTRC CRBN-DDB1 EC50 (µM)>
11.78 ±  7.41

> <EC50 fitting (µM)>
15.10

> <Modèle Fitting>
4PL

> <Parent_Compound>
Compound 4

> <MMFF94s_energy_kcalmol>
179.945
$$$$

> <minimizedAffinity>
-8.78257

> <CNNscore>
0.8710492253

> <CNNaffinity>
7.1624073982

> <CNN_VS>
6.2388095856

> <CNNaffinity_variance>
0.2766062319

$$$$
