Compound_1_ent1


 35 37  0  0  0  0  0  0  0  0999 V2000
   82.8192  150.3899   16.3773 N   0  0  0  0  0  0  0  0  0  0  0  0
   81.8565  149.6036   15.7398 C   0  0  0  0  0  0  0  0  0  0  0  0
   82.4841  151.0697   17.5529 C   0  0  0  0  0  0  0  0  0  0  0  0
   81.1981  148.5527   16.5913 C   0  0  0  0  0  0  0  0  0  0  0  0
   82.1967  150.1921   18.7450 C   0  0  0  0  0  0  0  0  0  0  0  0
   80.3472  149.0552   17.6157 N   0  0  0  0  0  0  0  0  0  0  0  0
   80.7117  149.8102   18.7867 C   0  0  0  0  0  0  0  0  0  0  0  0
   78.9704  148.7880   17.4830 C   0  0  0  0  0  0  0  0  0  0  0  0
   78.4741  148.1406   16.5239 O   0  0  0  0  0  0  0  0  0  0  0  0
   82.6921  151.2066   15.7796 H   0  0  0  0  0  0  0  0  0  0  0  0
   80.8362  150.4466   15.0887 C   0  0  0  0  0  0  0  0  0  0  0  0
   80.0509  150.0115   14.2014 O   0  0  0  0  0  0  0  0  0  0  0  0
   80.6995  151.7777   15.4355 O   0  0  0  0  0  0  0  0  0  0  0  0
   81.3864  152.8333   14.8032 C   0  0  0  0  0  0  0  0  0  0  0  0
   84.1759  150.1761   16.0725 C   0  0  0  0  0  0  0  0  0  0  0  0
   85.2068  152.9003   13.6451 C   0  0  0  0  0  0  0  0  0  0  0  0
   84.8768  152.2143   14.7877 C   0  0  0  0  0  0  0  0  0  0  0  0
   85.1731  152.1616   12.4589 C   0  0  0  0  0  0  0  0  0  0  0  0
   84.5235  150.8591   14.7970 C   0  0  0  0  0  0  0  0  0  0  0  0
   84.8350  150.8285   12.4022 C   0  0  0  0  0  0  0  0  0  0  0  0
   84.5164  150.2088   13.5850 C   0  0  0  0  0  0  0  0  0  0  0  0
   86.8595  154.2067   11.6660 O   0  0  0  0  0  0  0  0  0  0  0  0
   86.1372  154.8495   12.4832 C   0  0  0  0  0  0  0  0  0  0  0  0
   85.5416  154.3026   13.6247 N   0  0  0  0  0  0  0  0  0  0  0  0
   85.9166  156.2534   12.2140 N   0  0  0  0  0  0  0  0  0  0  0  0
   85.1999  155.0563   14.8118 C   0  0  0  0  0  0  0  0  0  0  0  0
   85.1018  156.9142   13.1746 C   0  0  0  0  0  0  0  0  0  0  0  0
   85.1023  156.5415   14.5991 C   0  0  0  0  0  0  0  0  0  0  0  0
   84.3606  157.8448   12.7908 O   0  0  0  0  0  0  0  0  0  0  0  0
   86.2983  156.7130   11.4315 H   0  0  0  0  0  0  0  0  0  0  0  0
   78.0913  149.2502   18.4444 O   0  0  0  0  0  0  0  0  0  0  0  0
   77.4405  148.4343   19.3792 C   0  0  0  0  0  0  0  0  0  0  0  0
   78.1835  147.1268   19.4846 C   0  0  0  0  0  0  0  0  0  0  0  0
   76.0215  148.2155   18.8868 C   0  0  0  0  0  0  0  0  0  0  0  0
   77.3708  149.1326   20.7388 C   0  0  0  0  0  0  0  0  0  0  0  0
 22 23  2  0
 23 24  1  0
 23 25  1  0
 24 16  1  0
 24 26  1  0
 25 27  1  0
 25 30  1  0
 16 17  2  0
 16 18  1  0
 26 28  1  0
 27 29  2  0
 27 28  1  0
 17 19  1  0
 18 20  2  0
 19 21  2  0
 19 15  1  0
 20 21  1  0
 15  1  1  0
  1  2  1  0
  1  3  1  0
  1 10  1  0
  2 11  1  0
  2  4  1  0
  3  5  1  0
 11 12  2  0
 11 13  1  0
  4  6  1  0
  5  7  1  0
 13 14  1  0
  6  8  1  0
  6  7  1  0
  8  9  2  0
  8 31  1  0
 31 32  1  0
 32 33  1  0
 32 34  1  0
 32 35  1  0
M  CHG 1   1   1
M  END
> <Molecule Name>
Compound 1

> <EC50 (µM) (Excel)>
49.5

> <Error (µM)>
6.2

> <HTRC CRBN-DDB1 EC50 (µM)>
49.46 ±  6.19

> <EC50 fitting (µM)>
60.01

> <Modèle Fitting>
3PL

> <Parent_Compound>
Compound 1

> <MMFF94s_energy_kcalmol>
189.703
$$$$

> <minimizedAffinity>
-6.59917

> <CNNscore>
0.3536702394

> <CNNaffinity>
5.8414211273

> <CNN_VS>
2.0659368038

> <CNNaffinity_variance>
0.2545880377

$$$$
Compound_1_ent1


 35 37  0  0  0  0  0  0  0  0999 V2000
   85.0082  150.2523   14.2033 N   0  0  0  0  0  0  0  0  0  0  0  0
   83.7056  149.7555   14.2926 C   0  0  0  0  0  0  0  0  0  0  0  0
   85.7497  150.4531   15.3721 C   0  0  0  0  0  0  0  0  0  0  0  0
   83.5453  148.4656   15.0499 C   0  0  0  0  0  0  0  0  0  0  0  0
   86.1207  149.1993   16.1231 C   0  0  0  0  0  0  0  0  0  0  0  0
   83.7821  148.5573   16.4504 N   0  0  0  0  0  0  0  0  0  0  0  0
   85.0231  148.8294   17.1287 C   0  0  0  0  0  0  0  0  0  0  0  0
   82.6721  148.3581   17.2947 C   0  0  0  0  0  0  0  0  0  0  0  0
   81.5117  148.1083   16.8750 O   0  0  0  0  0  0  0  0  0  0  0  0
   84.7354  151.2315   14.1184 H   0  0  0  0  0  0  0  0  0  0  0  0
   82.7879  150.7791   14.8269 C   0  0  0  0  0  0  0  0  0  0  0  0
   82.3510  150.7581   16.0110 O   0  0  0  0  0  0  0  0  0  0  0  0
   82.3622  151.8253   14.0301 O   0  0  0  0  0  0  0  0  0  0  0  0
   82.1792  153.1448   14.4898 C   0  0  0  0  0  0  0  0  0  0  0  0
   85.6816  150.1648   12.9712 C   0  0  0  0  0  0  0  0  0  0  0  0
   85.9057  153.9365   12.6562 C   0  0  0  0  0  0  0  0  0  0  0  0
   85.5101  152.6679   13.0012 C   0  0  0  0  0  0  0  0  0  0  0  0
   87.0231  154.0211   11.8207 C   0  0  0  0  0  0  0  0  0  0  0  0
   86.1639  151.5108   12.5594 C   0  0  0  0  0  0  0  0  0  0  0  0
   87.7087  152.9226   11.3537 C   0  0  0  0  0  0  0  0  0  0  0  0
   87.2549  151.6860   11.7403 C   0  0  0  0  0  0  0  0  0  0  0  0
   85.2871  154.6355   15.3919 O   0  0  0  0  0  0  0  0  0  0  0  0
   85.2051  155.4666   14.4404 C   0  0  0  0  0  0  0  0  0  0  0  0
   85.2188  155.1305   13.0826 N   0  0  0  0  0  0  0  0  0  0  0  0
   85.0858  156.8655   14.7879 N   0  0  0  0  0  0  0  0  0  0  0  0
   84.6045  155.9197   12.0367 C   0  0  0  0  0  0  0  0  0  0  0  0
   84.9922  157.7417   13.6713 C   0  0  0  0  0  0  0  0  0  0  0  0
   84.3332  157.3495   12.4143 C   0  0  0  0  0  0  0  0  0  0  0  0
   85.4882  158.8852   13.7656 O   0  0  0  0  0  0  0  0  0  0  0  0
   85.0706  157.1845   15.7192 H   0  0  0  0  0  0  0  0  0  0  0  0
   82.8364  148.4355   18.6650 O   0  0  0  0  0  0  0  0  0  0  0  0
   82.3163  149.4594   19.4678 C   0  0  0  0  0  0  0  0  0  0  0  0
   82.7774  149.2466   20.8873 C   0  0  0  0  0  0  0  0  0  0  0  0
   80.8030  149.3929   19.3716 C   0  0  0  0  0  0  0  0  0  0  0  0
   82.7675  150.8256   18.9473 C   0  0  0  0  0  0  0  0  0  0  0  0
 22 23  2  0
 23 24  1  0
 23 25  1  0
 24 16  1  0
 24 26  1  0
 25 27  1  0
 25 30  1  0
 16 17  2  0
 16 18  1  0
 26 28  1  0
 27 29  2  0
 27 28  1  0
 17 19  1  0
 18 20  2  0
 19 21  2  0
 19 15  1  0
 20 21  1  0
 15  1  1  0
  1  2  1  0
  1  3  1  0
  1 10  1  0
  2 11  1  0
  2  4  1  0
  3  5  1  0
 11 12  2  0
 11 13  1  0
  4  6  1  0
  5  7  1  0
 13 14  1  0
  6  8  1  0
  6  7  1  0
  8  9  2  0
  8 31  1  0
 31 32  1  0
 32 33  1  0
 32 34  1  0
 32 35  1  0
M  CHG 1   1   1
M  END
> <Molecule Name>
Compound 1

> <EC50 (µM) (Excel)>
49.5

> <Error (µM)>
6.2

> <HTRC CRBN-DDB1 EC50 (µM)>
49.46 ±  6.19

> <EC50 fitting (µM)>
60.01

> <Modèle Fitting>
3PL

> <Parent_Compound>
Compound 1

> <MMFF94s_energy_kcalmol>
189.703
$$$$

> <minimizedAffinity>
-7.84414

> <CNNscore>
0.3502327204

> <CNNaffinity>
5.2787685394

> <CNN_VS>
1.8487974405

> <CNNaffinity_variance>
1.5376167297

$$$$
Compound_1_ent1


 35 37  0  0  0  0  0  0  0  0999 V2000
   87.7503  149.5660   11.9415 N   0  0  0  0  0  0  0  0  0  0  0  0
   87.1755  149.4424   10.6743 C   0  0  0  0  0  0  0  0  0  0  0  0
   89.0116  150.1567   12.0705 C   0  0  0  0  0  0  0  0  0  0  0  0
   87.0641  150.7132    9.8770 C   0  0  0  0  0  0  0  0  0  0  0  0
   89.0721  151.6259   11.7366 C   0  0  0  0  0  0  0  0  0  0  0  0
   88.3038  151.2608    9.4421 N   0  0  0  0  0  0  0  0  0  0  0  0
   89.3581  151.8273   10.2431 C   0  0  0  0  0  0  0  0  0  0  0  0
   88.5457  151.2567    8.0543 C   0  0  0  0  0  0  0  0  0  0  0  0
   87.7341  150.8029    7.2054 O   0  0  0  0  0  0  0  0  0  0  0  0
   88.1098  148.6123   11.9810 H   0  0  0  0  0  0  0  0  0  0  0  0
   87.8619  148.4026    9.8848 C   0  0  0  0  0  0  0  0  0  0  0  0
   89.1153  148.2525    9.8901 O   0  0  0  0  0  0  0  0  0  0  0  0
   87.1391  147.5325    9.0904 O   0  0  0  0  0  0  0  0  0  0  0  0
   87.2129  147.5008    7.6834 C   0  0  0  0  0  0  0  0  0  0  0  0
   86.9188  149.4722   13.0725 C   0  0  0  0  0  0  0  0  0  0  0  0
   85.2656  152.8835   13.1474 C   0  0  0  0  0  0  0  0  0  0  0  0
   86.1919  151.8710   13.1882 C   0  0  0  0  0  0  0  0  0  0  0  0
   83.9434  152.4918   12.9187 C   0  0  0  0  0  0  0  0  0  0  0  0
   85.8642  150.5203   13.0157 C   0  0  0  0  0  0  0  0  0  0  0  0
   83.5578  151.1824   12.7410 C   0  0  0  0  0  0  0  0  0  0  0  0
   84.5392  150.2241   12.7952 C   0  0  0  0  0  0  0  0  0  0  0  0
   86.9899  154.4765   11.4609 O   0  0  0  0  0  0  0  0  0  0  0  0
   86.2303  154.9872   12.3355 C   0  0  0  0  0  0  0  0  0  0  0  0
   85.5918  154.2726   13.3546 N   0  0  0  0  0  0  0  0  0  0  0  0
   86.0119  156.4156   12.2742 N   0  0  0  0  0  0  0  0  0  0  0  0
   85.1966  154.8366   14.6274 C   0  0  0  0  0  0  0  0  0  0  0  0
   85.1539  156.9222   13.2893 C   0  0  0  0  0  0  0  0  0  0  0  0
   85.0983  156.3368   14.6393 C   0  0  0  0  0  0  0  0  0  0  0  0
   84.4232  157.9003   13.0212 O   0  0  0  0  0  0  0  0  0  0  0  0
   86.4225  156.9891   11.5874 H   0  0  0  0  0  0  0  0  0  0  0  0
   89.7322  151.7734    7.5684 O   0  0  0  0  0  0  0  0  0  0  0  0
   89.8304  152.9376    6.7949 C   0  0  0  0  0  0  0  0  0  0  0  0
   91.0811  153.6806    7.1906 C   0  0  0  0  0  0  0  0  0  0  0  0
   88.5925  153.7731    7.0660 C   0  0  0  0  0  0  0  0  0  0  0  0
   89.8525  152.5876    5.3057 C   0  0  0  0  0  0  0  0  0  0  0  0
 22 23  2  0
 23 24  1  0
 23 25  1  0
 24 16  1  0
 24 26  1  0
 25 27  1  0
 25 30  1  0
 16 17  2  0
 16 18  1  0
 26 28  1  0
 27 29  2  0
 27 28  1  0
 17 19  1  0
 18 20  2  0
 19 21  2  0
 19 15  1  0
 20 21  1  0
 15  1  1  0
  1  2  1  0
  1  3  1  0
  1 10  1  0
  2 11  1  0
  2  4  1  0
  3  5  1  0
 11 12  2  0
 11 13  1  0
  4  6  1  0
  5  7  1  0
 13 14  1  0
  6  8  1  0
  6  7  1  0
  8  9  2  0
  8 31  1  0
 31 32  1  0
 32 33  1  0
 32 34  1  0
 32 35  1  0
M  CHG 1   1   1
M  END
> <Molecule Name>
Compound 1

> <EC50 (µM) (Excel)>
49.5

> <Error (µM)>
6.2

> <HTRC CRBN-DDB1 EC50 (µM)>
49.46 ±  6.19

> <EC50 fitting (µM)>
60.01

> <Modèle Fitting>
3PL

> <Parent_Compound>
Compound 1

> <MMFF94s_energy_kcalmol>
189.703
$$$$

> <minimizedAffinity>
-6.75702

> <CNNscore>
0.3440620899

> <CNNaffinity>
5.5870342255

> <CNN_VS>
1.9222866297

> <CNNaffinity_variance>
0.4366113245

$$$$
Compound_1_ent1


 35 37  0  0  0  0  0  0  0  0999 V2000
   84.3676  150.3304   16.1467 N   0  0  0  0  0  0  0  0  0  0  0  0
   83.2413  151.1380   15.9711 C   0  0  0  0  0  0  0  0  0  0  0  0
   84.2524  148.9453   15.9896 C   0  0  0  0  0  0  0  0  0  0  0  0
   82.5180  150.9803   14.6615 C   0  0  0  0  0  0  0  0  0  0  0  0
   83.9529  148.4786   14.5874 C   0  0  0  0  0  0  0  0  0  0  0  0
   81.8542  149.7333   14.4875 N   0  0  0  0  0  0  0  0  0  0  0  0
   82.4384  148.4241   14.3502 C   0  0  0  0  0  0  0  0  0  0  0  0
   80.4467  149.7662   14.4407 C   0  0  0  0  0  0  0  0  0  0  0  0
   79.7693  150.8227   14.5422 O   0  0  0  0  0  0  0  0  0  0  0  0
   84.3073  150.2957   17.1643 H   0  0  0  0  0  0  0  0  0  0  0  0
   82.3008  150.9805   17.0963 C   0  0  0  0  0  0  0  0  0  0  0  0
   81.2461  151.6647   17.2101 O   0  0  0  0  0  0  0  0  0  0  0  0
   82.5466  150.0544   18.0926 O   0  0  0  0  0  0  0  0  0  0  0  0
   82.9197  150.3908   19.4093 C   0  0  0  0  0  0  0  0  0  0  0  0
   85.6414  150.9239   16.0804 C   0  0  0  0  0  0  0  0  0  0  0  0
   85.4812  153.7180   13.5226 C   0  0  0  0  0  0  0  0  0  0  0  0
   85.3690  152.9879   14.6798 C   0  0  0  0  0  0  0  0  0  0  0  0
   86.0551  153.0534   12.4351 C   0  0  0  0  0  0  0  0  0  0  0  0
   85.7933  151.6581   14.7952 C   0  0  0  0  0  0  0  0  0  0  0  0
   86.4919  151.7490   12.4851 C   0  0  0  0  0  0  0  0  0  0  0  0
   86.3469  151.0816   13.6759 C   0  0  0  0  0  0  0  0  0  0  0  0
   82.8159  154.6560   14.1319 O   0  0  0  0  0  0  0  0  0  0  0  0
   83.7907  155.4429   13.9500 C   0  0  0  0  0  0  0  0  0  0  0  0
   85.0186  155.0771   13.3884 N   0  0  0  0  0  0  0  0  0  0  0  0
   83.6164  156.8215   14.3514 N   0  0  0  0  0  0  0  0  0  0  0  0
   85.9010  155.9837   12.6857 C   0  0  0  0  0  0  0  0  0  0  0  0
   84.7479  157.6497   14.1129 C   0  0  0  0  0  0  0  0  0  0  0  0
   85.6527  157.4389   12.9705 C   0  0  0  0  0  0  0  0  0  0  0  0
   84.9781  158.5896   14.9042 O   0  0  0  0  0  0  0  0  0  0  0  0
   82.7843  157.1582   14.7557 H   0  0  0  0  0  0  0  0  0  0  0  0
   79.7431  148.5880   14.2750 O   0  0  0  0  0  0  0  0  0  0  0  0
   78.9375  148.2967   13.1662 C   0  0  0  0  0  0  0  0  0  0  0  0
   78.8421  146.7999   13.0138 C   0  0  0  0  0  0  0  0  0  0  0  0
   79.5889  148.9271   11.9487 C   0  0  0  0  0  0  0  0  0  0  0  0
   77.5493  148.9165   13.3386 C   0  0  0  0  0  0  0  0  0  0  0  0
 22 23  2  0
 23 24  1  0
 23 25  1  0
 24 16  1  0
 24 26  1  0
 25 27  1  0
 25 30  1  0
 16 17  2  0
 16 18  1  0
 26 28  1  0
 27 29  2  0
 27 28  1  0
 17 19  1  0
 18 20  2  0
 19 21  2  0
 19 15  1  0
 20 21  1  0
 15  1  1  0
  1  2  1  0
  1  3  1  0
  1 10  1  0
  2 11  1  0
  2  4  1  0
  3  5  1  0
 11 12  2  0
 11 13  1  0
  4  6  1  0
  5  7  1  0
 13 14  1  0
  6  8  1  0
  6  7  1  0
  8  9  2  0
  8 31  1  0
 31 32  1  0
 32 33  1  0
 32 34  1  0
 32 35  1  0
M  CHG 1   1   1
M  END
> <Molecule Name>
Compound 1

> <EC50 (µM) (Excel)>
49.5

> <Error (µM)>
6.2

> <HTRC CRBN-DDB1 EC50 (µM)>
49.46 ±  6.19

> <EC50 fitting (µM)>
60.01

> <Modèle Fitting>
3PL

> <Parent_Compound>
Compound 1

> <MMFF94s_energy_kcalmol>
189.703
$$$$

> <minimizedAffinity>
-7.35132

> <CNNscore>
0.3077429831

> <CNNaffinity>
5.1873908043

> <CNN_VS>
1.5963830948

> <CNNaffinity_variance>
1.4045602083

$$$$
Compound_1_ent1


 35 37  0  0  0  0  0  0  0  0999 V2000
   85.0030  149.9200   14.9696 N   0  0  0  0  0  0  0  0  0  0  0  0
   84.3446  150.6760   15.9425 C   0  0  0  0  0  0  0  0  0  0  0  0
   84.2539  149.2266   14.0133 C   0  0  0  0  0  0  0  0  0  0  0  0
   83.3721  151.7026   15.4294 C   0  0  0  0  0  0  0  0  0  0  0  0
   83.4937  150.0912   13.0395 C   0  0  0  0  0  0  0  0  0  0  0  0
   82.2029  151.1699   14.8167 N   0  0  0  0  0  0  0  0  0  0  0  0
   82.1009  150.4243   13.5889 C   0  0  0  0  0  0  0  0  0  0  0  0
   80.9817  151.3922   15.4828 C   0  0  0  0  0  0  0  0  0  0  0  0
   80.8826  152.0255   16.5665 O   0  0  0  0  0  0  0  0  0  0  0  0
   85.1466  149.1011   15.5605 H   0  0  0  0  0  0  0  0  0  0  0  0
   83.6892  149.8017   16.9333 C   0  0  0  0  0  0  0  0  0  0  0  0
   82.9942  148.7987   16.6101 O   0  0  0  0  0  0  0  0  0  0  0  0
   83.8156  150.0554   18.2862 O   0  0  0  0  0  0  0  0  0  0  0  0
   82.8327  150.6989   19.0644 C   0  0  0  0  0  0  0  0  0  0  0  0
   86.3629  150.1788   14.7188 C   0  0  0  0  0  0  0  0  0  0  0  0
   85.9592  153.5742   13.0806 C   0  0  0  0  0  0  0  0  0  0  0  0
   85.8748  152.5182   13.9538 C   0  0  0  0  0  0  0  0  0  0  0  0
   86.7155  153.3523   11.9261 C   0  0  0  0  0  0  0  0  0  0  0  0
   86.4958  151.2829   13.7301 C   0  0  0  0  0  0  0  0  0  0  0  0
   87.3498  152.1625   11.6493 C   0  0  0  0  0  0  0  0  0  0  0  0
   87.2205  151.1512   12.5686 C   0  0  0  0  0  0  0  0  0  0  0  0
   85.1840  154.6629   15.6436 O   0  0  0  0  0  0  0  0  0  0  0  0
   85.2045  155.3577   14.5855 C   0  0  0  0  0  0  0  0  0  0  0  0
   85.2973  154.8380   13.2901 N   0  0  0  0  0  0  0  0  0  0  0  0
   85.1226  156.7943   14.7318 N   0  0  0  0  0  0  0  0  0  0  0  0
   84.7919  155.4964   12.1047 C   0  0  0  0  0  0  0  0  0  0  0  0
   85.1449  157.5115   13.5036 C   0  0  0  0  0  0  0  0  0  0  0  0
   84.5579  156.9729   12.2652 C   0  0  0  0  0  0  0  0  0  0  0  0
   85.6828  158.6396   13.4798 O   0  0  0  0  0  0  0  0  0  0  0  0
   85.0571  157.2385   15.6079 H   0  0  0  0  0  0  0  0  0  0  0  0
   79.8102  150.8990   14.9396 O   0  0  0  0  0  0  0  0  0  0  0  0
   78.9987  149.9346   15.5517 C   0  0  0  0  0  0  0  0  0  0  0  0
   77.5721  150.1504   15.1144 C   0  0  0  0  0  0  0  0  0  0  0  0
   79.1389  150.1045   17.0535 C   0  0  0  0  0  0  0  0  0  0  0  0
   79.4742  148.5275   15.1847 C   0  0  0  0  0  0  0  0  0  0  0  0
 22 23  2  0
 23 24  1  0
 23 25  1  0
 24 16  1  0
 24 26  1  0
 25 27  1  0
 25 30  1  0
 16 17  2  0
 16 18  1  0
 26 28  1  0
 27 29  2  0
 27 28  1  0
 17 19  1  0
 18 20  2  0
 19 21  2  0
 19 15  1  0
 20 21  1  0
 15  1  1  0
  1  2  1  0
  1  3  1  0
  1 10  1  0
  2 11  1  0
  2  4  1  0
  3  5  1  0
 11 12  2  0
 11 13  1  0
  4  6  1  0
  5  7  1  0
 13 14  1  0
  6  8  1  0
  6  7  1  0
  8  9  2  0
  8 31  1  0
 31 32  1  0
 32 33  1  0
 32 34  1  0
 32 35  1  0
M  CHG 1   1   1
M  END
> <Molecule Name>
Compound 1

> <EC50 (µM) (Excel)>
49.5

> <Error (µM)>
6.2

> <HTRC CRBN-DDB1 EC50 (µM)>
49.46 ±  6.19

> <EC50 fitting (µM)>
60.01

> <Modèle Fitting>
3PL

> <Parent_Compound>
Compound 1

> <MMFF94s_energy_kcalmol>
189.703
$$$$

> <minimizedAffinity>
-7.92381

> <CNNscore>
0.3060980737

> <CNNaffinity>
5.1659908295

> <CNN_VS>
1.5812999010

> <CNNaffinity_variance>
1.3143599033

$$$$
