Compound_4_s9


 31 34  0  0  0  0  0  0  0  0999 V2000
   84.1777  154.9178   14.4076 C   0  0  0  0  0  0  0  0  0  0  0  0
   84.9232  153.8052   14.7578 C   0  0  0  0  0  0  0  0  0  0  0  0
   82.8180  154.8771   14.1957 C   0  0  0  0  0  0  0  0  0  0  0  0
   84.3043  152.5966   14.9066 C   0  0  0  0  0  0  0  0  0  0  0  0
   82.1838  153.6454   14.3467 C   0  0  0  0  0  0  0  0  0  0  0  0
   82.9319  152.5450   14.6947 C   0  0  0  0  0  0  0  0  0  0  0  0
   84.6951  151.2032   15.2595 C   0  0  0  0  0  0  0  0  0  0  0  0
   82.5172  151.1340   14.9156 C   0  0  0  0  0  0  0  0  0  0  0  0
   83.7283  150.4659   14.4732 N   0  0  0  0  0  0  0  0  0  0  0  0
   84.1257  150.9616   16.6434 C   0  0  0  0  0  0  0  0  0  0  0  0
   82.6158  150.8964   16.4060 C   0  0  0  0  0  0  0  0  0  0  0  0
   83.8218  149.4252   13.5520 C   0  0  0  0  0  0  0  0  0  0  0  0
   84.5846  149.7736   17.1958 O   0  0  0  0  0  0  0  0  0  0  0  0
   81.9965  151.9382   17.0685 O   0  0  0  0  0  0  0  0  0  0  0  0
   84.9629  148.9303   13.2559 O   0  0  0  0  0  0  0  0  0  0  0  0
   84.3521  149.0346   16.6121 H   0  0  0  0  0  0  0  0  0  0  0  0
   82.3867  152.7796   16.7844 H   0  0  0  0  0  0  0  0  0  0  0  0
   85.1358  155.9251   11.9869 O   0  0  0  0  0  0  0  0  0  0  0  0
   85.0495  156.7021   12.9731 C   0  0  0  0  0  0  0  0  0  0  0  0
   84.8236  156.1688   14.2544 N   0  0  0  0  0  0  0  0  0  0  0  0
   85.1753  158.1130   12.8228 N   0  0  0  0  0  0  0  0  0  0  0  0
   85.2691  156.9328   15.4134 C   0  0  0  0  0  0  0  0  0  0  0  0
   85.0637  158.9077   13.9925 C   0  0  0  0  0  0  0  0  0  0  0  0
   84.6775  158.3237   15.3049 C   0  0  0  0  0  0  0  0  0  0  0  0
   85.2900  160.1407   13.9528 O   0  0  0  0  0  0  0  0  0  0  0  0
   85.3337  158.5209   11.9409 H   0  0  0  0  0  0  0  0  0  0  0  0
   82.7483  148.8516   12.8987 O   0  0  0  0  0  0  0  0  0  0  0  0
   81.9037  147.8895   13.4648 C   0  0  0  0  0  0  0  0  0  0  0  0
   81.5836  146.7589   12.5212 C   0  0  0  0  0  0  0  0  0  0  0  0
   82.6125  147.2889   14.6625 C   0  0  0  0  0  0  0  0  0  0  0  0
   80.5979  148.4744   13.9565 C   0  0  0  0  0  0  0  0  0  0  0  0
 18 19  2  0
 19 20  1  0
 19 21  1  0
 20  1  1  0
 20 22  1  0
 21 23  1  0
 21 26  1  0
  1  2  2  0
  1  3  1  0
 22 24  1  0
 23 25  2  0
 23 24  1  0
  2  4  1  0
  3  5  2  0
  4  6  2  0
  5  6  1  0
  7  4  1  0
  7  9  1  0
  7 10  1  0
  8  6  1  0
  8 11  1  0
  8  9  1  0
  9 12  1  0
 10 13  1  0
 10 11  1  0
 11 14  1  0
 12 15  2  0
 12 27  1  0
 13 16  1  0
 14 17  1  0
 27 28  1  0
 28 29  1  0
 28 30  1  0
 28 31  1  0
M  END
> <Molecule Name>
Compound 4

> <EC50 (µM) (Excel)>
11.8

> <Error (µM)>
7.4

> <HTRC CRBN-DDB1 EC50 (µM)>
11.78 ±  7.41

> <EC50 fitting (µM)>
15.10

> <Modèle Fitting>
4PL

> <Parent_Compound>
Compound 4

> <MMFF94s_energy_kcalmol>
153.088
$$$$
