Compound_9_ent1
 OpenBabel09072607323D

 63 65  0  0  0  0  0  0  0  0999 V2000
   -1.2882    1.1757    0.9658 S   0  0  0  0  0  0  0  0  0  0  0  0
   -1.0222    1.1164    2.4665 O   0  0  0  0  0  0  0  0  0  0  0  0
   -0.0963    1.9419    0.4022 O   0  0  0  0  0  0  0  0  0  0  0  0
   -1.3261   -0.3408    0.3512 N   0  0  0  0  0  0  0  0  0  0  0  0
   -2.7024    2.1943    0.7480 C   0  0  0  0  0  0  0  0  0  0  0  0
   -2.1690   -0.7917   -0.6444 C   0  0  0  0  0  0  0  0  0  0  0  0
   -0.5034   -1.2768    1.0247 C   0  0  0  0  0  0  0  0  0  0  0  0
   -3.9271    1.3188    1.0192 C   0  0  0  0  0  0  0  0  0  0  0  0
   -3.2172    0.1348   -1.1648 C   0  0  0  0  0  0  0  0  0  0  0  0
    0.8317   -1.3389    0.3746 C   0  0  0  0  0  0  0  0  0  0  0  0
   -4.1648    0.5623   -0.1887 N   0  0  0  0  0  0  0  0  0  0  0  0
    1.9036   -0.5512    0.7321 C   0  0  0  0  0  0  0  0  0  0  0  0
    1.0672   -2.2421   -0.6685 C   0  0  0  0  0  0  0  0  0  0  0  0
   -5.5186    0.2126   -0.4041 C   0  0  0  0  0  0  0  0  0  0  0  0
    3.1281   -0.6451    0.1057 C   0  0  0  0  0  0  0  0  0  0  0  0
    2.2719   -2.3471   -1.2984 C   0  0  0  0  0  0  0  0  0  0  0  0
   -5.7913   -0.4487   -1.4473 O   0  0  0  0  0  0  0  0  0  0  0  0
   -6.6072    0.5882    0.5352 C   0  0  0  0  0  0  0  0  0  0  0  0
    4.2101    0.2186    0.5389 C   0  0  0  0  0  0  0  0  0  0  0  0
    3.3450   -1.5336   -0.9143 C   0  0  0  0  0  0  0  0  0  0  0  0
   -7.8907    0.1164    0.1067 N   0  3  0  0  0  0  0  0  0  0  0  0
    4.0360    1.1004    1.4437 O   0  0  0  0  0  0  0  0  0  0  0  0
    5.5262    0.1619    0.0101 N   0  0  0  0  0  0  0  0  0  0  0  0
   -8.0580   -1.3020    0.1470 C   0  0  0  0  0  0  0  0  0  0  0  0
   -8.2720    0.6289   -1.1947 C   0  0  0  0  0  0  0  0  0  0  0  0
    6.5886    1.0626    0.4841 C   0  0  2  0  0  0  0  0  0  0  0  0
    7.1228    1.7597   -0.6927 C   0  0  0  0  0  0  0  0  0  0  0  0
    7.6311    0.2809    1.2562 C   0  0  0  0  0  0  0  0  0  0  0  0
    6.7533    2.9283   -1.0317 O   0  0  0  0  0  0  0  0  0  0  0  0
    8.1051    1.0802   -1.4869 N   0  0  0  0  0  0  0  0  0  0  0  0
    8.6114   -0.4515    0.4126 C   0  0  0  0  0  0  0  0  0  0  0  0
    8.5430   -0.1830   -1.0218 C   0  0  0  0  0  0  0  0  0  0  0  0
    8.8699   -1.0617   -1.8453 O   0  0  0  0  0  0  0  0  0  0  0  0
   -2.7338    2.5710   -0.2530 H   0  0  0  0  0  0  0  0  0  0  0  0
   -2.6764    3.0326    1.4124 H   0  0  0  0  0  0  0  0  0  0  0  0
   -2.6722   -1.6563   -0.2646 H   0  0  0  0  0  0  0  0  0  0  0  0
   -1.5225   -0.9521   -1.4818 H   0  0  0  0  0  0  0  0  0  0  0  0
   -0.9614   -2.2431    0.9869 H   0  0  0  0  0  0  0  0  0  0  0  0
   -0.3846   -0.9716    2.0434 H   0  0  0  0  0  0  0  0  0  0  0  0
   -4.7757    1.9299    1.2459 H   0  0  0  0  0  0  0  0  0  0  0  0
   -3.7633    0.6719    1.8556 H   0  0  0  0  0  0  0  0  0  0  0  0
   -3.7469   -0.3658   -1.9482 H   0  0  0  0  0  0  0  0  0  0  0  0
   -2.7076    1.0138   -1.5002 H   0  0  0  0  0  0  0  0  0  0  0  0
    1.7860    0.1332    1.4955 H   0  0  0  0  0  0  0  0  0  0  0  0
    0.2954   -2.8552   -0.9741 H   0  0  0  0  0  0  0  0  0  0  0  0
    2.3935   -3.0300   -2.0625 H   0  0  0  0  0  0  0  0  0  0  0  0
   -6.6418    1.6550    0.6110 H   0  0  0  0  0  0  0  0  0  0  0  0
   -6.3927    0.1327    1.4794 H   0  0  0  0  0  0  0  0  0  0  0  0
    4.2629   -1.6007   -1.3811 H   0  0  0  0  0  0  0  0  0  0  0  0
   -8.5250    0.4978    0.8086 H   0  0  0  0  0  0  0  0  0  0  0  0
    5.7333   -0.4968   -0.6916 H   0  0  0  0  0  0  0  0  0  0  0  0
   -7.4122   -1.7579   -0.5741 H   0  0  0  0  0  0  0  0  0  0  0  0
   -9.0746   -1.5478   -0.0788 H   0  0  0  0  0  0  0  0  0  0  0  0
   -7.8125   -1.6625    1.1241 H   0  0  0  0  0  0  0  0  0  0  0  0
   -7.6130    0.2353   -1.9401 H   0  0  0  0  0  0  0  0  0  0  0  0
   -8.2080    1.6970   -1.1901 H   0  0  0  0  0  0  0  0  0  0  0  0
   -9.2764    0.3327   -1.4144 H   0  0  0  0  0  0  0  0  0  0  0  0
    6.2190    1.7945    1.1715 H   0  0  0  0  0  0  0  0  0  0  0  0
    7.1240   -0.4319    1.8724 H   0  0  0  0  0  0  0  0  0  0  0  0
    8.1927    0.9990    1.8164 H   0  0  0  0  0  0  0  0  0  0  0  0
    8.4584    1.4741   -2.3171 H   0  0  0  0  0  0  0  0  0  0  0  0
    8.4513   -1.4994    0.5583 H   0  0  0  0  0  0  0  0  0  0  0  0
    9.5759   -0.1103    0.7260 H   0  0  0  0  0  0  0  0  0  0  0  0
  1  2  2  0  0  0  0
  1  3  2  0  0  0  0
  1  4  1  0  0  0  0
  1  5  1  0  0  0  0
  4  6  1  0  0  0  0
  4  7  1  0  0  0  0
  5  8  1  0  0  0  0
  5 34  1  0  0  0  0
  5 35  1  0  0  0  0
  6  9  1  0  0  0  0
  6 36  1  0  0  0  0
  6 37  1  0  0  0  0
  7 10  1  0  0  0  0
  7 38  1  0  0  0  0
  7 39  1  0  0  0  0
  8 11  1  0  0  0  0
  8 40  1  0  0  0  0
  8 41  1  0  0  0  0
  9 11  1  0  0  0  0
  9 42  1  0  0  0  0
  9 43  1  0  0  0  0
 10 12  2  0  0  0  0
 10 13  1  0  0  0  0
 11 14  1  0  0  0  0
 12 15  1  0  0  0  0
 12 44  1  0  0  0  0
 13 16  2  0  0  0  0
 13 45  1  0  0  0  0
 14 17  2  0  0  0  0
 14 18  1  0  0  0  0
 15 19  1  0  0  0  0
 15 20  2  0  0  0  0
 16 20  1  0  0  0  0
 16 46  1  0  0  0  0
 18 21  1  0  0  0  0
 18 47  1  0  0  0  0
 18 48  1  0  0  0  0
 19 22  2  0  0  0  0
 19 23  1  0  0  0  0
 20 49  1  0  0  0  0
 21 24  1  0  0  0  0
 21 25  1  0  0  0  0
 21 50  1  0  0  0  0
 23 51  1  0  0  0  0
 24 52  1  0  0  0  0
 24 53  1  0  0  0  0
 24 54  1  0  0  0  0
 25 55  1  0  0  0  0
 25 56  1  0  0  0  0
 25 57  1  0  0  0  0
 26 23  1  0  0  0  0
 26 27  1  0  0  0  0
 26 28  1  0  0  0  0
 26 58  1  1  0  0  0
 27 29  2  0  0  0  0
 27 30  1  0  0  0  0
 28 31  1  0  0  0  0
 28 59  1  0  0  0  0
 28 60  1  0  0  0  0
 30 32  1  0  0  0  0
 30 61  1  0  0  0  0
 31 32  1  0  0  0  0
 31 62  1  0  0  0  0
 31 63  1  0  0  0  0
 32 33  2  0  0  0  0
M  CHG  1  21   1
M  END
>  <Molecule Name>
Compound 9

>  <EC50 (µM) (Excel)>
54.0

>  <Error (µM)>
9.3

>  <HTRC CRBN-DDB1 EC50 (µM)>
53.95 ±  9.32

>  <EC50 fitting (µM)>
108.30

>  <Modèle Fitting>
4PL

>  <Parent_Compound>
Compound 9

>  <MMFF94s_energy_kcalmol>
165.178
$$$$
