Compound_8_ent2


 31 33  0  0  0  0  0  0  0  0999 V2000
   82.1823  151.0385   14.9622 C   0  0  0  0  0  0  0  0  0  0  0  0
   82.5565  152.3602   14.9816 C   0  0  0  0  0  0  0  0  0  0  0  0
   82.5117  150.2507   13.9008 C   0  0  0  0  0  0  0  0  0  0  0  0
   83.2607  152.9143   13.9496 C   0  0  0  0  0  0  0  0  0  0  0  0
   83.2245  150.8191   12.8603 C   0  0  0  0  0  0  0  0  0  0  0  0
   83.6037  152.1544   12.8777 C   0  0  0  0  0  0  0  0  0  0  0  0
   83.6370  154.3328   14.0173 C   0  0  0  0  0  0  0  0  0  0  0  0
   82.7158  155.2085   13.8851 O   0  0  0  0  0  0  0  0  0  0  0  0
   84.9370  154.8050   14.2168 N   0  0  0  0  0  0  0  0  0  0  0  0
   85.6813  154.1696   14.3241 H   0  0  0  0  0  0  0  0  0  0  0  0
   85.1869  156.2259   14.2655 C   0  0  0  0  0  0  0  0  0  0  0  0
   85.3057  156.8185   12.9107 C   0  0  0  0  0  0  0  0  0  0  0  0
   84.1012  156.9754   14.9951 C   0  0  0  0  0  0  0  0  0  0  0  0
   85.4368  156.1581   11.8500 O   0  0  0  0  0  0  0  0  0  0  0  0
   85.2663  158.2340   12.8289 N   0  0  0  0  0  0  0  0  0  0  0  0
   84.6560  158.3753   15.2725 C   0  0  0  0  0  0  0  0  0  0  0  0
   85.1557  158.9974   14.0229 C   0  0  0  0  0  0  0  0  0  0  0  0
   85.4744  160.2027   14.0483 O   0  0  0  0  0  0  0  0  0  0  0  0
   85.3149  158.6831   11.9542 H   0  0  0  0  0  0  0  0  0  0  0  0
   81.4218  150.5241   16.1225 C   0  0  0  0  0  0  0  0  0  0  0  0
   79.2128  150.1733   17.3906 S   0  0  0  0  0  0  0  0  0  0  0  0
   78.7271  151.4344   18.0173 O   0  0  0  0  0  0  0  0  0  0  0  0
   80.1262  149.3936   18.2960 O   0  0  0  0  0  0  0  0  0  0  0  0
   79.9867  150.5544   15.9204 N   0  0  0  0  0  0  0  0  0  0  0  0
   77.7589  149.1944   16.9888 C   0  0  0  0  0  0  0  0  0  0  0  0
   79.6618  149.6849   14.8358 C   0  0  0  0  0  0  0  0  0  0  0  0
   76.8051  150.0705   16.2063 C   0  0  0  0  0  0  0  0  0  0  0  0
   78.2603  149.8663   14.3146 C   0  0  0  0  0  0  0  0  0  0  0  0
   77.5236  150.7754   15.1662 N   0  0  0  0  0  0  0  0  0  0  0  0
   78.1784  151.4264   15.5995 H   0  0  0  0  0  0  0  0  0  0  0  0
   76.8436  151.2708   14.5895 H   0  0  0  0  0  0  0  0  0  0  0  0
 21 22  2  0
 21 23  2  0
 21 24  1  0
 21 25  1  0
 24 26  1  0
 24 20  1  0
 25 27  1  0
 26 28  1  0
 20  1  1  0
 27 29  1  0
 28 29  1  0
  1  2  2  0
  1  3  1  0
 29 30  1  0
 29 31  1  0
  2  4  1  0
  3  5  2  0
  4  7  1  0
  4  6  2  0
  5  6  1  0
  7  8  2  0
  7  9  1  0
  9 10  1  0
 11  9  1  0
 11 12  1  0
 11 13  1  0
 12 14  2  0
 12 15  1  0
 13 16  1  0
 15 17  1  0
 15 19  1  0
 16 17  1  0
 17 18  2  0
M  CHG 1  29   1
M  END
> <Molecule Name>
Compound 8

> <EC50 (µM) (Excel)>
6.8

> <Error (µM)>
1.0

> <HTRC CRBN-DDB1 EC50 (µM)>
6.77 ±  1.02

> <EC50 fitting (µM)>
7.19

> <Modèle Fitting>
4PL

> <Parent_Compound>
Compound 8

> <MMFF94s_energy_kcalmol>
109.581
$$$$

> <minimizedAffinity>
-9.60427

> <CNNscore>
0.9038450718

> <CNNaffinity>
6.9385223389

> <CNN_VS>
6.2713494301

> <CNNaffinity_variance>
0.8592920899

$$$$
Compound_8_ent2


 31 33  0  0  0  0  0  0  0  0999 V2000
   83.1343  150.5866   15.2011 C   0  0  0  0  0  0  0  0  0  0  0  0
   83.4009  151.9343   15.1950 C   0  0  0  0  0  0  0  0  0  0  0  0
   83.0940  149.8929   14.0295 C   0  0  0  0  0  0  0  0  0  0  0  0
   83.6301  152.6077   14.0281 C   0  0  0  0  0  0  0  0  0  0  0  0
   83.3271  150.5817   12.8527 C   0  0  0  0  0  0  0  0  0  0  0  0
   83.5966  151.9435   12.8441 C   0  0  0  0  0  0  0  0  0  0  0  0
   83.9103  154.0491   14.0741 C   0  0  0  0  0  0  0  0  0  0  0  0
   82.9471  154.8586   13.8509 O   0  0  0  0  0  0  0  0  0  0  0  0
   85.1607  154.6109   14.3457 N   0  0  0  0  0  0  0  0  0  0  0  0
   85.9344  154.0288   14.5242 H   0  0  0  0  0  0  0  0  0  0  0  0
   85.3163  156.0459   14.3642 C   0  0  0  0  0  0  0  0  0  0  0  0
   85.5448  156.6001   13.0073 C   0  0  0  0  0  0  0  0  0  0  0  0
   84.1139  156.7465   14.9440 C   0  0  0  0  0  0  0  0  0  0  0  0
   85.8305  155.9152   11.9935 O   0  0  0  0  0  0  0  0  0  0  0  0
   85.4277  158.0065   12.8656 N   0  0  0  0  0  0  0  0  0  0  0  0
   84.5485  158.1880   15.2230 C   0  0  0  0  0  0  0  0  0  0  0  0
   85.1416  158.7999   14.0099 C   0  0  0  0  0  0  0  0  0  0  0  0
   85.3812  160.0237   14.0211 O   0  0  0  0  0  0  0  0  0  0  0  0
   85.5434  158.4289   11.9838 H   0  0  0  0  0  0  0  0  0  0  0  0
   82.8982  149.9404   16.5111 C   0  0  0  0  0  0  0  0  0  0  0  0
   80.8201  150.2546   17.9920 S   0  0  0  0  0  0  0  0  0  0  0  0
   79.9275  151.3288   17.4740 O   0  0  0  0  0  0  0  0  0  0  0  0
   81.8626  150.7783   18.9413 O   0  0  0  0  0  0  0  0  0  0  0  0
   81.5413  149.4561   16.6700 N   0  0  0  0  0  0  0  0  0  0  0  0
   79.7693  149.0584   18.8277 C   0  0  0  0  0  0  0  0  0  0  0  0
   81.5766  148.0334   16.7832 C   0  0  0  0  0  0  0  0  0  0  0  0
   78.6503  148.6765   17.8836 C   0  0  0  0  0  0  0  0  0  0  0  0
   80.2276  147.3812   16.6298 C   0  0  0  0  0  0  0  0  0  0  0  0
   79.1890  148.3874   16.5717 N   0  0  0  0  0  0  0  0  0  0  0  0
   79.5799  149.2437   16.1787 H   0  0  0  0  0  0  0  0  0  0  0  0
   78.4322  148.0301   15.9886 H   0  0  0  0  0  0  0  0  0  0  0  0
 21 22  2  0
 21 23  2  0
 21 24  1  0
 21 25  1  0
 24 26  1  0
 24 20  1  0
 25 27  1  0
 26 28  1  0
 20  1  1  0
 27 29  1  0
 28 29  1  0
  1  2  2  0
  1  3  1  0
 29 30  1  0
 29 31  1  0
  2  4  1  0
  3  5  2  0
  4  7  1  0
  4  6  2  0
  5  6  1  0
  7  8  2  0
  7  9  1  0
  9 10  1  0
 11  9  1  0
 11 12  1  0
 11 13  1  0
 12 14  2  0
 12 15  1  0
 13 16  1  0
 15 17  1  0
 15 19  1  0
 16 17  1  0
 17 18  2  0
M  CHG 1  29   1
M  END
> <Molecule Name>
Compound 8

> <EC50 (µM) (Excel)>
6.8

> <Error (µM)>
1.0

> <HTRC CRBN-DDB1 EC50 (µM)>
6.77 ±  1.02

> <EC50 fitting (µM)>
7.19

> <Modèle Fitting>
4PL

> <Parent_Compound>
Compound 8

> <MMFF94s_energy_kcalmol>
109.581
$$$$

> <minimizedAffinity>
-8.79827

> <CNNscore>
0.8849670291

> <CNNaffinity>
6.6781883240

> <CNN_VS>
5.9099764824

> <CNNaffinity_variance>
0.2917394638

$$$$
Compound_8_ent2


 31 33  0  0  0  0  0  0  0  0999 V2000
   81.8832  151.2410   15.0795 C   0  0  0  0  0  0  0  0  0  0  0  0
   82.3065  152.5478   15.0641 C   0  0  0  0  0  0  0  0  0  0  0  0
   82.2722  150.3852   14.0936 C   0  0  0  0  0  0  0  0  0  0  0  0
   83.1192  153.0195   14.0717 C   0  0  0  0  0  0  0  0  0  0  0  0
   83.0948  150.8703   13.0929 C   0  0  0  0  0  0  0  0  0  0  0  0
   83.5238  152.1906   13.0751 C   0  0  0  0  0  0  0  0  0  0  0  0
   83.5443  154.4255   14.0995 C   0  0  0  0  0  0  0  0  0  0  0  0
   82.6523  155.3286   13.9520 O   0  0  0  0  0  0  0  0  0  0  0  0
   84.8613  154.8579   14.2763 N   0  0  0  0  0  0  0  0  0  0  0  0
   85.5845  154.2003   14.3941 H   0  0  0  0  0  0  0  0  0  0  0  0
   85.1600  156.2702   14.2860 C   0  0  0  0  0  0  0  0  0  0  0  0
   85.2101  156.8396   12.9171 C   0  0  0  0  0  0  0  0  0  0  0  0
   84.1487  157.0657   15.0717 C   0  0  0  0  0  0  0  0  0  0  0  0
   85.2507  156.1605   11.8609 O   0  0  0  0  0  0  0  0  0  0  0  0
   85.2115  158.2543   12.8153 N   0  0  0  0  0  0  0  0  0  0  0  0
   84.7656  158.4499   15.2904 C   0  0  0  0  0  0  0  0  0  0  0  0
   85.2033  159.0375   14.0016 C   0  0  0  0  0  0  0  0  0  0  0  0
   85.5621  160.2317   13.9871 O   0  0  0  0  0  0  0  0  0  0  0  0
   85.2181  158.6893   11.9321 H   0  0  0  0  0  0  0  0  0  0  0  0
   81.0047  150.8179   16.1924 C   0  0  0  0  0  0  0  0  0  0  0  0
   80.5194  149.4088   18.2875 S   0  0  0  0  0  0  0  0  0  0  0  0
   79.9987  148.0575   17.9384 O   0  0  0  0  0  0  0  0  0  0  0  0
   79.4241  150.4288   18.4354 O   0  0  0  0  0  0  0  0  0  0  0  0
   81.6449  149.8864   17.0998 N   0  0  0  0  0  0  0  0  0  0  0  0
   81.4185  149.2396   19.8356 C   0  0  0  0  0  0  0  0  0  0  0  0
   82.8293  150.4946   17.6148 C   0  0  0  0  0  0  0  0  0  0  0  0
   82.4040  148.1015   19.6837 C   0  0  0  0  0  0  0  0  0  0  0  0
   83.7518  149.5280   18.3102 C   0  0  0  0  0  0  0  0  0  0  0  0
   83.1191  148.2321   18.4321 N   0  0  0  0  0  0  0  0  0  0  0  0
   82.4618  148.1114   17.6615 H   0  0  0  0  0  0  0  0  0  0  0  0
   83.8477  147.5188   18.4060 H   0  0  0  0  0  0  0  0  0  0  0  0
 21 22  2  0
 21 23  2  0
 21 24  1  0
 21 25  1  0
 24 26  1  0
 24 20  1  0
 25 27  1  0
 26 28  1  0
 20  1  1  0
 27 29  1  0
 28 29  1  0
  1  2  2  0
  1  3  1  0
 29 30  1  0
 29 31  1  0
  2  4  1  0
  3  5  2  0
  4  7  1  0
  4  6  2  0
  5  6  1  0
  7  8  2  0
  7  9  1  0
  9 10  1  0
 11  9  1  0
 11 12  1  0
 11 13  1  0
 12 14  2  0
 12 15  1  0
 13 16  1  0
 15 17  1  0
 15 19  1  0
 16 17  1  0
 17 18  2  0
M  CHG 1  29   1
M  END
> <Molecule Name>
Compound 8

> <EC50 (µM) (Excel)>
6.8

> <Error (µM)>
1.0

> <HTRC CRBN-DDB1 EC50 (µM)>
6.77 ±  1.02

> <EC50 fitting (µM)>
7.19

> <Modèle Fitting>
4PL

> <Parent_Compound>
Compound 8

> <MMFF94s_energy_kcalmol>
109.581
$$$$

> <minimizedAffinity>
-9.12706

> <CNNscore>
0.8709709644

> <CNNaffinity>
6.9378819466

> <CNN_VS>
6.0426936150

> <CNNaffinity_variance>
0.3527804911

$$$$
Compound_8_ent2


 31 33  0  0  0  0  0  0  0  0999 V2000
   83.9511  150.6475   13.5057 C   0  0  0  0  0  0  0  0  0  0  0  0
   84.2407  151.9898   13.5467 C   0  0  0  0  0  0  0  0  0  0  0  0
   82.8127  150.1762   14.0866 C   0  0  0  0  0  0  0  0  0  0  0  0
   83.4052  152.8782   14.1635 C   0  0  0  0  0  0  0  0  0  0  0  0
   81.9723  151.0818   14.7089 C   0  0  0  0  0  0  0  0  0  0  0  0
   82.2628  152.4386   14.7516 C   0  0  0  0  0  0  0  0  0  0  0  0
   83.7596  154.3038   14.1808 C   0  0  0  0  0  0  0  0  0  0  0  0
   82.8479  155.1556   13.9049 O   0  0  0  0  0  0  0  0  0  0  0  0
   85.0287  154.8073   14.4784 N   0  0  0  0  0  0  0  0  0  0  0  0
   85.7647  154.1910   14.6975 H   0  0  0  0  0  0  0  0  0  0  0  0
   85.2592  156.2322   14.4642 C   0  0  0  0  0  0  0  0  0  0  0  0
   85.5407  156.7386   13.0986 C   0  0  0  0  0  0  0  0  0  0  0  0
   84.0852  157.0092   15.0034 C   0  0  0  0  0  0  0  0  0  0  0  0
   85.8079  156.0138   12.1078 O   0  0  0  0  0  0  0  0  0  0  0  0
   85.5003  158.1450   12.9199 N   0  0  0  0  0  0  0  0  0  0  0  0
   84.5899  158.4328   15.2548 C   0  0  0  0  0  0  0  0  0  0  0  0
   85.2360  158.9815   14.0384 C   0  0  0  0  0  0  0  0  0  0  0  0
   85.5393  160.1910   14.0238 O   0  0  0  0  0  0  0  0  0  0  0  0
   85.6537  158.5379   12.0303 H   0  0  0  0  0  0  0  0  0  0  0  0
   84.9132  149.7592   12.8166 C   0  0  0  0  0  0  0  0  0  0  0  0
   86.9031  149.3412   14.3902 S   0  0  0  0  0  0  0  0  0  0  0  0
   86.6069  149.7721   15.7850 O   0  0  0  0  0  0  0  0  0  0  0  0
   87.4938  150.4461   13.5580 O   0  0  0  0  0  0  0  0  0  0  0  0
   85.4712  148.7422   13.6857 N   0  0  0  0  0  0  0  0  0  0  0  0
   88.0575  147.9669   14.5007 C   0  0  0  0  0  0  0  0  0  0  0  0
   85.6379  147.5414   12.9317 C   0  0  0  0  0  0  0  0  0  0  0  0
   87.4865  146.9511   15.4658 C   0  0  0  0  0  0  0  0  0  0  0  0
   85.9025  146.3261   13.7812 C   0  0  0  0  0  0  0  0  0  0  0  0
   86.0914  146.7129   15.1629 N   0  0  0  0  0  0  0  0  0  0  0  0
   85.5636  147.5671   15.3422 H   0  0  0  0  0  0  0  0  0  0  0  0
   85.7632  145.9496   15.7546 H   0  0  0  0  0  0  0  0  0  0  0  0
 21 22  2  0
 21 23  2  0
 21 24  1  0
 21 25  1  0
 24 26  1  0
 24 20  1  0
 25 27  1  0
 26 28  1  0
 20  1  1  0
 27 29  1  0
 28 29  1  0
  1  2  2  0
  1  3  1  0
 29 30  1  0
 29 31  1  0
  2  4  1  0
  3  5  2  0
  4  7  1  0
  4  6  2  0
  5  6  1  0
  7  8  2  0
  7  9  1  0
  9 10  1  0
 11  9  1  0
 11 12  1  0
 11 13  1  0
 12 14  2  0
 12 15  1  0
 13 16  1  0
 15 17  1  0
 15 19  1  0
 16 17  1  0
 17 18  2  0
M  CHG 1  29   1
M  END
> <Molecule Name>
Compound 8

> <EC50 (µM) (Excel)>
6.8

> <Error (µM)>
1.0

> <HTRC CRBN-DDB1 EC50 (µM)>
6.77 ±  1.02

> <EC50 fitting (µM)>
7.19

> <Modèle Fitting>
4PL

> <Parent_Compound>
Compound 8

> <MMFF94s_energy_kcalmol>
109.581
$$$$

> <minimizedAffinity>
-8.00777

> <CNNscore>
0.8361558914

> <CNNaffinity>
7.0738215446

> <CNN_VS>
5.9148173332

> <CNNaffinity_variance>
0.6379188299

$$$$
Compound_8_ent2


 31 33  0  0  0  0  0  0  0  0999 V2000
   83.9193  150.3315   13.5795 C   0  0  0  0  0  0  0  0  0  0  0  0
   84.2020  151.6758   13.5884 C   0  0  0  0  0  0  0  0  0  0  0  0
   82.8083  149.8628   14.2132 C   0  0  0  0  0  0  0  0  0  0  0  0
   83.3867  152.5689   14.2252 C   0  0  0  0  0  0  0  0  0  0  0  0
   81.9882  150.7731   14.8553 C   0  0  0  0  0  0  0  0  0  0  0  0
   82.2718  152.1320   14.8657 C   0  0  0  0  0  0  0  0  0  0  0  0
   83.7326  153.9966   14.2065 C   0  0  0  0  0  0  0  0  0  0  0  0
   82.8012  154.8402   13.9744 O   0  0  0  0  0  0  0  0  0  0  0  0
   85.0136  154.5104   14.4249 N   0  0  0  0  0  0  0  0  0  0  0  0
   85.7648  153.9008   14.6077 H   0  0  0  0  0  0  0  0  0  0  0  0
   85.2340  155.9364   14.3819 C   0  0  0  0  0  0  0  0  0  0  0  0
   85.5492  156.4115   13.0124 C   0  0  0  0  0  0  0  0  0  0  0  0
   84.0400  156.7170   14.8696 C   0  0  0  0  0  0  0  0  0  0  0  0
   85.8487  155.6649   12.0474 O   0  0  0  0  0  0  0  0  0  0  0  0
   85.5035  157.8129   12.7982 N   0  0  0  0  0  0  0  0  0  0  0  0
   84.5273  158.1502   15.0996 C   0  0  0  0  0  0  0  0  0  0  0  0
   85.2025  158.6743   13.8881 C   0  0  0  0  0  0  0  0  0  0  0  0
   85.4973  159.8854   13.8521 O   0  0  0  0  0  0  0  0  0  0  0  0
   85.6784  158.1851   11.9037 H   0  0  0  0  0  0  0  0  0  0  0  0
   84.8582  149.4382   12.8655 C   0  0  0  0  0  0  0  0  0  0  0  0
   86.7753  149.1657   14.5570 S   0  0  0  0  0  0  0  0  0  0  0  0
   87.5694  147.9316   14.3008 O   0  0  0  0  0  0  0  0  0  0  0  0
   85.6142  148.9232   15.4816 O   0  0  0  0  0  0  0  0  0  0  0  0
   86.2482  149.7980   13.0644 N   0  0  0  0  0  0  0  0  0  0  0  0
   87.8982  150.3705   15.2788 C   0  0  0  0  0  0  0  0  0  0  0  0
   86.3728  151.2150   12.9428 C   0  0  0  0  0  0  0  0  0  0  0  0
   89.1182  150.4669   14.3889 C   0  0  0  0  0  0  0  0  0  0  0  0
   87.7967  151.6870   12.8069 C   0  0  0  0  0  0  0  0  0  0  0  0
   88.7110  150.5828   13.0048 N   0  0  0  0  0  0  0  0  0  0  0  0
   88.2506  149.7176   12.7220 H   0  0  0  0  0  0  0  0  0  0  0  0
   89.5438  150.7545   12.4415 H   0  0  0  0  0  0  0  0  0  0  0  0
 21 22  2  0
 21 23  2  0
 21 24  1  0
 21 25  1  0
 24 26  1  0
 24 20  1  0
 25 27  1  0
 26 28  1  0
 20  1  1  0
 27 29  1  0
 28 29  1  0
  1  2  2  0
  1  3  1  0
 29 30  1  0
 29 31  1  0
  2  4  1  0
  3  5  2  0
  4  7  1  0
  4  6  2  0
  5  6  1  0
  7  8  2  0
  7  9  1  0
  9 10  1  0
 11  9  1  0
 11 12  1  0
 11 13  1  0
 12 14  2  0
 12 15  1  0
 13 16  1  0
 15 17  1  0
 15 19  1  0
 16 17  1  0
 17 18  2  0
M  CHG 1  29   1
M  END
> <Molecule Name>
Compound 8

> <EC50 (µM) (Excel)>
6.8

> <Error (µM)>
1.0

> <HTRC CRBN-DDB1 EC50 (µM)>
6.77 ±  1.02

> <EC50 fitting (µM)>
7.19

> <Modèle Fitting>
4PL

> <Parent_Compound>
Compound 8

> <MMFF94s_energy_kcalmol>
109.581
$$$$

> <minimizedAffinity>
-8.16187

> <CNNscore>
0.8037178516

> <CNNaffinity>
6.6051330566

> <CNN_VS>
5.3086633682

> <CNNaffinity_variance>
0.0883137882

$$$$
