Compound_10_ent2


 39 42  0  0  0  0  0  0  0  0999 V2000
   81.7588  151.6231   15.2152 C   0  0  0  0  0  0  0  0  0  0  0  0
   83.3199  150.4231   13.5073 S   0  0  0  0  0  0  0  0  0  0  0  0
   83.3091  149.0527   14.1750 O   0  0  0  0  0  0  0  0  0  0  0  0
   82.1849  150.4007   12.5193 O   0  0  0  0  0  0  0  0  0  0  0  0
   83.0419  151.5930   14.6517 N   0  0  0  0  0  0  0  0  0  0  0  0
   84.8156  150.5619   12.5972 C   0  0  0  0  0  0  0  0  0  0  0  0
   84.0987  152.2891   15.2498 C   0  0  0  0  0  0  0  0  0  0  0  0
   85.9217  151.2426   13.3569 C   0  0  0  0  0  0  0  0  0  0  0  0
   84.7063  153.3176   14.2773 C   0  0  0  0  0  0  0  0  0  0  0  0
   85.6099  152.6797   13.3777 N   0  0  0  0  0  0  0  0  0  0  0  0
   86.2691  153.4493   12.4260 C   0  0  0  0  0  0  0  0  0  0  0  0
   87.0783  152.8892   11.6111 O   0  0  0  0  0  0  0  0  0  0  0  0
   86.1092  154.8955   12.2733 C   0  0  0  0  0  0  0  0  0  0  0  0
   84.9823  155.4531   12.8648 O   0  0  0  0  0  0  0  0  0  0  0  0
   84.9703  156.6570   13.5119 C   0  0  0  0  0  0  0  0  0  0  0  0
   84.6124  156.7160   14.8355 C   0  0  0  0  0  0  0  0  0  0  0  0
   85.3228  157.8170   12.8195 C   0  0  0  0  0  0  0  0  0  0  0  0
   84.6189  157.9527   15.4331 C   0  0  0  0  0  0  0  0  0  0  0  0
   85.3214  159.0435   13.4401 C   0  0  0  0  0  0  0  0  0  0  0  0
   84.9642  159.1112   14.7658 C   0  0  0  0  0  0  0  0  0  0  0  0
   81.5967  150.9858   16.5376 C   0  0  0  0  0  0  0  0  0  0  0  0
   80.3394  150.7007   17.0598 C   0  0  0  0  0  0  0  0  0  0  0  0
   82.6901  150.6455   17.3037 C   0  0  0  0  0  0  0  0  0  0  0  0
   80.1691  150.1029   18.2896 C   0  0  0  0  0  0  0  0  0  0  0  0
   82.5678  150.0450   18.5421 C   0  0  0  0  0  0  0  0  0  0  0  0
   81.3031  149.7873   19.0066 C   0  0  0  0  0  0  0  0  0  0  0  0
   78.8742  149.7906   18.8667 C   0  0  0  0  0  0  0  0  0  0  0  0
   78.6963  148.6438   19.3586 O   0  0  0  0  0  0  0  0  0  0  0  0
   77.7856  150.7009   18.9137 N   0  0  0  0  0  0  0  0  0  0  0  0
   77.8743  151.6086   18.5429 H   0  0  0  0  0  0  0  0  0  0  0  0
   76.5450  150.2696   19.5161 C   0  0  0  0  0  0  0  0  0  0  0  0
   76.3943  150.7868   20.8941 C   0  0  0  0  0  0  0  0  0  0  0  0
   75.3800  150.7953   18.6965 C   0  0  0  0  0  0  0  0  0  0  0  0
   76.6052  150.0278   21.8681 O   0  0  0  0  0  0  0  0  0  0  0  0
   76.0114  152.1407   21.0651 N   0  0  0  0  0  0  0  0  0  0  0  0
   75.3887  152.3078   18.6205 C   0  0  0  0  0  0  0  0  0  0  0  0
   75.5553  152.9264   19.9569 C   0  0  0  0  0  0  0  0  0  0  0  0
   75.2993  154.1354   20.1240 O   0  0  0  0  0  0  0  0  0  0  0  0
   76.0595  152.5481   21.9601 H   0  0  0  0  0  0  0  0  0  0  0  0
  2  3  2  0
  2  4  2  0
  2  5  1  0
  2  6  1  0
  5  7  1  0
  5  1  1  0
  6  8  1  0
  7  9  1  0
  1 21  1  0
  8 10  1  0
  9 10  1  0
 21 22  2  0
 21 23  1  0
 10 11  1  0
 22 24  1  0
 23 25  2  0
 11 12  2  0
 11 13  1  0
 24 27  1  0
 24 26  2  0
 25 26  1  0
 13 14  1  0
 27 28  2  0
 27 29  1  0
 14 15  1  0
 29 30  1  0
 15 16  2  0
 15 17  1  0
 31 29  1  0
 31 32  1  0
 31 33  1  0
 16 18  1  0
 17 19  2  0
 32 34  2  0
 32 35  1  0
 33 36  1  0
 18 20  2  0
 19 20  1  0
 35 37  1  0
 35 39  1  0
 36 37  1  0
 37 38  2  0
M  END
> <Molecule Name>
Compound 10

> <EC50 (µM) (Excel)>
14.3

> <Error (µM)>
1.3

> <HTRC CRBN-DDB1 EC50 (µM)>
14.29 ±  1.32

> <EC50 fitting (µM)>
23.96

> <Modèle Fitting>
3PL

> <Parent_Compound>
Compound 10

> <MMFF94s_energy_kcalmol>
145.091
$$$$
