Compound_1_ent1


 35 37  0  0  0  0  0  0  0  0999 V2000
   82.8192  150.3899   16.3773 N   0  0  0  0  0  0  0  0  0  0  0  0
   81.8565  149.6036   15.7398 C   0  0  0  0  0  0  0  0  0  0  0  0
   82.4841  151.0697   17.5529 C   0  0  0  0  0  0  0  0  0  0  0  0
   81.1981  148.5527   16.5913 C   0  0  0  0  0  0  0  0  0  0  0  0
   82.1967  150.1921   18.7450 C   0  0  0  0  0  0  0  0  0  0  0  0
   80.3472  149.0552   17.6157 N   0  0  0  0  0  0  0  0  0  0  0  0
   80.7117  149.8102   18.7867 C   0  0  0  0  0  0  0  0  0  0  0  0
   78.9704  148.7880   17.4830 C   0  0  0  0  0  0  0  0  0  0  0  0
   78.4741  148.1406   16.5239 O   0  0  0  0  0  0  0  0  0  0  0  0
   82.6921  151.2066   15.7796 H   0  0  0  0  0  0  0  0  0  0  0  0
   80.8362  150.4466   15.0887 C   0  0  0  0  0  0  0  0  0  0  0  0
   80.0509  150.0115   14.2014 O   0  0  0  0  0  0  0  0  0  0  0  0
   80.6995  151.7777   15.4355 O   0  0  0  0  0  0  0  0  0  0  0  0
   81.3864  152.8333   14.8032 C   0  0  0  0  0  0  0  0  0  0  0  0
   84.1759  150.1761   16.0725 C   0  0  0  0  0  0  0  0  0  0  0  0
   85.2068  152.9003   13.6451 C   0  0  0  0  0  0  0  0  0  0  0  0
   84.8768  152.2143   14.7877 C   0  0  0  0  0  0  0  0  0  0  0  0
   85.1731  152.1616   12.4589 C   0  0  0  0  0  0  0  0  0  0  0  0
   84.5235  150.8591   14.7970 C   0  0  0  0  0  0  0  0  0  0  0  0
   84.8350  150.8285   12.4022 C   0  0  0  0  0  0  0  0  0  0  0  0
   84.5164  150.2088   13.5850 C   0  0  0  0  0  0  0  0  0  0  0  0
   86.8595  154.2067   11.6660 O   0  0  0  0  0  0  0  0  0  0  0  0
   86.1372  154.8495   12.4832 C   0  0  0  0  0  0  0  0  0  0  0  0
   85.5416  154.3026   13.6247 N   0  0  0  0  0  0  0  0  0  0  0  0
   85.9166  156.2534   12.2140 N   0  0  0  0  0  0  0  0  0  0  0  0
   85.1999  155.0563   14.8118 C   0  0  0  0  0  0  0  0  0  0  0  0
   85.1018  156.9142   13.1746 C   0  0  0  0  0  0  0  0  0  0  0  0
   85.1023  156.5415   14.5991 C   0  0  0  0  0  0  0  0  0  0  0  0
   84.3606  157.8448   12.7908 O   0  0  0  0  0  0  0  0  0  0  0  0
   86.2983  156.7130   11.4315 H   0  0  0  0  0  0  0  0  0  0  0  0
   78.0913  149.2502   18.4444 O   0  0  0  0  0  0  0  0  0  0  0  0
   77.4405  148.4343   19.3792 C   0  0  0  0  0  0  0  0  0  0  0  0
   78.1835  147.1268   19.4846 C   0  0  0  0  0  0  0  0  0  0  0  0
   76.0215  148.2155   18.8868 C   0  0  0  0  0  0  0  0  0  0  0  0
   77.3708  149.1326   20.7388 C   0  0  0  0  0  0  0  0  0  0  0  0
 22 23  2  0
 23 24  1  0
 23 25  1  0
 24 16  1  0
 24 26  1  0
 25 27  1  0
 25 30  1  0
 16 17  2  0
 16 18  1  0
 26 28  1  0
 27 29  2  0
 27 28  1  0
 17 19  1  0
 18 20  2  0
 19 21  2  0
 19 15  1  0
 20 21  1  0
 15  1  1  0
  1  2  1  0
  1  3  1  0
  1 10  1  0
  2 11  1  0
  2  4  1  0
  3  5  1  0
 11 12  2  0
 11 13  1  0
  4  6  1  0
  5  7  1  0
 13 14  1  0
  6  8  1  0
  6  7  1  0
  8  9  2  0
  8 31  1  0
 31 32  1  0
 32 33  1  0
 32 34  1  0
 32 35  1  0
M  CHG 1   1   1
M  END
> <Molecule Name>
Compound 1

> <EC50 (µM) (Excel)>
49.5

> <Error (µM)>
6.2

> <HTRC CRBN-DDB1 EC50 (µM)>
49.46 ±  6.19

> <EC50 fitting (µM)>
60.01

> <Modèle Fitting>
3PL

> <Parent_Compound>
Compound 1

> <MMFF94s_energy_kcalmol>
189.703
$$$$
