Compound_10_ent1
 OpenBabel09072607323D

 65 68  0  0  0  0  0  0  0  0999 V2000
   -0.0457    0.6588    0.6214 S   0  0  0  0  0  0  0  0  0  0  0  0
   -0.8371    1.6343   -0.2184 O   0  0  0  0  0  0  0  0  0  0  0  0
   -1.0248    0.1603    1.6847 O   0  0  0  0  0  0  0  0  0  0  0  0
    0.4314   -0.6500   -0.3130 N   0  0  0  0  0  0  0  0  0  0  0  0
    1.2243    1.5592    1.4234 C   0  0  0  0  0  0  0  0  0  0  0  0
    1.7789   -0.7550   -0.7152 C   0  0  0  0  0  0  0  0  0  0  0  0
   -0.3527   -1.8279   -0.2615 C   0  0  0  0  0  0  0  0  0  0  0  0
    2.5152    1.6466    0.6668 C   0  0  0  0  0  0  0  0  0  0  0  0
    2.7850   -0.8867    0.4074 C   0  0  0  0  0  0  0  0  0  0  0  0
   -1.4452   -1.8648   -1.2684 C   0  0  0  0  0  0  0  0  0  0  0  0
    3.2790    0.4242    0.7286 N   0  0  0  0  0  0  0  0  0  0  0  0
   -2.7081   -1.3662   -0.9908 C   0  0  0  0  0  0  0  0  0  0  0  0
   -1.1533   -2.4114   -2.4996 C   0  0  0  0  0  0  0  0  0  0  0  0
    4.6329    0.4755    1.1376 C   0  0  0  0  0  0  0  0  0  0  0  0
   -3.7300   -1.3922   -1.9286 C   0  0  0  0  0  0  0  0  0  0  0  0
   -2.1575   -2.4454   -3.4439 C   0  0  0  0  0  0  0  0  0  0  0  0
    5.2994   -0.5799    1.1913 O   0  0  0  0  0  0  0  0  0  0  0  0
    5.2918    1.7603    1.5086 C   0  0  0  0  0  0  0  0  0  0  0  0
   -5.0604   -0.8778   -1.6632 C   0  0  0  0  0  0  0  0  0  0  0  0
   -3.4077   -1.9450   -3.1509 C   0  0  0  0  0  0  0  0  0  0  0  0
    6.6351    1.5869    1.8318 O   0  0  0  0  0  0  0  0  0  0  0  0
   -5.9039   -0.9195   -2.5990 O   0  0  0  0  0  0  0  0  0  0  0  0
   -5.4904   -0.3344   -0.4435 N   0  0  0  0  0  0  0  0  0  0  0  0
    7.6365    1.1172    1.0100 C   0  0  0  0  0  0  0  0  0  0  0  0
   -6.8186    0.1772   -0.1864 C   0  0  2  0  0  0  0  0  0  0  0  0
    7.4833    0.7432   -0.2981 C   0  0  0  0  0  0  0  0  0  0  0  0
    8.9184    1.0118    1.5570 C   0  0  0  0  0  0  0  0  0  0  0  0
   -6.8090    1.5589    0.3352 C   0  0  0  0  0  0  0  0  0  0  0  0
   -7.4700   -0.6974    0.8622 C   0  0  0  0  0  0  0  0  0  0  0  0
    8.5552    0.2840   -1.0323 C   0  0  0  0  0  0  0  0  0  0  0  0
    9.9916    0.5536    0.8269 C   0  0  0  0  0  0  0  0  0  0  0  0
   -5.7867    2.2852    0.4297 O   0  0  0  0  0  0  0  0  0  0  0  0
   -8.0706    2.0824    0.7568 N   0  0  0  0  0  0  0  0  0  0  0  0
   -8.8203   -0.2331    1.2832 C   0  0  0  0  0  0  0  0  0  0  0  0
    9.8288    0.1787   -0.4892 C   0  0  0  0  0  0  0  0  0  0  0  0
   -9.1458    1.1601    0.8955 C   0  0  0  0  0  0  0  0  0  0  0  0
  -10.3172    1.5616    0.6854 O   0  0  0  0  0  0  0  0  0  0  0  0
    1.4221    1.0880    2.3635 H   0  0  0  0  0  0  0  0  0  0  0  0
    0.8650    2.5627    1.5176 H   0  0  0  0  0  0  0  0  0  0  0  0
    2.0246    0.1219   -1.2770 H   0  0  0  0  0  0  0  0  0  0  0  0
    1.8475   -1.6617   -1.2793 H   0  0  0  0  0  0  0  0  0  0  0  0
   -0.7891   -1.9005    0.7128 H   0  0  0  0  0  0  0  0  0  0  0  0
    0.3002   -2.6471   -0.4794 H   0  0  0  0  0  0  0  0  0  0  0  0
    3.1025    2.4389    1.0818 H   0  0  0  0  0  0  0  0  0  0  0  0
    2.2768    1.8279   -0.3604 H   0  0  0  0  0  0  0  0  0  0  0  0
    3.5953   -1.5119    0.0952 H   0  0  0  0  0  0  0  0  0  0  0  0
    2.3226   -1.3265    1.2663 H   0  0  0  0  0  0  0  0  0  0  0  0
   -2.8938   -0.9637   -0.0589 H   0  0  0  0  0  0  0  0  0  0  0  0
   -0.2134   -2.7832   -2.7080 H   0  0  0  0  0  0  0  0  0  0  0  0
   -1.9717   -2.8480   -4.3758 H   0  0  0  0  0  0  0  0  0  0  0  0
    4.7847    2.1764    2.3539 H   0  0  0  0  0  0  0  0  0  0  0  0
    5.2385    2.4137    0.6629 H   0  0  0  0  0  0  0  0  0  0  0  0
   -4.1370   -1.9857   -3.8799 H   0  0  0  0  0  0  0  0  0  0  0  0
   -4.8386   -0.2985    0.2935 H   0  0  0  0  0  0  0  0  0  0  0  0
   -7.3478    0.1732   -1.1164 H   0  0  0  0  0  0  0  0  0  0  0  0
    6.5528    0.8060   -0.7401 H   0  0  0  0  0  0  0  0  0  0  0  0
    9.0651    1.2866    2.5409 H   0  0  0  0  0  0  0  0  0  0  0  0
   -6.8369   -0.7173    1.7246 H   0  0  0  0  0  0  0  0  0  0  0  0
   -7.5979   -1.6647    0.4230 H   0  0  0  0  0  0  0  0  0  0  0  0
    8.4068    0.0099   -2.0161 H   0  0  0  0  0  0  0  0  0  0  0  0
   10.9228    0.4905    1.2673 H   0  0  0  0  0  0  0  0  0  0  0  0
   -8.1908    3.0415    0.9436 H   0  0  0  0  0  0  0  0  0  0  0  0
   -8.8799   -0.3049    2.3491 H   0  0  0  0  0  0  0  0  0  0  0  0
   -9.5259   -0.8596    0.7786 H   0  0  0  0  0  0  0  0  0  0  0  0
   10.6232   -0.1672   -1.0498 H   0  0  0  0  0  0  0  0  0  0  0  0
  1  2  2  0  0  0  0
  1  3  2  0  0  0  0
  1  4  1  0  0  0  0
  1  5  1  0  0  0  0
  4  6  1  0  0  0  0
  4  7  1  0  0  0  0
  5  8  1  0  0  0  0
  5 38  1  0  0  0  0
  5 39  1  0  0  0  0
  6  9  1  0  0  0  0
  6 40  1  0  0  0  0
  6 41  1  0  0  0  0
  7 10  1  0  0  0  0
  7 42  1  0  0  0  0
  7 43  1  0  0  0  0
  8 11  1  0  0  0  0
  8 44  1  0  0  0  0
  8 45  1  0  0  0  0
  9 11  1  0  0  0  0
  9 46  1  0  0  0  0
  9 47  1  0  0  0  0
 10 12  2  0  0  0  0
 10 13  1  0  0  0  0
 11 14  1  0  0  0  0
 12 15  1  0  0  0  0
 12 48  1  0  0  0  0
 13 16  2  0  0  0  0
 13 49  1  0  0  0  0
 14 17  2  0  0  0  0
 14 18  1  0  0  0  0
 15 19  1  0  0  0  0
 15 20  2  0  0  0  0
 16 20  1  0  0  0  0
 16 50  1  0  0  0  0
 18 21  1  0  0  0  0
 18 51  1  0  0  0  0
 18 52  1  0  0  0  0
 19 22  2  0  0  0  0
 19 23  1  0  0  0  0
 20 53  1  0  0  0  0
 21 24  1  0  0  0  0
 23 54  1  0  0  0  0
 24 26  2  0  0  0  0
 24 27  1  0  0  0  0
 25 23  1  0  0  0  0
 25 28  1  0  0  0  0
 25 29  1  0  0  0  0
 25 55  1  6  0  0  0
 26 30  1  0  0  0  0
 26 56  1  0  0  0  0
 27 31  2  0  0  0  0
 27 57  1  0  0  0  0
 28 32  2  0  0  0  0
 28 33  1  0  0  0  0
 29 34  1  0  0  0  0
 29 58  1  0  0  0  0
 29 59  1  0  0  0  0
 30 35  2  0  0  0  0
 30 60  1  0  0  0  0
 31 35  1  0  0  0  0
 31 61  1  0  0  0  0
 33 36  1  0  0  0  0
 33 62  1  0  0  0  0
 34 36  1  0  0  0  0
 34 63  1  0  0  0  0
 34 64  1  0  0  0  0
 35 65  1  0  0  0  0
 36 37  2  0  0  0  0
M  END
>  <Molecule Name>
Compound 10

>  <EC50 (µM) (Excel)>
14.3

>  <Error (µM)>
1.3

>  <HTRC CRBN-DDB1 EC50 (µM)>
14.29 ±  1.32

>  <EC50 fitting (µM)>
23.96

>  <Modèle Fitting>
3PL

>  <Parent_Compound>
Compound 10

>  <MMFF94s_energy_kcalmol>
144.245
$$$$
