Compound_4_s8


 31 34  0  0  0  0  0  0  0  0999 V2000
   84.3676  154.8764   14.3062 C   0  0  0  0  0  0  0  0  0  0  0  0
   85.0701  153.6869   14.4213 C   0  0  0  0  0  0  0  0  0  0  0  0
   82.9943  154.7512   14.2636 C   0  0  0  0  0  0  0  0  0  0  0  0
   84.4612  152.4396   14.4919 C   0  0  0  0  0  0  0  0  0  0  0  0
   82.3571  153.5131   14.3321 C   0  0  0  0  0  0  0  0  0  0  0  0
   83.0829  152.3575   14.4461 C   0  0  0  0  0  0  0  0  0  0  0  0
   84.9443  151.0411   14.6142 C   0  0  0  0  0  0  0  0  0  0  0  0
   82.7435  150.9046   14.5431 C   0  0  0  0  0  0  0  0  0  0  0  0
   83.8526  150.4812   15.3969 N   0  0  0  0  0  0  0  0  0  0  0  0
   84.6623  150.3869   13.2813 C   0  0  0  0  0  0  0  0  0  0  0  0
   83.1439  150.2343   13.2493 C   0  0  0  0  0  0  0  0  0  0  0  0
   83.8550  149.7532   16.6071 C   0  0  0  0  0  0  0  0  0  0  0  0
   85.2997  149.1654   13.1471 O   0  0  0  0  0  0  0  0  0  0  0  0
   82.5857  150.8251   12.1368 O   0  0  0  0  0  0  0  0  0  0  0  0
   84.9608  149.5088   17.1630 O   0  0  0  0  0  0  0  0  0  0  0  0
   85.0125  148.5710   13.8579 H   0  0  0  0  0  0  0  0  0  0  0  0
   82.8359  151.7619   12.1083 H   0  0  0  0  0  0  0  0  0  0  0  0
   85.8212  156.0155   12.0751 O   0  0  0  0  0  0  0  0  0  0  0  0
   85.4733  156.7144   13.0413 C   0  0  0  0  0  0  0  0  0  0  0  0
   85.0307  156.1288   14.2599 N   0  0  0  0  0  0  0  0  0  0  0  0
   85.5074  158.1495   12.9640 N   0  0  0  0  0  0  0  0  0  0  0  0
   85.2787  156.9299   15.4414 C   0  0  0  0  0  0  0  0  0  0  0  0
   85.1089  158.9325   14.0803 C   0  0  0  0  0  0  0  0  0  0  0  0
   84.5335  158.2545   15.2592 C   0  0  0  0  0  0  0  0  0  0  0  0
   85.2712  160.1745   13.9990 O   0  0  0  0  0  0  0  0  0  0  0  0
   85.8074  158.5903   12.1363 H   0  0  0  0  0  0  0  0  0  0  0  0
   82.7233  149.2915   17.2213 O   0  0  0  0  0  0  0  0  0  0  0  0
   81.9409  150.0118   18.1279 C   0  0  0  0  0  0  0  0  0  0  0  0
   81.2262  149.1178   19.1191 C   0  0  0  0  0  0  0  0  0  0  0  0
   80.9696  150.9526   17.4383 C   0  0  0  0  0  0  0  0  0  0  0  0
   82.8863  150.8907   18.9491 C   0  0  0  0  0  0  0  0  0  0  0  0
 18 19  2  0
 19 20  1  0
 19 21  1  0
 20  1  1  0
 20 22  1  0
 21 23  1  0
 21 26  1  0
  1  2  2  0
  1  3  1  0
 22 24  1  0
 23 25  2  0
 23 24  1  0
  2  4  1  0
  3  5  2  0
  4  6  2  0
  5  6  1  0
  7  4  1  0
  7  9  1  0
  7 10  1  0
  8  6  1  0
  8 11  1  0
  8  9  1  0
  9 12  1  0
 10 13  1  0
 10 11  1  0
 11 14  1  0
 12 15  2  0
 12 27  1  0
 13 16  1  0
 14 17  1  0
 27 28  1  0
 28 29  1  0
 28 30  1  0
 28 31  1  0
M  END
> <Molecule Name>
Compound 4

> <EC50 (µM) (Excel)>
11.8

> <Error (µM)>
7.4

> <HTRC CRBN-DDB1 EC50 (µM)>
11.78 ±  7.41

> <EC50 fitting (µM)>
15.10

> <Modèle Fitting>
4PL

> <Parent_Compound>
Compound 4

> <MMFF94s_energy_kcalmol>
162.344
$$$$
