Compound_4_s1
 OpenBabel09072607323D

 51 54  0  0  0  0  0  0  0  0999 V2000
   -3.2183   -0.8566    2.9815 O   0  0  0  0  0  0  0  0  0  0  0  0
   -4.2288   -0.5280    2.3030 C   0  0  0  0  0  0  0  0  0  0  0  0
   -4.1290   -0.3583    0.9042 N   0  0  0  0  0  0  0  0  0  0  0  0
   -5.4864   -0.3222    2.9330 N   0  0  0  0  0  0  0  0  0  0  0  0
   -2.8737    0.0484    0.3266 C   0  0  0  0  0  0  0  0  0  0  0  0
   -5.2952   -0.5985    0.0842 C   0  0  0  0  0  0  0  0  0  0  0  0
   -6.5890    0.0480    2.1079 C   0  0  0  0  0  0  0  0  0  0  0  0
   -1.9552   -0.9063   -0.0660 C   0  0  0  0  0  0  0  0  0  0  0  0
   -2.6153    1.3856    0.1776 C   0  0  0  0  0  0  0  0  0  0  0  0
   -6.4525    0.1763    0.6415 C   0  0  0  0  0  0  0  0  0  0  0  0
   -7.6852    0.2652    2.6484 O   0  0  0  0  0  0  0  0  0  0  0  0
   -0.7596   -0.5674   -0.6149 C   0  0  0  0  0  0  0  0  0  0  0  0
   -1.3933    1.7353   -0.3835 C   0  0  0  0  0  0  0  0  0  0  0  0
   -0.4808    0.7820   -0.7733 C   0  0  0  0  0  0  0  0  0  0  0  0
    0.4405   -1.2846   -1.1422 C   0  0  2  0  0  0  0  0  0  0  0  0
    0.8616    0.8682   -1.3806 C   0  0  1  0  0  0  0  0  0  0  0  0
    1.4719   -0.3207   -0.7997 N   0  0  0  0  0  0  0  0  0  0  0  0
    0.4018   -1.0894   -2.6403 C   0  0  1  0  0  0  0  0  0  0  0  0
    0.7137    0.3981   -2.8123 C   0  0  2  0  0  0  0  0  0  0  0  0
    2.6915   -0.4176   -0.1288 C   0  0  0  0  0  0  0  0  0  0  0  0
    1.4016   -1.8833   -3.1904 O   0  0  0  0  0  0  0  0  0  0  0  0
    1.9551    0.5292   -3.4209 O   0  0  0  0  0  0  0  0  0  0  0  0
    3.1669   -1.4733    0.3516 O   0  0  0  0  0  0  0  0  0  0  0  0
    3.4575    0.7306    0.0327 O   0  0  0  0  0  0  0  0  0  0  0  0
    4.6936    0.7641    0.6843 C   0  0  0  0  0  0  0  0  0  0  0  0
    4.6160    0.3195    2.1288 C   0  0  0  0  0  0  0  0  0  0  0  0
    5.7586   -0.0401   -0.0159 C   0  0  0  0  0  0  0  0  0  0  0  0
    5.1659    2.2229    0.6654 C   0  0  0  0  0  0  0  0  0  0  0  0
   -5.5925   -0.4315    3.9056 H   0  0  0  0  0  0  0  0  0  0  0  0
   -5.5276   -1.6430    0.0883 H   0  0  0  0  0  0  0  0  0  0  0  0
   -5.1012   -0.2857   -0.9205 H   0  0  0  0  0  0  0  0  0  0  0  0
   -2.1838   -1.9046    0.0613 H   0  0  0  0  0  0  0  0  0  0  0  0
   -3.2985    2.1019    0.4694 H   0  0  0  0  0  0  0  0  0  0  0  0
   -7.3518   -0.1800    0.1841 H   0  0  0  0  0  0  0  0  0  0  0  0
   -6.2745    1.2097    0.4286 H   0  0  0  0  0  0  0  0  0  0  0  0
   -1.1646    2.7335   -0.5109 H   0  0  0  0  0  0  0  0  0  0  0  0
    0.5353   -2.3008   -0.8207 H   0  0  0  0  0  0  0  0  0  0  0  0
    1.3351    1.8215   -1.2716 H   0  0  0  0  0  0  0  0  0  0  0  0
   -0.5220   -1.3545   -3.1107 H   0  0  0  0  0  0  0  0  0  0  0  0
   -0.0180    0.9254   -3.3880 H   0  0  0  0  0  0  0  0  0  0  0  0
    2.2523   -1.6625   -2.7800 H   0  0  0  0  0  0  0  0  0  0  0  0
    2.6216    0.0524   -2.9019 H   0  0  0  0  0  0  0  0  0  0  0  0
    4.2879   -0.6981    2.1716 H   0  0  0  0  0  0  0  0  0  0  0  0
    3.9224    0.9404    2.6563 H   0  0  0  0  0  0  0  0  0  0  0  0
    5.5828    0.4018    2.5797 H   0  0  0  0  0  0  0  0  0  0  0  0
    5.4752   -1.0718   -0.0297 H   0  0  0  0  0  0  0  0  0  0  0  0
    6.6871    0.0678    0.5048 H   0  0  0  0  0  0  0  0  0  0  0  0
    5.8696    0.3127   -1.0199 H   0  0  0  0  0  0  0  0  0  0  0  0
    4.4401    2.8391    1.1536 H   0  0  0  0  0  0  0  0  0  0  0  0
    5.2848    2.5462   -0.3476 H   0  0  0  0  0  0  0  0  0  0  0  0
    6.1024    2.3013    1.1771 H   0  0  0  0  0  0  0  0  0  0  0  0
  1  2  2  0  0  0  0
  2  3  1  0  0  0  0
  2  4  1  0  0  0  0
  3  5  1  0  0  0  0
  3  6  1  0  0  0  0
  4  7  1  0  0  0  0
  4 29  1  0  0  0  0
  5  8  2  0  0  0  0
  5  9  1  0  0  0  0
  6 10  1  0  0  0  0
  6 30  1  0  0  0  0
  6 31  1  0  0  0  0
  7 11  2  0  0  0  0
  7 10  1  0  0  0  0
  8 12  1  0  0  0  0
  8 32  1  0  0  0  0
  9 13  2  0  0  0  0
  9 33  1  0  0  0  0
 10 34  1  0  0  0  0
 10 35  1  0  0  0  0
 12 14  2  0  0  0  0
 13 14  1  0  0  0  0
 13 36  1  0  0  0  0
 15 12  1  0  0  0  0
 15 17  1  0  0  0  0
 15 18  1  0  0  0  0
 15 37  1  1  0  0  0
 16 14  1  0  0  0  0
 16 19  1  0  0  0  0
 16 17  1  0  0  0  0
 16 38  1  1  0  0  0
 17 20  1  0  0  0  0
 18 21  1  0  0  0  0
 18 19  1  0  0  0  0
 18 39  1  6  0  0  0
 19 22  1  0  0  0  0
 19 40  1  6  0  0  0
 20 23  2  0  0  0  0
 20 24  1  0  0  0  0
 21 41  1  0  0  0  0
 22 42  1  0  0  0  0
 24 25  1  0  0  0  0
 25 26  1  0  0  0  0
 25 27  1  0  0  0  0
 25 28  1  0  0  0  0
 26 43  1  0  0  0  0
 26 44  1  0  0  0  0
 26 45  1  0  0  0  0
 27 46  1  0  0  0  0
 27 47  1  0  0  0  0
 27 48  1  0  0  0  0
 28 49  1  0  0  0  0
 28 50  1  0  0  0  0
 28 51  1  0  0  0  0
M  END
>  <Molecule Name>
Compound 4

>  <EC50 (µM) (Excel)>
11.8

>  <Error (µM)>
7.4

>  <HTRC CRBN-DDB1 EC50 (µM)>
11.78 ±  7.41

>  <EC50 fitting (µM)>
15.10

>  <Modèle Fitting>
4PL

>  <Parent_Compound>
Compound 4

>  <MMFF94s_energy_kcalmol>
171.662
$$$$
