Compound_7_ent1


 36 38  0  0  0  0  0  0  0  0999 V2000
   86.8801  150.9519   12.4694 C   0  0  0  0  0  0  0  0  0  0  0  0
   86.2652  152.1383   12.7961 C   0  0  0  0  0  0  0  0  0  0  0  0
   87.8732  150.9794   11.5247 C   0  0  0  0  0  0  0  0  0  0  0  0
   86.5820  153.3394   12.2379 C   0  0  0  0  0  0  0  0  0  0  0  0
   88.2477  152.1693   10.9125 C   0  0  0  0  0  0  0  0  0  0  0  0
   87.5979  153.3195   11.2803 C   0  0  0  0  0  0  0  0  0  0  0  0
   85.9959  154.6237   12.5615 C   0  0  0  0  0  0  0  0  0  0  0  0
   86.6346  155.6859   12.4007 O   0  0  0  0  0  0  0  0  0  0  0  0
   84.6655  154.6957   13.0794 N   0  0  0  0  0  0  0  0  0  0  0  0
   84.1574  153.8626   13.2097 H   0  0  0  0  0  0  0  0  0  0  0  0
   84.0336  155.9796   13.4235 C   0  0  0  0  0  0  0  0  0  0  0  0
   84.3142  156.9776   12.3716 C   0  0  0  0  0  0  0  0  0  0  0  0
   84.3242  156.4100   14.8122 C   0  0  0  0  0  0  0  0  0  0  0  0
   84.1826  156.6124   11.1755 O   0  0  0  0  0  0  0  0  0  0  0  0
   84.7138  158.2895   12.6385 N   0  0  0  0  0  0  0  0  0  0  0  0
   85.3194  157.5389   14.9089 C   0  0  0  0  0  0  0  0  0  0  0  0
   85.0273  158.6486   13.9865 C   0  0  0  0  0  0  0  0  0  0  0  0
   85.0334  159.8658   14.2867 O   0  0  0  0  0  0  0  0  0  0  0  0
   84.7780  158.9527   11.9137 H   0  0  0  0  0  0  0  0  0  0  0  0
   86.4748  149.7070   13.1037 C   0  0  0  0  0  0  0  0  0  0  0  0
   86.0470  150.5403   15.6131 S   0  0  0  0  0  0  0  0  0  0  0  0
   87.4853  150.4027   15.9548 O   0  0  0  0  0  0  0  0  0  0  0  0
   85.2876  149.8718   16.7616 O   0  0  0  0  0  0  0  0  0  0  0  0
   85.5947  149.7934   14.1898 N   0  0  0  0  0  0  0  0  0  0  0  0
   85.5825  152.2621   15.6921 C   0  0  0  0  0  0  0  0  0  0  0  0
   84.2134  149.5995   13.9834 C   0  0  0  0  0  0  0  0  0  0  0  0
   84.0915  152.3996   15.9766 C   0  0  0  0  0  0  0  0  0  0  0  0
   83.5472  150.9622   13.8981 C   0  0  0  0  0  0  0  0  0  0  0  0
   83.3418  151.3838   15.2669 N   0  0  0  0  0  0  0  0  0  0  0  0
   82.3030  150.7155   15.9589 C   0  0  0  0  0  0  0  0  0  0  0  0
   81.5871  149.8222   15.4473 O   0  0  0  0  0  0  0  0  0  0  0  0
   82.0223  151.0355   17.2984 O   0  0  0  0  0  0  0  0  0  0  0  0
   81.9312  150.0251   18.2808 C   0  0  0  0  0  0  0  0  0  0  0  0
   80.5141  149.7999   18.7576 C   0  0  0  0  0  0  0  0  0  0  0  0
   82.5272  148.7273   17.7634 C   0  0  0  0  0  0  0  0  0  0  0  0
   82.8221  150.4858   19.4316 C   0  0  0  0  0  0  0  0  0  0  0  0
 21 22  2  0
 21 23  2  0
 21 24  1  0
 21 25  1  0
 24 26  1  0
 24 20  1  0
 25 27  1  0
 26 28  1  0
 20  1  1  0
 27 29  1  0
 28 29  1  0
  1  2  2  0
  1  3  1  0
 29 30  1  0
  2  4  1  0
  3  5  2  0
 30 31  2  0
 30 32  1  0
  4  7  1  0
  4  6  2  0
  5  6  1  0
 32 33  1  0
  7  8  2  0
  7  9  1  0
 33 34  1  0
 33 35  1  0
 33 36  1  0
  9 10  1  0
 11  9  1  0
 11 12  1  0
 11 13  1  0
 12 14  2  0
 12 15  1  0
 13 16  1  0
 15 17  1  0
 15 19  1  0
 16 17  1  0
 17 18  2  0
M  END
> <Molecule Name>
Compound 7

> <EC50 (µM) (Excel)>
4.1

> <Error (µM)>
0.2

> <HTRC CRBN-DDB1 EC50 (µM)>
4.06 ±  0.18

> <EC50 fitting (µM)>
3.77

> <Modèle Fitting>
4PL

> <Parent_Compound>
Compound 7

> <MMFF94s_energy_kcalmol>
145.431
$$$$

> <minimizedAffinity>
-8.28647

> <CNNscore>
0.8966264725

> <CNNaffinity>
6.8690581322

> <CNN_VS>
6.1589794159

> <CNNaffinity_variance>
0.3007564545

$$$$
Compound_7_ent1


 36 38  0  0  0  0  0  0  0  0999 V2000
   84.3920  150.3888   15.0830 C   0  0  0  0  0  0  0  0  0  0  0  0
   84.1079  151.7321   14.9979 C   0  0  0  0  0  0  0  0  0  0  0  0
   85.6591  149.9763   14.7612 C   0  0  0  0  0  0  0  0  0  0  0  0
   85.0086  152.6782   14.6127 C   0  0  0  0  0  0  0  0  0  0  0  0
   86.6290  150.8865   14.3589 C   0  0  0  0  0  0  0  0  0  0  0  0
   86.2856  152.2125   14.2937 C   0  0  0  0  0  0  0  0  0  0  0  0
   84.7809  154.1064   14.5345 C   0  0  0  0  0  0  0  0  0  0  0  0
   85.3442  154.8959   15.3226 O   0  0  0  0  0  0  0  0  0  0  0  0
   83.8956  154.6392   13.5467 N   0  0  0  0  0  0  0  0  0  0  0  0
   83.4477  154.0225   12.9236 H   0  0  0  0  0  0  0  0  0  0  0  0
   83.6345  156.0832   13.4346 C   0  0  0  0  0  0  0  0  0  0  0  0
   84.4994  156.6726   12.3926 C   0  0  0  0  0  0  0  0  0  0  0  0
   83.6466  156.7737   14.7466 C   0  0  0  0  0  0  0  0  0  0  0  0
   84.5983  156.0537   11.3023 O   0  0  0  0  0  0  0  0  0  0  0  0
   85.2034  157.8680   12.5584 N   0  0  0  0  0  0  0  0  0  0  0  0
   84.8798  157.6068   14.9899 C   0  0  0  0  0  0  0  0  0  0  0  0
   85.2250  158.4756   13.8525 C   0  0  0  0  0  0  0  0  0  0  0  0
   85.5331  159.6884   13.9299 O   0  0  0  0  0  0  0  0  0  0  0  0
   85.6747  158.2831   11.8002 H   0  0  0  0  0  0  0  0  0  0  0  0
   83.3689  149.4387   15.4918 C   0  0  0  0  0  0  0  0  0  0  0  0
   80.9673  149.7279   14.3414 S   0  0  0  0  0  0  0  0  0  0  0  0
   81.5702  149.7840   12.9858 O   0  0  0  0  0  0  0  0  0  0  0  0
   79.9774  150.8939   14.3978 O   0  0  0  0  0  0  0  0  0  0  0  0
   82.0545  149.9112   15.5955 N   0  0  0  0  0  0  0  0  0  0  0  0
   79.9611  148.2600   14.4808 C   0  0  0  0  0  0  0  0  0  0  0  0
   81.5176  150.2014   16.8665 C   0  0  0  0  0  0  0  0  0  0  0  0
   78.8723  148.4576   15.5289 C   0  0  0  0  0  0  0  0  0  0  0  0
   80.6635  149.0238   17.3046 C   0  0  0  0  0  0  0  0  0  0  0  0
   79.3823  149.2076   16.6580 N   0  0  0  0  0  0  0  0  0  0  0  0
   78.5704  150.2335   17.1994 C   0  0  0  0  0  0  0  0  0  0  0  0
   78.9056  150.9453   18.1756 O   0  0  0  0  0  0  0  0  0  0  0  0
   77.3096  150.5086   16.6426 O   0  0  0  0  0  0  0  0  0  0  0  0
   76.1289  150.0275   17.2500 C   0  0  0  0  0  0  0  0  0  0  0  0
   75.2241  149.3052   16.2774 C   0  0  0  0  0  0  0  0  0  0  0  0
   76.4665  149.1273   18.4259 C   0  0  0  0  0  0  0  0  0  0  0  0
   75.4308  151.2560   17.8276 C   0  0  0  0  0  0  0  0  0  0  0  0
 21 22  2  0
 21 23  2  0
 21 24  1  0
 21 25  1  0
 24 26  1  0
 24 20  1  0
 25 27  1  0
 26 28  1  0
 20  1  1  0
 27 29  1  0
 28 29  1  0
  1  2  2  0
  1  3  1  0
 29 30  1  0
  2  4  1  0
  3  5  2  0
 30 31  2  0
 30 32  1  0
  4  7  1  0
  4  6  2  0
  5  6  1  0
 32 33  1  0
  7  8  2  0
  7  9  1  0
 33 34  1  0
 33 35  1  0
 33 36  1  0
  9 10  1  0
 11  9  1  0
 11 12  1  0
 11 13  1  0
 12 14  2  0
 12 15  1  0
 13 16  1  0
 15 17  1  0
 15 19  1  0
 16 17  1  0
 17 18  2  0
M  END
> <Molecule Name>
Compound 7

> <EC50 (µM) (Excel)>
4.1

> <Error (µM)>
0.2

> <HTRC CRBN-DDB1 EC50 (µM)>
4.06 ±  0.18

> <EC50 fitting (µM)>
3.77

> <Modèle Fitting>
4PL

> <Parent_Compound>
Compound 7

> <MMFF94s_energy_kcalmol>
145.431
$$$$

> <minimizedAffinity>
-9.12692

> <CNNscore>
0.8138494492

> <CNNaffinity>
6.7428965569

> <CNN_VS>
5.4877028465

> <CNNaffinity_variance>
0.1343019307

$$$$
Compound_7_ent1


 36 38  0  0  0  0  0  0  0  0999 V2000
   84.1118  150.3498   16.0401 C   0  0  0  0  0  0  0  0  0  0  0  0
   83.6062  151.5484   15.5930 C   0  0  0  0  0  0  0  0  0  0  0  0
   85.4156  150.0487   15.7419 C   0  0  0  0  0  0  0  0  0  0  0  0
   84.3215  152.4551   14.8712 C   0  0  0  0  0  0  0  0  0  0  0  0
   86.2043  150.9264   15.0079 C   0  0  0  0  0  0  0  0  0  0  0  0
   85.6439  152.1062   14.5901 C   0  0  0  0  0  0  0  0  0  0  0  0
   83.8578  153.7441   14.4009 C   0  0  0  0  0  0  0  0  0  0  0  0
   82.6449  153.9577   14.1884 O   0  0  0  0  0  0  0  0  0  0  0  0
   84.7913  154.8009   14.1662 N   0  0  0  0  0  0  0  0  0  0  0  0
   85.7483  154.6388   14.3304 H   0  0  0  0  0  0  0  0  0  0  0  0
   84.3626  156.1244   13.6861 C   0  0  0  0  0  0  0  0  0  0  0  0
   85.4388  156.7435   12.8862 C   0  0  0  0  0  0  0  0  0  0  0  0
   83.7935  156.9704   14.7625 C   0  0  0  0  0  0  0  0  0  0  0  0
   86.0191  156.0207   12.0363 O   0  0  0  0  0  0  0  0  0  0  0  0
   85.8376  158.0750   13.0272 N   0  0  0  0  0  0  0  0  0  0  0  0
   84.7087  158.0781   15.2205 C   0  0  0  0  0  0  0  0  0  0  0  0
   85.2969  158.8407   14.1070 C   0  0  0  0  0  0  0  0  0  0  0  0
   85.3604  160.0906   14.0338 O   0  0  0  0  0  0  0  0  0  0  0  0
   86.4775  158.4777   12.3965 H   0  0  0  0  0  0  0  0  0  0  0  0
   83.2776  149.4287   16.7965 C   0  0  0  0  0  0  0  0  0  0  0  0
   80.7229  148.7896   17.2862 S   0  0  0  0  0  0  0  0  0  0  0  0
   81.0894  148.0865   18.5414 O   0  0  0  0  0  0  0  0  0  0  0  0
   79.7814  147.8381   16.5439 O   0  0  0  0  0  0  0  0  0  0  0  0
   82.0098  149.1338   16.2794 N   0  0  0  0  0  0  0  0  0  0  0  0
   79.7239  150.2163   17.6775 C   0  0  0  0  0  0  0  0  0  0  0  0
   81.7013  149.4868   14.9496 C   0  0  0  0  0  0  0  0  0  0  0  0
   78.8321  150.5826   16.4971 C   0  0  0  0  0  0  0  0  0  0  0  0
   80.9088  150.7829   14.9709 C   0  0  0  0  0  0  0  0  0  0  0  0
   79.5410  150.4007   15.2474 N   0  0  0  0  0  0  0  0  0  0  0  0
   78.8539  149.7841   14.1739 C   0  0  0  0  0  0  0  0  0  0  0  0
   79.3639  149.5768   13.0474 O   0  0  0  0  0  0  0  0  0  0  0  0
   77.5232  149.3605   14.3332 O   0  0  0  0  0  0  0  0  0  0  0  0
   77.0328  148.2351   13.6351 C   0  0  0  0  0  0  0  0  0  0  0  0
   75.6355  147.8459   14.0622 C   0  0  0  0  0  0  0  0  0  0  0  0
   77.0786  148.4793   12.1366 C   0  0  0  0  0  0  0  0  0  0  0  0
   78.0202  147.1071   13.9234 C   0  0  0  0  0  0  0  0  0  0  0  0
 21 22  2  0
 21 23  2  0
 21 24  1  0
 21 25  1  0
 24 26  1  0
 24 20  1  0
 25 27  1  0
 26 28  1  0
 20  1  1  0
 27 29  1  0
 28 29  1  0
  1  2  2  0
  1  3  1  0
 29 30  1  0
  2  4  1  0
  3  5  2  0
 30 31  2  0
 30 32  1  0
  4  7  1  0
  4  6  2  0
  5  6  1  0
 32 33  1  0
  7  8  2  0
  7  9  1  0
 33 34  1  0
 33 35  1  0
 33 36  1  0
  9 10  1  0
 11  9  1  0
 11 12  1  0
 11 13  1  0
 12 14  2  0
 12 15  1  0
 13 16  1  0
 15 17  1  0
 15 19  1  0
 16 17  1  0
 17 18  2  0
M  END
> <Molecule Name>
Compound 7

> <EC50 (µM) (Excel)>
4.1

> <Error (µM)>
0.2

> <HTRC CRBN-DDB1 EC50 (µM)>
4.06 ±  0.18

> <EC50 fitting (µM)>
3.77

> <Modèle Fitting>
4PL

> <Parent_Compound>
Compound 7

> <MMFF94s_energy_kcalmol>
145.431
$$$$

> <minimizedAffinity>
-8.71469

> <CNNscore>
0.7803680301

> <CNNaffinity>
6.5035920143

> <CNN_VS>
5.0751953125

> <CNNaffinity_variance>
0.1060209572

$$$$
Compound_7_ent1


 36 38  0  0  0  0  0  0  0  0999 V2000
   86.4554  150.5349   14.2170 C   0  0  0  0  0  0  0  0  0  0  0  0
   85.9400  151.7555   13.8472 C   0  0  0  0  0  0  0  0  0  0  0  0
   85.8571  149.8706   15.2562 C   0  0  0  0  0  0  0  0  0  0  0  0
   84.8714  152.3456   14.4510 C   0  0  0  0  0  0  0  0  0  0  0  0
   84.7632  150.4136   15.9193 C   0  0  0  0  0  0  0  0  0  0  0  0
   84.2948  151.6339   15.5047 C   0  0  0  0  0  0  0  0  0  0  0  0
   84.2636  153.6093   14.0885 C   0  0  0  0  0  0  0  0  0  0  0  0
   83.0465  153.6878   13.8160 O   0  0  0  0  0  0  0  0  0  0  0  0
   85.0566  154.7974   14.0323 N   0  0  0  0  0  0  0  0  0  0  0  0
   86.0163  154.7422   14.2446 H   0  0  0  0  0  0  0  0  0  0  0  0
   84.4793  156.1007   13.6661 C   0  0  0  0  0  0  0  0  0  0  0  0
   85.4205  156.8449   12.8049 C   0  0  0  0  0  0  0  0  0  0  0  0
   83.9511  156.8448   14.8347 C   0  0  0  0  0  0  0  0  0  0  0  0
   85.9719  156.2139   11.8673 O   0  0  0  0  0  0  0  0  0  0  0  0
   85.7235  158.1975   12.9804 N   0  0  0  0  0  0  0  0  0  0  0  0
   84.8148  158.0034   15.2655 C   0  0  0  0  0  0  0  0  0  0  0  0
   85.2300  158.8638   14.1453 C   0  0  0  0  0  0  0  0  0  0  0  0
   85.1863  160.1167   14.1343 O   0  0  0  0  0  0  0  0  0  0  0  0
   86.2653  158.6815   12.3160 H   0  0  0  0  0  0  0  0  0  0  0  0
   87.6092  149.9774   13.5281 C   0  0  0  0  0  0  0  0  0  0  0  0
   89.0791  151.2076   11.6571 S   0  0  0  0  0  0  0  0  0  0  0  0
   89.5594  152.2196   12.6316 O   0  0  0  0  0  0  0  0  0  0  0  0
   88.6457  152.0017   10.4225 O   0  0  0  0  0  0  0  0  0  0  0  0
   87.7736  150.3052   12.1763 N   0  0  0  0  0  0  0  0  0  0  0  0
   90.4572  150.2148   11.1079 C   0  0  0  0  0  0  0  0  0  0  0  0
   87.0702  149.5790   11.1936 C   0  0  0  0  0  0  0  0  0  0  0  0
   90.1798  149.6359    9.7256 C   0  0  0  0  0  0  0  0  0  0  0  0
   88.0091  148.5405   10.6035 C   0  0  0  0  0  0  0  0  0  0  0  0
   88.7914  149.2410    9.6080 N   0  0  0  0  0  0  0  0  0  0  0  0
   88.1040  149.5655    8.4135 C   0  0  0  0  0  0  0  0  0  0  0  0
   86.9038  149.2733    8.1988 O   0  0  0  0  0  0  0  0  0  0  0  0
   88.7621  150.2568    7.3817 O   0  0  0  0  0  0  0  0  0  0  0  0
   89.1141  149.6021    6.1810 C   0  0  0  0  0  0  0  0  0  0  0  0
   88.1328  149.8674    5.0615 C   0  0  0  0  0  0  0  0  0  0  0  0
   90.5189  149.9931    5.7560 C   0  0  0  0  0  0  0  0  0  0  0  0
   89.1591  148.1141    6.5191 C   0  0  0  0  0  0  0  0  0  0  0  0
 21 22  2  0
 21 23  2  0
 21 24  1  0
 21 25  1  0
 24 26  1  0
 24 20  1  0
 25 27  1  0
 26 28  1  0
 20  1  1  0
 27 29  1  0
 28 29  1  0
  1  2  2  0
  1  3  1  0
 29 30  1  0
  2  4  1  0
  3  5  2  0
 30 31  2  0
 30 32  1  0
  4  7  1  0
  4  6  2  0
  5  6  1  0
 32 33  1  0
  7  8  2  0
  7  9  1  0
 33 34  1  0
 33 35  1  0
 33 36  1  0
  9 10  1  0
 11  9  1  0
 11 12  1  0
 11 13  1  0
 12 14  2  0
 12 15  1  0
 13 16  1  0
 15 17  1  0
 15 19  1  0
 16 17  1  0
 17 18  2  0
M  END
> <Molecule Name>
Compound 7

> <EC50 (µM) (Excel)>
4.1

> <Error (µM)>
0.2

> <HTRC CRBN-DDB1 EC50 (µM)>
4.06 ±  0.18

> <EC50 fitting (µM)>
3.77

> <Modèle Fitting>
4PL

> <Parent_Compound>
Compound 7

> <MMFF94s_energy_kcalmol>
145.431
$$$$

> <minimizedAffinity>
-7.26396

> <CNNscore>
0.7565346956

> <CNNaffinity>
6.5383563042

> <CNN_VS>
4.9464936256

> <CNNaffinity_variance>
0.0179756694

$$$$
Compound_7_ent1


 36 38  0  0  0  0  0  0  0  0999 V2000
   87.2742  150.8783   11.8954 C   0  0  0  0  0  0  0  0  0  0  0  0
   86.5985  151.9806   12.3652 C   0  0  0  0  0  0  0  0  0  0  0  0
   88.1910  151.0631   10.8931 C   0  0  0  0  0  0  0  0  0  0  0  0
   86.7839  153.2452   11.8949 C   0  0  0  0  0  0  0  0  0  0  0  0
   88.4307  152.3257   10.3644 C   0  0  0  0  0  0  0  0  0  0  0  0
   87.7260  153.3858   10.8741 C   0  0  0  0  0  0  0  0  0  0  0  0
   86.1294  154.4474   12.3684 C   0  0  0  0  0  0  0  0  0  0  0  0
   86.7410  155.5354   12.4319 O   0  0  0  0  0  0  0  0  0  0  0  0
   84.7607  154.4057   12.7786 N   0  0  0  0  0  0  0  0  0  0  0  0
   84.2735  153.5514   12.7323 H   0  0  0  0  0  0  0  0  0  0  0  0
   84.0590  155.6030   13.2683 C   0  0  0  0  0  0  0  0  0  0  0  0
   84.3203  156.7442   12.3678 C   0  0  0  0  0  0  0  0  0  0  0  0
   84.2905  155.8560   14.7107 C   0  0  0  0  0  0  0  0  0  0  0  0
   84.2392  156.5369   11.1301 O   0  0  0  0  0  0  0  0  0  0  0  0
   84.6492  158.0248   12.8192 N   0  0  0  0  0  0  0  0  0  0  0  0
   85.2275  157.0043   14.9893 C   0  0  0  0  0  0  0  0  0  0  0  0
   84.9082  158.2136   14.2127 C   0  0  0  0  0  0  0  0  0  0  0  0
   84.8478  159.3788   14.6715 O   0  0  0  0  0  0  0  0  0  0  0  0
   84.7016  158.7811   12.1912 H   0  0  0  0  0  0  0  0  0  0  0  0
   87.0096  149.5569   12.4433 C   0  0  0  0  0  0  0  0  0  0  0  0
   89.4382  148.9253   13.3802 S   0  0  0  0  0  0  0  0  0  0  0  0
   89.8815  148.4483   12.0459 O   0  0  0  0  0  0  0  0  0  0  0  0
   89.8653  147.8360   14.3670 O   0  0  0  0  0  0  0  0  0  0  0  0
   87.7892  149.1415   13.5302 N   0  0  0  0  0  0  0  0  0  0  0  0
   90.3893  150.3643   13.8399 C   0  0  0  0  0  0  0  0  0  0  0  0
   87.2793  149.2629   14.8391 C   0  0  0  0  0  0  0  0  0  0  0  0
   90.4445  150.5047   15.3565 C   0  0  0  0  0  0  0  0  0  0  0  0
   87.8617  150.5192   15.4641 C   0  0  0  0  0  0  0  0  0  0  0  0
   89.1727  150.1440   15.9480 N   0  0  0  0  0  0  0  0  0  0  0  0
   89.1826  149.3390   17.1127 C   0  0  0  0  0  0  0  0  0  0  0  0
   88.1458  148.9671   17.7117 O   0  0  0  0  0  0  0  0  0  0  0  0
   90.4001  148.9050   17.6648 O   0  0  0  0  0  0  0  0  0  0  0  0
   90.8516  149.4049   18.9060 C   0  0  0  0  0  0  0  0  0  0  0  0
   90.2013  148.7163   20.0847 C   0  0  0  0  0  0  0  0  0  0  0  0
   92.3639  149.3001   19.0013 C   0  0  0  0  0  0  0  0  0  0  0  0
   90.5174  150.8944   18.8981 C   0  0  0  0  0  0  0  0  0  0  0  0
 21 22  2  0
 21 23  2  0
 21 24  1  0
 21 25  1  0
 24 26  1  0
 24 20  1  0
 25 27  1  0
 26 28  1  0
 20  1  1  0
 27 29  1  0
 28 29  1  0
  1  2  2  0
  1  3  1  0
 29 30  1  0
  2  4  1  0
  3  5  2  0
 30 31  2  0
 30 32  1  0
  4  7  1  0
  4  6  2  0
  5  6  1  0
 32 33  1  0
  7  8  2  0
  7  9  1  0
 33 34  1  0
 33 35  1  0
 33 36  1  0
  9 10  1  0
 11  9  1  0
 11 12  1  0
 11 13  1  0
 12 14  2  0
 12 15  1  0
 13 16  1  0
 15 17  1  0
 15 19  1  0
 16 17  1  0
 17 18  2  0
M  END
> <Molecule Name>
Compound 7

> <EC50 (µM) (Excel)>
4.1

> <Error (µM)>
0.2

> <HTRC CRBN-DDB1 EC50 (µM)>
4.06 ±  0.18

> <EC50 fitting (µM)>
3.77

> <Modèle Fitting>
4PL

> <Parent_Compound>
Compound 7

> <MMFF94s_energy_kcalmol>
145.431
$$$$

> <minimizedAffinity>
-7.07612

> <CNNscore>
0.7540763617

> <CNNaffinity>
6.2964072227

> <CNN_VS>
4.7479720116

> <CNNaffinity_variance>
0.2292161733

$$$$
