Compound_4_s13


 31 34  0  0  0  0  0  0  0  0999 V2000
   85.3656  154.7443   13.6732 C   0  0  0  0  0  0  0  0  0  0  0  0
   85.3946  153.8625   14.7232 C   0  0  0  0  0  0  0  0  0  0  0  0
   85.8415  154.3129   12.4517 C   0  0  0  0  0  0  0  0  0  0  0  0
   85.8947  152.5668   14.5480 C   0  0  0  0  0  0  0  0  0  0  0  0
   86.3433  153.0195   12.2668 C   0  0  0  0  0  0  0  0  0  0  0  0
   86.3707  152.1384   13.3231 C   0  0  0  0  0  0  0  0  0  0  0  0
   86.0606  151.3951   15.4552 C   0  0  0  0  0  0  0  0  0  0  0  0
   86.8200  150.7397   13.4856 C   0  0  0  0  0  0  0  0  0  0  0  0
   87.2801  150.8186   14.8786 N   0  0  0  0  0  0  0  0  0  0  0  0
   85.0592  150.3669   14.9873 C   0  0  0  0  0  0  0  0  0  0  0  0
   85.6339  149.8224   13.6860 C   0  0  0  0  0  0  0  0  0  0  0  0
   88.4954  150.4532   15.4406 C   0  0  0  0  0  0  0  0  0  0  0  0
   83.8856  151.0552   14.6524 O   0  0  0  0  0  0  0  0  0  0  0  0
   84.7259  149.8983   12.6446 O   0  0  0  0  0  0  0  0  0  0  0  0
   89.3807  149.9727   14.6853 O   0  0  0  0  0  0  0  0  0  0  0  0
   84.0872  151.7353   13.9909 H   0  0  0  0  0  0  0  0  0  0  0  0
   84.4329  150.8167   12.5374 H   0  0  0  0  0  0  0  0  0  0  0  0
   84.2077  156.3090   11.5703 O   0  0  0  0  0  0  0  0  0  0  0  0
   84.5988  156.8549   12.6173 C   0  0  0  0  0  0  0  0  0  0  0  0
   84.8869  156.1028   13.7825 N   0  0  0  0  0  0  0  0  0  0  0  0
   84.7706  158.2867   12.6805 N   0  0  0  0  0  0  0  0  0  0  0  0
   84.7272  156.7094   15.0800 C   0  0  0  0  0  0  0  0  0  0  0  0
   85.2233  158.8358   13.9445 C   0  0  0  0  0  0  0  0  0  0  0  0
   84.6222  158.1805   15.1267 C   0  0  0  0  0  0  0  0  0  0  0  0
   86.0362  159.7640   13.9366 O   0  0  0  0  0  0  0  0  0  0  0  0
   84.5893  158.8628   11.9030 H   0  0  0  0  0  0  0  0  0  0  0  0
   88.8201  150.5749   16.7827 O   0  0  0  0  0  0  0  0  0  0  0  0
   90.1458  150.7547   17.2509 C   0  0  0  0  0  0  0  0  0  0  0  0
   90.9618  151.4551   16.1802 C   0  0  0  0  0  0  0  0  0  0  0  0
   90.1985  151.5413   18.5315 C   0  0  0  0  0  0  0  0  0  0  0  0
   90.7217  149.3751   17.5001 C   0  0  0  0  0  0  0  0  0  0  0  0
 18 19  2  0
 19 20  1  0
 19 21  1  0
 20  1  1  0
 20 22  1  0
 21 23  1  0
 21 26  1  0
  1  2  2  0
  1  3  1  0
 22 24  1  0
 23 25  2  0
 23 24  1  0
  2  4  1  0
  3  5  2  0
  4  6  2  0
  5  6  1  0
  7  4  1  0
  7  9  1  0
  7 10  1  0
  8  6  1  0
  8 11  1  0
  8  9  1  0
  9 12  1  0
 10 13  1  0
 10 11  1  0
 11 14  1  0
 12 15  2  0
 12 27  1  0
 13 16  1  0
 14 17  1  0
 27 28  1  0
 28 29  1  0
 28 30  1  0
 28 31  1  0
M  END
> <Molecule Name>
Compound 4

> <EC50 (µM) (Excel)>
11.8

> <Error (µM)>
7.4

> <HTRC CRBN-DDB1 EC50 (µM)>
11.78 ±  7.41

> <EC50 fitting (µM)>
15.10

> <Modèle Fitting>
4PL

> <Parent_Compound>
Compound 4

> <MMFF94s_energy_kcalmol>
197.272
$$$$
