Compound_9_ent2
 OpenBabel09072607323D

 63 65  0  0  0  0  0  0  0  0999 V2000
   -1.2181    1.5919    0.1495 S   0  0  0  0  0  0  0  0  0  0  0  0
   -0.5843    2.1643    1.3841 O   0  0  0  0  0  0  0  0  0  0  0  0
   -0.3265    1.9681   -1.0102 O   0  0  0  0  0  0  0  0  0  0  0  0
   -1.3605   -0.0554    0.2575 N   0  0  0  0  0  0  0  0  0  0  0  0
   -2.7546    2.4408   -0.0945 C   0  0  0  0  0  0  0  0  0  0  0  0
   -2.0430   -0.7940   -0.7021 C   0  0  0  0  0  0  0  0  0  0  0  0
   -0.6622   -0.6869    1.2910 C   0  0  0  0  0  0  0  0  0  0  0  0
   -3.8177    1.5410    0.4997 C   0  0  0  0  0  0  0  0  0  0  0  0
   -3.2135   -0.1530   -1.3729 C   0  0  0  0  0  0  0  0  0  0  0  0
    0.6894   -1.1462    0.8375 C   0  0  0  0  0  0  0  0  0  0  0  0
   -4.1102    0.5249   -0.4787 N   0  0  0  0  0  0  0  0  0  0  0  0
    1.7946   -0.3364    0.9435 C   0  0  0  0  0  0  0  0  0  0  0  0
    0.8605   -2.4149    0.2967 C   0  0  0  0  0  0  0  0  0  0  0  0
   -5.4698    0.1547   -0.5534 C   0  0  0  0  0  0  0  0  0  0  0  0
    3.0616   -0.7121    0.5441 C   0  0  0  0  0  0  0  0  0  0  0  0
    2.1081   -2.8187   -0.1103 C   0  0  0  0  0  0  0  0  0  0  0  0
   -5.8287   -0.7359   -1.3918 O   0  0  0  0  0  0  0  0  0  0  0  0
   -6.5397    0.7312    0.2842 C   0  0  0  0  0  0  0  0  0  0  0  0
    4.1976    0.1903    0.6785 C   0  0  0  0  0  0  0  0  0  0  0  0
    3.2125   -1.9695    0.0117 C   0  0  0  0  0  0  0  0  0  0  0  0
   -7.8312    0.1845    0.0127 N   0  3  0  0  0  0  0  0  0  0  0  0
    4.0291    1.3638    1.1491 O   0  0  0  0  0  0  0  0  0  0  0  0
    5.5115   -0.1510    0.3147 N   0  0  0  0  0  0  0  0  0  0  0  0
   -8.0042   -1.1855    0.3806 C   0  0  0  0  0  0  0  0  0  0  0  0
   -8.3932    0.5541   -1.2466 C   0  0  0  0  0  0  0  0  0  0  0  0
    6.5992    0.8028    0.4774 C   0  0  1  0  0  0  0  0  0  0  0  0
    7.5895    0.3164    1.4596 C   0  0  0  0  0  0  0  0  0  0  0  0
    7.2099    0.9833   -0.8984 C   0  0  0  0  0  0  0  0  0  0  0  0
    7.2362    0.1200    2.6400 O   0  0  0  0  0  0  0  0  0  0  0  0
    8.9345    0.0669    1.0937 N   0  0  0  0  0  0  0  0  0  0  0  0
    8.1238   -0.1837   -1.2438 C   0  0  0  0  0  0  0  0  0  0  0  0
    9.2482   -0.1532   -0.2753 C   0  0  0  0  0  0  0  0  0  0  0  0
   10.4259   -0.3188   -0.6759 O   0  0  0  0  0  0  0  0  0  0  0  0
   -2.9352    2.5931   -1.1381 H   0  0  0  0  0  0  0  0  0  0  0  0
   -2.7505    3.4061    0.3672 H   0  0  0  0  0  0  0  0  0  0  0  0
   -2.3963   -1.6852   -0.2269 H   0  0  0  0  0  0  0  0  0  0  0  0
   -1.3301   -0.9401   -1.4865 H   0  0  0  0  0  0  0  0  0  0  0  0
   -1.2243   -1.5345    1.6236 H   0  0  0  0  0  0  0  0  0  0  0  0
   -0.5291    0.0167    2.0861 H   0  0  0  0  0  0  0  0  0  0  0  0
   -4.6995    2.1077    0.7148 H   0  0  0  0  0  0  0  0  0  0  0  0
   -3.4764    1.1016    1.4137 H   0  0  0  0  0  0  0  0  0  0  0  0
   -3.7637   -0.9140   -1.8857 H   0  0  0  0  0  0  0  0  0  0  0  0
   -2.8184    0.5912   -2.0324 H   0  0  0  0  0  0  0  0  0  0  0  0
    1.6704    0.6063    1.3445 H   0  0  0  0  0  0  0  0  0  0  0  0
    0.0533   -3.0508    0.2014 H   0  0  0  0  0  0  0  0  0  0  0  0
    2.2325   -3.7613   -0.5115 H   0  0  0  0  0  0  0  0  0  0  0  0
   -6.5749    1.7864    0.1102 H   0  0  0  0  0  0  0  0  0  0  0  0
   -6.3052    0.4959    1.3013 H   0  0  0  0  0  0  0  0  0  0  0  0
    4.1435   -2.2883   -0.2991 H   0  0  0  0  0  0  0  0  0  0  0  0
   -8.4293    0.6715    0.6801 H   0  0  0  0  0  0  0  0  0  0  0  0
    5.6983   -1.0445   -0.0541 H   0  0  0  0  0  0  0  0  0  0  0  0
   -7.4139   -1.8047   -0.2621 H   0  0  0  0  0  0  0  0  0  0  0  0
   -9.0358   -1.4530    0.2847 H   0  0  0  0  0  0  0  0  0  0  0  0
   -7.6925   -1.3246    1.3947 H   0  0  0  0  0  0  0  0  0  0  0  0
   -7.8361    0.0927   -2.0350 H   0  0  0  0  0  0  0  0  0  0  0  0
   -8.3531    1.6177   -1.3567 H   0  0  0  0  0  0  0  0  0  0  0  0
   -9.4116    0.2290   -1.2919 H   0  0  0  0  0  0  0  0  0  0  0  0
    6.2469    1.7378    0.8602 H   0  0  0  0  0  0  0  0  0  0  0  0
    7.7782    1.8898   -0.9133 H   0  0  0  0  0  0  0  0  0  0  0  0
    6.4210    1.0252   -1.6200 H   0  0  0  0  0  0  0  0  0  0  0  0
    9.6423    0.0462    1.7777 H   0  0  0  0  0  0  0  0  0  0  0  0
    8.4949   -0.0774   -2.2417 H   0  0  0  0  0  0  0  0  0  0  0  0
    7.5958   -1.1127   -1.1881 H   0  0  0  0  0  0  0  0  0  0  0  0
  1  2  2  0  0  0  0
  1  3  2  0  0  0  0
  1  4  1  0  0  0  0
  1  5  1  0  0  0  0
  4  6  1  0  0  0  0
  4  7  1  0  0  0  0
  5  8  1  0  0  0  0
  5 34  1  0  0  0  0
  5 35  1  0  0  0  0
  6  9  1  0  0  0  0
  6 36  1  0  0  0  0
  6 37  1  0  0  0  0
  7 10  1  0  0  0  0
  7 38  1  0  0  0  0
  7 39  1  0  0  0  0
  8 11  1  0  0  0  0
  8 40  1  0  0  0  0
  8 41  1  0  0  0  0
  9 11  1  0  0  0  0
  9 42  1  0  0  0  0
  9 43  1  0  0  0  0
 10 12  2  0  0  0  0
 10 13  1  0  0  0  0
 11 14  1  0  0  0  0
 12 15  1  0  0  0  0
 12 44  1  0  0  0  0
 13 16  2  0  0  0  0
 13 45  1  0  0  0  0
 14 17  2  0  0  0  0
 14 18  1  0  0  0  0
 15 19  1  0  0  0  0
 15 20  2  0  0  0  0
 16 20  1  0  0  0  0
 16 46  1  0  0  0  0
 18 21  1  0  0  0  0
 18 47  1  0  0  0  0
 18 48  1  0  0  0  0
 19 22  2  0  0  0  0
 19 23  1  0  0  0  0
 20 49  1  0  0  0  0
 21 24  1  0  0  0  0
 21 25  1  0  0  0  0
 21 50  1  0  0  0  0
 23 51  1  0  0  0  0
 24 52  1  0  0  0  0
 24 53  1  0  0  0  0
 24 54  1  0  0  0  0
 25 55  1  0  0  0  0
 25 56  1  0  0  0  0
 25 57  1  0  0  0  0
 26 23  1  0  0  0  0
 26 27  1  0  0  0  0
 26 28  1  0  0  0  0
 26 58  1  1  0  0  0
 27 29  2  0  0  0  0
 27 30  1  0  0  0  0
 28 31  1  0  0  0  0
 28 59  1  0  0  0  0
 28 60  1  0  0  0  0
 30 32  1  0  0  0  0
 30 61  1  0  0  0  0
 31 32  1  0  0  0  0
 31 62  1  0  0  0  0
 31 63  1  0  0  0  0
 32 33  2  0  0  0  0
M  CHG  1  21   1
M  END
>  <Molecule Name>
Compound 9

>  <EC50 (µM) (Excel)>
54.0

>  <Error (µM)>
9.3

>  <HTRC CRBN-DDB1 EC50 (µM)>
53.95 ±  9.32

>  <EC50 fitting (µM)>
108.30

>  <Modèle Fitting>
4PL

>  <Parent_Compound>
Compound 9

>  <MMFF94s_energy_kcalmol>
152.432
$$$$
