CTX-1019660
     RDKit          3D

 38 43  0  0  0  0  0  0  0  0999 V2000
   -0.9268   -1.4726    3.9362 O   0  0  0  0  0  0  0  0  0  0  0  0
   -0.2479   -1.4825    2.9156 C   0  0  0  0  0  0  0  0  0  0  0  0
   -0.4845   -2.2990    1.8320 N   0  0  0  0  0  0  0  0  0  0  0  0
    0.9297   -0.5691    2.7496 C   0  0  0  0  0  0  0  0  0  0  0  0
   -1.6690   -3.1099    1.7102 C   0  0  0  0  0  0  0  0  0  0  0  0
    1.6035   -0.6614    1.5672 N   0  0  0  0  0  0  0  0  0  0  0  0
    1.2698    0.3101    3.7662 C   0  0  0  0  0  0  0  0  0  0  0  0
   -2.7097   -2.4181    0.8704 C   0  0  0  0  0  0  0  0  0  0  0  0
    2.6678    0.1618    1.3934 C   0  0  0  0  0  0  0  0  0  0  0  0
    2.3653    1.1428    3.5708 C   0  0  0  0  0  0  0  0  0  0  0  0
   -3.5676   -1.4726    1.4414 C   0  0  0  0  0  0  0  0  0  0  0  0
   -2.8155   -2.6729   -0.4990 C   0  0  0  0  0  0  0  0  0  0  0  0
    3.0870    1.0647    2.3761 C   0  0  0  0  0  0  0  0  0  0  0  0
    3.3860    0.0685    0.0631 C   0  0  0  0  0  0  0  0  0  0  0  0
   -4.5225   -0.8077    0.6612 C   0  0  0  0  0  0  0  0  0  0  0  0
   -3.7742   -2.0058   -1.2702 C   0  0  0  0  0  0  0  0  0  0  0  0
    4.2624    1.9635    2.1212 C   0  0  0  0  0  0  0  0  0  0  0  0
    4.6139    0.8582   -0.0648 N   0  0  0  0  0  0  0  0  0  0  0  0
   -4.6487   -1.0598   -0.7104 C   0  0  0  0  0  0  0  0  0  0  0  0
    5.2608    1.3033    1.1713 C   0  0  0  0  0  0  0  0  0  0  0  0
    5.1532    0.9564   -1.3463 C   0  0  0  0  0  0  0  0  0  0  0  0
   -5.5902   -0.4285   -1.5350 N   0  0  0  0  0  0  0  0  0  0  0  0
    4.5375    0.5961   -2.3448 O   0  0  0  0  0  0  0  0  0  0  0  0
    6.4833    1.5043   -1.4810 C   0  0  0  0  0  0  0  0  0  0  0  0
   -6.1528    0.8790   -1.1396 C   0  0  0  0  0  0  0  0  0  0  0  0
   -6.5821   -1.3791   -2.1008 C   0  0  0  0  0  0  0  0  0  0  0  0
    7.6739    0.9791   -1.0283 C   0  0  0  0  0  0  0  0  0  0  0  0
    6.8798    2.6552   -2.1910 C   0  0  0  0  0  0  0  0  0  0  0  0
   -7.6131    0.7469   -0.6545 C   0  0  0  0  0  0  0  0  0  0  0  0
   -7.8162   -0.6359   -2.6618 C   0  0  0  0  0  0  0  0  0  0  0  0
    8.6795    1.8393   -1.4108 N   0  0  0  0  0  0  0  0  0  0  0  0
    8.0338   -0.2057   -0.3046 C   0  0  0  0  0  0  0  0  0  0  0  0
    8.1935    2.8874   -2.1160 N   0  0  0  0  0  0  0  0  0  0  0  0
   -8.5451    0.1535   -1.6418 N   0  0  0  0  0  0  0  0  0  0  0  0
    9.9858    1.5567   -1.0518 C   0  0  0  0  0  0  0  0  0  0  0  0
    9.2656   -0.4613    0.0361 N   0  0  0  0  0  0  0  0  0  0  0  0
   -9.3790    1.1674   -2.2808 C   0  0  0  0  0  0  0  0  0  0  0  0
   10.2388    0.4418   -0.3488 C   0  0  0  0  0  0  0  0  0  0  0  0
  1  2  2  0
  2  3  1  0
  2  4  1  0
  3  5  1  0
  4  6  2  0
  4  7  1  0
  5  8  1  0
  6  9  1  0
  7 10  2  0
  8 11  2  0
  8 12  1  0
  9 13  2  0
  9 14  1  0
 11 15  1  0
 12 16  2  0
 13 17  1  0
 14 18  1  0
 15 19  2  0
 17 20  1  0
 18 21  1  0
 19 22  1  0
 21 23  2  0
 21 24  1  0
 22 25  1  0
 22 26  1  0
 24 27  2  0
 24 28  1  0
 25 29  1  0
 26 30  1  0
 27 31  1  0
 27 32  1  0
 28 33  2  0
 29 34  1  0
 31 35  1  0
 32 36  2  0
 34 37  1  0
 35 38  2  0
 10 13  1  0
 16 19  1  0
 18 20  1  0
 30 34  1  0
 31 33  1  0
 36 38  1  0
M  END
>  <Molecule Name>  (1) 
CTX-1019660

>  <SMILES>  (1) 
CN1CCN(CC1)C1=CC=C(CNC(=O)C2=NC3=C(CCN(C3)C(=O)C3=C4C=NC=CN4N=C3)C=C2)C=C1

>  <Batch Name>  (1) 
CTX-1019660-1

>  <Batch Created Date>  (1) 
2021-08-19

>  <Batch ID>  (1) 
CTX-1019660-1

>  <External ID>  (1) 
P841-0126

>  <Stereochemistry>  (1) 
Achiral

>  <Amount 1>  (1) 
2.45

>  <Unit 1>  (1) 
mg

>  <CRO 1>  (1) 
Pharmaron

>  <CRO 1 Total Amount>  (1) 
10.8

>  <CRO 1 Unit>  (1) 
mg

>  <pIC50>  (1) 
5.110698

>  <SMILES_std>  (1) 
CN1CCN(c2ccc(CNC(=O)c3ccc4c(n3)CN(C(=O)c3cnn5ccncc35)CC4)cc2)CC1

>  <embed_status>  (1) 
0

>  <mmff_status>  (1) 
0

$$$$
