CTX-1020739
     RDKit          3D

 31 35  0  0  0  0  0  0  0  0999 V2000
   -1.9185   -1.2848   -0.5274 S   0  0  0  0  0  0  0  0  0  0  0  0
   -2.7598   -0.6332    0.8196 C   0  0  0  0  0  0  0  0  0  0  0  0
   -0.5541   -0.3264   -0.2199 C   0  0  0  0  0  0  0  0  0  0  0  0
   -4.1144   -1.0437    1.1706 C   0  0  0  0  0  0  0  0  0  0  0  0
   -1.9842    0.3031    1.4834 C   0  0  0  0  0  0  0  0  0  0  0  0
   -0.6975    0.4853    0.8887 C   0  0  0  0  0  0  0  0  0  0  0  0
    0.6839   -0.3787   -1.0590 C   0  0  0  0  0  0  0  0  0  0  0  0
   -4.7328   -0.5512    2.1121 O   0  0  0  0  0  0  0  0  0  0  0  0
   -4.6714   -2.0201    0.3726 N   0  0  0  0  0  0  0  0  0  0  0  0
    0.3753    1.4277    1.3594 C   0  0  0  0  0  0  0  0  0  0  0  0
    1.5094    0.8890   -0.7965 C   0  0  0  0  0  0  0  0  0  0  0  0
   -6.0467   -2.4336    0.5015 C   0  0  0  0  0  0  0  0  0  0  0  0
    1.6290    1.1621    0.6480 N   0  0  0  0  0  0  0  0  0  0  0  0
   -6.9142   -1.7191   -0.4984 C   0  0  0  0  0  0  0  0  0  0  0  0
    2.8016    1.6373    1.2457 C   0  0  0  0  0  0  0  0  0  0  0  0
   -7.3763   -0.4251   -0.2391 C   0  0  0  0  0  0  0  0  0  0  0  0
   -7.2456   -2.3109   -1.7203 C   0  0  0  0  0  0  0  0  0  0  0  0
    2.7393    2.3705    2.2351 O   0  0  0  0  0  0  0  0  0  0  0  0
    4.0830    1.2259    0.6912 C   0  0  0  0  0  0  0  0  0  0  0  0
   -8.1517    0.2089   -1.1964 C   0  0  0  0  0  0  0  0  0  0  0  0
   -8.0287   -1.5954   -2.6133 C   0  0  0  0  0  0  0  0  0  0  0  0
    4.1820    0.0312    0.0275 O   0  0  0  0  0  0  0  0  0  0  0  0
    5.3393    1.8179    0.7794 C   0  0  0  0  0  0  0  0  0  0  0  0
   -8.4901   -0.3491   -2.3784 N   0  0  0  0  0  0  0  0  0  0  0  0
    5.4799   -0.1312   -0.3357 C   0  0  0  0  0  0  0  0  0  0  0  0
    6.2424    0.9432    0.1006 C   0  0  0  0  0  0  0  0  0  0  0  0
    5.6646    3.1000    1.4553 C   0  0  0  0  0  0  0  0  0  0  0  0
    5.9869   -1.2195   -1.0423 C   0  0  0  0  0  0  0  0  0  0  0  0
    7.6213    0.9387   -0.1835 C   0  0  0  0  0  0  0  0  0  0  0  0
    7.3578   -1.2020   -1.3168 C   0  0  0  0  0  0  0  0  0  0  0  0
    8.1633   -0.1416   -0.8953 C   0  0  0  0  0  0  0  0  0  0  0  0
  1  2  1  0
  1  3  1  0
  2  4  1  0
  2  5  2  0
  3  6  2  0
  3  7  1  0
  4  8  2  0
  4  9  1  0
  6 10  1  0
  7 11  1  0
  9 12  1  0
 10 13  1  0
 12 14  1  0
 13 15  1  0
 14 16  2  0
 14 17  1  0
 15 18  2  0
 15 19  1  0
 16 20  1  0
 17 21  2  0
 19 22  1  0
 19 23  2  0
 20 24  2  0
 22 25  1  0
 23 26  1  0
 23 27  1  0
 25 28  2  0
 26 29  2  0
 28 30  1  0
 29 31  1  0
  5  6  1  0
 11 13  1  0
 21 24  1  0
 25 26  1  0
 30 31  2  0
M  END
>  <Molecule Name>  (1) 
CTX-1020739

>  <SMILES>  (1) 
CC1=C(OC2=C1C=CC=C2)C(=O)N1CCC2=C(C1)C=C(S2)C(=O)NCC1=CC=NC=C1

>  <Batch Name>  (1) 
CTX-1020739-1

>  <Batch Created Date>  (1) 
2021-12-16

>  <Batch ID>  (1) 
CTX-1020739-1

>  <External ID>  (1) 
P841-0354

>  <Stereochemistry>  (1) 
Achiral

>  <Amount 1>  (1) 
3.85

>  <Unit 1>  (1) 
mg

>  <CRO 1>  (1) 
Pharmaron

>  <CRO 1 Total Amount>  (1) 
27.55

>  <CRO 1 Unit>  (1) 
mg

>  <pIC50>  (1) 
5.051098

>  <SMILES_std>  (1) 
Cc1c(C(=O)N2CCc3sc(C(=O)NCc4ccncc4)cc3C2)oc2ccccc12

>  <embed_status>  (1) 
0

>  <mmff_status>  (1) 
0

$$$$
