CTX-1020726
     RDKit          3D

 34 39  0  0  0  0  0  0  0  0999 V2000
    4.7147    2.2660    0.3913 O   0  0  0  0  0  0  0  0  0  0  0  0
    3.9444    1.3204    0.3062 C   0  0  0  0  0  0  0  0  0  0  0  0
    4.2332    0.0024    0.0321 N   0  0  0  0  0  0  0  0  0  0  0  0
    2.4731    1.5462    0.5147 C   0  0  0  0  0  0  0  0  0  0  0  0
    5.4495   -0.6107   -0.2160 C   0  0  0  0  0  0  0  0  0  0  0  0
    1.6819    0.4378    0.4194 N   0  0  0  0  0  0  0  0  0  0  0  0
    1.9931    2.8192    0.7836 C   0  0  0  0  0  0  0  0  0  0  0  0
    6.7510   -0.1494   -0.2667 C   0  0  0  0  0  0  0  0  0  0  0  0
    5.5675   -1.9929   -0.4930 C   0  0  0  0  0  0  0  0  0  0  0  0
    0.3467    0.6126    0.5972 C   0  0  0  0  0  0  0  0  0  0  0  0
    0.6247    2.9763    0.9703 C   0  0  0  0  0  0  0  0  0  0  0  0
    7.5569   -1.2633   -0.5677 N   0  0  0  0  0  0  0  0  0  0  0  0
    7.4327    1.0961   -0.0993 C   0  0  0  0  0  0  0  0  0  0  0  0
    6.8175   -2.3924   -0.7031 N   0  0  0  0  0  0  0  0  0  0  0  0
   -0.2175    1.8626    0.8912 C   0  0  0  0  0  0  0  0  0  0  0  0
   -0.5210   -0.6288    0.4977 C   0  0  0  0  0  0  0  0  0  0  0  0
    8.9452   -1.1765   -0.7014 C   0  0  0  0  0  0  0  0  0  0  0  0
    8.7712    1.1663   -0.2307 C   0  0  0  0  0  0  0  0  0  0  0  0
   -1.7076    2.0197    1.0583 C   0  0  0  0  0  0  0  0  0  0  0  0
   -1.9549   -0.3563    0.5038 N   0  0  0  0  0  0  0  0  0  0  0  0
    9.5696   -0.0008   -0.5428 C   0  0  0  0  0  0  0  0  0  0  0  0
   -2.3755    0.6970    1.4257 C   0  0  0  0  0  0  0  0  0  0  0  0
   -2.7965   -1.3869    0.0703 C   0  0  0  0  0  0  0  0  0  0  0  0
   -2.3313   -2.5020   -0.1742 O   0  0  0  0  0  0  0  0  0  0  0  0
   -4.2125   -1.1025   -0.1084 C   0  0  0  0  0  0  0  0  0  0  0  0
   -4.6153    0.1739   -0.4011 O   0  0  0  0  0  0  0  0  0  0  0  0
   -5.3125   -1.9547   -0.1188 C   0  0  0  0  0  0  0  0  0  0  0  0
   -5.9625    0.1520   -0.5674 C   0  0  0  0  0  0  0  0  0  0  0  0
   -6.4492   -1.1372   -0.4029 C   0  0  0  0  0  0  0  0  0  0  0  0
   -5.2939   -3.4221    0.1118 C   0  0  0  0  0  0  0  0  0  0  0  0
   -6.7540    1.2590   -0.8654 C   0  0  0  0  0  0  0  0  0  0  0  0
   -7.8335   -1.3488   -0.5482 C   0  0  0  0  0  0  0  0  0  0  0  0
   -8.1261    1.0271   -1.0018 C   0  0  0  0  0  0  0  0  0  0  0  0
   -8.6589   -0.2546   -0.8463 C   0  0  0  0  0  0  0  0  0  0  0  0
  1  2  2  0
  2  3  1  0
  2  4  1  0
  3  5  1  0
  4  6  2  0
  4  7  1  0
  5  8  2  0
  5  9  1  0
  6 10  1  0
  7 11  2  0
  8 12  1  0
  8 13  1  0
  9 14  2  0
 10 15  2  0
 10 16  1  0
 12 17  1  0
 13 18  2  0
 15 19  1  0
 16 20  1  0
 17 21  2  0
 19 22  1  0
 20 23  1  0
 23 24  2  0
 23 25  1  0
 25 26  1  0
 25 27  2  0
 26 28  1  0
 27 29  1  0
 27 30  1  0
 28 31  2  0
 29 32  2  0
 31 33  1  0
 32 34  1  0
 11 15  1  0
 12 14  1  0
 18 21  1  0
 20 22  1  0
 28 29  1  0
 33 34  2  0
M  END
>  <Molecule Name>  (1) 
CTX-1020726

>  <SMILES>  (1) 
CC1=C(OC2=C1C=CC=C2)C(=O)N1CCC2=CC=C(N=C2C1)C(=O)NC1=C2C=CC=CN2N=C1

>  <Batch Name>  (1) 
CTX-1020726-1

>  <Batch Created Date>  (1) 
2021-12-16

>  <Batch ID>  (1) 
CTX-1020726-1

>  <External ID>  (1) 
CD-42-E

>  <Stereochemistry>  (1) 
Achiral

>  <Amount 1>  (1) 
3.3

>  <Unit 1>  (1) 
mg

>  <CRO 1>  (1) 
Pharmaron

>  <CRO 1 Total Amount>  (1) 
17.6

>  <CRO 1 Unit>  (1) 
mg

>  <pIC50>  (1) 
4.08831

>  <SMILES_std>  (1) 
Cc1c(C(=O)N2CCc3ccc(C(=O)Nc4cnn5ccccc45)nc3C2)oc2ccccc12

>  <embed_status>  (1) 
0

>  <mmff_status>  (1) 
0

$$$$
