CTX-1020517
     RDKit          3D

 38 43  0  0  0  0  0  0  0  0999 V2000
    6.9704   -1.0983    0.8324 S   0  0  0  0  0  0  0  0  0  0  0  0
    6.4264    0.4989    1.0877 C   0  0  0  0  0  0  0  0  0  0  0  0
    8.5908   -0.6979    1.2343 C   0  0  0  0  0  0  0  0  0  0  0  0
    7.4383    1.3367    1.5292 C   0  0  0  0  0  0  0  0  0  0  0  0
    5.0119    0.8057    0.9396 C   0  0  0  0  0  0  0  0  0  0  0  0
    8.7098    0.6448    1.6022 C   0  0  0  0  0  0  0  0  0  0  0  0
    9.6999   -1.5675    1.2270 C   0  0  0  0  0  0  0  0  0  0  0  0
    7.2421    2.7756    1.8932 C   0  0  0  0  0  0  0  0  0  0  0  0
    4.3582    1.2674    1.8761 O   0  0  0  0  0  0  0  0  0  0  0  0
    4.4109    0.5713   -0.3032 N   0  0  0  0  0  0  0  0  0  0  0  0
    9.9954    1.1091    1.9845 C   0  0  0  0  0  0  0  0  0  0  0  0
   10.9511   -1.0750    1.6010 C   0  0  0  0  0  0  0  0  0  0  0  0
    2.9667    0.8105   -0.3764 C   0  0  0  0  0  0  0  0  0  0  0  0
    5.1521    0.6354   -1.5785 C   0  0  0  0  0  0  0  0  0  0  0  0
   11.0993    0.2507    1.9784 C   0  0  0  0  0  0  0  0  0  0  0  0
    2.3822    0.1486   -1.5916 C   0  0  0  0  0  0  0  0  0  0  0  0
    4.6502   -0.4126   -2.5825 C   0  0  0  0  0  0  0  0  0  0  0  0
    3.1560   -0.3907   -2.5988 C   0  0  0  0  0  0  0  0  0  0  0  0
    0.9894    0.0008   -1.8887 C   0  0  0  0  0  0  0  0  0  0  0  0
    2.2418   -1.0514   -3.8631 S   0  0  0  0  0  0  0  0  0  0  0  0
    0.7591   -0.6464   -3.0935 C   0  0  0  0  0  0  0  0  0  0  0  0
   -0.4952   -0.9949   -3.7518 C   0  0  0  0  0  0  0  0  0  0  0  0
   -0.5884   -1.3511   -4.9249 O   0  0  0  0  0  0  0  0  0  0  0  0
   -1.6146   -0.9136   -2.9474 N   0  0  0  0  0  0  0  0  0  0  0  0
   -2.9032   -1.3388   -3.4377 C   0  0  0  0  0  0  0  0  0  0  0  0
   -3.9759   -1.0371   -2.4288 C   0  0  0  0  0  0  0  0  0  0  0  0
   -4.5363    0.2387   -2.3455 C   0  0  0  0  0  0  0  0  0  0  0  0
   -4.3990   -2.0073   -1.5189 C   0  0  0  0  0  0  0  0  0  0  0  0
   -5.5117    0.5273   -1.3810 C   0  0  0  0  0  0  0  0  0  0  0  0
   -5.3742   -1.7051   -0.5581 C   0  0  0  0  0  0  0  0  0  0  0  0
   -5.9597   -0.4329   -0.4603 C   0  0  0  0  0  0  0  0  0  0  0  0
   -6.9231   -0.1426    0.4901 N   0  0  0  0  0  0  0  0  0  0  0  0
   -7.0841   -0.9574    1.7058 C   0  0  0  0  0  0  0  0  0  0  0  0
   -7.8245    1.0144    0.3552 C   0  0  0  0  0  0  0  0  0  0  0  0
   -7.7002   -0.1291    2.8589 C   0  0  0  0  0  0  0  0  0  0  0  0
   -9.1509    0.7628    1.1096 C   0  0  0  0  0  0  0  0  0  0  0  0
   -8.9887    0.5308    2.5612 N   0  0  0  0  0  0  0  0  0  0  0  0
  -10.1216   -0.2241    3.0892 C   0  0  0  0  0  0  0  0  0  0  0  0
  1  2  1  0
  1  3  1  0
  2  4  2  0
  2  5  1  0
  3  6  2  0
  3  7  1  0
  4  8  1  0
  5  9  2  0
  5 10  1  0
  6 11  1  0
  7 12  2  0
 10 13  1  0
 10 14  1  0
 11 15  2  0
 13 16  1  0
 14 17  1  0
 16 18  2  0
 16 19  1  0
 18 20  1  0
 19 21  2  0
 21 22  1  0
 22 23  2  0
 22 24  1  0
 24 25  1  0
 25 26  1  0
 26 27  2  0
 26 28  1  0
 27 29  1  0
 28 30  2  0
 29 31  2  0
 31 32  1  0
 32 33  1  0
 32 34  1  0
 33 35  1  0
 34 36  1  0
 35 37  1  0
 37 38  1  0
  4  6  1  0
 12 15  1  0
 17 18  1  0
 20 21  1  0
 30 31  1  0
 36 37  1  0
M  END
>  <Molecule Name>  (1) 
CTX-1020517

>  <SMILES>  (1) 
CN1CCN(CC1)C1=CC=C(CNC(=O)C2=CC3=C(CCN(C3)C(=O)C3=C(C)C4=C(S3)C=CC=C4)S2)C=C1

>  <Batch Name>  (1) 
CTX-1020517-1

>  <Batch Created Date>  (1) 
2021-11-04

>  <Batch ID>  (1) 
CTX-1020517-1

>  <External ID>  (1) 
610EDL074-B

>  <Stereochemistry>  (1) 
Achiral

>  <Amount 1>  (1) 
5.04

>  <Unit 1>  (1) 
mg

>  <CRO 1>  (1) 
Pharmaron

>  <CRO 1 Total Amount>  (1) 
24.4

>  <CRO 1 Unit>  (1) 
mg

>  <pIC50>  (1) 
5.540607

>  <SMILES_std>  (1) 
Cc1c(C(=O)N2CCc3sc(C(=O)NCc4ccc(N5CCN(C)CC5)cc4)cc3C2)sc2ccccc12

>  <embed_status>  (1) 
0

>  <mmff_status>  (1) 
0

$$$$
