CTX-1019758
     RDKit          3D

 38 43  0  0  0  0  0  0  0  0999 V2000
   -1.5389    2.3560    1.8779 S   0  0  0  0  0  0  0  0  0  0  0  0
   -0.7678    2.6381    0.3674 C   0  0  0  0  0  0  0  0  0  0  0  0
   -2.6531    1.2858    1.1843 C   0  0  0  0  0  0  0  0  0  0  0  0
    0.3702    3.5507    0.3165 C   0  0  0  0  0  0  0  0  0  0  0  0
   -1.3872    1.9164   -0.6420 C   0  0  0  0  0  0  0  0  0  0  0  0
   -2.4834    1.1230   -0.1714 C   0  0  0  0  0  0  0  0  0  0  0  0
   -3.7003    0.5823    1.9718 C   0  0  0  0  0  0  0  0  0  0  0  0
    0.6806    4.3157    1.2277 O   0  0  0  0  0  0  0  0  0  0  0  0
    1.1076    3.4922   -0.8517 N   0  0  0  0  0  0  0  0  0  0  0  0
   -3.3575    0.2391   -1.0075 C   0  0  0  0  0  0  0  0  0  0  0  0
   -4.8478    0.1702    1.0370 C   0  0  0  0  0  0  0  0  0  0  0  0
    2.3525    4.2114   -0.9982 C   0  0  0  0  0  0  0  0  0  0  0  0
   -4.3864   -0.4519   -0.2198 N   0  0  0  0  0  0  0  0  0  0  0  0
    3.5247    3.2948   -0.7710 C   0  0  0  0  0  0  0  0  0  0  0  0
   -5.0983   -1.4424   -0.9197 C   0  0  0  0  0  0  0  0  0  0  0  0
    3.9367    2.9779    0.5248 C   0  0  0  0  0  0  0  0  0  0  0  0
    4.2015    2.7091   -1.8423 C   0  0  0  0  0  0  0  0  0  0  0  0
   -4.6184   -1.9280   -1.9478 O   0  0  0  0  0  0  0  0  0  0  0  0
   -6.3933   -1.8900   -0.4273 C   0  0  0  0  0  0  0  0  0  0  0  0
    5.0117    2.1047    0.7383 C   0  0  0  0  0  0  0  0  0  0  0  0
    5.2754    1.8363   -1.6149 C   0  0  0  0  0  0  0  0  0  0  0  0
   -7.2412   -0.9993    0.1752 O   0  0  0  0  0  0  0  0  0  0  0  0
   -7.0218   -3.1263   -0.5454 C   0  0  0  0  0  0  0  0  0  0  0  0
    5.7143    1.5107   -0.3219 C   0  0  0  0  0  0  0  0  0  0  0  0
   -8.3873   -1.6609    0.4779 C   0  0  0  0  0  0  0  0  0  0  0  0
   -8.3092   -2.9807    0.0565 C   0  0  0  0  0  0  0  0  0  0  0  0
   -6.4580   -4.3450   -1.1804 C   0  0  0  0  0  0  0  0  0  0  0  0
    6.7735    0.6469   -0.1016 N   0  0  0  0  0  0  0  0  0  0  0  0
   -9.4934   -1.1035    1.1155 C   0  0  0  0  0  0  0  0  0  0  0  0
   -9.4189   -3.8175    0.2812 C   0  0  0  0  0  0  0  0  0  0  0  0
    7.2681   -0.2653   -1.1455 C   0  0  0  0  0  0  0  0  0  0  0  0
    7.5296    0.6645    1.1624 C   0  0  0  0  0  0  0  0  0  0  0  0
  -10.5826   -1.9529    1.3327 C   0  0  0  0  0  0  0  0  0  0  0  0
  -10.5481   -3.2878    0.9229 C   0  0  0  0  0  0  0  0  0  0  0  0
    7.9778   -1.4832   -0.5094 C   0  0  0  0  0  0  0  0  0  0  0  0
    8.9880    0.1909    0.9522 C   0  0  0  0  0  0  0  0  0  0  0  0
    9.1512   -1.1360    0.3216 N   0  0  0  0  0  0  0  0  0  0  0  0
    9.4051   -2.1799    1.3107 C   0  0  0  0  0  0  0  0  0  0  0  0
  1  2  1  0
  1  3  1  0
  2  4  1  0
  2  5  2  0
  3  6  2  0
  3  7  1  0
  4  8  2  0
  4  9  1  0
  6 10  1  0
  7 11  1  0
  9 12  1  0
 10 13  1  0
 12 14  1  0
 13 15  1  0
 14 16  2  0
 14 17  1  0
 15 18  2  0
 15 19  1  0
 16 20  1  0
 17 21  2  0
 19 22  1  0
 19 23  2  0
 20 24  2  0
 22 25  1  0
 23 26  1  0
 23 27  1  0
 24 28  1  0
 25 29  2  0
 26 30  2  0
 28 31  1  0
 28 32  1  0
 29 33  1  0
 30 34  1  0
 31 35  1  0
 32 36  1  0
 35 37  1  0
 37 38  1  0
  5  6  1  0
 11 13  1  0
 21 24  1  0
 25 26  1  0
 33 34  2  0
 36 37  1  0
M  END
>  <Molecule Name>  (1) 
CTX-1019758

>  <SMILES>  (1) 
CN1CCN(CC1)C1=CC=C(CNC(=O)C2=CC3=C(CCN(C3)C(=O)C3=C(C)C4=C(O3)C=CC=C4)S2)C=C1

>  <Batch Name>  (1) 
CTX-1019758-1

>  <Batch Created Date>  (1) 
2021-09-09

>  <Batch ID>  (1) 
CTX-1019758-1

>  <External ID>  (1) 
S04-04-0004

>  <Stereochemistry>  (1) 
Achiral

>  <Amount 1>  (1) 
4.9

>  <Unit 1>  (1) 
mg

>  <CRO 1>  (1) 
Pharmaron

>  <CRO 1 Total Amount>  (1) 
64.3

>  <CRO 1 Unit>  (1) 
mg

>  <pIC50>  (1) 
6.101824

>  <SMILES_std>  (1) 
Cc1c(C(=O)N2CCc3sc(C(=O)NCc4ccc(N5CCN(C)CC5)cc4)cc3C2)oc2ccccc12

>  <embed_status>  (1) 
0

>  <mmff_status>  (1) 
0

$$$$
