CTX-1020697
     RDKit          3D

 39 44  0  0  0  0  0  0  0  0999 V2000
    1.5254   -2.9215   -3.2827 O   0  0  0  0  0  0  0  0  0  0  0  0
    0.8750   -1.9944   -2.8139 C   0  0  0  0  0  0  0  0  0  0  0  0
    1.1385   -0.6631   -3.0476 N   0  0  0  0  0  0  0  0  0  0  0  0
   -0.2948   -2.2365   -1.9073 C   0  0  0  0  0  0  0  0  0  0  0  0
    2.3192   -0.2086   -3.7360 C   0  0  0  0  0  0  0  0  0  0  0  0
   -0.9167   -1.1255   -1.4173 N   0  0  0  0  0  0  0  0  0  0  0  0
   -0.6758   -3.5364   -1.6039 C   0  0  0  0  0  0  0  0  0  0  0  0
    3.3808    0.2182   -2.7565 C   0  0  0  0  0  0  0  0  0  0  0  0
   -1.9769   -1.3286   -0.5980 C   0  0  0  0  0  0  0  0  0  0  0  0
   -1.7619   -3.7206   -0.7557 C   0  0  0  0  0  0  0  0  0  0  0  0
    4.2345   -0.7310   -2.1817 C   0  0  0  0  0  0  0  0  0  0  0  0
    3.5080    1.5583   -2.3737 C   0  0  0  0  0  0  0  0  0  0  0  0
   -2.4309   -2.6045   -0.2516 C   0  0  0  0  0  0  0  0  0  0  0  0
   -2.6413   -0.1145    0.0161 C   0  0  0  0  0  0  0  0  0  0  0  0
    5.2075   -0.3460   -1.2557 C   0  0  0  0  0  0  0  0  0  0  0  0
    4.4820    1.9427   -1.4477 C   0  0  0  0  0  0  0  0  0  0  0  0
   -3.6016   -2.7221    0.6787 C   0  0  0  0  0  0  0  0  0  0  0  0
   -4.0592   -0.2766    0.3513 N   0  0  0  0  0  0  0  0  0  0  0  0
    5.3463    0.9965   -0.8773 C   0  0  0  0  0  0  0  0  0  0  0  0
   -4.6289   -1.6277    0.3782 C   0  0  0  0  0  0  0  0  0  0  0  0
   -4.7710    0.8962    0.6374 C   0  0  0  0  0  0  0  0  0  0  0  0
    6.3906    1.4402    0.1336 C   0  0  0  0  0  0  0  0  0  0  0  0
   -4.1563    1.9534    0.8018 O   0  0  0  0  0  0  0  0  0  0  0  0
   -6.2246    0.8522    0.7436 C   0  0  0  0  0  0  0  0  0  0  0  0
    6.1590    0.8444    1.5368 C   0  0  0  0  0  0  0  0  0  0  0  0
    7.8231    1.1901   -0.3692 C   0  0  0  0  0  0  0  0  0  0  0  0
   -6.9339   -0.1304    0.1059 O   0  0  0  0  0  0  0  0  0  0  0  0
   -7.1069    1.7317    1.3665 C   0  0  0  0  0  0  0  0  0  0  0  0
    7.1681   -0.2514    1.8779 C   0  0  0  0  0  0  0  0  0  0  0  0
    8.8045    1.2458    0.7989 C   0  0  0  0  0  0  0  0  0  0  0  0
   -8.2525    0.0945    0.3348 C   0  0  0  0  0  0  0  0  0  0  0  0
   -8.4208    1.2324    1.1103 C   0  0  0  0  0  0  0  0  0  0  0  0
   -6.7431    2.9490    2.1370 C   0  0  0  0  0  0  0  0  0  0  0  0
    8.5704    0.1707    1.7722 N   0  0  0  0  0  0  0  0  0  0  0  0
   -9.2973   -0.6955   -0.1395 C   0  0  0  0  0  0  0  0  0  0  0  0
   -9.7321    1.6227    1.4425 C   0  0  0  0  0  0  0  0  0  0  0  0
    9.1460    0.5099    3.0708 C   0  0  0  0  0  0  0  0  0  0  0  0
  -10.5911   -0.2917    0.2044 C   0  0  0  0  0  0  0  0  0  0  0  0
  -10.8070    0.8480    0.9823 C   0  0  0  0  0  0  0  0  0  0  0  0
  1  2  2  0
  2  3  1  0
  2  4  1  0
  3  5  1  0
  4  6  2  0
  4  7  1  0
  5  8  1  0
  6  9  1  0
  7 10  2  0
  8 11  2  0
  8 12  1  0
  9 13  2  0
  9 14  1  0
 11 15  1  0
 12 16  2  0
 13 17  1  0
 14 18  1  0
 15 19  2  0
 17 20  1  0
 18 21  1  0
 19 22  1  0
 21 23  2  0
 21 24  1  0
 22 25  1  0
 22 26  1  0
 24 27  1  0
 24 28  2  0
 25 29  1  0
 26 30  1  0
 27 31  1  0
 28 32  1  0
 28 33  1  0
 29 34  1  0
 31 35  2  0
 32 36  2  0
 34 37  1  0
 35 38  1  0
 36 39  1  0
 10 13  1  0
 16 19  1  0
 18 20  1  0
 30 34  1  0
 31 32  1  0
 38 39  2  0
M  END
>  <Molecule Name>  (1) 
CTX-1020697

>  <SMILES>  (1) 
CN1CCC(CC1)C1=CC=C(CNC(=O)C2=CC=C3CCN(CC3=N2)C(=O)C2=C(C)C3=C(O2)C=CC=C3)C=C1

>  <Batch Name>  (1) 
CTX-1020697-1

>  <Batch Created Date>  (1) 
2021-12-09

>  <Batch ID>  (1) 
CTX-1020697-1

>  <External ID>  (1) 
CD-42-C

>  <Stereochemistry>  (1) 
Achiral

>  <Amount 1>  (1) 
2.1

>  <Unit 1>  (1) 
mg

>  <CRO 1>  (1) 
Pharmaron

>  <CRO 1 Total Amount>  (1) 
17.1

>  <CRO 1 Unit>  (1) 
mg

>  <pIC50>  (1) 
5.412289

>  <SMILES_std>  (1) 
Cc1c(C(=O)N2CCc3ccc(C(=O)NCc4ccc(C5CCN(C)CC5)cc4)nc3C2)oc2ccccc12

>  <embed_status>  (1) 
0

>  <mmff_status>  (1) 
0

$$$$
