CTX-1019471
     RDKit          3D

 32 36  0  0  0  0  0  0  0  0999 V2000
    4.8643    2.9087   -0.1263 O   0  0  0  0  0  0  0  0  0  0  0  0
    4.0874    1.9875   -0.3500 C   0  0  0  0  0  0  0  0  0  0  0  0
    4.3460    0.9480   -1.2162 N   0  0  0  0  0  0  0  0  0  0  0  0
    2.7534    1.8998    0.3293 C   0  0  0  0  0  0  0  0  0  0  0  0
    5.6253    0.7566   -1.8479 C   0  0  0  0  0  0  0  0  0  0  0  0
    1.9967    0.8058    0.0264 N   0  0  0  0  0  0  0  0  0  0  0  0
    2.3629    2.8929    1.2170 C   0  0  0  0  0  0  0  0  0  0  0  0
    6.4800   -0.1942   -1.0553 C   0  0  0  0  0  0  0  0  0  0  0  0
    0.7873    0.7127    0.6310 C   0  0  0  0  0  0  0  0  0  0  0  0
    1.1213    2.7722    1.8310 C   0  0  0  0  0  0  0  0  0  0  0  0
    6.5131   -1.5583   -1.3567 C   0  0  0  0  0  0  0  0  0  0  0  0
    7.2308    0.2649    0.0312 C   0  0  0  0  0  0  0  0  0  0  0  0
    0.3149    1.6740    1.5292 C   0  0  0  0  0  0  0  0  0  0  0  0
   -0.0454   -0.5243    0.3681 C   0  0  0  0  0  0  0  0  0  0  0  0
    7.3020   -2.3911   -0.5776 C   0  0  0  0  0  0  0  0  0  0  0  0
    7.9871   -0.6464    0.7502 C   0  0  0  0  0  0  0  0  0  0  0  0
   -1.0303    1.4664    2.1597 C   0  0  0  0  0  0  0  0  0  0  0  0
   -1.4952   -0.3366    0.4750 N   0  0  0  0  0  0  0  0  0  0  0  0
    8.0429   -1.9656    0.4675 N   0  0  0  0  0  0  0  0  0  0  0  0
   -2.0048    0.8660    1.1426 C   0  0  0  0  0  0  0  0  0  0  0  0
   -2.2981   -1.3542   -0.0580 C   0  0  0  0  0  0  0  0  0  0  0  0
   -1.7787   -2.4208   -0.3971 O   0  0  0  0  0  0  0  0  0  0  0  0
   -3.7340   -1.1434   -0.1990 C   0  0  0  0  0  0  0  0  0  0  0  0
   -4.2389    0.1255   -0.3007 O   0  0  0  0  0  0  0  0  0  0  0  0
   -4.7692   -2.0664   -0.3277 C   0  0  0  0  0  0  0  0  0  0  0  0
   -5.5822    0.0258   -0.4660 C   0  0  0  0  0  0  0  0  0  0  0  0
   -5.9682   -1.3065   -0.4891 C   0  0  0  0  0  0  0  0  0  0  0  0
   -4.6400   -3.5465   -0.3061 C   0  0  0  0  0  0  0  0  0  0  0  0
   -6.4583    1.1007   -0.5986 C   0  0  0  0  0  0  0  0  0  0  0  0
   -7.3346   -1.6001   -0.6598 C   0  0  0  0  0  0  0  0  0  0  0  0
   -7.8108    0.7871   -0.7642 C   0  0  0  0  0  0  0  0  0  0  0  0
   -8.2438   -0.5405   -0.7946 C   0  0  0  0  0  0  0  0  0  0  0  0
  1  2  2  0
  2  3  1  0
  2  4  1  0
  3  5  1  0
  4  6  2  0
  4  7  1  0
  5  8  1  0
  6  9  1  0
  7 10  2  0
  8 11  2  0
  8 12  1  0
  9 13  2  0
  9 14  1  0
 11 15  1  0
 12 16  2  0
 13 17  1  0
 14 18  1  0
 15 19  2  0
 17 20  1  0
 18 21  1  0
 21 22  2  0
 21 23  1  0
 23 24  1  0
 23 25  2  0
 24 26  1  0
 25 27  1  0
 25 28  1  0
 26 29  2  0
 27 30  2  0
 29 31  1  0
 30 32  1  0
 10 13  1  0
 16 19  1  0
 18 20  1  0
 26 27  1  0
 31 32  2  0
M  END
>  <Molecule Name>  (1) 
CTX-1019471

>  <SMILES>  (1) 
CC1=C(OC2=C1C=CC=C2)C(=O)N1CCC2=C(C1)N=C(C=C2)C(=O)NCC1=CC=NC=C1

>  <Batch Name>  (1) 
CTX-1019471-1

>  <Batch Created Date>  (1) 
2021-07-30

>  <Batch ID>  (1) 
CTX-1019471-1

>  <External ID>  (1) 
P841-0084

>  <Stereochemistry>  (1) 
Achiral

>  <Amount 1>  (1) 
2.9

>  <Unit 1>  (1) 
mg

>  <CRO 1>  (1) 
Pharmaron

>  <CRO 1 Total Amount>  (1) 
11.9

>  <CRO 1 Unit>  (1) 
mg

>  <pIC50>  (1) 
5.488117

>  <SMILES_std>  (1) 
Cc1c(C(=O)N2CCc3ccc(C(=O)NCc4ccncc4)nc3C2)oc2ccccc12

>  <embed_status>  (1) 
0

>  <mmff_status>  (1) 
0

$$$$
