CTX-1020566
     RDKit          3D

 33 37  0  0  0  0  0  0  0  0999 V2000
    4.2901    2.4500    2.4078 O   0  0  0  0  0  0  0  0  0  0  0  0
    3.5699    1.5243    2.0517 C   0  0  0  0  0  0  0  0  0  0  0  0
    3.8762    0.1923    2.2208 N   0  0  0  0  0  0  0  0  0  0  0  0
    2.2578    1.7683    1.3676 C   0  0  0  0  0  0  0  0  0  0  0  0
    5.1558   -0.2621    2.7000 C   0  0  0  0  0  0  0  0  0  0  0  0
    1.5662    0.6587    0.9800 N   0  0  0  0  0  0  0  0  0  0  0  0
    1.8186    3.0669    1.1595 C   0  0  0  0  0  0  0  0  0  0  0  0
    6.0610   -0.6290    1.5524 C   0  0  0  0  0  0  0  0  0  0  0  0
    0.3758    0.8562    0.3589 C   0  0  0  0  0  0  0  0  0  0  0  0
    0.6009    3.2498    0.5147 C   0  0  0  0  0  0  0  0  0  0  0  0
    6.8050    0.3630    0.8944 C   0  0  0  0  0  0  0  0  0  0  0  0
    6.1444   -1.9538    1.0998 C   0  0  0  0  0  0  0  0  0  0  0  0
   -0.1323    2.1362    0.0922 C   0  0  0  0  0  0  0  0  0  0  0  0
   -0.3785   -0.3875   -0.0738 C   0  0  0  0  0  0  0  0  0  0  0  0
    7.6305    0.0362   -0.1834 C   0  0  0  0  0  0  0  0  0  0  0  0
    6.9699   -2.2808    0.0226 C   0  0  0  0  0  0  0  0  0  0  0  0
   -1.4691    2.3130   -0.5816 C   0  0  0  0  0  0  0  0  0  0  0  0
   -1.7293   -0.1254   -0.5627 N   0  0  0  0  0  0  0  0  0  0  0  0
    7.7065   -1.2858   -0.6086 C   0  0  0  0  0  0  0  0  0  0  0  0
   -1.8615    1.0756   -1.3850 C   0  0  0  0  0  0  0  0  0  0  0  0
   -2.5973   -1.2197   -0.6439 C   0  0  0  0  0  0  0  0  0  0  0  0
    8.4992   -1.6498   -1.6569 O   0  0  0  0  0  0  0  0  0  0  0  0
   -2.1780   -2.3592   -0.4308 O   0  0  0  0  0  0  0  0  0  0  0  0
   -3.9980   -0.9770   -0.9563 C   0  0  0  0  0  0  0  0  0  0  0  0
   -4.5678    0.2242   -0.6249 O   0  0  0  0  0  0  0  0  0  0  0  0
   -4.9643   -1.8209   -1.4951 C   0  0  0  0  0  0  0  0  0  0  0  0
   -5.8784    0.1678   -0.9742 C   0  0  0  0  0  0  0  0  0  0  0  0
   -6.1809   -1.0722   -1.5192 C   0  0  0  0  0  0  0  0  0  0  0  0
   -4.7605   -3.2223   -1.9435 C   0  0  0  0  0  0  0  0  0  0  0  0
   -6.7995    1.1999   -0.8099 C   0  0  0  0  0  0  0  0  0  0  0  0
   -7.5052   -1.3115   -1.9330 C   0  0  0  0  0  0  0  0  0  0  0  0
   -8.1078    0.9424   -1.2307 C   0  0  0  0  0  0  0  0  0  0  0  0
   -8.4569   -0.2920   -1.7833 C   0  0  0  0  0  0  0  0  0  0  0  0
  1  2  2  0
  2  3  1  0
  2  4  1  0
  3  5  1  0
  4  6  2  0
  4  7  1  0
  5  8  1  0
  6  9  1  0
  7 10  2  0
  8 11  2  0
  8 12  1  0
  9 13  2  0
  9 14  1  0
 11 15  1  0
 12 16  2  0
 13 17  1  0
 14 18  1  0
 15 19  2  0
 17 20  1  0
 18 21  1  0
 19 22  1  0
 21 23  2  0
 21 24  1  0
 24 25  1  0
 24 26  2  0
 25 27  1  0
 26 28  1  0
 26 29  1  0
 27 30  2  0
 28 31  2  0
 30 32  1  0
 31 33  1  0
 10 13  1  0
 16 19  1  0
 18 20  1  0
 27 28  1  0
 32 33  2  0
M  END
>  <Molecule Name>  (1) 
CTX-1020566

>  <SMILES>  (1) 
CC1=C(OC2=C1C=CC=C2)C(=O)N1CCC2=C(C1)N=C(C=C2)C(=O)NCC1=CC=C(O)C=C1

>  <Batch Name>  (1) 
CTX-1020566-1

>  <Batch Created Date>  (1) 
2021-11-18

>  <Batch ID>  (1) 
CTX-1020566-1

>  <External ID>  (1) 
P841-0232

>  <Stereochemistry>  (1) 
Achiral

>  <Amount 1>  (1) 
3.9

>  <Unit 1>  (1) 
mg

>  <CRO 1>  (1) 
Pharmaron

>  <CRO 1 Total Amount>  (1) 
22.5

>  <CRO 1 Unit>  (1) 
mg

>  <pIC50>  (1) 
5.411168

>  <SMILES_std>  (1) 
Cc1c(C(=O)N2CCc3ccc(C(=O)NCc4ccc(O)cc4)nc3C2)oc2ccccc12

>  <embed_status>  (1) 
0

>  <mmff_status>  (1) 
0

$$$$
