CTX-1020454
     RDKit          3D

 40 45  0  0  0  0  0  0  0  0999 V2000
   -9.0108   -0.3336   -2.2657 F   0  0  0  0  0  0  0  0  0  0  0  0
   -9.1978    0.5014   -1.2359 C   0  0  0  0  0  0  0  0  0  0  0  0
   -8.1375    0.9578   -0.4585 C   0  0  0  0  0  0  0  0  0  0  0  0
  -10.4791    0.9451   -0.9132 C   0  0  0  0  0  0  0  0  0  0  0  0
   -6.8288    0.6327   -0.6168 O   0  0  0  0  0  0  0  0  0  0  0  0
   -8.2918    1.8286    0.6118 C   0  0  0  0  0  0  0  0  0  0  0  0
  -10.6765    1.8179    0.1583 C   0  0  0  0  0  0  0  0  0  0  0  0
   -6.1104    1.3027    0.3364 C   0  0  0  0  0  0  0  0  0  0  0  0
   -6.9792    2.0457    1.1336 C   0  0  0  0  0  0  0  0  0  0  0  0
   -9.5931    2.2680    0.9305 C   0  0  0  0  0  0  0  0  0  0  0  0
   -4.6665    1.1169    0.4388 C   0  0  0  0  0  0  0  0  0  0  0  0
   -6.6040    2.8895    2.2984 C   0  0  0  0  0  0  0  0  0  0  0  0
   -4.0712    1.3777    1.4877 O   0  0  0  0  0  0  0  0  0  0  0  0
   -3.9427    0.6415   -0.6633 N   0  0  0  0  0  0  0  0  0  0  0  0
   -2.5513    0.2524   -0.4117 C   0  0  0  0  0  0  0  0  0  0  0  0
   -4.4736    0.5199   -2.0258 C   0  0  0  0  0  0  0  0  0  0  0  0
   -1.9058   -0.5809   -1.4986 C   0  0  0  0  0  0  0  0  0  0  0  0
   -3.4004    0.5843   -3.1158 C   0  0  0  0  0  0  0  0  0  0  0  0
   -0.9132   -1.4318   -1.1424 N   0  0  0  0  0  0  0  0  0  0  0  0
   -2.3053   -0.3985   -2.8256 C   0  0  0  0  0  0  0  0  0  0  0  0
   -0.3055   -2.1250   -2.1482 C   0  0  0  0  0  0  0  0  0  0  0  0
   -1.6521   -1.1099   -3.8327 C   0  0  0  0  0  0  0  0  0  0  0  0
    0.7898   -3.0632   -1.7370 C   0  0  0  0  0  0  0  0  0  0  0  0
   -0.6358   -1.9947   -3.4902 C   0  0  0  0  0  0  0  0  0  0  0  0
    1.4221   -3.7121   -2.5626 O   0  0  0  0  0  0  0  0  0  0  0  0
    1.0098   -3.1086   -0.3782 N   0  0  0  0  0  0  0  0  0  0  0  0
    2.1279   -3.7997    0.2103 C   0  0  0  0  0  0  0  0  0  0  0  0
    3.2557   -2.8467    0.5024 C   0  0  0  0  0  0  0  0  0  0  0  0
    4.1647   -2.4949   -0.4972 C   0  0  0  0  0  0  0  0  0  0  0  0
    3.3983   -2.2617    1.7616 C   0  0  0  0  0  0  0  0  0  0  0  0
    5.2022   -1.5905   -0.2327 C   0  0  0  0  0  0  0  0  0  0  0  0
    4.4418   -1.3595    2.0142 C   0  0  0  0  0  0  0  0  0  0  0  0
    5.3730   -0.9971    1.0281 C   0  0  0  0  0  0  0  0  0  0  0  0
    6.4029   -0.1073    1.2828 N   0  0  0  0  0  0  0  0  0  0  0  0
    7.0757    0.6233    0.1960 C   0  0  0  0  0  0  0  0  0  0  0  0
    6.8293    0.2201    2.6529 C   0  0  0  0  0  0  0  0  0  0  0  0
    7.6491    1.9712    0.6960 C   0  0  0  0  0  0  0  0  0  0  0  0
    8.3040    0.6857    2.6651 C   0  0  0  0  0  0  0  0  0  0  0  0
    8.5676    1.8930    1.8516 N   0  0  0  0  0  0  0  0  0  0  0  0
    9.9670    1.9350    1.4369 C   0  0  0  0  0  0  0  0  0  0  0  0
  1  2  1  0
  2  3  2  0
  2  4  1  0
  3  5  1  0
  3  6  1  0
  4  7  2  0
  5  8  1  0
  6  9  1  0
  6 10  2  0
  8 11  1  0
  9 12  1  0
 11 13  2  0
 11 14  1  0
 14 15  1  0
 14 16  1  0
 15 17  1  0
 16 18  1  0
 17 19  2  0
 17 20  1  0
 19 21  1  0
 20 22  2  0
 21 23  1  0
 21 24  2  0
 23 25  2  0
 23 26  1  0
 26 27  1  0
 27 28  1  0
 28 29  2  0
 28 30  1  0
 29 31  1  0
 30 32  2  0
 31 33  2  0
 33 34  1  0
 34 35  1  0
 34 36  1  0
 35 37  1  0
 36 38  1  0
 37 39  1  0
 39 40  1  0
  7 10  1  0
  8  9  2  0
 18 20  1  0
 22 24  1  0
 32 33  1  0
 38 39  1  0
M  END
>  <Molecule Name>  (1) 
CTX-1020454

>  <SMILES>  (1) 
CN1CCN(CC1)C1=CC=C(CNC(=O)C2=CC=C3CCN(CC3=N2)C(=O)C2=C(C)C3=CC=CC(F)=C3O2)C=C1

>  <Batch Name>  (1) 
CTX-1020454-1

>  <Batch Created Date>  (1) 
2021-10-21

>  <Batch ID>  (1) 
CTX-1020454-1

>  <External ID>  (1) 
P841-0210

>  <Stereochemistry>  (1) 
Achiral

>  <Amount 1>  (1) 
4.9

>  <Unit 1>  (1) 
mg

>  <CRO 1>  (1) 
Pharmaron

>  <CRO 1 Total Amount>  (1) 
34.7

>  <CRO 1 Unit>  (1) 
mg

>  <pIC50>  (1) 
5.567031

>  <SMILES_std>  (1) 
Cc1c(C(=O)N2CCc3ccc(C(=O)NCc4ccc(N5CCN(C)CC5)cc4)nc3C2)oc2c(F)cccc12

>  <embed_status>  (1) 
0

>  <mmff_status>  (1) 
0

$$$$
