CTX-1020516
     RDKit          3D

 31 35  0  0  0  0  0  0  0  0999 V2000
    2.0382    0.1239   -0.2982 S   0  0  0  0  0  0  0  0  0  0  0  0
    2.6000   -1.3815    0.3056 C   0  0  0  0  0  0  0  0  0  0  0  0
    0.4310   -0.4153   -0.3279 C   0  0  0  0  0  0  0  0  0  0  0  0
    4.0079   -1.6374    0.5839 C   0  0  0  0  0  0  0  0  0  0  0  0
    1.5510   -2.2699    0.4774 C   0  0  0  0  0  0  0  0  0  0  0  0
    0.2845   -1.7156    0.1152 C   0  0  0  0  0  0  0  0  0  0  0  0
   -0.7089    0.4470   -0.7705 C   0  0  0  0  0  0  0  0  0  0  0  0
    4.4180   -2.7176    1.0043 O   0  0  0  0  0  0  0  0  0  0  0  0
    4.8680   -0.5883    0.3524 N   0  0  0  0  0  0  0  0  0  0  0  0
   -1.0443   -2.4160    0.1770 C   0  0  0  0  0  0  0  0  0  0  0  0
   -1.9074   -0.4543   -1.1005 C   0  0  0  0  0  0  0  0  0  0  0  0
    6.2737   -0.6850    0.6500 C   0  0  0  0  0  0  0  0  0  0  0  0
   -2.1317   -1.4580   -0.0432 N   0  0  0  0  0  0  0  0  0  0  0  0
    6.9939    0.5672    0.2305 C   0  0  0  0  0  0  0  0  0  0  0  0
   -3.4042   -1.8432    0.3930 C   0  0  0  0  0  0  0  0  0  0  0  0
    7.1715    1.6240    1.1344 C   0  0  0  0  0  0  0  0  0  0  0  0
    7.4523    0.7147   -1.0864 C   0  0  0  0  0  0  0  0  0  0  0  0
   -3.6001   -2.9928    0.7937 O   0  0  0  0  0  0  0  0  0  0  0  0
   -4.4725   -0.8544    0.3865 C   0  0  0  0  0  0  0  0  0  0  0  0
    7.8127    2.7972    0.7336 C   0  0  0  0  0  0  0  0  0  0  0  0
    8.0932    1.8886   -1.4851 C   0  0  0  0  0  0  0  0  0  0  0  0
   -4.1658    0.4753    0.5098 O   0  0  0  0  0  0  0  0  0  0  0  0
   -5.8544   -1.0152    0.3566 C   0  0  0  0  0  0  0  0  0  0  0  0
    8.2746    2.9283   -0.5749 C   0  0  0  0  0  0  0  0  0  0  0  0
   -5.3337    1.1668    0.5276 C   0  0  0  0  0  0  0  0  0  0  0  0
   -6.4119    0.2980    0.4341 C   0  0  0  0  0  0  0  0  0  0  0  0
   -6.5908   -2.3024    0.2702 C   0  0  0  0  0  0  0  0  0  0  0  0
   -5.4466    2.5516    0.6292 C   0  0  0  0  0  0  0  0  0  0  0  0
   -7.7092    0.8447    0.4451 C   0  0  0  0  0  0  0  0  0  0  0  0
   -6.7437    3.0737    0.6346 C   0  0  0  0  0  0  0  0  0  0  0  0
   -7.8577    2.2360    0.5442 C   0  0  0  0  0  0  0  0  0  0  0  0
  1  2  1  0
  1  3  1  0
  2  4  1  0
  2  5  2  0
  3  6  2  0
  3  7  1  0
  4  8  2  0
  4  9  1  0
  6 10  1  0
  7 11  1  0
  9 12  1  0
 10 13  1  0
 12 14  1  0
 13 15  1  0
 14 16  2  0
 14 17  1  0
 15 18  2  0
 15 19  1  0
 16 20  1  0
 17 21  2  0
 19 22  1  0
 19 23  2  0
 20 24  2  0
 22 25  1  0
 23 26  1  0
 23 27  1  0
 25 28  2  0
 26 29  2  0
 28 30  1  0
 29 31  1  0
  5  6  1  0
 11 13  1  0
 21 24  1  0
 25 26  1  0
 30 31  2  0
M  END
>  <Molecule Name>  (1) 
CTX-1020516

>  <SMILES>  (1) 
CC1=C(OC2=C1C=CC=C2)C(=O)N1CCC2=C(C1)C=C(S2)C(=O)NCC1=CC=CC=C1

>  <Batch Name>  (1) 
CTX-1020516-1

>  <Batch Created Date>  (1) 
2021-11-04

>  <Batch ID>  (1) 
CTX-1020516-1

>  <External ID>  (1) 
610EDL073-C

>  <Stereochemistry>  (1) 
Achiral

>  <Amount 1>  (1) 
6.65

>  <Unit 1>  (1) 
mg

>  <CRO 1>  (1) 
Pharmaron

>  <CRO 1 Total Amount>  (1) 
6.4

>  <CRO 1 Unit>  (1) 
mg

>  <pIC50>  (1) 
6.124939

>  <SMILES_std>  (1) 
Cc1c(C(=O)N2CCc3sc(C(=O)NCc4ccccc4)cc3C2)oc2ccccc12

>  <embed_status>  (1) 
0

>  <mmff_status>  (1) 
0

$$$$
