CTX-1020759
     RDKit          3D

 41 46  0  0  0  0  0  0  0  0999 V2000
    2.4133   -4.0998   -2.7721 O   0  0  0  0  0  0  0  0  0  0  0  0
    1.6828   -3.1205   -2.6735 C   0  0  0  0  0  0  0  0  0  0  0  0
    2.0102   -1.8583   -3.1174 N   0  0  0  0  0  0  0  0  0  0  0  0
    0.3314   -3.2113   -2.0298 C   0  0  0  0  0  0  0  0  0  0  0  0
    3.3303   -1.5120   -3.5779 C   0  0  0  0  0  0  0  0  0  0  0  0
   -0.3873   -2.0537   -1.9723 N   0  0  0  0  0  0  0  0  0  0  0  0
   -0.1144   -4.4245   -1.5282 C   0  0  0  0  0  0  0  0  0  0  0  0
    4.1285   -0.8619   -2.4792 C   0  0  0  0  0  0  0  0  0  0  0  0
   -1.6069   -2.1097   -1.3802 C   0  0  0  0  0  0  0  0  0  0  0  0
   -1.3699   -4.4641   -0.9330 C   0  0  0  0  0  0  0  0  0  0  0  0
    4.8034   -1.6411   -1.5368 C   0  0  0  0  0  0  0  0  0  0  0  0
    4.1709    0.5282   -2.3449 C   0  0  0  0  0  0  0  0  0  0  0  0
   -2.1402   -3.2988   -0.8641 C   0  0  0  0  0  0  0  0  0  0  0  0
   -2.3972   -0.8166   -1.3345 C   0  0  0  0  0  0  0  0  0  0  0  0
    5.5249   -1.0366   -0.5005 C   0  0  0  0  0  0  0  0  0  0  0  0
    4.8951    1.1244   -1.3026 C   0  0  0  0  0  0  0  0  0  0  0  0
   -3.4868   -3.3125   -0.1899 C   0  0  0  0  0  0  0  0  0  0  0  0
   -3.6138   -0.8799   -0.5267 N   0  0  0  0  0  0  0  0  0  0  0  0
    5.6039    0.3594   -0.3647 C   0  0  0  0  0  0  0  0  0  0  0  0
   -4.3554   -2.1363   -0.6304 C   0  0  0  0  0  0  0  0  0  0  0  0
   -4.2222    0.3382   -0.2267 C   0  0  0  0  0  0  0  0  0  0  0  0
    6.3339    0.9165    0.6982 N   0  0  0  0  0  0  0  0  0  0  0  0
   -3.7954    1.3964   -0.6875 O   0  0  0  0  0  0  0  0  0  0  0  0
   -5.3562    0.3268    0.6773 C   0  0  0  0  0  0  0  0  0  0  0  0
    6.1280    2.3446    1.0125 C   0  0  0  0  0  0  0  0  0  0  0  0
    7.7586    0.5094    0.7354 C   0  0  0  0  0  0  0  0  0  0  0  0
   -6.4810    1.1240    0.5541 N   0  0  0  0  0  0  0  0  0  0  0  0
   -5.5034   -0.3794    1.8612 C   0  0  0  0  0  0  0  0  0  0  0  0
    6.8345    2.7286    2.3350 C   0  0  0  0  0  0  0  0  0  0  0  0
    8.4302    0.9559    2.0579 C   0  0  0  0  0  0  0  0  0  0  0  0
   -7.3433    0.9144    1.6183 C   0  0  0  0  0  0  0  0  0  0  0  0
   -6.7618    2.0263   -0.5611 C   0  0  0  0  0  0  0  0  0  0  0  0
   -6.7443   -0.0319    2.4502 C   0  0  0  0  0  0  0  0  0  0  0  0
    8.2718    2.3841    2.4109 N   0  0  0  0  0  0  0  0  0  0  0  0
   -8.5916    1.4814    1.9281 C   0  0  0  0  0  0  0  0  0  0  0  0
   -6.2519    3.4443   -0.3086 C   0  0  0  0  0  0  0  0  0  0  0  0
   -7.4056   -0.4304    3.6283 C   0  0  0  0  0  0  0  0  0  0  0  0
    9.0803    3.2439    1.5503 C   0  0  0  0  0  0  0  0  0  0  0  0
   -9.2325    1.0682    3.1004 C   0  0  0  0  0  0  0  0  0  0  0  0
   -5.0685    3.7180   -1.0543 O   0  0  0  0  0  0  0  0  0  0  0  0
   -8.6499    0.1251    3.9406 C   0  0  0  0  0  0  0  0  0  0  0  0
  1  2  2  0
  2  3  1  0
  2  4  1  0
  3  5  1  0
  4  6  2  0
  4  7  1  0
  5  8  1  0
  6  9  1  0
  7 10  2  0
  8 11  2  0
  8 12  1  0
  9 13  2  0
  9 14  1  0
 11 15  1  0
 12 16  2  0
 13 17  1  0
 14 18  1  0
 15 19  2  0
 17 20  1  0
 18 21  1  0
 19 22  1  0
 21 23  2  0
 21 24  1  0
 22 25  1  0
 22 26  1  0
 24 27  1  0
 24 28  2  0
 25 29  1  0
 26 30  1  0
 27 31  1  0
 27 32  1  0
 28 33  1  0
 29 34  1  0
 31 35  2  0
 32 36  1  0
 33 37  2  0
 34 38  1  0
 35 39  1  0
 36 40  1  0
 37 41  1  0
 10 13  1  0
 16 19  1  0
 18 20  1  0
 30 34  1  0
 31 33  1  0
 39 41  2  0
M  END
>  <Molecule Name>  (1) 
CTX-1020759

>  <SMILES>  (1) 
CN1CCN(CC1)C1=CC=C(CNC(=O)C2=NC3=C(CCN(C3)C(=O)C3=CC4=C(C=CC=C4)N3CCO)C=C2)C=C1

>  <Batch Name>  (1) 
CTX-1020759-1

>  <Batch Created Date>  (1) 
2021-12-16

>  <Batch ID>  (1) 
CTX-1020759-1

>  <External ID>  (1) 
P841-0381

>  <Stereochemistry>  (1) 
Achiral

>  <Amount 1>  (1) 
5.05

>  <Unit 1>  (1) 
mg

>  <CRO 1>  (1) 
Pharmaron

>  <CRO 1 Total Amount>  (1) 
20.45

>  <CRO 1 Unit>  (1) 
mg

>  <pIC50>  (1) 
4.354578

>  <SMILES_std>  (1) 
CN1CCN(c2ccc(CNC(=O)c3ccc4c(n3)CN(C(=O)c3cc5ccccc5n3CCO)CC4)cc2)CC1

>  <embed_status>  (1) 
0

>  <mmff_status>  (1) 
0

$$$$
