CTX-1020732
     RDKit          3D

 38 43  0  0  0  0  0  0  0  0999 V2000
    6.5485   -0.5184   -2.8728 Cl  0  0  0  0  0  0  0  0  0  0  0  0
    7.6502    0.0404   -1.6802 C   0  0  0  0  0  0  0  0  0  0  0  0
    7.5473    1.2432   -1.0142 C   0  0  0  0  0  0  0  0  0  0  0  0
    8.7911   -0.7240   -1.2646 C   0  0  0  0  0  0  0  0  0  0  0  0
    8.8354    1.4846    0.0790 S   0  0  0  0  0  0  0  0  0  0  0  0
    6.5542    2.2827   -1.1646 C   0  0  0  0  0  0  0  0  0  0  0  0
    9.5127   -0.0317   -0.2963 C   0  0  0  0  0  0  0  0  0  0  0  0
    9.2947   -1.9904   -1.6397 C   0  0  0  0  0  0  0  0  0  0  0  0
    6.8150    3.3277   -1.7586 O   0  0  0  0  0  0  0  0  0  0  0  0
    5.2831    2.0470   -0.6209 N   0  0  0  0  0  0  0  0  0  0  0  0
   10.6353   -0.4497    0.3241 N   0  0  0  0  0  0  0  0  0  0  0  0
   10.4549   -2.4576   -1.0265 C   0  0  0  0  0  0  0  0  0  0  0  0
    5.0568    1.0255    0.4162 C   0  0  0  0  0  0  0  0  0  0  0  0
    4.2972    3.1383   -0.7030 C   0  0  0  0  0  0  0  0  0  0  0  0
   11.0670   -1.6625   -0.0742 C   0  0  0  0  0  0  0  0  0  0  0  0
    3.5953    0.7304    0.5737 C   0  0  0  0  0  0  0  0  0  0  0  0
    2.8734    2.6198   -0.9527 C   0  0  0  0  0  0  0  0  0  0  0  0
    2.6056    1.4684   -0.0412 C   0  0  0  0  0  0  0  0  0  0  0  0
    3.0257   -0.3137    1.3666 C   0  0  0  0  0  0  0  0  0  0  0  0
    1.0414    0.9193    0.3151 S   0  0  0  0  0  0  0  0  0  0  0  0
    1.6413   -0.3347    1.3209 C   0  0  0  0  0  0  0  0  0  0  0  0
    0.7652   -1.2720    2.0128 C   0  0  0  0  0  0  0  0  0  0  0  0
    1.1918   -2.1695    2.7368 O   0  0  0  0  0  0  0  0  0  0  0  0
   -0.5842   -1.0964    1.8115 N   0  0  0  0  0  0  0  0  0  0  0  0
   -1.5612   -1.9389    2.4518 C   0  0  0  0  0  0  0  0  0  0  0  0
   -2.9523   -1.5519    2.0342 C   0  0  0  0  0  0  0  0  0  0  0  0
   -3.5253   -2.0896    0.8779 C   0  0  0  0  0  0  0  0  0  0  0  0
   -3.6799   -0.6076    2.7622 C   0  0  0  0  0  0  0  0  0  0  0  0
   -4.8097   -1.7047    0.4707 C   0  0  0  0  0  0  0  0  0  0  0  0
   -4.9610   -0.2279    2.3465 C   0  0  0  0  0  0  0  0  0  0  0  0
   -5.5571   -0.7673    1.1947 C   0  0  0  0  0  0  0  0  0  0  0  0
   -6.8411   -0.3459    0.8271 N   0  0  0  0  0  0  0  0  0  0  0  0
   -6.9070    1.1046    0.5122 C   0  0  0  0  0  0  0  0  0  0  0  0
   -7.6798   -1.1990   -0.0393 C   0  0  0  0  0  0  0  0  0  0  0  0
   -8.1951    1.4552   -0.2675 C   0  0  0  0  0  0  0  0  0  0  0  0
   -7.7756   -0.6320   -1.4727 C   0  0  0  0  0  0  0  0  0  0  0  0
   -8.3120    0.7461   -1.5627 N   0  0  0  0  0  0  0  0  0  0  0  0
   -9.6950    0.7624   -2.0309 C   0  0  0  0  0  0  0  0  0  0  0  0
  1  2  1  0
  2  3  2  0
  2  4  1  0
  3  5  1  0
  3  6  1  0
  4  7  2  0
  4  8  1  0
  6  9  2  0
  6 10  1  0
  7 11  1  0
  8 12  2  0
 10 13  1  0
 10 14  1  0
 11 15  2  0
 13 16  1  0
 14 17  1  0
 16 18  2  0
 16 19  1  0
 18 20  1  0
 19 21  2  0
 21 22  1  0
 22 23  2  0
 22 24  1  0
 24 25  1  0
 25 26  1  0
 26 27  2  0
 26 28  1  0
 27 29  1  0
 28 30  2  0
 29 31  2  0
 31 32  1  0
 32 33  1  0
 32 34  1  0
 33 35  1  0
 34 36  1  0
 35 37  1  0
 37 38  1  0
  5  7  1  0
 12 15  1  0
 17 18  1  0
 20 21  1  0
 30 31  1  0
 36 37  1  0
M  END
>  <Molecule Name>  (1) 
CTX-1020732

>  <SMILES>  (1) 
CN1CCN(CC1)C1=CC=C(CNC(=O)C2=CC3=C(CCN(C3)C(=O)C3=C(Cl)C4=CC=CN=C4S3)S2)C=C1

>  <Batch Name>  (1) 
CTX-1020732-1

>  <Batch Created Date>  (1) 
2021-12-16

>  <Batch ID>  (1) 
CTX-1020732-1

>  <External ID>  (1) 
CD-44-2-I

>  <Stereochemistry>  (1) 
Achiral

>  <Amount 1>  (1) 
18.9

>  <Unit 1>  (1) 
mg

>  <CRO 1>  (1) 
Pharmaron

>  <CRO 1 Total Amount>  (1) 
32.2

>  <CRO 1 Unit>  (1) 
mg

>  <pIC50>  (1) 
5.031984

>  <SMILES_std>  (1) 
CN1CCN(c2ccc(CNC(=O)c3cc4c(s3)CCN(C(=O)c3sc5ncccc5c3Cl)C4)cc2)CC1

>  <embed_status>  (1) 
0

>  <mmff_status>  (1) 
0

$$$$
