CTX-1019480
     RDKit          3D

 32 36  0  0  0  0  0  0  0  0999 V2000
    4.7087   -3.1563   -0.4902 O   0  0  0  0  0  0  0  0  0  0  0  0
    3.9595   -2.2130   -0.7165 C   0  0  0  0  0  0  0  0  0  0  0  0
    4.2923   -1.1246   -1.4919 N   0  0  0  0  0  0  0  0  0  0  0  0
    2.5759   -2.1542   -0.1411 C   0  0  0  0  0  0  0  0  0  0  0  0
    5.6238   -0.8970   -1.9912 C   0  0  0  0  0  0  0  0  0  0  0  0
    1.8513   -1.0353   -0.4292 N   0  0  0  0  0  0  0  0  0  0  0  0
    2.1074   -3.2012    0.6379 C   0  0  0  0  0  0  0  0  0  0  0  0
    6.3683    0.0748   -1.1130 C   0  0  0  0  0  0  0  0  0  0  0  0
    0.5963   -0.9613    0.0820 C   0  0  0  0  0  0  0  0  0  0  0  0
    0.8224   -3.1044    1.1590 C   0  0  0  0  0  0  0  0  0  0  0  0
    6.3999    1.4421   -1.4213 C   0  0  0  0  0  0  0  0  0  0  0  0
    7.0097   -0.3737    0.0507 C   0  0  0  0  0  0  0  0  0  0  0  0
    0.0527   -1.9670    0.8949 C   0  0  0  0  0  0  0  0  0  0  0  0
   -0.1941    0.2936   -0.2390 C   0  0  0  0  0  0  0  0  0  0  0  0
    7.0755    2.3387   -0.5913 C   0  0  0  0  0  0  0  0  0  0  0  0
    7.6842    0.5239    0.8793 C   0  0  0  0  0  0  0  0  0  0  0  0
   -1.3536   -1.8564    1.4260 C   0  0  0  0  0  0  0  0  0  0  0  0
   -1.5936    0.2392    0.1745 N   0  0  0  0  0  0  0  0  0  0  0  0
    7.7186    1.8793    0.5569 C   0  0  0  0  0  0  0  0  0  0  0  0
   -1.8270   -0.4055    1.4653 C   0  0  0  0  0  0  0  0  0  0  0  0
   -2.4568    1.1876   -0.3849 C   0  0  0  0  0  0  0  0  0  0  0  0
   -2.0073    2.0945   -1.0885 O   0  0  0  0  0  0  0  0  0  0  0  0
   -3.8858    1.0603   -0.1392 C   0  0  0  0  0  0  0  0  0  0  0  0
   -4.4229   -0.1751    0.1103 O   0  0  0  0  0  0  0  0  0  0  0  0
   -4.9009    2.0106   -0.1908 C   0  0  0  0  0  0  0  0  0  0  0  0
   -5.7644   -0.0198    0.2493 C   0  0  0  0  0  0  0  0  0  0  0  0
   -6.1178    1.3110    0.0753 C   0  0  0  0  0  0  0  0  0  0  0  0
   -4.7392    3.4595   -0.4759 C   0  0  0  0  0  0  0  0  0  0  0  0
   -6.6683   -1.0438    0.5233 C   0  0  0  0  0  0  0  0  0  0  0  0
   -7.4789    1.6563    0.1782 C   0  0  0  0  0  0  0  0  0  0  0  0
   -8.0141   -0.6783    0.6248 C   0  0  0  0  0  0  0  0  0  0  0  0
   -8.4148    0.6490    0.4554 C   0  0  0  0  0  0  0  0  0  0  0  0
  1  2  2  0
  2  3  1  0
  2  4  1  0
  3  5  1  0
  4  6  2  0
  4  7  1  0
  5  8  1  0
  6  9  1  0
  7 10  2  0
  8 11  2  0
  8 12  1  0
  9 13  2  0
  9 14  1  0
 11 15  1  0
 12 16  2  0
 13 17  1  0
 14 18  1  0
 15 19  2  0
 17 20  1  0
 18 21  1  0
 21 22  2  0
 21 23  1  0
 23 24  1  0
 23 25  2  0
 24 26  1  0
 25 27  1  0
 25 28  1  0
 26 29  2  0
 27 30  2  0
 29 31  1  0
 30 32  1  0
 10 13  1  0
 16 19  1  0
 18 20  1  0
 26 27  1  0
 31 32  2  0
M  END
>  <Molecule Name>  (1) 
CTX-1019480

>  <SMILES>  (1) 
CC1=C(OC2=C1C=CC=C2)C(=O)N1CCC2=C(C1)N=C(C=C2)C(=O)NCC1=CC=CC=C1

>  <Batch Name>  (1) 
CTX-1019480-1

>  <Batch Created Date>  (1) 
2021-07-30

>  <Batch ID>  (1) 
CTX-1019480-1

>  <External ID>  (1) 
P841-0093

>  <Stereochemistry>  (1) 
Achiral

>  <Amount 1>  (1) 
3.1

>  <Unit 1>  (1) 
mg

>  <CRO 1>  (1) 
Pharmaron

>  <CRO 1 Total Amount>  (1) 
12.2

>  <CRO 1 Unit>  (1) 
mg

>  <pIC50>  (1) 
6.366532

>  <SMILES_std>  (1) 
Cc1c(C(=O)N2CCc3ccc(C(=O)NCc4ccccc4)nc3C2)oc2ccccc12

>  <embed_status>  (1) 
0

>  <mmff_status>  (1) 
0

$$$$
