CTX-1020748
     RDKit          3D

 39 44  0  0  0  0  0  0  0  0999 V2000
   -6.2851   -1.1721    2.1752 Cl  0  0  0  0  0  0  0  0  0  0  0  0
   -6.9119    0.3190    1.6300 C   0  0  0  0  0  0  0  0  0  0  0  0
   -6.2315    1.3207    0.9604 C   0  0  0  0  0  0  0  0  0  0  0  0
   -8.2570    0.7370    1.8302 C   0  0  0  0  0  0  0  0  0  0  0  0
   -7.1227    2.3677    0.8105 N   0  0  0  0  0  0  0  0  0  0  0  0
   -4.8420    1.3763    0.5606 C   0  0  0  0  0  0  0  0  0  0  0  0
   -8.3666    2.0285    1.3076 C   0  0  0  0  0  0  0  0  0  0  0  0
   -9.3931    0.1444    2.4237 C   0  0  0  0  0  0  0  0  0  0  0  0
   -6.7878    3.6417    0.2045 C   0  0  0  0  0  0  0  0  0  0  0  0
   -4.1316    2.3286    0.8817 O   0  0  0  0  0  0  0  0  0  0  0  0
   -4.3377    0.3328   -0.2199 N   0  0  0  0  0  0  0  0  0  0  0  0
   -9.5734    2.7471    1.3597 C   0  0  0  0  0  0  0  0  0  0  0  0
  -10.5987    0.8501    2.4724 C   0  0  0  0  0  0  0  0  0  0  0  0
   -2.9087    0.4158   -0.5385 C   0  0  0  0  0  0  0  0  0  0  0  0
   -5.1782   -0.4355   -1.1608 C   0  0  0  0  0  0  0  0  0  0  0  0
  -10.6844    2.1343    1.9469 C   0  0  0  0  0  0  0  0  0  0  0  0
   -2.4006   -0.8874   -1.0823 C   0  0  0  0  0  0  0  0  0  0  0  0
   -4.7178   -1.8945   -1.2979 C   0  0  0  0  0  0  0  0  0  0  0  0
   -3.2323   -1.9264   -1.4436 C   0  0  0  0  0  0  0  0  0  0  0  0
   -1.0307   -1.2289   -1.3208 C   0  0  0  0  0  0  0  0  0  0  0  0
   -2.3987   -3.2684   -2.0565 S   0  0  0  0  0  0  0  0  0  0  0  0
   -0.8743   -2.5042   -1.8426 C   0  0  0  0  0  0  0  0  0  0  0  0
    0.3361   -3.2265   -2.2173 C   0  0  0  0  0  0  0  0  0  0  0  0
    0.3523   -4.2465   -2.9037 O   0  0  0  0  0  0  0  0  0  0  0  0
    1.5082   -2.6868   -1.7254 N   0  0  0  0  0  0  0  0  0  0  0  0
    2.7664   -3.3652   -1.9204 C   0  0  0  0  0  0  0  0  0  0  0  0
    3.9024   -2.5250   -1.4073 C   0  0  0  0  0  0  0  0  0  0  0  0
    4.4009   -2.7037   -0.1160 C   0  0  0  0  0  0  0  0  0  0  0  0
    4.4484   -1.5088   -2.1937 C   0  0  0  0  0  0  0  0  0  0  0  0
    5.4372   -1.8917    0.3653 C   0  0  0  0  0  0  0  0  0  0  0  0
    5.4833   -0.7025   -1.6998 C   0  0  0  0  0  0  0  0  0  0  0  0
    6.0118   -0.8722   -0.4109 C   0  0  0  0  0  0  0  0  0  0  0  0
    7.0308   -0.0727    0.0790 N   0  0  0  0  0  0  0  0  0  0  0  0
    7.4034    1.1978   -0.5649 C   0  0  0  0  0  0  0  0  0  0  0  0
    7.9189   -0.5412    1.1578 C   0  0  0  0  0  0  0  0  0  0  0  0
    8.1332    2.1186    0.4404 C   0  0  0  0  0  0  0  0  0  0  0  0
    9.3325    0.0772    1.0358 C   0  0  0  0  0  0  0  0  0  0  0  0
    9.3892    1.5528    0.9792 N   0  0  0  0  0  0  0  0  0  0  0  0
    9.6969    2.1359    2.2820 C   0  0  0  0  0  0  0  0  0  0  0  0
  1  2  1  0
  2  3  2  0
  2  4  1  0
  3  5  1  0
  3  6  1  0
  4  7  2  0
  4  8  1  0
  5  9  1  0
  6 10  2  0
  6 11  1  0
  7 12  1  0
  8 13  2  0
 11 14  1  0
 11 15  1  0
 12 16  2  0
 14 17  1  0
 15 18  1  0
 17 19  2  0
 17 20  1  0
 19 21  1  0
 20 22  2  0
 22 23  1  0
 23 24  2  0
 23 25  1  0
 25 26  1  0
 26 27  1  0
 27 28  2  0
 27 29  1  0
 28 30  1  0
 29 31  2  0
 30 32  2  0
 32 33  1  0
 33 34  1  0
 33 35  1  0
 34 36  1  0
 35 37  1  0
 36 38  1  0
 38 39  1  0
  5  7  1  0
 13 16  1  0
 18 19  1  0
 21 22  1  0
 31 32  1  0
 37 38  1  0
M  END
>  <Molecule Name>  (1) 
CTX-1020748

>  <SMILES>  (1) 
CN1C2=C(C=CC=C2)C(Cl)=C1C(=O)N1CCC2=C(C1)C=C(S2)C(=O)NCC1=CC=C(C=C1)N1CCN(C)CC1

>  <Batch Name>  (1) 
CTX-1020748-1

>  <Batch Created Date>  (1) 
2021-12-16

>  <Batch ID>  (1) 
CTX-1020748-1

>  <External ID>  (1) 
P841-0362

>  <Stereochemistry>  (1) 
Achiral

>  <Amount 1>  (1) 
4.7

>  <Unit 1>  (1) 
mg

>  <CRO 1>  (1) 
Pharmaron

>  <CRO 1 Total Amount>  (1) 
22.05

>  <CRO 1 Unit>  (1) 
mg

>  <pIC50>  (1) 
5.555955

>  <SMILES_std>  (1) 
CN1CCN(c2ccc(CNC(=O)c3cc4c(s3)CCN(C(=O)c3c(Cl)c5ccccc5n3C)C4)cc2)CC1

>  <embed_status>  (1) 
0

>  <mmff_status>  (1) 
0

$$$$
