CTX-1020671
     RDKit          3D

 30 34  0  0  0  0  0  0  0  0999 V2000
    1.5548    1.5061    0.4769 S   0  0  0  0  0  0  0  0  0  0  0  0
    2.0587    0.9882   -1.0798 C   0  0  0  0  0  0  0  0  0  0  0  0
   -0.0702    1.1612    0.1361 C   0  0  0  0  0  0  0  0  0  0  0  0
    3.4546    1.0154   -1.5029 C   0  0  0  0  0  0  0  0  0  0  0  0
    0.9783    0.5580   -1.8327 C   0  0  0  0  0  0  0  0  0  0  0  0
   -0.2638    0.6516   -1.1325 C   0  0  0  0  0  0  0  0  0  0  0  0
   -1.1684    1.3660    1.1286 C   0  0  0  0  0  0  0  0  0  0  0  0
    3.8131    0.6435   -2.6183 O   0  0  0  0  0  0  0  0  0  0  0  0
    4.3550    1.4814   -0.5695 N   0  0  0  0  0  0  0  0  0  0  0  0
   -1.6157    0.2778   -1.6674 C   0  0  0  0  0  0  0  0  0  0  0  0
   -2.5168    1.3539    0.3922 C   0  0  0  0  0  0  0  0  0  0  0  0
    5.7820    1.4121   -0.7693 C   0  0  0  0  0  0  0  0  0  0  0  0
   -2.6017    0.2446   -0.5797 N   0  0  0  0  0  0  0  0  0  0  0  0
    6.3641    0.2327   -0.0348 C   0  0  0  0  0  0  0  0  0  0  0  0
   -3.8126   -0.3761   -0.8907 C   0  0  0  0  0  0  0  0  0  0  0  0
    6.9230    0.3865    1.2418 C   0  0  0  0  0  0  0  0  0  0  0  0
    6.3177   -1.0473   -0.6062 C   0  0  0  0  0  0  0  0  0  0  0  0
   -4.0870   -0.7288   -2.0355 O   0  0  0  0  0  0  0  0  0  0  0  0
   -4.7383   -0.6386    0.1956 C   0  0  0  0  0  0  0  0  0  0  0  0
    7.4390   -0.7162    1.9251 C   0  0  0  0  0  0  0  0  0  0  0  0
    6.8332   -2.1482    0.0788 C   0  0  0  0  0  0  0  0  0  0  0  0
   -6.1112   -0.7287    0.0996 C   0  0  0  0  0  0  0  0  0  0  0  0
   -4.4933   -0.9483    1.5517 C   0  0  0  0  0  0  0  0  0  0  0  0
    7.3949   -1.9821    1.3433 C   0  0  0  0  0  0  0  0  0  0  0  0
   -6.6048   -1.0211    1.3508 N   0  0  0  0  0  0  0  0  0  0  0  0
   -7.0464   -0.5808   -0.9807 C   0  0  0  0  0  0  0  0  0  0  0  0
   -5.6083   -1.1427    2.2598 N   0  0  0  0  0  0  0  0  0  0  0  0
   -7.9708   -1.1474    1.5313 C   0  0  0  0  0  0  0  0  0  0  0  0
   -8.3336   -0.6968   -0.7999 N   0  0  0  0  0  0  0  0  0  0  0  0
   -8.7818   -0.9841    0.4750 C   0  0  0  0  0  0  0  0  0  0  0  0
  1  2  1  0
  1  3  1  0
  2  4  1  0
  2  5  2  0
  3  6  2  0
  3  7  1  0
  4  8  2  0
  4  9  1  0
  6 10  1  0
  7 11  1  0
  9 12  1  0
 10 13  1  0
 12 14  1  0
 13 15  1  0
 14 16  2  0
 14 17  1  0
 15 18  2  0
 15 19  1  0
 16 20  1  0
 17 21  2  0
 19 22  2  0
 19 23  1  0
 20 24  2  0
 22 25  1  0
 22 26  1  0
 23 27  2  0
 25 28  1  0
 26 29  2  0
 28 30  2  0
  5  6  1  0
 11 13  1  0
 21 24  1  0
 25 27  1  0
 29 30  1  0
M  END
>  <Molecule Name>  (1) 
CTX-1020671

>  <SMILES>  (1) 
O=C(NCC1=CC=CC=C1)C1=CC2=C(CCN(C2)C(=O)C2=C3C=NC=CN3N=C2)S1

>  <Batch Name>  (1) 
CTX-1020671-1

>  <Batch Created Date>  (1) 
2021-12-03

>  <Batch ID>  (1) 
CTX-1020671-1

>  <External ID>  (1) 
610EDL218-3

>  <Stereochemistry>  (1) 
Achiral

>  <Amount 1>  (1) 
5.4

>  <Unit 1>  (1) 
mg

>  <CRO 1>  (1) 
Pharmaron

>  <CRO 1 Total Amount>  (1) 
21.2

>  <CRO 1 Unit>  (1) 
mg

>  <pIC50>  (1) 
5.463442

>  <SMILES_std>  (1) 
O=C(NCc1ccccc1)c1cc2c(s1)CCN(C(=O)c1cnn3ccncc13)C2

>  <embed_status>  (1) 
0

>  <mmff_status>  (1) 
0

$$$$
