CTX-1020458
     RDKit          3D

 40 45  0  0  0  0  0  0  0  0999 V2000
    2.3921   -0.1241   -4.5637 O   0  0  0  0  0  0  0  0  0  0  0  0
    1.7043   -0.5933   -3.6642 C   0  0  0  0  0  0  0  0  0  0  0  0
    1.9808   -1.7723   -3.0083 N   0  0  0  0  0  0  0  0  0  0  0  0
    0.4700    0.1040   -3.1748 C   0  0  0  0  0  0  0  0  0  0  0  0
    3.2101   -2.5000   -3.1921 C   0  0  0  0  0  0  0  0  0  0  0  0
   -0.1881   -0.4927   -2.1401 N   0  0  0  0  0  0  0  0  0  0  0  0
    0.0656    1.2896   -3.7693 C   0  0  0  0  0  0  0  0  0  0  0  0
    4.1933   -2.1764   -2.0986 C   0  0  0  0  0  0  0  0  0  0  0  0
   -1.3065    0.1230   -1.6799 C   0  0  0  0  0  0  0  0  0  0  0  0
   -1.0782    1.9095   -3.2800 C   0  0  0  0  0  0  0  0  0  0  0  0
    4.9945   -1.0332   -2.1813 C   0  0  0  0  0  0  0  0  0  0  0  0
    4.2988   -2.9836   -0.9633 C   0  0  0  0  0  0  0  0  0  0  0  0
   -1.7736    1.3341   -2.2117 C   0  0  0  0  0  0  0  0  0  0  0  0
   -2.0219   -0.5470   -0.5214 C   0  0  0  0  0  0  0  0  0  0  0  0
    5.8963   -0.7144   -1.1577 C   0  0  0  0  0  0  0  0  0  0  0  0
    5.2014   -2.6567    0.0552 C   0  0  0  0  0  0  0  0  0  0  0  0
   -3.0321    1.9755   -1.6857 C   0  0  0  0  0  0  0  0  0  0  0  0
   -3.3121    0.0516   -0.1907 N   0  0  0  0  0  0  0  0  0  0  0  0
    6.0217   -1.5189   -0.0184 C   0  0  0  0  0  0  0  0  0  0  0  0
   -3.3485    1.5108   -0.2663 C   0  0  0  0  0  0  0  0  0  0  0  0
   -4.1744   -0.7041    0.6111 C   0  0  0  0  0  0  0  0  0  0  0  0
    6.9016   -1.2419    1.0372 N   0  0  0  0  0  0  0  0  0  0  0  0
   -3.7875   -1.7638    1.1083 O   0  0  0  0  0  0  0  0  0  0  0  0
   -5.5330   -0.2248    0.8179 C   0  0  0  0  0  0  0  0  0  0  0  0
    8.0930   -0.4020    0.7964 C   0  0  0  0  0  0  0  0  0  0  0  0
    6.1921   -0.9525    2.3100 C   0  0  0  0  0  0  0  0  0  0  0  0
   -6.1255    0.5631   -0.1336 O   0  0  0  0  0  0  0  0  0  0  0  0
   -6.4443   -0.4974    1.8334 C   0  0  0  0  0  0  0  0  0  0  0  0
    7.9296    1.0067    1.4084 C   0  0  0  0  0  0  0  0  0  0  0  0
    7.1300   -0.2724    3.3337 C   0  0  0  0  0  0  0  0  0  0  0  0
   -7.3925    0.8235    0.2789 C   0  0  0  0  0  0  0  0  0  0  0  0
   -7.6457    0.1948    1.4889 C   0  0  0  0  0  0  0  0  0  0  0  0
   -6.2060   -1.3481    3.0275 C   0  0  0  0  0  0  0  0  0  0  0  0
    7.6727    1.0252    2.8677 N   0  0  0  0  0  0  0  0  0  0  0  0
   -8.3176    1.6050   -0.4112 C   0  0  0  0  0  0  0  0  0  0  0  0
   -8.9217    0.3467    2.0611 C   0  0  0  0  0  0  0  0  0  0  0  0
    8.8692    1.3796    3.6259 C   0  0  0  0  0  0  0  0  0  0  0  0
   -9.5816    1.7648    0.1779 C   0  0  0  0  0  0  0  0  0  0  0  0
   -9.8764    1.1298    1.3933 C   0  0  0  0  0  0  0  0  0  0  0  0
  -10.6392    2.5652   -0.5273 C   0  0  0  0  0  0  0  0  0  0  0  0
  1  2  2  0
  2  3  1  0
  2  4  1  0
  3  5  1  0
  4  6  2  0
  4  7  1  0
  5  8  1  0
  6  9  1  0
  7 10  2  0
  8 11  2  0
  8 12  1  0
  9 13  2  0
  9 14  1  0
 11 15  1  0
 12 16  2  0
 13 17  1  0
 14 18  1  0
 15 19  2  0
 17 20  1  0
 18 21  1  0
 19 22  1  0
 21 23  2  0
 21 24  1  0
 22 25  1  0
 22 26  1  0
 24 27  1  0
 24 28  2  0
 25 29  1  0
 26 30  1  0
 27 31  1  0
 28 32  1  0
 28 33  1  0
 29 34  1  0
 31 35  2  0
 32 36  2  0
 34 37  1  0
 35 38  1  0
 36 39  1  0
 38 40  1  0
 10 13  1  0
 16 19  1  0
 18 20  1  0
 30 34  1  0
 31 32  1  0
 38 39  2  0
M  END
>  <Molecule Name>  (1) 
CTX-1020458

>  <SMILES>  (1) 
CN1CCN(CC1)C1=CC=C(CNC(=O)C2=NC3=C(CCN(C3)C(=O)C3=C(C)C4=C(O3)C=C(C)C=C4)C=C2)C=C1

>  <Batch Name>  (1) 
CTX-1020458-1

>  <Batch Created Date>  (1) 
2021-10-21

>  <Batch ID>  (1) 
CTX-1020458-1

>  <External ID>  (1) 
P841-0212

>  <Stereochemistry>  (1) 
Achiral

>  <Amount 1>  (1) 
4.6

>  <Unit 1>  (1) 
mg

>  <CRO 1>  (1) 
Pharmaron

>  <CRO 1 Total Amount>  (1) 
28.0

>  <CRO 1 Unit>  (1) 
mg

>  <pIC50>  (1) 
5.323306

>  <SMILES_std>  (1) 
Cc1ccc2c(C)c(C(=O)N3CCc4ccc(C(=O)NCc5ccc(N6CCN(C)CC6)cc5)nc4C3)oc2c1

>  <embed_status>  (1) 
0

>  <mmff_status>  (1) 
0

$$$$
