CTX-1020670
     RDKit          3D

 31 35  0  0  0  0  0  0  0  0999 V2000
    5.4394   -2.8656    1.1955 Cl  0  0  0  0  0  0  0  0  0  0  0  0
    5.5970   -1.2092    0.7678 C   0  0  0  0  0  0  0  0  0  0  0  0
    4.7078   -0.2231    1.1259 C   0  0  0  0  0  0  0  0  0  0  0  0
    6.6804   -0.7163   -0.0425 C   0  0  0  0  0  0  0  0  0  0  0  0
    5.1760    1.3070    0.5400 S   0  0  0  0  0  0  0  0  0  0  0  0
    3.5295   -0.3345    1.9550 C   0  0  0  0  0  0  0  0  0  0  0  0
    6.5659    0.6630   -0.2466 C   0  0  0  0  0  0  0  0  0  0  0  0
    7.7879   -1.3801   -0.6330 C   0  0  0  0  0  0  0  0  0  0  0  0
    3.6191   -0.4919    3.1719 O   0  0  0  0  0  0  0  0  0  0  0  0
    2.2814   -0.2488    1.3251 N   0  0  0  0  0  0  0  0  0  0  0  0
    7.5089    1.3802   -1.0096 C   0  0  0  0  0  0  0  0  0  0  0  0
    8.7249   -0.6722   -1.3917 C   0  0  0  0  0  0  0  0  0  0  0  0
    1.1095   -0.3913    2.1978 C   0  0  0  0  0  0  0  0  0  0  0  0
    2.0750   -0.5015   -0.1147 C   0  0  0  0  0  0  0  0  0  0  0  0
    8.5846    0.6949   -1.5770 C   0  0  0  0  0  0  0  0  0  0  0  0
   -0.1286    0.1180    1.5186 C   0  0  0  0  0  0  0  0  0  0  0  0
    1.0198    0.4375   -0.7181 C   0  0  0  0  0  0  0  0  0  0  0  0
   -0.1657    0.4819    0.1881 C   0  0  0  0  0  0  0  0  0  0  0  0
   -1.4144    0.2823    2.1211 C   0  0  0  0  0  0  0  0  0  0  0  0
   -1.6938    1.0144   -0.3181 S   0  0  0  0  0  0  0  0  0  0  0  0
   -2.3683    0.7651    1.2402 C   0  0  0  0  0  0  0  0  0  0  0  0
   -3.7693    1.0374    1.5419 C   0  0  0  0  0  0  0  0  0  0  0  0
   -4.2585    0.8302    2.6504 O   0  0  0  0  0  0  0  0  0  0  0  0
   -4.5196    1.5398    0.5009 N   0  0  0  0  0  0  0  0  0  0  0  0
   -5.9498    1.7062    0.5867 C   0  0  0  0  0  0  0  0  0  0  0  0
   -6.6588    0.5649   -0.0945 C   0  0  0  0  0  0  0  0  0  0  0  0
   -6.8544   -0.6483    0.5816 C   0  0  0  0  0  0  0  0  0  0  0  0
   -7.0975    0.6813   -1.4211 C   0  0  0  0  0  0  0  0  0  0  0  0
   -7.4893   -1.7176   -0.0511 C   0  0  0  0  0  0  0  0  0  0  0  0
   -7.7332   -0.3897   -2.0519 C   0  0  0  0  0  0  0  0  0  0  0  0
   -7.9298   -1.5875   -1.3668 C   0  0  0  0  0  0  0  0  0  0  0  0
  1  2  1  0
  2  3  2  0
  2  4  1  0
  3  5  1  0
  3  6  1  0
  4  7  2  0
  4  8  1  0
  6  9  2  0
  6 10  1  0
  7 11  1  0
  8 12  2  0
 10 13  1  0
 10 14  1  0
 11 15  2  0
 13 16  1  0
 14 17  1  0
 16 18  2  0
 16 19  1  0
 18 20  1  0
 19 21  2  0
 21 22  1  0
 22 23  2  0
 22 24  1  0
 24 25  1  0
 25 26  1  0
 26 27  2  0
 26 28  1  0
 27 29  1  0
 28 30  2  0
 29 31  2  0
  5  7  1  0
 12 15  1  0
 17 18  1  0
 20 21  1  0
 30 31  1  0
M  END
>  <Molecule Name>  (1) 
CTX-1020670

>  <SMILES>  (1) 
ClC1=C(SC2=C1C=CC=C2)C(=O)N1CCC2=C(C1)C=C(S2)C(=O)NCC1=CC=CC=C1

>  <Batch Name>  (1) 
CTX-1020670-1

>  <Batch Created Date>  (1) 
2021-12-03

>  <Batch ID>  (1) 
CTX-1020670-1

>  <External ID>  (1) 
610EDL217-3

>  <Stereochemistry>  (1) 
Achiral

>  <Amount 1>  (1) 
6.9

>  <Unit 1>  (1) 
mg

>  <CRO 1>  (1) 
Pharmaron

>  <CRO 1 Total Amount>  (1) 
35.5

>  <CRO 1 Unit>  (1) 
mg

>  <pIC50>  (1) 
5.90309

>  <SMILES_std>  (1) 
O=C(NCc1ccccc1)c1cc2c(s1)CCN(C(=O)c1sc3ccccc3c1Cl)C2

>  <embed_status>  (1) 
0

>  <mmff_status>  (1) 
0

$$$$
