CTX-1020842
     RDKit          3D

 39 44  0  0  0  0  0  0  0  0999 V2000
    1.0387   -1.2225   -3.0686 S   0  0  0  0  0  0  0  0  0  0  0  0
    0.1509    0.2139   -2.7451 C   0  0  0  0  0  0  0  0  0  0  0  0
    2.3788   -0.6714   -2.1913 C   0  0  0  0  0  0  0  0  0  0  0  0
   -1.2011    0.3418   -3.2804 C   0  0  0  0  0  0  0  0  0  0  0  0
    0.9032    1.0944   -1.9824 C   0  0  0  0  0  0  0  0  0  0  0  0
    2.1999    0.5825   -1.6521 C   0  0  0  0  0  0  0  0  0  0  0  0
    3.6160   -1.4789   -2.0119 C   0  0  0  0  0  0  0  0  0  0  0  0
   -1.6756   -0.4016   -4.1370 O   0  0  0  0  0  0  0  0  0  0  0  0
   -1.9431    1.3758   -2.7399 N   0  0  0  0  0  0  0  0  0  0  0  0
    3.2504    1.2883   -0.8495 C   0  0  0  0  0  0  0  0  0  0  0  0
    4.7855   -0.5469   -1.6597 C   0  0  0  0  0  0  0  0  0  0  0  0
   -3.3465    1.5401   -3.0430 C   0  0  0  0  0  0  0  0  0  0  0  0
    4.4389    0.4544   -0.6305 N   0  0  0  0  0  0  0  0  0  0  0  0
   -4.1975    1.0083   -1.9203 C   0  0  0  0  0  0  0  0  0  0  0  0
    5.3458    0.9467    0.3253 C   0  0  0  0  0  0  0  0  0  0  0  0
   -4.7431    1.8646   -0.9604 C   0  0  0  0  0  0  0  0  0  0  0  0
   -4.4206   -0.3642   -1.7894 C   0  0  0  0  0  0  0  0  0  0  0  0
    4.9853    1.8113    1.1263 O   0  0  0  0  0  0  0  0  0  0  0  0
    6.6944    0.4180    0.3452 C   0  0  0  0  0  0  0  0  0  0  0  0
   -5.5118    1.3565    0.0968 C   0  0  0  0  0  0  0  0  0  0  0  0
   -5.1888   -0.8613   -0.7300 C   0  0  0  0  0  0  0  0  0  0  0  0
    7.3779    0.3567   -0.8480 O   0  0  0  0  0  0  0  0  0  0  0  0
    7.5443    0.0259    1.3695 C   0  0  0  0  0  0  0  0  0  0  0  0
   -5.7679   -0.0160    0.2310 C   0  0  0  0  0  0  0  0  0  0  0  0
    8.6434   -0.0587   -0.5796 C   0  0  0  0  0  0  0  0  0  0  0  0
    7.3141   -0.0472    2.7037 O   0  0  0  0  0  0  0  0  0  0  0  0
    8.8047   -0.2686    0.7815 C   0  0  0  0  0  0  0  0  0  0  0  0
   -6.5230   -0.5644    1.2802 N   0  0  0  0  0  0  0  0  0  0  0  0
    9.6490   -0.2450   -1.5253 C   0  0  0  0  0  0  0  0  0  0  0  0
    6.0139   -0.4960    3.0637 C   0  0  0  0  0  0  0  0  0  0  0  0
   10.0613   -0.6944    1.2503 C   0  0  0  0  0  0  0  0  0  0  0  0
   -7.6662   -1.3991    0.8383 C   0  0  0  0  0  0  0  0  0  0  0  0
   -6.8445    0.2975    2.4357 C   0  0  0  0  0  0  0  0  0  0  0  0
   10.8904   -0.6702   -1.0402 C   0  0  0  0  0  0  0  0  0  0  0  0
   11.0956   -0.8911    0.3244 C   0  0  0  0  0  0  0  0  0  0  0  0
   -8.2905   -2.1655    2.0309 C   0  0  0  0  0  0  0  0  0  0  0  0
   -7.4775   -0.5250    3.5838 C   0  0  0  0  0  0  0  0  0  0  0  0
   -8.6511   -1.3431    3.2068 N   0  0  0  0  0  0  0  0  0  0  0  0
   -9.8267   -0.5166    2.9457 C   0  0  0  0  0  0  0  0  0  0  0  0
  1  2  1  0
  1  3  1  0
  2  4  1  0
  2  5  2  0
  3  6  2  0
  3  7  1  0
  4  8  2  0
  4  9  1  0
  6 10  1  0
  7 11  1  0
  9 12  1  0
 10 13  1  0
 12 14  1  0
 13 15  1  0
 14 16  2  0
 14 17  1  0
 15 18  2  0
 15 19  1  0
 16 20  1  0
 17 21  2  0
 19 22  1  0
 19 23  2  0
 20 24  2  0
 22 25  1  0
 23 26  1  0
 23 27  1  0
 24 28  1  0
 25 29  2  0
 26 30  1  0
 27 31  2  0
 28 32  1  0
 28 33  1  0
 29 34  1  0
 31 35  1  0
 32 36  1  0
 33 37  1  0
 36 38  1  0
 38 39  1  0
  5  6  1  0
 11 13  1  0
 21 24  1  0
 25 27  1  0
 34 35  2  0
 37 38  1  0
M  END
>  <Molecule Name>  (1) 
CTX-1020842

>  <SMILES>  (1) 
COC1=C(OC2=CC=CC=C12)C(=O)N1CCC2=C(C1)C=C(S2)C(=O)NCC1=CC=C(C=C1)N1CCN(C)CC1

>  <Batch Name>  (1) 
CTX-1020842-1

>  <Batch Created Date>  (1) 
2022-01-06

>  <Batch ID>  (1) 
CTX-1020842-1

>  <External ID>  (1) 
CD-44-2-B

>  <Stereochemistry>  (1) 
Achiral

>  <Amount 1>  (1) 
1.3

>  <Unit 1>  (1) 
mg

>  <CRO 1>  (1) 
Pharmaron

>  <CRO 1 Total Amount>  (1) 
9.7

>  <CRO 1 Unit>  (1) 
mg

>  <pIC50>  (1) 
5.220404

>  <SMILES_std>  (1) 
COc1c(C(=O)N2CCc3sc(C(=O)NCc4ccc(N5CCN(C)CC5)cc4)cc3C2)oc2ccccc12

>  <embed_status>  (1) 
0

>  <mmff_status>  (1) 
0

$$$$
