CTX-1020520
     RDKit          3D

 44 50  0  0  0  0  0  0  0  0999 V2000
    1.9970    4.0123    2.7341 O   0  0  0  0  0  0  0  0  0  0  0  0
    1.3783    2.9557    2.7906 C   0  0  0  0  0  0  0  0  0  0  0  0
    1.8688    1.7926    3.3398 N   0  0  0  0  0  0  0  0  0  0  0  0
   -0.0089    2.8349    2.2339 C   0  0  0  0  0  0  0  0  0  0  0  0
    3.2395    1.6434    3.7569 C   0  0  0  0  0  0  0  0  0  0  0  0
   -0.5941    1.6165    2.3416 N   0  0  0  0  0  0  0  0  0  0  0  0
   -0.6247    3.9414    1.6714 C   0  0  0  0  0  0  0  0  0  0  0  0
    4.0617    0.9948    2.6756 C   0  0  0  0  0  0  0  0  0  0  0  0
   -1.8390    1.4828    1.8248 C   0  0  0  0  0  0  0  0  0  0  0  0
   -1.9229    3.8037    1.1621 C   0  0  0  0  0  0  0  0  0  0  0  0
    4.6321    1.7639    1.6598 C   0  0  0  0  0  0  0  0  0  0  0  0
    4.2461   -0.3892    2.6423 C   0  0  0  0  0  0  0  0  0  0  0  0
   -2.5292    2.5274    1.1858 C   0  0  0  0  0  0  0  0  0  0  0  0
   -2.5234    0.1493    2.0480 C   0  0  0  0  0  0  0  0  0  0  0  0
   -2.5903    4.9754    0.6846 N   0  0  0  0  0  0  0  0  0  0  0  0
    5.3776    1.1560    0.6424 C   0  0  0  0  0  0  0  0  0  0  0  0
    4.9964   -0.9872    1.6189 C   0  0  0  0  0  0  0  0  0  0  0  0
   -3.8667    2.1729    0.5817 C   0  0  0  0  0  0  0  0  0  0  0  0
   -3.4355   -0.2667    0.9904 N   0  0  0  0  0  0  0  0  0  0  0  0
   -3.9333    5.0069    0.4971 N   0  0  0  0  0  0  0  0  0  0  0  0
   -2.0367    6.2149    0.4175 C   0  0  0  0  0  0  0  0  0  0  0  0
    5.5687   -0.2352    0.5837 C   0  0  0  0  0  0  0  0  0  0  0  0
   -3.8856    0.7400    0.0343 C   0  0  0  0  0  0  0  0  0  0  0  0
   -3.8389   -1.6076    0.9942 C   0  0  0  0  0  0  0  0  0  0  0  0
   -4.2055    6.2544    0.1173 C   0  0  0  0  0  0  0  0  0  0  0  0
   -3.0604    7.0540    0.0479 C   0  0  0  0  0  0  0  0  0  0  0  0
    6.3306   -0.7898   -0.4481 N   0  0  0  0  0  0  0  0  0  0  0  0
   -3.5840   -2.3147    1.9728 O   0  0  0  0  0  0  0  0  0  0  0  0
   -4.5572   -2.1488   -0.1534 C   0  0  0  0  0  0  0  0  0  0  0  0
    5.9255   -0.4306   -1.8271 C   0  0  0  0  0  0  0  0  0  0  0  0
    6.8386   -2.1726   -0.3499 C   0  0  0  0  0  0  0  0  0  0  0  0
   -4.4187   -1.5726   -1.3879 O   0  0  0  0  0  0  0  0  0  0  0  0
   -5.3719   -3.2739   -0.2550 C   0  0  0  0  0  0  0  0  0  0  0  0
    4.9514   -1.4828   -2.4147 C   0  0  0  0  0  0  0  0  0  0  0  0
    5.8650   -3.1965   -0.9851 C   0  0  0  0  0  0  0  0  0  0  0  0
   -5.1543   -2.2969   -2.2687 C   0  0  0  0  0  0  0  0  0  0  0  0
   -5.7676   -3.3619   -1.6250 C   0  0  0  0  0  0  0  0  0  0  0  0
   -5.7446   -4.1962    0.8487 C   0  0  0  0  0  0  0  0  0  0  0  0
    5.4246   -2.8866   -2.3652 N   0  0  0  0  0  0  0  0  0  0  0  0
   -5.2801   -2.0222   -3.6286 C   0  0  0  0  0  0  0  0  0  0  0  0
   -6.5700   -4.2290   -2.3909 C   0  0  0  0  0  0  0  0  0  0  0  0
    6.4876   -3.1312   -3.3371 C   0  0  0  0  0  0  0  0  0  0  0  0
   -6.0837   -2.8937   -4.3700 C   0  0  0  0  0  0  0  0  0  0  0  0
   -6.7189   -3.9797   -3.7632 C   0  0  0  0  0  0  0  0  0  0  0  0
  1  2  2  0
  2  3  1  0
  2  4  1  0
  3  5  1  0
  4  6  2  0
  4  7  1  0
  5  8  1  0
  6  9  1  0
  7 10  2  0
  8 11  2  0
  8 12  1  0
  9 13  2  0
  9 14  1  0
 10 15  1  0
 11 16  1  0
 12 17  2  0
 13 18  1  0
 14 19  1  0
 15 20  1  0
 15 21  1  0
 16 22  2  0
 18 23  1  0
 19 24  1  0
 20 25  2  0
 21 26  2  0
 22 27  1  0
 24 28  2  0
 24 29  1  0
 27 30  1  0
 27 31  1  0
 29 32  1  0
 29 33  2  0
 30 34  1  0
 31 35  1  0
 32 36  1  0
 33 37  1  0
 33 38  1  0
 34 39  1  0
 36 40  2  0
 37 41  2  0
 39 42  1  0
 40 43  1  0
 41 44  1  0
 10 13  1  0
 17 22  1  0
 19 23  1  0
 25 26  1  0
 35 39  1  0
 36 37  1  0
 43 44  2  0
M  END
>  <Molecule Name>  (1) 
CTX-1020520

>  <SMILES>  (1) 
CN1CCN(CC1)C1=CC=C(CNC(=O)C2=CC(N3C=CC=N3)=C3CCN(CC3=N2)C(=O)C2=C(C)C3=C(O2)C=CC=C3)C=C1

>  <Batch Name>  (1) 
CTX-1020520-1

>  <Batch Created Date>  (1) 
2021-11-04

>  <Batch ID>  (1) 
CTX-1020520-1

>  <External ID>  (1) 
610EDL127-2

>  <Stereochemistry>  (1) 
Achiral

>  <Amount 1>  (1) 
5.0

>  <Unit 1>  (1) 
mg

>  <CRO 1>  (1) 
Pharmaron

>  <CRO 1 Total Amount>  (1) 
22.6

>  <CRO 1 Unit>  (1) 
mg

>  <pIC50>  (1) 
5.533132

>  <SMILES_std>  (1) 
Cc1c(C(=O)N2CCc3c(-n4cccn4)cc(C(=O)NCc4ccc(N5CCN(C)CC5)cc4)nc3C2)oc2ccccc12

>  <embed_status>  (1) 
0

>  <mmff_status>  (1) 
0

$$$$
