CTX-1020769
     RDKit          3D

 32 36  0  0  0  0  0  0  0  0999 V2000
    4.5164    1.9992   -1.6806 O   0  0  0  0  0  0  0  0  0  0  0  0
    3.4450    1.4540   -1.4399 C   0  0  0  0  0  0  0  0  0  0  0  0
    3.1099    0.1854   -1.8537 N   0  0  0  0  0  0  0  0  0  0  0  0
    2.3795    2.1406   -0.6384 C   0  0  0  0  0  0  0  0  0  0  0  0
    4.0705   -0.7262   -2.4232 C   0  0  0  0  0  0  0  0  0  0  0  0
    1.2562    1.4133   -0.3805 N   0  0  0  0  0  0  0  0  0  0  0  0
    2.5736    3.4424   -0.2025 C   0  0  0  0  0  0  0  0  0  0  0  0
    4.5606   -1.6271   -1.3422 C   0  0  0  0  0  0  0  0  0  0  0  0
    0.2807    2.0120    0.3481 C   0  0  0  0  0  0  0  0  0  0  0  0
    1.5640    4.0394    0.5438 C   0  0  0  0  0  0  0  0  0  0  0  0
    3.8386   -2.7417   -0.9613 N   0  0  0  0  0  0  0  0  0  0  0  0
    5.7007   -1.5149   -0.5710 C   0  0  0  0  0  0  0  0  0  0  0  0
    0.4037    3.3171    0.8392 C   0  0  0  0  0  0  0  0  0  0  0  0
   -0.9677    1.1885    0.6084 C   0  0  0  0  0  0  0  0  0  0  0  0
    4.5296   -3.2904    0.0123 C   0  0  0  0  0  0  0  0  0  0  0  0
    5.6625   -2.5793    0.2804 N   0  0  0  0  0  0  0  0  0  0  0  0
   -0.7154    3.9429    1.6250 C   0  0  0  0  0  0  0  0  0  0  0  0
   -2.0072    1.8581    1.3964 N   0  0  0  0  0  0  0  0  0  0  0  0
    6.6339   -2.9035    1.2924 C   0  0  0  0  0  0  0  0  0  0  0  0
   -1.5490    2.8787    2.3337 C   0  0  0  0  0  0  0  0  0  0  0  0
   -3.3510    1.4610    1.4330 C   0  0  0  0  0  0  0  0  0  0  0  0
   -4.1715    2.1394    2.0565 O   0  0  0  0  0  0  0  0  0  0  0  0
   -3.7742    0.2575    0.7243 C   0  0  0  0  0  0  0  0  0  0  0  0
   -2.8793   -0.7462    0.4701 O   0  0  0  0  0  0  0  0  0  0  0  0
   -5.0377   -0.1256    0.2796 C   0  0  0  0  0  0  0  0  0  0  0  0
   -3.5435   -1.7477   -0.1593 C   0  0  0  0  0  0  0  0  0  0  0  0
   -4.8839   -1.4212   -0.3034 C   0  0  0  0  0  0  0  0  0  0  0  0
   -6.2913    0.6636    0.3952 C   0  0  0  0  0  0  0  0  0  0  0  0
   -2.9719   -2.9393   -0.5992 C   0  0  0  0  0  0  0  0  0  0  0  0
   -5.7314   -2.3538   -0.9312 C   0  0  0  0  0  0  0  0  0  0  0  0
   -3.8302   -3.8496   -1.2234 C   0  0  0  0  0  0  0  0  0  0  0  0
   -5.1877   -3.5640   -1.3870 C   0  0  0  0  0  0  0  0  0  0  0  0
  1  2  2  0
  2  3  1  0
  2  4  1  0
  3  5  1  0
  4  6  2  0
  4  7  1  0
  5  8  1  0
  6  9  1  0
  7 10  2  0
  8 11  1  0
  8 12  2  0
  9 13  2  0
  9 14  1  0
 11 15  2  0
 12 16  1  0
 13 17  1  0
 14 18  1  0
 16 19  1  0
 17 20  1  0
 18 21  1  0
 21 22  2  0
 21 23  1  0
 23 24  1  0
 23 25  2  0
 24 26  1  0
 25 27  1  0
 25 28  1  0
 26 29  2  0
 27 30  2  0
 29 31  1  0
 30 32  1  0
 10 13  1  0
 15 16  1  0
 18 20  1  0
 26 27  1  0
 31 32  2  0
M  END
>  <Molecule Name>  (1) 
CTX-1020769

>  <SMILES>  (1) 
CN1C=NC(CNC(=O)C2=NC3=C(CCN(C3)C(=O)C3=C(C)C4=C(O3)C=CC=C4)C=C2)=C1

>  <Batch Name>  (1) 
CTX-1020769-1

>  <Batch Created Date>  (1) 
2021-12-16

>  <Batch ID>  (1) 
CTX-1020769-1

>  <External ID>  (1) 
P841-0364

>  <Stereochemistry>  (1) 
Achiral

>  <Amount 1>  (1) 
5.95

>  <Unit 1>  (1) 
mg

>  <CRO 1>  (1) 
Pharmaron

>  <CRO 1 Total Amount>  (1) 
29.85

>  <CRO 1 Unit>  (1) 
mg

>  <pIC50>  (1) 
4.345823

>  <SMILES_std>  (1) 
Cc1c(C(=O)N2CCc3ccc(C(=O)NCc4cn(C)cn4)nc3C2)oc2ccccc12

>  <embed_status>  (1) 
0

>  <mmff_status>  (1) 
0

$$$$
