CTX-1020767
     RDKit          3D

 31 35  0  0  0  0  0  0  0  0999 V2000
    5.4495   -1.8394    1.2976 O   0  0  0  0  0  0  0  0  0  0  0  0
    4.6553   -1.5083    0.4240 C   0  0  0  0  0  0  0  0  0  0  0  0
    5.0146   -0.9266   -0.7697 N   0  0  0  0  0  0  0  0  0  0  0  0
    3.1787   -1.7087    0.5929 C   0  0  0  0  0  0  0  0  0  0  0  0
    6.3498   -0.4491   -1.0321 C   0  0  0  0  0  0  0  0  0  0  0  0
    2.3875   -1.2549   -0.4195 N   0  0  0  0  0  0  0  0  0  0  0  0
    2.6938   -2.3262    1.7365 C   0  0  0  0  0  0  0  0  0  0  0  0
    6.3844    1.0179   -0.7738 C   0  0  0  0  0  0  0  0  0  0  0  0
    1.0480   -1.4136   -0.2771 C   0  0  0  0  0  0  0  0  0  0  0  0
    1.3194   -2.4981    1.8565 C   0  0  0  0  0  0  0  0  0  0  0  0
    6.1015    1.9244   -1.7756 N   0  0  0  0  0  0  0  0  0  0  0  0
    6.6482    1.6851    0.4052 C   0  0  0  0  0  0  0  0  0  0  0  0
    0.4752   -2.0520    0.8349 C   0  0  0  0  0  0  0  0  0  0  0  0
    0.1738   -0.9317   -1.4227 C   0  0  0  0  0  0  0  0  0  0  0  0
    6.1907    3.1078   -1.2142 C   0  0  0  0  0  0  0  0  0  0  0  0
    6.5200    3.0119    0.1074 N   0  0  0  0  0  0  0  0  0  0  0  0
   -1.0214   -2.1993    0.9658 C   0  0  0  0  0  0  0  0  0  0  0  0
   -1.2387   -0.8335   -1.0562 N   0  0  0  0  0  0  0  0  0  0  0  0
   -1.7426   -2.0264   -0.3761 C   0  0  0  0  0  0  0  0  0  0  0  0
   -1.7820    0.4466   -0.8768 C   0  0  0  0  0  0  0  0  0  0  0  0
   -1.0702    1.4480   -0.9675 O   0  0  0  0  0  0  0  0  0  0  0  0
   -3.2031    0.5705   -0.5858 C   0  0  0  0  0  0  0  0  0  0  0  0
   -4.0830   -0.3514   -1.0862 O   0  0  0  0  0  0  0  0  0  0  0  0
   -3.9024    1.5686    0.0863 C   0  0  0  0  0  0  0  0  0  0  0  0
   -5.3323    0.0274   -0.7136 C   0  0  0  0  0  0  0  0  0  0  0  0
   -5.2826    1.2072    0.0155 C   0  0  0  0  0  0  0  0  0  0  0  0
   -3.3181    2.7701    0.7356 C   0  0  0  0  0  0  0  0  0  0  0  0
   -6.5053   -0.6598   -1.0176 C   0  0  0  0  0  0  0  0  0  0  0  0
   -6.4943    1.7540    0.4792 C   0  0  0  0  0  0  0  0  0  0  0  0
   -7.6967   -0.1017   -0.5442 C   0  0  0  0  0  0  0  0  0  0  0  0
   -7.6934    1.0854    0.1919 C   0  0  0  0  0  0  0  0  0  0  0  0
  1  2  2  0
  2  3  1  0
  2  4  1  0
  3  5  1  0
  4  6  2  0
  4  7  1  0
  5  8  1  0
  6  9  1  0
  7 10  2  0
  8 11  1  0
  8 12  2  0
  9 13  2  0
  9 14  1  0
 11 15  2  0
 12 16  1  0
 13 17  1  0
 14 18  1  0
 17 19  1  0
 18 20  1  0
 20 21  2  0
 20 22  1  0
 22 23  1  0
 22 24  2  0
 23 25  1  0
 24 26  1  0
 24 27  1  0
 25 28  2  0
 26 29  2  0
 28 30  1  0
 29 31  1  0
 10 13  1  0
 15 16  1  0
 18 19  1  0
 25 26  1  0
 30 31  2  0
M  END
>  <Molecule Name>  (1) 
CTX-1020767

>  <SMILES>  (1) 
CC1=C(OC2=C1C=CC=C2)C(=O)N1CCC2=C(C1)N=C(C=C2)C(=O)NCC1=CNC=N1

>  <Batch Name>  (1) 
CTX-1020767-1

>  <Batch Created Date>  (1) 
2021-12-16

>  <Batch ID>  (1) 
CTX-1020767-1

>  <External ID>  (1) 
P841-0365

>  <Stereochemistry>  (1) 
Achiral

>  <Amount 1>  (1) 
3.95

>  <Unit 1>  (1) 
mg

>  <CRO 1>  (1) 
Pharmaron

>  <CRO 1 Total Amount>  (1) 
24.15

>  <CRO 1 Unit>  (1) 
mg

>  <pIC50>  (1) 
4.05061

>  <SMILES_std>  (1) 
Cc1c(C(=O)N2CCc3ccc(C(=O)NCc4c[nH]cn4)nc3C2)oc2ccccc12

>  <embed_status>  (1) 
0

>  <mmff_status>  (1) 
0

$$$$
