CTX-1020754
     RDKit          3D

 31 35  0  0  0  0  0  0  0  0999 V2000
    5.4695   -3.0304    0.5704 O   0  0  0  0  0  0  0  0  0  0  0  0
    4.7407   -2.0588    0.4070 C   0  0  0  0  0  0  0  0  0  0  0  0
    5.1944   -0.8165    0.0248 N   0  0  0  0  0  0  0  0  0  0  0  0
    3.2602   -2.1338    0.6296 C   0  0  0  0  0  0  0  0  0  0  0  0
    6.5996   -0.5107   -0.0281 C   0  0  0  0  0  0  0  0  0  0  0  0
    2.5751   -0.9617    0.5074 N   0  0  0  0  0  0  0  0  0  0  0  0
    2.6702   -3.3475    0.9475 C   0  0  0  0  0  0  0  0  0  0  0  0
    6.7897    0.7468   -0.7743 C   0  0  0  0  0  0  0  0  0  0  0  0
    1.2326   -1.0056    0.7018 C   0  0  0  0  0  0  0  0  0  0  0  0
    1.2956   -3.3716    1.1524 C   0  0  0  0  0  0  0  0  0  0  0  0
    6.3588    1.9097   -0.1902 O   0  0  0  0  0  0  0  0  0  0  0  0
    7.3278    1.0717   -1.9980 C   0  0  0  0  0  0  0  0  0  0  0  0
    0.5589   -2.1877    1.0431 C   0  0  0  0  0  0  0  0  0  0  0  0
    0.4837    0.3074    0.5675 C   0  0  0  0  0  0  0  0  0  0  0  0
    6.6697    2.8669   -1.1074 C   0  0  0  0  0  0  0  0  0  0  0  0
    7.2514    2.4266   -2.1999 N   0  0  0  0  0  0  0  0  0  0  0  0
   -0.9368   -2.1989    1.2300 C   0  0  0  0  0  0  0  0  0  0  0  0
   -0.9698    0.1721    0.6032 N   0  0  0  0  0  0  0  0  0  0  0  0
   -1.4717   -0.8086    1.5637 C   0  0  0  0  0  0  0  0  0  0  0  0
   -1.7182    1.2650    0.1519 C   0  0  0  0  0  0  0  0  0  0  0  0
   -1.1560    2.3253   -0.1297 O   0  0  0  0  0  0  0  0  0  0  0  0
   -3.1573    1.1094    0.0002 C   0  0  0  0  0  0  0  0  0  0  0  0
   -3.6822   -0.1316   -0.2486 O   0  0  0  0  0  0  0  0  0  0  0  0
   -4.1730    2.0603   -0.0214 C   0  0  0  0  0  0  0  0  0  0  0  0
   -5.0239    0.0118   -0.3978 C   0  0  0  0  0  0  0  0  0  0  0  0
   -5.3855    1.3451   -0.2657 C   0  0  0  0  0  0  0  0  0  0  0  0
   -4.0138    3.5254    0.1647 C   0  0  0  0  0  0  0  0  0  0  0  0
   -5.9199   -1.0242   -0.6520 C   0  0  0  0  0  0  0  0  0  0  0  0
   -6.7462    1.6814   -0.3992 C   0  0  0  0  0  0  0  0  0  0  0  0
   -7.2663   -0.6687   -0.7773 C   0  0  0  0  0  0  0  0  0  0  0  0
   -7.6747    0.6612   -0.6534 C   0  0  0  0  0  0  0  0  0  0  0  0
  1  2  2  0
  2  3  1  0
  2  4  1  0
  3  5  1  0
  4  6  2  0
  4  7  1  0
  5  8  1  0
  6  9  1  0
  7 10  2  0
  8 11  1  0
  8 12  2  0
  9 13  2  0
  9 14  1  0
 11 15  1  0
 12 16  1  0
 13 17  1  0
 14 18  1  0
 17 19  1  0
 18 20  1  0
 20 21  2  0
 20 22  1  0
 22 23  1  0
 22 24  2  0
 23 25  1  0
 24 26  1  0
 24 27  1  0
 25 28  2  0
 26 29  2  0
 28 30  1  0
 29 31  1  0
 10 13  1  0
 15 16  2  0
 18 19  1  0
 25 26  1  0
 30 31  2  0
M  END
>  <Molecule Name>  (1) 
CTX-1020754

>  <SMILES>  (1) 
CC1=C(OC2=C1C=CC=C2)C(=O)N1CCC2=C(C1)N=C(C=C2)C(=O)NCC1=CN=CO1

>  <Batch Name>  (1) 
CTX-1020754-1

>  <Batch Created Date>  (1) 
2021-12-16

>  <Batch ID>  (1) 
CTX-1020754-1

>  <External ID>  (1) 
P841-0363

>  <Stereochemistry>  (1) 
Achiral

>  <Amount 1>  (1) 
4.45

>  <Unit 1>  (1) 
mg

>  <CRO 1>  (1) 
Pharmaron

>  <CRO 1 Total Amount>  (1) 
21.85

>  <CRO 1 Unit>  (1) 
mg

>  <pIC50>  (1) 
4.310691

>  <SMILES_std>  (1) 
Cc1c(C(=O)N2CCc3ccc(C(=O)NCc4cnco4)nc3C2)oc2ccccc12

>  <embed_status>  (1) 
0

>  <mmff_status>  (1) 
0

$$$$
