CTX-1020669
     RDKit          3D

 38 43  0  0  0  0  0  0  0  0999 V2000
   -7.6121   -3.4127    1.2091 Cl  0  0  0  0  0  0  0  0  0  0  0  0
   -8.0698   -1.8474    0.6688 C   0  0  0  0  0  0  0  0  0  0  0  0
   -7.4270   -0.6829    1.0177 C   0  0  0  0  0  0  0  0  0  0  0  0
   -9.1685   -1.6289   -0.2358 C   0  0  0  0  0  0  0  0  0  0  0  0
   -8.1511    0.6872    0.3091 S   0  0  0  0  0  0  0  0  0  0  0  0
   -6.3139   -0.5081    1.9227 C   0  0  0  0  0  0  0  0  0  0  0  0
   -9.3209   -0.2673   -0.5190 C   0  0  0  0  0  0  0  0  0  0  0  0
  -10.0728   -2.5349   -0.8500 C   0  0  0  0  0  0  0  0  0  0  0  0
   -6.4581   -0.6206    3.1394 O   0  0  0  0  0  0  0  0  0  0  0  0
   -5.0666   -0.1980    1.3663 N   0  0  0  0  0  0  0  0  0  0  0  0
  -10.3313    0.2017   -1.3821 C   0  0  0  0  0  0  0  0  0  0  0  0
  -11.0758   -2.0734   -1.7078 C   0  0  0  0  0  0  0  0  0  0  0  0
   -3.9567   -0.0531    2.3161 C   0  0  0  0  0  0  0  0  0  0  0  0
   -4.7091   -0.4727   -0.0397 C   0  0  0  0  0  0  0  0  0  0  0  0
  -11.2018   -0.7176   -1.9700 C   0  0  0  0  0  0  0  0  0  0  0  0
   -2.8011    0.6666    1.6835 C   0  0  0  0  0  0  0  0  0  0  0  0
   -3.8248    0.6332   -0.6350 C   0  0  0  0  0  0  0  0  0  0  0  0
   -2.7419    0.9651    0.3375 C   0  0  0  0  0  0  0  0  0  0  0  0
   -1.6220    1.1208    2.3518 C   0  0  0  0  0  0  0  0  0  0  0  0
   -1.3204    1.7754   -0.1067 S   0  0  0  0  0  0  0  0  0  0  0  0
   -0.7238    1.7455    1.5021 C   0  0  0  0  0  0  0  0  0  0  0  0
    0.5684    2.3132    1.8705 C   0  0  0  0  0  0  0  0  0  0  0  0
    1.0087    2.2643    3.0174 O   0  0  0  0  0  0  0  0  0  0  0  0
    1.2758    2.9069    0.8476 N   0  0  0  0  0  0  0  0  0  0  0  0
    2.6355    3.3606    1.0081 C   0  0  0  0  0  0  0  0  0  0  0  0
    3.6008    2.3524    0.4440 C   0  0  0  0  0  0  0  0  0  0  0  0
    3.9661    1.2270    1.1889 C   0  0  0  0  0  0  0  0  0  0  0  0
    4.1174    2.4930   -0.8459 C   0  0  0  0  0  0  0  0  0  0  0  0
    4.8404    0.2690    0.6585 C   0  0  0  0  0  0  0  0  0  0  0  0
    4.9933    1.5324   -1.3654 C   0  0  0  0  0  0  0  0  0  0  0  0
    5.3782    0.3998   -0.6280 C   0  0  0  0  0  0  0  0  0  0  0  0
    6.2577   -0.5270   -1.2011 N   0  0  0  0  0  0  0  0  0  0  0  0
    6.3426   -1.9035   -0.6697 C   0  0  0  0  0  0  0  0  0  0  0  0
    7.5644    0.0630   -1.5895 C   0  0  0  0  0  0  0  0  0  0  0  0
    7.6262   -2.0903    0.1665 C   0  0  0  0  0  0  0  0  0  0  0  0
    8.6536   -1.0195   -1.7790 C   0  0  0  0  0  0  0  0  0  0  0  0
    8.8726   -1.9097   -0.6167 N   0  0  0  0  0  0  0  0  0  0  0  0
    9.9505   -1.4268    0.2421 C   0  0  0  0  0  0  0  0  0  0  0  0
  1  2  1  0
  2  3  2  0
  2  4  1  0
  3  5  1  0
  3  6  1  0
  4  7  2  0
  4  8  1  0
  6  9  2  0
  6 10  1  0
  7 11  1  0
  8 12  2  0
 10 13  1  0
 10 14  1  0
 11 15  2  0
 13 16  1  0
 14 17  1  0
 16 18  2  0
 16 19  1  0
 18 20  1  0
 19 21  2  0
 21 22  1  0
 22 23  2  0
 22 24  1  0
 24 25  1  0
 25 26  1  0
 26 27  2  0
 26 28  1  0
 27 29  1  0
 28 30  2  0
 29 31  2  0
 31 32  1  0
 32 33  1  0
 32 34  1  0
 33 35  1  0
 34 36  1  0
 35 37  1  0
 37 38  1  0
  5  7  1  0
 12 15  1  0
 17 18  1  0
 20 21  1  0
 30 31  1  0
 36 37  1  0
M  END
>  <Molecule Name>  (1) 
CTX-1020669

>  <SMILES>  (1) 
CN1CCN(CC1)C1=CC=C(CNC(=O)C2=CC3=C(CCN(C3)C(=O)C3=C(Cl)C4=C(S3)C=CC=C4)S2)C=C1

>  <Batch Name>  (1) 
CTX-1020669-1

>  <Batch Created Date>  (1) 
2021-12-03

>  <Batch ID>  (1) 
CTX-1020669-1

>  <External ID>  (1) 
610EDL216-4

>  <Stereochemistry>  (1) 
Achiral

>  <Amount 1>  (1) 
5.2

>  <Unit 1>  (1) 
mg

>  <CRO 1>  (1) 
Pharmaron

>  <CRO 1 Total Amount>  (1) 
22.8

>  <CRO 1 Unit>  (1) 
mg

>  <pIC50>  (1) 
5.692504

>  <SMILES_std>  (1) 
CN1CCN(c2ccc(CNC(=O)c3cc4c(s3)CCN(C(=O)c3sc5ccccc5c3Cl)C4)cc2)CC1

>  <embed_status>  (1) 
0

>  <mmff_status>  (1) 
0

$$$$
