CTX-1019630
     RDKit          3D

 35 39  0  0  0  0  0  0  0  0999 V2000
   -1.0310    3.4059    2.9610 O   0  0  0  0  0  0  0  0  0  0  0  0
   -0.3347    2.4181    2.7557 C   0  0  0  0  0  0  0  0  0  0  0  0
   -0.7001    1.1294    3.0763 N   0  0  0  0  0  0  0  0  0  0  0  0
    1.0130    2.5292    2.1073 C   0  0  0  0  0  0  0  0  0  0  0  0
   -2.0208    0.7832    3.5346 C   0  0  0  0  0  0  0  0  0  0  0  0
    1.6930    1.3609    1.9276 N   0  0  0  0  0  0  0  0  0  0  0  0
    1.4942    3.7718    1.7242 C   0  0  0  0  0  0  0  0  0  0  0  0
   -2.8747    0.2906    2.3967 C   0  0  0  0  0  0  0  0  0  0  0  0
    2.9100    1.4372    1.3318 C   0  0  0  0  0  0  0  0  0  0  0  0
    2.7461    3.8311    1.1232 C   0  0  0  0  0  0  0  0  0  0  0  0
   -3.5338    1.1964    1.5606 C   0  0  0  0  0  0  0  0  0  0  0  0
   -2.9897   -1.0732    2.1202 C   0  0  0  0  0  0  0  0  0  0  0  0
    3.4781    2.6548    0.9315 C   0  0  0  0  0  0  0  0  0  0  0  0
    3.6613    0.1319    1.1533 C   0  0  0  0  0  0  0  0  0  0  0  0
   -4.3109    0.7451    0.4852 C   0  0  0  0  0  0  0  0  0  0  0  0
   -3.7710   -1.5147    1.0450 C   0  0  0  0  0  0  0  0  0  0  0  0
    4.8205    2.6938    0.2494 C   0  0  0  0  0  0  0  0  0  0  0  0
    4.8630    0.2379    0.3287 N   0  0  0  0  0  0  0  0  0  0  0  0
   -4.4634   -0.6211    0.2103 C   0  0  0  0  0  0  0  0  0  0  0  0
    5.6504    1.4487    0.5541 C   0  0  0  0  0  0  0  0  0  0  0  0
    5.4471   -0.9695   -0.0638 C   0  0  0  0  0  0  0  0  0  0  0  0
   -5.2260   -1.1178   -0.8599 N   0  0  0  0  0  0  0  0  0  0  0  0
    5.0353   -2.0414    0.3790 O   0  0  0  0  0  0  0  0  0  0  0  0
    6.5308   -0.9136   -1.0327 C   0  0  0  0  0  0  0  0  0  0  0  0
   -6.3000   -2.0549   -0.4537 C   0  0  0  0  0  0  0  0  0  0  0  0
   -5.6490   -0.1692   -1.9099 C   0  0  0  0  0  0  0  0  0  0  0  0
    7.5772   -1.8157   -1.0915 N   0  0  0  0  0  0  0  0  0  0  0  0
    6.7045   -0.0535   -2.1110 C   0  0  0  0  0  0  0  0  0  0  0  0
   -6.9333   -2.7427   -1.6888 C   0  0  0  0  0  0  0  0  0  0  0  0
   -6.2844   -0.9166   -3.1072 C   0  0  0  0  0  0  0  0  0  0  0  0
    8.4189   -1.4975   -2.1267 C   0  0  0  0  0  0  0  0  0  0  0  0
    7.7811   -2.9291   -0.1879 C   0  0  0  0  0  0  0  0  0  0  0  0
    7.8963   -0.4085   -2.7824 C   0  0  0  0  0  0  0  0  0  0  0  0
   -7.3918   -1.8376   -2.7659 N   0  0  0  0  0  0  0  0  0  0  0  0
   -8.5995   -1.1116   -2.3808 C   0  0  0  0  0  0  0  0  0  0  0  0
  1  2  2  0
  2  3  1  0
  2  4  1  0
  3  5  1  0
  4  6  2  0
  4  7  1  0
  5  8  1  0
  6  9  1  0
  7 10  2  0
  8 11  2  0
  8 12  1  0
  9 13  2  0
  9 14  1  0
 11 15  1  0
 12 16  2  0
 13 17  1  0
 14 18  1  0
 15 19  2  0
 17 20  1  0
 18 21  1  0
 19 22  1  0
 21 23  2  0
 21 24  1  0
 22 25  1  0
 22 26  1  0
 24 27  1  0
 24 28  2  0
 25 29  1  0
 26 30  1  0
 27 31  1  0
 27 32  1  0
 28 33  1  0
 29 34  1  0
 34 35  1  0
 10 13  1  0
 16 19  1  0
 18 20  1  0
 30 34  1  0
 31 33  2  0
M  END
>  <Molecule Name>  (1) 
CTX-1019630

>  <SMILES>  (1) 
CN1C=CC=C1C(=O)N1CCC2=C(C1)N=C(C=C2)C(=O)NCC1=CC=C(C=C1)N1CCN(C)CC1

>  <Batch Name>  (1) 
CTX-1019630-1

>  <Batch Created Date>  (1) 
2021-08-19

>  <Batch ID>  (1) 
CTX-1019630-1

>  <External ID>  (1) 
P841-0145

>  <Stereochemistry>  (1) 
Achiral

>  <Amount 1>  (1) 
4.4

>  <Unit 1>  (1) 
mg

>  <CRO 1>  (1) 
Pharmaron

>  <CRO 1 Total Amount>  (1) 
15.27

>  <CRO 1 Unit>  (1) 
mg

>  <pIC50>  (1) 
5.055517

>  <SMILES_std>  (1) 
CN1CCN(c2ccc(CNC(=O)c3ccc4c(n3)CN(C(=O)c3cccn3C)CC4)cc2)CC1

>  <embed_status>  (1) 
0

>  <mmff_status>  (1) 
0

$$$$
