CTX-1020750
     RDKit          3D

 34 38  0  0  0  0  0  0  0  0999 V2000
    3.5057   -3.3423   -2.8731 O   0  0  0  0  0  0  0  0  0  0  0  0
    3.0357   -2.5930   -2.0246 C   0  0  0  0  0  0  0  0  0  0  0  0
    3.7791   -1.6890   -1.3009 N   0  0  0  0  0  0  0  0  0  0  0  0
    1.5721   -2.5864   -1.6998 C   0  0  0  0  0  0  0  0  0  0  0  0
    5.1728   -1.4580   -1.5705 C   0  0  0  0  0  0  0  0  0  0  0  0
    1.1684   -1.6805   -0.7647 N   0  0  0  0  0  0  0  0  0  0  0  0
    0.7174   -3.4671   -2.3457 C   0  0  0  0  0  0  0  0  0  0  0  0
    5.7731   -0.5395   -0.5418 C   0  0  0  0  0  0  0  0  0  0  0  0
   -0.1549   -1.6459   -0.4690 C   0  0  0  0  0  0  0  0  0  0  0  0
   -0.6333   -3.4272   -2.0186 C   0  0  0  0  0  0  0  0  0  0  0  0
    5.7682    0.8484   -0.7337 C   0  0  0  0  0  0  0  0  0  0  0  0
    6.3012   -1.0535    0.6481 C   0  0  0  0  0  0  0  0  0  0  0  0
   -1.0859   -2.5166   -1.0584 C   0  0  0  0  0  0  0  0  0  0  0  0
   -0.5945   -0.6606    0.6007 C   0  0  0  0  0  0  0  0  0  0  0  0
    6.2996    1.7066    0.2360 C   0  0  0  0  0  0  0  0  0  0  0  0
    6.8315   -0.1946    1.6137 C   0  0  0  0  0  0  0  0  0  0  0  0
   -2.5555   -2.4330   -0.7224 C   0  0  0  0  0  0  0  0  0  0  0  0
   -2.0392   -0.4371    0.6029 N   0  0  0  0  0  0  0  0  0  0  0  0
    6.8357    1.1876    1.4143 C   0  0  0  0  0  0  0  0  0  0  0  0
   -2.8135   -1.6782    0.5872 C   0  0  0  0  0  0  0  0  0  0  0  0
   -2.5135    0.7778    0.0875 C   0  0  0  0  0  0  0  0  0  0  0  0
    7.3828    1.9113    2.4379 O   0  0  0  0  0  0  0  0  0  0  0  0
   -1.7333    1.5994   -0.3966 O   0  0  0  0  0  0  0  0  0  0  0  0
   -3.9423    1.0513    0.1391 C   0  0  0  0  0  0  0  0  0  0  0  0
    7.4074    3.3245    2.2829 C   0  0  0  0  0  0  0  0  0  0  0  0
   -4.6963    0.5400    1.1611 O   0  0  0  0  0  0  0  0  0  0  0  0
   -4.7350    1.8625   -0.6674 C   0  0  0  0  0  0  0  0  0  0  0  0
   -5.9676    0.9876    0.9984 C   0  0  0  0  0  0  0  0  0  0  0  0
   -6.0523    1.8085   -0.1173 C   0  0  0  0  0  0  0  0  0  0  0  0
   -4.2861    2.6327   -1.8556 C   0  0  0  0  0  0  0  0  0  0  0  0
   -7.0419    0.6772    1.8292 C   0  0  0  0  0  0  0  0  0  0  0  0
   -7.3028    2.3716   -0.4353 C   0  0  0  0  0  0  0  0  0  0  0  0
   -8.2753    1.2438    1.4931 C   0  0  0  0  0  0  0  0  0  0  0  0
   -8.4056    2.0774    0.3800 C   0  0  0  0  0  0  0  0  0  0  0  0
  1  2  2  0
  2  3  1  0
  2  4  1  0
  3  5  1  0
  4  6  2  0
  4  7  1  0
  5  8  1  0
  6  9  1  0
  7 10  2  0
  8 11  2  0
  8 12  1  0
  9 13  2  0
  9 14  1  0
 11 15  1  0
 12 16  2  0
 13 17  1  0
 14 18  1  0
 15 19  2  0
 17 20  1  0
 18 21  1  0
 19 22  1  0
 21 23  2  0
 21 24  1  0
 22 25  1  0
 24 26  1  0
 24 27  2  0
 26 28  1  0
 27 29  1  0
 27 30  1  0
 28 31  2  0
 29 32  2  0
 31 33  1  0
 32 34  1  0
 10 13  1  0
 16 19  1  0
 18 20  1  0
 28 29  1  0
 33 34  2  0
M  END
>  <Molecule Name>  (1) 
CTX-1020750

>  <SMILES>  (1) 
COC1=CC=C(CNC(=O)C2=NC3=C(CCN(C3)C(=O)C3=C(C)C4=C(O3)C=CC=C4)C=C2)C=C1

>  <Batch Name>  (1) 
CTX-1020750-1

>  <Batch Created Date>  (1) 
2021-12-16

>  <Batch ID>  (1) 
CTX-1020750-1

>  <External ID>  (1) 
P841-0367

>  <Stereochemistry>  (1) 
Achiral

>  <Amount 1>  (1) 
5.0

>  <Unit 1>  (1) 
mg

>  <CRO 1>  (1) 
Pharmaron

>  <CRO 1 Total Amount>  (1) 
13.85

>  <CRO 1 Unit>  (1) 
mg

>  <pIC50>  (1) 
6.116339

>  <SMILES_std>  (1) 
COc1ccc(CNC(=O)c2ccc3c(n2)CN(C(=O)c2oc4ccccc4c2C)CC3)cc1

>  <embed_status>  (1) 
0

>  <mmff_status>  (1) 
0

$$$$
