CTX-1020816
     RDKit          3D

 40 45  0  0  0  0  0  0  0  0999 V2000
   -0.5845   -0.3519   -0.6750 S   0  0  0  0  0  0  0  0  0  0  0  0
   -0.4578   -1.0455   -2.2395 C   0  0  0  0  0  0  0  0  0  0  0  0
   -2.2581   -0.6155   -0.6255 C   0  0  0  0  0  0  0  0  0  0  0  0
    0.8102   -1.1494   -2.9508 C   0  0  0  0  0  0  0  0  0  0  0  0
   -1.6960   -1.4693   -2.6936 C   0  0  0  0  0  0  0  0  0  0  0  0
   -2.7495   -1.2243   -1.7579 C   0  0  0  0  0  0  0  0  0  0  0  0
   -3.1050   -0.2449    0.5388 C   0  0  0  0  0  0  0  0  0  0  0  0
    0.9047   -1.6386   -4.0749 O   0  0  0  0  0  0  0  0  0  0  0  0
    1.9133   -0.6590   -2.2903 N   0  0  0  0  0  0  0  0  0  0  0  0
   -4.1962   -1.5582   -1.9514 C   0  0  0  0  0  0  0  0  0  0  0  0
   -4.5637   -0.0927    0.0803 C   0  0  0  0  0  0  0  0  0  0  0  0
    3.2146   -0.6363   -2.9067 C   0  0  0  0  0  0  0  0  0  0  0  0
   -5.0261   -1.1887   -0.7949 N   0  0  0  0  0  0  0  0  0  0  0  0
    4.2528   -0.1424   -1.9383 C   0  0  0  0  0  0  0  0  0  0  0  0
   -6.3540   -1.6497   -0.8585 C   0  0  0  0  0  0  0  0  0  0  0  0
    4.5777    1.2143   -1.8688 C   0  0  0  0  0  0  0  0  0  0  0  0
    4.8751   -1.0245   -1.0497 C   0  0  0  0  0  0  0  0  0  0  0  0
   -6.6387   -2.5892   -1.6061 O   0  0  0  0  0  0  0  0  0  0  0  0
   -7.3899   -1.0202   -0.0480 C   0  0  0  0  0  0  0  0  0  0  0  0
    5.5209    1.6689   -0.9405 C   0  0  0  0  0  0  0  0  0  0  0  0
    5.8169   -0.5596   -0.1221 C   0  0  0  0  0  0  0  0  0  0  0  0
   -7.3079    0.3091    0.2636 O   0  0  0  0  0  0  0  0  0  0  0  0
   -8.5932   -1.5336    0.4289 C   0  0  0  0  0  0  0  0  0  0  0  0
    6.1623    0.7955   -0.0468 C   0  0  0  0  0  0  0  0  0  0  0  0
   -8.4206    0.6463    0.9680 C   0  0  0  0  0  0  0  0  0  0  0  0
   -9.2552   -0.4571    1.0963 C   0  0  0  0  0  0  0  0  0  0  0  0
   -9.0847   -2.9264    0.2613 C   0  0  0  0  0  0  0  0  0  0  0  0
    7.0999    1.3106    0.8578 N   0  0  0  0  0  0  0  0  0  0  0  0
   -8.7177    1.9016    1.4955 C   0  0  0  0  0  0  0  0  0  0  0  0
  -10.4725   -0.2963    1.7879 C   0  0  0  0  0  0  0  0  0  0  0  0
    8.2804    1.9102    0.1827 C   0  0  0  0  0  0  0  0  0  0  0  0
    7.4151    0.5703    2.0967 C   0  0  0  0  0  0  0  0  0  0  0  0
   -7.7872    2.9667    1.3254 C   0  0  0  0  0  0  0  0  0  0  0  0
   -9.9277    2.0451    2.1833 C   0  0  0  0  0  0  0  0  0  0  0  0
  -10.7946    0.9595    2.3255 C   0  0  0  0  0  0  0  0  0  0  0  0
    9.4581    2.0968    1.1667 C   0  0  0  0  0  0  0  0  0  0  0  0
    8.8043   -0.1003    2.0205 C   0  0  0  0  0  0  0  0  0  0  0  0
   -7.0346    3.8427    1.2062 N   0  0  0  0  0  0  0  0  0  0  0  0
    9.9305    0.8289    1.7697 N   0  0  0  0  0  0  0  0  0  0  0  0
   10.6978    1.0950    2.9831 C   0  0  0  0  0  0  0  0  0  0  0  0
  1  2  1  0
  1  3  1  0
  2  4  1  0
  2  5  2  0
  3  6  2  0
  3  7  1  0
  4  8  2  0
  4  9  1  0
  6 10  1  0
  7 11  1  0
  9 12  1  0
 10 13  1  0
 12 14  1  0
 13 15  1  0
 14 16  2  0
 14 17  1  0
 15 18  2  0
 15 19  1  0
 16 20  1  0
 17 21  2  0
 19 22  1  0
 19 23  2  0
 20 24  2  0
 22 25  1  0
 23 26  1  0
 23 27  1  0
 24 28  1  0
 25 29  2  0
 26 30  2  0
 28 31  1  0
 28 32  1  0
 29 33  1  0
 29 34  1  0
 30 35  1  0
 31 36  1  0
 32 37  1  0
 33 38  3  0
 36 39  1  0
 39 40  1  0
  5  6  1  0
 11 13  1  0
 21 24  1  0
 25 26  1  0
 34 35  2  0
 37 39  1  0
M  END
>  <Molecule Name>  (1) 
CTX-1020816

>  <SMILES>  (1) 
CN1CCN(CC1)C1=CC=C(CNC(=O)C2=CC3=C(CCN(C3)C(=O)C3=C(C)C4=CC=CC(C#N)=C4O3)S2)C=C1

>  <Batch Name>  (1) 
CTX-1020816-1

>  <Batch Created Date>  (1) 
2021-12-30

>  <Batch ID>  (1) 
CTX-1020816-1

>  <External ID>  (1) 
CD-44-2-G-5

>  <Stereochemistry>  (1) 
Achiral

>  <Amount 1>  (1) 
2.0

>  <Unit 1>  (1) 
mg

>  <CRO 1>  (1) 
Pharmaron

>  <CRO 1 Total Amount>  (1) 
16.9

>  <CRO 1 Unit>  (1) 
mg

>  <pIC50>  (1) 
5.046724

>  <SMILES_std>  (1) 
Cc1c(C(=O)N2CCc3sc(C(=O)NCc4ccc(N5CCN(C)CC5)cc4)cc3C2)oc2c(C#N)cccc12

>  <embed_status>  (1) 
0

>  <mmff_status>  (1) 
0

$$$$
