CTX-1020755
     RDKit          3D

 39 44  0  0  0  0  0  0  0  0999 V2000
    2.0969    4.5345   -0.6723 O   0  0  0  0  0  0  0  0  0  0  0  0
    1.4693    3.4985   -0.8605 C   0  0  0  0  0  0  0  0  0  0  0  0
    1.7683    2.5744   -1.8368 N   0  0  0  0  0  0  0  0  0  0  0  0
    0.2902    3.1300   -0.0103 C   0  0  0  0  0  0  0  0  0  0  0  0
    2.9631    2.6419   -2.6382 C   0  0  0  0  0  0  0  0  0  0  0  0
   -0.3062    1.9362   -0.2933 N   0  0  0  0  0  0  0  0  0  0  0  0
   -0.1238    3.9831    1.0035 C   0  0  0  0  0  0  0  0  0  0  0  0
    4.0344    1.7426   -2.0822 C   0  0  0  0  0  0  0  0  0  0  0  0
   -1.3742    1.5899    0.4657 C   0  0  0  0  0  0  0  0  0  0  0  0
   -1.2173    3.6041    1.7740 C   0  0  0  0  0  0  0  0  0  0  0  0
    4.2034    0.4417   -2.5589 C   0  0  0  0  0  0  0  0  0  0  0  0
    4.8595    2.1790   -1.0439 C   0  0  0  0  0  0  0  0  0  0  0  0
   -1.8606    2.3968    1.4984 C   0  0  0  0  0  0  0  0  0  0  0  0
   -2.0111    0.2384    0.2193 C   0  0  0  0  0  0  0  0  0  0  0  0
    5.1912   -0.3934   -2.0170 C   0  0  0  0  0  0  0  0  0  0  0  0
    5.8439    1.3352   -0.5117 C   0  0  0  0  0  0  0  0  0  0  0  0
   -3.0369    1.9137    2.2939 C   0  0  0  0  0  0  0  0  0  0  0  0
   -3.4328    0.1422    0.5622 N   0  0  0  0  0  0  0  0  0  0  0  0
    6.0422    0.0278   -0.9831 C   0  0  0  0  0  0  0  0  0  0  0  0
   -4.0360    1.1979    1.3813 C   0  0  0  0  0  0  0  0  0  0  0  0
   -4.1183   -0.9803    0.0766 C   0  0  0  0  0  0  0  0  0  0  0  0
    7.0156   -0.7999   -0.4494 N   0  0  0  0  0  0  0  0  0  0  0  0
   -3.4774   -1.9140   -0.4145 O   0  0  0  0  0  0  0  0  0  0  0  0
   -5.5741   -1.0333    0.1635 C   0  0  0  0  0  0  0  0  0  0  0  0
    8.1837   -0.2535    0.2612 C   0  0  0  0  0  0  0  0  0  0  0  0
    6.9943   -2.2580   -0.6483 C   0  0  0  0  0  0  0  0  0  0  0  0
   -6.3073    0.1269    0.2377 O   0  0  0  0  0  0  0  0  0  0  0  0
   -6.4392   -2.1290    0.1126 C   0  0  0  0  0  0  0  0  0  0  0  0
    9.4046   -1.1976    0.1452 C   0  0  0  0  0  0  0  0  0  0  0  0
    7.7625   -2.9710    0.4889 C   0  0  0  0  0  0  0  0  0  0  0  0
   -7.6067   -0.2327    0.2573 C   0  0  0  0  0  0  0  0  0  0  0  0
   -7.7558   -1.5964    0.1922 C   0  0  0  0  0  0  0  0  0  0  0  0
   -6.0497   -3.5575   -0.0104 C   0  0  0  0  0  0  0  0  0  0  0  0
    9.1885   -2.5902    0.5915 N   0  0  0  0  0  0  0  0  0  0  0  0
   -8.6653    0.7953    0.3577 C   0  0  0  0  0  0  0  0  0  0  0  0
   -9.0981   -2.2400    0.1744 C   0  0  0  0  0  0  0  0  0  0  0  0
    9.6800   -2.8080    1.9491 C   0  0  0  0  0  0  0  0  0  0  0  0
  -10.0220    0.1519    0.0063 C   0  0  0  0  0  0  0  0  0  0  0  0
  -10.1903   -1.2487    0.6339 C   0  0  0  0  0  0  0  0  0  0  0  0
  1  2  2  0
  2  3  1  0
  2  4  1  0
  3  5  1  0
  4  6  2  0
  4  7  1  0
  5  8  1  0
  6  9  1  0
  7 10  2  0
  8 11  2  0
  8 12  1  0
  9 13  2  0
  9 14  1  0
 11 15  1  0
 12 16  2  0
 13 17  1  0
 14 18  1  0
 15 19  2  0
 17 20  1  0
 18 21  1  0
 19 22  1  0
 21 23  2  0
 21 24  1  0
 22 25  1  0
 22 26  1  0
 24 27  1  0
 24 28  2  0
 25 29  1  0
 26 30  1  0
 27 31  1  0
 28 32  1  0
 28 33  1  0
 29 34  1  0
 31 35  1  0
 32 36  1  0
 34 37  1  0
 35 38  1  0
 36 39  1  0
 10 13  1  0
 16 19  1  0
 18 20  1  0
 30 34  1  0
 31 32  2  0
 38 39  1  0
M  END
>  <Molecule Name>  (1) 
CTX-1020755

>  <SMILES>  (1) 
CN1CCN(CC1)C1=CC=C(CNC(=O)C2=NC3=C(CCN(C3)C(=O)C3=C(C)C4=C(CCCC4)O3)C=C2)C=C1

>  <Batch Name>  (1) 
CTX-1020755-1

>  <Batch Created Date>  (1) 
2021-12-16

>  <Batch ID>  (1) 
CTX-1020755-1

>  <External ID>  (1) 
P841-0382

>  <Stereochemistry>  (1) 
Achiral

>  <Amount 1>  (1) 
5.65

>  <Unit 1>  (1) 
mg

>  <CRO 1>  (1) 
Pharmaron

>  <CRO 1 Total Amount>  (1) 
14.2

>  <CRO 1 Unit>  (1) 
mg

>  <pIC50>  (1) 
4.970616

>  <SMILES_std>  (1) 
Cc1c(C(=O)N2CCc3ccc(C(=O)NCc4ccc(N5CCN(C)CC5)cc4)nc3C2)oc2c1CCCC2

>  <embed_status>  (1) 
0

>  <mmff_status>  (1) 
0

$$$$
