CTX-1019613
     RDKit          3D

 39 44  0  0  0  0  0  0  0  0999 V2000
   -6.0008    2.9663    1.2740 S   0  0  0  0  0  0  0  0  0  0  0  0
   -5.8480    1.5928    0.2798 C   0  0  0  0  0  0  0  0  0  0  0  0
   -7.6324    2.6009    1.6656 C   0  0  0  0  0  0  0  0  0  0  0  0
   -7.0286    0.8725    0.1805 C   0  0  0  0  0  0  0  0  0  0  0  0
   -4.5667    1.3470   -0.3593 C   0  0  0  0  0  0  0  0  0  0  0  0
   -8.0692    1.4466    1.0104 C   0  0  0  0  0  0  0  0  0  0  0  0
   -8.4776    3.3321    2.5240 C   0  0  0  0  0  0  0  0  0  0  0  0
   -7.2191   -0.3451   -0.6686 C   0  0  0  0  0  0  0  0  0  0  0  0
   -4.0850    2.1335   -1.1742 O   0  0  0  0  0  0  0  0  0  0  0  0
   -3.9090    0.1520   -0.0361 N   0  0  0  0  0  0  0  0  0  0  0  0
   -9.4064    1.0282    1.2361 C   0  0  0  0  0  0  0  0  0  0  0  0
   -9.7862    2.8905    2.7257 C   0  0  0  0  0  0  0  0  0  0  0  0
   -2.6186   -0.0687   -0.6866 C   0  0  0  0  0  0  0  0  0  0  0  0
   -4.0994   -0.5486    1.2335 C   0  0  0  0  0  0  0  0  0  0  0  0
  -10.2485    1.7491    2.0884 C   0  0  0  0  0  0  0  0  0  0  0  0
   -2.0701   -1.4746   -0.5449 C   0  0  0  0  0  0  0  0  0  0  0  0
   -3.9400   -2.0567    1.0522 C   0  0  0  0  0  0  0  0  0  0  0  0
   -0.9497   -1.7617   -1.2548 N   0  0  0  0  0  0  0  0  0  0  0  0
   -2.6815   -2.4055    0.3048 C   0  0  0  0  0  0  0  0  0  0  0  0
   -0.4354   -3.0183   -1.1283 C   0  0  0  0  0  0  0  0  0  0  0  0
   -2.1326   -3.6886    0.3998 C   0  0  0  0  0  0  0  0  0  0  0  0
    0.8050   -3.3091   -1.9191 C   0  0  0  0  0  0  0  0  0  0  0  0
   -0.9878   -4.0025   -0.3233 C   0  0  0  0  0  0  0  0  0  0  0  0
    1.3648   -4.3977   -1.8558 O   0  0  0  0  0  0  0  0  0  0  0  0
    1.2405   -2.2540   -2.6896 N   0  0  0  0  0  0  0  0  0  0  0  0
    2.5098   -2.2551   -3.3704 C   0  0  0  0  0  0  0  0  0  0  0  0
    3.5483   -1.5172   -2.5687 C   0  0  0  0  0  0  0  0  0  0  0  0
    3.8169   -0.1680   -2.8042 C   0  0  0  0  0  0  0  0  0  0  0  0
    4.2397   -2.1598   -1.5398 C   0  0  0  0  0  0  0  0  0  0  0  0
    4.7700    0.5133   -2.0337 C   0  0  0  0  0  0  0  0  0  0  0  0
    5.1910   -1.4680   -0.7775 C   0  0  0  0  0  0  0  0  0  0  0  0
    5.4841   -0.1135   -0.9996 C   0  0  0  0  0  0  0  0  0  0  0  0
    6.4267    0.5675   -0.2478 N   0  0  0  0  0  0  0  0  0  0  0  0
    7.4294   -0.1381    0.5669 C   0  0  0  0  0  0  0  0  0  0  0  0
    6.4023    2.0349   -0.1283 C   0  0  0  0  0  0  0  0  0  0  0  0
    8.6691    0.7580    0.7945 C   0  0  0  0  0  0  0  0  0  0  0  0
    7.0122    2.5006    1.2158 C   0  0  0  0  0  0  0  0  0  0  0  0
    8.3819    2.0251    1.5026 N   0  0  0  0  0  0  0  0  0  0  0  0
    9.3867    3.0329    1.1759 C   0  0  0  0  0  0  0  0  0  0  0  0
  1  2  1  0
  1  3  1  0
  2  4  2  0
  2  5  1  0
  3  6  2  0
  3  7  1  0
  4  8  1  0
  5  9  2  0
  5 10  1  0
  6 11  1  0
  7 12  2  0
 10 13  1  0
 10 14  1  0
 11 15  2  0
 13 16  1  0
 14 17  1  0
 16 18  2  0
 16 19  1  0
 18 20  1  0
 19 21  2  0
 20 22  1  0
 20 23  2  0
 22 24  2  0
 22 25  1  0
 25 26  1  0
 26 27  1  0
 27 28  2  0
 27 29  1  0
 28 30  1  0
 29 31  2  0
 30 32  2  0
 32 33  1  0
 33 34  1  0
 33 35  1  0
 34 36  1  0
 35 37  1  0
 36 38  1  0
 38 39  1  0
  4  6  1  0
 12 15  1  0
 17 19  1  0
 21 23  1  0
 31 32  1  0
 37 38  1  0
M  END
>  <Molecule Name>  (1) 
CTX-1019613

>  <SMILES>  (1) 
CN1CCN(CC1)C1=CC=C(CNC(=O)C2=CC=C3CCN(CC3=N2)C(=O)C2=C(C)C3=C(S2)C=CC=C3)C=C1

>  <Batch Name>  (1) 
CTX-1019613-1

>  <Batch Created Date>  (1) 
2021-08-19

>  <Batch ID>  (1) 
CTX-1019613-1

>  <External ID>  (1) 
P841-0128

>  <Stereochemistry>  (1) 
Achiral

>  <Amount 1>  (1) 
5.2

>  <Unit 1>  (1) 
mg

>  <CRO 1>  (1) 
Pharmaron

>  <CRO 1 Total Amount>  (1) 
23.9

>  <CRO 1 Unit>  (1) 
mg

>  <pIC50>  (1) 
5.617983

>  <SMILES_std>  (1) 
Cc1c(C(=O)N2CCc3ccc(C(=O)NCc4ccc(N5CCN(C)CC5)cc4)nc3C2)sc2ccccc12

>  <embed_status>  (1) 
0

>  <mmff_status>  (1) 
0

$$$$
