CTX-1020800
     RDKit          3D

 38 43  0  0  0  0  0  0  0  0999 V2000
   -6.9427    0.1668    2.5232 O   0  0  0  0  0  0  0  0  0  0  0  0
   -6.3897    0.1717    1.4202 C   0  0  0  0  0  0  0  0  0  0  0  0
   -4.9924    0.0440    1.3365 N   0  0  0  0  0  0  0  0  0  0  0  0
   -7.1787    0.3144    0.2041 C   0  0  0  0  0  0  0  0  0  0  0  0
   -4.3524   -0.5340    2.5333 C   0  0  0  0  0  0  0  0  0  0  0  0
   -4.2308    0.0717    0.0668 C   0  0  0  0  0  0  0  0  0  0  0  0
   -6.8104   -0.3512   -0.9349 O   0  0  0  0  0  0  0  0  0  0  0  0
   -8.3842    0.9763   -0.0117 C   0  0  0  0  0  0  0  0  0  0  0  0
   -2.8654   -0.4267    2.4765 C   0  0  0  0  0  0  0  0  0  0  0  0
   -2.8086    0.6567    0.1979 C   0  0  0  0  0  0  0  0  0  0  0  0
   -7.7450   -0.0920   -1.8846 C   0  0  0  0  0  0  0  0  0  0  0  0
   -8.7422    0.7252   -1.3715 C   0  0  0  0  0  0  0  0  0  0  0  0
   -9.1417    1.7748    0.9860 C   0  0  0  0  0  0  0  0  0  0  0  0
   -2.1726    0.1017    1.4129 C   0  0  0  0  0  0  0  0  0  0  0  0
   -1.8926   -0.8108    3.4323 C   0  0  0  0  0  0  0  0  0  0  0  0
   -7.7205   -0.5764   -3.1906 C   0  0  0  0  0  0  0  0  0  0  0  0
   -9.8050    1.0905   -2.2196 C   0  0  0  0  0  0  0  0  0  0  0  0
   -0.8369    0.0653    1.6855 N   0  0  0  0  0  0  0  0  0  0  0  0
   -0.6339   -0.5226    2.9190 C   0  0  0  0  0  0  0  0  0  0  0  0
   -8.7831   -0.1982   -4.0171 C   0  0  0  0  0  0  0  0  0  0  0  0
   -9.8092    0.6214   -3.5414 C   0  0  0  0  0  0  0  0  0  0  0  0
    0.6499   -0.7377    3.5541 C   0  0  0  0  0  0  0  0  0  0  0  0
    0.7829   -0.9328    4.7579 O   0  0  0  0  0  0  0  0  0  0  0  0
    1.7224   -0.7363    2.6892 N   0  0  0  0  0  0  0  0  0  0  0  0
    3.0409   -1.0624    3.1787 C   0  0  0  0  0  0  0  0  0  0  0  0
    4.0645   -0.8568    2.0970 C   0  0  0  0  0  0  0  0  0  0  0  0
    4.5000   -1.9228    1.3080 C   0  0  0  0  0  0  0  0  0  0  0  0
    4.5630    0.4179    1.8223 C   0  0  0  0  0  0  0  0  0  0  0  0
    5.4281   -1.7144    0.2779 C   0  0  0  0  0  0  0  0  0  0  0  0
    5.4914    0.6125    0.7907 C   0  0  0  0  0  0  0  0  0  0  0  0
    5.9556   -0.4455   -0.0073 C   0  0  0  0  0  0  0  0  0  0  0  0
    6.8688   -0.2381   -1.0279 N   0  0  0  0  0  0  0  0  0  0  0  0
    7.8058    0.8998   -0.9896 C   0  0  0  0  0  0  0  0  0  0  0  0
    7.1161   -1.2479   -2.0704 C   0  0  0  0  0  0  0  0  0  0  0  0
    9.1476    0.5537   -1.6793 C   0  0  0  0  0  0  0  0  0  0  0  0
    7.7459   -0.5890   -3.3195 C   0  0  0  0  0  0  0  0  0  0  0  0
    9.0514    0.0594   -3.0685 N   0  0  0  0  0  0  0  0  0  0  0  0
    9.2930    1.1207   -4.0418 C   0  0  0  0  0  0  0  0  0  0  0  0
  1  2  2  0
  2  3  1  0
  2  4  1  0
  3  5  1  0
  3  6  1  0
  4  7  1  0
  4  8  2  0
  5  9  1  0
  6 10  1  0
  7 11  1  0
  8 12  1  0
  8 13  1  0
  9 14  2  0
  9 15  1  0
 11 16  2  0
 12 17  2  0
 14 18  1  0
 15 19  2  0
 16 20  1  0
 17 21  1  0
 19 22  1  0
 22 23  2  0
 22 24  1  0
 24 25  1  0
 25 26  1  0
 26 27  2  0
 26 28  1  0
 27 29  1  0
 28 30  2  0
 29 31  2  0
 31 32  1  0
 32 33  1  0
 32 34  1  0
 33 35  1  0
 34 36  1  0
 35 37  1  0
 37 38  1  0
 10 14  1  0
 11 12  1  0
 18 19  1  0
 20 21  2  0
 30 31  1  0
 36 37  1  0
M  END
>  <Molecule Name>  (1) 
CTX-1020800

>  <SMILES>  (1) 
CN1CCN(CC1)C1=CC=C(CNC(=O)C2=CC3=C(CCN(C3)C(=O)C3=C(C)C4=C(O3)C=CC=C4)N2)C=C1

>  <Batch Name>  (1) 
CTX-1020800-1

>  <Batch Created Date>  (1) 
2021-12-24

>  <Batch ID>  (1) 
CTX-1020800-1

>  <External ID>  (1) 
CD-44-Q

>  <Stereochemistry>  (1) 
Achiral

>  <Amount 1>  (1) 
2.6

>  <Unit 1>  (1) 
mg

>  <CRO 1>  (1) 
Pharmaron

>  <CRO 1 Total Amount>  (1) 
16.1

>  <CRO 1 Unit>  (1) 
mg

>  <pIC50>  (1) 
5.931814

>  <SMILES_std>  (1) 
Cc1c(C(=O)N2CCc3[nH]c(C(=O)NCc4ccc(N5CCN(C)CC5)cc4)cc3C2)oc2ccccc12

>  <embed_status>  (1) 
0

>  <mmff_status>  (1) 
0

$$$$
