CTX-1020795
     RDKit          3D

 40 45  0  0  0  0  0  0  0  0999 V2000
   -9.1476   -1.8808    0.9649 Cl  0  0  0  0  0  0  0  0  0  0  0  0
   -9.3789   -0.3340    0.2597 C   0  0  0  0  0  0  0  0  0  0  0  0
   -8.3058    0.4789   -0.1062 C   0  0  0  0  0  0  0  0  0  0  0  0
  -10.6649    0.1646    0.0339 C   0  0  0  0  0  0  0  0  0  0  0  0
   -6.9865    0.1772    0.0237 O   0  0  0  0  0  0  0  0  0  0  0  0
   -8.4510    1.7401   -0.6702 C   0  0  0  0  0  0  0  0  0  0  0  0
  -10.8514    1.4262   -0.5358 C   0  0  0  0  0  0  0  0  0  0  0  0
   -6.2591    1.2419   -0.4317 C   0  0  0  0  0  0  0  0  0  0  0  0
   -7.1264    2.2313   -0.8889 C   0  0  0  0  0  0  0  0  0  0  0  0
   -9.7550    2.2251   -0.8933 C   0  0  0  0  0  0  0  0  0  0  0  0
   -4.8007    1.1865   -0.4481 C   0  0  0  0  0  0  0  0  0  0  0  0
   -6.7395    3.5349   -1.4893 C   0  0  0  0  0  0  0  0  0  0  0  0
   -4.1508    1.9401   -1.1777 O   0  0  0  0  0  0  0  0  0  0  0  0
   -4.1258    0.2720    0.3725 N   0  0  0  0  0  0  0  0  0  0  0  0
   -2.6899    0.1075    0.1235 C   0  0  0  0  0  0  0  0  0  0  0  0
   -4.7484   -0.5076    1.4488 C   0  0  0  0  0  0  0  0  0  0  0  0
   -2.0635   -1.1235    0.7438 C   0  0  0  0  0  0  0  0  0  0  0  0
   -3.7721   -0.9377    2.5470 C   0  0  0  0  0  0  0  0  0  0  0  0
   -0.9786   -1.6607    0.1352 N   0  0  0  0  0  0  0  0  0  0  0  0
   -2.5797   -1.6191    1.9445 C   0  0  0  0  0  0  0  0  0  0  0  0
   -0.3961   -2.7317    0.7475 C   0  0  0  0  0  0  0  0  0  0  0  0
   -1.9506   -2.7051    2.5544 C   0  0  0  0  0  0  0  0  0  0  0  0
    0.8024   -3.3154    0.0605 C   0  0  0  0  0  0  0  0  0  0  0  0
   -0.8404   -3.2778    1.9440 C   0  0  0  0  0  0  0  0  0  0  0  0
    1.4193   -4.2603    0.5393 O   0  0  0  0  0  0  0  0  0  0  0  0
    1.1320   -2.6905   -1.1216 N   0  0  0  0  0  0  0  0  0  0  0  0
    2.3455   -2.9732   -1.8439 C   0  0  0  0  0  0  0  0  0  0  0  0
    3.4127   -1.9619   -1.5193 C   0  0  0  0  0  0  0  0  0  0  0  0
    4.2047   -2.1092   -0.3761 C   0  0  0  0  0  0  0  0  0  0  0  0
    3.6091   -0.8384   -2.3259 C   0  0  0  0  0  0  0  0  0  0  0  0
    5.1843   -1.1603   -0.0556 C   0  0  0  0  0  0  0  0  0  0  0  0
    4.5919    0.1032   -1.9995 C   0  0  0  0  0  0  0  0  0  0  0  0
    5.4013   -0.0347   -0.8598 C   0  0  0  0  0  0  0  0  0  0  0  0
    6.3717    0.9403   -0.5898 N   0  0  0  0  0  0  0  0  0  0  0  0
    6.8666    1.1196    0.7905 C   0  0  0  0  0  0  0  0  0  0  0  0
    7.4271    0.9980   -1.6339 C   0  0  0  0  0  0  0  0  0  0  0  0
    8.2977    0.5635    0.9589 C   0  0  0  0  0  0  0  0  0  0  0  0
    8.6690    1.7719   -1.1350 C   0  0  0  0  0  0  0  0  0  0  0  0
    9.3076    1.1618    0.0546 N   0  0  0  0  0  0  0  0  0  0  0  0
   10.1435    2.1404    0.7438 C   0  0  0  0  0  0  0  0  0  0  0  0
  1  2  1  0
  2  3  2  0
  2  4  1  0
  3  5  1  0
  3  6  1  0
  4  7  2  0
  5  8  1  0
  6  9  1  0
  6 10  2  0
  8 11  1  0
  9 12  1  0
 11 13  2  0
 11 14  1  0
 14 15  1  0
 14 16  1  0
 15 17  1  0
 16 18  1  0
 17 19  2  0
 17 20  1  0
 19 21  1  0
 20 22  2  0
 21 23  1  0
 21 24  2  0
 23 25  2  0
 23 26  1  0
 26 27  1  0
 27 28  1  0
 28 29  2  0
 28 30  1  0
 29 31  1  0
 30 32  2  0
 31 33  2  0
 33 34  1  0
 34 35  1  0
 34 36  1  0
 35 37  1  0
 36 38  1  0
 37 39  1  0
 39 40  1  0
  7 10  1  0
  8  9  2  0
 18 20  1  0
 22 24  1  0
 32 33  1  0
 38 39  1  0
M  END
>  <Molecule Name>  (1) 
CTX-1020795

>  <SMILES>  (1) 
CN1CCN(CC1)C1=CC=C(CNC(=O)C2=CC=C3CCN(CC3=N2)C(=O)C2=C(C)C3=C(O2)C(Cl)=CC=C3)C=C1

>  <Batch Name>  (1) 
CTX-1020795-1

>  <Batch Created Date>  (1) 
2021-12-24

>  <Batch ID>  (1) 
CTX-1020795-1

>  <External ID>  (1) 
CD-42-O

>  <Stereochemistry>  (1) 
Achiral

>  <Amount 1>  (1) 
2.3

>  <Unit 1>  (1) 
mg

>  <CRO 1>  (1) 
Pharmaron

>  <CRO 1 Total Amount>  (1) 
13.3

>  <CRO 1 Unit>  (1) 
mg

>  <pIC50>  (1) 
4.728158

>  <SMILES_std>  (1) 
Cc1c(C(=O)N2CCc3ccc(C(=O)NCc4ccc(N5CCN(C)CC5)cc4)nc3C2)oc2c(Cl)cccc12

>  <embed_status>  (1) 
0

>  <mmff_status>  (1) 
0

$$$$
