CTX-1020695
     RDKit          3D

 36 41  0  0  0  0  0  0  0  0999 V2000
    3.1132   -2.7343    1.9819 O   0  0  0  0  0  0  0  0  0  0  0  0
    2.3881   -2.2790    1.1048 C   0  0  0  0  0  0  0  0  0  0  0  0
    2.6356   -2.3894   -0.2451 N   0  0  0  0  0  0  0  0  0  0  0  0
    1.1327   -1.5287    1.4366 C   0  0  0  0  0  0  0  0  0  0  0  0
    3.8659   -2.9174   -0.7761 C   0  0  0  0  0  0  0  0  0  0  0  0
    0.4438   -1.0111    0.3797 N   0  0  0  0  0  0  0  0  0  0  0  0
    0.7405   -1.3911    2.7598 C   0  0  0  0  0  0  0  0  0  0  0  0
    4.8096   -1.8048   -1.1488 C   0  0  0  0  0  0  0  0  0  0  0  0
   -0.6990   -0.3357    0.6590 C   0  0  0  0  0  0  0  0  0  0  0  0
   -0.4265   -0.6845    3.0271 C   0  0  0  0  0  0  0  0  0  0  0  0
    5.6603   -1.2485   -0.1806 C   0  0  0  0  0  0  0  0  0  0  0  0
    4.8307   -1.2859   -2.4474 C   0  0  0  0  0  0  0  0  0  0  0  0
   -1.1585   -0.1331    1.9707 C   0  0  0  0  0  0  0  0  0  0  0  0
   -1.4415    0.2743   -0.5177 C   0  0  0  0  0  0  0  0  0  0  0  0
    6.5208   -0.1868   -0.4871 C   0  0  0  0  0  0  0  0  0  0  0  0
    5.7097   -0.2545   -2.7775 C   0  0  0  0  0  0  0  0  0  0  0  0
   -2.4487    0.6024    2.2416 C   0  0  0  0  0  0  0  0  0  0  0  0
   -2.8087    0.6680   -0.1818 N   0  0  0  0  0  0  0  0  0  0  0  0
    7.4059    0.2806    0.4982 N   0  0  0  0  0  0  0  0  0  0  0  0
    6.5730    0.2818   -1.8109 C   0  0  0  0  0  0  0  0  0  0  0  0
   -2.8963    1.4549    1.0484 C   0  0  0  0  0  0  0  0  0  0  0  0
   -3.8572   -0.1215   -0.6752 C   0  0  0  0  0  0  0  0  0  0  0  0
    8.0269    1.5712    0.2363 C   0  0  0  0  0  0  0  0  0  0  0  0
    7.5052    1.4036   -2.1912 C   0  0  0  0  0  0  0  0  0  0  0  0
   -3.6200   -1.1393   -1.3279 O   0  0  0  0  0  0  0  0  0  0  0  0
   -5.2287    0.2853   -0.4067 C   0  0  0  0  0  0  0  0  0  0  0  0
    8.6172    1.5917   -1.1652 C   0  0  0  0  0  0  0  0  0  0  0  0
   -5.5344    1.6151   -0.2953 O   0  0  0  0  0  0  0  0  0  0  0  0
   -6.3927   -0.4721   -0.3170 C   0  0  0  0  0  0  0  0  0  0  0  0
   -6.8745    1.7145   -0.1018 C   0  0  0  0  0  0  0  0  0  0  0  0
   -7.4581    0.4554   -0.1041 C   0  0  0  0  0  0  0  0  0  0  0  0
   -6.4942   -1.9498   -0.4306 C   0  0  0  0  0  0  0  0  0  0  0  0
   -7.5760    2.9055    0.0715 C   0  0  0  0  0  0  0  0  0  0  0  0
   -8.8516    0.3678    0.0764 C   0  0  0  0  0  0  0  0  0  0  0  0
   -8.9580    2.7956    0.2530 C   0  0  0  0  0  0  0  0  0  0  0  0
   -9.5873    1.5486    0.2557 C   0  0  0  0  0  0  0  0  0  0  0  0
  1  2  2  0
  2  3  1  0
  2  4  1  0
  3  5  1  0
  4  6  2  0
  4  7  1  0
  5  8  1  0
  6  9  1  0
  7 10  2  0
  8 11  2  0
  8 12  1  0
  9 13  2  0
  9 14  1  0
 11 15  1  0
 12 16  2  0
 13 17  1  0
 14 18  1  0
 15 19  1  0
 15 20  2  0
 17 21  1  0
 18 22  1  0
 19 23  1  0
 20 24  1  0
 22 25  2  0
 22 26  1  0
 23 27  1  0
 26 28  1  0
 26 29  2  0
 28 30  1  0
 29 31  1  0
 29 32  1  0
 30 33  2  0
 31 34  2  0
 33 35  1  0
 34 36  1  0
 10 13  1  0
 16 20  1  0
 18 21  1  0
 24 27  1  0
 30 31  1  0
 35 36  2  0
M  END
>  <Molecule Name>  (1) 
CTX-1020695

>  <SMILES>  (1) 
CC1=C(OC2=C1C=CC=C2)C(=O)N1CCC2=CC=C(N=C2C1)C(=O)NCC1=CC=C2CCCNC2=C1

>  <Batch Name>  (1) 
CTX-1020695-1

>  <Batch Created Date>  (1) 
2021-12-09

>  <Batch ID>  (1) 
CTX-1020695-1

>  <External ID>  (1) 
CD-42-A

>  <Stereochemistry>  (1) 
Achiral

>  <Amount 1>  (1) 
7.6

>  <Unit 1>  (1) 
mg

>  <CRO 1>  (1) 
Pharmaron

>  <CRO 1 Total Amount>  (1) 
16.9

>  <CRO 1 Unit>  (1) 
mg

>  <pIC50>  (1) 
5.565431

>  <SMILES_std>  (1) 
Cc1c(C(=O)N2CCc3ccc(C(=O)NCc4ccc5c(c4)NCCC5)nc3C2)oc2ccccc12

>  <embed_status>  (1) 
0

>  <mmff_status>  (1) 
0

$$$$
