CTX-1020741
     RDKit          3D

 33 37  0  0  0  0  0  0  0  0999 V2000
   -0.9853   -2.4767    1.5804 S   0  0  0  0  0  0  0  0  0  0  0  0
   -1.9785   -2.1825    0.2083 C   0  0  0  0  0  0  0  0  0  0  0  0
    0.4195   -2.0370    0.7417 C   0  0  0  0  0  0  0  0  0  0  0  0
   -3.4177   -2.3963    0.3217 C   0  0  0  0  0  0  0  0  0  0  0  0
   -1.2156   -1.7680   -0.8732 C   0  0  0  0  0  0  0  0  0  0  0  0
    0.1804   -1.6766   -0.5694 C   0  0  0  0  0  0  0  0  0  0  0  0
    1.7747   -2.0305    1.3757 C   0  0  0  0  0  0  0  0  0  0  0  0
   -3.9524   -3.0147    1.2398 O   0  0  0  0  0  0  0  0  0  0  0  0
   -4.1675   -1.8325   -0.6944 N   0  0  0  0  0  0  0  0  0  0  0  0
    1.2741   -1.2688   -1.5170 C   0  0  0  0  0  0  0  0  0  0  0  0
    2.8366   -2.0421    0.2669 C   0  0  0  0  0  0  0  0  0  0  0  0
   -5.6117   -1.8189   -0.6507 C   0  0  0  0  0  0  0  0  0  0  0  0
    2.5261   -1.0570   -0.7870 N   0  0  0  0  0  0  0  0  0  0  0  0
   -6.1174   -0.4793   -0.1817 C   0  0  0  0  0  0  0  0  0  0  0  0
    3.5015   -0.2854   -1.4286 C   0  0  0  0  0  0  0  0  0  0  0  0
   -6.5397    0.4923   -1.0987 C   0  0  0  0  0  0  0  0  0  0  0  0
   -6.1373   -0.1707    1.1839 C   0  0  0  0  0  0  0  0  0  0  0  0
    3.3461    0.0552   -2.6037 O   0  0  0  0  0  0  0  0  0  0  0  0
    4.6765    0.1227   -0.6732 C   0  0  0  0  0  0  0  0  0  0  0  0
   -6.9869    1.7440   -0.6586 C   0  0  0  0  0  0  0  0  0  0  0  0
   -6.5829    1.0792    1.6193 C   0  0  0  0  0  0  0  0  0  0  0  0
    4.5912    0.2642    0.6868 O   0  0  0  0  0  0  0  0  0  0  0  0
    5.9437    0.5025   -1.1048 C   0  0  0  0  0  0  0  0  0  0  0  0
   -7.0111    2.0424    0.7037 C   0  0  0  0  0  0  0  0  0  0  0  0
    5.7975    0.6992    1.1317 C   0  0  0  0  0  0  0  0  0  0  0  0
    6.6747    0.8631    0.0688 C   0  0  0  0  0  0  0  0  0  0  0  0
    6.4254    0.5310   -2.5096 C   0  0  0  0  0  0  0  0  0  0  0  0
   -7.4214    3.2209    1.2631 O   0  0  0  0  0  0  0  0  0  0  0  0
    6.1196    0.9527    2.4631 C   0  0  0  0  0  0  0  0  0  0  0  0
    7.9777    1.3184    0.3463 C   0  0  0  0  0  0  0  0  0  0  0  0
   -7.8746    4.2324    0.3728 C   0  0  0  0  0  0  0  0  0  0  0  0
    7.4197    1.4005    2.7167 C   0  0  0  0  0  0  0  0  0  0  0  0
    8.3349    1.5811    1.6771 C   0  0  0  0  0  0  0  0  0  0  0  0
  1  2  1  0
  1  3  1  0
  2  4  1  0
  2  5  2  0
  3  6  2  0
  3  7  1  0
  4  8  2  0
  4  9  1  0
  6 10  1  0
  7 11  1  0
  9 12  1  0
 10 13  1  0
 12 14  1  0
 13 15  1  0
 14 16  2  0
 14 17  1  0
 15 18  2  0
 15 19  1  0
 16 20  1  0
 17 21  2  0
 19 22  1  0
 19 23  2  0
 20 24  2  0
 22 25  1  0
 23 26  1  0
 23 27  1  0
 24 28  1  0
 25 29  2  0
 26 30  2  0
 28 31  1  0
 29 32  1  0
 30 33  1  0
  5  6  1  0
 11 13  1  0
 21 24  1  0
 25 26  1  0
 32 33  2  0
M  END
>  <Molecule Name>  (1) 
CTX-1020741

>  <SMILES>  (1) 
COC1=CC=C(CNC(=O)C2=CC3=C(CCN(C3)C(=O)C3=C(C)C4=C(O3)C=CC=C4)S2)C=C1

>  <Batch Name>  (1) 
CTX-1020741-1

>  <Batch Created Date>  (1) 
2021-12-16

>  <Batch ID>  (1) 
CTX-1020741-1

>  <External ID>  (1) 
P841-0356

>  <Stereochemistry>  (1) 
Achiral

>  <Amount 1>  (1) 
4.55

>  <Unit 1>  (1) 
mg

>  <CRO 1>  (1) 
Pharmaron

>  <CRO 1 Total Amount>  (1) 
19.75

>  <CRO 1 Unit>  (1) 
mg

>  <pIC50>  (1) 
6.116907

>  <SMILES_std>  (1) 
COc1ccc(CNC(=O)c2cc3c(s2)CCN(C(=O)c2oc4ccccc4c2C)C3)cc1

>  <embed_status>  (1) 
0

>  <mmff_status>  (1) 
0

$$$$
