CTX-1020518
     RDKit          3D

 34 38  0  0  0  0  0  0  0  0999 V2000
    0.1112   -2.1445    1.4869 S   0  0  0  0  0  0  0  0  0  0  0  0
    1.0716   -1.8767    0.0846 C   0  0  0  0  0  0  0  0  0  0  0  0
   -1.1335   -1.1522    0.9081 C   0  0  0  0  0  0  0  0  0  0  0  0
    2.3787   -2.5221   -0.0045 C   0  0  0  0  0  0  0  0  0  0  0  0
    0.4147   -1.0427   -0.8082 C   0  0  0  0  0  0  0  0  0  0  0  0
   -0.8673   -0.6147   -0.3351 C   0  0  0  0  0  0  0  0  0  0  0  0
   -2.4005   -0.9137    1.6670 C   0  0  0  0  0  0  0  0  0  0  0  0
    2.7786   -3.3789    0.7818 O   0  0  0  0  0  0  0  0  0  0  0  0
    3.1716   -2.0904   -1.0518 N   0  0  0  0  0  0  0  0  0  0  0  0
   -1.8224    0.2987   -1.0520 C   0  0  0  0  0  0  0  0  0  0  0  0
   -3.0862    0.3367    1.0985 C   0  0  0  0  0  0  0  0  0  0  0  0
    4.5469   -2.5130   -1.1870 C   0  0  0  0  0  0  0  0  0  0  0  0
   -3.1220    0.3081   -0.3764 N   0  0  0  0  0  0  0  0  0  0  0  0
    5.4808   -1.4371   -0.7012 C   0  0  0  0  0  0  0  0  0  0  0  0
   -4.2135    0.7597   -1.1268 C   0  0  0  0  0  0  0  0  0  0  0  0
    5.7124   -1.2615    0.6635 C   0  0  0  0  0  0  0  0  0  0  0  0
    6.1001   -0.5611   -1.5924 C   0  0  0  0  0  0  0  0  0  0  0  0
   -4.0342    1.2593   -2.2400 O   0  0  0  0  0  0  0  0  0  0  0  0
   -5.5517    0.6014   -0.5769 C   0  0  0  0  0  0  0  0  0  0  0  0
    6.5589   -0.2409    1.1209 C   0  0  0  0  0  0  0  0  0  0  0  0
    6.9468    0.4547   -1.1227 C   0  0  0  0  0  0  0  0  0  0  0  0
   -5.8041   -0.4134    0.3082 O   0  0  0  0  0  0  0  0  0  0  0  0
   -6.7323    1.2827   -0.8571 C   0  0  0  0  0  0  0  0  0  0  0  0
    7.2164    0.6407    0.2452 C   0  0  0  0  0  0  0  0  0  0  0  0
   -7.1243   -0.3683    0.6203 C   0  0  0  0  0  0  0  0  0  0  0  0
   -7.7494    0.6614   -0.0690 C   0  0  0  0  0  0  0  0  0  0  0  0
   -6.8916    2.4218   -1.7969 C   0  0  0  0  0  0  0  0  0  0  0  0
    8.0494    1.6705    0.7032 N   0  0  0  0  0  0  0  0  0  0  0  0
   -7.7717   -1.2305    1.5024 C   0  0  0  0  0  0  0  0  0  0  0  0
   -9.1303    0.8515    0.1289 C   0  0  0  0  0  0  0  0  0  0  0  0
    9.0131    2.2543   -0.2290 C   0  0  0  0  0  0  0  0  0  0  0  0
    8.4471    1.6877    2.1098 C   0  0  0  0  0  0  0  0  0  0  0  0
   -9.1419   -1.0217    1.6869 C   0  0  0  0  0  0  0  0  0  0  0  0
   -9.8119    0.0016    1.0124 C   0  0  0  0  0  0  0  0  0  0  0  0
  1  2  1  0
  1  3  1  0
  2  4  1  0
  2  5  2  0
  3  6  2  0
  3  7  1  0
  4  8  2  0
  4  9  1  0
  6 10  1  0
  7 11  1  0
  9 12  1  0
 10 13  1  0
 12 14  1  0
 13 15  1  0
 14 16  2  0
 14 17  1  0
 15 18  2  0
 15 19  1  0
 16 20  1  0
 17 21  2  0
 19 22  1  0
 19 23  2  0
 20 24  2  0
 22 25  1  0
 23 26  1  0
 23 27  1  0
 24 28  1  0
 25 29  2  0
 26 30  2  0
 28 31  1  0
 28 32  1  0
 29 33  1  0
 30 34  1  0
  5  6  1  0
 11 13  1  0
 21 24  1  0
 25 26  1  0
 33 34  2  0
M  END
>  <Molecule Name>  (1) 
CTX-1020518

>  <SMILES>  (1) 
CN(C)C1=CC=C(CNC(=O)C2=CC3=C(CCN(C3)C(=O)C3=C(C)C4=C(O3)C=CC=C4)S2)C=C1

>  <Batch Name>  (1) 
CTX-1020518-1

>  <Batch Created Date>  (1) 
2021-11-04

>  <Batch ID>  (1) 
CTX-1020518-1

>  <External ID>  (1) 
610EDL099-C

>  <Stereochemistry>  (1) 
Achiral

>  <Amount 1>  (1) 
4.99

>  <Unit 1>  (1) 
mg

>  <CRO 1>  (1) 
Pharmaron

>  <CRO 1 Total Amount>  (1) 
4.5

>  <CRO 1 Unit>  (1) 
mg

>  <pIC50>  (1) 
6.203426

>  <SMILES_std>  (1) 
Cc1c(C(=O)N2CCc3sc(C(=O)NCc4ccc(N(C)C)cc4)cc3C2)oc2ccccc12

>  <embed_status>  (1) 
0

>  <mmff_status>  (1) 
0

$$$$
