CTX-1020562
     RDKit          3D

 43 48  0  0  0  0  0  0  0  0999 V2000
  -11.4644    0.8297   -2.1705 F   0  0  0  0  0  0  0  0  0  0  0  0
  -10.5489    0.4328   -3.0802 C   0  0  0  0  0  0  0  0  0  0  0  0
  -11.2024   -0.2788   -4.0303 F   0  0  0  0  0  0  0  0  0  0  0  0
  -10.0509    1.5367   -3.6826 F   0  0  0  0  0  0  0  0  0  0  0  0
   -9.4337   -0.4257   -2.4468 C   0  0  0  0  0  0  0  0  0  0  0  0
   -8.6804    0.1322   -1.2931 N   0  0  0  0  0  0  0  0  0  0  0  0
   -7.6789   -0.8296   -0.7724 C   0  0  0  0  0  0  0  0  0  0  0  0
   -8.0517    1.4331   -1.6275 C   0  0  0  0  0  0  0  0  0  0  0  0
   -6.2202   -0.5330   -1.1842 C   0  0  0  0  0  0  0  0  0  0  0  0
   -6.8834    1.8185   -0.6898 C   0  0  0  0  0  0  0  0  0  0  0  0
   -5.7950    0.8099   -0.7441 N   0  0  0  0  0  0  0  0  0  0  0  0
   -4.8933    0.9374    0.3222 C   0  0  0  0  0  0  0  0  0  0  0  0
   -4.1155    2.1026    0.4238 C   0  0  0  0  0  0  0  0  0  0  0  0
   -4.7187   -0.0356    1.3140 C   0  0  0  0  0  0  0  0  0  0  0  0
   -3.2027    2.2922    1.4677 C   0  0  0  0  0  0  0  0  0  0  0  0
   -3.8091    0.1470    2.3637 C   0  0  0  0  0  0  0  0  0  0  0  0
   -3.0480    1.3167    2.4556 C   0  0  0  0  0  0  0  0  0  0  0  0
   -2.0552    1.4951    3.5736 C   0  0  0  0  0  0  0  0  0  0  0  0
   -0.8022    0.8607    3.2550 N   0  0  0  0  0  0  0  0  0  0  0  0
   -0.4700   -0.4019    3.6932 C   0  0  0  0  0  0  0  0  0  0  0  0
   -1.1290   -1.0510    4.4975 O   0  0  0  0  0  0  0  0  0  0  0  0
    0.7887   -0.9480    3.0877 C   0  0  0  0  0  0  0  0  0  0  0  0
    1.4129   -0.1499    2.1750 N   0  0  0  0  0  0  0  0  0  0  0  0
    1.2483   -2.2011    3.4636 C   0  0  0  0  0  0  0  0  0  0  0  0
    2.5540   -0.6246    1.6143 C   0  0  0  0  0  0  0  0  0  0  0  0
    2.4143   -2.6740    2.8731 C   0  0  0  0  0  0  0  0  0  0  0  0
    3.0768   -1.8889    1.9241 C   0  0  0  0  0  0  0  0  0  0  0  0
    3.2323    0.2709    0.5942 C   0  0  0  0  0  0  0  0  0  0  0  0
    4.3588   -2.3711    1.2947 C   0  0  0  0  0  0  0  0  0  0  0  0
    4.5458   -0.2020    0.1658 N   0  0  0  0  0  0  0  0  0  0  0  0
    4.6465   -1.6483   -0.0189 C   0  0  0  0  0  0  0  0  0  0  0  0
    5.3707    0.7216   -0.4854 C   0  0  0  0  0  0  0  0  0  0  0  0
    4.9358    1.8352   -0.7862 O   0  0  0  0  0  0  0  0  0  0  0  0
    6.7479    0.3468   -0.7705 C   0  0  0  0  0  0  0  0  0  0  0  0
    7.3788   -0.5721    0.0262 O   0  0  0  0  0  0  0  0  0  0  0  0
    7.6411    0.8365   -1.7185 C   0  0  0  0  0  0  0  0  0  0  0  0
    8.6543   -0.6976   -0.4215 C   0  0  0  0  0  0  0  0  0  0  0  0
    8.8737    0.1478   -1.5000 C   0  0  0  0  0  0  0  0  0  0  0  0
    7.3592    1.8752   -2.7423 C   0  0  0  0  0  0  0  0  0  0  0  0
    9.6164   -1.5475    0.1195 C   0  0  0  0  0  0  0  0  0  0  0  0
   10.1520    0.1547   -2.0901 C   0  0  0  0  0  0  0  0  0  0  0  0
   10.8776   -1.5274   -0.4838 C   0  0  0  0  0  0  0  0  0  0  0  0
   11.1430   -0.6910   -1.5705 C   0  0  0  0  0  0  0  0  0  0  0  0
  1  2  1  0
  2  3  1  0
  2  4  1  0
  2  5  1  0
  5  6  1  0
  6  7  1  0
  6  8  1  0
  7  9  1  0
  8 10  1  0
  9 11  1  0
 11 12  1  0
 12 13  2  0
 12 14  1  0
 13 15  1  0
 14 16  2  0
 15 17  2  0
 17 18  1  0
 18 19  1  0
 19 20  1  0
 20 21  2  0
 20 22  1  0
 22 23  2  0
 22 24  1  0
 23 25  1  0
 24 26  2  0
 25 27  2  0
 25 28  1  0
 27 29  1  0
 28 30  1  0
 29 31  1  0
 30 32  1  0
 32 33  2  0
 32 34  1  0
 34 35  1  0
 34 36  2  0
 35 37  1  0
 36 38  1  0
 36 39  1  0
 37 40  2  0
 38 41  2  0
 40 42  1  0
 41 43  1  0
 10 11  1  0
 16 17  1  0
 26 27  1  0
 30 31  1  0
 37 38  1  0
 42 43  2  0
M  END
>  <Molecule Name>  (1) 
CTX-1020562

>  <SMILES>  (1) 
CC1=C(OC2=C1C=CC=C2)C(=O)N1CCC2=C(C1)N=C(C=C2)C(=O)NCC1=CC=C(C=C1)N1CCN(CC(F)(F)F)CC1

>  <Batch Name>  (1) 
CTX-1020562-1

>  <Batch Created Date>  (1) 
2021-11-18

>  <Batch ID>  (1) 
CTX-1020562-1

>  <External ID>  (1) 
P841-0237

>  <Stereochemistry>  (1) 
Achiral

>  <Amount 1>  (1) 
3.95

>  <Unit 1>  (1) 
mg

>  <CRO 1>  (1) 
Pharmaron

>  <CRO 1 Total Amount>  (1) 
40.2

>  <CRO 1 Unit>  (1) 
mg

>  <pIC50>  (1) 
5.66354

>  <SMILES_std>  (1) 
Cc1c(C(=O)N2CCc3ccc(C(=O)NCc4ccc(N5CCN(CC(F)(F)F)CC5)cc4)nc3C2)oc2ccccc12

>  <embed_status>  (1) 
0

>  <mmff_status>  (1) 
0

$$$$
