CTX-1020565
     RDKit          3D

 38 43  0  0  0  0  0  0  0  0999 V2000
   -0.4112   -4.1317    3.0680 O   0  0  0  0  0  0  0  0  0  0  0  0
   -0.6990   -3.5143    2.0490 C   0  0  0  0  0  0  0  0  0  0  0  0
   -0.1623   -3.7712    0.8067 N   0  0  0  0  0  0  0  0  0  0  0  0
   -1.6819   -2.3818    2.0681 C   0  0  0  0  0  0  0  0  0  0  0  0
    0.9346   -4.6819    0.6035 C   0  0  0  0  0  0  0  0  0  0  0  0
   -1.9132   -1.7657    0.8731 N   0  0  0  0  0  0  0  0  0  0  0  0
   -2.2948   -2.0191    3.2594 C   0  0  0  0  0  0  0  0  0  0  0  0
    2.2438   -3.9413    0.5403 C   0  0  0  0  0  0  0  0  0  0  0  0
   -2.7871   -0.7298    0.8767 C   0  0  0  0  0  0  0  0  0  0  0  0
   -3.1942   -0.9591    3.2378 C   0  0  0  0  0  0  0  0  0  0  0  0
    2.7866   -3.5385   -0.6815 C   0  0  0  0  0  0  0  0  0  0  0  0
    2.9191   -3.5926    1.7110 C   0  0  0  0  0  0  0  0  0  0  0  0
   -3.4387   -0.2955    2.0346 C   0  0  0  0  0  0  0  0  0  0  0  0
   -3.1114   -0.0741   -0.4489 C   0  0  0  0  0  0  0  0  0  0  0  0
    3.9947   -2.8267   -0.7287 C   0  0  0  0  0  0  0  0  0  0  0  0
    4.1251   -2.8831    1.6515 C   0  0  0  0  0  0  0  0  0  0  0  0
   -4.4027    0.8489    1.9319 C   0  0  0  0  0  0  0  0  0  0  0  0
   -3.5409    1.3254   -0.3738 N   0  0  0  0  0  0  0  0  0  0  0  0
    4.7097   -2.4994    0.4324 C   0  0  0  0  0  0  0  0  0  0  0  0
   -3.8866    1.8892    0.9347 C   0  0  0  0  0  0  0  0  0  0  0  0
   -3.5785    2.0309   -1.5841 C   0  0  0  0  0  0  0  0  0  0  0  0
    5.9105   -1.7854    0.4264 N   0  0  0  0  0  0  0  0  0  0  0  0
   -3.4745    1.4146   -2.6481 O   0  0  0  0  0  0  0  0  0  0  0  0
   -3.7465    3.4791   -1.5722 C   0  0  0  0  0  0  0  0  0  0  0  0
    7.0263   -2.3527    1.2233 C   0  0  0  0  0  0  0  0  0  0  0  0
    6.4103   -1.1517   -0.8122 C   0  0  0  0  0  0  0  0  0  0  0  0
   -3.3684    4.2085   -0.4766 O   0  0  0  0  0  0  0  0  0  0  0  0
   -4.1914    4.3403   -2.5723 C   0  0  0  0  0  0  0  0  0  0  0  0
    7.8720   -3.2998    0.3542 C   0  0  0  0  0  0  0  0  0  0  0  0
    7.2962   -2.1232   -1.6110 C   0  0  0  0  0  0  0  0  0  0  0  0
   -3.5904    5.5184   -0.7534 C   0  0  0  0  0  0  0  0  0  0  0  0
   -4.1009    5.6613   -2.0355 C   0  0  0  0  0  0  0  0  0  0  0  0
   -4.6593    3.9518   -3.9280 C   0  0  0  0  0  0  0  0  0  0  0  0
    8.3806   -2.6286   -0.8126 O   0  0  0  0  0  0  0  0  0  0  0  0
   -3.3414    6.5777    0.1163 C   0  0  0  0  0  0  0  0  0  0  0  0
   -4.3867    6.9605   -2.4965 C   0  0  0  0  0  0  0  0  0  0  0  0
   -3.6350    7.8590   -0.3602 C   0  0  0  0  0  0  0  0  0  0  0  0
   -4.1491    8.0494   -1.6448 C   0  0  0  0  0  0  0  0  0  0  0  0
  1  2  2  0
  2  3  1  0
  2  4  1  0
  3  5  1  0
  4  6  2  0
  4  7  1  0
  5  8  1  0
  6  9  1  0
  7 10  2  0
  8 11  2  0
  8 12  1  0
  9 13  2  0
  9 14  1  0
 11 15  1  0
 12 16  2  0
 13 17  1  0
 14 18  1  0
 15 19  2  0
 17 20  1  0
 18 21  1  0
 19 22  1  0
 21 23  2  0
 21 24  1  0
 22 25  1  0
 22 26  1  0
 24 27  1  0
 24 28  2  0
 25 29  1  0
 26 30  1  0
 27 31  1  0
 28 32  1  0
 28 33  1  0
 29 34  1  0
 31 35  2  0
 32 36  2  0
 35 37  1  0
 36 38  1  0
 10 13  1  0
 16 19  1  0
 18 20  1  0
 30 34  1  0
 31 32  1  0
 37 38  2  0
M  END
>  <Molecule Name>  (1) 
CTX-1020565

>  <SMILES>  (1) 
CC1=C(OC2=C1C=CC=C2)C(=O)N1CCC2=C(C1)N=C(C=C2)C(=O)NCC1=CC=C(C=C1)N1CCOCC1

>  <Batch Name>  (1) 
CTX-1020565-1

>  <Batch Created Date>  (1) 
2021-11-18

>  <Batch ID>  (1) 
CTX-1020565-1

>  <External ID>  (1) 
P841-0233

>  <Stereochemistry>  (1) 
Achiral

>  <Amount 1>  (1) 
5.15

>  <Unit 1>  (1) 
mg

>  <CRO 1>  (1) 
Pharmaron

>  <CRO 1 Total Amount>  (1) 
11.5

>  <CRO 1 Unit>  (1) 
mg

>  <pIC50>  (1) 
5.809668

>  <SMILES_std>  (1) 
Cc1c(C(=O)N2CCc3ccc(C(=O)NCc4ccc(N5CCOCC5)cc4)nc3C2)oc2ccccc12

>  <embed_status>  (1) 
0

>  <mmff_status>  (1) 
0

$$$$
