CTX-1020751
     RDKit          3D

 36 40  0  0  0  0  0  0  0  0999 V2000
    7.6347   -1.5341   -2.2954 F   0  0  0  0  0  0  0  0  0  0  0  0
    7.0359   -2.5577   -1.6241 C   0  0  0  0  0  0  0  0  0  0  0  0
    8.0470   -3.2984   -1.0922 F   0  0  0  0  0  0  0  0  0  0  0  0
    6.4637   -3.3414   -2.5817 F   0  0  0  0  0  0  0  0  0  0  0  0
    6.0533   -2.0913   -0.5793 C   0  0  0  0  0  0  0  0  0  0  0  0
    4.9696   -2.9016   -0.2083 C   0  0  0  0  0  0  0  0  0  0  0  0
    6.2245   -0.8557    0.0614 C   0  0  0  0  0  0  0  0  0  0  0  0
    4.0683   -2.4796    0.7725 C   0  0  0  0  0  0  0  0  0  0  0  0
    5.3238   -0.4349    1.0421 C   0  0  0  0  0  0  0  0  0  0  0  0
    4.2414   -1.2451    1.4115 C   0  0  0  0  0  0  0  0  0  0  0  0
    3.2615   -0.7711    2.4543 C   0  0  0  0  0  0  0  0  0  0  0  0
    2.2843    0.1131    1.8739 N   0  0  0  0  0  0  0  0  0  0  0  0
    2.3797    1.4852    1.9460 C   0  0  0  0  0  0  0  0  0  0  0  0
    3.2233    2.0847    2.6025 O   0  0  0  0  0  0  0  0  0  0  0  0
    1.3548    2.2141    1.1289 C   0  0  0  0  0  0  0  0  0  0  0  0
    0.5204    1.4374    0.3789 N   0  0  0  0  0  0  0  0  0  0  0  0
    1.3029    3.5994    1.1639 C   0  0  0  0  0  0  0  0  0  0  0  0
   -0.4165    2.0791   -0.3638 C   0  0  0  0  0  0  0  0  0  0  0  0
    0.3414    4.2380    0.3894 C   0  0  0  0  0  0  0  0  0  0  0  0
   -0.5279    3.4785   -0.3997 C   0  0  0  0  0  0  0  0  0  0  0  0
   -1.3229    1.2033   -1.2156 C   0  0  0  0  0  0  0  0  0  0  0  0
   -1.6027    4.1564   -1.2159 C   0  0  0  0  0  0  0  0  0  0  0  0
   -2.4751    1.9296   -1.7544 N   0  0  0  0  0  0  0  0  0  0  0  0
   -2.1421    3.2350   -2.3111 C   0  0  0  0  0  0  0  0  0  0  0  0
   -3.7758    1.7337   -1.2690 C   0  0  0  0  0  0  0  0  0  0  0  0
   -4.5909    2.6566   -1.2729 O   0  0  0  0  0  0  0  0  0  0  0  0
   -4.1235    0.4042   -0.8036 C   0  0  0  0  0  0  0  0  0  0  0  0
   -4.7512    0.3049    0.4069 O   0  0  0  0  0  0  0  0  0  0  0  0
   -3.9709   -0.8600   -1.3653 C   0  0  0  0  0  0  0  0  0  0  0  0
   -4.9712   -1.0127    0.6468 C   0  0  0  0  0  0  0  0  0  0  0  0
   -4.5064   -1.7810   -0.4118 C   0  0  0  0  0  0  0  0  0  0  0  0
   -3.3896   -1.1958   -2.6895 C   0  0  0  0  0  0  0  0  0  0  0  0
   -5.5773   -1.5329    1.7878 C   0  0  0  0  0  0  0  0  0  0  0  0
   -4.6562   -3.1789   -0.3365 C   0  0  0  0  0  0  0  0  0  0  0  0
   -5.7133   -2.9234    1.8440 C   0  0  0  0  0  0  0  0  0  0  0  0
   -5.2612   -3.7346    0.8005 C   0  0  0  0  0  0  0  0  0  0  0  0
  1  2  1  0
  2  3  1  0
  2  4  1  0
  2  5  1  0
  5  6  2  0
  5  7  1  0
  6  8  1  0
  7  9  2  0
  8 10  2  0
 10 11  1  0
 11 12  1  0
 12 13  1  0
 13 14  2  0
 13 15  1  0
 15 16  2  0
 15 17  1  0
 16 18  1  0
 17 19  2  0
 18 20  2  0
 18 21  1  0
 20 22  1  0
 21 23  1  0
 22 24  1  0
 23 25  1  0
 25 26  2  0
 25 27  1  0
 27 28  1  0
 27 29  2  0
 28 30  1  0
 29 31  1  0
 29 32  1  0
 30 33  2  0
 31 34  2  0
 33 35  1  0
 34 36  1  0
  9 10  1  0
 19 20  1  0
 23 24  1  0
 30 31  1  0
 35 36  2  0
M  END
>  <Molecule Name>  (1) 
CTX-1020751

>  <SMILES>  (1) 
CC1=C(OC2=C1C=CC=C2)C(=O)N1CCC2=C(C1)N=C(C=C2)C(=O)NCC1=CC=C(C=C1)C(F)(F)F

>  <Batch Name>  (1) 
CTX-1020751-1

>  <Batch Created Date>  (1) 
2021-12-16

>  <Batch ID>  (1) 
CTX-1020751-1

>  <External ID>  (1) 
P841-0366

>  <Stereochemistry>  (1) 
Achiral

>  <Amount 1>  (1) 
4.55

>  <Unit 1>  (1) 
mg

>  <CRO 1>  (1) 
Pharmaron

>  <CRO 1 Total Amount>  (1) 
21.6

>  <CRO 1 Unit>  (1) 
mg

>  <pIC50>  (1) 
4.043832

>  <SMILES_std>  (1) 
Cc1c(C(=O)N2CCc3ccc(C(=O)NCc4ccc(C(F)(F)F)cc4)nc3C2)oc2ccccc12

>  <embed_status>  (1) 
0

>  <mmff_status>  (1) 
0

$$$$
