CTX-1020838
     RDKit          3D

 40 45  0  0  0  0  0  0  0  0999 V2000
   -6.3800    3.3565   -3.0325 Cl  0  0  0  0  0  0  0  0  0  0  0  0
   -6.9227    2.2969   -1.8162 C   0  0  0  0  0  0  0  0  0  0  0  0
   -6.1684    1.4714   -0.9998 C   0  0  0  0  0  0  0  0  0  0  0  0
   -8.2867    2.1262   -1.4512 C   0  0  0  0  0  0  0  0  0  0  0  0
   -7.0096    0.7813   -0.1633 O   0  0  0  0  0  0  0  0  0  0  0  0
   -4.7398    1.2104   -0.9723 C   0  0  0  0  0  0  0  0  0  0  0  0
   -8.2806    1.1844   -0.4304 C   0  0  0  0  0  0  0  0  0  0  0  0
   -9.5271    2.6558   -1.8649 C   0  0  0  0  0  0  0  0  0  0  0  0
   -4.0396    1.3901   -1.9707 O   0  0  0  0  0  0  0  0  0  0  0  0
   -4.1461    0.7410    0.2084 N   0  0  0  0  0  0  0  0  0  0  0  0
   -9.4349    0.7391    0.2072 C   0  0  0  0  0  0  0  0  0  0  0  0
  -10.7022    2.2173   -1.2337 C   0  0  0  0  0  0  0  0  0  0  0  0
   -2.7647    0.2600    0.0947 C   0  0  0  0  0  0  0  0  0  0  0  0
   -4.8080    0.6804    1.5163 C   0  0  0  0  0  0  0  0  0  0  0  0
   -9.3917   -0.1653    1.1931 F   0  0  0  0  0  0  0  0  0  0  0  0
  -10.6546    1.2701   -0.2090 C   0  0  0  0  0  0  0  0  0  0  0  0
   -2.2407   -0.5126    1.2866 C   0  0  0  0  0  0  0  0  0  0  0  0
   -3.8395    0.7803    2.6971 C   0  0  0  0  0  0  0  0  0  0  0  0
   -1.2436   -1.4050    1.0720 N   0  0  0  0  0  0  0  0  0  0  0  0
   -2.7477   -0.2387    2.5600 C   0  0  0  0  0  0  0  0  0  0  0  0
   -0.7410   -2.0443    2.1674 C   0  0  0  0  0  0  0  0  0  0  0  0
   -2.2003   -0.8973    3.6621 C   0  0  0  0  0  0  0  0  0  0  0  0
    0.3619   -3.0278    1.9117 C   0  0  0  0  0  0  0  0  0  0  0  0
   -1.1807   -1.8217    3.4649 C   0  0  0  0  0  0  0  0  0  0  0  0
    0.9062   -3.6331    2.8281 O   0  0  0  0  0  0  0  0  0  0  0  0
    0.6946   -3.1658    0.5825 N   0  0  0  0  0  0  0  0  0  0  0  0
    1.8439   -3.9114    0.1375 C   0  0  0  0  0  0  0  0  0  0  0  0
    3.0098   -2.9950   -0.1221 C   0  0  0  0  0  0  0  0  0  0  0  0
    3.8382   -2.5864    0.9275 C   0  0  0  0  0  0  0  0  0  0  0  0
    3.2700   -2.5065   -1.4044 C   0  0  0  0  0  0  0  0  0  0  0  0
    4.9127   -1.7172    0.6960 C   0  0  0  0  0  0  0  0  0  0  0  0
    4.3448   -1.6370   -1.6258 C   0  0  0  0  0  0  0  0  0  0  0  0
    5.1856   -1.2133   -0.5828 C   0  0  0  0  0  0  0  0  0  0  0  0
    6.2540   -0.3465   -0.8677 N   0  0  0  0  0  0  0  0  0  0  0  0
    5.8225    0.9685   -1.4024 C   0  0  0  0  0  0  0  0  0  0  0  0
    7.3194   -0.2049    0.1472 C   0  0  0  0  0  0  0  0  0  0  0  0
    7.0388    1.7662   -1.9322 C   0  0  0  0  0  0  0  0  0  0  0  0
    8.5104    0.5979   -0.4266 C   0  0  0  0  0  0  0  0  0  0  0  0
    8.1070    1.9332   -0.9215 N   0  0  0  0  0  0  0  0  0  0  0  0
    9.2518    2.6376   -1.4937 C   0  0  0  0  0  0  0  0  0  0  0  0
  1  2  1  0
  2  3  2  0
  2  4  1  0
  3  5  1  0
  3  6  1  0
  4  7  2  0
  4  8  1  0
  6  9  2  0
  6 10  1  0
  7 11  1  0
  8 12  2  0
 10 13  1  0
 10 14  1  0
 11 15  1  0
 11 16  2  0
 13 17  1  0
 14 18  1  0
 17 19  2  0
 17 20  1  0
 19 21  1  0
 20 22  2  0
 21 23  1  0
 21 24  2  0
 23 25  2  0
 23 26  1  0
 26 27  1  0
 27 28  1  0
 28 29  2  0
 28 30  1  0
 29 31  1  0
 30 32  2  0
 31 33  2  0
 33 34  1  0
 34 35  1  0
 34 36  1  0
 35 37  1  0
 36 38  1  0
 37 39  1  0
 39 40  1  0
  5  7  1  0
 12 16  1  0
 18 20  1  0
 22 24  1  0
 32 33  1  0
 38 39  1  0
M  END
>  <Molecule Name>  (1) 
CTX-1020838

>  <SMILES>  (1) 
CN1CCN(CC1)C1=CC=C(CNC(=O)C2=CC=C3CCN(CC3=N2)C(=O)C2=C(Cl)C3=C(O2)C(F)=CC=C3)C=C1

>  <Batch Name>  (1) 
CTX-1020838-1

>  <Batch Created Date>  (1) 
2022-01-06

>  <Batch ID>  (1) 
CTX-1020838-1

>  <External ID>  (1) 
CD-42-P

>  <Stereochemistry>  (1) 
Achiral

>  <Amount 1>  (1) 
6.2

>  <Unit 1>  (1) 
mg

>  <CRO 1>  (1) 
Pharmaron

>  <CRO 1 Total Amount>  (1) 
20.9

>  <CRO 1 Unit>  (1) 
mg

>  <pIC50>  (1) 
5.208309

>  <SMILES_std>  (1) 
CN1CCN(c2ccc(CNC(=O)c3ccc4c(n3)CN(C(=O)c3oc5c(F)cccc5c3Cl)CC4)cc2)CC1

>  <embed_status>  (1) 
0

>  <mmff_status>  (1) 
0

$$$$
