CTX-1020459
     RDKit          3D

 40 45  0  0  0  0  0  0  0  0999 V2000
    4.2858    6.4153   -0.8757 Cl  0  0  0  0  0  0  0  0  0  0  0  0
    4.1420    4.7547   -0.4395 C   0  0  0  0  0  0  0  0  0  0  0  0
    5.2912    3.9528   -0.4150 C   0  0  0  0  0  0  0  0  0  0  0  0
    2.8849    4.2378   -0.1186 C   0  0  0  0  0  0  0  0  0  0  0  0
    5.1576    2.5969   -0.0582 C   0  0  0  0  0  0  0  0  0  0  0  0
    2.7334    2.8943    0.2403 C   0  0  0  0  0  0  0  0  0  0  0  0
    3.8926    2.1215    0.2553 C   0  0  0  0  0  0  0  0  0  0  0  0
    6.0417    1.4830    0.0861 C   0  0  0  0  0  0  0  0  0  0  0  0
    3.9508    0.8061    0.5777 O   0  0  0  0  0  0  0  0  0  0  0  0
    5.2520    0.3991    0.4671 C   0  0  0  0  0  0  0  0  0  0  0  0
    7.5134    1.4733   -0.1244 C   0  0  0  0  0  0  0  0  0  0  0  0
    5.6326   -0.9769    0.7798 C   0  0  0  0  0  0  0  0  0  0  0  0
    6.8155   -1.2670    0.9786 O   0  0  0  0  0  0  0  0  0  0  0  0
    4.6526   -1.9846    0.8497 N   0  0  0  0  0  0  0  0  0  0  0  0
    3.3100   -1.8228    0.2752 C   0  0  0  0  0  0  0  0  0  0  0  0
    5.1131   -3.3451    1.1255 C   0  0  0  0  0  0  0  0  0  0  0  0
    2.4874   -3.0869    0.1202 C   0  0  0  0  0  0  0  0  0  0  0  0
    4.0235   -4.2256    1.7331 C   0  0  0  0  0  0  0  0  0  0  0  0
    1.4052   -3.0198   -0.6945 N   0  0  0  0  0  0  0  0  0  0  0  0
    2.8138   -4.2363    0.8453 C   0  0  0  0  0  0  0  0  0  0  0  0
    0.6211   -4.1330   -0.7769 C   0  0  0  0  0  0  0  0  0  0  0  0
    1.9822   -5.3544    0.7485 C   0  0  0  0  0  0  0  0  0  0  0  0
   -0.5757   -4.0325   -1.6751 C   0  0  0  0  0  0  0  0  0  0  0  0
    0.8660   -5.3064   -0.0789 C   0  0  0  0  0  0  0  0  0  0  0  0
   -1.3792   -4.9519   -1.7784 O   0  0  0  0  0  0  0  0  0  0  0  0
   -0.6775   -2.8316   -2.3411 N   0  0  0  0  0  0  0  0  0  0  0  0
   -1.8384   -2.4542   -3.1061 C   0  0  0  0  0  0  0  0  0  0  0  0
   -2.6831   -1.4713   -2.3406 C   0  0  0  0  0  0  0  0  0  0  0  0
   -3.5577   -1.9120   -1.3452 C   0  0  0  0  0  0  0  0  0  0  0  0
   -2.5852   -0.0989   -2.5751 C   0  0  0  0  0  0  0  0  0  0  0  0
   -4.3276   -0.9969   -0.6140 C   0  0  0  0  0  0  0  0  0  0  0  0
   -3.3629    0.8061   -1.8390 C   0  0  0  0  0  0  0  0  0  0  0  0
   -4.2592    0.3859   -0.8427 C   0  0  0  0  0  0  0  0  0  0  0  0
   -5.0161    1.2925   -0.1182 N   0  0  0  0  0  0  0  0  0  0  0  0
   -5.3629    2.6119   -0.6749 C   0  0  0  0  0  0  0  0  0  0  0  0
   -5.6947    0.9143    1.1323 C   0  0  0  0  0  0  0  0  0  0  0  0
   -6.7327    3.1060   -0.1504 C   0  0  0  0  0  0  0  0  0  0  0  0
   -5.9967    2.1710    1.9813 C   0  0  0  0  0  0  0  0  0  0  0  0
   -6.8833    3.1529    1.3189 N   0  0  0  0  0  0  0  0  0  0  0  0
   -6.6494    4.4936    1.8476 C   0  0  0  0  0  0  0  0  0  0  0  0
  1  2  1  0
  2  3  2  0
  2  4  1  0
  3  5  1  0
  4  6  2  0
  5  7  2  0
  5  8  1  0
  7  9  1  0
  8 10  2  0
  8 11  1  0
 10 12  1  0
 12 13  2  0
 12 14  1  0
 14 15  1  0
 14 16  1  0
 15 17  1  0
 16 18  1  0
 17 19  2  0
 17 20  1  0
 19 21  1  0
 20 22  2  0
 21 23  1  0
 21 24  2  0
 23 25  2  0
 23 26  1  0
 26 27  1  0
 27 28  1  0
 28 29  2  0
 28 30  1  0
 29 31  1  0
 30 32  2  0
 31 33  2  0
 33 34  1  0
 34 35  1  0
 34 36  1  0
 35 37  1  0
 36 38  1  0
 37 39  1  0
 39 40  1  0
  6  7  1  0
  9 10  1  0
 18 20  1  0
 22 24  1  0
 32 33  1  0
 38 39  1  0
M  END
>  <Molecule Name>  (1) 
CTX-1020459

>  <SMILES>  (1) 
CN1CCN(CC1)C1=CC=C(CNC(=O)C2=CC=C3CCN(CC3=N2)C(=O)C2=C(C)C3=C(O2)C=CC(Cl)=C3)C=C1

>  <Batch Name>  (1) 
CTX-1020459-1

>  <Batch Created Date>  (1) 
2021-10-21

>  <Batch ID>  (1) 
CTX-1020459-1

>  <External ID>  (1) 
P841-0208

>  <Stereochemistry>  (1) 
Achiral

>  <Amount 1>  (1) 
5.2

>  <Unit 1>  (1) 
mg

>  <CRO 1>  (1) 
Pharmaron

>  <CRO 1 Total Amount>  (1) 
32.2

>  <CRO 1 Unit>  (1) 
mg

>  <pIC50>  (1) 
5.739929

>  <SMILES_std>  (1) 
Cc1c(C(=O)N2CCc3ccc(C(=O)NCc4ccc(N5CCN(C)CC5)cc4)nc3C2)oc2ccc(Cl)cc12

>  <embed_status>  (1) 
0

>  <mmff_status>  (1) 
0

$$$$
