CTX-1019904
     RDKit          3D

 41 46  0  0  0  0  0  0  0  0999 V2000
   -3.3063    4.0459   -1.1933 O   0  0  0  0  0  0  0  0  0  0  0  0
   -2.2946    3.4211   -1.4921 C   0  0  0  0  0  0  0  0  0  0  0  0
   -2.1863    2.6178   -2.6042 N   0  0  0  0  0  0  0  0  0  0  0  0
   -1.0620    3.4659   -0.6395 C   0  0  0  0  0  0  0  0  0  0  0  0
   -3.3197    2.2829   -3.4357 C   0  0  0  0  0  0  0  0  0  0  0  0
   -0.0171    2.6926   -1.0489 N   0  0  0  0  0  0  0  0  0  0  0  0
   -1.0386    4.2591    0.4975 C   0  0  0  0  0  0  0  0  0  0  0  0
   -3.9910    1.0092   -2.9793 C   0  0  0  0  0  0  0  0  0  0  0  0
    1.1044    2.7089   -0.2851 C   0  0  0  0  0  0  0  0  0  0  0  0
    0.1215    4.2706    1.2629 C   0  0  0  0  0  0  0  0  0  0  0  0
   -3.6023   -0.1472   -3.5628 N   0  0  0  0  0  0  0  0  0  0  0  0
   -4.9363    1.0361   -1.9620 C   0  0  0  0  0  0  0  0  0  0  0  0
    1.2187    3.4985    0.8676 C   0  0  0  0  0  0  0  0  0  0  0  0
    2.2615    1.8506   -0.7601 C   0  0  0  0  0  0  0  0  0  0  0  0
   -4.1930   -1.2900   -3.1206 C   0  0  0  0  0  0  0  0  0  0  0  0
   -5.5175   -0.1638   -1.5405 C   0  0  0  0  0  0  0  0  0  0  0  0
    2.4725    3.4698    1.7015 C   0  0  0  0  0  0  0  0  0  0  0  0
    3.3720    1.7592    0.1858 N   0  0  0  0  0  0  0  0  0  0  0  0
   -5.1628   -1.3883   -2.1155 C   0  0  0  0  0  0  0  0  0  0  0  0
    3.6799    3.0010    0.8929 C   0  0  0  0  0  0  0  0  0  0  0  0
    4.3279    0.7676   -0.0697 C   0  0  0  0  0  0  0  0  0  0  0  0
   -5.7243   -2.5876   -1.7157 N   0  0  0  0  0  0  0  0  0  0  0  0
    4.2634    0.0942   -1.0999 O   0  0  0  0  0  0  0  0  0  0  0  0
    5.3765    0.5413    0.9135 C   0  0  0  0  0  0  0  0  0  0  0  0
   -5.6589   -3.7894   -2.5646 C   0  0  0  0  0  0  0  0  0  0  0  0
   -6.4502   -2.7242   -0.4418 C   0  0  0  0  0  0  0  0  0  0  0  0
    5.1308    0.7920    2.2354 O   0  0  0  0  0  0  0  0  0  0  0  0
    6.6498    0.0057    0.7684 C   0  0  0  0  0  0  0  0  0  0  0  0
   -6.8409   -4.7457   -2.2752 C   0  0  0  0  0  0  0  0  0  0  0  0
   -6.3984   -4.1861    0.0605 C   0  0  0  0  0  0  0  0  0  0  0  0
    6.2411    0.4489    2.9477 C   0  0  0  0  0  0  0  0  0  0  0  0
    7.2174   -0.0351    2.0798 C   0  0  0  0  0  0  0  0  0  0  0  0
    7.2813   -0.4357   -0.5020 C   0  0  0  0  0  0  0  0  0  0  0  0
   -6.9976   -5.1685   -0.8681 N   0  0  0  0  0  0  0  0  0  0  0  0
    6.4199    0.5510    4.3357 C   0  0  0  0  0  0  0  0  0  0  0  0
    8.4551   -0.4410    2.6162 C   0  0  0  0  0  0  0  0  0  0  0  0
   -6.4436   -6.4992   -0.6345 C   0  0  0  0  0  0  0  0  0  0  0  0
    5.5274    1.0162    5.2867 O   0  0  0  0  0  0  0  0  0  0  0  0
    7.6692    0.1581    4.8353 C   0  0  0  0  0  0  0  0  0  0  0  0
    8.6689   -0.3331    3.9951 C   0  0  0  0  0  0  0  0  0  0  0  0
    4.1808    1.1548    4.8540 C   0  0  0  0  0  0  0  0  0  0  0  0
  1  2  2  0
  2  3  1  0
  2  4  1  0
  3  5  1  0
  4  6  2  0
  4  7  1  0
  5  8  1  0
  6  9  1  0
  7 10  2  0
  8 11  2  0
  8 12  1  0
  9 13  2  0
  9 14  1  0
 11 15  1  0
 12 16  2  0
 13 17  1  0
 14 18  1  0
 15 19  2  0
 17 20  1  0
 18 21  1  0
 19 22  1  0
 21 23  2  0
 21 24  1  0
 22 25  1  0
 22 26  1  0
 24 27  1  0
 24 28  2  0
 25 29  1  0
 26 30  1  0
 27 31  1  0
 28 32  1  0
 28 33  1  0
 29 34  1  0
 31 35  2  0
 32 36  2  0
 34 37  1  0
 35 38  1  0
 35 39  1  0
 36 40  1  0
 38 41  1  0
 10 13  1  0
 16 19  1  0
 18 20  1  0
 30 34  1  0
 31 32  1  0
 39 40  2  0
M  END
>  <Molecule Name>  (1) 
CTX-1019904

>  <SMILES>  (1) 
COC1=CC=CC2=C1OC(C(=O)N1CCC3=C(C1)N=C(C=C3)C(=O)NCC1=CC=C(C=N1)N1CCN(C)CC1)=C2C

>  <Batch Name>  (1) 
CTX-1019904-1

>  <Batch Created Date>  (1) 
2021-10-07

>  <Batch ID>  (1) 
CTX-1019904-1

>  <External ID>  (1) 
610EDL010-B

>  <Stereochemistry>  (1) 
Achiral

>  <Amount 1>  (1) 
3.4

>  <Unit 1>  (1) 
mg

>  <CRO 1>  (1) 
Pharmaron

>  <CRO 1 Total Amount>  (1) 
16.4

>  <CRO 1 Unit>  (1) 
mg

>  <pIC50>  (1) 
5.073143

>  <SMILES_std>  (1) 
COc1cccc2c(C)c(C(=O)N3CCc4ccc(C(=O)NCc5ccc(N6CCN(C)CC6)cn5)nc4C3)oc12

>  <embed_status>  (1) 
0

>  <mmff_status>  (1) 
0

$$$$
