CTX-1020441
     RDKit          3D

 40 45  0  0  0  0  0  0  0  0999 V2000
    1.6536   -5.5845   -3.4992 Cl  0  0  0  0  0  0  0  0  0  0  0  0
    1.5809   -4.1904   -2.4812 C   0  0  0  0  0  0  0  0  0  0  0  0
    2.1318   -2.9640   -2.8761 C   0  0  0  0  0  0  0  0  0  0  0  0
    0.9576   -4.3271   -1.2481 C   0  0  0  0  0  0  0  0  0  0  0  0
    2.0575   -1.9004   -1.9636 C   0  0  0  0  0  0  0  0  0  0  0  0
    2.8490   -2.7929   -4.1980 C   0  0  0  0  0  0  0  0  0  0  0  0
    0.9151   -3.2173   -0.4279 C   0  0  0  0  0  0  0  0  0  0  0  0
    1.4472   -2.0077   -0.7573 N   0  0  0  0  0  0  0  0  0  0  0  0
    2.6233   -0.5299   -2.3029 C   0  0  0  0  0  0  0  0  0  0  0  0
    3.0224   -1.3212   -4.5777 C   0  0  0  0  0  0  0  0  0  0  0  0
    0.2461   -3.3043    0.9102 C   0  0  0  0  0  0  0  0  0  0  0  0
    3.5343   -0.5636   -3.4453 N   0  0  0  0  0  0  0  0  0  0  0  0
   -0.3230   -4.3267    1.2734 O   0  0  0  0  0  0  0  0  0  0  0  0
    0.3249   -2.1498    1.6561 N   0  0  0  0  0  0  0  0  0  0  0  0
    4.9247   -0.4561   -3.2984 C   0  0  0  0  0  0  0  0  0  0  0  0
   -0.4077   -1.9606    2.8825 C   0  0  0  0  0  0  0  0  0  0  0  0
    5.6827   -1.0247   -4.0844 O   0  0  0  0  0  0  0  0  0  0  0  0
    5.4209    0.3701   -2.2143 C   0  0  0  0  0  0  0  0  0  0  0  0
   -1.6499   -1.1461    2.6396 C   0  0  0  0  0  0  0  0  0  0  0  0
    6.3892   -0.1619   -1.4092 O   0  0  0  0  0  0  0  0  0  0  0  0
    5.1241    1.6678   -1.8082 C   0  0  0  0  0  0  0  0  0  0  0  0
   -1.6630    0.2326    2.8570 C   0  0  0  0  0  0  0  0  0  0  0  0
   -2.8095   -1.7498    2.1494 C   0  0  0  0  0  0  0  0  0  0  0  0
    6.6936    0.7669   -0.4675 C   0  0  0  0  0  0  0  0  0  0  0  0
    5.9402    1.9167   -0.6611 C   0  0  0  0  0  0  0  0  0  0  0  0
    4.1703    2.6149   -2.4385 C   0  0  0  0  0  0  0  0  0  0  0  0
   -2.8206    0.9824    2.6039 C   0  0  0  0  0  0  0  0  0  0  0  0
   -3.9594   -0.9888    1.8982 C   0  0  0  0  0  0  0  0  0  0  0  0
    7.6277    0.6028    0.5526 C   0  0  0  0  0  0  0  0  0  0  0  0
    6.1284    2.9936    0.2260 C   0  0  0  0  0  0  0  0  0  0  0  0
   -4.0013    0.3967    2.1198 C   0  0  0  0  0  0  0  0  0  0  0  0
    7.7968    1.6829    1.4243 C   0  0  0  0  0  0  0  0  0  0  0  0
    7.0606    2.8594    1.2655 C   0  0  0  0  0  0  0  0  0  0  0  0
   -5.1397    1.1443    1.8713 N   0  0  0  0  0  0  0  0  0  0  0  0
   -5.3497    2.4665    2.4844 C   0  0  0  0  0  0  0  0  0  0  0  0
   -6.2168    0.6499    0.9984 C   0  0  0  0  0  0  0  0  0  0  0  0
   -6.8595    2.7658    2.6350 C   0  0  0  0  0  0  0  0  0  0  0  0
   -7.0251    1.8211    0.3901 C   0  0  0  0  0  0  0  0  0  0  0  0
   -7.6067    2.7745    1.3585 N   0  0  0  0  0  0  0  0  0  0  0  0
   -9.0241    2.5132    1.5937 C   0  0  0  0  0  0  0  0  0  0  0  0
  1  2  1  0
  2  3  2  0
  2  4  1  0
  3  5  1  0
  3  6  1  0
  4  7  2  0
  5  8  2  0
  5  9  1  0
  6 10  1  0
  7 11  1  0
  9 12  1  0
 11 13  2  0
 11 14  1  0
 12 15  1  0
 14 16  1  0
 15 17  2  0
 15 18  1  0
 16 19  1  0
 18 20  1  0
 18 21  2  0
 19 22  2  0
 19 23  1  0
 20 24  1  0
 21 25  1  0
 21 26  1  0
 22 27  1  0
 23 28  2  0
 24 29  2  0
 25 30  2  0
 27 31  2  0
 29 32  1  0
 30 33  1  0
 31 34  1  0
 34 35  1  0
 34 36  1  0
 35 37  1  0
 36 38  1  0
 37 39  1  0
 39 40  1  0
  7  8  1  0
 10 12  1  0
 24 25  1  0
 28 31  1  0
 32 33  2  0
 38 39  1  0
M  END
>  <Molecule Name>  (1) 
CTX-1020441

>  <SMILES>  (1) 
CN1CCN(CC1)C1=CC=C(CNC(=O)C2=CC(Cl)=C3CCN(CC3=N2)C(=O)C2=C(C)C3=C(O2)C=CC=C3)C=C1

>  <Batch Name>  (1) 
CTX-1020441-1

>  <Batch Created Date>  (1) 
2021-10-21

>  <Batch ID>  (1) 
CTX-1020441-1

>  <External ID>  (1) 
610EDL060-A

>  <Stereochemistry>  (1) 
Achiral

>  <Amount 1>  (1) 
4.3

>  <Unit 1>  (1) 
mg

>  <CRO 1>  (1) 
Pharmaron

>  <CRO 1 Total Amount>  (1) 
11.1

>  <CRO 1 Unit>  (1) 
mg

>  <pIC50>  (1) 
5.155523

>  <SMILES_std>  (1) 
Cc1c(C(=O)N2CCc3c(Cl)cc(C(=O)NCc4ccc(N5CCN(C)CC5)cc4)nc3C2)oc2ccccc12

>  <embed_status>  (1) 
0

>  <mmff_status>  (1) 
0

$$$$
