CTX-1020733
     RDKit          3D

 31 35  0  0  0  0  0  0  0  0999 V2000
   -5.5309   -1.5201   -2.3259 Cl  0  0  0  0  0  0  0  0  0  0  0  0
   -5.3764   -0.2943   -1.1320 C   0  0  0  0  0  0  0  0  0  0  0  0
   -4.2019    0.3518   -0.8252 C   0  0  0  0  0  0  0  0  0  0  0  0
   -6.4822    0.1423   -0.3198 C   0  0  0  0  0  0  0  0  0  0  0  0
   -4.4115    1.5171    0.4002 S   0  0  0  0  0  0  0  0  0  0  0  0
   -2.9060    0.2017   -1.4464 C   0  0  0  0  0  0  0  0  0  0  0  0
   -6.0832    1.1421    0.5738 C   0  0  0  0  0  0  0  0  0  0  0  0
   -7.8424   -0.2638   -0.2897 C   0  0  0  0  0  0  0  0  0  0  0  0
   -2.6840    0.6401   -2.5747 O   0  0  0  0  0  0  0  0  0  0  0  0
   -1.9065   -0.4543   -0.7167 N   0  0  0  0  0  0  0  0  0  0  0  0
   -6.9886    1.7327    1.4779 C   0  0  0  0  0  0  0  0  0  0  0  0
   -8.7433    0.3190    0.6066 C   0  0  0  0  0  0  0  0  0  0  0  0
   -0.6150   -0.6098   -1.3942 C   0  0  0  0  0  0  0  0  0  0  0  0
   -2.1849   -1.3729    0.4058 C   0  0  0  0  0  0  0  0  0  0  0  0
   -8.3182    1.3075    1.4812 C   0  0  0  0  0  0  0  0  0  0  0  0
    0.4728   -0.9305   -0.4103 C   0  0  0  0  0  0  0  0  0  0  0  0
   -1.1369   -1.2530    1.5221 C   0  0  0  0  0  0  0  0  0  0  0  0
    0.2252   -1.2384    0.9110 C   0  0  0  0  0  0  0  0  0  0  0  0
    1.8767   -0.9825   -0.6878 C   0  0  0  0  0  0  0  0  0  0  0  0
    1.6304   -1.5841    1.7920 S   0  0  0  0  0  0  0  0  0  0  0  0
    2.6358   -1.3167    0.4235 C   0  0  0  0  0  0  0  0  0  0  0  0
    4.0794   -1.4698    0.5699 C   0  0  0  0  0  0  0  0  0  0  0  0
    4.6213   -2.0204    1.5264 O   0  0  0  0  0  0  0  0  0  0  0  0
    4.8273   -0.9260   -0.4588 N   0  0  0  0  0  0  0  0  0  0  0  0
    6.2697   -0.8722   -0.3979 C   0  0  0  0  0  0  0  0  0  0  0  0
    6.7348    0.4682    0.1028 C   0  0  0  0  0  0  0  0  0  0  0  0
    6.7379    0.7516    1.4721 C   0  0  0  0  0  0  0  0  0  0  0  0
    7.1388    1.4701   -0.7840 C   0  0  0  0  0  0  0  0  0  0  0  0
    7.1497    2.0062    1.8914 C   0  0  0  0  0  0  0  0  0  0  0  0
    7.5359    2.6938   -0.2666 C   0  0  0  0  0  0  0  0  0  0  0  0
    7.5505    2.9841    1.0511 N   0  0  0  0  0  0  0  0  0  0  0  0
  1  2  1  0
  2  3  2  0
  2  4  1  0
  3  5  1  0
  3  6  1  0
  4  7  2  0
  4  8  1  0
  6  9  2  0
  6 10  1  0
  7 11  1  0
  8 12  2  0
 10 13  1  0
 10 14  1  0
 11 15  2  0
 13 16  1  0
 14 17  1  0
 16 18  2  0
 16 19  1  0
 18 20  1  0
 19 21  2  0
 21 22  1  0
 22 23  2  0
 22 24  1  0
 24 25  1  0
 25 26  1  0
 26 27  2  0
 26 28  1  0
 27 29  1  0
 28 30  2  0
 29 31  2  0
  5  7  1  0
 12 15  1  0
 17 18  1  0
 20 21  1  0
 30 31  1  0
M  END
>  <Molecule Name>  (1) 
CTX-1020733

>  <SMILES>  (1) 
ClC1=C(SC2=CC=CC=C12)C(=O)N1CCC2=C(C1)C=C(S2)C(=O)NCC1=CC=NC=C1

>  <Batch Name>  (1) 
CTX-1020733-1

>  <Batch Created Date>  (1) 
2021-12-16

>  <Batch ID>  (1) 
CTX-1020733-1

>  <External ID>  (1) 
CD-44-2-M

>  <Stereochemistry>  (1) 
Achiral

>  <Amount 1>  (1) 
2.7

>  <Unit 1>  (1) 
mg

>  <CRO 1>  (1) 
Pharmaron

>  <CRO 1 Total Amount>  (1) 
18.1

>  <CRO 1 Unit>  (1) 
mg

>  <pIC50>  (1) 
5.270835

>  <SMILES_std>  (1) 
O=C(NCc1ccncc1)c1cc2c(s1)CCN(C(=O)c1sc3ccccc3c1Cl)C2

>  <embed_status>  (1) 
0

>  <mmff_status>  (1) 
0

$$$$
