CTX-1020810
     RDKit          3D

 40 45  0  0  0  0  0  0  0  0999 V2000
   -7.3612    1.8783   -1.1776 S   0  0  0  0  0  0  0  0  0  0  0  0
   -8.5314    0.6249   -1.0980 C   0  0  0  0  0  0  0  0  0  0  0  0
   -6.0790    0.8128   -0.8340 C   0  0  0  0  0  0  0  0  0  0  0  0
   -9.9228    0.7410   -1.2641 C   0  0  0  0  0  0  0  0  0  0  0  0
   -7.9366   -0.6145   -0.8391 C   0  0  0  0  0  0  0  0  0  0  0  0
   -6.4975   -0.5028   -0.7060 C   0  0  0  0  0  0  0  0  0  0  0  0
   -4.7353    1.3590   -0.7477 C   0  0  0  0  0  0  0  0  0  0  0  0
  -10.4913    1.9309   -1.5080 F   0  0  0  0  0  0  0  0  0  0  0  0
  -10.7341   -0.3866   -1.1734 C   0  0  0  0  0  0  0  0  0  0  0  0
   -8.7873   -1.7496   -0.7543 C   0  0  0  0  0  0  0  0  0  0  0  0
   -5.5896   -1.6676   -0.4610 C   0  0  0  0  0  0  0  0  0  0  0  0
   -4.1799    1.8731   -1.7178 O   0  0  0  0  0  0  0  0  0  0  0  0
   -4.0760    1.2424    0.4837 N   0  0  0  0  0  0  0  0  0  0  0  0
  -10.1715   -1.6277   -0.9205 C   0  0  0  0  0  0  0  0  0  0  0  0
   -2.7272    1.8032    0.5455 C   0  0  0  0  0  0  0  0  0  0  0  0
   -4.7802    1.1561    1.7626 C   0  0  0  0  0  0  0  0  0  0  0  0
   -1.9401    1.4282    1.7854 C   0  0  0  0  0  0  0  0  0  0  0  0
   -3.9884    0.3204    2.7661 C   0  0  0  0  0  0  0  0  0  0  0  0
   -0.6377    1.8080    1.8136 N   0  0  0  0  0  0  0  0  0  0  0  0
   -2.5500    0.7532    2.8507 C   0  0  0  0  0  0  0  0  0  0  0  0
    0.0820    1.4888    2.9269 C   0  0  0  0  0  0  0  0  0  0  0  0
   -1.7776    0.4334    3.9722 C   0  0  0  0  0  0  0  0  0  0  0  0
    1.5222    1.9068    2.9275 C   0  0  0  0  0  0  0  0  0  0  0  0
   -0.4403    0.8095    4.0166 C   0  0  0  0  0  0  0  0  0  0  0  0
    2.2598    1.6635    3.8759 O   0  0  0  0  0  0  0  0  0  0  0  0
    1.9182    2.5610    1.7820 N   0  0  0  0  0  0  0  0  0  0  0  0
    3.2951    2.8751    1.4992 C   0  0  0  0  0  0  0  0  0  0  0  0
    3.9186    1.8215    0.6228 C   0  0  0  0  0  0  0  0  0  0  0  0
    3.9492    1.9655   -0.7658 C   0  0  0  0  0  0  0  0  0  0  0  0
    4.4423    0.6523    1.1823 C   0  0  0  0  0  0  0  0  0  0  0  0
    4.5127    0.9663   -1.5686 C   0  0  0  0  0  0  0  0  0  0  0  0
    5.0019   -0.3435    0.3702 C   0  0  0  0  0  0  0  0  0  0  0  0
    5.0565   -0.2093   -1.0230 C   0  0  0  0  0  0  0  0  0  0  0  0
    5.6087   -1.1730   -1.8757 N   0  0  0  0  0  0  0  0  0  0  0  0
    5.8003   -2.5625   -1.4120 C   0  0  0  0  0  0  0  0  0  0  0  0
    6.7096   -0.6512   -2.7252 C   0  0  0  0  0  0  0  0  0  0  0  0
    7.2870   -2.8339   -1.0990 C   0  0  0  0  0  0  0  0  0  0  0  0
    7.5933   -1.7889   -3.2903 C   0  0  0  0  0  0  0  0  0  0  0  0
    8.1735   -2.7039   -2.2813 N   0  0  0  0  0  0  0  0  0  0  0  0
    9.5111   -2.2834   -1.8730 C   0  0  0  0  0  0  0  0  0  0  0  0
  1  2  1  0
  1  3  1  0
  2  4  2  0
  2  5  1  0
  3  6  2  0
  3  7  1  0
  4  8  1  0
  4  9  1  0
  5 10  2  0
  6 11  1  0
  7 12  2  0
  7 13  1  0
  9 14  2  0
 13 15  1  0
 13 16  1  0
 15 17  1  0
 16 18  1  0
 17 19  2  0
 17 20  1  0
 19 21  1  0
 20 22  2  0
 21 23  1  0
 21 24  2  0
 23 25  2  0
 23 26  1  0
 26 27  1  0
 27 28  1  0
 28 29  2  0
 28 30  1  0
 29 31  1  0
 30 32  2  0
 31 33  2  0
 33 34  1  0
 34 35  1  0
 34 36  1  0
 35 37  1  0
 36 38  1  0
 37 39  1  0
 39 40  1  0
  5  6  1  0
 10 14  1  0
 18 20  1  0
 22 24  1  0
 32 33  1  0
 38 39  1  0
M  END
>  <Molecule Name>  (1) 
CTX-1020810

>  <SMILES>  (1) 
CN1CCN(CC1)C1=CC=C(CNC(=O)C2=CC=C3CCN(CC3=N2)C(=O)C2=C(C)C3=C(S2)C(F)=CC=C3)C=C1

>  <Batch Name>  (1) 
CTX-1020810-1

>  <Batch Created Date>  (1) 
2021-12-30

>  <Batch ID>  (1) 
CTX-1020810-1

>  <External ID>  (1) 
CD-42-Q

>  <Stereochemistry>  (1) 
Achiral

>  <Amount 1>  (1) 
13.8

>  <Unit 1>  (1) 
mg

>  <CRO 1>  (1) 
Pharmaron

>  <CRO 1 Total Amount>  (1) 
32.5

>  <CRO 1 Unit>  (1) 
mg

>  <pIC50>  (1) 
6.164944

>  <SMILES_std>  (1) 
Cc1c(C(=O)N2CCc3ccc(C(=O)NCc4ccc(N5CCN(C)CC5)cc4)nc3C2)sc2c(F)cccc12

>  <embed_status>  (1) 
0

>  <mmff_status>  (1) 
0

$$$$
