CTX-1020752
     RDKit          3D

 40 45  0  0  0  0  0  0  0  0999 V2000
    1.1146   -1.1061   -5.1033 O   0  0  0  0  0  0  0  0  0  0  0  0
    0.8612   -1.0324   -3.9064 C   0  0  0  0  0  0  0  0  0  0  0  0
    1.8114   -0.8436   -2.9294 N   0  0  0  0  0  0  0  0  0  0  0  0
   -0.5423   -1.1331   -3.3888 C   0  0  0  0  0  0  0  0  0  0  0  0
    3.1909   -0.5860   -3.2450 C   0  0  0  0  0  0  0  0  0  0  0  0
   -0.6983   -0.9868   -2.0427 N   0  0  0  0  0  0  0  0  0  0  0  0
   -1.5891   -1.3572   -4.2705 C   0  0  0  0  0  0  0  0  0  0  0  0
    4.0359   -0.5947   -2.0018 C   0  0  0  0  0  0  0  0  0  0  0  0
   -1.9618   -1.0576   -1.5553 C   0  0  0  0  0  0  0  0  0  0  0  0
   -2.8760   -1.4424   -3.7511 C   0  0  0  0  0  0  0  0  0  0  0  0
    4.5839   -1.7857   -1.5212 C   0  0  0  0  0  0  0  0  0  0  0  0
    4.2459    0.5777   -1.2706 C   0  0  0  0  0  0  0  0  0  0  0  0
   -3.0766   -1.3053   -2.3738 C   0  0  0  0  0  0  0  0  0  0  0  0
   -2.1255   -0.9283   -0.0499 C   0  0  0  0  0  0  0  0  0  0  0  0
    5.3445   -1.7922   -0.3461 C   0  0  0  0  0  0  0  0  0  0  0  0
    5.0066    0.5605   -0.0931 C   0  0  0  0  0  0  0  0  0  0  0  0
   -4.4729   -1.3556   -1.8004 C   0  0  0  0  0  0  0  0  0  0  0  0
   -3.5080   -0.6634    0.3424 N   0  0  0  0  0  0  0  0  0  0  0  0
    5.5787   -0.6215    0.3949 C   0  0  0  0  0  0  0  0  0  0  0  0
   -4.4710   -1.5696   -0.2828 C   0  0  0  0  0  0  0  0  0  0  0  0
   -3.8323    0.6326    0.7500 C   0  0  0  0  0  0  0  0  0  0  0  0
    6.3477   -0.6878    1.5628 N   0  0  0  0  0  0  0  0  0  0  0  0
   -2.9929    1.5296    0.7825 O   0  0  0  0  0  0  0  0  0  0  0  0
   -5.2143    0.8911    1.1137 C   0  0  0  0  0  0  0  0  0  0  0  0
    6.2719    0.3858    2.5748 C   0  0  0  0  0  0  0  0  0  0  0  0
    7.7123   -1.2323    1.3449 C   0  0  0  0  0  0  0  0  0  0  0  0
   -5.9633    1.9251    0.5845 N   0  0  0  0  0  0  0  0  0  0  0  0
   -6.0059    0.2608    2.0705 C   0  0  0  0  0  0  0  0  0  0  0  0
    7.5215    1.2890    2.5075 C   0  0  0  0  0  0  0  0  0  0  0  0
    8.6714   -0.8710    2.5042 C   0  0  0  0  0  0  0  0  0  0  0  0
   -7.2402    1.9211    1.1065 C   0  0  0  0  0  0  0  0  0  0  0  0
   -5.4652    2.8688   -0.3967 C   0  0  0  0  0  0  0  0  0  0  0  0
   -7.2925    0.8845    2.0399 C   0  0  0  0  0  0  0  0  0  0  0  0
   -5.6036   -0.8511    2.9776 C   0  0  0  0  0  0  0  0  0  0  0  0
    8.7854    0.5734    2.8079 N   0  0  0  0  0  0  0  0  0  0  0  0
   -8.3499    2.7464    0.8546 C   0  0  0  0  0  0  0  0  0  0  0  0
   -8.4959    0.6635    2.7438 C   0  0  0  0  0  0  0  0  0  0  0  0
    9.9034    1.1905    2.0993 C   0  0  0  0  0  0  0  0  0  0  0  0
   -9.5315    2.5026    1.5608 C   0  0  0  0  0  0  0  0  0  0  0  0
   -9.6066    1.4748    2.4935 C   0  0  0  0  0  0  0  0  0  0  0  0
  1  2  2  0
  2  3  1  0
  2  4  1  0
  3  5  1  0
  4  6  2  0
  4  7  1  0
  5  8  1  0
  6  9  1  0
  7 10  2  0
  8 11  2  0
  8 12  1  0
  9 13  2  0
  9 14  1  0
 11 15  1  0
 12 16  2  0
 13 17  1  0
 14 18  1  0
 15 19  2  0
 17 20  1  0
 18 21  1  0
 19 22  1  0
 21 23  2  0
 21 24  1  0
 22 25  1  0
 22 26  1  0
 24 27  1  0
 24 28  2  0
 25 29  1  0
 26 30  1  0
 27 31  1  0
 27 32  1  0
 28 33  1  0
 28 34  1  0
 29 35  1  0
 31 36  2  0
 33 37  2  0
 35 38  1  0
 36 39  1  0
 37 40  1  0
 10 13  1  0
 16 19  1  0
 18 20  1  0
 30 35  1  0
 31 33  1  0
 39 40  2  0
M  END
>  <Molecule Name>  (1) 
CTX-1020752

>  <SMILES>  (1) 
CN1C2=C(C=CC=C2)C(C)=C1C(=O)N1CCC2=C(C1)N=C(C=C2)C(=O)NCC1=CC=C(C=C1)N1CCN(C)CC1

>  <Batch Name>  (1) 
CTX-1020752-1

>  <Batch Created Date>  (1) 
2021-12-16

>  <Batch ID>  (1) 
CTX-1020752-1

>  <External ID>  (1) 
P841-0368

>  <Stereochemistry>  (1) 
Achiral

>  <Amount 1>  (1) 
4.6

>  <Unit 1>  (1) 
mg

>  <CRO 1>  (1) 
Pharmaron

>  <CRO 1 Total Amount>  (1) 
25.65

>  <CRO 1 Unit>  (1) 
mg

>  <pIC50>  (1) 
4.060481

>  <SMILES_std>  (1) 
Cc1c(C(=O)N2CCc3ccc(C(=O)NCc4ccc(N5CCN(C)CC5)cc4)nc3C2)n(C)c2ccccc12

>  <embed_status>  (1) 
0

>  <mmff_status>  (1) 
0

$$$$
