CTX-1020770
     RDKit          3D

 30 34  0  0  0  0  0  0  0  0999 V2000
    2.2471    0.3919    2.7566 S   0  0  0  0  0  0  0  0  0  0  0  0
    3.3582    0.6983    1.4808 C   0  0  0  0  0  0  0  0  0  0  0  0
    0.9175    0.4997    1.7134 C   0  0  0  0  0  0  0  0  0  0  0  0
    4.7859    0.7278    1.7812 C   0  0  0  0  0  0  0  0  0  0  0  0
    2.6875    0.8927    0.2825 C   0  0  0  0  0  0  0  0  0  0  0  0
    1.2655    0.7757    0.4112 C   0  0  0  0  0  0  0  0  0  0  0  0
   -0.4881    0.3388    2.1712 C   0  0  0  0  0  0  0  0  0  0  0  0
    5.2547    0.7211    2.9184 O   0  0  0  0  0  0  0  0  0  0  0  0
    5.6129    0.7494    0.6746 N   0  0  0  0  0  0  0  0  0  0  0  0
    0.2633    0.9225   -0.6927 C   0  0  0  0  0  0  0  0  0  0  0  0
   -1.3676   -0.0609    0.9766 C   0  0  0  0  0  0  0  0  0  0  0  0
    7.0383    0.5561    0.8117 C   0  0  0  0  0  0  0  0  0  0  0  0
   -1.1207    0.7498   -0.2321 N   0  0  0  0  0  0  0  0  0  0  0  0
    7.3240   -0.9012    0.6417 C   0  0  0  0  0  0  0  0  0  0  0  0
   -2.1030    1.0619   -1.1889 C   0  0  0  0  0  0  0  0  0  0  0  0
    7.1117   -1.4834   -0.6055 N   0  0  0  0  0  0  0  0  0  0  0  0
    7.7588   -1.7748    1.6220 C   0  0  0  0  0  0  0  0  0  0  0  0
   -1.8116    1.7739   -2.1538 O   0  0  0  0  0  0  0  0  0  0  0  0
   -3.4558    0.5458   -1.0351 C   0  0  0  0  0  0  0  0  0  0  0  0
    7.4044   -2.7642   -0.5464 C   0  0  0  0  0  0  0  0  0  0  0  0
    7.9310   -3.3522    0.9750 S   0  0  0  0  0  0  0  0  0  0  0  0
   -3.6567   -0.6996   -0.5021 O   0  0  0  0  0  0  0  0  0  0  0  0
   -4.6739    1.0803   -1.4448 C   0  0  0  0  0  0  0  0  0  0  0  0
   -4.9905   -0.9504   -0.5310 C   0  0  0  0  0  0  0  0  0  0  0  0
   -5.6705    0.1156   -1.1027 C   0  0  0  0  0  0  0  0  0  0  0  0
   -4.8819    2.3914   -2.1112 C   0  0  0  0  0  0  0  0  0  0  0  0
   -5.6010   -2.1112   -0.0616 C   0  0  0  0  0  0  0  0  0  0  0  0
   -7.0702    0.0239   -1.2235 C   0  0  0  0  0  0  0  0  0  0  0  0
   -6.9919   -2.1798   -0.1873 C   0  0  0  0  0  0  0  0  0  0  0  0
   -7.7162   -1.1310   -0.7586 C   0  0  0  0  0  0  0  0  0  0  0  0
  1  2  1  0
  1  3  1  0
  2  4  1  0
  2  5  2  0
  3  6  2  0
  3  7  1  0
  4  8  2  0
  4  9  1  0
  6 10  1  0
  7 11  1  0
  9 12  1  0
 10 13  1  0
 12 14  1  0
 13 15  1  0
 14 16  1  0
 14 17  2  0
 15 18  2  0
 15 19  1  0
 16 20  2  0
 17 21  1  0
 19 22  1  0
 19 23  2  0
 22 24  1  0
 23 25  1  0
 23 26  1  0
 24 27  2  0
 25 28  2  0
 27 29  1  0
 28 30  1  0
  5  6  1  0
 11 13  1  0
 20 21  1  0
 24 25  1  0
 29 30  2  0
M  END
>  <Molecule Name>  (1) 
CTX-1020770

>  <SMILES>  (1) 
CC1=C(OC2=C1C=CC=C2)C(=O)N1CCC2=C(C1)C=C(S2)C(=O)NCC1=CSC=N1

>  <Batch Name>  (1) 
CTX-1020770-1

>  <Batch Created Date>  (1) 
2021-12-16

>  <Batch ID>  (1) 
CTX-1020770-1

>  <External ID>  (1) 
P841-0351

>  <Stereochemistry>  (1) 
Achiral

>  <Amount 1>  (1) 
2.45

>  <Unit 1>  (1) 
mg

>  <CRO 1>  (1) 
Pharmaron

>  <CRO 1 Total Amount>  (1) 
11.65

>  <CRO 1 Unit>  (1) 
mg

>  <pIC50>  (1) 
4.548214

>  <SMILES_std>  (1) 
Cc1c(C(=O)N2CCc3sc(C(=O)NCc4cscn4)cc3C2)oc2ccccc12

>  <embed_status>  (1) 
0

>  <mmff_status>  (1) 
0

$$$$
