CTX-1020735
     RDKit          3D

 36 41  0  0  0  0  0  0  0  0999 V2000
    0.7038   -0.5092   -1.5172 S   0  0  0  0  0  0  0  0  0  0  0  0
    0.7978    0.1829    0.0506 C   0  0  0  0  0  0  0  0  0  0  0  0
    2.2540   -1.1834   -1.3828 C   0  0  0  0  0  0  0  0  0  0  0  0
   -0.2883    0.9669    0.6276 C   0  0  0  0  0  0  0  0  0  0  0  0
    2.0110   -0.1103    0.6514 C   0  0  0  0  0  0  0  0  0  0  0  0
    2.8670   -0.9000   -0.1760 C   0  0  0  0  0  0  0  0  0  0  0  0
    2.8933   -1.9788   -2.4816 C   0  0  0  0  0  0  0  0  0  0  0  0
   -0.2371    1.4331    1.7638 O   0  0  0  0  0  0  0  0  0  0  0  0
   -1.3856    1.1662   -0.1875 N   0  0  0  0  0  0  0  0  0  0  0  0
    4.2451   -1.3950    0.1795 C   0  0  0  0  0  0  0  0  0  0  0  0
    4.0795   -2.7601   -1.8910 C   0  0  0  0  0  0  0  0  0  0  0  0
   -2.4604    2.0544    0.1930 C   0  0  0  0  0  0  0  0  0  0  0  0
    4.9075   -1.8992   -1.0340 N   0  0  0  0  0  0  0  0  0  0  0  0
   -3.6683    1.6781   -0.6535 C   0  0  0  0  0  0  0  0  0  0  0  0
    5.9813   -1.2257   -1.6341 C   0  0  0  0  0  0  0  0  0  0  0  0
   -4.3921    0.3409   -0.3068 C   0  0  0  0  0  0  0  0  0  0  0  0
   -4.9930    2.3994   -0.2726 C   0  0  0  0  0  0  0  0  0  0  0  0
    6.1837   -1.3198   -2.8452 O   0  0  0  0  0  0  0  0  0  0  0  0
    6.8569   -0.4570   -0.7698 C   0  0  0  0  0  0  0  0  0  0  0  0
   -5.3354    1.1661    0.5922 C   0  0  0  0  0  0  0  0  0  0  0  0
    7.1395    0.8283   -1.1399 O   0  0  0  0  0  0  0  0  0  0  0  0
    7.5299   -0.7724    0.4069 C   0  0  0  0  0  0  0  0  0  0  0  0
   -6.7677    0.8536    0.5154 N   0  0  0  0  0  0  0  0  0  0  0  0
    7.9578    1.3555   -0.1940 C   0  0  0  0  0  0  0  0  0  0  0  0
    8.2301    0.4139    0.7891 C   0  0  0  0  0  0  0  0  0  0  0  0
    7.5406   -2.0748    1.1193 C   0  0  0  0  0  0  0  0  0  0  0  0
   -7.2807    0.3111   -0.7523 C   0  0  0  0  0  0  0  0  0  0  0  0
   -7.1494   -0.0324    1.6315 C   0  0  0  0  0  0  0  0  0  0  0  0
    8.4607    2.6543   -0.1979 C   0  0  0  0  0  0  0  0  0  0  0  0
    9.0715    0.7873    1.8544 C   0  0  0  0  0  0  0  0  0  0  0  0
   -8.8120    0.0815   -0.6942 C   0  0  0  0  0  0  0  0  0  0  0  0
   -8.6745   -0.2949    1.6763 C   0  0  0  0  0  0  0  0  0  0  0  0
    9.2911    3.0058    0.8707 C   0  0  0  0  0  0  0  0  0  0  0  0
    9.5928    2.0893    1.8808 C   0  0  0  0  0  0  0  0  0  0  0  0
   -9.2676   -0.7815    0.4148 N   0  0  0  0  0  0  0  0  0  0  0  0
   -8.9457   -2.1865    0.1771 C   0  0  0  0  0  0  0  0  0  0  0  0
  1  2  1  0
  1  3  1  0
  2  4  1  0
  2  5  2  0
  3  6  2  0
  3  7  1  0
  4  8  2  0
  4  9  1  0
  6 10  1  0
  7 11  1  0
  9 12  1  0
 10 13  1  0
 12 14  1  0
 13 15  1  0
 14 16  1  0
 14 17  1  0
 15 18  2  0
 15 19  1  0
 16 20  1  0
 19 21  1  0
 19 22  2  0
 20 23  1  0
 21 24  1  0
 22 25  1  0
 22 26  1  0
 23 27  1  0
 23 28  1  0
 24 29  2  0
 25 30  2  0
 27 31  1  0
 28 32  1  0
 29 33  1  0
 30 34  1  0
 31 35  1  0
 35 36  1  0
  5  6  1  0
 11 13  1  0
 17 20  1  0
 24 25  1  0
 32 35  1  0
 33 34  2  0
M  END
>  <Molecule Name>  (1) 
CTX-1020735

>  <SMILES>  (1) 
CN1CCN(CC1)C1CC(CNC(=O)C2=CC3=C(CCN(C3)C(=O)C3=C(C)C4=C(O3)C=CC=C4)S2)C1

>  <Batch Name>  (1) 
CTX-1020735-1

>  <Batch Created Date>  (1) 
2021-12-16

>  <Batch ID>  (1) 
CTX-1020735-1

>  <External ID>  (1) 
CD-44-M

>  <Stereochemistry>  (1) 
Achiral

>  <Amount 1>  (1) 
13.8

>  <Unit 1>  (1) 
mg

>  <CRO 1>  (1) 
Pharmaron

>  <CRO 1 Total Amount>  (1) 
21.4

>  <CRO 1 Unit>  (1) 
mg

>  <pIC50>  (1) 
4.380907

>  <SMILES_std>  (1) 
Cc1c(C(=O)N2CCc3sc(C(=O)NCC4CC(N5CCN(C)CC5)C4)cc3C2)oc2ccccc12

>  <embed_status>  (1) 
0

>  <mmff_status>  (1) 
0

$$$$
