CTX-1020740
     RDKit          3D

 35 39  0  0  0  0  0  0  0  0999 V2000
    0.9593    1.0699    2.2290 S   0  0  0  0  0  0  0  0  0  0  0  0
    1.9742   -0.1727    1.6082 C   0  0  0  0  0  0  0  0  0  0  0  0
   -0.3143    0.6390    1.1987 C   0  0  0  0  0  0  0  0  0  0  0  0
    3.3229   -0.3131    2.1499 C   0  0  0  0  0  0  0  0  0  0  0  0
    1.3141   -0.9045    0.6320 C   0  0  0  0  0  0  0  0  0  0  0  0
   -0.0167   -0.4365    0.3862 C   0  0  0  0  0  0  0  0  0  0  0  0
   -1.6340    1.3439    1.2013 C   0  0  0  0  0  0  0  0  0  0  0  0
    3.7303    0.2793    3.1475 O   0  0  0  0  0  0  0  0  0  0  0  0
    4.1489   -1.1682    1.4433 N   0  0  0  0  0  0  0  0  0  0  0  0
   -0.9899   -1.0004   -0.6117 C   0  0  0  0  0  0  0  0  0  0  0  0
   -2.3696    1.0156   -0.1057 C   0  0  0  0  0  0  0  0  0  0  0  0
    5.5501   -1.3069    1.7663 C   0  0  0  0  0  0  0  0  0  0  0  0
   -2.3221   -0.4290   -0.4027 N   0  0  0  0  0  0  0  0  0  0  0  0
    6.3944   -0.4543    0.8534 C   0  0  0  0  0  0  0  0  0  0  0  0
   -3.3980   -1.1351   -0.9529 C   0  0  0  0  0  0  0  0  0  0  0  0
    6.5526    0.9138    1.1137 C   0  0  0  0  0  0  0  0  0  0  0  0
    7.0026   -1.0037   -0.2827 C   0  0  0  0  0  0  0  0  0  0  0  0
   -3.1902   -2.0967   -1.6967 O   0  0  0  0  0  0  0  0  0  0  0  0
   -4.7511   -0.7264   -0.6065 C   0  0  0  0  0  0  0  0  0  0  0  0
    7.3133    1.7164    0.2608 C   0  0  0  0  0  0  0  0  0  0  0  0
    7.7647   -0.2011   -1.1358 C   0  0  0  0  0  0  0  0  0  0  0  0
   -4.9842   -0.1038    0.5913 O   0  0  0  0  0  0  0  0  0  0  0  0
   -5.9569   -0.9314   -1.2701 C   0  0  0  0  0  0  0  0  0  0  0  0
    7.9224    1.1689   -0.8772 C   0  0  0  0  0  0  0  0  0  0  0  0
   -6.3198    0.1193    0.6861 C   0  0  0  0  0  0  0  0  0  0  0  0
   -6.9726   -0.3697   -0.4368 C   0  0  0  0  0  0  0  0  0  0  0  0
   -6.1393   -1.6084   -2.5796 C   0  0  0  0  0  0  0  0  0  0  0  0
    8.7634    2.0287   -1.7879 C   0  0  0  0  0  0  0  0  0  0  0  0
   -6.9564    0.7452    1.7554 C   0  0  0  0  0  0  0  0  0  0  0  0
   -8.3720   -0.2303   -0.5056 C   0  0  0  0  0  0  0  0  0  0  0  0
   10.0785    2.0255   -1.4357 F   0  0  0  0  0  0  0  0  0  0  0  0
    8.7247    1.6225   -3.0885 F   0  0  0  0  0  0  0  0  0  0  0  0
    8.3811    3.3364   -1.7983 F   0  0  0  0  0  0  0  0  0  0  0  0
   -8.3455    0.8764    1.6649 C   0  0  0  0  0  0  0  0  0  0  0  0
   -9.0435    0.3973    0.5540 C   0  0  0  0  0  0  0  0  0  0  0  0
  1  2  1  0
  1  3  1  0
  2  4  1  0
  2  5  2  0
  3  6  2  0
  3  7  1  0
  4  8  2  0
  4  9  1  0
  6 10  1  0
  7 11  1  0
  9 12  1  0
 10 13  1  0
 12 14  1  0
 13 15  1  0
 14 16  2  0
 14 17  1  0
 15 18  2  0
 15 19  1  0
 16 20  1  0
 17 21  2  0
 19 22  1  0
 19 23  2  0
 20 24  2  0
 22 25  1  0
 23 26  1  0
 23 27  1  0
 24 28  1  0
 25 29  2  0
 26 30  2  0
 28 31  1  0
 28 32  1  0
 28 33  1  0
 29 34  1  0
 30 35  1  0
  5  6  1  0
 11 13  1  0
 21 24  1  0
 25 26  1  0
 34 35  2  0
M  END
>  <Molecule Name>  (1) 
CTX-1020740

>  <SMILES>  (1) 
CC1=C(OC2=C1C=CC=C2)C(=O)N1CCC2=C(C1)C=C(S2)C(=O)NCC1=CC=C(C=C1)C(F)(F)F

>  <Batch Name>  (1) 
CTX-1020740-1

>  <Batch Created Date>  (1) 
2021-12-16

>  <Batch ID>  (1) 
CTX-1020740-1

>  <External ID>  (1) 
P841-0355

>  <Stereochemistry>  (1) 
Achiral

>  <Amount 1>  (1) 
3.95

>  <Unit 1>  (1) 
mg

>  <CRO 1>  (1) 
Pharmaron

>  <CRO 1 Total Amount>  (1) 
16.75

>  <CRO 1 Unit>  (1) 
mg

>  <pIC50>  (1) 
5.5157

>  <SMILES_std>  (1) 
Cc1c(C(=O)N2CCc3sc(C(=O)NCc4ccc(C(F)(F)F)cc4)cc3C2)oc2ccccc12

>  <embed_status>  (1) 
0

>  <mmff_status>  (1) 
0

$$$$
