CTX-1020555
     RDKit          3D

 38 43  0  0  0  0  0  0  0  0999 V2000
   10.3913    0.7432    5.0726 Cl  0  0  0  0  0  0  0  0  0  0  0  0
    9.4383    0.6222    3.6485 C   0  0  0  0  0  0  0  0  0  0  0  0
    9.6706   -0.3224    2.7263 C   0  0  0  0  0  0  0  0  0  0  0  0
    8.3591    1.5714    3.4409 C   0  0  0  0  0  0  0  0  0  0  0  0
    8.8719   -0.3854    1.5867 N   0  0  0  0  0  0  0  0  0  0  0  0
    7.5804    1.5160    2.3437 C   0  0  0  0  0  0  0  0  0  0  0  0
    8.9776   -1.2741    0.5653 N   0  0  0  0  0  0  0  0  0  0  0  0
    7.8172    0.5050    1.3656 C   0  0  0  0  0  0  0  0  0  0  0  0
    8.0198   -0.9191   -0.2909 C   0  0  0  0  0  0  0  0  0  0  0  0
    7.2258    0.1515    0.1679 C   0  0  0  0  0  0  0  0  0  0  0  0
    6.1121    0.8227   -0.4763 C   0  0  0  0  0  0  0  0  0  0  0  0
    6.1205    2.0472   -0.5886 O   0  0  0  0  0  0  0  0  0  0  0  0
    5.0490    0.0518   -0.9559 N   0  0  0  0  0  0  0  0  0  0  0  0
    4.1469    0.7343   -1.8965 C   0  0  0  0  0  0  0  0  0  0  0  0
    4.9303   -1.4135   -0.8150 C   0  0  0  0  0  0  0  0  0  0  0  0
    2.8468    0.0078   -2.0646 C   0  0  0  0  0  0  0  0  0  0  0  0
    3.4959   -1.8722   -0.5090 C   0  0  0  0  0  0  0  0  0  0  0  0
    2.5577   -1.1838   -1.4369 C   0  0  0  0  0  0  0  0  0  0  0  0
    1.7496    0.4237   -2.8817 C   0  0  0  0  0  0  0  0  0  0  0  0
    1.0150   -1.7815   -1.8060 S   0  0  0  0  0  0  0  0  0  0  0  0
    0.6789   -0.4543   -2.8407 C   0  0  0  0  0  0  0  0  0  0  0  0
   -0.5849   -0.3159   -3.5561 C   0  0  0  0  0  0  0  0  0  0  0  0
   -0.8216    0.6344   -4.2990 O   0  0  0  0  0  0  0  0  0  0  0  0
   -1.5063   -1.3185   -3.3441 N   0  0  0  0  0  0  0  0  0  0  0  0
   -2.8595   -1.2417   -3.8381 C   0  0  0  0  0  0  0  0  0  0  0  0
   -3.7959   -0.7873   -2.7507 C   0  0  0  0  0  0  0  0  0  0  0  0
   -3.9480    0.5723   -2.4694 C   0  0  0  0  0  0  0  0  0  0  0  0
   -4.5070   -1.7096   -1.9788 C   0  0  0  0  0  0  0  0  0  0  0  0
   -4.8004    0.9940   -1.4422 C   0  0  0  0  0  0  0  0  0  0  0  0
   -5.3597   -1.2767   -0.9531 C   0  0  0  0  0  0  0  0  0  0  0  0
   -5.5178    0.0833   -0.6489 C   0  0  0  0  0  0  0  0  0  0  0  0
   -6.3677    0.5572    0.3632 N   0  0  0  0  0  0  0  0  0  0  0  0
   -7.3460   -0.3802    0.9507 C   0  0  0  0  0  0  0  0  0  0  0  0
   -5.6985    1.4128    1.3722 C   0  0  0  0  0  0  0  0  0  0  0  0
   -8.3409    0.3625    1.8747 C   0  0  0  0  0  0  0  0  0  0  0  0
   -6.7350    2.0963    2.2983 C   0  0  0  0  0  0  0  0  0  0  0  0
   -7.7255    1.1970    2.9302 N   0  0  0  0  0  0  0  0  0  0  0  0
   -7.1204    0.3828    3.9810 C   0  0  0  0  0  0  0  0  0  0  0  0
  1  2  1  0
  2  3  2  0
  2  4  1  0
  3  5  1  0
  4  6  2  0
  5  7  1  0
  5  8  1  0
  7  9  2  0
  8 10  2  0
 10 11  1  0
 11 12  2  0
 11 13  1  0
 13 14  1  0
 13 15  1  0
 14 16  1  0
 15 17  1  0
 16 18  2  0
 16 19  1  0
 18 20  1  0
 19 21  2  0
 21 22  1  0
 22 23  2  0
 22 24  1  0
 24 25  1  0
 25 26  1  0
 26 27  2  0
 26 28  1  0
 27 29  1  0
 28 30  2  0
 29 31  2  0
 31 32  1  0
 32 33  1  0
 32 34  1  0
 33 35  1  0
 34 36  1  0
 35 37  1  0
 37 38  1  0
  6  8  1  0
  9 10  1  0
 17 18  1  0
 20 21  1  0
 30 31  1  0
 36 37  1  0
M  END
>  <Molecule Name>  (1) 
CTX-1020555

>  <SMILES>  (1) 
CN1CCN(CC1)C1=CC=C(CNC(=O)C2=CC3=C(CCN(C3)C(=O)C3=C4C=CC(Cl)=CN4N=C3)S2)C=C1

>  <Batch Name>  (1) 
CTX-1020555-1

>  <Batch Created Date>  (1) 
2021-11-18

>  <Batch ID>  (1) 
CTX-1020555-1

>  <External ID>  (1) 
CD-44-K

>  <Stereochemistry>  (1) 
Achiral

>  <Amount 1>  (1) 
2.5

>  <Unit 1>  (1) 
mg

>  <CRO 1>  (1) 
Pharmaron

>  <CRO 1 Total Amount>  (1) 
12.2

>  <CRO 1 Unit>  (1) 
mg

>  <pIC50>  (1) 
5.189767

>  <SMILES_std>  (1) 
CN1CCN(c2ccc(CNC(=O)c3cc4c(s3)CCN(C(=O)c3cnn5cc(Cl)ccc35)C4)cc2)CC1

>  <embed_status>  (1) 
0

>  <mmff_status>  (1) 
0

$$$$
