CTX-1020772
     RDKit          3D

 30 34  0  0  0  0  0  0  0  0999 V2000
    2.5291    0.1682    2.4598 S   0  0  0  0  0  0  0  0  0  0  0  0
    3.4372    0.7487    1.1199 C   0  0  0  0  0  0  0  0  0  0  0  0
    1.0676    0.3129    1.6170 C   0  0  0  0  0  0  0  0  0  0  0  0
    4.8869    0.8537    1.2459 C   0  0  0  0  0  0  0  0  0  0  0  0
    2.6007    1.0579    0.0578 C   0  0  0  0  0  0  0  0  0  0  0  0
    1.2192    0.8035    0.3405 C   0  0  0  0  0  0  0  0  0  0  0  0
   -0.2504   -0.0310    2.2138 C   0  0  0  0  0  0  0  0  0  0  0  0
    5.5018    0.7324    2.3040 O   0  0  0  0  0  0  0  0  0  0  0  0
    5.5612    1.0894    0.0617 N   0  0  0  0  0  0  0  0  0  0  0  0
    0.0701    1.0240   -0.5952 C   0  0  0  0  0  0  0  0  0  0  0  0
   -1.2554   -0.3240    1.0893 C   0  0  0  0  0  0  0  0  0  0  0  0
    7.0046    1.0707    0.0096 C   0  0  0  0  0  0  0  0  0  0  0  0
   -1.2252    0.6721    0.0002 N   0  0  0  0  0  0  0  0  0  0  0  0
    7.4497   -0.3013   -0.3040 C   0  0  0  0  0  0  0  0  0  0  0  0
   -2.3450    1.0372   -0.7684 C   0  0  0  0  0  0  0  0  0  0  0  0
    7.5358   -0.6598   -1.6235 O   0  0  0  0  0  0  0  0  0  0  0  0
    7.8152   -1.3924    0.4501 C   0  0  0  0  0  0  0  0  0  0  0  0
   -2.2310    1.9037   -1.6398 O   0  0  0  0  0  0  0  0  0  0  0  0
   -3.6292    0.3935   -0.5313 C   0  0  0  0  0  0  0  0  0  0  0  0
    7.9627   -1.9526   -1.5786 C   0  0  0  0  0  0  0  0  0  0  0  0
    8.1460   -2.4395   -0.3726 N   0  0  0  0  0  0  0  0  0  0  0  0
   -3.6767   -0.9286   -0.1777 O   0  0  0  0  0  0  0  0  0  0  0  0
   -4.9229    0.8785   -0.6998 C   0  0  0  0  0  0  0  0  0  0  0  0
   -4.9836   -1.2829   -0.0807 C   0  0  0  0  0  0  0  0  0  0  0  0
   -5.8009   -0.2054   -0.3917 C   0  0  0  0  0  0  0  0  0  0  0  0
   -5.3019    2.2509   -1.1236 C   0  0  0  0  0  0  0  0  0  0  0  0
   -5.4502   -2.5466    0.2742 C   0  0  0  0  0  0  0  0  0  0  0  0
   -7.1954   -0.3950   -0.3520 C   0  0  0  0  0  0  0  0  0  0  0  0
   -6.8381   -2.7120    0.3116 C   0  0  0  0  0  0  0  0  0  0  0  0
   -7.6981   -1.6552    0.0038 C   0  0  0  0  0  0  0  0  0  0  0  0
  1  2  1  0
  1  3  1  0
  2  4  1  0
  2  5  2  0
  3  6  2  0
  3  7  1  0
  4  8  2  0
  4  9  1  0
  6 10  1  0
  7 11  1  0
  9 12  1  0
 10 13  1  0
 12 14  1  0
 13 15  1  0
 14 16  1  0
 14 17  2  0
 15 18  2  0
 15 19  1  0
 16 20  1  0
 17 21  1  0
 19 22  1  0
 19 23  2  0
 22 24  1  0
 23 25  1  0
 23 26  1  0
 24 27  2  0
 25 28  2  0
 27 29  1  0
 28 30  1  0
  5  6  1  0
 11 13  1  0
 20 21  2  0
 24 25  1  0
 29 30  2  0
M  END
>  <Molecule Name>  (1) 
CTX-1020772

>  <SMILES>  (1) 
CC1=C(OC2=C1C=CC=C2)C(=O)N1CCC2=C(C1)C=C(S2)C(=O)NCC1=CN=CO1

>  <Batch Name>  (1) 
CTX-1020772-1

>  <Batch Created Date>  (1) 
2021-12-16

>  <Batch ID>  (1) 
CTX-1020772-1

>  <External ID>  (1) 
P841-0353

>  <Stereochemistry>  (1) 
Achiral

>  <Amount 1>  (1) 
4.0

>  <Unit 1>  (1) 
mg

>  <CRO 1>  (1) 
Pharmaron

>  <CRO 1 Total Amount>  (1) 
14.8

>  <CRO 1 Unit>  (1) 
mg

>  <pIC50>  (1) 
4.958607

>  <SMILES_std>  (1) 
Cc1c(C(=O)N2CCc3sc(C(=O)NCc4cnco4)cc3C2)oc2ccccc12

>  <embed_status>  (1) 
0

>  <mmff_status>  (1) 
0

$$$$
