CTX-1020523
     RDKit          3D

 39 44  0  0  0  0  0  0  0  0999 V2000
   -1.2670    2.8835    3.7787 O   0  0  0  0  0  0  0  0  0  0  0  0
   -0.6984    2.5455    2.7453 C   0  0  0  0  0  0  0  0  0  0  0  0
   -1.0698    3.0044    1.4914 N   0  0  0  0  0  0  0  0  0  0  0  0
    0.4648    1.5778    2.7323 C   0  0  0  0  0  0  0  0  0  0  0  0
   -2.2711    3.7697    1.2719 C   0  0  0  0  0  0  0  0  0  0  0  0
    0.9688    1.2626    1.5132 N   0  0  0  0  0  0  0  0  0  0  0  0
    0.8980    1.0974    3.9138 N   0  0  0  0  0  0  0  0  0  0  0  0
   -3.3849    2.8840    0.7813 C   0  0  0  0  0  0  0  0  0  0  0  0
    2.0057    0.3981    1.5081 C   0  0  0  0  0  0  0  0  0  0  0  0
    1.9268    0.2369    3.8524 C   0  0  0  0  0  0  0  0  0  0  0  0
   -4.1435    2.1339    1.6821 C   0  0  0  0  0  0  0  0  0  0  0  0
   -3.6605    2.7577   -0.5812 C   0  0  0  0  0  0  0  0  0  0  0  0
    2.5298   -0.1420    2.6719 C   0  0  0  0  0  0  0  0  0  0  0  0
    2.5608   -0.0396    0.1707 C   0  0  0  0  0  0  0  0  0  0  0  0
   -5.1662    1.2916    1.2256 C   0  0  0  0  0  0  0  0  0  0  0  0
   -4.6860    1.9105   -1.0253 C   0  0  0  0  0  0  0  0  0  0  0  0
    3.6643   -1.1097    2.5961 C   0  0  0  0  0  0  0  0  0  0  0  0
    3.9549   -0.4944    0.1830 N   0  0  0  0  0  0  0  0  0  0  0  0
   -5.4711    1.1573   -0.1382 C   0  0  0  0  0  0  0  0  0  0  0  0
    4.6222   -0.7091    1.4714 C   0  0  0  0  0  0  0  0  0  0  0  0
    4.5627   -0.6606   -1.0699 C   0  0  0  0  0  0  0  0  0  0  0  0
   -6.4819    0.3202   -0.5798 N   0  0  0  0  0  0  0  0  0  0  0  0
    3.8639   -0.6469   -2.0868 O   0  0  0  0  0  0  0  0  0  0  0  0
    6.0052   -0.8516   -1.1551 C   0  0  0  0  0  0  0  0  0  0  0  0
   -6.5767   -0.1175   -1.9817 C   0  0  0  0  0  0  0  0  0  0  0  0
   -7.5895   -0.0777    0.3057 C   0  0  0  0  0  0  0  0  0  0  0  0
    6.8231   -0.3763   -0.1650 O   0  0  0  0  0  0  0  0  0  0  0  0
    6.7794   -1.4099   -2.1692 C   0  0  0  0  0  0  0  0  0  0  0  0
   -7.3645   -1.4445   -2.0819 C   0  0  0  0  0  0  0  0  0  0  0  0
   -8.8791   -0.3657   -0.5003 C   0  0  0  0  0  0  0  0  0  0  0  0
    8.1047   -0.6474   -0.5200 C   0  0  0  0  0  0  0  0  0  0  0  0
    8.1399   -1.2877   -1.7503 C   0  0  0  0  0  0  0  0  0  0  0  0
    6.2796   -2.0060   -3.4352 C   0  0  0  0  0  0  0  0  0  0  0  0
   -8.7548   -1.3653   -1.5822 N   0  0  0  0  0  0  0  0  0  0  0  0
    9.2325   -0.3293    0.2333 C   0  0  0  0  0  0  0  0  0  0  0  0
    9.3953   -1.6407   -2.2806 C   0  0  0  0  0  0  0  0  0  0  0  0
   -9.2232   -2.6825   -1.1608 C   0  0  0  0  0  0  0  0  0  0  0  0
   10.4689   -0.6914   -0.3102 C   0  0  0  0  0  0  0  0  0  0  0  0
   10.5511   -1.3363   -1.5464 C   0  0  0  0  0  0  0  0  0  0  0  0
  1  2  2  0
  2  3  1  0
  2  4  1  0
  3  5  1  0
  4  6  2  0
  4  7  1  0
  5  8  1  0
  6  9  1  0
  7 10  2  0
  8 11  2  0
  8 12  1  0
  9 13  2  0
  9 14  1  0
 11 15  1  0
 12 16  2  0
 13 17  1  0
 14 18  1  0
 15 19  2  0
 17 20  1  0
 18 21  1  0
 19 22  1  0
 21 23  2  0
 21 24  1  0
 22 25  1  0
 22 26  1  0
 24 27  1  0
 24 28  2  0
 25 29  1  0
 26 30  1  0
 27 31  1  0
 28 32  1  0
 28 33  1  0
 29 34  1  0
 31 35  2  0
 32 36  2  0
 34 37  1  0
 35 38  1  0
 36 39  1  0
 10 13  1  0
 16 19  1  0
 18 20  1  0
 30 34  1  0
 31 32  1  0
 38 39  2  0
M  END
>  <Molecule Name>  (1) 
CTX-1020523

>  <SMILES>  (1) 
CN1CCN(CC1)C1=CC=C(CNC(=O)C2=NC=C3CCN(CC3=N2)C(=O)C2=C(C)C3=C(O2)C=CC=C3)C=C1

>  <Batch Name>  (1) 
CTX-1020523-1

>  <Batch Created Date>  (1) 
2021-11-04

>  <Batch ID>  (1) 
CTX-1020523-1

>  <External ID>  (1) 
610EDL081-B

>  <Stereochemistry>  (1) 
Achiral

>  <Amount 1>  (1) 
5.3

>  <Unit 1>  (1) 
mg

>  <CRO 1>  (1) 
Pharmaron

>  <CRO 1 Total Amount>  (1) 
23.0

>  <CRO 1 Unit>  (1) 
mg

>  <pIC50>  (1) 
5.185752

>  <SMILES_std>  (1) 
Cc1c(C(=O)N2CCc3cnc(C(=O)NCc4ccc(N5CCN(C)CC5)cc4)nc3C2)oc2ccccc12

>  <embed_status>  (1) 
0

>  <mmff_status>  (1) 
0

$$$$
