CTX-1020734
     RDKit          3D

 38 44  0  0  0  0  0  0  0  0999 V2000
    6.5618    1.4678   -3.9160 Cl  0  0  0  0  0  0  0  0  0  0  0  0
    7.0083    0.3134   -2.7247 C   0  0  0  0  0  0  0  0  0  0  0  0
    6.1303   -0.2870   -1.8530 C   0  0  0  0  0  0  0  0  0  0  0  0
    8.3709   -0.1043   -2.5202 C   0  0  0  0  0  0  0  0  0  0  0  0
    6.9105   -1.3881   -0.8126 S   0  0  0  0  0  0  0  0  0  0  0  0
    4.6947   -0.1401   -1.7816 C   0  0  0  0  0  0  0  0  0  0  0  0
    8.4571   -1.0439   -1.4871 C   0  0  0  0  0  0  0  0  0  0  0  0
    9.5752    0.2704   -3.1721 C   0  0  0  0  0  0  0  0  0  0  0  0
    3.9587   -0.6417   -2.6308 O   0  0  0  0  0  0  0  0  0  0  0  0
    4.1678    0.5869   -0.7068 N   0  0  0  0  0  0  0  0  0  0  0  0
    9.6891   -1.6054   -1.0967 C   0  0  0  0  0  0  0  0  0  0  0  0
   10.7996   -0.2837   -2.7869 C   0  0  0  0  0  0  0  0  0  0  0  0
    2.7091    0.7396   -0.6880 C   0  0  0  0  0  0  0  0  0  0  0  0
    4.9495    1.5595    0.0835 C   0  0  0  0  0  0  0  0  0  0  0  0
   10.8537   -1.2124   -1.7585 C   0  0  0  0  0  0  0  0  0  0  0  0
    2.2293    1.1438    0.6760 C   0  0  0  0  0  0  0  0  0  0  0  0
    4.5698    1.5300    1.5714 C   0  0  0  0  0  0  0  0  0  0  0  0
    3.0820    1.5174    1.6936 C   0  0  0  0  0  0  0  0  0  0  0  0
    0.8653    1.2195    1.1052 C   0  0  0  0  0  0  0  0  0  0  0  0
    2.2740    1.9483    3.1191 S   0  0  0  0  0  0  0  0  0  0  0  0
    0.7346    1.6347    2.4219 C   0  0  0  0  0  0  0  0  0  0  0  0
   -0.4612    1.8359    3.2325 C   0  0  0  0  0  0  0  0  0  0  0  0
   -0.4803    2.4366    4.3051 O   0  0  0  0  0  0  0  0  0  0  0  0
   -1.6136    1.2777    2.7147 N   0  0  0  0  0  0  0  0  0  0  0  0
   -2.8419    1.3004    3.4710 C   0  0  0  0  0  0  0  0  0  0  0  0
   -3.9787    0.7611    2.6465 C   0  0  0  0  0  0  0  0  0  0  0  0
   -4.3675   -0.5786    2.7525 C   0  0  0  0  0  0  0  0  0  0  0  0
   -4.6395    1.5824    1.7261 C   0  0  0  0  0  0  0  0  0  0  0  0
   -5.4061   -1.0807    1.9607 C   0  0  0  0  0  0  0  0  0  0  0  0
   -5.6771    1.0741    0.9374 C   0  0  0  0  0  0  0  0  0  0  0  0
   -6.0704   -0.2659    1.0359 C   0  0  0  0  0  0  0  0  0  0  0  0
   -7.1218   -0.7722    0.2482 N   0  0  0  0  0  0  0  0  0  0  0  0
   -7.3786   -2.1469   -0.1090 C   0  0  0  0  0  0  0  0  0  0  0  0
   -7.6174   -0.2559   -1.0053 C   0  0  0  0  0  0  0  0  0  0  0  0
   -8.2508   -1.5941   -1.1852 C   0  0  0  0  0  0  0  0  0  0  0  0
   -8.3129   -2.2366   -2.5237 C   0  0  0  0  0  0  0  0  0  0  0  0
   -9.7322   -1.7364   -1.0904 C   0  0  0  0  0  0  0  0  0  0  0  0
   -9.7611   -2.3669   -2.4074 O   0  0  0  0  0  0  0  0  0  0  0  0
  1  2  1  0
  2  3  2  0
  2  4  1  0
  3  5  1  0
  3  6  1  0
  4  7  2  0
  4  8  1  0
  6  9  2  0
  6 10  1  0
  7 11  1  0
  8 12  2  0
 10 13  1  0
 10 14  1  0
 11 15  2  0
 13 16  1  0
 14 17  1  0
 16 18  2  0
 16 19  1  0
 18 20  1  0
 19 21  2  0
 21 22  1  0
 22 23  2  0
 22 24  1  0
 24 25  1  0
 25 26  1  0
 26 27  2  0
 26 28  1  0
 27 29  1  0
 28 30  2  0
 29 31  2  0
 31 32  1  0
 32 33  1  0
 32 34  1  0
 33 35  1  0
 35 36  1  0
 35 37  1  0
 36 38  1  0
  5  7  1  0
 12 15  1  0
 17 18  1  0
 20 21  1  0
 30 31  1  0
 34 35  1  0
 37 38  1  0
M  END
>  <Molecule Name>  (1) 
CTX-1020734

>  <SMILES>  (1) 
ClC1=C(SC2=CC=CC=C12)C(=O)N1CCC2=C(C1)C=C(S2)C(=O)NCC1=CC=C(C=C1)N1CC2(COC2)C1

>  <Batch Name>  (1) 
CTX-1020734-1

>  <Batch Created Date>  (1) 
2021-12-16

>  <Batch ID>  (1) 
CTX-1020734-1

>  <External ID>  (1) 
CD-44-2-O

>  <Stereochemistry>  (1) 
Achiral

>  <Amount 1>  (1) 
6.5

>  <Unit 1>  (1) 
mg

>  <CRO 1>  (1) 
Pharmaron

>  <CRO 1 Total Amount>  (1) 
22.1

>  <CRO 1 Unit>  (1) 
mg

>  <pIC50>  (1) 
6.103474

>  <SMILES_std>  (1) 
O=C(NCc1ccc(N2CC3(COC3)C2)cc1)c1cc2c(s1)CCN(C(=O)c1sc3ccccc3c1Cl)C2

>  <embed_status>  (1) 
0

>  <mmff_status>  (1) 
0

$$$$
