CTX-1020698
     RDKit          3D

 38 43  0  0  0  0  0  0  0  0999 V2000
   -3.1374   -3.7270    2.1622 O   0  0  0  0  0  0  0  0  0  0  0  0
   -2.4558   -2.7104    2.2275 C   0  0  0  0  0  0  0  0  0  0  0  0
   -2.9214   -1.4896    2.6636 N   0  0  0  0  0  0  0  0  0  0  0  0
   -1.0141   -2.7034    1.8144 C   0  0  0  0  0  0  0  0  0  0  0  0
   -4.3126   -1.2365    2.9366 C   0  0  0  0  0  0  0  0  0  0  0  0
   -0.3652   -1.5082    1.9159 N   0  0  0  0  0  0  0  0  0  0  0  0
   -0.4221   -3.8700    1.3547 C   0  0  0  0  0  0  0  0  0  0  0  0
   -4.9862   -0.5980    1.7499 C   0  0  0  0  0  0  0  0  0  0  0  0
    0.9373   -1.4764    1.5356 C   0  0  0  0  0  0  0  0  0  0  0  0
    0.9149   -3.8200    0.9780 C   0  0  0  0  0  0  0  0  0  0  0  0
   -5.1021    0.7932    1.6522 C   0  0  0  0  0  0  0  0  0  0  0  0
   -5.4719   -1.3900    0.7026 C   0  0  0  0  0  0  0  0  0  0  0  0
    1.6173   -2.6148    1.0783 C   0  0  0  0  0  0  0  0  0  0  0  0
    1.6485   -0.1419    1.6616 C   0  0  0  0  0  0  0  0  0  0  0  0
   -5.7093    1.3780    0.5357 C   0  0  0  0  0  0  0  0  0  0  0  0
   -6.0767   -0.8023   -0.4127 C   0  0  0  0  0  0  0  0  0  0  0  0
    3.0585   -2.5325    0.6442 C   0  0  0  0  0  0  0  0  0  0  0  0
    2.9821   -0.1178    1.0674 N   0  0  0  0  0  0  0  0  0  0  0  0
   -6.2078    0.5913   -0.5151 C   0  0  0  0  0  0  0  0  0  0  0  0
    3.7667   -1.3340    1.2707 C   0  0  0  0  0  0  0  0  0  0  0  0
    3.5503    1.1404    0.8390 C   0  0  0  0  0  0  0  0  0  0  0  0
   -6.8424    1.2092   -1.6899 C   0  0  0  0  0  0  0  0  0  0  0  0
    2.9875    2.1570    1.2508 O   0  0  0  0  0  0  0  0  0  0  0  0
    4.7947    1.2173    0.0880 C   0  0  0  0  0  0  0  0  0  0  0  0
   -7.9085    2.1053   -1.5503 C   0  0  0  0  0  0  0  0  0  0  0  0
   -6.4009    0.9218   -2.9867 C   0  0  0  0  0  0  0  0  0  0  0  0
    5.0982    0.2393   -0.8223 O   0  0  0  0  0  0  0  0  0  0  0  0
    5.7721    2.2072    0.0552 C   0  0  0  0  0  0  0  0  0  0  0  0
   -8.4748    2.6611   -2.6873 C   0  0  0  0  0  0  0  0  0  0  0  0
   -7.0288    1.5302   -4.0626 C   0  0  0  0  0  0  0  0  0  0  0  0
    6.2728    0.5776   -1.4130 C   0  0  0  0  0  0  0  0  0  0  0  0
    6.7378    1.7842   -0.9090 C   0  0  0  0  0  0  0  0  0  0  0  0
    5.7912    3.4552    0.8607 C   0  0  0  0  0  0  0  0  0  0  0  0
   -8.0577    2.3940   -3.9418 N   0  0  0  0  0  0  0  0  0  0  0  0
    6.9258   -0.1699   -2.3905 C   0  0  0  0  0  0  0  0  0  0  0  0
    7.9478    2.2946   -1.4166 C   0  0  0  0  0  0  0  0  0  0  0  0
    8.1273    0.3534   -2.8780 C   0  0  0  0  0  0  0  0  0  0  0  0
    8.6315    1.5652   -2.4004 C   0  0  0  0  0  0  0  0  0  0  0  0
  1  2  2  0
  2  3  1  0
  2  4  1  0
  3  5  1  0
  4  6  2  0
  4  7  1  0
  5  8  1  0
  6  9  1  0
  7 10  2  0
  8 11  2  0
  8 12  1  0
  9 13  2  0
  9 14  1  0
 11 15  1  0
 12 16  2  0
 13 17  1  0
 14 18  1  0
 15 19  2  0
 17 20  1  0
 18 21  1  0
 19 22  1  0
 21 23  2  0
 21 24  1  0
 22 25  2  0
 22 26  1  0
 24 27  1  0
 24 28  2  0
 25 29  1  0
 26 30  2  0
 27 31  1  0
 28 32  1  0
 28 33  1  0
 29 34  2  0
 31 35  2  0
 32 36  2  0
 35 37  1  0
 36 38  1  0
 10 13  1  0
 16 19  1  0
 18 20  1  0
 30 34  1  0
 31 32  1  0
 37 38  2  0
M  END
>  <Molecule Name>  (1) 
CTX-1020698

>  <SMILES>  (1) 
CC1=C(OC2=C1C=CC=C2)C(=O)N1CCC2=CC=C(N=C2C1)C(=O)NCC1=CC=C(C=C1)C1=CC=NC=C1

>  <Batch Name>  (1) 
CTX-1020698-1

>  <Batch Created Date>  (1) 
2021-12-09

>  <Batch ID>  (1) 
CTX-1020698-1

>  <External ID>  (1) 
CD-42-D

>  <Stereochemistry>  (1) 
Achiral

>  <Amount 1>  (1) 
2.5

>  <Unit 1>  (1) 
mg

>  <CRO 1>  (1) 
Pharmaron

>  <CRO 1 Total Amount>  (1) 
19.2

>  <CRO 1 Unit>  (1) 
mg

>  <pIC50>  (1) 
5.954677

>  <SMILES_std>  (1) 
Cc1c(C(=O)N2CCc3ccc(C(=O)NCc4ccc(-c5ccncc5)cc4)nc3C2)oc2ccccc12

>  <embed_status>  (1) 
0

>  <mmff_status>  (1) 
0

$$$$
