CTX-1020771
     RDKit          3D

 31 35  0  0  0  0  0  0  0  0999 V2000
    1.8137   -1.7801   -0.1686 S   0  0  0  0  0  0  0  0  0  0  0  0
    2.5636   -1.3121    1.3022 C   0  0  0  0  0  0  0  0  0  0  0  0
    0.2756   -1.3565    0.4061 C   0  0  0  0  0  0  0  0  0  0  0  0
    4.0024   -1.4194    1.5190 C   0  0  0  0  0  0  0  0  0  0  0  0
    1.6274   -0.8358    2.2055 C   0  0  0  0  0  0  0  0  0  0  0  0
    0.2939   -0.8548    1.6915 C   0  0  0  0  0  0  0  0  0  0  0  0
   -0.9622   -1.4910   -0.4181 C   0  0  0  0  0  0  0  0  0  0  0  0
    4.5378   -1.0789    2.5724 O   0  0  0  0  0  0  0  0  0  0  0  0
    4.7322   -1.9242    0.4670 N   0  0  0  0  0  0  0  0  0  0  0  0
   -0.9442   -0.4181    2.4190 C   0  0  0  0  0  0  0  0  0  0  0  0
   -2.1905   -1.4299    0.5025 C   0  0  0  0  0  0  0  0  0  0  0  0
    6.1719   -1.8336    0.4259 C   0  0  0  0  0  0  0  0  0  0  0  0
   -2.0842   -0.3454    1.4984 N   0  0  0  0  0  0  0  0  0  0  0  0
    6.5302   -0.6445   -0.3978 C   0  0  0  0  0  0  0  0  0  0  0  0
   -3.2152    0.3253    1.9899 C   0  0  0  0  0  0  0  0  0  0  0  0
    6.1908   -0.5855   -1.7366 N   0  0  0  0  0  0  0  0  0  0  0  0
    7.1686    0.5188   -0.0182 C   0  0  0  0  0  0  0  0  0  0  0  0
   -3.2312    0.7799    3.1340 O   0  0  0  0  0  0  0  0  0  0  0  0
   -4.3377    0.4885    1.0865 C   0  0  0  0  0  0  0  0  0  0  0  0
    6.6208    0.5838   -2.1545 C   0  0  0  0  0  0  0  0  0  0  0  0
    7.2166    1.2840   -1.1465 N   0  0  0  0  0  0  0  0  0  0  0  0
   -5.5688    0.0902    1.5280 O   0  0  0  0  0  0  0  0  0  0  0  0
   -4.4397    1.0198   -0.1953 C   0  0  0  0  0  0  0  0  0  0  0  0
    7.7840    2.6023   -1.2652 C   0  0  0  0  0  0  0  0  0  0  0  0
   -6.4571    0.3300    0.5299 C   0  0  0  0  0  0  0  0  0  0  0  0
   -5.8161    0.8998   -0.5617 C   0  0  0  0  0  0  0  0  0  0  0  0
   -3.3537    1.6096   -1.0177 C   0  0  0  0  0  0  0  0  0  0  0  0
   -7.8206    0.0501    0.5812 C   0  0  0  0  0  0  0  0  0  0  0  0
   -6.5876    1.2215   -1.6945 C   0  0  0  0  0  0  0  0  0  0  0  0
   -8.5680    0.3743   -0.5553 C   0  0  0  0  0  0  0  0  0  0  0  0
   -7.9637    0.9503   -1.6753 C   0  0  0  0  0  0  0  0  0  0  0  0
  1  2  1  0
  1  3  1  0
  2  4  1  0
  2  5  2  0
  3  6  2  0
  3  7  1  0
  4  8  2  0
  4  9  1  0
  6 10  1  0
  7 11  1  0
  9 12  1  0
 10 13  1  0
 12 14  1  0
 13 15  1  0
 14 16  1  0
 14 17  2  0
 15 18  2  0
 15 19  1  0
 16 20  2  0
 17 21  1  0
 19 22  1  0
 19 23  2  0
 21 24  1  0
 22 25  1  0
 23 26  1  0
 23 27  1  0
 25 28  2  0
 26 29  2  0
 28 30  1  0
 29 31  1  0
  5  6  1  0
 11 13  1  0
 20 21  1  0
 25 26  1  0
 30 31  2  0
M  END
>  <Molecule Name>  (1) 
CTX-1020771

>  <SMILES>  (1) 
CN1C=NC(CNC(=O)C2=CC3=C(CCN(C3)C(=O)C3=C(C)C4=C(O3)C=CC=C4)S2)=C1

>  <Batch Name>  (1) 
CTX-1020771-1

>  <Batch Created Date>  (1) 
2021-12-16

>  <Batch ID>  (1) 
CTX-1020771-1

>  <External ID>  (1) 
P841-0352

>  <Stereochemistry>  (1) 
Achiral

>  <Amount 1>  (1) 
4.5

>  <Unit 1>  (1) 
mg

>  <CRO 1>  (1) 
Pharmaron

>  <CRO 1 Total Amount>  (1) 
20.05

>  <CRO 1 Unit>  (1) 
mg

>  <pIC50>  (1) 
4.950782

>  <SMILES_std>  (1) 
Cc1c(C(=O)N2CCc3sc(C(=O)NCc4cn(C)cn4)cc3C2)oc2ccccc12

>  <embed_status>  (1) 
0

>  <mmff_status>  (1) 
0

$$$$
