CTX-1019757
     RDKit          3D

 39 44  0  0  0  0  0  0  0  0999 V2000
    0.6928    3.5827    2.4806 O   0  0  0  0  0  0  0  0  0  0  0  0
    0.4513    2.8713    1.5122 C   0  0  0  0  0  0  0  0  0  0  0  0
    1.4094    2.1499    0.8322 N   0  0  0  0  0  0  0  0  0  0  0  0
   -0.9495    2.7182    1.0299 C   0  0  0  0  0  0  0  0  0  0  0  0
    2.7763    2.0867    1.3012 C   0  0  0  0  0  0  0  0  0  0  0  0
   -1.2453    2.4422   -0.3119 C   0  0  0  0  0  0  0  0  0  0  0  0
   -1.9913    2.8913    1.9468 C   0  0  0  0  0  0  0  0  0  0  0  0
    3.0254    0.8011    2.0439 C   0  0  0  0  0  0  0  0  0  0  0  0
   -2.5781    2.3013   -0.7334 C   0  0  0  0  0  0  0  0  0  0  0  0
   -3.3180    2.7603    1.5355 C   0  0  0  0  0  0  0  0  0  0  0  0
    2.6201    0.6602    3.3726 C   0  0  0  0  0  0  0  0  0  0  0  0
    3.6290   -0.2902    1.4171 C   0  0  0  0  0  0  0  0  0  0  0  0
   -3.6134    2.4523    0.2027 C   0  0  0  0  0  0  0  0  0  0  0  0
   -2.8782    2.0646   -2.1979 C   0  0  0  0  0  0  0  0  0  0  0  0
    2.8269   -0.5444    4.0583 C   0  0  0  0  0  0  0  0  0  0  0  0
    3.8326   -1.4893    2.1152 C   0  0  0  0  0  0  0  0  0  0  0  0
   -5.0363    2.3236   -0.2646 C   0  0  0  0  0  0  0  0  0  0  0  0
   -4.2340    1.6061   -2.5101 N   0  0  0  0  0  0  0  0  0  0  0  0
    3.4391   -1.6530    3.4529 C   0  0  0  0  0  0  0  0  0  0  0  0
   -5.1239    1.2983   -1.3907 C   0  0  0  0  0  0  0  0  0  0  0  0
   -4.5862    1.0804   -3.7690 C   0  0  0  0  0  0  0  0  0  0  0  0
    3.6420   -2.8399    4.1358 N   0  0  0  0  0  0  0  0  0  0  0  0
   -5.6307    0.4327   -3.8854 O   0  0  0  0  0  0  0  0  0  0  0  0
   -3.7164    1.2876   -4.9260 C   0  0  0  0  0  0  0  0  0  0  0  0
    2.8715   -3.1784    5.3438 C   0  0  0  0  0  0  0  0  0  0  0  0
    4.6219   -3.8412    3.6833 C   0  0  0  0  0  0  0  0  0  0  0  0
   -2.7398    2.2460   -4.9079 O   0  0  0  0  0  0  0  0  0  0  0  0
   -3.7228    0.6619   -6.1722 C   0  0  0  0  0  0  0  0  0  0  0  0
    2.7800   -4.7110    5.5387 C   0  0  0  0  0  0  0  0  0  0  0  0
    5.1294   -4.6846    4.8762 C   0  0  0  0  0  0  0  0  0  0  0  0
   -2.1159    2.2326   -6.1123 C   0  0  0  0  0  0  0  0  0  0  0  0
   -2.6801    1.2706   -6.9364 C   0  0  0  0  0  0  0  0  0  0  0  0
   -4.6395   -0.4220   -6.6126 C   0  0  0  0  0  0  0  0  0  0  0  0
    4.0689   -5.4333    5.5852 N   0  0  0  0  0  0  0  0  0  0  0  0
   -1.0599    3.0630   -6.4805 C   0  0  0  0  0  0  0  0  0  0  0  0
   -2.1566    1.1170   -8.2343 C   0  0  0  0  0  0  0  0  0  0  0  0
    4.4783   -5.7262    6.9559 C   0  0  0  0  0  0  0  0  0  0  0  0
   -0.5538    2.8931   -7.7728 C   0  0  0  0  0  0  0  0  0  0  0  0
   -1.0916    1.9364   -8.6368 C   0  0  0  0  0  0  0  0  0  0  0  0
  1  2  2  0
  2  3  1  0
  2  4  1  0
  3  5  1  0
  4  6  2  0
  4  7  1  0
  5  8  1  0
  6  9  1  0
  7 10  2  0
  8 11  2  0
  8 12  1  0
  9 13  2  0
  9 14  1  0
 11 15  1  0
 12 16  2  0
 13 17  1  0
 14 18  1  0
 15 19  2  0
 17 20  1  0
 18 21  1  0
 19 22  1  0
 21 23  2  0
 21 24  1  0
 22 25  1  0
 22 26  1  0
 24 27  1  0
 24 28  2  0
 25 29  1  0
 26 30  1  0
 27 31  1  0
 28 32  1  0
 28 33  1  0
 29 34  1  0
 31 35  2  0
 32 36  2  0
 34 37  1  0
 35 38  1  0
 36 39  1  0
 10 13  1  0
 16 19  1  0
 18 20  1  0
 30 34  1  0
 31 32  1  0
 38 39  2  0
M  END
>  <Molecule Name>  (1) 
CTX-1019757

>  <SMILES>  (1) 
CN1CCN(CC1)C1=CC=C(CNC(=O)C2=CC3=C(CCN(C3)C(=O)C3=C(C)C4=C(O3)C=CC=C4)C=C2)C=C1

>  <Batch Name>  (1) 
CTX-1019757-1

>  <Batch Created Date>  (1) 
2021-09-09

>  <Batch ID>  (1) 
CTX-1019757-1

>  <External ID>  (1) 
S04-03-0002

>  <Stereochemistry>  (1) 
Achiral

>  <Amount 1>  (1) 
4.3

>  <Unit 1>  (1) 
mg

>  <CRO 1>  (1) 
Pharmaron

>  <CRO 1 Total Amount>  (1) 
23.8

>  <CRO 1 Unit>  (1) 
mg

>  <pIC50>  (1) 
5.354578

>  <SMILES_std>  (1) 
Cc1c(C(=O)N2CCc3ccc(C(=O)NCc4ccc(N5CCN(C)CC5)cc4)cc3C2)oc2ccccc12

>  <embed_status>  (1) 
0

>  <mmff_status>  (1) 
0

$$$$
