CTX-1020799
     RDKit          3D

 39 45  0  0  0  0  0  0  0  0999 V2000
    6.8196    1.9545    1.5898 Cl  0  0  0  0  0  0  0  0  0  0  0  0
    7.9918    1.1020    0.6649 C   0  0  0  0  0  0  0  0  0  0  0  0
    8.0139    1.0381   -0.7110 C   0  0  0  0  0  0  0  0  0  0  0  0
    9.0720    0.3719    1.2771 C   0  0  0  0  0  0  0  0  0  0  0  0
    9.3537    0.1553   -1.2842 S   0  0  0  0  0  0  0  0  0  0  0  0
    7.1137    1.6382   -1.6729 C   0  0  0  0  0  0  0  0  0  0  0  0
    9.8985   -0.2051    0.3078 C   0  0  0  0  0  0  0  0  0  0  0  0
    9.4111    0.1646    2.6403 C   0  0  0  0  0  0  0  0  0  0  0  0
    7.5054    2.4805   -2.4809 O   0  0  0  0  0  0  0  0  0  0  0  0
    5.7708    1.2371   -1.6486 N   0  0  0  0  0  0  0  0  0  0  0  0
   11.0283   -0.9713    0.6575 C   0  0  0  0  0  0  0  0  0  0  0  0
   10.5305   -0.5959    2.9914 C   0  0  0  0  0  0  0  0  0  0  0  0
    4.8938    1.8874   -2.6301 C   0  0  0  0  0  0  0  0  0  0  0  0
    5.3281   -0.0725   -1.1295 C   0  0  0  0  0  0  0  0  0  0  0  0
   11.3298   -1.1581    2.0076 C   0  0  0  0  0  0  0  0  0  0  0  0
    3.4494    1.6744   -2.2826 C   0  0  0  0  0  0  0  0  0  0  0  0
    3.9580    0.0103   -0.4395 C   0  0  0  0  0  0  0  0  0  0  0  0
    3.0300    0.8085   -1.2936 C   0  0  0  0  0  0  0  0  0  0  0  0
    2.3289    2.3014   -2.9109 C   0  0  0  0  0  0  0  0  0  0  0  0
    1.3442    0.7582   -1.1185 S   0  0  0  0  0  0  0  0  0  0  0  0
    1.1145    1.8993   -2.3795 C   0  0  0  0  0  0  0  0  0  0  0  0
   -0.2074    2.3516   -2.7957 C   0  0  0  0  0  0  0  0  0  0  0  0
   -0.3783    3.1616   -3.7047 O   0  0  0  0  0  0  0  0  0  0  0  0
   -1.2715    1.8201   -2.1032 N   0  0  0  0  0  0  0  0  0  0  0  0
   -2.6241    2.2438   -2.3581 C   0  0  0  0  0  0  0  0  0  0  0  0
   -3.5965    1.4350   -1.5446 C   0  0  0  0  0  0  0  0  0  0  0  0
   -4.0059    1.8714   -0.2799 C   0  0  0  0  0  0  0  0  0  0  0  0
   -4.0633    0.2022   -2.0143 C   0  0  0  0  0  0  0  0  0  0  0  0
   -4.8839    1.0984    0.4876 C   0  0  0  0  0  0  0  0  0  0  0  0
   -4.9412   -0.5657   -1.2420 C   0  0  0  0  0  0  0  0  0  0  0  0
   -5.3737   -0.1250    0.0145 C   0  0  0  0  0  0  0  0  0  0  0  0
   -6.2497   -0.9049    0.7942 N   0  0  0  0  0  0  0  0  0  0  0  0
   -7.1219   -0.4554    1.8557 C   0  0  0  0  0  0  0  0  0  0  0  0
   -7.1757   -1.9133    0.3374 C   0  0  0  0  0  0  0  0  0  0  0  0
   -7.8597   -1.7416    1.6518 C   0  0  0  0  0  0  0  0  0  0  0  0
   -7.7729   -2.8132    2.7012 C   0  0  0  0  0  0  0  0  0  0  0  0
   -9.3527   -1.7806    1.7616 C   0  0  0  0  0  0  0  0  0  0  0  0
   -9.1713   -2.4519    3.0814 N   0  0  0  0  0  0  0  0  0  0  0  0
  -10.0030   -3.6484    3.1670 C   0  0  0  0  0  0  0  0  0  0  0  0
  1  2  1  0
  2  3  2  0
  2  4  1  0
  3  5  1  0
  3  6  1  0
  4  7  2  0
  4  8  1  0
  6  9  2  0
  6 10  1  0
  7 11  1  0
  8 12  2  0
 10 13  1  0
 10 14  1  0
 11 15  2  0
 13 16  1  0
 14 17  1  0
 16 18  2  0
 16 19  1  0
 18 20  1  0
 19 21  2  0
 21 22  1  0
 22 23  2  0
 22 24  1  0
 24 25  1  0
 25 26  1  0
 26 27  2  0
 26 28  1  0
 27 29  1  0
 28 30  2  0
 29 31  2  0
 31 32  1  0
 32 33  1  0
 32 34  1  0
 33 35  1  0
 35 36  1  0
 35 37  1  0
 36 38  1  0
 38 39  1  0
  5  7  1  0
 12 15  1  0
 17 18  1  0
 20 21  1  0
 30 31  1  0
 34 35  1  0
 37 38  1  0
M  END
>  <Molecule Name>  (1) 
CTX-1020799

>  <SMILES>  (1) 
CN1CC2(C1)CN(C2)C1=CC=C(CNC(=O)C2=CC3=C(CCN(C3)C(=O)C3=C(Cl)C4=CC=CC=C4S3)S2)C=C1

>  <Batch Name>  (1) 
CTX-1020799-1

>  <Batch Created Date>  (1) 
2021-12-24

>  <Batch ID>  (1) 
CTX-1020799-1

>  <External ID>  (1) 
CD-44-2-N

>  <Stereochemistry>  (1) 
Achiral

>  <Amount 1>  (1) 
20.6

>  <Unit 1>  (1) 
mg

>  <CRO 1>  (1) 
Pharmaron

>  <CRO 1 Total Amount>  (1) 
29.2

>  <CRO 1 Unit>  (1) 
mg

>  <pIC50>  (1) 
5.103474

>  <SMILES_std>  (1) 
CN1CC2(C1)CN(c1ccc(CNC(=O)c3cc4c(s3)CCN(C(=O)c3sc5ccccc5c3Cl)C4)cc1)C2

>  <embed_status>  (1) 
0

>  <mmff_status>  (1) 
0

$$$$
