CTX-1017233
     RDKit          3D

 39 44  0  0  0  0  0  0  0  0999 V2000
   -0.7929    2.9899   -0.1614 O   0  0  0  0  0  0  0  0  0  0  0  0
   -0.3149    1.9144   -0.5058 C   0  0  0  0  0  0  0  0  0  0  0  0
    0.9844    1.5429   -0.2041 N   0  0  0  0  0  0  0  0  0  0  0  0
   -1.1229    0.9066   -1.2698 C   0  0  0  0  0  0  0  0  0  0  0  0
    1.7947    2.3805    0.6487 C   0  0  0  0  0  0  0  0  0  0  0  0
   -2.4403    0.8370   -0.9540 N   0  0  0  0  0  0  0  0  0  0  0  0
   -0.5276    0.1076   -2.2387 C   0  0  0  0  0  0  0  0  0  0  0  0
    3.2056    1.8643    0.7025 C   0  0  0  0  0  0  0  0  0  0  0  0
   -3.2063   -0.0601   -1.6222 C   0  0  0  0  0  0  0  0  0  0  0  0
   -1.3243   -0.8086   -2.9175 C   0  0  0  0  0  0  0  0  0  0  0  0
    3.6156    1.0008    1.7194 C   0  0  0  0  0  0  0  0  0  0  0  0
    4.1240    2.1962   -0.2951 C   0  0  0  0  0  0  0  0  0  0  0  0
   -2.6870   -0.8918   -2.6200 C   0  0  0  0  0  0  0  0  0  0  0  0
   -4.6718   -0.1189   -1.2299 C   0  0  0  0  0  0  0  0  0  0  0  0
    4.9239    0.4975    1.7418 C   0  0  0  0  0  0  0  0  0  0  0  0
    5.4289    1.6853   -0.2617 C   0  0  0  0  0  0  0  0  0  0  0  0
   -3.5724   -1.8840   -3.3223 C   0  0  0  0  0  0  0  0  0  0  0  0
   -5.4695   -1.1126   -1.9574 N   0  0  0  0  0  0  0  0  0  0  0  0
    5.8688    0.8247    0.7563 C   0  0  0  0  0  0  0  0  0  0  0  0
   -5.0274   -1.4232   -3.3127 C   0  0  0  0  0  0  0  0  0  0  0  0
   -6.6864   -1.6387   -1.5049 C   0  0  0  0  0  0  0  0  0  0  0  0
    7.1586    0.3230    0.7853 N   0  0  0  0  0  0  0  0  0  0  0  0
   -7.2288   -2.5510   -2.1342 O   0  0  0  0  0  0  0  0  0  0  0  0
   -7.2979   -1.1152   -0.2881 C   0  0  0  0  0  0  0  0  0  0  0  0
    7.7591   -0.2012    2.0243 C   0  0  0  0  0  0  0  0  0  0  0  0
    8.0173    0.3151   -0.4102 C   0  0  0  0  0  0  0  0  0  0  0  0
   -7.0243    0.1589    0.1291 O   0  0  0  0  0  0  0  0  0  0  0  0
   -8.2393   -1.6892    0.5634 C   0  0  0  0  0  0  0  0  0  0  0  0
    9.2969   -0.0390    1.9987 C   0  0  0  0  0  0  0  0  0  0  0  0
    9.0973   -0.7893   -0.3157 C   0  0  0  0  0  0  0  0  0  0  0  0
   -7.7491    0.3947    1.2513 C   0  0  0  0  0  0  0  0  0  0  0  0
   -8.5222   -0.7127    1.5676 C   0  0  0  0  0  0  0  0  0  0  0  0
   -8.8285   -3.0476    0.4409 C   0  0  0  0  0  0  0  0  0  0  0  0
    9.9627   -0.7428    0.8814 N   0  0  0  0  0  0  0  0  0  0  0  0
   -7.7304    1.5776    1.9866 C   0  0  0  0  0  0  0  0  0  0  0  0
   -9.3504   -0.6425    2.7041 C   0  0  0  0  0  0  0  0  0  0  0  0
   11.2587   -0.1350    0.5929 C   0  0  0  0  0  0  0  0  0  0  0  0
   -8.5570    1.6248    3.1132 C   0  0  0  0  0  0  0  0  0  0  0  0
   -9.3551    0.5344    3.4674 C   0  0  0  0  0  0  0  0  0  0  0  0
  1  2  2  0
  2  3  1  0
  2  4  1  0
  3  5  1  0
  4  6  2  0
  4  7  1  0
  5  8  1  0
  6  9  1  0
  7 10  2  0
  8 11  2  0
  8 12  1  0
  9 13  2  0
  9 14  1  0
 11 15  1  0
 12 16  2  0
 13 17  1  0
 14 18  1  0
 15 19  2  0
 17 20  1  0
 18 21  1  0
 19 22  1  0
 21 23  2  0
 21 24  1  0
 22 25  1  0
 22 26  1  0
 24 27  1  0
 24 28  2  0
 25 29  1  0
 26 30  1  0
 27 31  1  0
 28 32  1  0
 28 33  1  0
 29 34  1  0
 31 35  2  0
 32 36  2  0
 34 37  1  0
 35 38  1  0
 36 39  1  0
 10 13  1  0
 16 19  1  0
 18 20  1  0
 30 34  1  0
 31 32  1  0
 38 39  2  0
M  END
>  <Molecule Name>  (1) 
CTX-1017233

>  <SMILES>  (1) 
CN1CCN(CC1)C1=CC=C(CNC(=O)C2=NC3=C(CCN(C3)C(=O)C3=C(C)C4=CC=CC=C4O3)C=C2)C=C1

>  <Batch Name>  (1) 
CTX-1017233-3

>  <Batch Created Date>  (1) 
2021-11-18

>  <Batch ID>  (1) 
CTX-1017233-3

>  <External ID>  (1) 
P841-0235

>  <Stereochemistry>  (1) 
Achiral

>  <Amount 1>  (1) 
4.3

>  <Unit 1>  (1) 
mg

>  <CRO 1>  (1) 
Pharmaron

>  <CRO 1 Total Amount>  (1) 
36.5

>  <CRO 1 Unit>  (1) 
mg

>  <pIC50>  (1) 
5.59346

>  <SMILES_std>  (1) 
Cc1c(C(=O)N2CCc3ccc(C(=O)NCc4ccc(N5CCN(C)CC5)cc4)nc3C2)oc2ccccc12

>  <embed_status>  (1) 
0

>  <mmff_status>  (1) 
0

$$$$
