CTX-1020521
     RDKit          3D

 45 51  0  0  0  0  0  0  0  0999 V2000
    1.0767   -5.2156   -0.8274 O   0  0  0  0  0  0  0  0  0  0  0  0
    0.9834   -4.0030   -0.6778 C   0  0  0  0  0  0  0  0  0  0  0  0
    2.0622   -3.1539   -0.5912 N   0  0  0  0  0  0  0  0  0  0  0  0
   -0.3474   -3.3228   -0.5648 C   0  0  0  0  0  0  0  0  0  0  0  0
    3.4163   -3.6396   -0.5571 C   0  0  0  0  0  0  0  0  0  0  0  0
   -0.3188   -1.9767   -0.3704 N   0  0  0  0  0  0  0  0  0  0  0  0
   -1.5105   -4.0658   -0.6501 C   0  0  0  0  0  0  0  0  0  0  0  0
    4.3940   -2.4989   -0.6059 C   0  0  0  0  0  0  0  0  0  0  0  0
   -1.5091   -1.3354   -0.2602 C   0  0  0  0  0  0  0  0  0  0  0  0
   -2.7287   -3.3968   -0.5332 C   0  0  0  0  0  0  0  0  0  0  0  0
    4.7876   -1.9494   -1.8289 C   0  0  0  0  0  0  0  0  0  0  0  0
    4.8961   -1.9355    0.5689 C   0  0  0  0  0  0  0  0  0  0  0  0
   -2.7429   -1.9999   -0.3590 C   0  0  0  0  0  0  0  0  0  0  0  0
   -1.4334    0.1666   -0.0547 C   0  0  0  0  0  0  0  0  0  0  0  0
   -3.9441   -4.1796   -0.6008 C   0  0  0  0  0  0  0  0  0  0  0  0
    5.6757   -0.8658   -1.8743 C   0  0  0  0  0  0  0  0  0  0  0  0
    5.7809   -0.8518    0.5133 C   0  0  0  0  0  0  0  0  0  0  0  0
   -4.0314   -1.2159   -0.2366 C   0  0  0  0  0  0  0  0  0  0  0  0
   -2.7170    0.7945    0.2307 N   0  0  0  0  0  0  0  0  0  0  0  0
   -4.4815   -4.9601   -1.6463 C   0  0  0  0  0  0  0  0  0  0  0  0
   -4.8202   -4.3576    0.4482 C   0  0  0  0  0  0  0  0  0  0  0  0
    6.1836   -0.2809   -0.7057 C   0  0  0  0  0  0  0  0  0  0  0  0
   -3.8357    0.2662   -0.5425 C   0  0  0  0  0  0  0  0  0  0  0  0
   -2.6889    2.0831    0.7743 C   0  0  0  0  0  0  0  0  0  0  0  0
   -5.6253   -5.5566   -1.2992 N   0  0  0  0  0  0  0  0  0  0  0  0
   -5.8023   -5.1829   -0.0184 N   0  0  0  0  0  0  0  0  0  0  0  0
    7.0784    0.8016   -0.7050 N   0  0  0  0  0  0  0  0  0  0  0  0
   -1.6196    2.6878    0.8771 O   0  0  0  0  0  0  0  0  0  0  0  0
   -3.9372    2.6717    1.2364 C   0  0  0  0  0  0  0  0  0  0  0  0
   -6.9483   -5.6692    0.7107 C   0  0  0  0  0  0  0  0  0  0  0  0
    7.7469    1.1526   -1.9743 C   0  0  0  0  0  0  0  0  0  0  0  0
    6.5964    1.9852    0.0464 C   0  0  0  0  0  0  0  0  0  0  0  0
   -4.9560    1.8570    1.6557 O   0  0  0  0  0  0  0  0  0  0  0  0
   -4.2952    4.0033    1.4236 C   0  0  0  0  0  0  0  0  0  0  0  0
    8.8509    2.2125   -1.7433 C   0  0  0  0  0  0  0  0  0  0  0  0
    7.7237    3.0347    0.2117 C   0  0  0  0  0  0  0  0  0  0  0  0
   -5.9717    2.6528    2.0775 C   0  0  0  0  0  0  0  0  0  0  0  0
   -5.6208    3.9901    1.9563 C   0  0  0  0  0  0  0  0  0  0  0  0
   -3.4542    5.1923    1.1313 C   0  0  0  0  0  0  0  0  0  0  0  0
    8.4177    3.4360   -1.0321 N   0  0  0  0  0  0  0  0  0  0  0  0
   -7.1953    2.2026    2.5682 C   0  0  0  0  0  0  0  0  0  0  0  0
   -6.5571    4.9621    2.3571 C   0  0  0  0  0  0  0  0  0  0  0  0
    7.5709    4.2792   -1.8722 C   0  0  0  0  0  0  0  0  0  0  0  0
   -8.1117    3.1845    2.9569 C   0  0  0  0  0  0  0  0  0  0  0  0
   -7.7997    4.5421    2.8541 C   0  0  0  0  0  0  0  0  0  0  0  0
  1  2  2  0
  2  3  1  0
  2  4  1  0
  3  5  1  0
  4  6  2  0
  4  7  1  0
  5  8  1  0
  6  9  1  0
  7 10  2  0
  8 11  2  0
  8 12  1  0
  9 13  2  0
  9 14  1  0
 10 15  1  0
 11 16  1  0
 12 17  2  0
 13 18  1  0
 14 19  1  0
 15 20  1  0
 15 21  2  0
 16 22  2  0
 18 23  1  0
 19 24  1  0
 20 25  2  0
 21 26  1  0
 22 27  1  0
 24 28  2  0
 24 29  1  0
 26 30  1  0
 27 31  1  0
 27 32  1  0
 29 33  1  0
 29 34  2  0
 31 35  1  0
 32 36  1  0
 33 37  1  0
 34 38  1  0
 34 39  1  0
 35 40  1  0
 37 41  2  0
 38 42  2  0
 40 43  1  0
 41 44  1  0
 42 45  1  0
 10 13  1  0
 17 22  1  0
 19 23  1  0
 25 26  1  0
 36 40  1  0
 37 38  1  0
 44 45  2  0
M  END
>  <Molecule Name>  (1) 
CTX-1020521

>  <SMILES>  (1) 
CN1C=C(C=N1)C1=C2CCN(CC2=NC(=C1)C(=O)NCC1=CC=C(C=C1)N1CCN(C)CC1)C(=O)C1=C(C)C2=C(O1)C=CC=C2

>  <Batch Name>  (1) 
CTX-1020521-1

>  <Batch Created Date>  (1) 
2021-11-04

>  <Batch ID>  (1) 
CTX-1020521-1

>  <External ID>  (1) 
610EDL131-3

>  <Stereochemistry>  (1) 
Achiral

>  <Amount 1>  (1) 
3.5

>  <Unit 1>  (1) 
mg

>  <CRO 1>  (1) 
Pharmaron

>  <CRO 1 Total Amount>  (1) 
24.1

>  <CRO 1 Unit>  (1) 
mg

>  <pIC50>  (1) 
5.2652

>  <SMILES_std>  (1) 
Cc1c(C(=O)N2CCc3c(-c4cnn(C)c4)cc(C(=O)NCc4ccc(N5CCN(C)CC5)cc4)nc3C2)oc2ccccc12

>  <embed_status>  (1) 
0

>  <mmff_status>  (1) 
0

$$$$
