CTX-1020744
     RDKit          3D

 38 43  0  0  0  0  0  0  0  0999 V2000
   -1.1534   -1.4828    1.6925 S   0  0  0  0  0  0  0  0  0  0  0  0
   -1.1472    0.2222    1.4966 C   0  0  0  0  0  0  0  0  0  0  0  0
   -2.5259   -1.6538    0.7125 C   0  0  0  0  0  0  0  0  0  0  0  0
   -0.1445    1.0802    2.1178 C   0  0  0  0  0  0  0  0  0  0  0  0
   -2.1959    0.6319    0.6895 C   0  0  0  0  0  0  0  0  0  0  0  0
   -3.0062   -0.4531    0.2313 C   0  0  0  0  0  0  0  0  0  0  0  0
   -3.1547   -2.9748    0.4130 C   0  0  0  0  0  0  0  0  0  0  0  0
   -0.1300    2.2994    1.9599 O   0  0  0  0  0  0  0  0  0  0  0  0
    0.7960    0.4382    2.8937 N   0  0  0  0  0  0  0  0  0  0  0  0
   -4.2158   -0.3429   -0.6556 C   0  0  0  0  0  0  0  0  0  0  0  0
   -3.9846   -2.8365   -0.8705 C   0  0  0  0  0  0  0  0  0  0  0  0
    1.9471    1.1171    3.4362 C   0  0  0  0  0  0  0  0  0  0  0  0
   -4.8605   -1.6532   -0.8376 N   0  0  0  0  0  0  0  0  0  0  0  0
    3.1688    0.8402    2.6014 C   0  0  0  0  0  0  0  0  0  0  0  0
   -6.2252   -1.8249   -1.1015 C   0  0  0  0  0  0  0  0  0  0  0  0
    4.0711   -0.1662    2.9551 C   0  0  0  0  0  0  0  0  0  0  0  0
    3.3989    1.5548    1.4236 C   0  0  0  0  0  0  0  0  0  0  0  0
   -6.7198   -2.9542   -1.0816 O   0  0  0  0  0  0  0  0  0  0  0  0
   -7.0526   -0.6611   -1.3952 C   0  0  0  0  0  0  0  0  0  0  0  0
    5.1919   -0.4349    2.1563 C   0  0  0  0  0  0  0  0  0  0  0  0
    4.5208    1.2790    0.6330 C   0  0  0  0  0  0  0  0  0  0  0  0
   -6.4944    0.4528   -1.9736 O   0  0  0  0  0  0  0  0  0  0  0  0
   -8.4277   -0.4806   -1.2576 C   0  0  0  0  0  0  0  0  0  0  0  0
    5.4547    0.2903    0.9849 C   0  0  0  0  0  0  0  0  0  0  0  0
   -7.4947    1.3469   -2.1745 C   0  0  0  0  0  0  0  0  0  0  0  0
   -8.7041    0.8205   -1.7492 C   0  0  0  0  0  0  0  0  0  0  0  0
   -9.4083   -1.4503   -0.7121 C   0  0  0  0  0  0  0  0  0  0  0  0
    6.5595    0.0458    0.1531 N   0  0  0  0  0  0  0  0  0  0  0  0
   -7.3801    2.6156   -2.7251 C   0  0  0  0  0  0  0  0  0  0  0  0
   -9.8754    1.5007   -1.8358 N   0  0  0  0  0  0  0  0  0  0  0  0
    7.4143    1.2328   -0.0892 C   0  0  0  0  0  0  0  0  0  0  0  0
    7.3329   -1.1944    0.3650 C   0  0  0  0  0  0  0  0  0  0  0  0
   -8.5772    3.3245   -2.8185 C   0  0  0  0  0  0  0  0  0  0  0  0
   -9.7595    2.7379   -2.3729 C   0  0  0  0  0  0  0  0  0  0  0  0
    8.4544    0.9521   -1.2022 C   0  0  0  0  0  0  0  0  0  0  0  0
    8.3619   -1.4081   -0.7712 C   0  0  0  0  0  0  0  0  0  0  0  0
    9.2710   -0.2692   -1.0273 N   0  0  0  0  0  0  0  0  0  0  0  0
   10.2548   -0.1105    0.0406 C   0  0  0  0  0  0  0  0  0  0  0  0
  1  2  1  0
  1  3  1  0
  2  4  1  0
  2  5  2  0
  3  6  2  0
  3  7  1  0
  4  8  2  0
  4  9  1  0
  6 10  1  0
  7 11  1  0
  9 12  1  0
 10 13  1  0
 12 14  1  0
 13 15  1  0
 14 16  2  0
 14 17  1  0
 15 18  2  0
 15 19  1  0
 16 20  1  0
 17 21  2  0
 19 22  1  0
 19 23  2  0
 20 24  2  0
 22 25  1  0
 23 26  1  0
 23 27  1  0
 24 28  1  0
 25 29  2  0
 26 30  2  0
 28 31  1  0
 28 32  1  0
 29 33  1  0
 30 34  1  0
 31 35  1  0
 32 36  1  0
 35 37  1  0
 37 38  1  0
  5  6  1  0
 11 13  1  0
 21 24  1  0
 25 26  1  0
 33 34  2  0
 36 37  1  0
M  END
>  <Molecule Name>  (1) 
CTX-1020744

>  <SMILES>  (1) 
CN1CCN(CC1)C1=CC=C(CNC(=O)C2=CC3=C(CCN(C3)C(=O)C3=C(C)C4=C(O3)C=CC=N4)S2)C=C1

>  <Batch Name>  (1) 
CTX-1020744-1

>  <Batch Created Date>  (1) 
2021-12-16

>  <Batch ID>  (1) 
CTX-1020744-1

>  <External ID>  (1) 
P841-0359

>  <Stereochemistry>  (1) 
Achiral

>  <Amount 1>  (1) 
4.05

>  <Unit 1>  (1) 
mg

>  <CRO 1>  (1) 
Pharmaron

>  <CRO 1 Total Amount>  (1) 
26.95

>  <CRO 1 Unit>  (1) 
mg

>  <pIC50>  (1) 
4.427128

>  <SMILES_std>  (1) 
Cc1c(C(=O)N2CCc3sc(C(=O)NCc4ccc(N5CCN(C)CC5)cc4)cc3C2)oc2cccnc12

>  <embed_status>  (1) 
0

>  <mmff_status>  (1) 
0

$$$$
