CTX-1020766
     RDKit          3D

 31 35  0  0  0  0  0  0  0  0999 V2000
    7.4921    0.7632   -2.5016 S   0  0  0  0  0  0  0  0  0  0  0  0
    6.8456    2.1838   -1.7935 C   0  0  0  0  0  0  0  0  0  0  0  0
    7.3198   -0.0391   -0.9979 C   0  0  0  0  0  0  0  0  0  0  0  0
    6.5165    2.1023   -0.5234 N   0  0  0  0  0  0  0  0  0  0  0  0
    6.7881    0.8217   -0.0533 C   0  0  0  0  0  0  0  0  0  0  0  0
    6.4754    0.4873    1.3693 C   0  0  0  0  0  0  0  0  0  0  0  0
    5.1176    0.0092    1.4436 N   0  0  0  0  0  0  0  0  0  0  0  0
    4.7975   -1.3244    1.3240 C   0  0  0  0  0  0  0  0  0  0  0  0
    5.6251   -2.2288    1.3066 O   0  0  0  0  0  0  0  0  0  0  0  0
    3.3290   -1.5979    1.1952 C   0  0  0  0  0  0  0  0  0  0  0  0
    2.5120   -0.5069    1.1851 N   0  0  0  0  0  0  0  0  0  0  0  0
    2.8778   -2.9045    1.0863 C   0  0  0  0  0  0  0  0  0  0  0  0
    1.1797   -0.7309    1.0565 C   0  0  0  0  0  0  0  0  0  0  0  0
    1.5093   -3.1156    0.9651 C   0  0  0  0  0  0  0  0  0  0  0  0
    0.6382   -2.0215    0.9626 C   0  0  0  0  0  0  0  0  0  0  0  0
    0.2826    0.4933    1.0529 C   0  0  0  0  0  0  0  0  0  0  0  0
   -0.8461   -2.2276    0.8009 C   0  0  0  0  0  0  0  0  0  0  0  0
   -1.1126    0.2089    0.7281 N   0  0  0  0  0  0  0  0  0  0  0  0
   -1.6384   -1.0253    1.3078 C   0  0  0  0  0  0  0  0  0  0  0  0
   -1.9141    1.2976    0.3675 C   0  0  0  0  0  0  0  0  0  0  0  0
   -1.4749    2.4459    0.4569 O   0  0  0  0  0  0  0  0  0  0  0  0
   -3.2553    1.0394   -0.1357 C   0  0  0  0  0  0  0  0  0  0  0  0
   -3.5269   -0.1480   -0.7630 O   0  0  0  0  0  0  0  0  0  0  0  0
   -4.3795    1.8585   -0.1766 C   0  0  0  0  0  0  0  0  0  0  0  0
   -4.8195   -0.1086   -1.1760 C   0  0  0  0  0  0  0  0  0  0  0  0
   -5.3980    1.1072   -0.8394 C   0  0  0  0  0  0  0  0  0  0  0  0
   -4.4838    3.2405    0.3580 C   0  0  0  0  0  0  0  0  0  0  0  0
   -5.4808   -1.1347   -1.8471 C   0  0  0  0  0  0  0  0  0  0  0  0
   -6.7413    1.3266   -1.1994 C   0  0  0  0  0  0  0  0  0  0  0  0
   -6.8149   -0.8973   -2.1919 C   0  0  0  0  0  0  0  0  0  0  0  0
   -7.4366    0.3124   -1.8743 C   0  0  0  0  0  0  0  0  0  0  0  0
  1  2  1  0
  1  3  1  0
  2  4  2  0
  3  5  2  0
  5  6  1  0
  6  7  1  0
  7  8  1  0
  8  9  2  0
  8 10  1  0
 10 11  2  0
 10 12  1  0
 11 13  1  0
 12 14  2  0
 13 15  2  0
 13 16  1  0
 15 17  1  0
 16 18  1  0
 17 19  1  0
 18 20  1  0
 20 21  2  0
 20 22  1  0
 22 23  1  0
 22 24  2  0
 23 25  1  0
 24 26  1  0
 24 27  1  0
 25 28  2  0
 26 29  2  0
 28 30  1  0
 29 31  1  0
  4  5  1  0
 14 15  1  0
 18 19  1  0
 25 26  1  0
 30 31  2  0
M  END
>  <Molecule Name>  (1) 
CTX-1020766

>  <SMILES>  (1) 
CC1=C(OC2=C1C=CC=C2)C(=O)N1CCC2=C(C1)N=C(C=C2)C(=O)NCC1=CSC=N1

>  <Batch Name>  (1) 
CTX-1020766-1

>  <Batch Created Date>  (1) 
2021-12-16

>  <Batch ID>  (1) 
CTX-1020766-1

>  <External ID>  (1) 
P841-0371

>  <Stereochemistry>  (1) 
Achiral

>  <Amount 1>  (1) 
0.0

>  <Unit 1>  (1) 
mg

>  <CRO 1>  (1) 
Pharmaron

>  <CRO 1 Total Amount>  (1) 
0.0

>  <CRO 1 Unit>  (1) 
mg

>  <pIC50>  (1) 
4.39794

>  <SMILES_std>  (1) 
Cc1c(C(=O)N2CCc3ccc(C(=O)NCc4cscn4)nc3C2)oc2ccccc12

>  <embed_status>  (1) 
0

>  <mmff_status>  (1) 
0

$$$$
