CTX-1020912
     RDKit          3D

 37 42  0  0  0  0  0  0  0  0999 V2000
   -4.4163    2.1187    1.6927 S   0  0  0  0  0  0  0  0  0  0  0  0
   -5.0312    0.6965    0.9804 C   0  0  0  0  0  0  0  0  0  0  0  0
   -5.6452    3.0971    1.0004 C   0  0  0  0  0  0  0  0  0  0  0  0
   -4.3402   -0.5644    1.2429 C   0  0  0  0  0  0  0  0  0  0  0  0
   -6.1588    0.9344    0.2124 C   0  0  0  0  0  0  0  0  0  0  0  0
   -6.5238    2.3381    0.2240 C   0  0  0  0  0  0  0  0  0  0  0  0
   -5.8043    4.4888    1.1556 C   0  0  0  0  0  0  0  0  0  0  0  0
   -3.2726   -0.9678    0.4287 C   0  0  0  0  0  0  0  0  0  0  0  0
   -4.7504   -1.3857    2.2948 C   0  0  0  0  0  0  0  0  0  0  0  0
   -6.9257   -0.1076   -0.5407 C   0  0  0  0  0  0  0  0  0  0  0  0
   -7.5958    3.0178   -0.4111 C   0  0  0  0  0  0  0  0  0  0  0  0
   -6.8694    5.1256    0.5164 C   0  0  0  0  0  0  0  0  0  0  0  0
   -2.6041   -2.1647    0.6419 C   0  0  0  0  0  0  0  0  0  0  0  0
   -4.0944   -2.5925    2.5307 C   0  0  0  0  0  0  0  0  0  0  0  0
   -7.7585    4.3984   -0.2604 C   0  0  0  0  0  0  0  0  0  0  0  0
   -1.5885   -2.5010   -0.1699 N   0  0  0  0  0  0  0  0  0  0  0  0
   -3.0244   -2.9875    1.7119 C   0  0  0  0  0  0  0  0  0  0  0  0
   -0.9538   -3.6839    0.0708 C   0  0  0  0  0  0  0  0  0  0  0  0
   -2.3473   -4.1954    1.9263 C   0  0  0  0  0  0  0  0  0  0  0  0
    0.1801   -4.0226   -0.8499 C   0  0  0  0  0  0  0  0  0  0  0  0
   -1.2932   -4.5532    1.0946 C   0  0  0  0  0  0  0  0  0  0  0  0
    0.8327   -5.0506   -0.7110 O   0  0  0  0  0  0  0  0  0  0  0  0
    0.4090   -3.0817   -1.8291 N   0  0  0  0  0  0  0  0  0  0  0  0
    1.5599   -3.1191   -2.6945 C   0  0  0  0  0  0  0  0  0  0  0  0
    2.6427   -2.2052   -2.1859 C   0  0  0  0  0  0  0  0  0  0  0  0
    3.5362   -2.6420   -1.2053 C   0  0  0  0  0  0  0  0  0  0  0  0
    2.7595   -0.8944   -2.6553 C   0  0  0  0  0  0  0  0  0  0  0  0
    4.5286   -1.7847   -0.7157 C   0  0  0  0  0  0  0  0  0  0  0  0
    3.7579   -0.0435   -2.1597 C   0  0  0  0  0  0  0  0  0  0  0  0
    4.6580   -0.4611   -1.1685 C   0  0  0  0  0  0  0  0  0  0  0  0
    5.6749    0.3574   -0.6496 N   0  0  0  0  0  0  0  0  0  0  0  0
    5.9977    1.6069   -1.3671 C   0  0  0  0  0  0  0  0  0  0  0  0
    5.6252    0.5258    0.8224 C   0  0  0  0  0  0  0  0  0  0  0  0
    7.2742    2.2641   -0.7888 C   0  0  0  0  0  0  0  0  0  0  0  0
    6.9033    1.2277    1.3452 C   0  0  0  0  0  0  0  0  0  0  0  0
    7.2628    2.4959    0.6728 N   0  0  0  0  0  0  0  0  0  0  0  0
    6.3529    3.5772    1.0423 C   0  0  0  0  0  0  0  0  0  0  0  0
  1  2  1  0
  1  3  1  0
  2  4  1  0
  2  5  2  0
  3  6  2  0
  3  7  1  0
  4  8  2  0
  4  9  1  0
  5 10  1  0
  6 11  1  0
  7 12  2  0
  8 13  1  0
  9 14  2  0
 11 15  2  0
 13 16  2  0
 13 17  1  0
 16 18  1  0
 17 19  2  0
 18 20  1  0
 18 21  2  0
 20 22  2  0
 20 23  1  0
 23 24  1  0
 24 25  1  0
 25 26  2  0
 25 27  1  0
 26 28  1  0
 27 29  2  0
 28 30  2  0
 30 31  1  0
 31 32  1  0
 31 33  1  0
 32 34  1  0
 33 35  1  0
 34 36  1  0
 36 37  1  0
  5  6  1  0
 12 15  1  0
 14 17  1  0
 19 21  1  0
 29 30  1  0
 35 36  1  0
M  END
>  <Molecule Name>  (1) 
CTX-1020912

>  <SMILES>  (1) 
CN1CCN(CC1)C1=CC=C(CNC(=O)C2=NC3=CC(=CC=C3C=C2)C2=C(C)C3=CC=CC=C3S2)C=C1

>  <Batch Name>  (1) 
CTX-1020912-1

>  <Batch Created Date>  (1) 
2022-01-20

>  <Batch ID>  (1) 
CTX-1020912-1

>  <External ID>  (1) 
P841-0314

>  <Stereochemistry>  (1) 
Achiral

>  <Amount 1>  (1) 
5.5

>  <Unit 1>  (1) 
mg

>  <CRO 1>  (1) 
Pharmaron

>  <CRO 1 Total Amount>  (1) 
3.8

>  <CRO 1 Unit>  (1) 
mg

>  <pIC50>  (1) 
4.322393

>  <SMILES_std>  (1) 
Cc1c(-c2ccc3ccc(C(=O)NCc4ccc(N5CCN(C)CC5)cc4)nc3c2)sc2ccccc12

>  <embed_status>  (1) 
0

>  <mmff_status>  (1) 
0

$$$$
