CTX-1020818
     RDKit          3D

 30 35  0  0  0  0  0  0  0  0999 V2000
   -1.6560    0.5460    2.3308 S   0  0  0  0  0  0  0  0  0  0  0  0
   -2.6512    1.0269    1.0141 C   0  0  0  0  0  0  0  0  0  0  0  0
   -0.2370    0.8462    1.4551 C   0  0  0  0  0  0  0  0  0  0  0  0
   -4.1007    0.9754    1.1719 C   0  0  0  0  0  0  0  0  0  0  0  0
   -1.8802    1.4245   -0.0680 C   0  0  0  0  0  0  0  0  0  0  0  0
   -0.4742    1.3177    0.1793 C   0  0  0  0  0  0  0  0  0  0  0  0
    1.1290    0.6063    2.0165 C   0  0  0  0  0  0  0  0  0  0  0  0
   -4.6746    0.8744    2.2543 O   0  0  0  0  0  0  0  0  0  0  0  0
   -4.8150    1.0288   -0.0141 N   0  0  0  0  0  0  0  0  0  0  0  0
    0.6290    1.6758   -0.7774 C   0  0  0  0  0  0  0  0  0  0  0  0
    2.1498    1.3891    1.1784 C   0  0  0  0  0  0  0  0  0  0  0  0
   -6.2535    0.8876   -0.0453 C   0  0  0  0  0  0  0  0  0  0  0  0
    1.9172    1.2015   -0.2667 N   0  0  0  0  0  0  0  0  0  0  0  0
   -6.5467   -0.5569   -0.1963 C   0  0  0  0  0  0  0  0  0  0  0  0
    2.9506    1.0685   -1.2007 C   0  0  0  0  0  0  0  0  0  0  0  0
   -6.1413   -1.5556   -1.3539 C   0  0  0  0  0  0  0  0  0  0  0  0
   -7.9742   -1.2234   -0.3266 C   0  0  0  0  0  0  0  0  0  0  0  0
   -6.2331   -1.7746    0.7643 C   0  0  0  0  0  0  0  0  0  0  0  0
    2.7986    1.4793   -2.3536 O   0  0  0  0  0  0  0  0  0  0  0  0
    4.1839    0.4150   -0.7885 C   0  0  0  0  0  0  0  0  0  0  0  0
   -7.0119   -2.4558   -0.4121 C   0  0  0  0  0  0  0  0  0  0  0  0
    4.1532   -0.5162    0.2159 O   0  0  0  0  0  0  0  0  0  0  0  0
    5.4716    0.5001   -1.3090 C   0  0  0  0  0  0  0  0  0  0  0  0
    5.4116   -1.0030    0.3642 C   0  0  0  0  0  0  0  0  0  0  0  0
    6.2704   -0.4103   -0.5509 C   0  0  0  0  0  0  0  0  0  0  0  0
    5.9130    1.3633   -2.4342 C   0  0  0  0  0  0  0  0  0  0  0  0
    5.7973   -1.9641    1.2959 C   0  0  0  0  0  0  0  0  0  0  0  0
    7.6222   -0.8037   -0.5453 C   0  0  0  0  0  0  0  0  0  0  0  0
    7.1447   -2.3375    1.2867 C   0  0  0  0  0  0  0  0  0  0  0  0
    8.0437   -1.7681    0.3819 C   0  0  0  0  0  0  0  0  0  0  0  0
  1  2  1  0
  1  3  1  0
  2  4  1  0
  2  5  2  0
  3  6  2  0
  3  7  1  0
  4  8  2  0
  4  9  1  0
  6 10  1  0
  7 11  1  0
  9 12  1  0
 10 13  1  0
 12 14  1  0
 13 15  1  0
 14 16  1  0
 14 17  1  0
 14 18  1  0
 15 19  2  0
 15 20  1  0
 16 21  1  0
 20 22  1  0
 20 23  2  0
 22 24  1  0
 23 25  1  0
 23 26  1  0
 24 27  2  0
 25 28  2  0
 27 29  1  0
 28 30  1  0
  5  6  1  0
 11 13  1  0
 17 21  1  0
 18 21  1  0
 24 25  1  0
 29 30  2  0
M  END
>  <Molecule Name>  (1) 
CTX-1020818

>  <SMILES>  (1) 
CC1=C(OC2=C1C=CC=C2)C(=O)N1CCC2=C(C1)C=C(S2)C(=O)NCC12CC(C1)C2

>  <Batch Name>  (1) 
CTX-1020818-1

>  <Batch Created Date>  (1) 
2021-12-30

>  <Batch ID>  (1) 
CTX-1020818-1

>  <External ID>  (1) 
CD-44-L

>  <Stereochemistry>  (1) 
Achiral

>  <Amount 1>  (1) 
4.1

>  <Unit 1>  (1) 
mg

>  <CRO 1>  (1) 
Pharmaron

>  <CRO 1 Total Amount>  (1) 
30.3

>  <CRO 1 Unit>  (1) 
mg

>  <pIC50>  (1) 
4.510042

>  <SMILES_std>  (1) 
Cc1c(C(=O)N2CCc3sc(C(=O)NCC45CC(C4)C5)cc3C2)oc2ccccc12

>  <embed_status>  (1) 
0

>  <mmff_status>  (1) 
0

$$$$
