CTX-1020667
     RDKit          3D

 38 43  0  0  0  0  0  0  0  0999 V2000
   -0.8658    0.7844    1.6697 S   0  0  0  0  0  0  0  0  0  0  0  0
   -0.4656    2.2087    0.7751 C   0  0  0  0  0  0  0  0  0  0  0  0
   -2.1699    0.5110    0.6204 C   0  0  0  0  0  0  0  0  0  0  0  0
   -1.2612    2.4667   -0.2497 N   0  0  0  0  0  0  0  0  0  0  0  0
    0.6813    3.0560    1.1281 C   0  0  0  0  0  0  0  0  0  0  0  0
   -2.2479    1.5040   -0.3352 C   0  0  0  0  0  0  0  0  0  0  0  0
   -3.1212   -0.6324    0.7160 C   0  0  0  0  0  0  0  0  0  0  0  0
    1.0242    4.0434    0.4769 O   0  0  0  0  0  0  0  0  0  0  0  0
    1.3887    2.6786    2.2605 N   0  0  0  0  0  0  0  0  0  0  0  0
   -3.2952    1.5404   -1.4087 C   0  0  0  0  0  0  0  0  0  0  0  0
   -3.8450   -0.7773   -0.6344 C   0  0  0  0  0  0  0  0  0  0  0  0
    2.6406    3.2977    2.6256 C   0  0  0  0  0  0  0  0  0  0  0  0
   -4.3274    0.5267   -1.1334 N   0  0  0  0  0  0  0  0  0  0  0  0
    3.7976    2.4381    2.1911 C   0  0  0  0  0  0  0  0  0  0  0  0
   -5.5602    0.6996   -1.7709 C   0  0  0  0  0  0  0  0  0  0  0  0
    4.2552    2.4819    0.8703 C   0  0  0  0  0  0  0  0  0  0  0  0
    4.4103    1.5516    3.0799 C   0  0  0  0  0  0  0  0  0  0  0  0
   -5.6948    1.5673   -2.6359 O   0  0  0  0  0  0  0  0  0  0  0  0
   -6.6755   -0.1458   -1.3708 C   0  0  0  0  0  0  0  0  0  0  0  0
    5.3140    1.6657    0.4516 C   0  0  0  0  0  0  0  0  0  0  0  0
    5.4670    0.7394    2.6521 C   0  0  0  0  0  0  0  0  0  0  0  0
   -6.7155   -0.6589   -0.1008 O   0  0  0  0  0  0  0  0  0  0  0  0
   -7.8363   -0.4957   -2.0539 C   0  0  0  0  0  0  0  0  0  0  0  0
    5.9446    0.7776    1.3316 C   0  0  0  0  0  0  0  0  0  0  0  0
   -7.8730   -1.3572    0.0242 C   0  0  0  0  0  0  0  0  0  0  0  0
   -8.6059   -1.2934   -1.1526 C   0  0  0  0  0  0  0  0  0  0  0  0
   -8.1955   -0.1031   -3.4408 C   0  0  0  0  0  0  0  0  0  0  0  0
    7.0038   -0.0625    0.9630 N   0  0  0  0  0  0  0  0  0  0  0  0
   -8.2800   -2.0410    1.1676 C   0  0  0  0  0  0  0  0  0  0  0  0
   -9.8456   -1.9592   -1.2007 C   0  0  0  0  0  0  0  0  0  0  0  0
    7.8386    0.2775   -0.2080 C   0  0  0  0  0  0  0  0  0  0  0  0
    6.6628   -1.5039    1.0766 C   0  0  0  0  0  0  0  0  0  0  0  0
   -9.5122   -2.6981    1.0969 C   0  0  0  0  0  0  0  0  0  0  0  0
  -10.2837   -2.6590   -0.0668 C   0  0  0  0  0  0  0  0  0  0  0  0
    7.5277   -0.6383   -1.4124 C   0  0  0  0  0  0  0  0  0  0  0  0
    7.6657   -2.3839    0.2956 C   0  0  0  0  0  0  0  0  0  0  0  0
    7.7058   -2.0868   -1.1548 N   0  0  0  0  0  0  0  0  0  0  0  0
    8.9394   -2.5966   -1.7469 C   0  0  0  0  0  0  0  0  0  0  0  0
  1  2  1  0
  1  3  1  0
  2  4  2  0
  2  5  1  0
  3  6  2  0
  3  7  1  0
  5  8  2  0
  5  9  1  0
  6 10  1  0
  7 11  1  0
  9 12  1  0
 10 13  1  0
 12 14  1  0
 13 15  1  0
 14 16  2  0
 14 17  1  0
 15 18  2  0
 15 19  1  0
 16 20  1  0
 17 21  2  0
 19 22  1  0
 19 23  2  0
 20 24  2  0
 22 25  1  0
 23 26  1  0
 23 27  1  0
 24 28  1  0
 25 29  2  0
 26 30  2  0
 28 31  1  0
 28 32  1  0
 29 33  1  0
 30 34  1  0
 31 35  1  0
 32 36  1  0
 35 37  1  0
 37 38  1  0
  4  6  1  0
 11 13  1  0
 21 24  1  0
 25 26  1  0
 33 34  2  0
 36 37  1  0
M  END
>  <Molecule Name>  (1) 
CTX-1020667

>  <SMILES>  (1) 
CN1CCN(CC1)C1=CC=C(CNC(=O)C2=NC3=C(CCN(C3)C(=O)C3=C(C)C4=C(O3)C=CC=C4)S2)C=C1

>  <Batch Name>  (1) 
CTX-1020667-1

>  <Batch Created Date>  (1) 
2021-12-03

>  <Batch ID>  (1) 
CTX-1020667-1

>  <External ID>  (1) 
610EDL180-C

>  <Stereochemistry>  (1) 
Achiral

>  <Amount 1>  (1) 
4.6

>  <Unit 1>  (1) 
mg

>  <CRO 1>  (1) 
Pharmaron

>  <CRO 1 Total Amount>  (1) 
7.8

>  <CRO 1 Unit>  (1) 
mg

>  <pIC50>  (1) 
6.416801

>  <SMILES_std>  (1) 
Cc1c(C(=O)N2CCc3sc(C(=O)NCc4ccc(N5CCN(C)CC5)cc4)nc3C2)oc2ccccc12

>  <embed_status>  (1) 
0

>  <mmff_status>  (1) 
0

$$$$
