CTX-1020685
     RDKit          3D

 38 43  0  0  0  0  0  0  0  0999 V2000
   -2.9179    4.3468   -0.3917 O   0  0  0  0  0  0  0  0  0  0  0  0
   -2.0196    3.7199    0.1582 C   0  0  0  0  0  0  0  0  0  0  0  0
   -2.0426    3.3238    1.4773 N   0  0  0  0  0  0  0  0  0  0  0  0
   -0.7836    3.3055   -0.5833 C   0  0  0  0  0  0  0  0  0  0  0  0
   -3.2134    3.4445    2.3077 C   0  0  0  0  0  0  0  0  0  0  0  0
    0.1395    2.6009    0.1319 N   0  0  0  0  0  0  0  0  0  0  0  0
   -0.6384    3.6364   -1.9220 C   0  0  0  0  0  0  0  0  0  0  0  0
   -3.9817    2.1504    2.3420 C   0  0  0  0  0  0  0  0  0  0  0  0
    1.2593    2.2035   -0.5238 C   0  0  0  0  0  0  0  0  0  0  0  0
    0.5193    3.2288   -2.5743 C   0  0  0  0  0  0  0  0  0  0  0  0
   -4.8973    1.8416    1.3328 C   0  0  0  0  0  0  0  0  0  0  0  0
   -3.7754    1.2163    3.3582 C   0  0  0  0  0  0  0  0  0  0  0  0
    1.4940    2.5132   -1.8715 C   0  0  0  0  0  0  0  0  0  0  0  0
    2.2799    1.4262    0.2866 C   0  0  0  0  0  0  0  0  0  0  0  0
   -5.5988    0.6278    1.3468 C   0  0  0  0  0  0  0  0  0  0  0  0
   -4.4800    0.0057    3.3608 C   0  0  0  0  0  0  0  0  0  0  0  0
    2.7410    2.0337   -2.5693 C   0  0  0  0  0  0  0  0  0  0  0  0
    3.3708    0.8661   -0.5062 N   0  0  0  0  0  0  0  0  0  0  0  0
   -5.3981   -0.3294    2.3501 C   0  0  0  0  0  0  0  0  0  0  0  0
    3.8605    1.7335   -1.5757 C   0  0  0  0  0  0  0  0  0  0  0  0
    4.1450   -0.1309    0.0975 C   0  0  0  0  0  0  0  0  0  0  0  0
   -6.0799   -1.5488    2.4081 N   0  0  0  0  0  0  0  0  0  0  0  0
    3.9766   -0.4100    1.2864 O   0  0  0  0  0  0  0  0  0  0  0  0
    5.1243   -0.8396   -0.7130 C   0  0  0  0  0  0  0  0  0  0  0  0
   -5.2343   -2.7604    2.5214 C   0  0  0  0  0  0  0  0  0  0  0  0
   -7.2829   -1.7715    1.5805 C   0  0  0  0  0  0  0  0  0  0  0  0
    4.9261   -0.9605   -2.0633 O   0  0  0  0  0  0  0  0  0  0  0  0
    6.2689   -1.5393   -0.3433 C   0  0  0  0  0  0  0  0  0  0  0  0
   -4.9223   -3.3521    1.1258 C   0  0  0  0  0  0  0  0  0  0  0  0
   -6.9360   -2.4132    0.2158 C   0  0  0  0  0  0  0  0  0  0  0  0
    5.9467   -1.7025   -2.5640 C   0  0  0  0  0  0  0  0  0  0  0  0
    6.8094   -2.0869   -1.5471 C   0  0  0  0  0  0  0  0  0  0  0  0
    6.8061   -1.6873    1.0337 C   0  0  0  0  0  0  0  0  0  0  0  0
   -6.1341   -3.6512    0.3301 N   0  0  0  0  0  0  0  0  0  0  0  0
    6.1127   -2.0401   -3.9053 C   0  0  0  0  0  0  0  0  0  0  0  0
    7.9274   -2.8731   -1.8854 C   0  0  0  0  0  0  0  0  0  0  0  0
    7.2312   -2.8181   -4.2196 C   0  0  0  0  0  0  0  0  0  0  0  0
    8.1248   -3.2288   -3.2278 C   0  0  0  0  0  0  0  0  0  0  0  0
  1  2  2  0
  2  3  1  0
  2  4  1  0
  3  5  1  0
  4  6  2  0
  4  7  1  0
  5  8  1  0
  6  9  1  0
  7 10  2  0
  8 11  2  0
  8 12  1  0
  9 13  2  0
  9 14  1  0
 11 15  1  0
 12 16  2  0
 13 17  1  0
 14 18  1  0
 15 19  2  0
 17 20  1  0
 18 21  1  0
 19 22  1  0
 21 23  2  0
 21 24  1  0
 22 25  1  0
 22 26  1  0
 24 27  1  0
 24 28  2  0
 25 29  1  0
 26 30  1  0
 27 31  1  0
 28 32  1  0
 28 33  1  0
 29 34  1  0
 31 35  2  0
 32 36  2  0
 35 37  1  0
 36 38  1  0
 10 13  1  0
 16 19  1  0
 18 20  1  0
 30 34  1  0
 31 32  1  0
 37 38  2  0
M  END
>  <Molecule Name>  (1) 
CTX-1020685

>  <SMILES>  (1) 
CC1=C(OC2=C1C=CC=C2)C(=O)N1CCC2=CC=C(N=C2C1)C(=O)NCC1=CC=C(C=C1)N1CCNCC1

>  <Batch Name>  (1) 
CTX-1020685-1

>  <Batch Created Date>  (1) 
2021-12-03

>  <Batch ID>  (1) 
CTX-1020685-1

>  <External ID>  (1) 
CD-42-H

>  <Stereochemistry>  (1) 
Achiral

>  <Amount 1>  (1) 
4.9

>  <Unit 1>  (1) 
mg

>  <CRO 1>  (1) 
Pharmaron

>  <CRO 1 Total Amount>  (1) 
16.4

>  <CRO 1 Unit>  (1) 
mg

>  <pIC50>  (1) 
4.274088

>  <SMILES_std>  (1) 
Cc1c(C(=O)N2CCc3ccc(C(=O)NCc4ccc(N5CCNCC5)cc4)nc3C2)oc2ccccc12

>  <embed_status>  (1) 
0

>  <mmff_status>  (1) 
0

$$$$
