CTX-1020582
     RDKit          3D

 39 44  0  0  0  0  0  0  0  0999 V2000
   -6.3020    0.0422    3.1481 S   0  0  0  0  0  0  0  0  0  0  0  0
   -6.0635    0.5380    1.5365 C   0  0  0  0  0  0  0  0  0  0  0  0
   -7.9634   -0.2969    2.8834 C   0  0  0  0  0  0  0  0  0  0  0  0
   -7.2330    0.5097    0.7919 C   0  0  0  0  0  0  0  0  0  0  0  0
   -4.7303    0.9563    1.1370 C   0  0  0  0  0  0  0  0  0  0  0  0
   -8.3432   -0.0012    1.5718 C   0  0  0  0  0  0  0  0  0  0  0  0
   -8.8802   -0.7987    3.8100 C   0  0  0  0  0  0  0  0  0  0  0  0
   -7.3492    0.9474   -0.6350 C   0  0  0  0  0  0  0  0  0  0  0  0
   -4.1758    1.9288    1.6477 O   0  0  0  0  0  0  0  0  0  0  0  0
   -4.1090    0.2262    0.1148 N   0  0  0  0  0  0  0  0  0  0  0  0
   -9.6913   -0.2257    1.2186 C   0  0  0  0  0  0  0  0  0  0  0  0
  -10.1653   -1.0150    3.4483 N   0  0  0  0  0  0  0  0  0  0  0  0
   -2.7671    0.6656   -0.2647 C   0  0  0  0  0  0  0  0  0  0  0  0
   -4.4103   -1.1776   -0.1642 C   0  0  0  0  0  0  0  0  0  0  0  0
  -10.5413   -0.7285    2.1896 C   0  0  0  0  0  0  0  0  0  0  0  0
   -2.2390    0.0528   -1.5465 C   0  0  0  0  0  0  0  0  0  0  0  0
   -4.2407   -1.4864   -1.6504 C   0  0  0  0  0  0  0  0  0  0  0  0
   -1.0637    0.5448   -2.0131 N   0  0  0  0  0  0  0  0  0  0  0  0
   -2.9247   -0.9892   -2.1841 C   0  0  0  0  0  0  0  0  0  0  0  0
   -0.5672   -0.0051   -3.1580 C   0  0  0  0  0  0  0  0  0  0  0  0
   -2.3915   -1.5200   -3.3634 C   0  0  0  0  0  0  0  0  0  0  0  0
    0.7355    0.5516   -3.6495 C   0  0  0  0  0  0  0  0  0  0  0  0
   -1.1905   -1.0258   -3.8589 C   0  0  0  0  0  0  0  0  0  0  0  0
    1.2815    0.1124   -4.6552 O   0  0  0  0  0  0  0  0  0  0  0  0
    1.2428    1.5671   -2.8695 N   0  0  0  0  0  0  0  0  0  0  0  0
    2.5685    2.1009   -3.0485 C   0  0  0  0  0  0  0  0  0  0  0  0
    3.5333    1.4763   -2.0758 C   0  0  0  0  0  0  0  0  0  0  0  0
    4.1184    0.2388   -2.3534 C   0  0  0  0  0  0  0  0  0  0  0  0
    3.8261    2.0909   -0.8558 C   0  0  0  0  0  0  0  0  0  0  0  0
    4.9961   -0.3537   -1.4378 C   0  0  0  0  0  0  0  0  0  0  0  0
    4.7060    1.4890    0.0554 C   0  0  0  0  0  0  0  0  0  0  0  0
    5.3262    0.2613   -0.2185 C   0  0  0  0  0  0  0  0  0  0  0  0
    6.2061   -0.3788    0.6700 N   0  0  0  0  0  0  0  0  0  0  0  0
    6.2764    0.1166    2.0594 C   0  0  0  0  0  0  0  0  0  0  0  0
    7.5359   -0.6863    0.0917 C   0  0  0  0  0  0  0  0  0  0  0  0
    7.1183   -0.8334    2.9450 C   0  0  0  0  0  0  0  0  0  0  0  0
    8.3546   -1.6020    1.0355 C   0  0  0  0  0  0  0  0  0  0  0  0
    8.4734   -1.1416    2.4366 N   0  0  0  0  0  0  0  0  0  0  0  0
    9.3687    0.0069    2.5514 C   0  0  0  0  0  0  0  0  0  0  0  0
  1  2  1  0
  1  3  1  0
  2  4  2  0
  2  5  1  0
  3  6  2  0
  3  7  1  0
  4  8  1  0
  5  9  2  0
  5 10  1  0
  6 11  1  0
  7 12  2  0
 10 13  1  0
 10 14  1  0
 11 15  2  0
 13 16  1  0
 14 17  1  0
 16 18  2  0
 16 19  1  0
 18 20  1  0
 19 21  2  0
 20 22  1  0
 20 23  2  0
 22 24  2  0
 22 25  1  0
 25 26  1  0
 26 27  1  0
 27 28  2  0
 27 29  1  0
 28 30  1  0
 29 31  2  0
 30 32  2  0
 32 33  1  0
 33 34  1  0
 33 35  1  0
 34 36  1  0
 35 37  1  0
 36 38  1  0
 38 39  1  0
  4  6  1  0
 12 15  1  0
 17 19  1  0
 21 23  1  0
 31 32  1  0
 37 38  1  0
M  END
>  <Molecule Name>  (1) 
CTX-1020582

>  <SMILES>  (1) 
CN1CCN(CC1)C1=CC=C(CNC(=O)C2=CC=C3CCN(CC3=N2)C(=O)C2=C(C)C3=C(S2)C=NC=C3)C=C1

>  <Batch Name>  (1) 
CTX-1020582-1

>  <Batch Created Date>  (1) 
2021-11-18

>  <Batch ID>  (1) 
CTX-1020582-1

>  <External ID>  (1) 
P841-0239

>  <Stereochemistry>  (1) 
Achiral

>  <Amount 1>  (1) 
4.6

>  <Unit 1>  (1) 
mg

>  <CRO 1>  (1) 
Pharmaron

>  <CRO 1 Total Amount>  (1) 
15.7

>  <CRO 1 Unit>  (1) 
mg

>  <pIC50>  (1) 
5.657577

>  <SMILES_std>  (1) 
Cc1c(C(=O)N2CCc3ccc(C(=O)NCc4ccc(N5CCN(C)CC5)cc4)nc3C2)sc2cnccc12

>  <embed_status>  (1) 
0

>  <mmff_status>  (1) 
0

$$$$
