CTX-1020747
     RDKit          3D

 39 44  0  0  0  0  0  0  0  0999 V2000
    0.8213   -0.9094   -1.8251 S   0  0  0  0  0  0  0  0  0  0  0  0
    0.4541   -2.3248   -0.9267 C   0  0  0  0  0  0  0  0  0  0  0  0
    2.2900   -0.6955   -1.0066 C   0  0  0  0  0  0  0  0  0  0  0  0
   -0.7700   -3.0906   -1.1332 C   0  0  0  0  0  0  0  0  0  0  0  0
    1.4588   -2.6056   -0.0153 C   0  0  0  0  0  0  0  0  0  0  0  0
    2.5308   -1.6599   -0.0543 C   0  0  0  0  0  0  0  0  0  0  0  0
    3.2142    0.4375   -1.2767 C   0  0  0  0  0  0  0  0  0  0  0  0
   -1.0352   -4.1000   -0.4836 O   0  0  0  0  0  0  0  0  0  0  0  0
   -1.6209   -2.6095   -2.1046 N   0  0  0  0  0  0  0  0  0  0  0  0
    3.7623   -1.6867    0.7975 C   0  0  0  0  0  0  0  0  0  0  0  0
    4.6310    0.0590   -0.8178 C   0  0  0  0  0  0  0  0  0  0  0  0
   -2.9415   -3.1503   -2.3146 C   0  0  0  0  0  0  0  0  0  0  0  0
    4.6700   -0.5642    0.5198 N   0  0  0  0  0  0  0  0  0  0  0  0
   -3.9824   -2.2727   -1.6731 C   0  0  0  0  0  0  0  0  0  0  0  0
    5.7449   -0.4429    1.4191 C   0  0  0  0  0  0  0  0  0  0  0  0
   -4.6824   -1.3212   -2.4166 C   0  0  0  0  0  0  0  0  0  0  0  0
   -4.2437   -2.3665   -0.3047 C   0  0  0  0  0  0  0  0  0  0  0  0
    5.6763   -0.9772    2.5292 O   0  0  0  0  0  0  0  0  0  0  0  0
    6.9324    0.3123    1.0402 C   0  0  0  0  0  0  0  0  0  0  0  0
   -5.6321   -0.4940   -1.8001 C   0  0  0  0  0  0  0  0  0  0  0  0
   -5.1957   -1.5339    0.2993 C   0  0  0  0  0  0  0  0  0  0  0  0
    7.3489    0.3283   -0.2637 O   0  0  0  0  0  0  0  0  0  0  0  0
    7.8506    0.9987    1.8309 C   0  0  0  0  0  0  0  0  0  0  0  0
   -5.9165   -0.5737   -0.4273 C   0  0  0  0  0  0  0  0  0  0  0  0
    8.4986    1.0491   -0.3228 C   0  0  0  0  0  0  0  0  0  0  0  0
    8.8588    1.4881    0.9446 C   0  0  0  0  0  0  0  0  0  0  0  0
    7.7868    1.1729    3.3053 C   0  0  0  0  0  0  0  0  0  0  0  0
   -6.8599    0.2450    0.1703 N   0  0  0  0  0  0  0  0  0  0  0  0
    9.2387    1.3243   -1.4690 C   0  0  0  0  0  0  0  0  0  0  0  0
   10.0402    2.2462    1.0764 C   0  0  0  0  0  0  0  0  0  0  0  0
   -7.4294   -0.0616    1.4931 C   0  0  0  0  0  0  0  0  0  0  0  0
   -7.2546    1.5310   -0.4285 C   0  0  0  0  0  0  0  0  0  0  0  0
    8.8585    0.8898   -2.6771 F   0  0  0  0  0  0  0  0  0  0  0  0
   10.4022    2.0784   -1.3267 C   0  0  0  0  0  0  0  0  0  0  0  0
   10.8006    2.5341   -0.0687 C   0  0  0  0  0  0  0  0  0  0  0  0
   -8.8138    0.6087    1.6548 C   0  0  0  0  0  0  0  0  0  0  0  0
   -7.7081    2.5409    0.6530 C   0  0  0  0  0  0  0  0  0  0  0  0
   -8.7911    2.0842    1.5487 N   0  0  0  0  0  0  0  0  0  0  0  0
  -10.0951    2.5875    1.1268 C   0  0  0  0  0  0  0  0  0  0  0  0
  1  2  1  0
  1  3  1  0
  2  4  1  0
  2  5  2  0
  3  6  2  0
  3  7  1  0
  4  8  2  0
  4  9  1  0
  6 10  1  0
  7 11  1  0
  9 12  1  0
 10 13  1  0
 12 14  1  0
 13 15  1  0
 14 16  2  0
 14 17  1  0
 15 18  2  0
 15 19  1  0
 16 20  1  0
 17 21  2  0
 19 22  1  0
 19 23  2  0
 20 24  2  0
 22 25  1  0
 23 26  1  0
 23 27  1  0
 24 28  1  0
 25 29  2  0
 26 30  2  0
 28 31  1  0
 28 32  1  0
 29 33  1  0
 29 34  1  0
 30 35  1  0
 31 36  1  0
 32 37  1  0
 36 38  1  0
 38 39  1  0
  5  6  1  0
 11 13  1  0
 21 24  1  0
 25 26  1  0
 34 35  2  0
 37 38  1  0
M  END
>  <Molecule Name>  (1) 
CTX-1020747

>  <SMILES>  (1) 
CN1CCN(CC1)C1=CC=C(CNC(=O)C2=CC3=C(CCN(C3)C(=O)C3=C(C)C4=C(O3)C(F)=CC=C4)S2)C=C1

>  <Batch Name>  (1) 
CTX-1020747-1

>  <Batch Created Date>  (1) 
2021-12-16

>  <Batch ID>  (1) 
CTX-1020747-1

>  <External ID>  (1) 
P841-0361

>  <Stereochemistry>  (1) 
Achiral

>  <Amount 1>  (1) 
3.85

>  <Unit 1>  (1) 
mg

>  <CRO 1>  (1) 
Pharmaron

>  <CRO 1 Total Amount>  (1) 
22.1

>  <CRO 1 Unit>  (1) 
mg

>  <pIC50>  (1) 
6.213959

>  <SMILES_std>  (1) 
Cc1c(C(=O)N2CCc3sc(C(=O)NCc4ccc(N5CCN(C)CC5)cc4)cc3C2)oc2c(F)cccc12

>  <embed_status>  (1) 
0

>  <mmff_status>  (1) 
0

$$$$
