CTX-1019496
     RDKit          3D

 31 35  0  0  0  0  0  0  0  0999 V2000
    6.5834    2.6508   -0.4380 S   0  0  0  0  0  0  0  0  0  0  0  0
    6.7829    0.9625   -0.2009 C   0  0  0  0  0  0  0  0  0  0  0  0
    7.0846    2.4639   -2.0674 C   0  0  0  0  0  0  0  0  0  0  0  0
    7.2117    0.3817   -1.3790 C   0  0  0  0  0  0  0  0  0  0  0  0
    6.5083    0.3188    1.1125 C   0  0  0  0  0  0  0  0  0  0  0  0
    7.3900    1.2427   -2.4452 N   0  0  0  0  0  0  0  0  0  0  0  0
    5.1593   -0.1843    1.1083 N   0  0  0  0  0  0  0  0  0  0  0  0
    4.8459   -1.4694    0.7233 C   0  0  0  0  0  0  0  0  0  0  0  0
    5.6790   -2.3327    0.4727 O   0  0  0  0  0  0  0  0  0  0  0  0
    3.3746   -1.7363    0.6163 C   0  0  0  0  0  0  0  0  0  0  0  0
    2.5524   -0.6893    0.9119 N   0  0  0  0  0  0  0  0  0  0  0  0
    2.9262   -2.9891    0.2271 C   0  0  0  0  0  0  0  0  0  0  0  0
    1.2160   -0.9039    0.8089 C   0  0  0  0  0  0  0  0  0  0  0  0
    1.5543   -3.1923    0.1358 C   0  0  0  0  0  0  0  0  0  0  0  0
    0.6779   -2.1460    0.4413 C   0  0  0  0  0  0  0  0  0  0  0  0
    0.3123    0.2671    1.1482 C   0  0  0  0  0  0  0  0  0  0  0  0
   -0.8121   -2.3369    0.3161 C   0  0  0  0  0  0  0  0  0  0  0  0
   -1.0974    0.0418    0.8421 N   0  0  0  0  0  0  0  0  0  0  0  0
   -1.5820   -1.3053    1.1368 C   0  0  0  0  0  0  0  0  0  0  0  0
   -1.9242    1.1699    0.8019 C   0  0  0  0  0  0  0  0  0  0  0  0
   -1.4854    2.2704    1.1426 O   0  0  0  0  0  0  0  0  0  0  0  0
   -3.2915    1.0157    0.3276 C   0  0  0  0  0  0  0  0  0  0  0  0
   -3.5939    0.0098   -0.5521 O   0  0  0  0  0  0  0  0  0  0  0  0
   -4.4201    1.7990    0.5492 C   0  0  0  0  0  0  0  0  0  0  0  0
   -4.9087    0.1232   -0.8703 C   0  0  0  0  0  0  0  0  0  0  0  0
   -5.4723    1.2106   -0.2176 C   0  0  0  0  0  0  0  0  0  0  0  0
   -4.4995    3.0090    1.4072 C   0  0  0  0  0  0  0  0  0  0  0  0
   -5.6035   -0.7230   -1.7317 C   0  0  0  0  0  0  0  0  0  0  0  0
   -6.8355    1.4849   -0.4380 C   0  0  0  0  0  0  0  0  0  0  0  0
   -6.9567   -0.4347   -1.9336 C   0  0  0  0  0  0  0  0  0  0  0  0
   -7.5644    0.6507   -1.2984 C   0  0  0  0  0  0  0  0  0  0  0  0
  1  2  1  0
  1  3  1  0
  2  4  2  0
  2  5  1  0
  3  6  2  0
  5  7  1  0
  7  8  1  0
  8  9  2  0
  8 10  1  0
 10 11  2  0
 10 12  1  0
 11 13  1  0
 12 14  2  0
 13 15  2  0
 13 16  1  0
 15 17  1  0
 16 18  1  0
 17 19  1  0
 18 20  1  0
 20 21  2  0
 20 22  1  0
 22 23  1  0
 22 24  2  0
 23 25  1  0
 24 26  1  0
 24 27  1  0
 25 28  2  0
 26 29  2  0
 28 30  1  0
 29 31  1  0
  4  6  1  0
 14 15  1  0
 18 19  1  0
 25 26  1  0
 30 31  2  0
M  END
>  <Molecule Name>  (1) 
CTX-1019496

>  <SMILES>  (1) 
CC1=C(OC2=C1C=CC=C2)C(=O)N1CCC2=C(C1)N=C(C=C2)C(=O)NCC1=CN=CS1

>  <Batch Name>  (1) 
CTX-1019496-1

>  <Batch Created Date>  (1) 
2021-07-30

>  <Batch ID>  (1) 
CTX-1019496-1

>  <External ID>  (1) 
P841-0109

>  <Stereochemistry>  (1) 
Achiral

>  <Amount 1>  (1) 
2.3

>  <Unit 1>  (1) 
mg

>  <CRO 1>  (1) 
Pharmaron

>  <CRO 1 Total Amount>  (1) 
13.7

>  <CRO 1 Unit>  (1) 
mg

>  <pIC50>  (1) 
5.262013

>  <SMILES_std>  (1) 
Cc1c(C(=O)N2CCc3ccc(C(=O)NCc4cncs4)nc3C2)oc2ccccc12

>  <embed_status>  (1) 
0

>  <mmff_status>  (1) 
0

$$$$
