CTX-1019813
     RDKit          3D

 38 43  0  0  0  0  0  0  0  0999 V2000
    0.7323    0.0801    2.4596 O   0  0  0  0  0  0  0  0  0  0  0  0
    0.3812    0.2963    1.3046 C   0  0  0  0  0  0  0  0  0  0  0  0
   -0.9124    0.0747    0.8636 N   0  0  0  0  0  0  0  0  0  0  0  0
    1.3492    0.8011    0.2743 C   0  0  0  0  0  0  0  0  0  0  0  0
   -1.8797   -0.5387    1.7433 C   0  0  0  0  0  0  0  0  0  0  0  0
    2.6297    0.3702    0.3994 N   0  0  0  0  0  0  0  0  0  0  0  0
    0.9320    1.6656   -0.7307 C   0  0  0  0  0  0  0  0  0  0  0  0
   -3.2423   -0.5340    1.1079 C   0  0  0  0  0  0  0  0  0  0  0  0
    3.5387    0.8098   -0.5044 C   0  0  0  0  0  0  0  0  0  0  0  0
    1.8733    2.1003   -1.6583 C   0  0  0  0  0  0  0  0  0  0  0  0
   -4.0597    0.5961    1.1844 C   0  0  0  0  0  0  0  0  0  0  0  0
   -3.6958   -1.6323    0.3762 C   0  0  0  0  0  0  0  0  0  0  0  0
    3.1959    1.6598   -1.5596 C   0  0  0  0  0  0  0  0  0  0  0  0
    4.9565    0.3039   -0.3308 C   0  0  0  0  0  0  0  0  0  0  0  0
   -5.3153    0.6161    0.5602 C   0  0  0  0  0  0  0  0  0  0  0  0
   -4.9524   -1.6014   -0.2413 C   0  0  0  0  0  0  0  0  0  0  0  0
    4.2434    2.1473   -2.5209 C   0  0  0  0  0  0  0  0  0  0  0  0
    5.9457    0.9077   -1.2347 N   0  0  0  0  0  0  0  0  0  0  0  0
   -5.8042   -0.4865   -0.1531 C   0  0  0  0  0  0  0  0  0  0  0  0
    5.4480    1.2106   -2.5731 C   0  0  0  0  0  0  0  0  0  0  0  0
    7.2920    0.5181   -1.1519 C   0  0  0  0  0  0  0  0  0  0  0  0
   -7.0429   -0.5058   -0.7995 N   0  0  0  0  0  0  0  0  0  0  0  0
    7.9839    0.3774   -2.1590 O   0  0  0  0  0  0  0  0  0  0  0  0
    7.8660    0.3020    0.1654 C   0  0  0  0  0  0  0  0  0  0  0  0
   -7.9285   -1.6517   -0.4824 C   0  0  0  0  0  0  0  0  0  0  0  0
   -7.7984    0.7447   -1.0176 C   0  0  0  0  0  0  0  0  0  0  0  0
    8.8356   -0.6774    0.5467 C   0  0  0  0  0  0  0  0  0  0  0  0
    7.6537    1.0683    1.2957 C   0  0  0  0  0  0  0  0  0  0  0  0
   -8.8907   -1.3085    0.6828 C   0  0  0  0  0  0  0  0  0  0  0  0
   -8.7839    1.0394    0.1407 C   0  0  0  0  0  0  0  0  0  0  0  0
    9.0962   -0.4566    1.8940 C   0  0  0  0  0  0  0  0  0  0  0  0
    9.5140   -1.7296   -0.0985 C   0  0  0  0  0  0  0  0  0  0  0  0
    8.3743    0.6032    2.3474 O   0  0  0  0  0  0  0  0  0  0  0  0
   -9.6905   -0.0737    0.5048 N   0  0  0  0  0  0  0  0  0  0  0  0
    9.9807   -1.2157    2.6567 C   0  0  0  0  0  0  0  0  0  0  0  0
   10.4132   -2.5109    0.6414 C   0  0  0  0  0  0  0  0  0  0  0  0
  -10.7475   -0.2545   -0.4875 C   0  0  0  0  0  0  0  0  0  0  0  0
   10.6395   -2.2579    1.9966 C   0  0  0  0  0  0  0  0  0  0  0  0
  1  2  2  0
  2  3  1  0
  2  4  1  0
  3  5  1  0
  4  6  2  0
  4  7  1  0
  5  8  1  0
  6  9  1  0
  7 10  2  0
  8 11  2  0
  8 12  1  0
  9 13  2  0
  9 14  1  0
 11 15  1  0
 12 16  2  0
 13 17  1  0
 14 18  1  0
 15 19  2  0
 17 20  1  0
 18 21  1  0
 19 22  1  0
 21 23  2  0
 21 24  1  0
 22 25  1  0
 22 26  1  0
 24 27  1  0
 24 28  2  0
 25 29  1  0
 26 30  1  0
 27 31  2  0
 27 32  1  0
 28 33  1  0
 29 34  1  0
 31 35  1  0
 32 36  2  0
 34 37  1  0
 35 38  2  0
 10 13  1  0
 16 19  1  0
 18 20  1  0
 30 34  1  0
 31 33  1  0
 36 38  1  0
M  END
>  <Molecule Name>  (1) 
CTX-1019813

>  <SMILES>  (1) 
CN1CCN(CC1)C1=CC=C(CNC(=O)C2=NC3=C(CCN(C3)C(=O)C3=COC4=C3C=CC=C4)C=C2)C=C1

>  <Batch Name>  (1) 
CTX-1019813-1

>  <Batch Created Date>  (1) 
2021-09-17

>  <Batch ID>  (1) 
CTX-1019813-1

>  <External ID>  (1) 
P841-0172

>  <Stereochemistry>  (1) 
Achiral

>  <Amount 1>  (1) 
4.3

>  <Unit 1>  (1) 
mg

>  <CRO 1>  (1) 
Pharmaron

>  <CRO 1 Total Amount>  (1) 
19.4

>  <CRO 1 Unit>  (1) 
mg

>  <pIC50>  (1) 
5.192465

>  <SMILES_std>  (1) 
CN1CCN(c2ccc(CNC(=O)c3ccc4c(n3)CN(C(=O)c3coc5ccccc35)CC4)cc2)CC1

>  <embed_status>  (1) 
0

>  <mmff_status>  (1) 
0

$$$$
