CTX-1019473
     RDKit          3D

 35 39  0  0  0  0  0  0  0  0999 V2000
    4.1447   -2.7133    0.6816 O   0  0  0  0  0  0  0  0  0  0  0  0
    3.0465   -2.1738    0.7530 C   0  0  0  0  0  0  0  0  0  0  0  0
    2.8082   -0.9766    1.3907 N   0  0  0  0  0  0  0  0  0  0  0  0
    1.8301   -2.7836    0.1225 C   0  0  0  0  0  0  0  0  0  0  0  0
    3.8626   -0.1386    1.9014 C   0  0  0  0  0  0  0  0  0  0  0  0
    0.6733   -2.0693    0.2317 N   0  0  0  0  0  0  0  0  0  0  0  0
    1.9272   -4.0054   -0.5255 C   0  0  0  0  0  0  0  0  0  0  0  0
    4.1728    0.9770    0.9401 C   0  0  0  0  0  0  0  0  0  0  0  0
   -0.4393   -2.6003   -0.3363 C   0  0  0  0  0  0  0  0  0  0  0  0
    0.7773   -4.5324   -1.1017 C   0  0  0  0  0  0  0  0  0  0  0  0
    3.6036    2.2411    1.0919 C   0  0  0  0  0  0  0  0  0  0  0  0
    5.0172    0.7614   -0.1494 C   0  0  0  0  0  0  0  0  0  0  0  0
   -0.4239   -3.8209   -1.0224 C   0  0  0  0  0  0  0  0  0  0  0  0
   -1.7199   -1.7975   -0.1909 C   0  0  0  0  0  0  0  0  0  0  0  0
    3.8863    3.2664    0.1762 C   0  0  0  0  0  0  0  0  0  0  0  0
    5.2926    1.7941   -1.0579 C   0  0  0  0  0  0  0  0  0  0  0  0
   -1.6885   -4.3780   -1.6166 C   0  0  0  0  0  0  0  0  0  0  0  0
   -2.9083   -2.4024   -0.7993 N   0  0  0  0  0  0  0  0  0  0  0  0
    4.7284    3.0760   -0.9343 C   0  0  0  0  0  0  0  0  0  0  0  0
   -2.6732   -3.2622   -1.9548 C   0  0  0  0  0  0  0  0  0  0  0  0
   -4.2266   -2.0850   -0.4478 C   0  0  0  0  0  0  0  0  0  0  0  0
    5.0180    4.1112   -1.8331 N   0  0  0  0  0  0  0  0  0  0  0  0
   -5.1613   -2.7251   -0.9359 O   0  0  0  0  0  0  0  0  0  0  0  0
   -4.4844   -1.0083    0.5024 C   0  0  0  0  0  0  0  0  0  0  0  0
    5.7068    3.7937   -3.0824 C   0  0  0  0  0  0  0  0  0  0  0  0
    4.1282    5.2699   -1.8800 C   0  0  0  0  0  0  0  0  0  0  0  0
   -3.5874    0.0158    0.6457 O   0  0  0  0  0  0  0  0  0  0  0  0
   -5.5952   -0.7678    1.3077 C   0  0  0  0  0  0  0  0  0  0  0  0
   -4.0949    0.8893    1.5516 C   0  0  0  0  0  0  0  0  0  0  0  0
   -5.3357    0.4568    1.9964 C   0  0  0  0  0  0  0  0  0  0  0  0
   -6.8069   -1.6207    1.4180 C   0  0  0  0  0  0  0  0  0  0  0  0
   -3.4700    2.0588    1.9786 C   0  0  0  0  0  0  0  0  0  0  0  0
   -6.0168    1.2489    2.9402 C   0  0  0  0  0  0  0  0  0  0  0  0
   -4.1620    2.8288    2.9184 C   0  0  0  0  0  0  0  0  0  0  0  0
   -5.4147    2.4324    3.3923 C   0  0  0  0  0  0  0  0  0  0  0  0
  1  2  2  0
  2  3  1  0
  2  4  1  0
  3  5  1  0
  4  6  2  0
  4  7  1  0
  5  8  1  0
  6  9  1  0
  7 10  2  0
  8 11  2  0
  8 12  1  0
  9 13  2  0
  9 14  1  0
 11 15  1  0
 12 16  2  0
 13 17  1  0
 14 18  1  0
 15 19  2  0
 17 20  1  0
 18 21  1  0
 19 22  1  0
 21 23  2  0
 21 24  1  0
 22 25  1  0
 22 26  1  0
 24 27  1  0
 24 28  2  0
 27 29  1  0
 28 30  1  0
 28 31  1  0
 29 32  2  0
 30 33  2  0
 32 34  1  0
 33 35  1  0
 10 13  1  0
 16 19  1  0
 18 20  1  0
 29 30  1  0
 34 35  2  0
M  END
>  <Molecule Name>  (1) 
CTX-1019473

>  <SMILES>  (1) 
CN(C)C1=CC=C(CNC(=O)C2=NC3=C(CCN(C3)C(=O)C3=C(C)C4=C(O3)C=CC=C4)C=C2)C=C1

>  <Batch Name>  (1) 
CTX-1019473-1

>  <Batch Created Date>  (1) 
2021-07-30

>  <Batch ID>  (1) 
CTX-1019473-1

>  <External ID>  (1) 
P841-0086

>  <Stereochemistry>  (1) 
Achiral

>  <Amount 1>  (1) 
1.9

>  <Unit 1>  (1) 
mg

>  <CRO 1>  (1) 
Pharmaron

>  <CRO 1 Total Amount>  (1) 
10.9

>  <CRO 1 Unit>  (1) 
mg

>  <pIC50>  (1) 
6.057992

>  <SMILES_std>  (1) 
Cc1c(C(=O)N2CCc3ccc(C(=O)NCc4ccc(N(C)C)cc4)nc3C2)oc2ccccc12

>  <embed_status>  (1) 
0

>  <mmff_status>  (1) 
0

$$$$
