CTX-1020440
     RDKit          3D

 37 42  0  0  0  0  0  0  0  0999 V2000
    1.9420   -1.8541   -2.9247 S   0  0  0  0  0  0  0  0  0  0  0  0
    1.1630   -2.5524   -1.5602 C   0  0  0  0  0  0  0  0  0  0  0  0
    3.2287   -1.2820   -1.9826 C   0  0  0  0  0  0  0  0  0  0  0  0
   -0.1072   -3.2456   -1.7533 C   0  0  0  0  0  0  0  0  0  0  0  0
    1.9089   -2.3475   -0.4090 C   0  0  0  0  0  0  0  0  0  0  0  0
    3.1095   -1.6044   -0.6462 C   0  0  0  0  0  0  0  0  0  0  0  0
    4.3604   -0.4916   -2.5547 C   0  0  0  0  0  0  0  0  0  0  0  0
   -0.5512   -3.5746   -2.8515 O   0  0  0  0  0  0  0  0  0  0  0  0
   -0.8070   -3.5072   -0.5899 N   0  0  0  0  0  0  0  0  0  0  0  0
    4.1389   -1.2254    0.3788 C   0  0  0  0  0  0  0  0  0  0  0  0
    5.5285   -0.4965   -1.5568 C   0  0  0  0  0  0  0  0  0  0  0  0
   -2.1513   -4.0374   -0.6184 C   0  0  0  0  0  0  0  0  0  0  0  0
    5.0722   -0.2377   -0.1752 N   0  0  0  0  0  0  0  0  0  0  0  0
   -3.1585   -2.9386   -0.4075 C   0  0  0  0  0  0  0  0  0  0  0  0
    5.8749    0.4153    0.7615 C   0  0  0  0  0  0  0  0  0  0  0  0
   -3.7188   -2.7041    0.8493 C   0  0  0  0  0  0  0  0  0  0  0  0
   -3.5266   -2.1017   -1.4627 C   0  0  0  0  0  0  0  0  0  0  0  0
    5.8976    0.0772    1.9431 O   0  0  0  0  0  0  0  0  0  0  0  0
    6.6614    1.5483    0.3110 C   0  0  0  0  0  0  0  0  0  0  0  0
   -4.6360   -1.6599    1.0362 C   0  0  0  0  0  0  0  0  0  0  0  0
   -4.4445   -1.0616   -1.2625 C   0  0  0  0  0  0  0  0  0  0  0  0
    7.8517    1.9870    0.8525 C   0  0  0  0  0  0  0  0  0  0  0  0
    6.3916    2.5117   -0.6860 C   0  0  0  0  0  0  0  0  0  0  0  0
   -5.0252   -0.8084   -0.0103 C   0  0  0  0  0  0  0  0  0  0  0  0
    8.2468    3.1063    0.1558 N   0  0  0  0  0  0  0  0  0  0  0  0
    8.6900    1.5237    1.9230 C   0  0  0  0  0  0  0  0  0  0  0  0
    7.3538    3.4289   -0.8095 N   0  0  0  0  0  0  0  0  0  0  0  0
   -5.9345    0.2173    0.1839 N   0  0  0  0  0  0  0  0  0  0  0  0
    9.4322    3.7350    0.4934 C   0  0  0  0  0  0  0  0  0  0  0  0
    9.8087    2.1207    2.2317 N   0  0  0  0  0  0  0  0  0  0  0  0
   -6.1840    0.7871    1.5185 C   0  0  0  0  0  0  0  0  0  0  0  0
   -6.6294    0.8638   -0.9423 C   0  0  0  0  0  0  0  0  0  0  0  0
   10.1668    3.2362    1.4993 C   0  0  0  0  0  0  0  0  0  0  0  0
   -6.6349    2.2647    1.4248 C   0  0  0  0  0  0  0  0  0  0  0  0
   -7.9633    1.4878   -0.4702 C   0  0  0  0  0  0  0  0  0  0  0  0
   -7.8129    2.5267    0.5721 N   0  0  0  0  0  0  0  0  0  0  0  0
   -9.0380    2.6459    1.3574 C   0  0  0  0  0  0  0  0  0  0  0  0
  1  2  1  0
  1  3  1  0
  2  4  1  0
  2  5  2  0
  3  6  2  0
  3  7  1  0
  4  8  2  0
  4  9  1  0
  6 10  1  0
  7 11  1  0
  9 12  1  0
 10 13  1  0
 12 14  1  0
 13 15  1  0
 14 16  2  0
 14 17  1  0
 15 18  2  0
 15 19  1  0
 16 20  1  0
 17 21  2  0
 19 22  2  0
 19 23  1  0
 20 24  2  0
 22 25  1  0
 22 26  1  0
 23 27  2  0
 24 28  1  0
 25 29  1  0
 26 30  2  0
 28 31  1  0
 28 32  1  0
 29 33  2  0
 31 34  1  0
 32 35  1  0
 34 36  1  0
 36 37  1  0
  5  6  1  0
 11 13  1  0
 21 24  1  0
 25 27  1  0
 30 33  1  0
 35 36  1  0
M  END
>  <Molecule Name>  (1) 
CTX-1020440

>  <SMILES>  (1) 
CN1CCN(CC1)C1=CC=C(CNC(=O)C2=CC3=C(CCN(C3)C(=O)C3=C4C=NC=CN4N=C3)S2)C=C1

>  <Batch Name>  (1) 
CTX-1020440-1

>  <Batch Created Date>  (1) 
2021-10-21

>  <Batch ID>  (1) 
CTX-1020440-1

>  <External ID>  (1) 
610EDL021-E

>  <Stereochemistry>  (1) 
Achiral

>  <Amount 1>  (1) 
5.0

>  <Unit 1>  (1) 
mg

>  <CRO 1>  (1) 
Pharmaron

>  <CRO 1 Total Amount>  (1) 
6.9

>  <CRO 1 Unit>  (1) 
mg

>  <pIC50>  (1) 
5.216096

>  <SMILES_std>  (1) 
CN1CCN(c2ccc(CNC(=O)c3cc4c(s3)CCN(C(=O)c3cnn5ccncc35)C4)cc2)CC1

>  <embed_status>  (1) 
0

>  <mmff_status>  (1) 
0

$$$$
