CTX-1020743
     RDKit          3D

 39 44  0  0  0  0  0  0  0  0999 V2000
    0.2972   -2.5230   -0.1805 S   0  0  0  0  0  0  0  0  0  0  0  0
    0.4165   -1.2272    0.9385 C   0  0  0  0  0  0  0  0  0  0  0  0
    1.8061   -2.1578   -0.8610 C   0  0  0  0  0  0  0  0  0  0  0  0
   -0.6303   -0.9300    1.9098 C   0  0  0  0  0  0  0  0  0  0  0  0
    1.6086   -0.5405    0.7757 C   0  0  0  0  0  0  0  0  0  0  0  0
    2.4257   -1.0775   -0.2672 C   0  0  0  0  0  0  0  0  0  0  0  0
    2.4049   -2.9388   -1.9839 C   0  0  0  0  0  0  0  0  0  0  0  0
   -0.5529    0.0116    2.6965 O   0  0  0  0  0  0  0  0  0  0  0  0
   -1.7220   -1.7706    1.8902 N   0  0  0  0  0  0  0  0  0  0  0  0
    3.7738   -0.5621   -0.6911 C   0  0  0  0  0  0  0  0  0  0  0  0
    3.4482   -2.0584   -2.6850 C   0  0  0  0  0  0  0  0  0  0  0  0
   -2.9108   -1.5151    2.6659 C   0  0  0  0  0  0  0  0  0  0  0  0
    4.3679   -1.4212   -1.7281 N   0  0  0  0  0  0  0  0  0  0  0  0
   -3.9847   -0.9048    1.8058 C   0  0  0  0  0  0  0  0  0  0  0  0
    5.7468   -1.5504   -1.9397 C   0  0  0  0  0  0  0  0  0  0  0  0
   -3.9755    0.4624    1.5237 C   0  0  0  0  0  0  0  0  0  0  0  0
   -4.9833   -1.6936    1.2302 C   0  0  0  0  0  0  0  0  0  0  0  0
    6.1720   -2.4020   -2.7244 O   0  0  0  0  0  0  0  0  0  0  0  0
    6.6704   -0.6782   -1.2234 C   0  0  0  0  0  0  0  0  0  0  0  0
   -4.9609    1.0244    0.7030 C   0  0  0  0  0  0  0  0  0  0  0  0
   -5.9647   -1.1193    0.4086 C   0  0  0  0  0  0  0  0  0  0  0  0
    6.2689    0.5685   -0.8232 O   0  0  0  0  0  0  0  0  0  0  0  0
    8.0148   -0.8567   -0.9078 C   0  0  0  0  0  0  0  0  0  0  0  0
   -5.9928    0.2556    0.1378 C   0  0  0  0  0  0  0  0  0  0  0  0
    7.3288    1.1747   -0.2303 C   0  0  0  0  0  0  0  0  0  0  0  0
    8.4361    0.3406   -0.2521 C   0  0  0  0  0  0  0  0  0  0  0  0
    8.8383   -2.0576   -1.2028 C   0  0  0  0  0  0  0  0  0  0  0  0
   -6.9457    0.8656   -0.6819 N   0  0  0  0  0  0  0  0  0  0  0  0
    7.3168    2.4539    0.3231 C   0  0  0  0  0  0  0  0  0  0  0  0
    9.6317    0.8103    0.3209 C   0  0  0  0  0  0  0  0  0  0  0  0
   -7.8193    0.0566   -1.5550 C   0  0  0  0  0  0  0  0  0  0  0  0
   -7.6481    2.0381   -0.1094 C   0  0  0  0  0  0  0  0  0  0  0  0
    8.5182    2.9168    0.8823 C   0  0  0  0  0  0  0  0  0  0  0  0
    9.6542    2.0941    0.8882 C   0  0  0  0  0  0  0  0  0  0  0  0
   -9.1521   -0.3155   -0.8586 C   0  0  0  0  0  0  0  0  0  0  0  0
   -8.9711    1.6144    0.5775 C   0  0  0  0  0  0  0  0  0  0  0  0
    8.5691    4.2731    1.5259 C   0  0  0  0  0  0  0  0  0  0  0  0
   -9.8974    0.8166   -0.2610 N   0  0  0  0  0  0  0  0  0  0  0  0
  -10.5392    1.6384   -1.2845 C   0  0  0  0  0  0  0  0  0  0  0  0
  1  2  1  0
  1  3  1  0
  2  4  1  0
  2  5  2  0
  3  6  2  0
  3  7  1  0
  4  8  2  0
  4  9  1  0
  6 10  1  0
  7 11  1  0
  9 12  1  0
 10 13  1  0
 12 14  1  0
 13 15  1  0
 14 16  2  0
 14 17  1  0
 15 18  2  0
 15 19  1  0
 16 20  1  0
 17 21  2  0
 19 22  1  0
 19 23  2  0
 20 24  2  0
 22 25  1  0
 23 26  1  0
 23 27  1  0
 24 28  1  0
 25 29  2  0
 26 30  2  0
 28 31  1  0
 28 32  1  0
 29 33  1  0
 30 34  1  0
 31 35  1  0
 32 36  1  0
 33 37  1  0
 35 38  1  0
 38 39  1  0
  5  6  1  0
 11 13  1  0
 21 24  1  0
 25 26  1  0
 33 34  2  0
 36 38  1  0
M  END
>  <Molecule Name>  (1) 
CTX-1020743

>  <SMILES>  (1) 
CN1CCN(CC1)C1=CC=C(CNC(=O)C2=CC3=C(CCN(C3)C(=O)C3=C(C)C4=C(O3)C=C(C)C=C4)S2)C=C1

>  <Batch Name>  (1) 
CTX-1020743-1

>  <Batch Created Date>  (1) 
2021-12-16

>  <Batch ID>  (1) 
CTX-1020743-1

>  <External ID>  (1) 
P841-0358

>  <Stereochemistry>  (1) 
Achiral

>  <Amount 1>  (1) 
4.25

>  <Unit 1>  (1) 
mg

>  <CRO 1>  (1) 
Pharmaron

>  <CRO 1 Total Amount>  (1) 
22.1

>  <CRO 1 Unit>  (1) 
mg

>  <pIC50>  (1) 
5.847712

>  <SMILES_std>  (1) 
Cc1ccc2c(C)c(C(=O)N3CCc4sc(C(=O)NCc5ccc(N6CCN(C)CC6)cc5)cc4C3)oc2c1

>  <embed_status>  (1) 
0

>  <mmff_status>  (1) 
0

$$$$
