CTX-1020811
     RDKit          3D

 40 45  0  0  0  0  0  0  0  0999 V2000
    1.9225   -3.0514    3.7734 O   0  0  0  0  0  0  0  0  0  0  0  0
    1.0784   -2.5601    3.0330 C   0  0  0  0  0  0  0  0  0  0  0  0
    0.9349   -2.8757    1.7001 N   0  0  0  0  0  0  0  0  0  0  0  0
    0.1046   -1.5316    3.5261 C   0  0  0  0  0  0  0  0  0  0  0  0
    1.8769   -3.6976    0.9847 C   0  0  0  0  0  0  0  0  0  0  0  0
   -0.7582   -1.0263    2.5985 N   0  0  0  0  0  0  0  0  0  0  0  0
    0.1215   -1.1472    4.8580 C   0  0  0  0  0  0  0  0  0  0  0  0
    2.8325   -2.8487    0.1897 C   0  0  0  0  0  0  0  0  0  0  0  0
   -1.6449   -0.0898    3.0217 C   0  0  0  0  0  0  0  0  0  0  0  0
   -0.7935   -0.1866    5.2722 C   0  0  0  0  0  0  0  0  0  0  0  0
    2.6097   -2.5844   -1.1627 C   0  0  0  0  0  0  0  0  0  0  0  0
    3.9471   -2.2722    0.8016 C   0  0  0  0  0  0  0  0  0  0  0  0
   -1.6840    0.3650    4.3457 C   0  0  0  0  0  0  0  0  0  0  0  0
   -2.6050    0.4511    1.9770 C   0  0  0  0  0  0  0  0  0  0  0  0
    3.4966   -1.7739   -1.8860 C   0  0  0  0  0  0  0  0  0  0  0  0
    4.8266   -1.4649    0.0675 C   0  0  0  0  0  0  0  0  0  0  0  0
   -2.7005    1.3889    4.7718 C   0  0  0  0  0  0  0  0  0  0  0  0
   -3.5681    1.4399    2.4698 N   0  0  0  0  0  0  0  0  0  0  0  0
    4.6312   -1.1947   -1.2962 C   0  0  0  0  0  0  0  0  0  0  0  0
   -3.1295    2.2598    3.5943 C   0  0  0  0  0  0  0  0  0  0  0  0
   -4.7859    1.7384    1.8457 C   0  0  0  0  0  0  0  0  0  0  0  0
    5.5043   -0.3939   -2.0130 N   0  0  0  0  0  0  0  0  0  0  0  0
   -5.5848    2.5003    2.3954 O   0  0  0  0  0  0  0  0  0  0  0  0
   -5.1011    1.1346    0.5557 C   0  0  0  0  0  0  0  0  0  0  0  0
    5.1334    0.2029   -3.3061 C   0  0  0  0  0  0  0  0  0  0  0  0
    6.8941   -0.1867   -1.5718 C   0  0  0  0  0  0  0  0  0  0  0  0
   -4.0900    0.7894   -0.3015 O   0  0  0  0  0  0  0  0  0  0  0  0
   -6.3297    0.8865   -0.0531 C   0  0  0  0  0  0  0  0  0  0  0  0
    5.9783    1.4688   -3.5804 C   0  0  0  0  0  0  0  0  0  0  0  0
    7.8290    0.0973   -2.7722 C   0  0  0  0  0  0  0  0  0  0  0  0
   -4.6529    0.2973   -1.4336 C   0  0  0  0  0  0  0  0  0  0  0  0
   -6.0358    0.3312   -1.3379 C   0  0  0  0  0  0  0  0  0  0  0  0
   -7.6884    1.1422    0.5152 C   0  0  0  0  0  0  0  0  0  0  0  0
    7.4359    1.2242   -3.6444 N   0  0  0  0  0  0  0  0  0  0  0  0
   -3.9526   -0.1741   -2.5415 C   0  0  0  0  0  0  0  0  0  0  0  0
   -6.7906   -0.1372   -2.4300 C   0  0  0  0  0  0  0  0  0  0  0  0
   -8.2287    2.5118    0.1332 C   0  0  0  0  0  0  0  0  0  0  0  0
    8.1741    2.4425   -3.3235 C   0  0  0  0  0  0  0  0  0  0  0  0
   -4.7209   -0.6378   -3.6139 C   0  0  0  0  0  0  0  0  0  0  0  0
   -6.1167   -0.6202   -3.5611 C   0  0  0  0  0  0  0  0  0  0  0  0
  1  2  2  0
  2  3  1  0
  2  4  1  0
  3  5  1  0
  4  6  2  0
  4  7  1  0
  5  8  1  0
  6  9  1  0
  7 10  2  0
  8 11  2  0
  8 12  1  0
  9 13  2  0
  9 14  1  0
 11 15  1  0
 12 16  2  0
 13 17  1  0
 14 18  1  0
 15 19  2  0
 17 20  1  0
 18 21  1  0
 19 22  1  0
 21 23  2  0
 21 24  1  0
 22 25  1  0
 22 26  1  0
 24 27  1  0
 24 28  2  0
 25 29  1  0
 26 30  1  0
 27 31  1  0
 28 32  1  0
 28 33  1  0
 29 34  1  0
 31 35  2  0
 32 36  2  0
 33 37  1  0
 34 38  1  0
 35 39  1  0
 36 40  1  0
 10 13  1  0
 16 19  1  0
 18 20  1  0
 30 34  1  0
 31 32  1  0
 39 40  2  0
M  END
>  <Molecule Name>  (1) 
CTX-1020811

>  <SMILES>  (1) 
CCC1=C(OC2=C1C=CC=C2)C(=O)N1CCC2=C(C1)N=C(C=C2)C(=O)NCC1=CC=C(C=C1)N1CCN(C)CC1

>  <Batch Name>  (1) 
CTX-1020811-1

>  <Batch Created Date>  (1) 
2021-12-30

>  <Batch ID>  (1) 
CTX-1020811-1

>  <External ID>  (1) 
CD-42-R

>  <Stereochemistry>  (1) 
Achiral

>  <Amount 1>  (1) 
4.3

>  <Unit 1>  (1) 
mg

>  <CRO 1>  (1) 
Pharmaron

>  <CRO 1 Total Amount>  (1) 
19.3

>  <CRO 1 Unit>  (1) 
mg

>  <pIC50>  (1) 
4.906578

>  <SMILES_std>  (1) 
CCc1c(C(=O)N2CCc3ccc(C(=O)NCc4ccc(N5CCN(C)CC5)cc4)nc3C2)oc2ccccc12

>  <embed_status>  (1) 
0

>  <mmff_status>  (1) 
0

$$$$
