CTX-1020845
     RDKit          3D

 38 43  0  0  0  0  0  0  0  0999 V2000
   -5.8671    0.6019   -1.9361 Cl  0  0  0  0  0  0  0  0  0  0  0  0
   -7.2460    0.9941   -0.9872 C   0  0  0  0  0  0  0  0  0  0  0  0
   -7.2305    1.8028    0.1280 C   0  0  0  0  0  0  0  0  0  0  0  0
   -8.5593    0.4954   -1.2994 C   0  0  0  0  0  0  0  0  0  0  0  0
   -8.7918    2.0168    0.7773 S   0  0  0  0  0  0  0  0  0  0  0  0
   -6.1193    2.4949    0.7472 C   0  0  0  0  0  0  0  0  0  0  0  0
   -9.5079    0.9828   -0.3964 C   0  0  0  0  0  0  0  0  0  0  0  0
   -9.0116   -0.3565   -2.3221 C   0  0  0  0  0  0  0  0  0  0  0  0
   -6.0876    3.7236    0.8151 O   0  0  0  0  0  0  0  0  0  0  0  0
   -5.0698    1.7194    1.2578 N   0  0  0  0  0  0  0  0  0  0  0  0
  -10.8610    0.6370   -0.4969 C   0  0  0  0  0  0  0  0  0  0  0  0
  -10.3157   -0.7036   -2.4246 N   0  0  0  0  0  0  0  0  0  0  0  0
   -3.9563    2.4690    1.8536 C   0  0  0  0  0  0  0  0  0  0  0  0
   -5.2397    0.3215    1.7025 C   0  0  0  0  0  0  0  0  0  0  0  0
  -11.1956   -0.2110   -1.5344 C   0  0  0  0  0  0  0  0  0  0  0  0
   -2.7516    1.5913    2.0278 C   0  0  0  0  0  0  0  0  0  0  0  0
   -3.9941   -0.5328    1.4213 C   0  0  0  0  0  0  0  0  0  0  0  0
   -2.7790    0.2244    1.8429 C   0  0  0  0  0  0  0  0  0  0  0  0
   -1.4436    2.0208    2.4124 C   0  0  0  0  0  0  0  0  0  0  0  0
   -1.2785   -0.5180    2.1126 S   0  0  0  0  0  0  0  0  0  0  0  0
   -0.5343    0.9794    2.4986 C   0  0  0  0  0  0  0  0  0  0  0  0
    0.8748    1.0856    2.8609 C   0  0  0  0  0  0  0  0  0  0  0  0
    1.4046    2.1581    3.1439 O   0  0  0  0  0  0  0  0  0  0  0  0
    1.5839   -0.0962    2.8628 N   0  0  0  0  0  0  0  0  0  0  0  0
    3.0161   -0.1389    3.0298 C   0  0  0  0  0  0  0  0  0  0  0  0
    3.7006   -0.3102    1.7002 C   0  0  0  0  0  0  0  0  0  0  0  0
    4.1058   -1.5702    1.2541 C   0  0  0  0  0  0  0  0  0  0  0  0
    3.9015    0.7863    0.8599 C   0  0  0  0  0  0  0  0  0  0  0  0
    4.7198   -1.7230    0.0020 C   0  0  0  0  0  0  0  0  0  0  0  0
    4.5160    0.6214   -0.3874 C   0  0  0  0  0  0  0  0  0  0  0  0
    4.9591   -0.6317   -0.8441 C   0  0  0  0  0  0  0  0  0  0  0  0
    5.5580   -0.7419   -2.1015 N   0  0  0  0  0  0  0  0  0  0  0  0
    6.7053    0.1592   -2.3624 C   0  0  0  0  0  0  0  0  0  0  0  0
    5.7173   -2.0588   -2.7496 C   0  0  0  0  0  0  0  0  0  0  0  0
    8.0474   -0.5326   -2.0131 C   0  0  0  0  0  0  0  0  0  0  0  0
    7.0845   -2.7072   -2.4181 C   0  0  0  0  0  0  0  0  0  0  0  0
    8.2704   -1.8511   -2.6530 N   0  0  0  0  0  0  0  0  0  0  0  0
    8.5614   -1.7144   -4.0784 C   0  0  0  0  0  0  0  0  0  0  0  0
  1  2  1  0
  2  3  2  0
  2  4  1  0
  3  5  1  0
  3  6  1  0
  4  7  2  0
  4  8  1  0
  6  9  2  0
  6 10  1  0
  7 11  1  0
  8 12  2  0
 10 13  1  0
 10 14  1  0
 11 15  2  0
 13 16  1  0
 14 17  1  0
 16 18  2  0
 16 19  1  0
 18 20  1  0
 19 21  2  0
 21 22  1  0
 22 23  2  0
 22 24  1  0
 24 25  1  0
 25 26  1  0
 26 27  2  0
 26 28  1  0
 27 29  1  0
 28 30  2  0
 29 31  2  0
 31 32  1  0
 32 33  1  0
 32 34  1  0
 33 35  1  0
 34 36  1  0
 35 37  1  0
 37 38  1  0
  5  7  1  0
 12 15  1  0
 17 18  1  0
 20 21  1  0
 30 31  1  0
 36 37  1  0
M  END
>  <Molecule Name>  (1) 
CTX-1020845

>  <SMILES>  (1) 
CN1CCN(CC1)C1=CC=C(CNC(=O)C2=CC3=C(CCN(C3)C(=O)C3=C(Cl)C4=CN=CC=C4S3)S2)C=C1

>  <Batch Name>  (1) 
CTX-1020845-1

>  <Batch Created Date>  (1) 
2022-01-06

>  <Batch ID>  (1) 
CTX-1020845-1

>  <External ID>  (1) 
CD-44-2-L

>  <Stereochemistry>  (1) 
Achiral

>  <Amount 1>  (1) 
4.0

>  <Unit 1>  (1) 
mg

>  <CRO 1>  (1) 
Pharmaron

>  <CRO 1 Total Amount>  (1) 
18.8

>  <CRO 1 Unit>  (1) 
mg

>  <pIC50>  (1) 
4.068542

>  <SMILES_std>  (1) 
CN1CCN(c2ccc(CNC(=O)c3cc4c(s3)CCN(C(=O)c3sc5ccncc5c3Cl)C4)cc2)CC1

>  <embed_status>  (1) 
0

>  <mmff_status>  (1) 
0

$$$$
