CTX-1020745
     RDKit          3D

 39 44  0  0  0  0  0  0  0  0999 V2000
   -0.3461   -2.4649   -0.3351 S   0  0  0  0  0  0  0  0  0  0  0  0
   -0.2173   -1.4658    1.0543 C   0  0  0  0  0  0  0  0  0  0  0  0
   -1.7421   -1.6601   -0.8630 C   0  0  0  0  0  0  0  0  0  0  0  0
    0.8540   -1.6162    2.0328 C   0  0  0  0  0  0  0  0  0  0  0  0
   -1.2430   -0.5356    1.0921 C   0  0  0  0  0  0  0  0  0  0  0  0
   -2.1367   -0.6438   -0.0180 C   0  0  0  0  0  0  0  0  0  0  0  0
   -2.4800   -2.0432   -2.1030 C   0  0  0  0  0  0  0  0  0  0  0  0
    0.9604   -0.8815    3.0127 O   0  0  0  0  0  0  0  0  0  0  0  0
    1.7495   -2.6348    1.7890 N   0  0  0  0  0  0  0  0  0  0  0  0
   -3.3368    0.2179   -0.2784 C   0  0  0  0  0  0  0  0  0  0  0  0
   -3.4109   -0.8935   -2.5163 C   0  0  0  0  0  0  0  0  0  0  0  0
    2.9527   -2.8101    2.5650 C   0  0  0  0  0  0  0  0  0  0  0  0
   -4.1513   -0.3366   -1.3732 N   0  0  0  0  0  0  0  0  0  0  0  0
    4.1351   -2.2084    1.8539 C   0  0  0  0  0  0  0  0  0  0  0  0
   -5.4203    0.1922   -1.6401 C   0  0  0  0  0  0  0  0  0  0  0  0
    4.9547   -2.9865    1.0334 C   0  0  0  0  0  0  0  0  0  0  0  0
    4.4134   -0.8434    1.9713 C   0  0  0  0  0  0  0  0  0  0  0  0
   -5.8647    0.2497   -2.7855 O   0  0  0  0  0  0  0  0  0  0  0  0
   -6.1932    0.6810   -0.5108 C   0  0  0  0  0  0  0  0  0  0  0  0
    6.0363   -2.4065    0.3599 C   0  0  0  0  0  0  0  0  0  0  0  0
    5.4998   -0.2726    1.2948 C   0  0  0  0  0  0  0  0  0  0  0  0
   -6.8081    1.9187   -0.4800 N   0  0  0  0  0  0  0  0  0  0  0  0
   -6.5411    0.0233    0.6670 C   0  0  0  0  0  0  0  0  0  0  0  0
    6.3360   -1.0382    0.4724 C   0  0  0  0  0  0  0  0  0  0  0  0
   -7.4653    2.1094    0.7180 C   0  0  0  0  0  0  0  0  0  0  0  0
   -6.7490    2.8826   -1.5610 C   0  0  0  0  0  0  0  0  0  0  0  0
   -7.3094    0.9353    1.4564 C   0  0  0  0  0  0  0  0  0  0  0  0
   -6.1999   -1.3766    1.0513 C   0  0  0  0  0  0  0  0  0  0  0  0
    7.4304   -0.5138   -0.2257 N   0  0  0  0  0  0  0  0  0  0  0  0
   -8.1967    3.2030    1.2133 C   0  0  0  0  0  0  0  0  0  0  0  0
   -7.9018    0.8523    2.7348 C   0  0  0  0  0  0  0  0  0  0  0  0
    8.0342    0.7706    0.1863 C   0  0  0  0  0  0  0  0  0  0  0  0
    7.3453   -0.7099   -1.6952 C   0  0  0  0  0  0  0  0  0  0  0  0
   -8.7685    3.0973    2.4846 C   0  0  0  0  0  0  0  0  0  0  0  0
   -8.6239    1.9384    3.2382 C   0  0  0  0  0  0  0  0  0  0  0  0
    7.6293    1.9016   -0.7827 C   0  0  0  0  0  0  0  0  0  0  0  0
    8.2882    0.2480   -2.4617 C   0  0  0  0  0  0  0  0  0  0  0  0
    8.1027    1.6877   -2.1719 N   0  0  0  0  0  0  0  0  0  0  0  0
    7.1957    2.3217   -3.1247 C   0  0  0  0  0  0  0  0  0  0  0  0
  1  2  1  0
  1  3  1  0
  2  4  1  0
  2  5  2  0
  3  6  2  0
  3  7  1  0
  4  8  2  0
  4  9  1  0
  6 10  1  0
  7 11  1  0
  9 12  1  0
 10 13  1  0
 12 14  1  0
 13 15  1  0
 14 16  2  0
 14 17  1  0
 15 18  2  0
 15 19  1  0
 16 20  1  0
 17 21  2  0
 19 22  1  0
 19 23  2  0
 20 24  2  0
 22 25  1  0
 22 26  1  0
 23 27  1  0
 23 28  1  0
 24 29  1  0
 25 30  2  0
 27 31  2  0
 29 32  1  0
 29 33  1  0
 30 34  1  0
 31 35  1  0
 32 36  1  0
 33 37  1  0
 36 38  1  0
 38 39  1  0
  5  6  1  0
 11 13  1  0
 21 24  1  0
 25 27  1  0
 34 35  2  0
 37 38  1  0
M  END
>  <Molecule Name>  (1) 
CTX-1020745

>  <SMILES>  (1) 
CN1C2=C(C=CC=C2)C(C)=C1C(=O)N1CCC2=C(C1)C=C(S2)C(=O)NCC1=CC=C(C=C1)N1CCN(C)CC1

>  <Batch Name>  (1) 
CTX-1020745-1

>  <Batch Created Date>  (1) 
2021-12-16

>  <Batch ID>  (1) 
CTX-1020745-1

>  <External ID>  (1) 
P841-0360

>  <Stereochemistry>  (1) 
Achiral

>  <Amount 1>  (1) 
3.45

>  <Unit 1>  (1) 
mg

>  <CRO 1>  (1) 
Pharmaron

>  <CRO 1 Total Amount>  (1) 
31.75

>  <CRO 1 Unit>  (1) 
mg

>  <pIC50>  (1) 
4.517126

>  <SMILES_std>  (1) 
Cc1c(C(=O)N2CCc3sc(C(=O)NCc4ccc(N5CCN(C)CC5)cc4)cc3C2)n(C)c2ccccc12

>  <embed_status>  (1) 
0

>  <mmff_status>  (1) 
0

$$$$
