CTX-1020696
     RDKit          3D

 38 43  0  0  0  0  0  0  0  0999 V2000
    1.4064    1.2578   -4.4088 O   0  0  0  0  0  0  0  0  0  0  0  0
    0.6696    0.8647   -3.5117 C   0  0  0  0  0  0  0  0  0  0  0  0
    0.7293   -0.3921   -2.9517 N   0  0  0  0  0  0  0  0  0  0  0  0
   -0.3867    1.7489   -2.9190 C   0  0  0  0  0  0  0  0  0  0  0  0
    1.7786   -1.3327   -3.2496 C   0  0  0  0  0  0  0  0  0  0  0  0
   -1.1111    1.2164   -1.8933 N   0  0  0  0  0  0  0  0  0  0  0  0
   -0.5766    3.0282   -3.4185 C   0  0  0  0  0  0  0  0  0  0  0  0
    2.8357   -1.3147   -2.1766 C   0  0  0  0  0  0  0  0  0  0  0  0
   -2.0704    2.0008   -1.3390 C   0  0  0  0  0  0  0  0  0  0  0  0
   -1.5628    3.8165   -2.8373 C   0  0  0  0  0  0  0  0  0  0  0  0
    3.8402   -0.3393   -2.1915 C   0  0  0  0  0  0  0  0  0  0  0  0
    2.8110   -2.2415   -1.1281 C   0  0  0  0  0  0  0  0  0  0  0  0
   -2.3161    3.3090   -1.7741 C   0  0  0  0  0  0  0  0  0  0  0  0
   -2.8760    1.3849   -0.2088 C   0  0  0  0  0  0  0  0  0  0  0  0
    4.8117   -0.3024   -1.1883 C   0  0  0  0  0  0  0  0  0  0  0  0
    3.7837   -2.2044   -0.1249 C   0  0  0  0  0  0  0  0  0  0  0  0
   -3.4060    4.1312   -1.1424 C   0  0  0  0  0  0  0  0  0  0  0  0
   -3.9176    2.2472    0.3564 N   0  0  0  0  0  0  0  0  0  0  0  0
    4.7997   -1.2382   -0.1444 C   0  0  0  0  0  0  0  0  0  0  0  0
   -3.6690    3.6838    0.2926 C   0  0  0  0  0  0  0  0  0  0  0  0
   -5.0270    1.7826    1.0744 C   0  0  0  0  0  0  0  0  0  0  0  0
    5.8397   -1.2154    0.9600 C   0  0  0  0  0  0  0  0  0  0  0  0
   -5.9114    2.5729    1.4134 O   0  0  0  0  0  0  0  0  0  0  0  0
   -5.1344    0.3659    1.4053 C   0  0  0  0  0  0  0  0  0  0  0  0
    7.2765   -1.2855    0.4325 C   0  0  0  0  0  0  0  0  0  0  0  0
    5.6684    0.0023    1.8853 C   0  0  0  0  0  0  0  0  0  0  0  0
   -4.0076   -0.4024    1.5250 O   0  0  0  0  0  0  0  0  0  0  0  0
   -6.2541   -0.4014    1.7177 C   0  0  0  0  0  0  0  0  0  0  0  0
    8.2702   -1.3493    1.5925 C   0  0  0  0  0  0  0  0  0  0  0  0
    6.9836    0.4030    2.5468 C   0  0  0  0  0  0  0  0  0  0  0  0
   -4.3935   -1.6540    1.8798 C   0  0  0  0  0  0  0  0  0  0  0  0
   -5.7730   -1.7139    2.0134 C   0  0  0  0  0  0  0  0  0  0  0  0
   -7.6649    0.0642    1.7406 C   0  0  0  0  0  0  0  0  0  0  0  0
    7.7809   -0.7494    2.7940 O   0  0  0  0  0  0  0  0  0  0  0  0
   -3.5355   -2.7316    2.0874 C   0  0  0  0  0  0  0  0  0  0  0  0
   -6.3521   -2.9418    2.3862 C   0  0  0  0  0  0  0  0  0  0  0  0
   -4.1315   -3.9422    2.4538 C   0  0  0  0  0  0  0  0  0  0  0  0
   -5.5164   -4.0476    2.6015 C   0  0  0  0  0  0  0  0  0  0  0  0
  1  2  2  0
  2  3  1  0
  2  4  1  0
  3  5  1  0
  4  6  2  0
  4  7  1  0
  5  8  1  0
  6  9  1  0
  7 10  2  0
  8 11  2  0
  8 12  1  0
  9 13  2  0
  9 14  1  0
 11 15  1  0
 12 16  2  0
 13 17  1  0
 14 18  1  0
 15 19  2  0
 17 20  1  0
 18 21  1  0
 19 22  1  0
 21 23  2  0
 21 24  1  0
 22 25  1  0
 22 26  1  0
 24 27  1  0
 24 28  2  0
 25 29  1  0
 26 30  1  0
 27 31  1  0
 28 32  1  0
 28 33  1  0
 29 34  1  0
 31 35  2  0
 32 36  2  0
 35 37  1  0
 36 38  1  0
 10 13  1  0
 16 19  1  0
 18 20  1  0
 30 34  1  0
 31 32  1  0
 37 38  2  0
M  END
>  <Molecule Name>  (1) 
CTX-1020696

>  <SMILES>  (1) 
CC1=C(OC2=C1C=CC=C2)C(=O)N1CCC2=CC=C(N=C2C1)C(=O)NCC1=CC=C(C=C1)C1CCOCC1

>  <Batch Name>  (1) 
CTX-1020696-1

>  <Batch Created Date>  (1) 
2021-12-09

>  <Batch ID>  (1) 
CTX-1020696-1

>  <External ID>  (1) 
CD-42-B

>  <Stereochemistry>  (1) 
Achiral

>  <Amount 1>  (1) 
2.3

>  <Unit 1>  (1) 
mg

>  <CRO 1>  (1) 
Pharmaron

>  <CRO 1 Total Amount>  (1) 
20.5

>  <CRO 1 Unit>  (1) 
mg

>  <pIC50>  (1) 
5.879426

>  <SMILES_std>  (1) 
Cc1c(C(=O)N2CCc3ccc(C(=O)NCc4ccc(C5CCOCC5)cc4)nc3C2)oc2ccccc12

>  <embed_status>  (1) 
0

>  <mmff_status>  (1) 
0

$$$$
