CTX-1020742
     RDKit          3D

 38 43  0  0  0  0  0  0  0  0999 V2000
    7.7710    0.2710   -0.5416 S   0  0  0  0  0  0  0  0  0  0  0  0
    6.9848   -0.5767    0.7140 C   0  0  0  0  0  0  0  0  0  0  0  0
    9.1268    0.6384    0.4437 C   0  0  0  0  0  0  0  0  0  0  0  0
    7.7516   -0.6409    1.8671 C   0  0  0  0  0  0  0  0  0  0  0  0
    5.7071   -1.2239    0.4540 C   0  0  0  0  0  0  0  0  0  0  0  0
    8.9995    0.0816    1.7187 C   0  0  0  0  0  0  0  0  0  0  0  0
   10.2541    1.3806    0.0833 C   0  0  0  0  0  0  0  0  0  0  0  0
    7.3432   -1.3743    3.1074 C   0  0  0  0  0  0  0  0  0  0  0  0
    5.5608   -2.4347    0.6264 O   0  0  0  0  0  0  0  0  0  0  0  0
    4.6414   -0.4321    0.0096 N   0  0  0  0  0  0  0  0  0  0  0  0
   10.0611    0.2877    2.6259 C   0  0  0  0  0  0  0  0  0  0  0  0
   11.2540    1.5769    0.9721 N   0  0  0  0  0  0  0  0  0  0  0  0
    3.4089   -1.1476   -0.3342 C   0  0  0  0  0  0  0  0  0  0  0  0
    4.4934    0.9908    0.3747 C   0  0  0  0  0  0  0  0  0  0  0  0
   11.1452    1.0362    2.1983 C   0  0  0  0  0  0  0  0  0  0  0  0
    2.5001   -0.2752   -1.1521 C   0  0  0  0  0  0  0  0  0  0  0  0
    3.8887    1.8144   -0.7718 C   0  0  0  0  0  0  0  0  0  0  0  0
    2.7185    1.0748   -1.3341 C   0  0  0  0  0  0  0  0  0  0  0  0
    1.3112   -0.6924   -1.8327 C   0  0  0  0  0  0  0  0  0  0  0  0
    1.5395    1.8183   -2.2966 S   0  0  0  0  0  0  0  0  0  0  0  0
    0.6734    0.3454   -2.4962 C   0  0  0  0  0  0  0  0  0  0  0  0
   -0.5488    0.3524   -3.2958 C   0  0  0  0  0  0  0  0  0  0  0  0
   -0.9169    1.3043   -3.9815 O   0  0  0  0  0  0  0  0  0  0  0  0
   -1.2984   -0.8072   -3.2239 N   0  0  0  0  0  0  0  0  0  0  0  0
   -2.6084   -0.9018   -3.8269 C   0  0  0  0  0  0  0  0  0  0  0  0
   -3.6828   -0.7122   -2.7898 C   0  0  0  0  0  0  0  0  0  0  0  0
   -4.0446    0.5693   -2.3698 C   0  0  0  0  0  0  0  0  0  0  0  0
   -4.3127   -1.8062   -2.1942 C   0  0  0  0  0  0  0  0  0  0  0  0
   -5.0241    0.7471   -1.3833 C   0  0  0  0  0  0  0  0  0  0  0  0
   -5.2930   -1.6144   -1.2100 C   0  0  0  0  0  0  0  0  0  0  0  0
   -5.6781   -0.3360   -0.7759 C   0  0  0  0  0  0  0  0  0  0  0  0
   -6.6453   -0.1547    0.1977 N   0  0  0  0  0  0  0  0  0  0  0  0
   -7.6208   -1.2063    0.5307 C   0  0  0  0  0  0  0  0  0  0  0  0
   -6.7587    1.1045    0.9520 C   0  0  0  0  0  0  0  0  0  0  0  0
   -8.9270   -0.5857    1.0791 C   0  0  0  0  0  0  0  0  0  0  0  0
   -7.4220    0.8728    2.3309 C   0  0  0  0  0  0  0  0  0  0  0  0
   -8.7475    0.2191    2.3069 N   0  0  0  0  0  0  0  0  0  0  0  0
   -9.8328    1.1859    2.4483 C   0  0  0  0  0  0  0  0  0  0  0  0
  1  2  1  0
  1  3  1  0
  2  4  2  0
  2  5  1  0
  3  6  2  0
  3  7  1  0
  4  8  1  0
  5  9  2  0
  5 10  1  0
  6 11  1  0
  7 12  2  0
 10 13  1  0
 10 14  1  0
 11 15  2  0
 13 16  1  0
 14 17  1  0
 16 18  2  0
 16 19  1  0
 18 20  1  0
 19 21  2  0
 21 22  1  0
 22 23  2  0
 22 24  1  0
 24 25  1  0
 25 26  1  0
 26 27  2  0
 26 28  1  0
 27 29  1  0
 28 30  2  0
 29 31  2  0
 31 32  1  0
 32 33  1  0
 32 34  1  0
 33 35  1  0
 34 36  1  0
 35 37  1  0
 37 38  1  0
  4  6  1  0
 12 15  1  0
 17 18  1  0
 20 21  1  0
 30 31  1  0
 36 37  1  0
M  END
>  <Molecule Name>  (1) 
CTX-1020742

>  <SMILES>  (1) 
CN1CCN(CC1)C1=CC=C(CNC(=O)C2=CC3=C(CCN(C3)C(=O)C3=C(C)C4=C(S3)C=NC=C4)S2)C=C1

>  <Batch Name>  (1) 
CTX-1020742-1

>  <Batch Created Date>  (1) 
2021-12-16

>  <Batch ID>  (1) 
CTX-1020742-1

>  <External ID>  (1) 
P841-0357

>  <Stereochemistry>  (1) 
Achiral

>  <Amount 1>  (1) 
5.1

>  <Unit 1>  (1) 
mg

>  <CRO 1>  (1) 
Pharmaron

>  <CRO 1 Total Amount>  (1) 
39.3

>  <CRO 1 Unit>  (1) 
mg

>  <pIC50>  (1) 
4.954677

>  <SMILES_std>  (1) 
Cc1c(C(=O)N2CCc3sc(C(=O)NCc4ccc(N5CCN(C)CC5)cc4)cc3C2)sc2cnccc12

>  <embed_status>  (1) 
0

>  <mmff_status>  (1) 
0

$$$$
