CTX-1020903
     RDKit          3D

 39 44  0  0  0  0  0  0  0  0999 V2000
   -2.8997   -4.0073   -4.2871 O   0  0  0  0  0  0  0  0  0  0  0  0
   -3.0781   -3.0667   -3.5091 C   0  0  0  0  0  0  0  0  0  0  0  0
   -3.0224   -3.2818   -2.1280 N   0  0  0  0  0  0  0  0  0  0  0  0
   -3.3459   -1.7266   -4.0174 C   0  0  0  0  0  0  0  0  0  0  0  0
   -3.0201   -2.1933   -1.1227 C   0  0  0  0  0  0  0  0  0  0  0  0
   -3.0856   -4.6708   -1.6258 C   0  0  0  0  0  0  0  0  0  0  0  0
   -4.0806   -0.8438   -3.2716 O   0  0  0  0  0  0  0  0  0  0  0  0
   -3.0379   -1.1525   -5.2480 C   0  0  0  0  0  0  0  0  0  0  0  0
   -2.2833   -2.6312    0.1026 C   0  0  0  0  0  0  0  0  0  0  0  0
   -1.9315   -5.0151   -0.6582 C   0  0  0  0  0  0  0  0  0  0  0  0
   -4.2173    0.2961   -3.9955 C   0  0  0  0  0  0  0  0  0  0  0  0
   -3.5928    0.1639   -5.2274 C   0  0  0  0  0  0  0  0  0  0  0  0
   -2.2853   -1.7937   -6.3568 C   0  0  0  0  0  0  0  0  0  0  0  0
   -2.0035   -1.8272    1.1750 N   0  0  0  0  0  0  0  0  0  0  0  0
   -1.7935   -3.9004    0.3101 C   0  0  0  0  0  0  0  0  0  0  0  0
   -4.8906    1.4404   -3.5740 C   0  0  0  0  0  0  0  0  0  0  0  0
   -3.6416    1.2533   -6.1179 C   0  0  0  0  0  0  0  0  0  0  0  0
   -1.3321   -2.5935    2.0318 C   0  0  0  0  0  0  0  0  0  0  0  0
   -1.1745   -3.8698    1.5259 N   0  0  0  0  0  0  0  0  0  0  0  0
   -4.9241    2.5115   -4.4721 C   0  0  0  0  0  0  0  0  0  0  0  0
   -4.3108    2.4214   -5.7238 C   0  0  0  0  0  0  0  0  0  0  0  0
   -0.8432   -2.1005    3.3132 C   0  0  0  0  0  0  0  0  0  0  0  0
   -0.4699   -4.9494    2.1738 C   0  0  0  0  0  0  0  0  0  0  0  0
   -0.2173   -2.7798    4.1230 O   0  0  0  0  0  0  0  0  0  0  0  0
   -1.1531   -0.7767    3.5250 N   0  0  0  0  0  0  0  0  0  0  0  0
   -0.6225   -0.0133    4.6230 C   0  0  0  0  0  0  0  0  0  0  0  0
    0.6088    0.7456    4.2060 C   0  0  0  0  0  0  0  0  0  0  0  0
    1.8689    0.1469    4.2724 C   0  0  0  0  0  0  0  0  0  0  0  0
    0.5173    2.0494    3.7119 C   0  0  0  0  0  0  0  0  0  0  0  0
    3.0099    0.8462    3.8617 C   0  0  0  0  0  0  0  0  0  0  0  0
    1.6663    2.7423    3.3045 C   0  0  0  0  0  0  0  0  0  0  0  0
    2.9386    2.1548    3.3557 C   0  0  0  0  0  0  0  0  0  0  0  0
    4.1145    2.8152    2.9631 N   0  0  0  0  0  0  0  0  0  0  0  0
    4.0581    4.2770    2.7607 C   0  0  0  0  0  0  0  0  0  0  0  0
    4.8818    2.1100    1.9087 C   0  0  0  0  0  0  0  0  0  0  0  0
    5.4755    4.8620    2.5499 C   0  0  0  0  0  0  0  0  0  0  0  0
    6.2729    2.7603    1.7048 C   0  0  0  0  0  0  0  0  0  0  0  0
    6.2735    4.2229    1.4799 N   0  0  0  0  0  0  0  0  0  0  0  0
    5.7693    4.5630    0.1519 C   0  0  0  0  0  0  0  0  0  0  0  0
  1  2  2  0
  2  3  1  0
  2  4  1  0
  3  5  1  0
  3  6  1  0
  4  7  1  0
  4  8  2  0
  5  9  1  0
  6 10  1  0
  7 11  1  0
  8 12  1  0
  8 13  1  0
  9 14  1  0
  9 15  2  0
 11 16  2  0
 12 17  2  0
 14 18  2  0
 15 19  1  0
 16 20  1  0
 17 21  1  0
 18 22  1  0
 19 23  1  0
 22 24  2  0
 22 25  1  0
 25 26  1  0
 26 27  1  0
 27 28  2  0
 27 29  1  0
 28 30  1  0
 29 31  2  0
 30 32  2  0
 32 33  1  0
 33 34  1  0
 33 35  1  0
 34 36  1  0
 35 37  1  0
 36 38  1  0
 38 39  1  0
 10 15  1  0
 11 12  1  0
 18 19  1  0
 20 21  2  0
 31 32  1  0
 37 38  1  0
M  END
>  <Molecule Name>  (1) 
CTX-1020903

>  <SMILES>  (1) 
CN1C2=C(CN(CC2)C(=O)C2=C(C)C3=CC=CC=C3O2)N=C1C(=O)NCC1=CC=C(C=C1)N1CCN(C)CC1

>  <Batch Name>  (1) 
CTX-1020903-1

>  <Batch Created Date>  (1) 
2022-01-20

>  <Batch ID>  (1) 
CTX-1020903-1

>  <External ID>  (1) 
P841-0275

>  <Stereochemistry>  (1) 
Achiral

>  <Amount 1>  (1) 
9.1

>  <Unit 1>  (1) 
mg

>  <CRO 1>  (1) 
Pharmaron

>  <CRO 1 Total Amount>  (1) 
16.5

>  <CRO 1 Unit>  (1) 
mg

>  <pIC50>  (1) 
6.560667

>  <SMILES_std>  (1) 
Cc1c(C(=O)N2CCc3c(nc(C(=O)NCc4ccc(N5CCN(C)CC5)cc4)n3C)C2)oc2ccccc12

>  <embed_status>  (1) 
0

>  <mmff_status>  (1) 
0

$$$$
