CTX-1020882
     RDKit          3D

 39 44  0  0  0  0  0  0  0  0999 V2000
   -0.1761   -2.8110   -2.2783 S   0  0  0  0  0  0  0  0  0  0  0  0
    0.5481   -1.3990   -2.9400 C   0  0  0  0  0  0  0  0  0  0  0  0
   -1.6785   -2.0453   -2.1145 C   0  0  0  0  0  0  0  0  0  0  0  0
    1.9596   -1.4385   -3.3093 C   0  0  0  0  0  0  0  0  0  0  0  0
   -0.3767   -0.3703   -3.0383 C   0  0  0  0  0  0  0  0  0  0  0  0
   -1.6736   -0.7372   -2.5554 C   0  0  0  0  0  0  0  0  0  0  0  0
   -2.8760   -2.7265   -1.5331 C   0  0  0  0  0  0  0  0  0  0  0  0
    2.6136   -2.4736   -3.4204 O   0  0  0  0  0  0  0  0  0  0  0  0
    2.5365   -0.1998   -3.5213 N   0  0  0  0  0  0  0  0  0  0  0  0
   -2.8953    0.1375   -2.5304 C   0  0  0  0  0  0  0  0  0  0  0  0
   -4.1345   -1.9435   -1.9339 C   0  0  0  0  0  0  0  0  0  0  0  0
    3.9587   -0.0540   -3.7324 C   0  0  0  0  0  0  0  0  0  0  0  0
   -3.9552   -0.4915   -1.7382 N   0  0  0  0  0  0  0  0  0  0  0  0
    4.6455    0.3540   -2.4563 C   0  0  0  0  0  0  0  0  0  0  0  0
   -4.9877    0.3494   -1.3059 C   0  0  0  0  0  0  0  0  0  0  0  0
    4.9571    1.6901   -2.1999 C   0  0  0  0  0  0  0  0  0  0  0  0
    4.9598   -0.5988   -1.4840 C   0  0  0  0  0  0  0  0  0  0  0  0
   -5.0486    1.5145   -1.7040 O   0  0  0  0  0  0  0  0  0  0  0  0
   -5.9597   -0.1789   -0.3608 C   0  0  0  0  0  0  0  0  0  0  0  0
    5.5736    2.0547   -0.9960 C   0  0  0  0  0  0  0  0  0  0  0  0
    5.5781   -0.2220   -0.2835 C   0  0  0  0  0  0  0  0  0  0  0  0
   -5.5813   -1.1613    0.5179 O   0  0  0  0  0  0  0  0  0  0  0  0
   -7.2739    0.2017   -0.1046 C   0  0  0  0  0  0  0  0  0  0  0  0
    5.8872    1.1146    0.0012 C   0  0  0  0  0  0  0  0  0  0  0  0
   -6.6520   -1.4306    1.3095 C   0  0  0  0  0  0  0  0  0  0  0  0
   -7.7284   -0.6243    0.9685 C   0  0  0  0  0  0  0  0  0  0  0  0
   -8.0386    1.2615   -0.8110 C   0  0  0  0  0  0  0  0  0  0  0  0
    6.5136    1.5327    1.1780 N   0  0  0  0  0  0  0  0  0  0  0  0
   -6.6882   -2.3790    2.3306 C   0  0  0  0  0  0  0  0  0  0  0  0
   -8.9256   -0.7744    1.6966 C   0  0  0  0  0  0  0  0  0  0  0  0
    7.1658    0.5526    2.0703 C   0  0  0  0  0  0  0  0  0  0  0  0
    5.8460    2.6232    1.9261 C   0  0  0  0  0  0  0  0  0  0  0  0
   -5.6073   -3.1547    2.6565 O   0  0  0  0  0  0  0  0  0  0  0  0
   -7.8772   -2.5238    3.0377 C   0  0  0  0  0  0  0  0  0  0  0  0
   -8.9839   -1.7304    2.7252 C   0  0  0  0  0  0  0  0  0  0  0  0
    6.2044    0.0374    3.1705 C   0  0  0  0  0  0  0  0  0  0  0  0
    4.8953    2.0565    3.0105 C   0  0  0  0  0  0  0  0  0  0  0  0
    5.5065    1.0867    3.9495 N   0  0  0  0  0  0  0  0  0  0  0  0
    6.4066    1.7442    4.8939 C   0  0  0  0  0  0  0  0  0  0  0  0
  1  2  1  0
  1  3  1  0
  2  4  1  0
  2  5  2  0
  3  6  2  0
  3  7  1  0
  4  8  2  0
  4  9  1  0
  6 10  1  0
  7 11  1  0
  9 12  1  0
 10 13  1  0
 12 14  1  0
 13 15  1  0
 14 16  2  0
 14 17  1  0
 15 18  2  0
 15 19  1  0
 16 20  1  0
 17 21  2  0
 19 22  1  0
 19 23  2  0
 20 24  2  0
 22 25  1  0
 23 26  1  0
 23 27  1  0
 24 28  1  0
 25 29  2  0
 26 30  2  0
 28 31  1  0
 28 32  1  0
 29 33  1  0
 29 34  1  0
 30 35  1  0
 31 36  1  0
 32 37  1  0
 36 38  1  0
 38 39  1  0
  5  6  1  0
 11 13  1  0
 21 24  1  0
 25 26  1  0
 34 35  2  0
 37 38  1  0
M  END
>  <Molecule Name>  (1) 
CTX-1020882

>  <SMILES>  (1) 
CN1CCN(CC1)C1=CC=C(CNC(=O)C2=CC3=C(CCN(C3)C(=O)C3=C(C)C4=CC=CC(O)=C4O3)S2)C=C1

>  <Batch Name>  (1) 
CTX-1020882-1

>  <Batch Created Date>  (1) 
2022-01-13

>  <Batch ID>  (1) 
CTX-1020882-1

>  <External ID>  (1) 
CD-44-2-D

>  <Stereochemistry>  (1) 
Achiral

>  <Amount 1>  (1) 
7.2

>  <Unit 1>  (1) 
mg

>  <CRO 1>  (1) 
Pharmaron

>  <CRO 1 Total Amount>  (1) 
35.5

>  <CRO 1 Unit>  (1) 
mg

>  <pIC50>  (1) 
5.326058

>  <SMILES_std>  (1) 
Cc1c(C(=O)N2CCc3sc(C(=O)NCc4ccc(N5CCN(C)CC5)cc4)cc3C2)oc2c(O)cccc12

>  <embed_status>  (1) 
0

>  <mmff_status>  (1) 
0

$$$$
