CTX-1020817
     RDKit          3D

 38 43  0  0  0  0  0  0  0  0999 V2000
    8.0625   -2.9925    1.1370 Cl  0  0  0  0  0  0  0  0  0  0  0  0
    8.1159   -1.3787    1.7230 C   0  0  0  0  0  0  0  0  0  0  0  0
    7.0259   -0.5452    1.8174 C   0  0  0  0  0  0  0  0  0  0  0  0
    9.3392   -0.7483    2.1448 C   0  0  0  0  0  0  0  0  0  0  0  0
    7.4404    0.9818    2.4516 S   0  0  0  0  0  0  0  0  0  0  0  0
    5.6415   -0.8410    1.5251 C   0  0  0  0  0  0  0  0  0  0  0  0
    9.1056    0.5637    2.5700 C   0  0  0  0  0  0  0  0  0  0  0  0
   10.6676   -1.2246    2.1951 C   0  0  0  0  0  0  0  0  0  0  0  0
    4.9821   -1.5822    2.2528 O   0  0  0  0  0  0  0  0  0  0  0  0
    5.0736   -0.2470    0.3916 N   0  0  0  0  0  0  0  0  0  0  0  0
   10.1475    1.3741    3.0257 C   0  0  0  0  0  0  0  0  0  0  0  0
   11.6472   -0.3621    2.6558 C   0  0  0  0  0  0  0  0  0  0  0  0
    3.6715   -0.5858    0.1225 C   0  0  0  0  0  0  0  0  0  0  0  0
    5.8643    0.2622   -0.7472 C   0  0  0  0  0  0  0  0  0  0  0  0
   11.4130    0.8995    3.0587 N   0  0  0  0  0  0  0  0  0  0  0  0
    3.0546    0.4013   -0.8260 C   0  0  0  0  0  0  0  0  0  0  0  0
    5.2594    1.5431   -1.3405 C   0  0  0  0  0  0  0  0  0  0  0  0
    3.7869    1.3565   -1.4994 C   0  0  0  0  0  0  0  0  0  0  0  0
    1.6690    0.4844   -1.1781 C   0  0  0  0  0  0  0  0  0  0  0  0
    2.8444    2.3234   -2.5228 S   0  0  0  0  0  0  0  0  0  0  0  0
    1.4017    1.4953   -2.0891 C   0  0  0  0  0  0  0  0  0  0  0  0
    0.1414    1.9118   -2.6942 C   0  0  0  0  0  0  0  0  0  0  0  0
    0.0511    2.6675   -3.6600 O   0  0  0  0  0  0  0  0  0  0  0  0
   -0.9903    1.4022   -2.0892 N   0  0  0  0  0  0  0  0  0  0  0  0
   -2.3032    1.8178   -2.5193 C   0  0  0  0  0  0  0  0  0  0  0  0
   -3.3659    1.0388   -1.7952 C   0  0  0  0  0  0  0  0  0  0  0  0
   -3.7237   -0.2417   -2.2227 C   0  0  0  0  0  0  0  0  0  0  0  0
   -3.9779    1.5538   -0.6495 C   0  0  0  0  0  0  0  0  0  0  0  0
   -4.6869   -0.9783   -1.5237 C   0  0  0  0  0  0  0  0  0  0  0  0
   -4.9405    0.8072    0.0443 C   0  0  0  0  0  0  0  0  0  0  0  0
   -5.3221   -0.4736   -0.3764 C   0  0  0  0  0  0  0  0  0  0  0  0
   -6.2767   -1.2550    0.2838 N   0  0  0  0  0  0  0  0  0  0  0  0
   -6.6630   -0.9581    1.6786 C   0  0  0  0  0  0  0  0  0  0  0  0
   -7.4015   -1.6870   -0.5859 C   0  0  0  0  0  0  0  0  0  0  0  0
   -8.0480   -0.2791    1.7280 C   0  0  0  0  0  0  0  0  0  0  0  0
   -8.6347   -2.1293    0.2377 C   0  0  0  0  0  0  0  0  0  0  0  0
   -9.1429   -1.1324    1.2066 N   0  0  0  0  0  0  0  0  0  0  0  0
  -10.2047   -0.3098    0.6332 C   0  0  0  0  0  0  0  0  0  0  0  0
  1  2  1  0
  2  3  2  0
  2  4  1  0
  3  5  1  0
  3  6  1  0
  4  7  2  0
  4  8  1  0
  6  9  2  0
  6 10  1  0
  7 11  1  0
  8 12  2  0
 10 13  1  0
 10 14  1  0
 11 15  2  0
 13 16  1  0
 14 17  1  0
 16 18  2  0
 16 19  1  0
 18 20  1  0
 19 21  2  0
 21 22  1  0
 22 23  2  0
 22 24  1  0
 24 25  1  0
 25 26  1  0
 26 27  2  0
 26 28  1  0
 27 29  1  0
 28 30  2  0
 29 31  2  0
 31 32  1  0
 32 33  1  0
 32 34  1  0
 33 35  1  0
 34 36  1  0
 35 37  1  0
 37 38  1  0
  5  7  1  0
 12 15  1  0
 17 18  1  0
 20 21  1  0
 30 31  1  0
 36 37  1  0
M  END
>  <Molecule Name>  (1) 
CTX-1020817

>  <SMILES>  (1) 
CN1CCN(CC1)C1=CC=C(CNC(=O)C2=CC3=C(CCN(C3)C(=O)C3=C(Cl)C4=CC=NC=C4S3)S2)C=C1

>  <Batch Name>  (1) 
CTX-1020817-1

>  <Batch Created Date>  (1) 
2021-12-30

>  <Batch ID>  (1) 
CTX-1020817-1

>  <External ID>  (1) 
CD-44-2-J

>  <Stereochemistry>  (1) 
Achiral

>  <Amount 1>  (1) 
9.1

>  <Unit 1>  (1) 
mg

>  <CRO 1>  (1) 
Pharmaron

>  <CRO 1 Total Amount>  (1) 
34.5

>  <CRO 1 Unit>  (1) 
mg

>  <pIC50>  (1) 
5.07263

>  <SMILES_std>  (1) 
CN1CCN(c2ccc(CNC(=O)c3cc4c(s3)CCN(C(=O)c3sc5cnccc5c3Cl)C4)cc2)CC1

>  <embed_status>  (1) 
0

>  <mmff_status>  (1) 
0

$$$$
