CTX-1020699
     RDKit          3D

  0  0  0  0  0  0  0  0  0  0999 V3000
M  V30 BEGIN CTAB
M  V30 COUNTS 35 40 0 0 0
M  V30 BEGIN ATOM
M  V30 1 O -3.331588 0.348557 3.970715 0
M  V30 2 C -2.820485 0.244012 2.861897 0
M  V30 3 N -3.503150 -0.135012 1.728493 0
M  V30 4 C -1.367874 0.536601 2.634410 0
M  V30 5 C -4.938058 -0.349472 1.700863 0 CFG=2
M  V30 6 N -0.927132 0.430951 1.348467 0
M  V30 7 C -0.560128 0.893224 3.703412 0
M  V30 8 C -5.327085 -1.280569 0.561783 0
M  V30 9 C -5.654830 1.009047 1.637188 0
M  V30 10 C 0.386250 0.685476 1.120479 0
M  V30 11 C 0.780088 1.160092 3.449472 0
M  V30 12 C -6.457228 -1.029429 -0.241807 0
M  V30 13 C -4.589570 -2.459162 0.341388 0
M  V30 14 C -7.133819 0.832083 1.327049 0
M  V30 15 C 1.267561 1.070607 2.141622 0
M  V30 16 C 0.861405 0.567225 -0.316047 0
M  V30 17 C -6.785941 -1.920664 -1.276205 0
M  V30 18 C -7.306501 0.202795 -0.051223 0
M  V30 19 C -4.933640 -3.342841 -0.681422 0
M  V30 20 C 2.724613 1.324854 1.850947 0
M  V30 21 N 2.309669 0.667653 -0.474838 0
M  V30 22 C -6.028297 -3.070108 -1.494168 0
M  V30 23 C 2.953109 1.663223 0.379979 0
M  V30 24 C 2.846334 0.227049 -1.689488 0
M  V30 25 O 2.099088 -0.100723 -2.613453 0
M  V30 26 C 4.293247 0.141318 -1.822064 0
M  V30 27 O 5.064826 -0.062911 -0.708415 0
M  V30 28 C 5.099934 0.147753 -2.955897 0
M  V30 29 C 6.356828 -0.155709 -1.114711 0
M  V30 30 C 6.440194 -0.030967 -2.494402 0
M  V30 31 C 4.644553 0.301475 -4.361479 0
M  V30 32 C 7.451391 -0.352489 -0.275725 0
M  V30 33 C 7.711772 -0.110489 -3.093566 0
M  V30 34 C 8.704870 -0.424829 -0.891022 0
M  V30 35 C 8.835047 -0.306126 -2.276602 0
M  V30 END ATOM
M  V30 BEGIN BOND
M  V30 1 2 1 2
M  V30 2 1 2 3
M  V30 3 1 2 4
M  V30 4 1 5 3 CFG=3
M  V30 5 2 4 6
M  V30 6 1 4 7
M  V30 7 1 5 8
M  V30 8 1 5 9
M  V30 9 1 6 10
M  V30 10 2 7 11
M  V30 11 2 8 12
M  V30 12 1 8 13
M  V30 13 1 9 14
M  V30 14 2 10 15
M  V30 15 1 10 16
M  V30 16 1 12 17
M  V30 17 1 12 18
M  V30 18 2 13 19
M  V30 19 1 15 20
M  V30 20 1 16 21
M  V30 21 2 17 22
M  V30 22 1 20 23
M  V30 23 1 21 24
M  V30 24 2 24 25
M  V30 25 1 24 26
M  V30 26 1 26 27
M  V30 27 2 26 28
M  V30 28 1 27 29
M  V30 29 1 28 30
M  V30 30 1 28 31
M  V30 31 2 29 32
M  V30 32 2 30 33
M  V30 33 1 32 34
M  V30 34 1 33 35
M  V30 35 1 11 15
M  V30 36 1 14 18
M  V30 37 1 19 22
M  V30 38 1 21 23
M  V30 39 1 29 30
M  V30 40 2 34 35
M  V30 END BOND
M  V30 BEGIN COLLECTION
M  V30 MDLV30/STERAC1 ATOMS=(1 5)
M  V30 END COLLECTION
M  V30 END CTAB
M  END
>  <Molecule Name>  (1) 
CTX-1020699

>  <SMILES>  (1) 
CC1=C(OC2=C1C=CC=C2)C(=O)N1CCC2=CC=C(N=C2C1)C(=O)NC1CCCC2=C1C=CC=C2

>  <Batch Name>  (1) 
CTX-1020699-1

>  <Batch Created Date>  (1) 
2021-12-09

>  <Batch ID>  (1) 
CTX-1020699-1

>  <External ID>  (1) 
CD-42-G

>  <Stereochemistry>  (1) 
Racemic or presumed racemic

>  <Amount 1>  (1) 
2.3

>  <Unit 1>  (1) 
mg

>  <CRO 1>  (1) 
Pharmaron

>  <CRO 1 Total Amount>  (1) 
15.7

>  <CRO 1 Unit>  (1) 
mg

>  <pIC50>  (1) 
4.721246

>  <SMILES_std>  (1) 
Cc1c(C(=O)N2CCc3ccc(C(=O)N[C@H]4CCCc5ccccc54)nc3C2)oc2ccccc12

>  <embed_status>  (1) 
0

>  <mmff_status>  (1) 
0

$$$$
