CTX-1020456
     RDKit          3D

 39 44  0  0  0  0  0  0  0  0999 V2000
    4.7862    1.6027   -3.3042 Cl  0  0  0  0  0  0  0  0  0  0  0  0
    6.1768    1.3138   -2.3377 C   0  0  0  0  0  0  0  0  0  0  0  0
    6.1549    1.1324   -0.9746 C   0  0  0  0  0  0  0  0  0  0  0  0
    7.5023    1.2176   -2.8911 C   0  0  0  0  0  0  0  0  0  0  0  0
    7.7110    0.8816   -0.3333 S   0  0  0  0  0  0  0  0  0  0  0  0
    5.0253    1.1741   -0.0762 C   0  0  0  0  0  0  0  0  0  0  0  0
    8.4473    0.9775   -1.8874 C   0  0  0  0  0  0  0  0  0  0  0  0
    7.9720    1.3247   -4.2266 C   0  0  0  0  0  0  0  0  0  0  0  0
    4.7014    2.2146    0.4945 O   0  0  0  0  0  0  0  0  0  0  0  0
    4.3139   -0.0145    0.1253 N   0  0  0  0  0  0  0  0  0  0  0  0
    9.8195    0.8434   -2.1782 C   0  0  0  0  0  0  0  0  0  0  0  0
    9.3327    1.1913   -4.5190 C   0  0  0  0  0  0  0  0  0  0  0  0
    3.0741    0.0952    0.8943 C   0  0  0  0  0  0  0  0  0  0  0  0
    4.4695   -1.2217   -0.6856 C   0  0  0  0  0  0  0  0  0  0  0  0
   10.2458    0.9528   -3.5030 C   0  0  0  0  0  0  0  0  0  0  0  0
    2.4719   -1.2193    1.3478 C   0  0  0  0  0  0  0  0  0  0  0  0
    4.3075   -2.4804    0.1645 C   0  0  0  0  0  0  0  0  0  0  0  0
    1.3469   -1.1403    2.1027 N   0  0  0  0  0  0  0  0  0  0  0  0
    3.0463   -2.4422    0.9815 C   0  0  0  0  0  0  0  0  0  0  0  0
    0.7901   -2.3138    2.5185 C   0  0  0  0  0  0  0  0  0  0  0  0
    2.4559   -3.6252    1.4374 C   0  0  0  0  0  0  0  0  0  0  0  0
   -0.4553   -2.1997    3.3459 C   0  0  0  0  0  0  0  0  0  0  0  0
    1.3053   -3.5643    2.2148 C   0  0  0  0  0  0  0  0  0  0  0  0
   -1.0542   -3.1927    3.7429 O   0  0  0  0  0  0  0  0  0  0  0  0
   -0.8484   -0.9033    3.5938 N   0  0  0  0  0  0  0  0  0  0  0  0
   -2.1121   -0.5720    4.2003 C   0  0  0  0  0  0  0  0  0  0  0  0
   -3.1282   -0.2024    3.1532 C   0  0  0  0  0  0  0  0  0  0  0  0
   -3.3493    1.1299    2.8009 C   0  0  0  0  0  0  0  0  0  0  0  0
   -3.8463   -1.1926    2.4799 C   0  0  0  0  0  0  0  0  0  0  0  0
   -4.2821    1.4583    1.8069 C   0  0  0  0  0  0  0  0  0  0  0  0
   -4.7769   -0.8514    1.4888 C   0  0  0  0  0  0  0  0  0  0  0  0
   -5.0222    0.4809    1.1220 C   0  0  0  0  0  0  0  0  0  0  0  0
   -5.9444    0.8165    0.1450 N   0  0  0  0  0  0  0  0  0  0  0  0
   -6.9750   -0.1312   -0.3100 C   0  0  0  0  0  0  0  0  0  0  0  0
   -5.8716    2.0987   -0.5750 C   0  0  0  0  0  0  0  0  0  0  0  0
   -8.1848    0.6285   -0.9024 C   0  0  0  0  0  0  0  0  0  0  0  0
   -6.4723    1.9811   -1.9965 C   0  0  0  0  0  0  0  0  0  0  0  0
   -7.8587    1.4743   -2.0718 N   0  0  0  0  0  0  0  0  0  0  0  0
   -8.8273    2.5588   -2.2050 C   0  0  0  0  0  0  0  0  0  0  0  0
  1  2  1  0
  2  3  2  0
  2  4  1  0
  3  5  1  0
  3  6  1  0
  4  7  2  0
  4  8  1  0
  6  9  2  0
  6 10  1  0
  7 11  1  0
  8 12  2  0
 10 13  1  0
 10 14  1  0
 11 15  2  0
 13 16  1  0
 14 17  1  0
 16 18  2  0
 16 19  1  0
 18 20  1  0
 19 21  2  0
 20 22  1  0
 20 23  2  0
 22 24  2  0
 22 25  1  0
 25 26  1  0
 26 27  1  0
 27 28  2  0
 27 29  1  0
 28 30  1  0
 29 31  2  0
 30 32  2  0
 32 33  1  0
 33 34  1  0
 33 35  1  0
 34 36  1  0
 35 37  1  0
 36 38  1  0
 38 39  1  0
  5  7  1  0
 12 15  1  0
 17 19  1  0
 21 23  1  0
 31 32  1  0
 37 38  1  0
M  END
>  <Molecule Name>  (1) 
CTX-1020456

>  <SMILES>  (1) 
CN1CCN(CC1)C1=CC=C(CNC(=O)C2=CC=C3CCN(CC3=N2)C(=O)C2=C(Cl)C3=C(S2)C=CC=C3)C=C1

>  <Batch Name>  (1) 
CTX-1020456-1

>  <Batch Created Date>  (1) 
2021-10-21

>  <Batch ID>  (1) 
CTX-1020456-1

>  <External ID>  (1) 
P841-0209

>  <Stereochemistry>  (1) 
Achiral

>  <Amount 1>  (1) 
4.6

>  <Unit 1>  (1) 
mg

>  <CRO 1>  (1) 
Pharmaron

>  <CRO 1 Total Amount>  (1) 
37.7

>  <CRO 1 Unit>  (1) 
mg

>  <pIC50>  (1) 
5.958607

>  <SMILES_std>  (1) 
CN1CCN(c2ccc(CNC(=O)c3ccc4c(n3)CN(C(=O)c3sc5ccccc5c3Cl)CC4)cc2)CC1

>  <embed_status>  (1) 
0

>  <mmff_status>  (1) 
0

$$$$
