CTX-1020902
     RDKit          3D

 38 43  0  0  0  0  0  0  0  0999 V2000
   -2.8681    0.2626   -1.2340 O   0  0  0  0  0  0  0  0  0  0  0  0
   -3.5929    0.1778   -0.2404 C   0  0  0  0  0  0  0  0  0  0  0  0
   -3.3226   -0.7729    0.7488 N   0  0  0  0  0  0  0  0  0  0  0  0
   -4.7254    1.0736   -0.0558 C   0  0  0  0  0  0  0  0  0  0  0  0
   -2.0822   -1.5341    0.6182 C   0  0  0  0  0  0  0  0  0  0  0  0
   -4.3520   -1.4173    1.5619 C   0  0  0  0  0  0  0  0  0  0  0  0
   -5.1410    1.3891    1.2111 O   0  0  0  0  0  0  0  0  0  0  0  0
   -5.4737    1.7890   -0.9857 C   0  0  0  0  0  0  0  0  0  0  0  0
   -1.6500   -2.2324    1.8931 C   0  0  0  0  0  0  0  0  0  0  0  0
   -3.8472   -1.6276    2.9878 C   0  0  0  0  0  0  0  0  0  0  0  0
   -6.1656    2.2727    1.0996 C   0  0  0  0  0  0  0  0  0  0  0  0
   -6.4171    2.5559   -0.2355 C   0  0  0  0  0  0  0  0  0  0  0  0
   -5.3080    1.7589   -2.4616 C   0  0  0  0  0  0  0  0  0  0  0  0
   -0.4215   -2.8085    1.8814 N   0  0  0  0  0  0  0  0  0  0  0  0
   -2.4976   -2.2960    3.0045 C   0  0  0  0  0  0  0  0  0  0  0  0
   -6.8692    2.8268    2.1667 C   0  0  0  0  0  0  0  0  0  0  0  0
   -7.4484    3.4648   -0.5395 C   0  0  0  0  0  0  0  0  0  0  0  0
    0.0096   -3.4355    3.0092 C   0  0  0  0  0  0  0  0  0  0  0  0
   -2.0385   -2.9484    4.1503 C   0  0  0  0  0  0  0  0  0  0  0  0
   -7.8913    3.7240    1.8423 C   0  0  0  0  0  0  0  0  0  0  0  0
   -8.1777    4.0392    0.5120 C   0  0  0  0  0  0  0  0  0  0  0  0
   -0.7751   -3.5308    4.1531 C   0  0  0  0  0  0  0  0  0  0  0  0
    1.3854   -4.0859    2.9784 C   0  0  0  0  0  0  0  0  0  0  0  0
    2.2626   -3.5844    1.9095 N   0  0  0  0  0  0  0  0  0  0  0  0
    2.8106   -2.2689    2.2420 C   0  0  0  0  0  0  0  0  0  0  0  0
    3.4942   -1.6587    1.0426 C   0  0  0  0  0  0  0  0  0  0  0  0
    2.7915   -0.8081    0.1825 C   0  0  0  0  0  0  0  0  0  0  0  0
    4.8243   -1.9606    0.7420 C   0  0  0  0  0  0  0  0  0  0  0  0
    3.4154   -0.2527   -0.9423 C   0  0  0  0  0  0  0  0  0  0  0  0
    5.4404   -1.3993   -0.3824 C   0  0  0  0  0  0  0  0  0  0  0  0
    4.7531   -0.5329   -1.2486 C   0  0  0  0  0  0  0  0  0  0  0  0
    5.4269    0.0020   -2.3558 N   0  0  0  0  0  0  0  0  0  0  0  0
    4.6566    0.4696   -3.5263 C   0  0  0  0  0  0  0  0  0  0  0  0
    6.5508    0.8901   -1.9635 C   0  0  0  0  0  0  0  0  0  0  0  0
    4.6253    2.0117   -3.6071 C   0  0  0  0  0  0  0  0  0  0  0  0
    7.0154    1.7648   -3.1506 C   0  0  0  0  0  0  0  0  0  0  0  0
    5.9572    2.6580   -3.6781 N   0  0  0  0  0  0  0  0  0  0  0  0
    6.2814    3.0868   -5.0356 C   0  0  0  0  0  0  0  0  0  0  0  0
  1  2  2  0
  2  3  1  0
  2  4  1  0
  3  5  1  0
  3  6  1  0
  4  7  1  0
  4  8  2  0
  5  9  1  0
  6 10  1  0
  7 11  1  0
  8 12  1  0
  8 13  1  0
  9 14  2  0
  9 15  1  0
 11 16  2  0
 12 17  2  0
 14 18  1  0
 15 19  2  0
 16 20  1  0
 17 21  1  0
 18 22  2  0
 18 23  1  0
 23 24  1  0
 24 25  1  0
 25 26  1  0
 26 27  2  0
 26 28  1  0
 27 29  1  0
 28 30  2  0
 29 31  2  0
 31 32  1  0
 32 33  1  0
 32 34  1  0
 33 35  1  0
 34 36  1  0
 35 37  1  0
 37 38  1  0
 10 15  1  0
 11 12  1  0
 19 22  1  0
 20 21  2  0
 30 31  1  0
 36 37  1  0
M  END
>  <Molecule Name>  (1) 
CTX-1020902

>  <SMILES>  (1) 
CN1CCN(CC1)C1=CC=C(CNCC2=CC=C3CCN(CC3=N2)C(=O)C2=C(C)C3=CC=CC=C3O2)C=C1

>  <Batch Name>  (1) 
CTX-1020902-1

>  <Batch Created Date>  (1) 
2022-01-20

>  <Batch ID>  (1) 
CTX-1020902-1

>  <External ID>  (1) 
P841-0274

>  <Stereochemistry>  (1) 
Achiral

>  <Amount 1>  (1) 
2.8

>  <Unit 1>  (1) 
mg

>  <CRO 1>  (1) 
Pharmaron

>  <CRO 1 Total Amount>  (1) 
2.1

>  <CRO 1 Unit>  (1) 
mg

>  <pIC50>  (1) 
4.341035

>  <SMILES_std>  (1) 
Cc1c(C(=O)N2CCc3ccc(CNCc4ccc(N5CCN(C)CC5)cc4)nc3C2)oc2ccccc12

>  <embed_status>  (1) 
0

>  <mmff_status>  (1) 
0

$$$$
