CTX-1020753
     RDKit          3D

 40 45  0  0  0  0  0  0  0  0999 V2000
    4.6771   -2.7254    0.6943 Cl  0  0  0  0  0  0  0  0  0  0  0  0
    5.7855   -1.5036    1.1333 C   0  0  0  0  0  0  0  0  0  0  0  0
    5.5783   -0.1356    1.1131 C   0  0  0  0  0  0  0  0  0  0  0  0
    7.0996   -1.7586    1.6151 C   0  0  0  0  0  0  0  0  0  0  0  0
    6.7195    0.4415    1.6409 N   0  0  0  0  0  0  0  0  0  0  0  0
    4.3968    0.6089    0.7339 C   0  0  0  0  0  0  0  0  0  0  0  0
    7.6684   -0.5211    1.9280 C   0  0  0  0  0  0  0  0  0  0  0  0
    7.8575   -2.9303    1.8321 C   0  0  0  0  0  0  0  0  0  0  0  0
    6.8880    1.8660    1.8529 C   0  0  0  0  0  0  0  0  0  0  0  0
    3.9055    1.4414    1.4949 O   0  0  0  0  0  0  0  0  0  0  0  0
    3.8482    0.3758   -0.5287 N   0  0  0  0  0  0  0  0  0  0  0  0
    8.9687   -0.4163    2.4510 C   0  0  0  0  0  0  0  0  0  0  0  0
    9.1543   -2.8333    2.3450 C   0  0  0  0  0  0  0  0  0  0  0  0
    2.6311    1.1200   -0.8482 C   0  0  0  0  0  0  0  0  0  0  0  0
    4.6431   -0.0454   -1.6818 C   0  0  0  0  0  0  0  0  0  0  0  0
    9.6997   -1.5914    2.6496 C   0  0  0  0  0  0  0  0  0  0  0  0
    1.9142    0.6623   -2.1027 C   0  0  0  0  0  0  0  0  0  0  0  0
    3.8177   -0.9139   -2.6292 C   0  0  0  0  0  0  0  0  0  0  0  0
    0.7119    1.2385   -2.3572 N   0  0  0  0  0  0  0  0  0  0  0  0
    2.4936   -0.2805   -2.9615 C   0  0  0  0  0  0  0  0  0  0  0  0
    0.0579    0.8437   -3.4869 C   0  0  0  0  0  0  0  0  0  0  0  0
    1.7886   -0.6684   -4.1055 C   0  0  0  0  0  0  0  0  0  0  0  0
   -1.2747    1.4839   -3.7390 C   0  0  0  0  0  0  0  0  0  0  0  0
    0.5516   -0.0964   -4.3782 C   0  0  0  0  0  0  0  0  0  0  0  0
   -1.9478    1.1975   -4.7225 O   0  0  0  0  0  0  0  0  0  0  0  0
   -1.6540    2.3911   -2.7744 N   0  0  0  0  0  0  0  0  0  0  0  0
   -2.9717    2.9707   -2.7233 C   0  0  0  0  0  0  0  0  0  0  0  0
   -3.8478    2.2281   -1.7504 C   0  0  0  0  0  0  0  0  0  0  0  0
   -3.9823    2.6561   -0.4287 C   0  0  0  0  0  0  0  0  0  0  0  0
   -4.5154    1.0656   -2.1405 C   0  0  0  0  0  0  0  0  0  0  0  0
   -4.7833    1.9415    0.4737 C   0  0  0  0  0  0  0  0  0  0  0  0
   -5.3141    0.3611   -1.2294 C   0  0  0  0  0  0  0  0  0  0  0  0
   -5.4740    0.7773    0.1017 C   0  0  0  0  0  0  0  0  0  0  0  0
   -6.2625    0.0746    0.9969 N   0  0  0  0  0  0  0  0  0  0  0  0
   -7.3174   -0.8444    0.5392 C   0  0  0  0  0  0  0  0  0  0  0  0
   -6.1297    0.2453    2.4529 C   0  0  0  0  0  0  0  0  0  0  0  0
   -8.4423   -0.9767    1.5939 C   0  0  0  0  0  0  0  0  0  0  0  0
   -6.5996   -1.0282    3.1942 C   0  0  0  0  0  0  0  0  0  0  0  0
   -8.0128   -1.3896    2.9468 N   0  0  0  0  0  0  0  0  0  0  0  0
   -8.2223   -2.8172    3.1711 C   0  0  0  0  0  0  0  0  0  0  0  0
  1  2  1  0
  2  3  2  0
  2  4  1  0
  3  5  1  0
  3  6  1  0
  4  7  2  0
  4  8  1  0
  5  9  1  0
  6 10  2  0
  6 11  1  0
  7 12  1  0
  8 13  2  0
 11 14  1  0
 11 15  1  0
 12 16  2  0
 14 17  1  0
 15 18  1  0
 17 19  2  0
 17 20  1  0
 19 21  1  0
 20 22  2  0
 21 23  1  0
 21 24  2  0
 23 25  2  0
 23 26  1  0
 26 27  1  0
 27 28  1  0
 28 29  2  0
 28 30  1  0
 29 31  1  0
 30 32  2  0
 31 33  2  0
 33 34  1  0
 34 35  1  0
 34 36  1  0
 35 37  1  0
 36 38  1  0
 37 39  1  0
 39 40  1  0
  5  7  1  0
 13 16  1  0
 18 20  1  0
 22 24  1  0
 32 33  1  0
 38 39  1  0
M  END
>  <Molecule Name>  (1) 
CTX-1020753

>  <SMILES>  (1) 
CN1C2=C(C=CC=C2)C(Cl)=C1C(=O)N1CCC2=CC=C(N=C2C1)C(=O)NCC1=CC=C(C=C1)N1CCN(C)CC1

>  <Batch Name>  (1) 
CTX-1020753-1

>  <Batch Created Date>  (1) 
2021-12-16

>  <Batch ID>  (1) 
CTX-1020753-1

>  <External ID>  (1) 
P841-0369

>  <Stereochemistry>  (1) 
Achiral

>  <Amount 1>  (1) 
5.1

>  <Unit 1>  (1) 
mg

>  <CRO 1>  (1) 
Pharmaron

>  <CRO 1 Total Amount>  (1) 
26.75

>  <CRO 1 Unit>  (1) 
mg

>  <pIC50>  (1) 
5.468521

>  <SMILES_std>  (1) 
CN1CCN(c2ccc(CNC(=O)c3ccc4c(n3)CN(C(=O)c3c(Cl)c5ccccc5n3C)CC4)cc2)CC1

>  <embed_status>  (1) 
0

>  <mmff_status>  (1) 
0

$$$$
