CTX-1020746
     RDKit          3D

 38 43  0  0  0  0  0  0  0  0999 V2000
   -4.2238   -0.1902    2.0007 O   0  0  0  0  0  0  0  0  0  0  0  0
   -4.6062    0.1174    0.8689 C   0  0  0  0  0  0  0  0  0  0  0  0
   -3.7699   -0.1107   -0.2369 N   0  0  0  0  0  0  0  0  0  0  0  0
   -5.9174    0.7209    0.6739 C   0  0  0  0  0  0  0  0  0  0  0  0
   -2.7031   -1.1126   -0.0090 C   0  0  0  0  0  0  0  0  0  0  0  0
   -4.1142    0.2601   -1.6326 C   0  0  0  0  0  0  0  0  0  0  0  0
   -6.6419    0.4378   -0.4533 O   0  0  0  0  0  0  0  0  0  0  0  0
   -6.6739    1.5206    1.5260 C   0  0  0  0  0  0  0  0  0  0  0  0
   -1.7197   -1.1239   -1.1268 C   0  0  0  0  0  0  0  0  0  0  0  0
   -2.8961    0.6221   -2.5161 C   0  0  0  0  0  0  0  0  0  0  0  0
   -7.8352    1.0764   -0.3480 C   0  0  0  0  0  0  0  0  0  0  0  0
   -7.9113    1.7637    0.8551 C   0  0  0  0  0  0  0  0  0  0  0  0
   -6.2667    2.0099    2.8683 C   0  0  0  0  0  0  0  0  0  0  0  0
   -0.6024   -1.9182   -1.1888 N   0  0  0  0  0  0  0  0  0  0  0  0
   -1.8189   -0.3483   -2.2550 C   0  0  0  0  0  0  0  0  0  0  0  0
   -8.8493    1.0487   -1.3028 C   0  0  0  0  0  0  0  0  0  0  0  0
   -9.0896    2.4800    1.1386 C   0  0  0  0  0  0  0  0  0  0  0  0
   -0.0213   -1.6136   -2.3435 C   0  0  0  0  0  0  0  0  0  0  0  0
   -0.7377   -0.6539   -3.0225 N   0  0  0  0  0  0  0  0  0  0  0  0
  -10.0091    1.7700   -1.0031 C   0  0  0  0  0  0  0  0  0  0  0  0
  -10.1293    2.4745    0.1970 C   0  0  0  0  0  0  0  0  0  0  0  0
    1.2102   -2.2039   -2.8312 C   0  0  0  0  0  0  0  0  0  0  0  0
    1.7267   -1.8885   -3.8997 O   0  0  0  0  0  0  0  0  0  0  0  0
    1.7358   -3.1410   -1.9749 N   0  0  0  0  0  0  0  0  0  0  0  0
    3.0371   -3.7269   -2.1586 C   0  0  0  0  0  0  0  0  0  0  0  0
    4.0779   -2.9866   -1.3628 C   0  0  0  0  0  0  0  0  0  0  0  0
    4.7206   -1.8679   -1.8975 C   0  0  0  0  0  0  0  0  0  0  0  0
    4.4036   -3.3786   -0.0639 C   0  0  0  0  0  0  0  0  0  0  0  0
    5.6744   -1.1626   -1.1494 C   0  0  0  0  0  0  0  0  0  0  0  0
    5.3567   -2.6646    0.6742 C   0  0  0  0  0  0  0  0  0  0  0  0
    6.0048   -1.5265    0.1635 C   0  0  0  0  0  0  0  0  0  0  0  0
    6.9536   -0.8545    0.9377 N   0  0  0  0  0  0  0  0  0  0  0  0
    7.8302    0.1742    0.3385 C   0  0  0  0  0  0  0  0  0  0  0  0
    6.5475   -0.4780    2.3138 C   0  0  0  0  0  0  0  0  0  0  0  0
    7.1874    1.5820    0.3972 C   0  0  0  0  0  0  0  0  0  0  0  0
    5.8955    0.9262    2.3323 C   0  0  0  0  0  0  0  0  0  0  0  0
    6.7823    1.9705    1.7679 N   0  0  0  0  0  0  0  0  0  0  0  0
    6.1103    3.2675    1.7601 C   0  0  0  0  0  0  0  0  0  0  0  0
  1  2  2  0
  2  3  1  0
  2  4  1  0
  3  5  1  0
  3  6  1  0
  4  7  1  0
  4  8  2  0
  5  9  1  0
  6 10  1  0
  7 11  1  0
  8 12  1  0
  8 13  1  0
  9 14  1  0
  9 15  2  0
 11 16  2  0
 12 17  2  0
 14 18  2  0
 15 19  1  0
 16 20  1  0
 17 21  1  0
 18 22  1  0
 22 23  2  0
 22 24  1  0
 24 25  1  0
 25 26  1  0
 26 27  2  0
 26 28  1  0
 27 29  1  0
 28 30  2  0
 29 31  2  0
 31 32  1  0
 32 33  1  0
 32 34  1  0
 33 35  1  0
 34 36  1  0
 35 37  1  0
 37 38  1  0
 10 15  1  0
 11 12  1  0
 18 19  1  0
 20 21  2  0
 30 31  1  0
 36 37  1  0
M  END
>  <Molecule Name>  (1) 
CTX-1020746

>  <SMILES>  (1) 
CN1CCN(CC1)C1=CC=C(CNC(=O)C2=NC3=C(CN(CC3)C(=O)C3=C(C)C4=C(O3)C=CC=C4)N2)C=C1

>  <Batch Name>  (1) 
CTX-1020746-1

>  <Batch Created Date>  (1) 
2021-12-16

>  <Batch ID>  (1) 
CTX-1020746-1

>  <External ID>  (1) 
P841-0291

>  <Stereochemistry>  (1) 
Achiral

>  <Amount 1>  (1) 
4.5

>  <Unit 1>  (1) 
mg

>  <CRO 1>  (1) 
Pharmaron

>  <CRO 1 Total Amount>  (1) 
0.0

>  <CRO 1 Unit>  (1) 
mg

>  <pIC50>  (1) 
5.28567

>  <SMILES_std>  (1) 
Cc1c(C(=O)N2CCc3[nH]c(C(=O)NCc4ccc(N5CCN(C)CC5)cc4)nc3C2)oc2ccccc12

>  <embed_status>  (1) 
0

>  <mmff_status>  (1) 
0

$$$$
