CTX-1020749
     RDKit          3D

 38 43  0  0  0  0  0  0  0  0999 V2000
   -6.8622    2.2851    3.1388 Cl  0  0  0  0  0  0  0  0  0  0  0  0
   -7.3280    1.5100    1.6975 C   0  0  0  0  0  0  0  0  0  0  0  0
   -6.5903    0.6293    0.9280 C   0  0  0  0  0  0  0  0  0  0  0  0
   -8.5825    1.6858    1.0528 C   0  0  0  0  0  0  0  0  0  0  0  0
   -7.3446    0.2252   -0.1453 O   0  0  0  0  0  0  0  0  0  0  0  0
   -5.2794    0.0507    1.1424 C   0  0  0  0  0  0  0  0  0  0  0  0
   -8.5383    0.8720   -0.0716 C   0  0  0  0  0  0  0  0  0  0  0  0
   -9.7524    2.4333    1.2904 C   0  0  0  0  0  0  0  0  0  0  0  0
   -4.9030   -0.2584    2.2748 O   0  0  0  0  0  0  0  0  0  0  0  0
   -4.4327   -0.1688    0.0406 N   0  0  0  0  0  0  0  0  0  0  0  0
   -9.5798    0.7435   -0.9877 C   0  0  0  0  0  0  0  0  0  0  0  0
  -10.8182    2.3271    0.3853 C   0  0  0  0  0  0  0  0  0  0  0  0
   -3.3348   -1.1145    0.2834 C   0  0  0  0  0  0  0  0  0  0  0  0
   -4.7854    0.1552   -1.3564 C   0  0  0  0  0  0  0  0  0  0  0  0
  -10.7312    1.4956   -0.7338 C   0  0  0  0  0  0  0  0  0  0  0  0
   -2.3324   -1.1335   -0.8301 C   0  0  0  0  0  0  0  0  0  0  0  0
   -3.5775    0.5764   -2.2071 C   0  0  0  0  0  0  0  0  0  0  0  0
   -2.4557   -0.3707   -1.9688 C   0  0  0  0  0  0  0  0  0  0  0  0
   -1.1439   -1.9317   -0.8832 C   0  0  0  0  0  0  0  0  0  0  0  0
   -1.1926   -0.6017   -3.0730 S   0  0  0  0  0  0  0  0  0  0  0  0
   -0.4143   -1.7405   -2.0470 C   0  0  0  0  0  0  0  0  0  0  0  0
    0.8383   -2.3461   -2.4882 C   0  0  0  0  0  0  0  0  0  0  0  0
    1.2608   -2.2907   -3.6414 O   0  0  0  0  0  0  0  0  0  0  0  0
    1.5476   -2.9966   -1.4954 N   0  0  0  0  0  0  0  0  0  0  0  0
    2.8790   -3.5080   -1.7283 C   0  0  0  0  0  0  0  0  0  0  0  0
    3.9148   -2.5489   -1.2053 C   0  0  0  0  0  0  0  0  0  0  0  0
    4.4892   -2.7236    0.0558 C   0  0  0  0  0  0  0  0  0  0  0  0
    4.3009   -1.4409   -1.9617 C   0  0  0  0  0  0  0  0  0  0  0  0
    5.4346   -1.8096    0.5444 C   0  0  0  0  0  0  0  0  0  0  0  0
    5.2434   -0.5341   -1.4622 C   0  0  0  0  0  0  0  0  0  0  0  0
    5.8244   -0.6820   -0.1911 C   0  0  0  0  0  0  0  0  0  0  0  0
    6.7667    0.2474    0.2558 N   0  0  0  0  0  0  0  0  0  0  0  0
    7.6384   -0.0551    1.4082 C   0  0  0  0  0  0  0  0  0  0  0  0
    6.3554    1.6704    0.2154 C   0  0  0  0  0  0  0  0  0  0  0  0
    7.0264    0.4368    2.7436 C   0  0  0  0  0  0  0  0  0  0  0  0
    5.7472    2.1126    1.5704 C   0  0  0  0  0  0  0  0  0  0  0  0
    6.5891    1.8520    2.7624 N   0  0  0  0  0  0  0  0  0  0  0  0
    7.7275    2.7658    2.8264 C   0  0  0  0  0  0  0  0  0  0  0  0
  1  2  1  0
  2  3  2  0
  2  4  1  0
  3  5  1  0
  3  6  1  0
  4  7  2  0
  4  8  1  0
  6  9  2  0
  6 10  1  0
  7 11  1  0
  8 12  2  0
 10 13  1  0
 10 14  1  0
 11 15  2  0
 13 16  1  0
 14 17  1  0
 16 18  2  0
 16 19  1  0
 18 20  1  0
 19 21  2  0
 21 22  1  0
 22 23  2  0
 22 24  1  0
 24 25  1  0
 25 26  1  0
 26 27  2  0
 26 28  1  0
 27 29  1  0
 28 30  2  0
 29 31  2  0
 31 32  1  0
 32 33  1  0
 32 34  1  0
 33 35  1  0
 34 36  1  0
 35 37  1  0
 37 38  1  0
  5  7  1  0
 12 15  1  0
 17 18  1  0
 20 21  1  0
 30 31  1  0
 36 37  1  0
M  END
>  <Molecule Name>  (1) 
CTX-1020749

>  <SMILES>  (1) 
CN1CCN(CC1)C1=CC=C(CNC(=O)C2=CC3=C(CCN(C3)C(=O)C3=C(Cl)C4=C(O3)C=CC=C4)S2)C=C1

>  <Batch Name>  (1) 
CTX-1020749-1

>  <Batch Created Date>  (1) 
2021-12-16

>  <Batch ID>  (1) 
CTX-1020749-1

>  <External ID>  (1) 
P841-0370

>  <Stereochemistry>  (1) 
Achiral

>  <Amount 1>  (1) 
3.15

>  <Unit 1>  (1) 
mg

>  <CRO 1>  (1) 
Pharmaron

>  <CRO 1 Total Amount>  (1) 
0.0

>  <CRO 1 Unit>  (1) 
mg

>  <pIC50>  (1) 
5.787812

>  <SMILES_std>  (1) 
CN1CCN(c2ccc(CNC(=O)c3cc4c(s3)CCN(C(=O)c3oc5ccccc5c3Cl)C4)cc2)CC1

>  <embed_status>  (1) 
0

>  <mmff_status>  (1) 
0

$$$$
