CTX-1020453
     RDKit          3D

 39 44  0  0  0  0  0  0  0  0999 V2000
    6.7631    2.8642   -3.3912 Cl  0  0  0  0  0  0  0  0  0  0  0  0
    7.1884    1.5488   -2.3994 C   0  0  0  0  0  0  0  0  0  0  0  0
    6.4110    0.9078   -1.4524 C   0  0  0  0  0  0  0  0  0  0  0  0
    8.4487    0.8914   -2.4263 C   0  0  0  0  0  0  0  0  0  0  0  0
    7.1429   -0.0995   -0.8727 O   0  0  0  0  0  0  0  0  0  0  0  0
    5.0731    1.1849   -0.9691 C   0  0  0  0  0  0  0  0  0  0  0  0
    8.3654   -0.1096   -1.4674 C   0  0  0  0  0  0  0  0  0  0  0  0
    9.6519    1.0281   -3.1457 C   0  0  0  0  0  0  0  0  0  0  0  0
    4.6131    2.3273   -0.9633 O   0  0  0  0  0  0  0  0  0  0  0  0
    4.3144    0.1204   -0.4667 N   0  0  0  0  0  0  0  0  0  0  0  0
    9.3984   -0.9940   -1.1655 C   0  0  0  0  0  0  0  0  0  0  0  0
   10.7103    0.1517   -2.8663 C   0  0  0  0  0  0  0  0  0  0  0  0
    3.0346    0.4563    0.1535 C   0  0  0  0  0  0  0  0  0  0  0  0
    4.4177   -1.2530   -0.9570 C   0  0  0  0  0  0  0  0  0  0  0  0
   10.5835   -0.8414   -1.8921 C   0  0  0  0  0  0  0  0  0  0  0  0
    2.4483   -0.6525    1.0075 C   0  0  0  0  0  0  0  0  0  0  0  0
    4.2415   -2.2422    0.1926 C   0  0  0  0  0  0  0  0  0  0  0  0
    1.3497   -0.3379    1.7390 N   0  0  0  0  0  0  0  0  0  0  0  0
    3.0079   -1.9385    1.0029 C   0  0  0  0  0  0  0  0  0  0  0  0
    0.8073   -1.3267    2.5057 C   0  0  0  0  0  0  0  0  0  0  0  0
    2.4306   -2.9235    1.8109 C   0  0  0  0  0  0  0  0  0  0  0  0
   -0.4074   -0.9552    3.3029 C   0  0  0  0  0  0  0  0  0  0  0  0
    1.3091   -2.6175    2.5730 C   0  0  0  0  0  0  0  0  0  0  0  0
   -0.9903   -1.7750    4.0035 O   0  0  0  0  0  0  0  0  0  0  0  0
   -0.7933    0.3590    3.1592 N   0  0  0  0  0  0  0  0  0  0  0  0
   -2.0317    0.8721    3.6856 C   0  0  0  0  0  0  0  0  0  0  0  0
   -3.1018    0.8849    2.6265 C   0  0  0  0  0  0  0  0  0  0  0  0
   -3.3434    2.0269    1.8603 C   0  0  0  0  0  0  0  0  0  0  0  0
   -3.8443   -0.2677    2.3543 C   0  0  0  0  0  0  0  0  0  0  0  0
   -4.3270    2.0163    0.8634 C   0  0  0  0  0  0  0  0  0  0  0  0
   -4.8247   -0.2693    1.3528 C   0  0  0  0  0  0  0  0  0  0  0  0
   -5.1032    0.8762    0.5940 C   0  0  0  0  0  0  0  0  0  0  0  0
   -6.0710    0.9176   -0.4236 N   0  0  0  0  0  0  0  0  0  0  0  0
   -6.6222   -0.3636   -0.9096 C   0  0  0  0  0  0  0  0  0  0  0  0
   -7.1057    1.9616   -0.2323 C   0  0  0  0  0  0  0  0  0  0  0  0
   -7.5023   -0.1470   -2.1643 C   0  0  0  0  0  0  0  0  0  0  0  0
   -7.9871    2.1085   -1.4976 C   0  0  0  0  0  0  0  0  0  0  0  0
   -8.5799    0.8570   -2.0189 N   0  0  0  0  0  0  0  0  0  0  0  0
   -9.6571    0.3733   -1.1589 C   0  0  0  0  0  0  0  0  0  0  0  0
  1  2  1  0
  2  3  2  0
  2  4  1  0
  3  5  1  0
  3  6  1  0
  4  7  2  0
  4  8  1  0
  6  9  2  0
  6 10  1  0
  7 11  1  0
  8 12  2  0
 10 13  1  0
 10 14  1  0
 11 15  2  0
 13 16  1  0
 14 17  1  0
 16 18  2  0
 16 19  1  0
 18 20  1  0
 19 21  2  0
 20 22  1  0
 20 23  2  0
 22 24  2  0
 22 25  1  0
 25 26  1  0
 26 27  1  0
 27 28  2  0
 27 29  1  0
 28 30  1  0
 29 31  2  0
 30 32  2  0
 32 33  1  0
 33 34  1  0
 33 35  1  0
 34 36  1  0
 35 37  1  0
 36 38  1  0
 38 39  1  0
  5  7  1  0
 12 15  1  0
 17 19  1  0
 21 23  1  0
 31 32  1  0
 37 38  1  0
M  END
>  <Molecule Name>  (1) 
CTX-1020453

>  <SMILES>  (1) 
CN1CCN(CC1)C1=CC=C(CNC(=O)C2=CC=C3CCN(CC3=N2)C(=O)C2=C(Cl)C3=C(O2)C=CC=C3)C=C1

>  <Batch Name>  (1) 
CTX-1020453-1

>  <Batch Created Date>  (1) 
2021-10-21

>  <Batch ID>  (1) 
CTX-1020453-1

>  <External ID>  (1) 
P841-0206

>  <Stereochemistry>  (1) 
Achiral

>  <Amount 1>  (1) 
4.3

>  <Unit 1>  (1) 
mg

>  <CRO 1>  (1) 
Pharmaron

>  <CRO 1 Total Amount>  (1) 
33.3

>  <CRO 1 Unit>  (1) 
mg

>  <pIC50>  (1) 
5.761954

>  <SMILES_std>  (1) 
CN1CCN(c2ccc(CNC(=O)c3ccc4c(n3)CN(C(=O)c3oc5ccccc5c3Cl)CC4)cc2)CC1

>  <embed_status>  (1) 
0

>  <mmff_status>  (1) 
0

$$$$
