NC-009
     RDKit          3D

 41 46  0  0  0  0  0  0  0  0999 V2000
   -7.8954   -0.9206   -2.0771 C   0  0  0  0  0  0  0  0  0  0  0  0
   -7.7851   -0.7717   -0.6032 C   0  0  0  0  0  0  0  0  0  0  0  0
   -6.6987   -0.2522    0.0951 C   0  0  0  0  0  0  0  0  0  0  0  0
   -5.4521    0.3194   -0.3959 C   0  0  0  0  0  0  0  0  0  0  0  0
   -5.4172    0.8911   -1.4885 O   0  0  0  0  0  0  0  0  0  0  0  0
   -4.2831    0.2137    0.3759 N   0  0  0  0  0  0  0  0  0  0  0  0
   -4.2067   -0.4835    1.6818 C   0  0  0  0  0  0  0  0  0  0  0  0
   -2.8305   -1.1214    1.9860 C   0  0  0  0  0  0  0  0  0  0  0  0
   -1.7643   -0.1763    1.5961 C   0  0  0  0  0  0  0  0  0  0  0  0
   -1.9396    0.8584    0.7101 C   0  0  0  0  0  0  0  0  0  0  0  0
   -0.7727    1.5572    0.5521 N   0  0  0  0  0  0  0  0  0  0  0  0
    0.1217    0.9441    1.3232 C   0  0  0  0  0  0  0  0  0  0  0  0
    1.5071    1.3846    1.4304 C   0  0  0  0  0  0  0  0  0  0  0  0
    2.3545    0.8353    2.1311 O   0  0  0  0  0  0  0  0  0  0  0  0
    1.7763    2.4870    0.6540 N   0  0  0  0  0  0  0  0  0  0  0  0
    3.1073    2.9887    0.4300 C   0  0  0  0  0  0  0  0  0  0  0  0
    3.7360    2.3448   -0.7812 C   0  0  0  0  0  0  0  0  0  0  0  0
    3.5367    2.8548   -2.0733 C   0  0  0  0  0  0  0  0  0  0  0  0
    2.7538    3.9749   -2.1653 O   0  0  0  0  0  0  0  0  0  0  0  0
    2.4307    4.4387   -3.4703 C   0  0  0  0  0  0  0  0  0  0  0  0
    4.1346    2.2097   -3.1555 C   0  0  0  0  0  0  0  0  0  0  0  0
    4.9075    1.0587   -2.9563 C   0  0  0  0  0  0  0  0  0  0  0  0
    5.1030    0.5102   -1.6820 C   0  0  0  0  0  0  0  0  0  0  0  0
    5.8774   -0.6496   -1.5478 N   0  0  0  0  0  0  0  0  0  0  0  0
    7.3025   -0.4248   -1.9017 C   0  0  0  0  0  0  0  0  0  0  0  0
    8.1988   -1.5675   -1.3721 C   0  0  0  0  0  0  0  0  0  0  0  0
    8.1678   -1.7071    0.1025 N   0  0  0  0  0  0  0  0  0  0  0  0
    8.6256   -3.0353    0.4998 C   0  0  0  0  0  0  0  0  0  0  0  0
    6.8218   -1.4026    0.6434 C   0  0  0  0  0  0  0  0  0  0  0  0
    5.6697   -1.5296   -0.3776 C   0  0  0  0  0  0  0  0  0  0  0  0
    4.5049    1.1746   -0.6060 C   0  0  0  0  0  0  0  0  0  0  0  0
   -0.4521   -0.1342    1.9693 N   0  0  0  0  0  0  0  0  0  0  0  0
    0.2327   -1.0416    2.8575 C   0  0  0  0  0  0  0  0  0  0  0  0
   -3.2234    1.1869    0.0316 C   0  0  0  0  0  0  0  0  0  0  0  0
   -6.9814   -0.2327    1.4351 O   0  0  0  0  0  0  0  0  0  0  0  0
   -8.2179   -0.7669    1.6037 C   0  0  0  0  0  0  0  0  0  0  0  0
   -8.8607   -0.9366    2.8279 C   0  0  0  0  0  0  0  0  0  0  0  0
  -10.1386   -1.5027    2.7892 C   0  0  0  0  0  0  0  0  0  0  0  0
  -10.7268   -1.8711    1.5770 C   0  0  0  0  0  0  0  0  0  0  0  0
  -10.0529   -1.6847    0.3610 C   0  0  0  0  0  0  0  0  0  0  0  0
   -8.7633   -1.1201    0.3776 C   0  0  0  0  0  0  0  0  0  0  0  0
  1  2  1  0
  2  3  2  0
  3  4  1  0
  4  5  2  0
  4  6  1  0
  6  7  1  0
  7  8  1  0
  8  9  1  0
  9 10  2  0
 10 11  1  0
 11 12  2  0
 12 13  1  0
 13 14  2  0
 13 15  1  0
 15 16  1  0
 16 17  1  0
 17 18  2  0
 18 19  1  0
 19 20  1  0
 18 21  1  0
 21 22  2  0
 22 23  1  0
 23 24  1  0
 24 25  1  0
 25 26  1  0
 26 27  1  0
 27 28  1  0
 27 29  1  0
 29 30  1  0
 23 31  2  0
 12 32  1  0
 32 33  1  0
 10 34  1  0
  3 35  1  0
 35 36  1  0
 36 37  2  0
 37 38  1  0
 38 39  2  0
 39 40  1  0
 40 41  2  0
 41  2  1  0
 34  6  1  0
 41 36  1  0
 32  9  1  0
 31 17  1  0
 30 24  1  0
M  END
>  <SMILES>  (1) 
Cc1c(C(=O)N2CCc3c(nc(C(=O)NCc4c(OC)ccc(N5CCN(C)CC5)c4)n3C)C2)oc2ccccc12

$$$$
