NC-007
     RDKit          3D

 39 45  0  0  0  0  0  0  0  0999 V2000
   -6.1539    2.9497    2.0797 C   0  0  0  0  0  0  0  0  0  0  0  0
   -5.8326    2.2259    0.8228 C   0  0  0  0  0  0  0  0  0  0  0  0
   -5.4560    0.8900    0.7113 C   0  0  0  0  0  0  0  0  0  0  0  0
   -5.3253   -0.1410    1.7337 C   0  0  0  0  0  0  0  0  0  0  0  0
   -5.9493   -0.0540    2.7943 O   0  0  0  0  0  0  0  0  0  0  0  0
   -4.4832   -1.2345    1.5058 N   0  0  0  0  0  0  0  0  0  0  0  0
   -4.6090   -2.4185    2.3819 C   0  0  0  0  0  0  0  0  0  0  0  0
   -3.2624   -2.8575    2.9990 C   0  0  0  0  0  0  0  0  0  0  0  0
   -2.2409   -2.8577    1.9241 C   0  0  0  0  0  0  0  0  0  0  0  0
   -2.3668   -2.1711    0.7380 C   0  0  0  0  0  0  0  0  0  0  0  0
   -1.2654   -2.3695   -0.0509 N   0  0  0  0  0  0  0  0  0  0  0  0
   -0.4590   -3.1614    0.6523 C   0  0  0  0  0  0  0  0  0  0  0  0
    0.8366   -3.6065    0.1552 C   0  0  0  0  0  0  0  0  0  0  0  0
    1.6030   -4.3385    0.7764 O   0  0  0  0  0  0  0  0  0  0  0  0
    1.1221   -3.1126   -1.0971 N   0  0  0  0  0  0  0  0  0  0  0  0
    2.4076   -3.2613   -1.7249 C   0  0  0  0  0  0  0  0  0  0  0  0
    3.2747   -2.0556   -1.4742 C   0  0  0  0  0  0  0  0  0  0  0  0
    3.2804   -0.9779   -2.3666 C   0  0  0  0  0  0  0  0  0  0  0  0
    4.0713    0.1486   -2.1141 C   0  0  0  0  0  0  0  0  0  0  0  0
    4.8731    0.2284   -0.9689 C   0  0  0  0  0  0  0  0  0  0  0  0
    5.6608    1.3680   -0.7138 N   0  0  0  0  0  0  0  0  0  0  0  0
    6.8303    1.4612    0.1273 C   0  0  0  0  0  0  0  0  0  0  0  0
    7.1296    2.7230   -0.6090 C   0  0  0  0  0  0  0  0  0  0  0  0
    6.9898    4.0389    0.0784 C   0  0  0  0  0  0  0  0  0  0  0  0
    8.3633    4.3797   -0.2834 O   0  0  0  0  0  0  0  0  0  0  0  0
    8.5265    3.0944   -0.9538 C   0  0  0  0  0  0  0  0  0  0  0  0
    6.1572    2.3294   -1.6692 C   0  0  0  0  0  0  0  0  0  0  0  0
    4.8435   -0.8431   -0.0686 C   0  0  0  0  0  0  0  0  0  0  0  0
    4.0556   -1.9722   -0.3157 C   0  0  0  0  0  0  0  0  0  0  0  0
   -1.0223   -3.4699    1.8759 N   0  0  0  0  0  0  0  0  0  0  0  0
   -0.4106   -4.2780    2.9027 C   0  0  0  0  0  0  0  0  0  0  0  0
   -3.5439   -1.3284    0.3635 C   0  0  0  0  0  0  0  0  0  0  0  0
   -5.2782    0.5732   -0.6091 O   0  0  0  0  0  0  0  0  0  0  0  0
   -5.5037    1.6957   -1.3379 C   0  0  0  0  0  0  0  0  0  0  0  0
   -5.4079    1.7867   -2.7247 C   0  0  0  0  0  0  0  0  0  0  0  0
   -5.6856    3.0355   -3.2890 C   0  0  0  0  0  0  0  0  0  0  0  0
   -6.0411    4.1243   -2.4895 C   0  0  0  0  0  0  0  0  0  0  0  0
   -6.1297    3.9982   -1.0953 C   0  0  0  0  0  0  0  0  0  0  0  0
   -5.8507    2.7504   -0.5059 C   0  0  0  0  0  0  0  0  0  0  0  0
  1  2  1  0
  2  3  2  0
  3  4  1  0
  4  5  2  0
  4  6  1  0
  6  7  1  0
  7  8  1  0
  8  9  1  0
  9 10  2  0
 10 11  1  0
 11 12  2  0
 12 13  1  0
 13 14  2  0
 13 15  1  0
 15 16  1  0
 16 17  1  0
 17 18  2  0
 18 19  1  0
 19 20  2  0
 20 21  1  0
 21 22  1  0
 22 23  1  0
 23 24  1  0
 24 25  1  0
 25 26  1  0
 23 27  1  0
 20 28  1  0
 28 29  2  0
 12 30  1  0
 30 31  1  0
 10 32  1  0
  3 33  1  0
 33 34  1  0
 34 35  2  0
 35 36  1  0
 36 37  2  0
 37 38  1  0
 38 39  2  0
 39  2  1  0
 32  6  1  0
 39 34  1  0
 30  9  1  0
 29 17  1  0
 27 21  1  0
 26 23  1  0
M  END
>  <SMILES>  (1) 
Cc1c(C(=O)N2CCc3c(nc(C(=O)NCc4ccc(N5CC6(COC6)C5)cc4)n3C)C2)oc2ccccc12

$$$$
