NC-004
     RDKit          3D

 40 45  0  0  0  0  0  0  0  0999 V2000
   -8.8572    0.6035    3.5616 C   0  0  0  0  0  0  0  0  0  0  0  0
   -8.2079   -0.3620    2.6380 C   0  0  0  0  0  0  0  0  0  0  0  0
   -7.0694   -0.1332    1.8710 C   0  0  0  0  0  0  0  0  0  0  0  0
   -6.2571    1.0655    1.7181 C   0  0  0  0  0  0  0  0  0  0  0  0
   -6.7240    2.1840    1.9431 O   0  0  0  0  0  0  0  0  0  0  0  0
   -4.9339    0.9273    1.2885 N   0  0  0  0  0  0  0  0  0  0  0  0
   -4.0883   -0.2433    1.6202 C   0  0  0  0  0  0  0  0  0  0  0  0
   -3.1753   -0.6571    0.4434 C   0  0  0  0  0  0  0  0  0  0  0  0
   -2.5567    0.5719   -0.1137 C   0  0  0  0  0  0  0  0  0  0  0  0
   -3.0301    1.8470    0.1026 C   0  0  0  0  0  0  0  0  0  0  0  0
   -2.2449    2.7644   -0.5410 N   0  0  0  0  0  0  0  0  0  0  0  0
   -1.3074    2.0644   -1.1659 C   0  0  0  0  0  0  0  0  0  0  0  0
   -0.2500    2.6748   -1.9564 C   0  0  0  0  0  0  0  0  0  0  0  0
   -0.4399    3.4400   -2.8972 O   0  0  0  0  0  0  0  0  0  0  0  0
    1.0187    2.3095   -1.5500 N   0  0  0  0  0  0  0  0  0  0  0  0
    2.2115    2.8711   -2.1555 C   0  0  1  0  0  0  0  0  0  0  0  0
    2.4866    4.2849   -1.6353 C   0  0  0  0  0  0  0  0  0  0  0  0
    3.3623    1.9061   -1.9364 C   0  0  0  0  0  0  0  0  0  0  0  0
    3.6919    0.9879   -2.9400 C   0  0  0  0  0  0  0  0  0  0  0  0
    4.7220    0.0593   -2.7505 C   0  0  0  0  0  0  0  0  0  0  0  0
    5.4562    0.0003   -1.5559 C   0  0  0  0  0  0  0  0  0  0  0  0
    6.4777   -0.9488   -1.4249 N   0  0  0  0  0  0  0  0  0  0  0  0
    7.5652   -0.7675   -2.4229 C   0  0  0  0  0  0  0  0  0  0  0  0
    8.8460   -1.5285   -2.0096 C   0  0  0  0  0  0  0  0  0  0  0  0
    9.3999   -1.0878   -0.7088 N   0  0  0  0  0  0  0  0  0  0  0  0
   10.3104   -2.0954   -0.1725 C   0  0  0  0  0  0  0  0  0  0  0  0
    8.3225   -0.7491    0.2493 C   0  0  0  0  0  0  0  0  0  0  0  0
    6.9436   -1.3591   -0.0844 C   0  0  0  0  0  0  0  0  0  0  0  0
    5.1094    0.9142   -0.5541 C   0  0  0  0  0  0  0  0  0  0  0  0
    4.0792    1.8490   -0.7353 C   0  0  0  0  0  0  0  0  0  0  0  0
   -1.4836    0.7100   -0.9442 N   0  0  0  0  0  0  0  0  0  0  0  0
   -0.7112   -0.3543   -1.5383 C   0  0  0  0  0  0  0  0  0  0  0  0
   -4.2231    2.1751    0.9402 C   0  0  0  0  0  0  0  0  0  0  0  0
   -6.7938   -1.2417    1.1138 O   0  0  0  0  0  0  0  0  0  0  0  0
   -7.7242   -2.1844    1.4109 C   0  0  0  0  0  0  0  0  0  0  0  0
   -7.7812   -3.4608    0.8557 C   0  0  0  0  0  0  0  0  0  0  0  0
   -8.8229   -4.2856    1.2912 C   0  0  0  0  0  0  0  0  0  0  0  0
   -9.7513   -3.8365    2.2332 C   0  0  0  0  0  0  0  0  0  0  0  0
   -9.6669   -2.5439    2.7713 C   0  0  0  0  0  0  0  0  0  0  0  0
   -8.6235   -1.6980    2.3493 C   0  0  0  0  0  0  0  0  0  0  0  0
  1  2  1  0
  2  3  2  0
  3  4  1  0
  4  5  2  0
  4  6  1  0
  6  7  1  0
  7  8  1  0
  8  9  1  0
  9 10  2  0
 10 11  1  0
 11 12  2  0
 12 13  1  0
 13 14  2  0
 13 15  1  0
 15 16  1  0
 16 17  1  1
 16 18  1  0
 18 19  2  0
 19 20  1  0
 20 21  2  0
 21 22  1  0
 22 23  1  0
 23 24  1  0
 24 25  1  0
 25 26  1  0
 25 27  1  0
 27 28  1  0
 21 29  1  0
 29 30  2  0
 12 31  1  0
 31 32  1  0
 10 33  1  0
  3 34  1  0
 34 35  1  0
 35 36  2  0
 36 37  1  0
 37 38  2  0
 38 39  1  0
 39 40  2  0
 40  2  1  0
 33  6  1  0
 40 35  1  0
 31  9  1  0
 30 18  1  0
 28 22  1  0
M  END
>  <SMILES>  (1) 
Cc1c(C(=O)N2CCc3c(nc(C(=O)N[C@@H](C)c4ccc(N5CCN(C)CC5)cc4)n3C)C2)oc2ccccc12

$$$$
