NC-006
     RDKit          3D

 39 44  0  0  0  0  0  0  0  0999 V2000
   -9.0888   -0.7646   -1.9387 C   0  0  0  0  0  0  0  0  0  0  0  0
   -8.0894    0.2801   -1.5947 C   0  0  0  0  0  0  0  0  0  0  0  0
   -6.7085    0.1862   -1.7491 C   0  0  0  0  0  0  0  0  0  0  0  0
   -5.8933   -0.8858   -2.3082 C   0  0  0  0  0  0  0  0  0  0  0  0
   -6.3837   -1.7010   -3.0933 O   0  0  0  0  0  0  0  0  0  0  0  0
   -4.5446   -0.9913   -1.9469 N   0  0  0  0  0  0  0  0  0  0  0  0
   -3.6635   -1.8513   -2.7589 C   0  0  0  0  0  0  0  0  0  0  0  0
   -2.8829   -2.8630   -1.9025 C   0  0  0  0  0  0  0  0  0  0  0  0
   -2.2848   -2.1361   -0.7508 C   0  0  0  0  0  0  0  0  0  0  0  0
   -0.9636   -2.6743    0.1658 S   0  0  0  0  0  0  0  0  0  0  0  0
   -1.0771   -1.2480    1.1358 C   0  0  0  0  0  0  0  0  0  0  0  0
   -0.1548   -0.9834    2.2481 C   0  0  0  0  0  0  0  0  0  0  0  0
   -0.1894    0.0410    2.9307 O   0  0  0  0  0  0  0  0  0  0  0  0
    0.7907   -1.9669    2.4996 N   0  0  0  0  0  0  0  0  0  0  0  0
    1.8773   -1.7670    3.4287 C   0  0  0  0  0  0  0  0  0  0  0  0
    3.1352   -1.3915    2.6920 C   0  0  0  0  0  0  0  0  0  0  0  0
    4.0834   -2.3577    2.3473 C   0  0  0  0  0  0  0  0  0  0  0  0
    5.2331   -1.9970    1.6352 C   0  0  0  0  0  0  0  0  0  0  0  0
    5.4726   -0.6718    1.2356 C   0  0  0  0  0  0  0  0  0  0  0  0
    6.6440   -0.3741    0.5260 N   0  0  0  0  0  0  0  0  0  0  0  0
    7.8734   -0.6207    1.3239 C   0  0  0  0  0  0  0  0  0  0  0  0
    9.1010    0.0797    0.6975 C   0  0  0  0  0  0  0  0  0  0  0  0
    8.9605    1.5517    0.6120 N   0  0  0  0  0  0  0  0  0  0  0  0
    9.8959    2.0988   -0.3665 C   0  0  0  0  0  0  0  0  0  0  0  0
    7.5620    1.9428    0.3184 C   0  0  0  0  0  0  0  0  0  0  0  0
    6.7004    0.8336   -0.3240 C   0  0  0  0  0  0  0  0  0  0  0  0
    4.5089    0.2829    1.5825 C   0  0  0  0  0  0  0  0  0  0  0  0
    3.3565   -0.0680    2.2976 C   0  0  0  0  0  0  0  0  0  0  0  0
   -2.0488   -0.4173    0.7953 N   0  0  0  0  0  0  0  0  0  0  0  0
   -2.7490   -0.9260   -0.2813 C   0  0  0  0  0  0  0  0  0  0  0  0
   -3.9128   -0.1900   -0.8772 C   0  0  0  0  0  0  0  0  0  0  0  0
   -6.1242    1.3605   -1.3569 O   0  0  0  0  0  0  0  0  0  0  0  0
   -7.1066    2.1888   -0.9221 C   0  0  0  0  0  0  0  0  0  0  0  0
   -6.9104    3.4761   -0.4234 C   0  0  0  0  0  0  0  0  0  0  0  0
   -8.0578    4.1720   -0.0317 C   0  0  0  0  0  0  0  0  0  0  0  0
   -9.3163    3.5863   -0.1470 C   0  0  0  0  0  0  0  0  0  0  0  0
  -10.3954    4.2824    0.2357 F   0  0  0  0  0  0  0  0  0  0  0  0
   -9.4886    2.2939   -0.6508 C   0  0  0  0  0  0  0  0  0  0  0  0
   -8.3459    1.5747   -1.0470 C   0  0  0  0  0  0  0  0  0  0  0  0
  1  2  1  0
  2  3  2  0
  3  4  1  0
  4  5  2  0
  4  6  1  0
  6  7  1  0
  7  8  1  0
  8  9  1  0
  9 10  1  0
 10 11  1  0
 11 12  1  0
 12 13  2  0
 12 14  1  0
 14 15  1  0
 15 16  1  0
 16 17  2  0
 17 18  1  0
 18 19  2  0
 19 20  1  0
 20 21  1  0
 21 22  1  0
 22 23  1  0
 23 24  1  0
 23 25  1  0
 25 26  1  0
 19 27  1  0
 27 28  2  0
 11 29  2  0
 29 30  1  0
 30 31  1  0
  3 32  1  0
 32 33  1  0
 33 34  2  0
 34 35  1  0
 35 36  2  0
 36 37  1  0
 36 38  1  0
 38 39  2  0
 39  2  1  0
 31  6  1  0
 39 33  1  0
 30  9  2  0
 28 16  1  0
 26 20  1  0
M  END
>  <SMILES>  (1) 
Cc1c(C(=O)N2CCc3sc(C(=O)NCc4ccc(N5CCN(C)CC5)cc4)nc3C2)oc2ccc(F)cc12

$$$$
