NC-003
     RDKit          3D

 38 43  0  0  0  0  0  0  0  0999 V2000
    6.4970   -3.2575   -1.8256 C   0  0  0  0  0  0  0  0  0  0  0  0
    6.7351   -2.0799   -0.9519 C   0  0  0  0  0  0  0  0  0  0  0  0
    5.7698   -1.1989   -0.4723 C   0  0  0  0  0  0  0  0  0  0  0  0
    4.3220   -1.2138   -0.6311 C   0  0  0  0  0  0  0  0  0  0  0  0
    3.7218   -2.2826   -0.7695 O   0  0  0  0  0  0  0  0  0  0  0  0
    3.6064   -0.0048   -0.6326 N   0  0  0  0  0  0  0  0  0  0  0  0
    4.2320    1.3336   -0.5121 C   0  0  0  0  0  0  0  0  0  0  0  0
    3.4701    2.4631   -1.2449 C   0  0  0  0  0  0  0  0  0  0  0  0
    2.0221    2.3063   -0.9984 C   0  0  0  0  0  0  0  0  0  0  0  0
    1.4324    1.1322   -0.5981 C   0  0  0  0  0  0  0  0  0  0  0  0
    0.0813    1.3006   -0.4505 N   0  0  0  0  0  0  0  0  0  0  0  0
   -0.1616    2.5667   -0.7785 C   0  0  0  0  0  0  0  0  0  0  0  0
   -1.4973    3.1465   -0.7489 C   0  0  0  0  0  0  0  0  0  0  0  0
   -1.7511    4.3211   -1.0048 O   0  0  0  0  0  0  0  0  0  0  0  0
   -2.4678    2.2413   -0.3923 N   0  0  0  0  0  0  0  0  0  0  0  0
   -3.8436    2.6177   -0.2207 C   0  0  0  0  0  0  0  0  0  0  0  0
   -4.6982    1.4205    0.0877 C   0  0  0  0  0  0  0  0  0  0  0  0
   -5.2336    0.6431   -0.9418 C   0  0  0  0  0  0  0  0  0  0  0  0
   -6.0065   -0.4858   -0.6479 C   0  0  0  0  0  0  0  0  0  0  0  0
   -6.2639   -0.8848    0.6740 C   0  0  0  0  0  0  0  0  0  0  0  0
   -7.0476   -2.0224    0.9045 N   0  0  0  0  0  0  0  0  0  0  0  0
   -6.9624   -2.7355    2.1956 C   0  0  0  0  0  0  0  0  0  0  0  0
   -8.2101   -2.4590    3.0464 C   0  0  0  0  0  0  0  0  0  0  0  0
   -9.4350   -2.8881    2.4264 O   0  0  0  0  0  0  0  0  0  0  0  0
   -9.3494   -2.9609    0.9939 C   0  0  0  0  0  0  0  0  0  0  0  0
   -8.4322   -1.8883    0.3841 C   0  0  0  0  0  0  0  0  0  0  0  0
   -5.7070   -0.1032    1.6941 C   0  0  0  0  0  0  0  0  0  0  0  0
   -4.9336    1.0306    1.4093 C   0  0  0  0  0  0  0  0  0  0  0  0
    1.0087    3.2109   -1.1313 N   0  0  0  0  0  0  0  0  0  0  0  0
    1.1134    4.5816   -1.5697 C   0  0  0  0  0  0  0  0  0  0  0  0
    2.1625   -0.1396   -0.3401 C   0  0  0  0  0  0  0  0  0  0  0  0
    6.3616   -0.2667    0.3380 O   0  0  0  0  0  0  0  0  0  0  0  0
    7.6954   -0.5189    0.3516 C   0  0  0  0  0  0  0  0  0  0  0  0
    8.6467    0.2203    1.0511 C   0  0  0  0  0  0  0  0  0  0  0  0
    9.9738   -0.2059    0.9403 C   0  0  0  0  0  0  0  0  0  0  0  0
   10.3108   -1.3187    0.1663 C   0  0  0  0  0  0  0  0  0  0  0  0
    9.3278   -2.0428   -0.5242 C   0  0  0  0  0  0  0  0  0  0  0  0
    7.9856   -1.6283   -0.4298 C   0  0  0  0  0  0  0  0  0  0  0  0
  1  2  1  0
  2  3  2  0
  3  4  1  0
  4  5  2  0
  4  6  1  0
  6  7  1  0
  7  8  1  0
  8  9  1  0
  9 10  2  0
 10 11  1  0
 11 12  2  0
 12 13  1  0
 13 14  2  0
 13 15  1  0
 15 16  1  0
 16 17  1  0
 17 18  2  0
 18 19  1  0
 19 20  2  0
 20 21  1  0
 21 22  1  0
 22 23  1  0
 23 24  1  0
 24 25  1  0
 25 26  1  0
 20 27  1  0
 27 28  2  0
 12 29  1  0
 29 30  1  0
 10 31  1  0
  3 32  1  0
 32 33  1  0
 33 34  2  0
 34 35  1  0
 35 36  2  0
 36 37  1  0
 37 38  2  0
 38  2  1  0
 31  6  1  0
 38 33  1  0
 29  9  1  0
 28 17  1  0
 26 21  1  0
M  END
>  <SMILES>  (1) 
Cc1c(C(=O)N2CCc3c(nc(C(=O)NCc4ccc(N5CCOCC5)cc4)n3C)C2)oc2ccccc12

$$$$
