NC-002
     RDKit          3D

 40 45  0  0  0  0  0  0  0  0999 V2000
   -6.6894   -3.6354    0.1861 C   0  0  0  0  0  0  0  0  0  0  0  0
   -5.7771   -2.6117    0.7587 C   0  0  0  0  0  0  0  0  0  0  0  0
   -5.3965   -1.4153    0.1564 C   0  0  0  0  0  0  0  0  0  0  0  0
   -5.8010   -0.8306   -1.1169 C   0  0  0  0  0  0  0  0  0  0  0  0
   -6.8721   -1.1498   -1.6386 O   0  0  0  0  0  0  0  0  0  0  0  0
   -4.9643    0.0960   -1.7479 N   0  0  0  0  0  0  0  0  0  0  0  0
   -5.5198    0.9170   -2.8453 C   0  0  0  0  0  0  0  0  0  0  0  0
   -4.6595    0.8725   -4.1281 C   0  0  0  0  0  0  0  0  0  0  0  0
   -3.2401    1.0504   -3.7380 C   0  0  0  0  0  0  0  0  0  0  0  0
   -2.7558    0.8381   -2.4677 C   0  0  0  0  0  0  0  0  0  0  0  0
   -1.4113    1.0897   -2.4181 N   0  0  0  0  0  0  0  0  0  0  0  0
   -1.0655    1.4385   -3.6550 C   0  0  0  0  0  0  0  0  0  0  0  0
    0.2993    1.7923   -4.0208 C   0  0  0  0  0  0  0  0  0  0  0  0
    0.6463    2.1583   -5.1409 O   0  0  0  0  0  0  0  0  0  0  0  0
    1.1796    1.6857   -2.9709 N   0  0  0  0  0  0  0  0  0  0  0  0
    2.5550    2.0884   -3.0766 C   0  0  0  0  0  0  0  0  0  0  0  0
    3.3102    1.7586   -1.8203 C   0  0  0  0  0  0  0  0  0  0  0  0
    3.8421    0.4833   -1.6218 C   0  0  0  0  0  0  0  0  0  0  0  0
    4.5209    0.1705   -0.4359 C   0  0  0  0  0  0  0  0  0  0  0  0
    4.6894    1.1050    0.5982 C   0  0  0  0  0  0  0  0  0  0  0  0
    5.3570    0.7861    1.7682 N   0  0  0  0  0  0  0  0  0  0  0  0
    5.2075    1.5877    2.9940 C   0  0  0  0  0  0  0  0  0  0  0  0
    5.5050    0.7281    4.2448 C   0  0  0  0  0  0  0  0  0  0  0  0
    6.8726    0.1656    4.2838 N   0  0  0  0  0  0  0  0  0  0  0  0
    6.9091   -1.0333    5.1166 C   0  0  0  0  0  0  0  0  0  0  0  0
    7.3847   -0.0944    2.9220 C   0  0  0  0  0  0  0  0  0  0  0  0
    6.3128   -0.3322    1.8313 C   0  0  0  0  0  0  0  0  0  0  0  0
    4.1343    2.3757    0.3807 C   0  0  0  0  0  0  0  0  0  0  0  0
    3.4545    2.7016   -0.8015 C   0  0  0  0  0  0  0  0  0  0  0  0
   -2.1637    1.4145   -4.4938 N   0  0  0  0  0  0  0  0  0  0  0  0
   -2.1489    1.7097   -5.9061 C   0  0  0  0  0  0  0  0  0  0  0  0
   -3.5833    0.3980   -1.3033 C   0  0  0  0  0  0  0  0  0  0  0  0
   -4.5765   -0.7187    1.0032 O   0  0  0  0  0  0  0  0  0  0  0  0
   -4.4006   -1.4677    2.1211 C   0  0  0  0  0  0  0  0  0  0  0  0
   -3.6149   -1.1058    3.2122 C   0  0  0  0  0  0  0  0  0  0  0  0
   -3.5731   -2.0197    4.2665 C   0  0  0  0  0  0  0  0  0  0  0  0
   -2.6237   -1.6521    5.6571 Cl  0  0  0  0  0  0  0  0  0  0  0  0
   -4.2819   -3.2224    4.2226 C   0  0  0  0  0  0  0  0  0  0  0  0
   -5.0645   -3.5529    3.1062 C   0  0  0  0  0  0  0  0  0  0  0  0
   -5.1209   -2.6503    2.0271 C   0  0  0  0  0  0  0  0  0  0  0  0
  1  2  1  0
  2  3  2  0
  3  4  1  0
  4  5  2  0
  4  6  1  0
  6  7  1  0
  7  8  1  0
  8  9  1  0
  9 10  2  0
 10 11  1  0
 11 12  2  0
 12 13  1  0
 13 14  2  0
 13 15  1  0
 15 16  1  0
 16 17  1  0
 17 18  2  0
 18 19  1  0
 19 20  2  0
 20 21  1  0
 21 22  1  0
 22 23  1  0
 23 24  1  0
 24 25  1  0
 24 26  1  0
 26 27  1  0
 20 28  1  0
 28 29  2  0
 12 30  1  0
 30 31  1  0
 10 32  1  0
  3 33  1  0
 33 34  1  0
 34 35  2  0
 35 36  1  0
 36 37  1  0
 36 38  2  0
 38 39  1  0
 39 40  2  0
 40  2  1  0
 32  6  1  0
 40 34  1  0
 30  9  1  0
 29 17  1  0
 27 21  1  0
M  END
>  <SMILES>  (1) 
Cc1c(C(=O)N2CCc3c(nc(C(=O)NCc4ccc(N5CCN(C)CC5)cc4)n3C)C2)oc2cc(Cl)ccc12

$$$$
