NC-008
     RDKit          3D

 39 44  0  0  0  0  0  0  0  0999 V2000
   -6.2596   -2.2479   -3.3040 C   0  0  0  0  0  0  0  0  0  0  0  0
   -5.9962   -0.9564   -2.6188 C   0  0  0  0  0  0  0  0  0  0  0  0
   -5.7018   -0.7816   -1.2691 C   0  0  0  0  0  0  0  0  0  0  0  0
   -5.6217   -1.7562   -0.1878 C   0  0  0  0  0  0  0  0  0  0  0  0
   -6.2239   -2.8300   -0.2666 O   0  0  0  0  0  0  0  0  0  0  0  0
   -4.8534   -1.4677    0.9452 N   0  0  0  0  0  0  0  0  0  0  0  0
   -5.0427   -2.2936    2.1564 C   0  0  0  0  0  0  0  0  0  0  0  0
   -3.7183   -2.8660    2.7089 C   0  0  0  0  0  0  0  0  0  0  0  0
   -2.7163   -1.7730    2.7284 C   0  0  0  0  0  0  0  0  0  0  0  0
   -2.8160   -0.6204    1.9832 C   0  0  0  0  0  0  0  0  0  0  0  0
   -1.7444    0.1979    2.2198 N   0  0  0  0  0  0  0  0  0  0  0  0
   -0.9802   -0.4539    3.0924 C   0  0  0  0  0  0  0  0  0  0  0  0
    0.2742    0.0870    3.5986 C   0  0  0  0  0  0  0  0  0  0  0  0
    1.0152   -0.4981    4.3855 O   0  0  0  0  0  0  0  0  0  0  0  0
    0.5635    1.3329    3.0950 N   0  0  0  0  0  0  0  0  0  0  0  0
    1.8364    1.9823    3.2963 C   0  0  0  0  0  0  0  0  0  0  0  0
    2.8196    1.6445    2.2006 C   0  0  0  0  0  0  0  0  0  0  0  0
    2.8788    2.4772    1.1372 N   0  0  0  0  0  0  0  0  0  0  0  0
    3.7423    2.1448    0.1411 C   0  0  0  0  0  0  0  0  0  0  0  0
    4.5914    1.0302    0.1189 C   0  0  0  0  0  0  0  0  0  0  0  0
    5.4503    0.7768   -0.9621 N   0  0  0  0  0  0  0  0  0  0  0  0
    6.1382   -0.5301   -1.0162 C   0  0  0  0  0  0  0  0  0  0  0  0
    6.8643   -0.7280   -2.3684 C   0  0  0  0  0  0  0  0  0  0  0  0
    7.7837    0.3612   -2.7609 N   0  0  0  0  0  0  0  0  0  0  0  0
    8.9909    0.3755   -1.9388 C   0  0  0  0  0  0  0  0  0  0  0  0
    7.0522    1.6433   -2.6808 C   0  0  0  0  0  0  0  0  0  0  0  0
    6.3184    1.9170   -1.3447 C   0  0  0  0  0  0  0  0  0  0  0  0
    4.4692    0.1881    1.2284 C   0  0  0  0  0  0  0  0  0  0  0  0
    3.5884    0.4891    2.2723 C   0  0  0  0  0  0  0  0  0  0  0  0
   -1.5421   -1.6742    3.4168 N   0  0  0  0  0  0  0  0  0  0  0  0
   -0.9704   -2.6518    4.3105 C   0  0  0  0  0  0  0  0  0  0  0  0
   -3.9399   -0.3050    1.0486 C   0  0  0  0  0  0  0  0  0  0  0  0
   -5.5581    0.5536   -1.0014 O   0  0  0  0  0  0  0  0  0  0  0  0
   -5.7219    1.2295   -2.1667 C   0  0  0  0  0  0  0  0  0  0  0  0
   -5.6336    2.6120   -2.3137 C   0  0  0  0  0  0  0  0  0  0  0  0
   -5.8403    3.1173   -3.6009 C   0  0  0  0  0  0  0  0  0  0  0  0
   -6.1220    2.2665   -4.6722 C   0  0  0  0  0  0  0  0  0  0  0  0
   -6.2051    0.8782   -4.4895 C   0  0  0  0  0  0  0  0  0  0  0  0
   -5.9963    0.3478   -3.2022 C   0  0  0  0  0  0  0  0  0  0  0  0
  1  2  1  0
  2  3  2  0
  3  4  1  0
  4  5  2  0
  4  6  1  0
  6  7  1  0
  7  8  1  0
  8  9  1  0
  9 10  2  0
 10 11  1  0
 11 12  2  0
 12 13  1  0
 13 14  2  0
 13 15  1  0
 15 16  1  0
 16 17  1  0
 17 18  2  0
 18 19  1  0
 19 20  2  0
 20 21  1  0
 21 22  1  0
 22 23  1  0
 23 24  1  0
 24 25  1  0
 24 26  1  0
 26 27  1  0
 20 28  1  0
 28 29  2  0
 12 30  1  0
 30 31  1  0
 10 32  1  0
  3 33  1  0
 33 34  1  0
 34 35  2  0
 35 36  1  0
 36 37  2  0
 37 38  1  0
 38 39  2  0
 39  2  1  0
 32  6  1  0
 39 34  1  0
 30  9  1  0
 29 17  1  0
 27 21  1  0
M  END
>  <SMILES>  (1) 
Cc1c(C(=O)N2CCc3c(nc(C(=O)NCc4ncc(N5CCN(C)CC5)cc4)n3C)C2)oc2ccccc12

$$$$
