NC-001
     RDKit          3D

 40 45  0  0  0  0  0  0  0  0999 V2000
    5.3107    3.3685    0.9682 C   0  0  0  0  0  0  0  0  0  0  0  0
    6.0462    2.1705    0.4891 C   0  0  0  0  0  0  0  0  0  0  0  0
    6.1413    0.9293    1.1124 C   0  0  0  0  0  0  0  0  0  0  0  0
    5.5860    0.4023    2.3461 C   0  0  0  0  0  0  0  0  0  0  0  0
    6.2883   -0.1733    3.1783 O   0  0  0  0  0  0  0  0  0  0  0  0
    4.2204    0.6116    2.5847 N   0  0  0  0  0  0  0  0  0  0  0  0
    3.6875    0.1690    3.8892 C   0  0  0  0  0  0  0  0  0  0  0  0
    3.1949   -1.2991    3.8453 C   0  0  0  0  0  0  0  0  0  0  0  0
    2.4034   -1.4803    2.5978 C   0  0  0  0  0  0  0  0  0  0  0  0
    2.4270   -0.6142    1.5259 C   0  0  0  0  0  0  0  0  0  0  0  0
    1.5964   -1.0527    0.5318 N   0  0  0  0  0  0  0  0  0  0  0  0
    1.0797   -2.1962    0.9779 C   0  0  0  0  0  0  0  0  0  0  0  0
    0.1312   -2.9872    0.2039 C   0  0  0  0  0  0  0  0  0  0  0  0
   -0.3879   -4.0277    0.5999 O   0  0  0  0  0  0  0  0  0  0  0  0
   -0.1353   -2.4387   -1.0295 N   0  0  0  0  0  0  0  0  0  0  0  0
   -1.1687   -2.9312   -1.9010 C   0  0  0  0  0  0  0  0  0  0  0  0
   -2.4381   -2.1404   -1.7327 C   0  0  0  0  0  0  0  0  0  0  0  0
   -3.3526   -2.4678   -0.7296 C   0  0  0  0  0  0  0  0  0  0  0  0
   -4.5249   -1.7184   -0.5596 C   0  0  0  0  0  0  0  0  0  0  0  0
   -4.8290   -0.6131   -1.3692 C   0  0  0  0  0  0  0  0  0  0  0  0
   -5.9897    0.1230   -1.2019 N   0  0  0  0  0  0  0  0  0  0  0  0
   -6.1000    1.5095   -1.6849 C   0  0  0  0  0  0  0  0  0  0  0  0
   -7.1015    2.3249   -0.8320 C   0  0  0  0  0  0  0  0  0  0  0  0
   -8.4604    1.7563   -0.7128 N   0  0  0  0  0  0  0  0  0  0  0  0
   -9.3952    2.3812   -1.6442 C   0  0  0  0  0  0  0  0  0  0  0  0
   -8.4463    0.2886   -0.8985 C   0  0  0  0  0  0  0  0  0  0  0  0
   -7.1378   -0.3971   -0.4410 C   0  0  0  0  0  0  0  0  0  0  0  0
   -3.8901   -0.2977   -2.3645 C   0  0  0  0  0  0  0  0  0  0  0  0
   -2.7142   -1.0398   -2.5455 C   0  0  0  0  0  0  0  0  0  0  0  0
    1.5629   -2.4936    2.2384 N   0  0  0  0  0  0  0  0  0  0  0  0
    1.2378   -3.6696    3.0085 C   0  0  0  0  0  0  0  0  0  0  0  0
    3.2367    0.6447    1.4764 C   0  0  0  0  0  0  0  0  0  0  0  0
    6.9585    0.1058    0.3880 O   0  0  0  0  0  0  0  0  0  0  0  0
    7.3575    0.7886   -0.7139 C   0  0  0  0  0  0  0  0  0  0  0  0
    8.1888    0.2864   -1.7143 C   0  0  0  0  0  0  0  0  0  0  0  0
    8.4851    1.1534   -2.7701 C   0  0  0  0  0  0  0  0  0  0  0  0
    7.9651    2.4453   -2.7936 C   0  0  0  0  0  0  0  0  0  0  0  0
    8.2699    3.2511   -3.8201 F   0  0  0  0  0  0  0  0  0  0  0  0
    7.1348    2.9288   -1.7783 C   0  0  0  0  0  0  0  0  0  0  0  0
    6.8216    2.0704   -0.7083 C   0  0  0  0  0  0  0  0  0  0  0  0
  1  2  1  0
  2  3  2  0
  3  4  1  0
  4  5  2  0
  4  6  1  0
  6  7  1  0
  7  8  1  0
  8  9  1  0
  9 10  2  0
 10 11  1  0
 11 12  2  0
 12 13  1  0
 13 14  2  0
 13 15  1  0
 15 16  1  0
 16 17  1  0
 17 18  2  0
 18 19  1  0
 19 20  2  0
 20 21  1  0
 21 22  1  0
 22 23  1  0
 23 24  1  0
 24 25  1  0
 24 26  1  0
 26 27  1  0
 20 28  1  0
 28 29  2  0
 12 30  1  0
 30 31  1  0
 10 32  1  0
  3 33  1  0
 33 34  1  0
 34 35  2  0
 35 36  1  0
 36 37  2  0
 37 38  1  0
 37 39  1  0
 39 40  2  0
 40  2  1  0
 32  6  1  0
 40 34  1  0
 30  9  1  0
 29 17  1  0
 27 21  1  0
M  END
>  <SMILES>  (1) 
Cc1c(C(=O)N2CCc3c(nc(C(=O)NCc4ccc(N5CCN(C)CC5)cc4)n3C)C2)oc2ccc(F)cc12

$$$$
