NC-005
     RDKit          3D

 38 43  0  0  0  0  0  0  0  0999 V2000
   -8.2523    1.5064    2.1726 C   0  0  0  0  0  0  0  0  0  0  0  0
   -7.0271    1.9366    1.4509 C   0  0  0  0  0  0  0  0  0  0  0  0
   -5.7164    1.5879    1.7662 C   0  0  0  0  0  0  0  0  0  0  0  0
   -5.1932    0.7857    2.8655 C   0  0  0  0  0  0  0  0  0  0  0  0
   -5.8393    0.6558    3.9083 O   0  0  0  0  0  0  0  0  0  0  0  0
   -3.9497    0.1580    2.7312 N   0  0  0  0  0  0  0  0  0  0  0  0
   -3.2883   -0.3650    3.9483 C   0  0  0  0  0  0  0  0  0  0  0  0
   -2.8470   -1.8397    3.8092 C   0  0  0  0  0  0  0  0  0  0  0  0
   -2.1799   -1.9892    2.4981 C   0  0  0  0  0  0  0  0  0  0  0  0
   -2.3305   -1.1279    1.4365 C   0  0  0  0  0  0  0  0  0  0  0  0
   -1.5758   -1.5456    0.3699 N   0  0  0  0  0  0  0  0  0  0  0  0
   -0.9804   -2.6601    0.7799 C   0  0  0  0  0  0  0  0  0  0  0  0
   -0.0756   -3.4584   -0.0247 C   0  0  0  0  0  0  0  0  0  0  0  0
    0.4748   -4.4733    0.3934 O   0  0  0  0  0  0  0  0  0  0  0  0
    0.1038   -2.9584   -1.2918 N   0  0  0  0  0  0  0  0  0  0  0  0
    1.0817   -3.4807   -2.2090 C   0  0  0  0  0  0  0  0  0  0  0  0
    2.3589   -2.6868   -2.1446 C   0  0  0  0  0  0  0  0  0  0  0  0
    2.5711   -1.5970   -2.9916 C   0  0  0  0  0  0  0  0  0  0  0  0
    3.7547   -0.8536   -2.9065 C   0  0  0  0  0  0  0  0  0  0  0  0
    4.7581   -1.1549   -1.9702 C   0  0  0  0  0  0  0  0  0  0  0  0
    5.9300   -0.3816   -1.9340 N   0  0  0  0  0  0  0  0  0  0  0  0
    7.0955   -0.9202   -1.2038 C   0  0  0  0  0  0  0  0  0  0  0  0
    8.3521   -0.0510   -1.4509 C   0  0  0  0  0  0  0  0  0  0  0  0
    8.1899    1.3934   -1.1715 N   0  0  0  0  0  0  0  0  0  0  0  0
    8.1007    1.6605    0.2619 C   0  0  0  0  0  0  0  0  0  0  0  0
    6.9921    1.8792   -1.8918 C   0  0  0  0  0  0  0  0  0  0  0  0
    5.6960    1.0590   -1.6752 C   0  0  0  0  0  0  0  0  0  0  0  0
    4.5301   -2.2565   -1.1336 C   0  0  0  0  0  0  0  0  0  0  0  0
    3.3479   -3.0054   -1.2098 C   0  0  0  0  0  0  0  0  0  0  0  0
   -1.3280   -2.9629    2.0775 N   0  0  0  0  0  0  0  0  0  0  0  0
   -3.1924    0.0937    1.4568 C   0  0  0  0  0  0  0  0  0  0  0  0
   -4.8571    2.2056    0.8972 O   0  0  0  0  0  0  0  0  0  0  0  0
   -5.6022    2.9159    0.0127 C   0  0  0  0  0  0  0  0  0  0  0  0
   -5.0946    3.6733   -1.0405 C   0  0  0  0  0  0  0  0  0  0  0  0
   -6.0303    4.3381   -1.8390 C   0  0  0  0  0  0  0  0  0  0  0  0
   -7.3990    4.2390   -1.5789 C   0  0  0  0  0  0  0  0  0  0  0  0
   -7.8770    3.4684   -0.5087 C   0  0  0  0  0  0  0  0  0  0  0  0
   -6.9522    2.7877    0.3058 C   0  0  0  0  0  0  0  0  0  0  0  0
  1  2  1  0
  2  3  2  0
  3  4  1  0
  4  5  2  0
  4  6  1  0
  6  7  1  0
  7  8  1  0
  8  9  1  0
  9 10  2  0
 10 11  1  0
 11 12  2  0
 12 13  1  0
 13 14  2  0
 13 15  1  0
 15 16  1  0
 16 17  1  0
 17 18  2  0
 18 19  1  0
 19 20  2  0
 20 21  1  0
 21 22  1  0
 22 23  1  0
 23 24  1  0
 24 25  1  0
 24 26  1  0
 26 27  1  0
 20 28  1  0
 28 29  2  0
 12 30  1  0
 10 31  1  0
  3 32  1  0
 32 33  1  0
 33 34  2  0
 34 35  1  0
 35 36  2  0
 36 37  1  0
 37 38  2  0
 38  2  1  0
 31  6  1  0
 38 33  1  0
 30  9  1  0
 29 17  1  0
 27 21  1  0
M  END
>  <SMILES>  (1) 
Cc1c(C(=O)N2CCc3c(nc(C(=O)NCc4ccc(N5CCN(C)CC5)cc4)[nH]3)C2)oc2ccccc12

$$$$
