NC-010
     RDKit          3D

 39 44  0  0  0  0  0  0  0  0999 V2000
   -5.8495    0.3087    2.7100 C   0  0  0  0  0  0  0  0  0  0  0  0
   -6.2588    0.3471    1.2708 C   0  0  0  0  0  0  0  0  0  0  0  0
   -6.1297   -0.7098    0.3817 C   0  0  0  0  0  0  0  0  0  0  0  0
   -5.5708   -2.0348    0.5980 C   0  0  0  0  0  0  0  0  0  0  0  0
   -6.2388   -3.0566    0.4350 O   0  0  0  0  0  0  0  0  0  0  0  0
   -4.2451   -2.1088    1.0451 N   0  0  0  0  0  0  0  0  0  0  0  0
   -3.6884   -3.4532    1.2964 C   0  0  0  0  0  0  0  0  0  0  0  0
   -3.0016   -4.0332    0.0345 C   0  0  0  0  0  0  0  0  0  0  0  0
   -2.1706   -2.9574   -0.5735 C   0  0  0  0  0  0  0  0  0  0  0  0
   -2.2845   -1.6171   -0.2710 C   0  0  0  0  0  0  0  0  0  0  0  0
   -1.3892   -0.8803   -0.9963 N   0  0  0  0  0  0  0  0  0  0  0  0
   -0.7426   -1.7578   -1.7613 C   0  0  0  0  0  0  0  0  0  0  0  0
    0.3063   -1.3661   -2.6946 C   0  0  0  0  0  0  0  0  0  0  0  0
    0.9493   -2.1540   -3.3835 O   0  0  0  0  0  0  0  0  0  0  0  0
    0.5124   -0.0062   -2.7203 N   0  0  0  0  0  0  0  0  0  0  0  0
    1.6005    0.6109   -3.4308 C   0  0  0  0  0  0  0  0  0  0  0  0
    2.7723    0.8537   -2.5176 C   0  0  0  0  0  0  0  0  0  0  0  0
    2.9176    2.0668   -1.8415 C   0  0  0  0  0  0  0  0  0  0  0  0
    4.0018    2.2721   -0.9794 C   0  0  0  0  0  0  0  0  0  0  0  0
    4.9673    1.2780   -0.7469 C   0  0  0  0  0  0  0  0  0  0  0  0
    6.0403    1.5404    0.1204 N   0  0  0  0  0  0  0  0  0  0  0  0
    7.2075    0.6364    0.0748 C   0  0  0  0  0  0  0  0  0  0  0  0
    8.3729    1.1954    0.9263 C   0  0  0  0  0  0  0  0  0  0  0  0
    8.0321    1.5292    2.3275 N   0  0  0  0  0  0  0  0  0  0  0  0
    7.8181    0.3293    3.1327 C   0  0  0  0  0  0  0  0  0  0  0  0
    6.8385    2.4037    2.3246 C   0  0  0  0  0  0  0  0  0  0  0  0
    5.6304    1.8931    1.5003 C   0  0  0  0  0  0  0  0  0  0  0  0
    4.8081    0.0696   -1.4395 C   0  0  0  0  0  0  0  0  0  0  0  0
    3.7252   -0.1461   -2.3027 C   0  0  0  0  0  0  0  0  0  0  0  0
   -1.2045   -3.0405   -1.5338 N   0  0  0  0  0  0  0  0  0  0  0  0
   -0.7494   -4.2311   -2.2100 C   0  0  0  0  0  0  0  0  0  0  0  0
   -3.2461   -1.0591    0.7327 C   0  0  0  0  0  0  0  0  0  0  0  0
   -6.7728   -0.3521   -1.1545 S   0  0  0  0  0  0  0  0  0  0  0  0
   -7.1700    1.2562   -0.7044 C   0  0  0  0  0  0  0  0  0  0  0  0
   -7.7565    2.2407   -1.5248 C   0  0  0  0  0  0  0  0  0  0  0  0
   -8.0171    3.5031   -0.9898 C   0  0  0  0  0  0  0  0  0  0  0  0
   -7.7050    3.7838    0.3316 C   0  0  0  0  0  0  0  0  0  0  0  0
   -7.1249    2.8028    1.1419 C   0  0  0  0  0  0  0  0  0  0  0  0
   -6.8434    1.5091    0.6303 C   0  0  0  0  0  0  0  0  0  0  0  0
  1  2  1  0
  2  3  2  0
  3  4  1  0
  4  5  2  0
  4  6  1  0
  6  7  1  0
  7  8  1  0
  8  9  1  0
  9 10  2  0
 10 11  1  0
 11 12  2  0
 12 13  1  0
 13 14  2  0
 13 15  1  0
 15 16  1  0
 16 17  1  0
 17 18  2  0
 18 19  1  0
 19 20  2  0
 20 21  1  0
 21 22  1  0
 22 23  1  0
 23 24  1  0
 24 25  1  0
 24 26  1  0
 26 27  1  0
 20 28  1  0
 28 29  2  0
 12 30  1  0
 30 31  1  0
 10 32  1  0
  3 33  1  0
 33 34  1  0
 34 35  2  0
 35 36  1  0
 36 37  2  0
 37 38  1  0
 38 39  2  0
 39  2  1  0
 32  6  1  0
 39 34  1  0
 30  9  1  0
 29 17  1  0
 27 21  1  0
M  END
>  <SMILES>  (1) 
Cc1c(C(=O)N2CCc3c(nc(C(=O)NCc4ccc(N5CCN(C)CC5)cc4)n3C)C2)sc2ccccc12

$$$$
