
     RDKit          2D

 39 43  0  0  0  0  0  0  0  0999 V2000
    3.0000   -2.5981    0.0000 O   0  0  0  0  0  0  0  0  0  0  0  0
    1.5000   -2.5981    0.0000 C   0  0  0  0  0  0  0  0  0  0  0  0
    0.7500   -1.2990    0.0000 C   0  0  0  0  0  0  0  0  0  0  0  0
    1.5000    0.0000    0.0000 C   0  0  0  0  0  0  0  0  0  0  0  0
    0.7500    1.2990    0.0000 C   0  0  0  0  0  0  0  0  0  0  0  0
   -0.7500    1.2990    0.0000 C   0  0  0  0  0  0  0  0  0  0  0  0
   -1.5000    2.5981    0.0000 C   0  0  0  0  0  0  0  0  0  0  0  0
   -3.0000    2.5981    0.0000 C   0  0  0  0  0  0  0  0  0  0  0  0
   -3.7500    1.2990    0.0000 N   0  0  0  0  0  0  0  0  0  0  0  0
   -3.0000    0.0000    0.0000 C   0  0  0  0  0  0  0  0  0  0  0  0
   -5.2500    1.2990    0.0000 C   0  0  0  0  0  0  0  0  0  0  0  0
   -6.0000    2.5981    0.0000 C   0  0  0  0  0  0  0  0  0  0  0  0
   -5.2500    3.8971    0.0000 C   0  0  0  0  0  0  0  0  0  0  0  0
   -6.0000    5.1962    0.0000 C   0  0  0  0  0  0  0  0  0  0  0  0
   -7.5000    2.5981    0.0000 C   0  0  0  0  0  0  0  0  0  0  0  0
   -8.2500    3.8971    0.0000 N   0  0  0  0  0  0  0  0  0  0  0  0
   -7.5000    5.1962    0.0000 C   0  0  0  0  0  0  0  0  0  0  0  0
   -8.2500    6.4952    0.0000 O   0  0  0  0  0  0  0  0  0  0  0  0
   -7.5000    7.7942    0.0000 C   0  0  0  0  0  0  0  0  0  0  0  0
   -8.2500    9.0933    0.0000 C   0  0  0  0  0  0  0  0  0  0  0  0
   -9.0000   10.3923    0.0000 F   0  0  0  0  0  0  0  0  0  0  0  0
   -6.9510    9.8433    0.0000 F   0  0  0  0  0  0  0  0  0  0  0  0
   -9.5490    8.3433    0.0000 F   0  0  0  0  0  0  0  0  0  0  0  0
   -6.0000    0.0000    0.0000 O   0  0  0  0  0  0  0  0  0  0  0  0
   -1.5000    0.0000    0.0000 C   0  0  0  0  0  0  0  0  0  0  0  0
   -0.7500   -1.2990    0.0000 N   0  0  0  0  0  0  0  0  0  0  0  0
    0.7500   -3.8971    0.0000 N   0  0  0  0  0  0  0  0  0  0  0  0
    1.5000   -5.1962    0.0000 C   0  0  0  0  0  0  0  0  0  0  0  0
    0.7500   -6.4952    0.0000 C   0  0  0  0  0  0  0  0  0  0  0  0
   -0.7500   -6.4952    0.0000 C   0  0  0  0  0  0  0  0  0  0  0  0
   -1.5000   -7.7942    0.0000 C   0  0  0  0  0  0  0  0  0  0  0  0
   -0.7500   -9.0933    0.0000 C   0  0  0  0  0  0  0  0  0  0  0  0
    0.7500   -9.0933    0.0000 C   0  0  0  0  0  0  0  0  0  0  0  0
    1.5000   -7.7942    0.0000 C   0  0  0  0  0  0  0  0  0  0  0  0
    3.0000   -7.7942    0.0000 N   0  0  0  0  0  0  0  0  0  0  0  0
    3.8817   -6.5807    0.0000 C   0  0  0  0  0  0  0  0  0  0  0  0
    5.3083   -7.0442    0.0000 C   0  0  0  0  0  0  0  0  0  0  0  0
    5.3083   -8.5442    0.0000 C   0  0  0  0  0  0  0  0  0  0  0  0
    3.8817   -9.0078    0.0000 C   0  0  0  0  0  0  0  0  0  0  0  0
  1  2  2  0
  2  3  1  0
  3  4  2  0
  4  5  1  0
  5  6  2  0
  6  7  1  0
  7  8  1  0
  8  9  1  0
  9 10  1  0
  9 11  1  0
 11 12  1  0
 12 13  2  0
 13 14  1  0
 12 15  1  0
 15 16  2  0
 16 17  1  0
 17 18  1  0
 18 19  1  0
 19 20  1  0
 20 21  1  0
 20 22  1  0
 20 23  1  0
 11 24  2  0
  6 25  1  0
 25 26  2  0
  2 27  1  0
 27 28  1  0
 28 29  1  0
 29 30  2  0
 30 31  1  0
 31 32  2  0
 32 33  1  0
 29 34  1  0
 34 35  1  0
 35 36  1  0
 36 37  2  0
 37 38  1  0
 38 39  2  0
 26  3  1  0
 34 33  2  0
 39 35  1  0
 25 10  1  0
 17 14  2  0
M  END
>  <EDS_Number>  (1) 
EDS00495858

>  <Smiles_std>  (1) 
O=C(NCc1ccccc1-n1cccc1)c1ccc2c(n1)CN(C(=O)c1ccc(OCC(F)(F)F)nc1)CC2

>  <Smiles_original>  (1) 
O=C(c1ccc(CCN(C2)C(c(cc3)cnc3OCC(F)(F)F)=O)c2n1)NCc(cccc1)c1-[n]1cccc1

>  <InChIKey>  (1) 
OEFMJEAAHBKWMS-UHFFFAOYSA-N

>  <Stereo_Configuration>  (1) 
Achiral

>  <HIT_P841>  (1) 
Active

>  <AS_ratio>  (1) 
0.171957

>  <AS_ratio_2>  (1) 
0.780518

>  <Avg_BR>  (1) 
0.4762375

>  <Hit_rank>  (1) 
5

>  <RTmin>  (1) 
1.13

>  <RT_check_manual>  (1) 
OK

>  <MW>  (1) 
535.18

>  <cLogP>  (1) 
4.34

>  <HBD>  (1) 
1

>  <HBA>  (1) 
6

>  <TPSA>  (1) 
89.4

>  <RotBonds>  (1) 
7

>  <Cluster_ID>  (1) 
D

>  <Cluster_Name>  (1) 
Top_hit_CF3ether_pyridyl_THN_diamide

>  <Cluster_Size>  (1) 
1

>  <PAINS_flag>  (1) 
-

>  <BRENK_flag>  (1) 
-

>  <Recommendation>  (1) 
carry_forward_priority1

>  <Assay>  (1) 
ASMS_P841

>  <Clustering_method>  (1) 
ECFP4_Butina_Tc0.50

$$$$

     RDKit          2D

 39 44  0  0  0  0  0  0  0  0999 V2000
   -1.7455   -2.9392    0.0000 C   0  0  0  0  0  0  0  0  0  0  0  0
   -0.7418   -4.0539    0.0000 C   0  0  0  0  0  0  0  0  0  0  0  0
    0.7500   -3.8971    0.0000 C   0  0  0  0  0  0  0  0  0  0  0  0
    1.5000   -2.5981    0.0000 C   0  0  0  0  0  0  0  0  0  0  0  0
    0.7500   -1.2990    0.0000 N   0  0  0  0  0  0  0  0  0  0  0  0
    1.5000    0.0000    0.0000 C   0  0  0  0  0  0  0  0  0  0  0  0
    0.7500    1.2990    0.0000 C   0  0  0  0  0  0  0  0  0  0  0  0
   -0.7500   -1.2990    0.0000 C   0  0  0  0  0  0  0  0  0  0  0  0
   -1.5000    0.0000    0.0000 C   0  0  0  0  0  0  0  0  0  0  0  0
   -0.7500    1.2990    0.0000 C   0  0  0  0  0  0  0  0  0  0  0  0
   -1.5000    2.5981    0.0000 C   0  0  0  0  0  0  0  0  0  0  0  0
   -3.0000    2.5981    0.0000 C   0  0  0  0  0  0  0  0  0  0  0  0
   -3.7500    1.2990    0.0000 C   0  0  0  0  0  0  0  0  0  0  0  0
   -5.2500    1.2990    0.0000 C   0  0  0  0  0  0  0  0  0  0  0  0
   -6.0000    2.5981    0.0000 N   0  0  0  0  0  0  0  0  0  0  0  0
   -7.5000    2.5981    0.0000 C   0  0  0  0  0  0  0  0  0  0  0  0
   -8.2500    3.8971    0.0000 C   0  0  0  0  0  0  0  0  0  0  0  0
   -7.5000    5.1962    0.0000 C   0  0  0  0  0  0  0  0  0  0  0  0
   -8.2500    6.4952    0.0000 C   0  0  0  0  0  0  0  0  0  0  0  0
   -9.7500    3.8971    0.0000 C   0  0  0  0  0  0  0  0  0  0  0  0
  -10.5000    5.1962    0.0000 C   0  0  0  0  0  0  0  0  0  0  0  0
   -9.7500    6.4952    0.0000 C   0  0  0  0  0  0  0  0  0  0  0  0
  -10.5000    7.7942    0.0000 N   0  0  0  0  0  0  0  0  0  0  0  0
   -9.7500    9.0933    0.0000 C   0  0  0  0  0  0  0  0  0  0  0  0
  -10.5000   10.3923    0.0000 C   0  0  0  0  0  0  0  0  0  0  0  0
  -12.0000   10.3923    0.0000 N   0  0  0  0  0  0  0  0  0  0  0  0
  -12.7500   11.6913    0.0000 C   0  0  0  0  0  0  0  0  0  0  0  0
  -12.7500    9.0933    0.0000 C   0  0  0  0  0  0  0  0  0  0  0  0
  -12.0000    7.7942    0.0000 C   0  0  0  0  0  0  0  0  0  0  0  0
   -6.0000    0.0000    0.0000 O   0  0  0  0  0  0  0  0  0  0  0  0
   -3.0000    0.0000    0.0000 N   0  0  0  0  0  0  0  0  0  0  0  0
    3.0000   -2.5981    0.0000 O   0  0  0  0  0  0  0  0  0  0  0  0
    1.3601   -5.2674    0.0000 O   0  0  0  0  0  0  0  0  0  0  0  0
    0.2454   -6.2711    0.0000 C   0  0  0  0  0  0  0  0  0  0  0  0
   -1.0537   -5.5211    0.0000 C   0  0  0  0  0  0  0  0  0  0  0  0
   -2.3527   -6.2711    0.0000 C   0  0  0  0  0  0  0  0  0  0  0  0
   -2.3527   -7.7711    0.0000 C   0  0  0  0  0  0  0  0  0  0  0  0
   -1.0537   -8.5211    0.0000 C   0  0  0  0  0  0  0  0  0  0  0  0
    0.2454   -7.7711    0.0000 C   0  0  0  0  0  0  0  0  0  0  0  0
  1  2  1  0
  2  3  2  0
  3  4  1  0
  4  5  1  0
  5  6  1  0
  6  7  1  0
  5  8  1  0
  8  9  1  0
  9 10  2  0
 10 11  1  0
 11 12  2  0
 12 13  1  0
 13 14  1  0
 14 15  1  0
 15 16  1  0
 16 17  1  0
 17 18  2  0
 18 19  1  0
 17 20  1  0
 20 21  2  0
 21 22  1  0
 22 23  1  0
 23 24  1  0
 24 25  1  0
 25 26  1  0
 26 27  1  0
 26 28  1  0
 28 29  1  0
 14 30  2  0
 13 31  2  0
  4 32  2  0
  3 33  1  0
 33 34  1  0
 34 35  2  0
 35 36  1  0
 36 37  2  0
 37 38  1  0
 38 39  2  0
 35  2  1  0
 10  7  1  0
 22 19  2  0
 29 23  1  0
 39 34  1  0
 31  9  1  0
M  END
>  <EDS_Number>  (2) 
EDS00480994

>  <Smiles_std>  (2) 
Cc1c(C(=O)N2CCc3ccc(C(=O)NCc4ccc(N5CCN(C)CC5)cc4)nc3C2)oc2ccccc12

>  <Smiles_original>  (2) 
Cc1c(C(N(CC2)Cc3c2ccc(C(NCc(cc2)ccc2N2CCN(C)CC2)=O)n3)=O)[o]c2c1cccc2

>  <InChIKey>  (2) 
LHIOXYHKLASLLH-UHFFFAOYSA-N

>  <Stereo_Configuration>  (2) 
Achiral

>  <HIT_P841>  (2) 
Active

>  <AS_ratio>  (2) 
0.0890564

>  <AS_ratio_2>  (2) 
0.432535

>  <Avg_BR>  (2) 
0.2607957

>  <Hit_rank>  (2) 
24

>  <RTmin>  (2) 
1.07

>  <RT_check_manual>  (2) 
OK

>  <MW>  (2) 
523.26

>  <cLogP>  (2) 
4.02

>  <HBD>  (2) 
1

>  <HBA>  (2) 
6

>  <TPSA>  (2) 
81.9

>  <RotBonds>  (2) 
5

>  <Cluster_ID>  (2) 
A

>  <Cluster_Name>  (2) 
Aryl_Nacyl_THN_diamide

>  <Cluster_Size>  (2) 
7

>  <PAINS_flag>  (2) 
anil_di_alk_E(186)

>  <BRENK_flag>  (2) 
-

>  <Recommendation>  (2) 
carry_forward_conditional_PAINS

>  <Assay>  (2) 
ASMS_P841

>  <Clustering_method>  (2) 
ECFP4_Butina_Tc0.50

$$$$

     RDKit          2D

 41 46  0  0  0  0  0  0  0  0999 V2000
   -3.7500  -14.2894    0.0000 C   0  0  0  0  0  0  0  0  0  0  0  0
   -3.0000  -12.9904    0.0000 N   0  0  0  0  0  0  0  0  0  0  0  0
   -3.7500  -11.6913    0.0000 C   0  0  0  0  0  0  0  0  0  0  0  0
   -3.0000  -10.3923    0.0000 C   0  0  0  0  0  0  0  0  0  0  0  0
   -1.5000  -12.9904    0.0000 C   0  0  0  0  0  0  0  0  0  0  0  0
   -0.7500  -11.6913    0.0000 C   0  0  0  0  0  0  0  0  0  0  0  0
   -1.5000  -10.3923    0.0000 N   0  0  0  0  0  0  0  0  0  0  0  0
   -0.7500   -9.0933    0.0000 C   0  0  0  0  0  0  0  0  0  0  0  0
    0.7500   -9.0933    0.0000 C   0  0  0  0  0  0  0  0  0  0  0  0
    1.5000   -7.7942    0.0000 C   0  0  0  0  0  0  0  0  0  0  0  0
    0.7500   -6.4952    0.0000 C   0  0  0  0  0  0  0  0  0  0  0  0
    1.5000   -5.1962    0.0000 C   0  0  0  0  0  0  0  0  0  0  0  0
    0.7500   -3.8971    0.0000 N   0  0  0  0  0  0  0  0  0  0  0  0
    1.5000   -2.5981    0.0000 C   0  0  0  0  0  0  0  0  0  0  0  0
    0.7500   -1.2990    0.0000 C   0  0  0  0  0  0  0  0  0  0  0  0
    1.5000    0.0000    0.0000 C   0  0  0  0  0  0  0  0  0  0  0  0
    0.7500    1.2990    0.0000 C   0  0  0  0  0  0  0  0  0  0  0  0
   -0.7500    1.2990    0.0000 C   0  0  0  0  0  0  0  0  0  0  0  0
   -1.5000    2.5981    0.0000 C   0  0  0  0  0  0  0  0  0  0  0  0
   -3.0000    2.5981    0.0000 C   0  0  0  0  0  0  0  0  0  0  0  0
   -3.7500    1.2990    0.0000 N   0  0  0  0  0  0  0  0  0  0  0  0
   -3.0000    0.0000    0.0000 C   0  0  0  0  0  0  0  0  0  0  0  0
   -5.2500    1.2990    0.0000 C   0  0  0  0  0  0  0  0  0  0  0  0
   -6.0000    2.5981    0.0000 C   0  0  0  0  0  0  0  0  0  0  0  0
   -5.2500    3.8971    0.0000 C   0  0  0  0  0  0  0  0  0  0  0  0
   -6.0000    5.1962    0.0000 C   0  0  0  0  0  0  0  0  0  0  0  0
   -7.5000    5.1962    0.0000 C   0  0  0  0  0  0  0  0  0  0  0  0
   -8.2500    3.8971    0.0000 C   0  0  0  0  0  0  0  0  0  0  0  0
   -9.7500    3.8971    0.0000 C   0  0  0  0  0  0  0  0  0  0  0  0
  -10.5000    5.1962    0.0000 C   0  0  0  0  0  0  0  0  0  0  0  0
   -9.7500    6.4952    0.0000 C   0  0  0  0  0  0  0  0  0  0  0  0
   -8.2500    6.4952    0.0000 C   0  0  0  0  0  0  0  0  0  0  0  0
   -7.5000    2.5981    0.0000 C   0  0  0  0  0  0  0  0  0  0  0  0
   -8.2500    1.2990    0.0000 O   0  0  0  0  0  0  0  0  0  0  0  0
   -9.7500    1.2990    0.0000 C   0  0  0  0  0  0  0  0  0  0  0  0
   -6.0000    0.0000    0.0000 O   0  0  0  0  0  0  0  0  0  0  0  0
   -1.5000    0.0000    0.0000 C   0  0  0  0  0  0  0  0  0  0  0  0
   -0.7500   -1.2990    0.0000 N   0  0  0  0  0  0  0  0  0  0  0  0
    3.0000   -2.5981    0.0000 O   0  0  0  0  0  0  0  0  0  0  0  0
   -0.7500   -6.4952    0.0000 C   0  0  0  0  0  0  0  0  0  0  0  0
   -1.5000   -7.7942    0.0000 C   0  0  0  0  0  0  0  0  0  0  0  0
  1  2  1  0
  2  3  1  0
  3  4  1  0
  2  5  1  0
  5  6  1  0
  6  7  1  0
  7  8  1  0
  8  9  2  0
  9 10  1  0
 10 11  2  0
 11 12  1  0
 12 13  1  0
 13 14  1  0
 14 15  1  0
 15 16  2  0
 16 17  1  0
 17 18  2  0
 18 19  1  0
 19 20  1  0
 20 21  1  0
 21 22  1  0
 21 23  1  0
 23 24  1  0
 24 25  2  0
 25 26  1  0
 26 27  2  0
 27 28  1  0
 28 29  1  0
 29 30  2  0
 30 31  1  0
 31 32  2  0
 24 33  1  0
 33 34  1  0
 34 35  1  0
 23 36  2  0
 18 37  1  0
 37 38  2  0
 14 39  2  0
 11 40  1  0
 40 41  2  0
  7  4  1  0
 41  8  1  0
 38 15  1  0
 37 22  1  0
 32 27  1  0
 33 28  2  0
M  END
>  <EDS_Number>  (3) 
EDS00490594

>  <Smiles_std>  (3) 
COc1c(C(=O)N2CCc3ccc(C(=O)NCc4ccc(N5CCN(C)CC5)cc4)nc3C2)ccc2ccccc12

>  <Smiles_original>  (3) 
CN(CC1)CCN1c1ccc(CNC(c2ccc(CCN(C3)C(c(ccc4c5cccc4)c5OC)=O)c3n2)=O)cc1

>  <InChIKey>  (3) 
GJXCATBZNIQNFK-UHFFFAOYSA-N

>  <Stereo_Configuration>  (3) 
Achiral

>  <HIT_P841>  (3) 
Active

>  <AS_ratio>  (3) 
0.0301407

>  <AS_ratio_2>  (3) 
0.0769323

>  <Avg_BR>  (3) 
0.0535365

>  <Hit_rank>  (3) 
157

>  <RTmin>  (3) 
1.05

>  <RT_check_manual>  (3) 
OK

>  <MW>  (3) 
549.27

>  <cLogP>  (3) 
4.12

>  <HBD>  (3) 
1

>  <HBA>  (3) 
6

>  <TPSA>  (3) 
78.0

>  <RotBonds>  (3) 
6

>  <Cluster_ID>  (3) 
A

>  <Cluster_Name>  (3) 
Aryl_Nacyl_THN_diamide

>  <Cluster_Size>  (3) 
7

>  <PAINS_flag>  (3) 
anil_di_alk_E(186)

>  <BRENK_flag>  (3) 
-

>  <Recommendation>  (3) 
conditional_deprioritise

>  <Assay>  (3) 
ASMS_P841

>  <Clustering_method>  (3) 
ECFP4_Butina_Tc0.50

$$$$

     RDKit          2D

 38 43  0  0  0  0  0  0  0  0999 V2000
   -3.7500  -14.2894    0.0000 C   0  0  0  0  0  0  0  0  0  0  0  0
   -3.0000  -12.9904    0.0000 N   0  0  0  0  0  0  0  0  0  0  0  0
   -3.7500  -11.6913    0.0000 C   0  0  0  0  0  0  0  0  0  0  0  0
   -3.0000  -10.3923    0.0000 C   0  0  0  0  0  0  0  0  0  0  0  0
   -1.5000  -12.9904    0.0000 C   0  0  0  0  0  0  0  0  0  0  0  0
   -0.7500  -11.6913    0.0000 C   0  0  0  0  0  0  0  0  0  0  0  0
   -1.5000  -10.3923    0.0000 N   0  0  0  0  0  0  0  0  0  0  0  0
   -0.7500   -9.0933    0.0000 C   0  0  0  0  0  0  0  0  0  0  0  0
    0.7500   -9.0933    0.0000 C   0  0  0  0  0  0  0  0  0  0  0  0
    1.5000   -7.7942    0.0000 C   0  0  0  0  0  0  0  0  0  0  0  0
    0.7500   -6.4952    0.0000 C   0  0  0  0  0  0  0  0  0  0  0  0
    1.5000   -5.1962    0.0000 C   0  0  0  0  0  0  0  0  0  0  0  0
    0.7500   -3.8971    0.0000 N   0  0  0  0  0  0  0  0  0  0  0  0
    1.5000   -2.5981    0.0000 C   0  0  0  0  0  0  0  0  0  0  0  0
    0.7500   -1.2990    0.0000 C   0  0  0  0  0  0  0  0  0  0  0  0
    1.5000    0.0000    0.0000 C   0  0  0  0  0  0  0  0  0  0  0  0
    0.7500    1.2990    0.0000 C   0  0  0  0  0  0  0  0  0  0  0  0
   -0.7500    1.2990    0.0000 C   0  0  0  0  0  0  0  0  0  0  0  0
   -1.5000    2.5981    0.0000 C   0  0  0  0  0  0  0  0  0  0  0  0
   -3.0000    2.5981    0.0000 C   0  0  0  0  0  0  0  0  0  0  0  0
   -3.7500    1.2990    0.0000 N   0  0  0  0  0  0  0  0  0  0  0  0
   -3.0000    0.0000    0.0000 C   0  0  0  0  0  0  0  0  0  0  0  0
   -5.2500    1.2990    0.0000 C   0  0  0  0  0  0  0  0  0  0  0  0
   -6.0000    2.5981    0.0000 C   0  0  0  0  0  0  0  0  0  0  0  0
   -5.3899    3.9684    0.0000 C   0  0  0  0  0  0  0  0  0  0  0  0
   -6.5046    4.9721    0.0000 C   0  0  0  0  0  0  0  0  0  0  0  0
   -6.5046    6.4721    0.0000 C   0  0  0  0  0  0  0  0  0  0  0  0
   -7.8037    7.2221    0.0000 C   0  0  0  0  0  0  0  0  0  0  0  0
   -9.1027    6.4721    0.0000 C   0  0  0  0  0  0  0  0  0  0  0  0
   -9.1027    4.9721    0.0000 C   0  0  0  0  0  0  0  0  0  0  0  0
   -7.8037    4.2221    0.0000 C   0  0  0  0  0  0  0  0  0  0  0  0
   -7.4918    2.7549    0.0000 S   0  0  0  0  0  0  0  0  0  0  0  0
   -6.0000    0.0000    0.0000 O   0  0  0  0  0  0  0  0  0  0  0  0
   -1.5000    0.0000    0.0000 C   0  0  0  0  0  0  0  0  0  0  0  0
   -0.7500   -1.2990    0.0000 N   0  0  0  0  0  0  0  0  0  0  0  0
    3.0000   -2.5981    0.0000 O   0  0  0  0  0  0  0  0  0  0  0  0
   -0.7500   -6.4952    0.0000 C   0  0  0  0  0  0  0  0  0  0  0  0
   -1.5000   -7.7942    0.0000 C   0  0  0  0  0  0  0  0  0  0  0  0
  1  2  1  0
  2  3  1  0
  3  4  1  0
  2  5  1  0
  5  6  1  0
  6  7  1  0
  7  8  1  0
  8  9  2  0
  9 10  1  0
 10 11  2  0
 11 12  1  0
 12 13  1  0
 13 14  1  0
 14 15  1  0
 15 16  2  0
 16 17  1  0
 17 18  2  0
 18 19  1  0
 19 20  1  0
 20 21  1  0
 21 22  1  0
 21 23  1  0
 23 24  1  0
 24 25  2  0
 25 26  1  0
 26 27  2  0
 27 28  1  0
 28 29  2  0
 29 30  1  0
 26 31  1  0
 31 32  1  0
 23 33  2  0
 18 34  1  0
 34 35  2  0
 14 36  2  0
 11 37  1  0
 37 38  2  0
  7  4  1  0
 38  8  1  0
 35 15  1  0
 34 22  1  0
 32 24  1  0
 31 30  2  0
M  END
>  <EDS_Number>  (4) 
EDS00481762

>  <Smiles_std>  (4) 
CN1CCN(c2ccc(CNC(=O)c3ccc4c(n3)CN(C(=O)c3cc5ccccc5s3)CC4)cc2)CC1

>  <Smiles_original>  (4) 
CN(CC1)CCN1c1ccc(CNC(c2ccc(CCN(C3)C(c4cc(cccc5)c5[s]4)=O)c3n2)=O)cc1

>  <InChIKey>  (4) 
GVAINWIVZFKVHL-UHFFFAOYSA-N

>  <Stereo_Configuration>  (4) 
Achiral

>  <HIT_P841>  (4) 
Active

>  <AS_ratio>  (4) 
0.0181035

>  <AS_ratio_2>  (4) 
0.0531017

>  <Avg_BR>  (4) 
0.0356026

>  <Hit_rank>  (4) 
195

>  <RTmin>  (4) 
1.06

>  <RT_check_manual>  (4) 
OK

>  <MW>  (4) 
525.22

>  <cLogP>  (4) 
4.18

>  <HBD>  (4) 
1

>  <HBA>  (4) 
6

>  <TPSA>  (4) 
68.8

>  <RotBonds>  (4) 
5

>  <Cluster_ID>  (4) 
A

>  <Cluster_Name>  (4) 
Aryl_Nacyl_THN_diamide

>  <Cluster_Size>  (4) 
7

>  <PAINS_flag>  (4) 
anil_di_alk_E(186)

>  <BRENK_flag>  (4) 
-

>  <Recommendation>  (4) 
conditional_deprioritise

>  <Assay>  (4) 
ASMS_P841

>  <Clustering_method>  (4) 
ECFP4_Butina_Tc0.50

$$$$

     RDKit          2D

 30 33  0  0  0  0  0  0  0  0999 V2000
    3.0000   -2.5981    0.0000 O   0  0  0  0  0  0  0  0  0  0  0  0
    1.5000   -2.5981    0.0000 C   0  0  0  0  0  0  0  0  0  0  0  0
    0.7500   -1.2990    0.0000 C   0  0  0  0  0  0  0  0  0  0  0  0
    1.5000    0.0000    0.0000 C   0  0  0  0  0  0  0  0  0  0  0  0
    0.7500    1.2990    0.0000 C   0  0  0  0  0  0  0  0  0  0  0  0
   -0.7500    1.2990    0.0000 C   0  0  0  0  0  0  0  0  0  0  0  0
   -1.5000    2.5981    0.0000 C   0  0  0  0  0  0  0  0  0  0  0  0
   -3.0000    2.5981    0.0000 C   0  0  0  0  0  0  0  0  0  0  0  0
   -3.7500    1.2990    0.0000 N   0  0  0  0  0  0  0  0  0  0  0  0
   -3.0000    0.0000    0.0000 C   0  0  0  0  0  0  0  0  0  0  0  0
   -5.2500    1.2990    0.0000 C   0  0  0  0  0  0  0  0  0  0  0  0
   -6.0000    2.5981    0.0000 C   0  0  0  0  0  0  0  0  0  0  0  0
   -5.2500    3.8971    0.0000 N   0  0  0  0  0  0  0  0  0  0  0  0
   -6.0000    5.1962    0.0000 C   0  0  0  0  0  0  0  0  0  0  0  0
   -7.5000    5.1962    0.0000 C   0  0  0  0  0  0  0  0  0  0  0  0
   -8.2500    3.8971    0.0000 C   0  0  0  0  0  0  0  0  0  0  0  0
   -7.5000    2.5981    0.0000 C   0  0  0  0  0  0  0  0  0  0  0  0
   -8.2500    1.2990    0.0000 Cl  0  0  0  0  0  0  0  0  0  0  0  0
   -6.0000    0.0000    0.0000 O   0  0  0  0  0  0  0  0  0  0  0  0
   -1.5000    0.0000    0.0000 C   0  0  0  0  0  0  0  0  0  0  0  0
   -0.7500   -1.2990    0.0000 N   0  0  0  0  0  0  0  0  0  0  0  0
    0.7500   -3.8971    0.0000 N   0  0  0  0  0  0  0  0  0  0  0  0
    1.5000   -5.1962    0.0000 C   0  0  0  0  0  0  0  0  0  0  0  0
    0.7500   -6.4952    0.0000 C   0  0  0  0  0  0  0  0  0  0  0  0
    1.5000   -7.7942    0.0000 C   0  0  0  0  0  0  0  0  0  0  0  0
    3.0000   -5.1962    0.0000 C   0  0  0  0  0  0  0  0  0  0  0  0
    3.7500   -6.4952    0.0000 C   0  0  0  0  0  0  0  0  0  0  0  0
    3.0000   -7.7942    0.0000 C   0  0  0  0  0  0  0  0  0  0  0  0
    4.4095   -8.3073    0.0000 F   0  0  0  0  0  0  0  0  0  0  0  0
    2.7395   -9.2714    0.0000 F   0  0  0  0  0  0  0  0  0  0  0  0
  1  2  2  0
  2  3  1  0
  3  4  2  0
  4  5  1  0
  5  6  2  0
  6  7  1  0
  7  8  1  0
  8  9  1  0
  9 10  1  0
  9 11  1  0
 11 12  1  0
 12 13  2  0
 13 14  1  0
 14 15  2  0
 15 16  1  0
 12 17  1  0
 17 18  1  0
 11 19  2  0
  6 20  1  0
 20 21  2  0
  2 22  1  0
 22 23  1  0
 23 24  1  0
 24 25  1  0
 23 26  1  0
 26 27  1  0
 27 28  1  0
 28 29  1  0
 28 30  1  0
 21  3  1  0
 28 25  1  0
 20 10  1  0
 17 16  2  0
M  END
>  <EDS_Number>  (5) 
EDS00469766

>  <Smiles_std>  (5) 
O=C(NC1CCC(F)(F)CC1)c1ccc2c(n1)CN(C(=O)c1ncccc1Cl)CC2

>  <Smiles_original>  (5) 
O=C(c1ccc(CCN(C2)C(c(nccc3)c3Cl)=O)c2n1)NC(CC1)CCC1(F)F

>  <InChIKey>  (5) 
MFFIDIQNHCFXRB-UHFFFAOYSA-N

>  <Stereo_Configuration>  (5) 
Achiral

>  <HIT_P841>  (5) 
Active

>  <AS_ratio>  (5) 
0.0333112

>  <AS_ratio_2>  (5) 
0.00927413

>  <Avg_BR>  (5) 
0.021292665

>  <Hit_rank>  (5) 
249

>  <RTmin>  (5) 
1.2

>  <RT_check_manual>  (5) 
OK

>  <MW>  (5) 
434.13

>  <cLogP>  (5) 
3.64

>  <HBD>  (5) 
1

>  <HBA>  (5) 
4

>  <TPSA>  (5) 
75.2

>  <RotBonds>  (5) 
3

>  <Cluster_ID>  (5) 
F

>  <Cluster_Name>  (5) 
GemDiF_cyclohexyl_THN_diamide

>  <Cluster_Size>  (5) 
1

>  <PAINS_flag>  (5) 
-

>  <BRENK_flag>  (5) 
-

>  <Recommendation>  (5) 
carry_forward

>  <Assay>  (5) 
ASMS_P841

>  <Clustering_method>  (5) 
ECFP4_Butina_Tc0.50

$$$$

     RDKit          2D

 35 39  0  0  0  0  0  0  0  0999 V2000
    0.4022   -7.7629    0.0000 C   0  0  0  0  0  0  0  0  0  0  0  0
    0.2454   -6.2711    0.0000 C   0  0  0  0  0  0  0  0  0  0  0  0
    1.3601   -5.2674    0.0000 C   0  0  0  0  0  0  0  0  0  0  0  0
    0.7500   -3.8971    0.0000 C   0  0  0  0  0  0  0  0  0  0  0  0
    1.5000   -2.5981    0.0000 C   0  0  0  0  0  0  0  0  0  0  0  0
    0.7500   -1.2990    0.0000 N   0  0  0  0  0  0  0  0  0  0  0  0
    1.5000    0.0000    0.0000 C   0  0  0  0  0  0  0  0  0  0  0  0
    0.7500    1.2990    0.0000 C   0  0  0  0  0  0  0  0  0  0  0  0
   -0.7500   -1.2990    0.0000 C   0  0  0  0  0  0  0  0  0  0  0  0
   -1.5000    0.0000    0.0000 C   0  0  0  0  0  0  0  0  0  0  0  0
   -0.7500    1.2990    0.0000 C   0  0  0  0  0  0  0  0  0  0  0  0
   -1.5000    2.5981    0.0000 C   0  0  0  0  0  0  0  0  0  0  0  0
   -3.0000    2.5981    0.0000 C   0  0  0  0  0  0  0  0  0  0  0  0
   -3.7500    1.2990    0.0000 C   0  0  0  0  0  0  0  0  0  0  0  0
   -5.2500    1.2990    0.0000 C   0  0  0  0  0  0  0  0  0  0  0  0
   -6.0000    2.5981    0.0000 N   0  0  0  0  0  0  0  0  0  0  0  0
   -7.5000    2.5981    0.0000 C   0  0  0  0  0  0  0  0  0  0  0  0
   -8.2500    3.8971    0.0000 C   0  0  0  0  0  0  0  0  0  0  0  0
   -7.5000    5.1962    0.0000 N   0  0  0  0  0  0  0  0  0  0  0  0
   -8.2500    6.4952    0.0000 C   0  0  0  0  0  0  0  0  0  0  0  0
   -7.5000    7.7942    0.0000 N   0  0  0  0  0  0  0  0  0  0  0  0
   -6.0000    7.7942    0.0000 C   0  0  0  0  0  0  0  0  0  0  0  0
   -5.2500    9.0933    0.0000 C   0  0  0  0  0  0  0  0  0  0  0  0
   -6.0000   10.3923    0.0000 O   0  0  0  0  0  0  0  0  0  0  0  0
   -7.5000   10.3923    0.0000 C   0  0  0  0  0  0  0  0  0  0  0  0
   -8.2500    9.0933    0.0000 C   0  0  0  0  0  0  0  0  0  0  0  0
   -9.7500    6.4952    0.0000 C   0  0  0  0  0  0  0  0  0  0  0  0
  -10.5000    5.1962    0.0000 C   0  0  0  0  0  0  0  0  0  0  0  0
   -9.7500    3.8971    0.0000 C   0  0  0  0  0  0  0  0  0  0  0  0
   -6.0000    0.0000    0.0000 O   0  0  0  0  0  0  0  0  0  0  0  0
   -3.0000    0.0000    0.0000 N   0  0  0  0  0  0  0  0  0  0  0  0
    3.0000   -2.5981    0.0000 O   0  0  0  0  0  0  0  0  0  0  0  0
   -0.7418   -4.0539    0.0000 N   0  0  0  0  0  0  0  0  0  0  0  0
   -1.0537   -5.5211    0.0000 N   0  0  0  0  0  0  0  0  0  0  0  0
   -2.4240   -6.1312    0.0000 C   0  0  0  0  0  0  0  0  0  0  0  0
  1  2  1  0
  2  3  2  0
  3  4  1  0
  4  5  1  0
  5  6  1  0
  6  7  1  0
  7  8  1  0
  6  9  1  0
  9 10  1  0
 10 11  2  0
 11 12  1  0
 12 13  2  0
 13 14  1  0
 14 15  1  0
 15 16  1  0
 16 17  1  0
 17 18  1  0
 18 19  2  0
 19 20  1  0
 20 21  1  0
 21 22  1  0
 22 23  1  0
 23 24  1  0
 24 25  1  0
 25 26  1  0
 20 27  2  0
 27 28  1  0
 28 29  2  0
 15 30  2  0
 14 31  2  0
  5 32  2  0
  4 33  2  0
 33 34  1  0
 34 35  1  0
 34  2  1  0
 11  8  1  0
 29 18  1  0
 31 10  1  0
 26 21  1  0
M  END
>  <EDS_Number>  (6) 
EDS00459346

>  <Smiles_std>  (6) 
Cc1cc(C(=O)N2CCc3ccc(C(=O)NCc4cccc(N5CCOCC5)n4)nc3C2)nn1C

>  <Smiles_original>  (6) 
Cc1cc(C(N(CC2)Cc3c2ccc(C(NCc2nc(N4CCOCC4)ccc2)=O)n3)=O)n[n]1C

>  <InChIKey>  (6) 
JWGKFVRFPADMSG-UHFFFAOYSA-N

>  <Stereo_Configuration>  (6) 
Achiral

>  <HIT_P841>  (6) 
Active

>  <AS_ratio>  (6) 
0.0207765

>  <AS_ratio_2>  (6) 
0.00967655

>  <Avg_BR>  (6) 
0.015226525

>  <Hit_rank>  (6) 
294

>  <RTmin>  (6) 
1.08

>  <RT_check_manual>  (6) 
OK

>  <MW>  (6) 
475.23

>  <cLogP>  (6) 
1.48

>  <HBD>  (6) 
1

>  <HBA>  (6) 
8

>  <TPSA>  (6) 
105.5

>  <RotBonds>  (6) 
5

>  <Cluster_ID>  (6) 
B

>  <Cluster_Name>  (6) 
Dimethylpyrazole_Nacyl_THN_diamide

>  <Cluster_Size>  (6) 
3

>  <PAINS_flag>  (6) 
-

>  <BRENK_flag>  (6) 
-

>  <Recommendation>  (6) 
carry_forward

>  <Assay>  (6) 
ASMS_P841

>  <Clustering_method>  (6) 
ECFP4_Butina_Tc0.50

$$$$

     RDKit          2D

 32 35  0  0  0  0  0  0  0  0999 V2000
    0.4022   -7.7629    0.0000 C   0  0  0  0  0  0  0  0  0  0  0  0
    0.2454   -6.2711    0.0000 C   0  0  0  0  0  0  0  0  0  0  0  0
    1.3601   -5.2674    0.0000 C   0  0  0  0  0  0  0  0  0  0  0  0
    0.7500   -3.8971    0.0000 C   0  0  0  0  0  0  0  0  0  0  0  0
    1.5000   -2.5981    0.0000 C   0  0  0  0  0  0  0  0  0  0  0  0
    0.7500   -1.2990    0.0000 N   0  0  0  0  0  0  0  0  0  0  0  0
    1.5000    0.0000    0.0000 C   0  0  0  0  0  0  0  0  0  0  0  0
    0.7500    1.2990    0.0000 C   0  0  0  0  0  0  0  0  0  0  0  0
   -0.7500   -1.2990    0.0000 C   0  0  0  0  0  0  0  0  0  0  0  0
   -1.5000    0.0000    0.0000 C   0  0  0  0  0  0  0  0  0  0  0  0
   -0.7500    1.2990    0.0000 C   0  0  0  0  0  0  0  0  0  0  0  0
   -1.5000    2.5981    0.0000 C   0  0  0  0  0  0  0  0  0  0  0  0
   -3.0000    2.5981    0.0000 C   0  0  0  0  0  0  0  0  0  0  0  0
   -3.7500    1.2990    0.0000 C   0  0  0  0  0  0  0  0  0  0  0  0
   -5.2500    1.2990    0.0000 C   0  0  0  0  0  0  0  0  0  0  0  0
   -6.0000    2.5981    0.0000 N   0  0  0  0  0  0  0  0  0  0  0  0
   -7.5000    2.5981    0.0000 C   0  0  0  0  0  0  0  0  0  0  0  0
   -8.2500    3.8971    0.0000 C   0  0  0  0  0  0  0  0  0  0  0  0
   -7.5000    5.1962    0.0000 C   0  0  0  0  0  0  0  0  0  0  0  0
   -6.0000    5.1962    0.0000 Cl  0  0  0  0  0  0  0  0  0  0  0  0
   -8.2500    6.4952    0.0000 C   0  0  0  0  0  0  0  0  0  0  0  0
   -9.7500    6.4952    0.0000 C   0  0  0  0  0  0  0  0  0  0  0  0
  -10.5000    5.1962    0.0000 C   0  0  0  0  0  0  0  0  0  0  0  0
   -7.5000    7.7942    0.0000 F   0  0  0  0  0  0  0  0  0  0  0  0
   -9.7500    3.8971    0.0000 C   0  0  0  0  0  0  0  0  0  0  0  0
  -10.5000    2.5981    0.0000 F   0  0  0  0  0  0  0  0  0  0  0  0
   -6.0000    0.0000    0.0000 O   0  0  0  0  0  0  0  0  0  0  0  0
   -3.0000    0.0000    0.0000 N   0  0  0  0  0  0  0  0  0  0  0  0
    3.0000   -2.5981    0.0000 O   0  0  0  0  0  0  0  0  0  0  0  0
   -0.7418   -4.0539    0.0000 N   0  0  0  0  0  0  0  0  0  0  0  0
   -1.0537   -5.5211    0.0000 N   0  0  0  0  0  0  0  0  0  0  0  0
   -2.4240   -6.1312    0.0000 C   0  0  0  0  0  0  0  0  0  0  0  0
  1  2  1  0
  2  3  2  0
  3  4  1  0
  4  5  1  0
  5  6  1  0
  6  7  1  0
  7  8  1  0
  6  9  1  0
  9 10  1  0
 10 11  2  0
 11 12  1  0
 12 13  2  0
 13 14  1  0
 14 15  1  0
 15 16  1  0
 16 17  1  0
 17 18  1  0
 18 19  2  0
 19 20  1  0
 19 21  1  0
 21 22  2  0
 22 23  1  0
 21 24  1  0
 18 25  1  0
 25 26  1  0
 15 27  2  0
 14 28  2  0
  5 29  2  0
  4 30  2  0
 30 31  1  0
 31 32  1  0
 31  2  1  0
 11  8  1  0
 25 23  2  0
 28 10  1  0
M  END
>  <EDS_Number>  (7) 
EDS00459274

>  <Smiles_std>  (7) 
Cc1cc(C(=O)N2CCc3ccc(C(=O)NCc4c(F)ccc(F)c4Cl)nc3C2)nn1C

>  <Smiles_original>  (7) 
Cc1cc(C(N(CC2)Cc3c2ccc(C(NCc(c(Cl)c(cc2)F)c2F)=O)n3)=O)n[n]1C

>  <InChIKey>  (7) 
YHRZRQTZIDYBKF-UHFFFAOYSA-N

>  <Stereo_Configuration>  (7) 
Achiral

>  <HIT_P841>  (7) 
Active

>  <AS_ratio>  (7) 
0.00739068

>  <AS_ratio_2>  (7) 
0.0195279

>  <Avg_BR>  (7) 
0.01345929

>  <Hit_rank>  (7) 
314

>  <RTmin>  (7) 
1.24

>  <RT_check_manual>  (7) 
OK

>  <MW>  (7) 
459.13

>  <cLogP>  (7) 
3.18

>  <HBD>  (7) 
1

>  <HBA>  (7) 
5

>  <TPSA>  (7) 
80.1

>  <RotBonds>  (7) 
4

>  <Cluster_ID>  (7) 
B

>  <Cluster_Name>  (7) 
Dimethylpyrazole_Nacyl_THN_diamide

>  <Cluster_Size>  (7) 
3

>  <PAINS_flag>  (7) 
-

>  <BRENK_flag>  (7) 
halogenated_ring_1

>  <Recommendation>  (7) 
conditional

>  <Assay>  (7) 
ASMS_P841

>  <Clustering_method>  (7) 
ECFP4_Butina_Tc0.50

$$$$

     RDKit          2D

 26 28  0  0  0  0  0  0  0  0999 V2000
    5.2500   -1.2990    0.0000 C   0  0  0  0  0  0  0  0  0  0  0  0
    3.7500   -1.2990    0.0000 C   0  0  0  0  0  0  0  0  0  0  0  0
    3.0000   -2.5981    0.0000 C   0  0  0  0  0  0  0  0  0  0  0  0
    3.0000    0.0000    0.0000 C   0  0  0  0  0  0  0  0  0  0  0  0
    1.5000    0.0000    0.0000 N   0  0  0  0  0  0  0  0  0  0  0  0
    0.7500   -1.2990    0.0000 C   0  0  0  0  0  0  0  0  0  0  0  0
   -0.7500   -1.2990    0.0000 C   0  0  0  0  0  0  0  0  0  0  0  0
    0.7500    1.2990    0.0000 C   0  0  0  0  0  0  0  0  0  0  0  0
   -0.7500    1.2990    0.0000 C   0  0  0  0  0  0  0  0  0  0  0  0
   -1.5000    0.0000    0.0000 C   0  0  0  0  0  0  0  0  0  0  0  0
   -3.0000    0.0000    0.0000 C   0  0  0  0  0  0  0  0  0  0  0  0
   -3.7500    1.2990    0.0000 C   0  0  0  0  0  0  0  0  0  0  0  0
   -3.0000    2.5981    0.0000 C   0  0  0  0  0  0  0  0  0  0  0  0
   -3.7500    3.8971    0.0000 C   0  0  0  0  0  0  0  0  0  0  0  0
   -3.0000    5.1962    0.0000 N   0  0  0  0  0  0  0  0  0  0  0  0
   -3.7500    6.4952    0.0000 C   0  0  0  0  0  0  0  0  0  0  0  0
   -3.0000    7.7942    0.0000 C   0  0  0  0  0  0  0  0  0  0  0  0
   -1.5000    7.7942    0.0000 N   0  0  0  0  0  0  0  0  0  0  0  0
   -0.7500    9.0933    0.0000 C   0  0  0  0  0  0  0  0  0  0  0  0
   -1.5000   10.3923    0.0000 C   0  0  0  0  0  0  0  0  0  0  0  0
   -0.7500   11.6913    0.0000 C   0  0  0  0  0  0  0  0  0  0  0  0
   -3.0000   10.3923    0.0000 N   0  0  0  0  0  0  0  0  0  0  0  0
   -3.7500    9.0933    0.0000 C   0  0  0  0  0  0  0  0  0  0  0  0
   -5.2500    3.8971    0.0000 O   0  0  0  0  0  0  0  0  0  0  0  0
   -1.5000    2.5981    0.0000 N   0  0  0  0  0  0  0  0  0  0  0  0
    3.7500    1.2990    0.0000 O   0  0  0  0  0  0  0  0  0  0  0  0
  1  2  1  0
  2  3  1  0
  2  4  1  0
  4  5  1  0
  5  6  1  0
  6  7  1  0
  5  8  1  0
  8  9  1  0
  9 10  2  0
 10 11  1  0
 11 12  2  0
 12 13  1  0
 13 14  1  0
 14 15  1  0
 15 16  1  0
 16 17  1  0
 17 18  2  0
 18 19  1  0
 19 20  2  0
 20 21  1  0
 20 22  1  0
 22 23  2  0
 14 24  2  0
 13 25  2  0
  4 26  2  0
 10  7  1  0
 23 17  1  0
 25  9  1  0
M  END
>  <EDS_Number>  (8) 
EDS00444974

>  <Smiles_std>  (8) 
Cc1cnc(CNC(=O)c2ccc3c(n2)CN(C(=O)C(C)C)CC3)cn1

>  <Smiles_original>  (8) 
CC(C)C(N(CC1)Cc2c1ccc(C(NCc1ncc(C)nc1)=O)n2)=O

>  <InChIKey>  (8) 
ARTUGPMAFGLBJL-UHFFFAOYSA-N

>  <Stereo_Configuration>  (8) 
Achiral

>  <HIT_P841>  (8) 
Active

>  <AS_ratio>  (8) 
0.0163117

>  <AS_ratio_2>  (8) 
0.00290724

>  <Avg_BR>  (8) 
0.00960947

>  <Hit_rank>  (8) 
387

>  <RTmin>  (8) 
1.08

>  <RT_check_manual>  (8) 
OK

>  <MW>  (8) 
353.19

>  <cLogP>  (8) 
1.65

>  <HBD>  (8) 
1

>  <HBA>  (8) 
5

>  <TPSA>  (8) 
88.1

>  <RotBonds>  (8) 
4

>  <Cluster_ID>  (8) 
E

>  <Cluster_Name>  (8) 
Minimal_isobutyryl_THN_diamide

>  <Cluster_Size>  (8) 
1

>  <PAINS_flag>  (8) 
-

>  <BRENK_flag>  (8) 
-

>  <Recommendation>  (8) 
carry_forward_minimal_scaffold

>  <Assay>  (8) 
ASMS_P841

>  <Clustering_method>  (8) 
ECFP4_Butina_Tc0.50

$$$$

     RDKit          2D

 38 41  0  0  0  0  0  0  0  0999 V2000
    7.5000  -10.3923    0.0000 C   0  0  0  0  0  0  0  0  0  0  0  0
    6.0000  -10.3923    0.0000 C   0  0  0  0  0  0  0  0  0  0  0  0
    5.2500   -9.0933    0.0000 O   0  0  0  0  0  0  0  0  0  0  0  0
    3.7500   -9.0933    0.0000 C   0  0  0  0  0  0  0  0  0  0  0  0
    3.0000   -7.7942    0.0000 N   0  0  0  0  0  0  0  0  0  0  0  0
    1.5000   -7.7942    0.0000 C   0  0  0  0  0  0  0  0  0  0  0  0
    0.7500   -6.4952    0.0000 C   0  0  0  0  0  0  0  0  0  0  0  0
    3.7500   -6.4952    0.0000 C   0  0  0  0  0  0  0  0  0  0  0  0
    3.0000   -5.1962    0.0000 C   0  0  0  0  0  0  0  0  0  0  0  0
    1.5000   -5.1962    0.0000 C   0  0  0  0  0  0  0  0  0  0  0  0
    0.7500   -3.8971    0.0000 N   0  0  0  0  0  0  0  0  0  0  0  0
    1.5000   -2.5981    0.0000 C   0  0  0  0  0  0  0  0  0  0  0  0
    0.7500   -1.2990    0.0000 C   0  0  0  0  0  0  0  0  0  0  0  0
    1.5000    0.0000    0.0000 N   0  0  0  0  0  0  0  0  0  0  0  0
    0.7500    1.2990    0.0000 C   0  0  0  0  0  0  0  0  0  0  0  0
    1.5000    2.5981    0.0000 C   0  0  0  0  0  0  0  0  0  0  0  0
    0.7500    3.8971    0.0000 N   0  0  0  0  0  0  0  0  0  0  0  0
   -0.7500    3.8971    0.0000 C   0  0  0  0  0  0  0  0  0  0  0  0
   -1.5000    2.5981    0.0000 C   0  0  0  0  0  0  0  0  0  0  0  0
    1.5000    5.1962    0.0000 C   0  0  0  0  0  0  0  0  0  0  0  0
    3.0000    5.1962    0.0000 C   0  0  0  0  0  0  0  0  0  0  0  0
    3.7500    6.4952    0.0000 C   0  0  0  0  0  0  0  0  0  0  0  0
    5.2500    6.4952    0.0000 C   0  0  0  0  0  0  0  0  0  0  0  0
    6.0000    7.7942    0.0000 C   0  0  0  0  0  0  0  0  0  0  0  0
    7.5000    7.7942    0.0000 N   0  0  0  0  0  0  0  0  0  0  0  0
    8.2500    9.0933    0.0000 C   0  0  0  0  0  0  0  0  0  0  0  0
    9.7500    9.0933    0.0000 C   0  0  0  0  0  0  0  0  0  0  0  0
   10.5000   10.3923    0.0000 C   0  0  0  0  0  0  0  0  0  0  0  0
    9.7500   11.6913    0.0000 C   0  0  0  0  0  0  0  0  0  0  0  0
    8.2500   11.6913    0.0000 C   0  0  0  0  0  0  0  0  0  0  0  0
    7.5000   10.3923    0.0000 C   0  0  0  0  0  0  0  0  0  0  0  0
    5.2500    9.0933    0.0000 O   0  0  0  0  0  0  0  0  0  0  0  0
    0.7500    6.4952    0.0000 O   0  0  0  0  0  0  0  0  0  0  0  0
   -0.7500    1.2990    0.0000 C   0  0  0  0  0  0  0  0  0  0  0  0
   -1.5000    0.0000    0.0000 C   0  0  0  0  0  0  0  0  0  0  0  0
   -0.7500   -1.2990    0.0000 C   0  0  0  0  0  0  0  0  0  0  0  0
    3.0000   -2.5981    0.0000 O   0  0  0  0  0  0  0  0  0  0  0  0
    3.0000  -10.3923    0.0000 O   0  0  0  0  0  0  0  0  0  0  0  0
  1  2  1  0
  2  3  1  0
  3  4  1  0
  4  5  1  0
  5  6  1  0
  6  7  1  0
  5  8  1  0
  8  9  1  0
  9 10  1  0
 10 11  1  0
 11 12  1  0
 12 13  1  0
 13 14  2  0
 14 15  1  0
 15 16  1  0
 16 17  1  0
 17 18  1  0
 18 19  1  0
 17 20  1  0
 20 21  1  0
 21 22  1  0
 22 23  1  0
 23 24  1  0
 24 25  1  0
 25 26  1  0
 26 27  2  0
 27 28  1  0
 28 29  2  0
 29 30  1  0
 30 31  2  0
 24 32  2  0
 20 33  2  0
 15 34  2  0
 34 35  1  0
 35 36  2  0
 12 37  2  0
  4 38  2  0
 10  7  1  0
 36 13  1  0
 34 19  1  0
 31 26  1  0
M  END
>  <EDS_Number>  (9) 
EDS00492986

>  <Smiles_std>  (9) 
CCOC(=O)N1CCC(NC(=O)c2ccc3c(n2)CN(C(=O)CCCC(=O)Nc2ccccc2)CC3)CC1

>  <Smiles_original>  (9) 
CCOC(N(CC1)CCC1NC(c1nc(CN(CC2)C(CCCC(Nc3ccccc3)=O)=O)c2cc1)=O)=O

>  <InChIKey>  (9) 
IWWUIJNLPMCZEG-UHFFFAOYSA-N

>  <Stereo_Configuration>  (9) 
Achiral

>  <HIT_P841>  (9) 
Active

>  <AS_ratio>  (9) 
0.0096993

>  <AS_ratio_2>  (9) 
0.00648281

>  <Avg_BR>  (9) 
0.008091055

>  <Hit_rank>  (9) 
437

>  <RTmin>  (9) 
1.18

>  <RT_check_manual>  (9) 
OK

>  <MW>  (9) 
521.26

>  <cLogP>  (9) 
3.13

>  <HBD>  (9) 
2

>  <HBA>  (9) 
6

>  <TPSA>  (9) 
120.9

>  <RotBonds>  (9) 
8

>  <Cluster_ID>  (9) 
C

>  <Cluster_Name>  (9) 
Glutaryl_anilide_THN_diamide

>  <Cluster_Size>  (9) 
2

>  <PAINS_flag>  (9) 
-

>  <BRENK_flag>  (9) 
-

>  <Recommendation>  (9) 
set_aside

>  <Assay>  (9) 
ASMS_P841

>  <Clustering_method>  (9) 
ECFP4_Butina_Tc0.50

$$$$

     RDKit          2D

 33 36  0  0  0  0  0  0  0  0999 V2000
    0.4022   -7.7629    0.0000 C   0  0  0  0  0  0  0  0  0  0  0  0
    0.2454   -6.2711    0.0000 C   0  0  0  0  0  0  0  0  0  0  0  0
    1.3601   -5.2674    0.0000 C   0  0  0  0  0  0  0  0  0  0  0  0
    0.7500   -3.8971    0.0000 C   0  0  0  0  0  0  0  0  0  0  0  0
    1.5000   -2.5981    0.0000 C   0  0  0  0  0  0  0  0  0  0  0  0
    0.7500   -1.2990    0.0000 N   0  0  0  0  0  0  0  0  0  0  0  0
    1.5000    0.0000    0.0000 C   0  0  0  0  0  0  0  0  0  0  0  0
    0.7500    1.2990    0.0000 C   0  0  0  0  0  0  0  0  0  0  0  0
   -0.7500   -1.2990    0.0000 C   0  0  0  0  0  0  0  0  0  0  0  0
   -1.5000    0.0000    0.0000 C   0  0  0  0  0  0  0  0  0  0  0  0
   -0.7500    1.2990    0.0000 C   0  0  0  0  0  0  0  0  0  0  0  0
   -1.5000    2.5981    0.0000 C   0  0  0  0  0  0  0  0  0  0  0  0
   -3.0000    2.5981    0.0000 C   0  0  0  0  0  0  0  0  0  0  0  0
   -3.7500    1.2990    0.0000 C   0  0  0  0  0  0  0  0  0  0  0  0
   -5.2500    1.2990    0.0000 C   0  0  0  0  0  0  0  0  0  0  0  0
   -6.0000    2.5981    0.0000 N   0  0  0  0  0  0  0  0  0  0  0  0
   -7.5000    2.5981    0.0000 C   0  0  0  0  0  0  0  0  0  0  0  0
   -8.2500    3.8971    0.0000 C   0  0  0  0  0  0  0  0  0  0  0  0
   -9.7418    4.0539    0.0000 C   0  0  0  0  0  0  0  0  0  0  0  0
  -10.7455    2.9392    0.0000 C   0  0  0  0  0  0  0  0  0  0  0  0
  -11.7492    1.8245    0.0000 F   0  0  0  0  0  0  0  0  0  0  0  0
  -11.8602    3.9429    0.0000 F   0  0  0  0  0  0  0  0  0  0  0  0
   -9.6308    1.9355    0.0000 F   0  0  0  0  0  0  0  0  0  0  0  0
  -10.0537    5.5211    0.0000 O   0  0  0  0  0  0  0  0  0  0  0  0
   -8.7546    6.2711    0.0000 C   0  0  0  0  0  0  0  0  0  0  0  0
   -8.5978    7.7629    0.0000 C   0  0  0  0  0  0  0  0  0  0  0  0
   -7.6399    5.2674    0.0000 C   0  0  0  0  0  0  0  0  0  0  0  0
   -6.0000    0.0000    0.0000 O   0  0  0  0  0  0  0  0  0  0  0  0
   -3.0000    0.0000    0.0000 N   0  0  0  0  0  0  0  0  0  0  0  0
    3.0000   -2.5981    0.0000 O   0  0  0  0  0  0  0  0  0  0  0  0
   -0.7418   -4.0539    0.0000 N   0  0  0  0  0  0  0  0  0  0  0  0
   -1.0537   -5.5211    0.0000 N   0  0  0  0  0  0  0  0  0  0  0  0
   -2.4240   -6.1312    0.0000 C   0  0  0  0  0  0  0  0  0  0  0  0
  1  2  1  0
  2  3  2  0
  3  4  1  0
  4  5  1  0
  5  6  1  0
  6  7  1  0
  7  8  1  0
  6  9  1  0
  9 10  1  0
 10 11  2  0
 11 12  1  0
 12 13  2  0
 13 14  1  0
 14 15  1  0
 15 16  1  0
 16 17  1  0
 17 18  1  0
 18 19  2  0
 19 20  1  0
 20 21  1  0
 20 22  1  0
 20 23  1  0
 19 24  1  0
 24 25  1  0
 25 26  1  0
 25 27  2  0
 15 28  2  0
 14 29  2  0
  5 30  2  0
  4 31  2  0
 31 32  1  0
 32 33  1  0
 32  2  1  0
 11  8  1  0
 27 18  1  0
 29 10  1  0
M  END
>  <EDS_Number>  (10) 
EDS00459442

>  <Smiles_std>  (10) 
Cc1cc(CNC(=O)c2ccc3c(n2)CN(C(=O)c2cc(C)n(C)n2)CC3)c(C(F)(F)F)o1

>  <Smiles_original>  (10) 
Cc1cc(C(N(CC2)Cc3c2ccc(C(NCc2c(C(F)(F)F)[o]c(C)c2)=O)n3)=O)n[n]1C

>  <InChIKey>  (10) 
WTWPPBQYIGXOIX-UHFFFAOYSA-N

>  <Stereo_Configuration>  (10) 
Achiral

>  <HIT_P841>  (10) 
Active

>  <AS_ratio>  (10) 
0.00833583

>  <AS_ratio_2>  (10) 
0.006014

>  <Avg_BR>  (10) 
0.007174915

>  <Hit_rank>  (10) 
464

>  <RTmin>  (10) 
1.26

>  <RT_check_manual>  (10) 
OK

>  <MW>  (10) 
461.17

>  <cLogP>  (10) 
3.17

>  <HBD>  (10) 
1

>  <HBA>  (10) 
6

>  <TPSA>  (10) 
93.3

>  <RotBonds>  (10) 
4

>  <Cluster_ID>  (10) 
B

>  <Cluster_Name>  (10) 
Dimethylpyrazole_Nacyl_THN_diamide

>  <Cluster_Size>  (10) 
3

>  <PAINS_flag>  (10) 
-

>  <BRENK_flag>  (10) 
-

>  <Recommendation>  (10) 
conditional

>  <Assay>  (10) 
ASMS_P841

>  <Clustering_method>  (10) 
ECFP4_Butina_Tc0.50

$$$$

     RDKit          2D

 34 38  0  0  0  0  0  0  0  0999 V2000
    3.7500   -3.8971    0.0000 C   0  0  0  0  0  0  0  0  0  0  0  0
    3.0000   -2.5981    0.0000 O   0  0  0  0  0  0  0  0  0  0  0  0
    1.5000   -2.5981    0.0000 C   0  0  0  0  0  0  0  0  0  0  0  0
    0.7500   -1.2990    0.0000 C   0  0  0  0  0  0  0  0  0  0  0  0
    1.5000    0.0000    0.0000 C   0  0  0  0  0  0  0  0  0  0  0  0
    0.7500    1.2990    0.0000 C   0  0  0  0  0  0  0  0  0  0  0  0
   -0.7500    1.2990    0.0000 C   0  0  0  0  0  0  0  0  0  0  0  0
   -1.5000    0.0000    0.0000 C   0  0  0  0  0  0  0  0  0  0  0  0
   -0.7500   -1.2990    0.0000 C   0  0  0  0  0  0  0  0  0  0  0  0
   -1.5000   -2.5981    0.0000 C   0  0  0  0  0  0  0  0  0  0  0  0
   -0.7500   -3.8971    0.0000 C   0  0  0  0  0  0  0  0  0  0  0  0
    0.7500   -3.8971    0.0000 C   0  0  0  0  0  0  0  0  0  0  0  0
    1.5000   -5.1962    0.0000 C   0  0  0  0  0  0  0  0  0  0  0  0
    0.7500   -6.4952    0.0000 N   0  0  0  0  0  0  0  0  0  0  0  0
    1.5000   -7.7942    0.0000 C   0  0  0  0  0  0  0  0  0  0  0  0
    0.7500   -9.0933    0.0000 C   0  0  0  0  0  0  0  0  0  0  0  0
    1.5000  -10.3923    0.0000 N   0  0  0  0  0  0  0  0  0  0  0  0
    0.7500  -11.6913    0.0000 C   0  0  0  0  0  0  0  0  0  0  0  0
    1.5000  -12.9904    0.0000 C   0  0  0  0  0  0  0  0  0  0  0  0
    0.7500  -14.2894    0.0000 N   0  0  0  0  0  0  0  0  0  0  0  0
    1.5000  -15.5885    0.0000 C   0  0  0  0  0  0  0  0  0  0  0  0
    0.7500  -16.8875    0.0000 C   0  0  0  0  0  0  0  0  0  0  0  0
   -0.7500  -16.8875    0.0000 C   0  0  0  0  0  0  0  0  0  0  0  0
   -1.5000  -18.1865    0.0000 C   0  0  0  0  0  0  0  0  0  0  0  0
   -0.7500  -19.4856    0.0000 C   0  0  0  0  0  0  0  0  0  0  0  0
    0.7500  -19.4856    0.0000 C   0  0  0  0  0  0  0  0  0  0  0  0
    1.5000  -18.1865    0.0000 C   0  0  0  0  0  0  0  0  0  0  0  0
    3.0000  -12.9904    0.0000 O   0  0  0  0  0  0  0  0  0  0  0  0
   -0.7500  -11.6913    0.0000 C   0  0  0  0  0  0  0  0  0  0  0  0
   -1.5000  -10.3923    0.0000 C   0  0  0  0  0  0  0  0  0  0  0  0
   -0.7500   -9.0933    0.0000 C   0  0  0  0  0  0  0  0  0  0  0  0
   -1.5000   -7.7942    0.0000 C   0  0  0  0  0  0  0  0  0  0  0  0
   -0.7500   -6.4952    0.0000 C   0  0  0  0  0  0  0  0  0  0  0  0
    3.0000   -5.1962    0.0000 O   0  0  0  0  0  0  0  0  0  0  0  0
  1  2  1  0
  2  3  1  0
  3  4  2  0
  4  5  1  0
  5  6  2  0
  6  7  1  0
  7  8  2  0
  4  9  1  0
  9 10  2  0
 10 11  1  0
  3 12  1  0
 12 13  1  0
 13 14  1  0
 14 15  1  0
 15 16  1  0
 16 17  2  0
 17 18  1  0
 18 19  1  0
 19 20  1  0
 20 21  1  0
 21 22  1  0
 22 23  2  0
 23 24  1  0
 24 25  2  0
 25 26  1  0
 26 27  2  0
 19 28  2  0
 18 29  2  0
 29 30  1  0
 30 31  2  0
 31 32  1  0
 32 33  1  0
 13 34  2  0
  9  8  1  0
 12 11  2  0
 33 14  1  0
 31 16  1  0
 27 22  1  0
M  END
>  <EDS_Number>  (11) 
EDS00490706

>  <Smiles_std>  (11) 
COc1c(C(=O)N2CCc3ccc(C(=O)NCc4ccccc4)nc3C2)ccc2ccccc12

>  <Smiles_original>  (11) 
COc(c(cccc1)c1cc1)c1C(N1Cc2nc(C(NCc3ccccc3)=O)ccc2CC1)=O

>  <InChIKey>  (11) 
MRGSOQVCJGJFMZ-UHFFFAOYSA-N

>  <Stereo_Configuration>  (11) 
Achiral

>  <HIT_P841>  (11) 
Active

>  <AS_ratio>  (11) 
0.00121192

>  <AS_ratio_2>  (11) 
0.0129992

>  <Avg_BR>  (11) 
0.00710556

>  <Hit_rank>  (11) 
468

>  <RTmin>  (11) 
1.32

>  <RT_check_manual>  (11) 
OK

>  <MW>  (11) 
451.19

>  <cLogP>  (11) 
4.37

>  <HBD>  (11) 
1

>  <HBA>  (11) 
4

>  <TPSA>  (11) 
71.5

>  <RotBonds>  (11) 
5

>  <Cluster_ID>  (11) 
A

>  <Cluster_Name>  (11) 
Aryl_Nacyl_THN_diamide

>  <Cluster_Size>  (11) 
7

>  <PAINS_flag>  (11) 
-

>  <BRENK_flag>  (11) 
-

>  <Recommendation>  (11) 
carry_forward

>  <Assay>  (11) 
ASMS_P841

>  <Clustering_method>  (11) 
ECFP4_Butina_Tc0.50

$$$$

     RDKit          2D

 37 40  0  0  0  0  0  0  0  0999 V2000
   -0.5490   -5.7452    0.0000 C   0  0  0  0  0  0  0  0  0  0  0  0
    0.7500   -6.4952    0.0000 C   0  0  0  0  0  0  0  0  0  0  0  0
    2.0490   -7.2452    0.0000 C   0  0  0  0  0  0  0  0  0  0  0  0
    1.5000   -5.1962    0.0000 C   0  0  0  0  0  0  0  0  0  0  0  0
    0.7500   -3.8971    0.0000 N   0  0  0  0  0  0  0  0  0  0  0  0
    1.5000   -2.5981    0.0000 C   0  0  0  0  0  0  0  0  0  0  0  0
    0.7500   -1.2990    0.0000 C   0  0  0  0  0  0  0  0  0  0  0  0
    1.5000    0.0000    0.0000 N   0  0  0  0  0  0  0  0  0  0  0  0
    0.7500    1.2990    0.0000 C   0  0  0  0  0  0  0  0  0  0  0  0
    1.5000    2.5981    0.0000 C   0  0  0  0  0  0  0  0  0  0  0  0
    0.7500    3.8971    0.0000 N   0  0  0  0  0  0  0  0  0  0  0  0
   -0.7500    3.8971    0.0000 C   0  0  0  0  0  0  0  0  0  0  0  0
   -1.5000    2.5981    0.0000 C   0  0  0  0  0  0  0  0  0  0  0  0
    1.5000    5.1962    0.0000 C   0  0  0  0  0  0  0  0  0  0  0  0
    3.0000    5.1962    0.0000 C   0  0  0  0  0  0  0  0  0  0  0  0
    3.7500    6.4952    0.0000 C   0  0  0  0  0  0  0  0  0  0  0  0
    5.2500    6.4952    0.0000 C   0  0  0  0  0  0  0  0  0  0  0  0
    6.0000    7.7942    0.0000 C   0  0  0  0  0  0  0  0  0  0  0  0
    7.5000    7.7942    0.0000 N   0  0  0  0  0  0  0  0  0  0  0  0
    8.2500    9.0933    0.0000 C   0  0  0  0  0  0  0  0  0  0  0  0
    9.7500    9.0933    0.0000 C   0  0  0  0  0  0  0  0  0  0  0  0
   10.5000   10.3923    0.0000 C   0  0  0  0  0  0  0  0  0  0  0  0
    9.7500   11.6913    0.0000 C   0  0  0  0  0  0  0  0  0  0  0  0
    8.2500   11.6913    0.0000 C   0  0  0  0  0  0  0  0  0  0  0  0
    7.5000   10.3923    0.0000 C   0  0  0  0  0  0  0  0  0  0  0  0
    5.2500    9.0933    0.0000 O   0  0  0  0  0  0  0  0  0  0  0  0
    0.7500    6.4952    0.0000 O   0  0  0  0  0  0  0  0  0  0  0  0
   -0.7500    1.2990    0.0000 C   0  0  0  0  0  0  0  0  0  0  0  0
   -1.5000    0.0000    0.0000 C   0  0  0  0  0  0  0  0  0  0  0  0
   -0.7500   -1.2990    0.0000 C   0  0  0  0  0  0  0  0  0  0  0  0
    3.0000   -2.5981    0.0000 O   0  0  0  0  0  0  0  0  0  0  0  0
   -0.0000   -7.7942    0.0000 C   0  0  0  0  0  0  0  0  0  0  0  0
   -1.5000   -7.7942    0.0000 C   0  0  0  0  0  0  0  0  0  0  0  0
   -2.2500   -9.0933    0.0000 C   0  0  0  0  0  0  0  0  0  0  0  0
   -1.5000  -10.3923    0.0000 N   0  0  0  0  0  0  0  0  0  0  0  0
   -0.0000  -10.3923    0.0000 C   0  0  0  0  0  0  0  0  0  0  0  0
    0.7500   -9.0933    0.0000 C   0  0  0  0  0  0  0  0  0  0  0  0
  1  2  1  0
  2  3  1  0
  2  4  1  0
  4  5  1  0
  5  6  1  0
  6  7  1  0
  7  8  2  0
  8  9  1  0
  9 10  1  0
 10 11  1  0
 11 12  1  0
 12 13  1  0
 11 14  1  0
 14 15  1  0
 15 16  1  0
 16 17  1  0
 17 18  1  0
 18 19  1  0
 19 20  1  0
 20 21  2  0
 21 22  1  0
 22 23  2  0
 23 24  1  0
 24 25  2  0
 18 26  2  0
 14 27  2  0
  9 28  2  0
 28 29  1  0
 29 30  2  0
  6 31  2  0
  2 32  1  0
 32 33  2  0
 33 34  1  0
 34 35  2  0
 35 36  1  0
 36 37  2  0
 30  7  1  0
 37 32  1  0
 28 13  1  0
 25 20  1  0
M  END
>  <EDS_Number>  (12) 
EDS00492874

>  <Smiles_std>  (12) 
CC(C)(CNC(=O)c1ccc2c(n1)CN(C(=O)CCCC(=O)Nc1ccccc1)CC2)c1ccncc1

>  <Smiles_original>  (12) 
CC(C)(CNC(c1nc(CN(CC2)C(CCCC(Nc3ccccc3)=O)=O)c2cc1)=O)c1ccncc1

>  <InChIKey>  (12) 
JJSYBAOJCDOPSD-UHFFFAOYSA-N

>  <Stereo_Configuration>  (12) 
Achiral

>  <HIT_P841>  (12) 
Active

>  <AS_ratio>  (12) 
0.0105749

>  <AS_ratio_2>  (12) 
0.00218051

>  <Avg_BR>  (12) 
0.006377705

>  <Hit_rank>  (12) 
512

>  <RTmin>  (12) 
1

>  <RT_check_manual>  (12) 
OK

>  <MW>  (12) 
499.26

>  <cLogP>  (12) 
3.88

>  <HBD>  (12) 
2

>  <HBA>  (12) 
5

>  <TPSA>  (12) 
104.3

>  <RotBonds>  (12) 
9

>  <Cluster_ID>  (12) 
C

>  <Cluster_Name>  (12) 
Glutaryl_anilide_THN_diamide

>  <Cluster_Size>  (12) 
2

>  <PAINS_flag>  (12) 
-

>  <BRENK_flag>  (12) 
-

>  <Recommendation>  (12) 
set_aside

>  <Assay>  (12) 
ASMS_P841

>  <Clustering_method>  (12) 
ECFP4_Butina_Tc0.50

$$$$

     RDKit          2D

 35 39  0  0  0  0  0  0  0  0999 V2000
   -3.2127   -3.2511    0.0000 C   0  0  0  0  0  0  0  0  0  0  0  0
   -1.7455   -2.9392    0.0000 O   0  0  0  0  0  0  0  0  0  0  0  0
   -0.7418   -4.0539    0.0000 C   0  0  0  0  0  0  0  0  0  0  0  0
   -1.0537   -5.5211    0.0000 C   0  0  0  0  0  0  0  0  0  0  0  0
    0.2454   -6.2711    0.0000 S   0  0  0  0  0  0  0  0  0  0  0  0
    1.3601   -5.2674    0.0000 C   0  0  0  0  0  0  0  0  0  0  0  0
    0.7500   -3.8971    0.0000 C   0  0  0  0  0  0  0  0  0  0  0  0
    1.5000   -2.5981    0.0000 C   0  0  0  0  0  0  0  0  0  0  0  0
    0.7500   -1.2990    0.0000 N   0  0  0  0  0  0  0  0  0  0  0  0
    1.5000    0.0000    0.0000 C   0  0  0  0  0  0  0  0  0  0  0  0
    0.7500    1.2990    0.0000 C   0  0  0  0  0  0  0  0  0  0  0  0
    1.5000    2.5981    0.0000 N   0  0  0  0  0  0  0  0  0  0  0  0
    0.7500    3.8971    0.0000 C   0  0  0  0  0  0  0  0  0  0  0  0
    1.5000    5.1962    0.0000 C   0  0  0  0  0  0  0  0  0  0  0  0
    3.0000    5.1962    0.0000 N   0  0  0  0  0  0  0  0  0  0  0  0
    3.7500    6.4952    0.0000 C   0  0  0  0  0  0  0  0  0  0  0  0
    5.2500    6.4952    0.0000 C   0  0  0  0  0  0  0  0  0  0  0  0
    4.9895    7.9724    0.0000 C   0  0  0  0  0  0  0  0  0  0  0  0
    6.1386    8.9366    0.0000 C   0  0  0  0  0  0  0  0  0  0  0  0
    7.5481    8.4236    0.0000 O   0  0  0  0  0  0  0  0  0  0  0  0
    7.8086    6.9463    0.0000 C   0  0  0  0  0  0  0  0  0  0  0  0
    6.6595    5.9822    0.0000 C   0  0  0  0  0  0  0  0  0  0  0  0
    4.9895    5.0180    0.0000 C   0  0  0  0  0  0  0  0  0  0  0  0
    3.5800    4.5049    0.0000 C   0  0  0  0  0  0  0  0  0  0  0  0
    3.3195    3.0277    0.0000 C   0  0  0  0  0  0  0  0  0  0  0  0
    4.4686    2.0636    0.0000 C   0  0  0  0  0  0  0  0  0  0  0  0
    5.8781    2.5766    0.0000 C   0  0  0  0  0  0  0  0  0  0  0  0
    6.1386    4.0538    0.0000 C   0  0  0  0  0  0  0  0  0  0  0  0
    0.7500    6.4952    0.0000 O   0  0  0  0  0  0  0  0  0  0  0  0
   -0.7500    3.8971    0.0000 C   0  0  0  0  0  0  0  0  0  0  0  0
   -1.5000    2.5981    0.0000 C   0  0  0  0  0  0  0  0  0  0  0  0
   -0.7500    1.2990    0.0000 C   0  0  0  0  0  0  0  0  0  0  0  0
   -1.5000    0.0000    0.0000 C   0  0  0  0  0  0  0  0  0  0  0  0
   -0.7500   -1.2990    0.0000 C   0  0  0  0  0  0  0  0  0  0  0  0
    3.0000   -2.5981    0.0000 O   0  0  0  0  0  0  0  0  0  0  0  0
  1  2  1  0
  2  3  1  0
  3  4  2  0
  4  5  1  0
  5  6  1  0
  6  7  2  0
  7  8  1  0
  8  9  1  0
  9 10  1  0
 10 11  1  0
 11 12  2  0
 12 13  1  0
 13 14  1  0
 14 15  1  0
 15 16  1  0
 16 17  1  0
 17 18  1  0
 18 19  1  0
 19 20  1  0
 20 21  1  0
 21 22  1  0
 17 23  1  0
 23 24  2  0
 24 25  1  0
 25 26  2  0
 26 27  1  0
 27 28  2  0
 14 29  2  0
 13 30  2  0
 30 31  1  0
 31 32  2  0
 32 33  1  0
 33 34  1  0
  8 35  2  0
  7  3  1  0
 34  9  1  0
 32 11  1  0
 22 17  1  0
 28 23  1  0
M  END
>  <EDS_Number>  (13) 
EDS00470458

>  <Smiles_std>  (13) 
COc1cscc1C(=O)N1CCc2ccc(C(=O)NCC3(c4ccccc4)CCOCC3)nc2C1

>  <Smiles_original>  (13) 
COc1c[s]cc1C(N1Cc2nc(C(NCC3(CCOCC3)c3ccccc3)=O)ccc2CC1)=O

>  <InChIKey>  (13) 
MJEZRZUYVUNYKT-UHFFFAOYSA-N

>  <Stereo_Configuration>  (13) 
Achiral

>  <HIT_P841>  (13) 
Active

>  <AS_ratio>  (13) 
0.00145151

>  <AS_ratio_2>  (13) 
0.00744895

>  <Avg_BR>  (13) 
0.00445023

>  <Hit_rank>  (13) 
613

>  <RTmin>  (13) 
1.23

>  <RT_check_manual>  (13) 
OK

>  <MW>  (13) 
491.19

>  <cLogP>  (13) 
3.83

>  <HBD>  (13) 
1

>  <HBA>  (13) 
6

>  <TPSA>  (13) 
80.8

>  <RotBonds>  (13) 
6

>  <Cluster_ID>  (13) 
A

>  <Cluster_Name>  (13) 
Aryl_Nacyl_THN_diamide

>  <Cluster_Size>  (13) 
7

>  <PAINS_flag>  (13) 
-

>  <BRENK_flag>  (13) 
-

>  <Recommendation>  (13) 
conditional

>  <Assay>  (13) 
ASMS_P841

>  <Clustering_method>  (13) 
ECFP4_Butina_Tc0.50

$$$$

     RDKit          2D

 30 33  0  0  0  0  0  0  0  0999 V2000
    1.5000   -7.7942    0.0000 C   0  0  0  0  0  0  0  0  0  0  0  0
    0.7500   -6.4952    0.0000 C   0  0  0  0  0  0  0  0  0  0  0  0
   -0.7500   -6.4952    0.0000 C   0  0  0  0  0  0  0  0  0  0  0  0
   -1.5000   -5.1962    0.0000 C   0  0  0  0  0  0  0  0  0  0  0  0
    1.5000   -5.1962    0.0000 C   0  0  0  0  0  0  0  0  0  0  0  0
    0.7500   -3.8971    0.0000 C   0  0  0  0  0  0  0  0  0  0  0  0
    1.5000   -2.5981    0.0000 C   0  0  0  0  0  0  0  0  0  0  0  0
    0.7500   -1.2990    0.0000 N   0  0  0  0  0  0  0  0  0  0  0  0
    1.5000    0.0000    0.0000 C   0  0  0  0  0  0  0  0  0  0  0  0
    0.7500    1.2990    0.0000 C   0  0  0  0  0  0  0  0  0  0  0  0
   -0.7500   -1.2990    0.0000 C   0  0  0  0  0  0  0  0  0  0  0  0
   -1.5000    0.0000    0.0000 C   0  0  0  0  0  0  0  0  0  0  0  0
   -0.7500    1.2990    0.0000 C   0  0  0  0  0  0  0  0  0  0  0  0
   -1.5000    2.5981    0.0000 C   0  0  0  0  0  0  0  0  0  0  0  0
   -3.0000    2.5981    0.0000 C   0  0  0  0  0  0  0  0  0  0  0  0
   -3.7500    1.2990    0.0000 C   0  0  0  0  0  0  0  0  0  0  0  0
   -5.2500    1.2990    0.0000 C   0  0  0  0  0  0  0  0  0  0  0  0
   -6.0000    2.5981    0.0000 N   0  0  0  0  0  0  0  0  0  0  0  0
   -7.5000    2.5981    0.0000 C   0  0  0  0  0  0  0  0  0  0  0  0
   -8.2500    3.8971    0.0000 C   0  0  0  0  0  0  0  0  0  0  0  0
   -9.7418    4.0539    0.0000 C   0  0  0  0  0  0  0  0  0  0  0  0
  -10.0537    5.5211    0.0000 S   0  0  0  0  0  0  0  0  0  0  0  0
   -8.7546    6.2711    0.0000 C   0  0  0  0  0  0  0  0  0  0  0  0
   -7.6399    5.2674    0.0000 C   0  0  0  0  0  0  0  0  0  0  0  0
   -6.0000    0.0000    0.0000 O   0  0  0  0  0  0  0  0  0  0  0  0
   -3.0000    0.0000    0.0000 N   0  0  0  0  0  0  0  0  0  0  0  0
    3.0000   -2.5981    0.0000 O   0  0  0  0  0  0  0  0  0  0  0  0
   -0.7500   -3.8971    0.0000 C   0  0  0  0  0  0  0  0  0  0  0  0
   -1.5000   -2.5981    0.0000 O   0  0  0  0  0  0  0  0  0  0  0  0
   -3.0000   -2.5981    0.0000 C   0  0  0  0  0  0  0  0  0  0  0  0
  1  2  1  0
  2  3  2  0
  3  4  1  0
  2  5  1  0
  5  6  2  0
  6  7  1  0
  7  8  1  0
  8  9  1  0
  9 10  1  0
  8 11  1  0
 11 12  1  0
 12 13  2  0
 13 14  1  0
 14 15  2  0
 15 16  1  0
 16 17  1  0
 17 18  1  0
 18 19  1  0
 19 20  1  0
 20 21  2  0
 21 22  1  0
 22 23  1  0
 23 24  2  0
 17 25  2  0
 16 26  2  0
  7 27  2  0
  6 28  1  0
 28 29  1  0
 29 30  1  0
 28  4  2  0
 13 10  1  0
 24 20  1  0
 26 12  1  0
M  END
>  <EDS_Number>  (14) 
EDS00474254

>  <Smiles_std>  (14) 
COc1ccc(C)cc1C(=O)N1CCc2ccc(C(=O)NCc3ccsc3)nc2C1

>  <Smiles_original>  (14) 
Cc(cc1)cc(C(N(CC2)Cc3c2ccc(C(NCc2c[s]cc2)=O)n3)=O)c1OC

>  <InChIKey>  (14) 
MOGHSFLGKBRMRH-UHFFFAOYSA-N

>  <Stereo_Configuration>  (14) 
Achiral

>  <HIT_P841>  (14) 
Active

>  <AS_ratio>  (14) 
0.00371267

>  <AS_ratio_2>  (14) 
0.003537

>  <Avg_BR>  (14) 
0.003624835

>  <Hit_rank>  (14) 
677

>  <RTmin>  (14) 
1.26

>  <RT_check_manual>  (14) 
OK

>  <MW>  (14) 
421.15

>  <cLogP>  (14) 
3.59

>  <HBD>  (14) 
1

>  <HBA>  (14) 
5

>  <TPSA>  (14) 
71.5

>  <RotBonds>  (14) 
5

>  <Cluster_ID>  (14) 
A

>  <Cluster_Name>  (14) 
Aryl_Nacyl_THN_diamide

>  <Cluster_Size>  (14) 
7

>  <PAINS_flag>  (14) 
-

>  <BRENK_flag>  (14) 
-

>  <Recommendation>  (14) 
SAR_point

>  <Assay>  (14) 
ASMS_P841

>  <Clustering_method>  (14) 
ECFP4_Butina_Tc0.50

$$$$

     RDKit          2D

 35 38  0  0  0  0  0  0  0  0999 V2000
    1.5000   -7.7942    0.0000 C   0  0  0  0  0  0  0  0  0  0  0  0
    0.7500   -6.4952    0.0000 C   0  0  0  0  0  0  0  0  0  0  0  0
   -0.7500   -6.4952    0.0000 C   0  0  0  0  0  0  0  0  0  0  0  0
   -1.5000   -5.1962    0.0000 C   0  0  0  0  0  0  0  0  0  0  0  0
    1.5000   -5.1962    0.0000 C   0  0  0  0  0  0  0  0  0  0  0  0
    0.7500   -3.8971    0.0000 C   0  0  0  0  0  0  0  0  0  0  0  0
    1.5000   -2.5981    0.0000 C   0  0  0  0  0  0  0  0  0  0  0  0
    0.7500   -1.2990    0.0000 N   0  0  0  0  0  0  0  0  0  0  0  0
    1.5000    0.0000    0.0000 C   0  0  0  0  0  0  0  0  0  0  0  0
    0.7500    1.2990    0.0000 C   0  0  0  0  0  0  0  0  0  0  0  0
   -0.7500   -1.2990    0.0000 C   0  0  0  0  0  0  0  0  0  0  0  0
   -1.5000    0.0000    0.0000 C   0  0  0  0  0  0  0  0  0  0  0  0
   -0.7500    1.2990    0.0000 C   0  0  0  0  0  0  0  0  0  0  0  0
   -1.5000    2.5981    0.0000 C   0  0  0  0  0  0  0  0  0  0  0  0
   -3.0000    2.5981    0.0000 C   0  0  0  0  0  0  0  0  0  0  0  0
   -3.7500    1.2990    0.0000 C   0  0  0  0  0  0  0  0  0  0  0  0
   -5.2500    1.2990    0.0000 C   0  0  0  0  0  0  0  0  0  0  0  0
   -6.0000    2.5981    0.0000 N   0  0  0  0  0  0  0  0  0  0  0  0
   -7.5000    2.5981    0.0000 C   0  0  0  0  0  0  0  0  0  0  0  0
   -8.2500    3.8971    0.0000 C   0  0  0  0  0  0  0  0  0  0  0  0
   -7.5000    5.1962    0.0000 C   0  0  0  0  0  0  0  0  0  0  0  0
   -8.2500    6.4952    0.0000 C   0  0  0  0  0  0  0  0  0  0  0  0
   -9.7500    6.4952    0.0000 C   0  0  0  0  0  0  0  0  0  0  0  0
  -10.5000    5.1962    0.0000 C   0  0  0  0  0  0  0  0  0  0  0  0
  -12.0000    5.1962    0.0000 S   0  0  0  0  0  0  0  0  0  0  0  0
  -13.5000    5.1962    0.0000 C   0  0  0  0  0  0  0  0  0  0  0  0
  -12.0000    3.6962    0.0000 O   0  0  0  0  0  0  0  0  0  0  0  0
  -12.0000    6.6962    0.0000 O   0  0  0  0  0  0  0  0  0  0  0  0
   -9.7500    3.8971    0.0000 C   0  0  0  0  0  0  0  0  0  0  0  0
   -6.0000    0.0000    0.0000 O   0  0  0  0  0  0  0  0  0  0  0  0
   -3.0000    0.0000    0.0000 N   0  0  0  0  0  0  0  0  0  0  0  0
    3.0000   -2.5981    0.0000 O   0  0  0  0  0  0  0  0  0  0  0  0
   -0.7500   -3.8971    0.0000 C   0  0  0  0  0  0  0  0  0  0  0  0
   -1.5000   -2.5981    0.0000 O   0  0  0  0  0  0  0  0  0  0  0  0
   -3.0000   -2.5981    0.0000 C   0  0  0  0  0  0  0  0  0  0  0  0
  1  2  1  0
  2  3  2  0
  3  4  1  0
  2  5  1  0
  5  6  2  0
  6  7  1  0
  7  8  1  0
  8  9  1  0
  9 10  1  0
  8 11  1  0
 11 12  1  0
 12 13  2  0
 13 14  1  0
 14 15  2  0
 15 16  1  0
 16 17  1  0
 17 18  1  0
 18 19  1  0
 19 20  1  0
 20 21  2  0
 21 22  1  0
 22 23  2  0
 23 24  1  0
 24 25  1  0
 25 26  1  0
 25 27  2  0
 25 28  2  0
 24 29  2  0
 17 30  2  0
 16 31  2  0
  7 32  2  0
  6 33  1  0
 33 34  1  0
 34 35  1  0
 33  4  2  0
 13 10  1  0
 29 20  1  0
 31 12  1  0
M  END
>  <EDS_Number>  (15) 
EDS00474362

>  <Smiles_std>  (15) 
COc1ccc(C)cc1C(=O)N1CCc2ccc(C(=O)NCc3cccc(S(C)(=O)=O)c3)nc2C1

>  <Smiles_original>  (15) 
Cc(cc1)cc(C(N(CC2)Cc3c2ccc(C(NCc2cccc(S(C)(=O)=O)c2)=O)n3)=O)c1OC

>  <InChIKey>  (15) 
WLRJBTGHMRVPQZ-UHFFFAOYSA-N

>  <Stereo_Configuration>  (15) 
Achiral

>  <HIT_P841>  (15) 
Active

>  <AS_ratio>  (15) 
0.00258407

>  <AS_ratio_2>  (15) 
0.00217283

>  <Avg_BR>  (15) 
0.00237845

>  <Hit_rank>  (15) 
794

>  <RTmin>  (15) 
1.19

>  <RT_check_manual>  (15) 
OK

>  <MW>  (15) 
493.17

>  <cLogP>  (15) 
2.93

>  <HBD>  (15) 
1

>  <HBA>  (15) 
6

>  <TPSA>  (15) 
105.7

>  <RotBonds>  (15) 
6

>  <Cluster_ID>  (15) 
A

>  <Cluster_Name>  (15) 
Aryl_Nacyl_THN_diamide

>  <Cluster_Size>  (15) 
7

>  <PAINS_flag>  (15) 
-

>  <BRENK_flag>  (15) 
-

>  <Recommendation>  (15) 
SAR_point

>  <Assay>  (15) 
ASMS_P841

>  <Clustering_method>  (15) 
ECFP4_Butina_Tc0.50

$$$$
