EDEL-CRBN-0005
 OpenBabel09062620533D

 32 36  0  0  0  0  0  0  0  0999 V2000
   85.3429  148.4815   14.5056 O   0  0  0  0  0  0  0  0  0  0  0  0
   84.8895  149.3976   13.8251 C   0  0  0  0  0  0  0  0  0  0  0  0
   85.7241  150.4019   13.4342 N   0  0  0  0  0  0  0  0  0  0  0  0
   83.4632  149.4606   13.3000 C   0  0  2  0  0  0  0  0  0  0  0  0
   85.3735  151.4686   12.5389 C   0  0  0  0  0  0  0  0  0  0  0  0
   82.6495  150.6862   13.7407 C   0  0  2  0  0  0  0  0  0  0  0  0
   82.6128  148.3100   13.8349 C   0  0  0  0  0  0  0  0  0  0  0  0
   84.4586  152.4606   13.2020 C   0  0  0  0  0  0  0  0  0  0  0  0
   83.2201  152.0952   13.7550 C   0  0  0  0  0  0  0  0  0  0  0  0
   82.0330  150.2371   15.0850 C   0  0  0  0  0  0  0  0  0  0  0  0
   82.1569  148.7791   15.1425 N   0  0  0  0  0  0  0  0  0  0  0  0
   84.8743  153.8135   13.2416 C   0  0  0  0  0  0  0  0  0  0  0  0
   82.4323  153.1202   14.3103 C   0  0  0  0  0  0  0  0  0  0  0  0
   84.1011  154.8282   13.8192 C   0  0  0  0  0  0  0  0  0  0  0  0
   82.8645  154.4523   14.3486 C   0  0  0  0  0  0  0  0  0  0  0  0
   86.6403  150.3954   13.7943 H   0  0  0  0  0  0  0  0  0  0  0  0
   84.5475  156.1953   13.8448 N   0  0  0  0  0  0  0  0  0  0  0  0
   84.6550  156.9658   12.6797 C   0  0  0  0  0  0  0  0  0  0  0  0
   85.1324  156.7391   15.0679 C   0  0  0  0  0  0  0  0  0  0  0  0
   84.3658  156.6205   11.5370 O   0  0  0  0  0  0  0  0  0  0  0  0
   85.1436  158.2389   12.8607 N   0  0  0  0  0  0  0  0  0  0  0  0
   84.7514  158.1930   15.2525 C   0  0  0  0  0  0  0  0  0  0  0  0
   85.1190  158.9594   14.0210 C   0  0  0  0  0  0  0  0  0  0  0  0
   85.3064  160.1726   14.0305 O   0  0  0  0  0  0  0  0  0  0  0  0
   85.5511  158.6735   12.0769 H   0  0  0  0  0  0  0  0  0  0  0  0
   80.9728  148.0763   15.6315 C   0  0  0  0  0  0  0  0  0  0  0  0
   79.7014  148.8900   15.5080 C   0  0  0  0  0  0  0  0  0  0  0  0
   79.1790  149.5699   16.6189 C   0  0  0  0  0  0  0  0  0  0  0  0
   79.0082  148.9523   14.2905 C   0  0  0  0  0  0  0  0  0  0  0  0
   77.9984  150.3060   16.5114 C   0  0  0  0  0  0  0  0  0  0  0  0
   77.8261  149.6884   14.1849 C   0  0  0  0  0  0  0  0  0  0  0  0
   77.3224  150.3652   15.2945 C   0  0  0  0  0  0  0  0  0  0  0  0
  1  2  2  0  0  0  0
  2  3  1  0  0  0  0
  3  5  1  0  0  0  0
  3 16  1  0  0  0  0
  4  2  1  0  0  0  0
  4  6  1  0  0  0  0
  4  7  1  1  0  0  0
  6  9  1  0  0  0  0
  6 10  1  1  0  0  0
  7 11  1  0  0  0  0
  8  5  1  0  0  0  0
  8 12  2  0  0  0  0
  8  9  5  0  0  0  0
  9 13  2  0  0  0  0
 10 11  1  0  0  0  0
 11 26  1  0  0  0  0
 13 15  5  0  0  0  0
 14 12  5  0  0  0  0
 14 17  1  0  0  0  0
 14 15  2  0  0  0  0
 17 18  1  0  0  0  0
 17 19  1  0  0  0  0
 18 20  2  0  0  0  0
 18 21  1  0  0  0  0
 19 22  1  0  0  0  0
 21 23  1  0  0  0  0
 21 25  1  0  0  0  0
 22 23  1  0  0  0  0
 23 24  2  0  0  0  0
 26 27  1  0  0  0  0
 27 28  2  0  0  0  0
 27 29  5  0  0  0  0
 28 30  5  0  0  0  0
 29 31  2  0  0  0  0
 30 32  2  0  0  0  0
 31 32  5  0  0  0  0
M  END
>  <ID>
EDEL-CRBN-0005

>  <Stereoisomer>
original

>  <MW>
404.18

>  <HBD>
2

>  <HBA>
4

>  <RotBonds>
3

>  <cLogP>
1.98

>  <minimizedAffinity>
-10.16652

>  <CNNscore>
0.8544766903

>  <CNNaffinity>
7.0146789551

>  <CNN_VS>
5.9938797951

>  <CNNaffinity_variance>
0.0678329691

$$$$
