EDEL-CRBN-0016_ent
 OpenBabel09062620533D

 39 43  0  0  0  0  0  0  0  0999 V2000
   85.2411  153.8864   13.3399 C   0  0  0  0  0  0  0  0  0  0  0  0
   86.3530  153.2967   12.7042 C   0  0  0  0  0  0  0  0  0  0  0  0
   84.2065  153.0554   13.8547 C   0  0  0  0  0  0  0  0  0  0  0  0
   86.3746  151.9258   12.5487 C   0  0  0  0  0  0  0  0  0  0  0  0
   84.2547  151.6597   13.7162 C   0  0  0  0  0  0  0  0  0  0  0  0
   85.3408  151.1151   13.0619 C   0  0  0  0  0  0  0  0  0  0  0  0
   87.4050  151.0176   11.9200 C   0  0  2  0  0  0  0  0  0  0  0  0
   85.6993  149.6745   12.7731 C   0  0  1  0  0  0  0  0  0  0  0  0
   86.5694  149.8593   11.6140 N   0  0  0  0  0  0  0  0  0  0  0  0
   88.4367  150.5405   12.9968 C   0  0  0  0  0  0  0  0  0  0  0  0
   86.6035  149.1043   13.9186 C   0  0  0  0  0  0  0  0  0  0  0  0
   87.0016  148.8583   10.7908 C   0  0  0  0  0  0  0  0  0  0  0  0
   87.8006  149.9566   14.2219 N   0  0  0  0  0  0  0  0  0  0  0  0
   87.9807  148.9597   10.0646 O   0  0  0  0  0  0  0  0  0  0  0  0
   84.7887  155.6852   11.1396 O   0  0  0  0  0  0  0  0  0  0  0  0
   85.0777  156.0880   12.2645 C   0  0  0  0  0  0  0  0  0  0  0  0
   85.1499  155.3094   13.4124 N   0  0  0  0  0  0  0  0  0  0  0  0
   85.2552  157.4359   12.4700 N   0  0  0  0  0  0  0  0  0  0  0  0
   85.5838  155.9303   14.6569 C   0  0  0  0  0  0  0  0  0  0  0  0
   84.9983  158.0924   13.6428 C   0  0  0  0  0  0  0  0  0  0  0  0
   84.8497  157.2352   14.8690 C   0  0  0  0  0  0  0  0  0  0  0  0
   84.8148  159.3072   13.6671 O   0  0  0  0  0  0  0  0  0  0  0  0
   85.5932  157.9698   11.7151 H   0  0  0  0  0  0  0  0  0  0  0  0
   87.4104  154.0175   12.2188 O   0  0  0  0  0  0  0  0  0  0  0  0
   87.6037  153.7476   10.8276 C   0  0  0  0  0  0  0  0  0  0  0  0
   83.0749  153.6539   14.3628 O   0  0  0  0  0  0  0  0  0  0  0  0
   82.1221  152.7023   14.8380 C   0  0  0  0  0  0  0  0  0  0  0  0
   86.2220  147.7538   10.9011 O   0  0  0  0  0  0  0  0  0  0  0  0
   86.8083  146.4451   11.1170 C   0  0  0  0  0  0  0  0  0  0  0  0
   88.1028  146.5449   11.9313 C   0  0  0  0  0  0  0  0  0  0  0  0
   87.0161  145.7000    9.7943 C   0  0  0  0  0  0  0  0  0  0  0  0
   85.7637  145.6856   11.9492 C   0  0  0  0  0  0  0  0  0  0  0  0
   88.7878  149.2699   15.0613 C   0  0  0  0  0  0  0  0  0  0  0  0
   89.6920  150.2204   15.8167 C   0  0  0  0  0  0  0  0  0  0  0  0
   90.8579  150.7230   15.2217 C   0  0  0  0  0  0  0  0  0  0  0  0
   89.3667  150.6279   17.1199 C   0  0  0  0  0  0  0  0  0  0  0  0
   91.6831  151.6079   15.9186 C   0  0  0  0  0  0  0  0  0  0  0  0
   90.1933  151.5114   17.8149 C   0  0  0  0  0  0  0  0  0  0  0  0
   91.3510  152.0011   17.2140 C   0  0  0  0  0  0  0  0  0  0  0  0
  1 17  1  0  0  0  0
  1  2  2  0  0  0  0
  1  3  5  0  0  0  0
  2 24  1  0  0  0  0
  2  4  5  0  0  0  0
  3 26  1  0  0  0  0
  3  5  2  0  0  0  0
  4  6  2  0  0  0  0
  4  7  1  0  0  0  0
  5  6  5  0  0  0  0
  6  8  1  0  0  0  0
  7  9  1  0  0  0  0
  7 10  1  1  0  0  0
  8 11  1  1  0  0  0
  8  9  1  0  0  0  0
  9 12  1  0  0  0  0
 10 13  1  0  0  0  0
 11 13  1  0  0  0  0
 12 14  2  0  0  0  0
 12 28  1  0  0  0  0
 13 33  1  0  0  0  0
 15 16  2  0  0  0  0
 16 17  1  0  0  0  0
 16 18  1  0  0  0  0
 17 19  1  0  0  0  0
 18 20  1  0  0  0  0
 18 23  1  0  0  0  0
 19 21  1  0  0  0  0
 20 22  2  0  0  0  0
 20 21  1  0  0  0  0
 24 25  1  0  0  0  0
 26 27  1  0  0  0  0
 28 29  1  0  0  0  0
 29 30  1  0  0  0  0
 29 31  1  0  0  0  0
 29 32  1  0  0  0  0
 33 34  1  0  0  0  0
 34 35  2  0  0  0  0
 34 36  5  0  0  0  0
 35 37  5  0  0  0  0
 36 38  2  0  0  0  0
 37 39  2  0  0  0  0
 38 39  5  0  0  0  0
M  END
>  <ID>
EDEL-CRBN-0016_ent

>  <Stereoisomer>
enantiomer

>  <MW>
522.25

>  <HBD>
1

>  <HBA>
7

>  <RotBonds>
5

>  <cLogP>
4.0

>  <minimizedAffinity>
-7.08491

>  <CNNscore>
0.6468017101

>  <CNNaffinity>
5.9995422363

>  <CNN_VS>
3.8805141449

>  <CNNaffinity_variance>
0.8845388889

$$$$
