EDEL-CRBN-0008
 OpenBabel09062620533D

 33 37  0  0  0  0  0  0  0  0999 V2000
   88.2177  148.9408   14.7933 N   0  0  0  0  0  0  0  0  0  0  0  0
   87.2565  149.1905   15.8794 C   0  0  0  0  0  0  0  0  0  0  0  0
   87.5903  148.9248   13.4592 C   0  0  0  0  0  0  0  0  0  0  0  0
   85.8513  148.6821   15.5688 C   0  0  0  0  0  0  0  0  0  0  0  0
   86.4061  149.8858   13.3809 C   0  0  0  0  0  0  0  0  0  0  0  0
   85.3002  149.3968   14.3276 C   0  0  1  0  0  0  0  0  0  0  0  0
   84.4055  148.4822   13.6063 O   0  0  0  0  0  0  0  0  0  0  0  0
   84.0864  150.3549   14.5831 C   0  0  2  0  0  0  0  0  0  0  0  0
   83.4216  149.5369   13.4652 C   0  0  0  0  0  0  0  0  0  0  0  0
   84.2731  151.9272   14.4728 C   0  0  0  0  0  0  0  0  0  0  0  0
   83.6354  152.6536   13.4524 C   0  0  0  0  0  0  0  0  0  0  0  0
   85.0694  152.6862   15.3446 C   0  0  0  0  0  0  0  0  0  0  0  0
   83.7725  154.0436   13.3153 C   0  0  0  0  0  0  0  0  0  0  0  0
   85.2115  154.0781   15.2128 C   0  0  0  0  0  0  0  0  0  0  0  0
   84.5625  154.7877   14.1951 C   0  0  0  0  0  0  0  0  0  0  0  0
   84.7191  156.2094   14.0502 N   0  0  0  0  0  0  0  0  0  0  0  0
   85.4936  156.7731   13.0285 C   0  0  0  0  0  0  0  0  0  0  0  0
   83.8820  157.1108   14.8371 C   0  0  0  0  0  0  0  0  0  0  0  0
   86.1343  156.1718   12.1704 O   0  0  0  0  0  0  0  0  0  0  0  0
   85.5162  158.1482   12.9995 N   0  0  0  0  0  0  0  0  0  0  0  0
   84.6561  158.3427   15.2574 C   0  0  0  0  0  0  0  0  0  0  0  0
   85.2537  158.9862   14.0459 C   0  0  0  0  0  0  0  0  0  0  0  0
   85.5656  160.1732   14.0161 O   0  0  0  0  0  0  0  0  0  0  0  0
   85.7440  158.5701   12.1397 H   0  0  0  0  0  0  0  0  0  0  0  0
   89.0247  147.7358   15.0450 C   0  0  0  0  0  0  0  0  0  0  0  0
   87.6599  143.8289   11.8387 Cl  0  0  0  0  0  0  0  0  0  0  0  0
   88.7122  145.1149   12.2928 C   0  0  0  0  0  0  0  0  0  0  0  0
   88.4536  145.8780   13.4316 C   0  0  0  0  0  0  0  0  0  0  0  0
   89.8285  145.3929   11.5040 C   0  0  0  0  0  0  0  0  0  0  0  0
   87.3675  145.6185   14.1774 F   0  0  0  0  0  0  0  0  0  0  0  0
   89.3041  146.9280   13.7994 C   0  0  0  0  0  0  0  0  0  0  0  0
   90.6840  146.4373   11.8568 C   0  0  0  0  0  0  0  0  0  0  0  0
   90.4240  147.2009   12.9974 C   0  0  0  0  0  0  0  0  0  0  0  0
  1  2  1  0  0  0  0
  1  3  1  0  0  0  0
  2  4  1  0  0  0  0
  3  5  1  0  0  0  0
  6  5  1  6  0  0  0
  6  4  1  0  0  0  0
  6  7  1  0  0  0  0
  6  8  1  0  0  0  0
  7  9  1  0  0  0  0
  8 10  1  6  0  0  0
  8  9  1  0  0  0  0
 10 11  2  0  0  0  0
 10 12  5  0  0  0  0
 11 13  5  0  0  0  0
 12 14  2  0  0  0  0
 15 14  5  0  0  0  0
 15 13  2  0  0  0  0
 15 16  1  0  0  0  0
 16 17  1  0  0  0  0
 16 18  1  0  0  0  0
 17 19  2  0  0  0  0
 17 20  1  0  0  0  0
 18 21  1  0  0  0  0
 20 22  1  0  0  0  0
 20 24  1  0  0  0  0
 21 22  1  0  0  0  0
 22 23  2  0  0  0  0
 25  1  1  0  0  0  0
 27 26  1  0  0  0  0
 27 28  2  0  0  0  0
 27 29  5  0  0  0  0
 28 30  1  0  0  0  0
 28 31  5  0  0  0  0
 29 32  2  0  0  0  0
 31 33  2  0  0  0  0
 31 25  1  0  0  0  0
 32 33  5  0  0  0  0
M  END
>  <ID>
EDEL-CRBN-0008

>  <Stereoisomer>
original

>  <MW>
457.16

>  <HBD>
1

>  <HBA>
4

>  <RotBonds>
4

>  <cLogP>
4.07

>  <minimizedAffinity>
-7.56416

>  <CNNscore>
0.8149921894

>  <CNNaffinity>
6.9923930168

>  <CNN_VS>
5.6987457275

>  <CNNaffinity_variance>
0.0447334237

$$$$
