EDEL-CRBN-0009
 OpenBabel09062620533D

 35 39  0  0  0  0  0  0  0  0999 V2000
   84.2316  154.5901   13.8388 C   0  0  0  0  0  0  0  0  0  0  0  0
   83.0976  154.1818   14.5606 C   0  0  0  0  0  0  0  0  0  0  0  0
   84.9904  153.5981   13.1639 C   0  0  0  0  0  0  0  0  0  0  0  0
   82.7637  152.8379   14.5862 C   0  0  0  0  0  0  0  0  0  0  0  0
   84.6503  152.2378   13.2007 C   0  0  0  0  0  0  0  0  0  0  0  0
   83.5334  151.8759   13.9184 C   0  0  0  0  0  0  0  0  0  0  0  0
   81.6429  152.1197   15.3029 C   0  0  1  0  0  0  0  0  0  0  0  0
   82.9250  150.5208   14.1948 C   0  0  2  0  0  0  0  0  0  0  0  0
   81.5511  150.9100   14.4866 N   0  0  0  0  0  0  0  0  0  0  0  0
   82.1441  151.6999   16.7249 C   0  0  0  0  0  0  0  0  0  0  0  0
   83.5463  149.9479   15.5140 C   0  0  0  0  0  0  0  0  0  0  0  0
   80.5636  149.9715   14.6013 C   0  0  0  0  0  0  0  0  0  0  0  0
   82.9320  150.4450   16.7698 N   0  0  0  0  0  0  0  0  0  0  0  0
   80.6711  148.8267   14.1808 O   0  0  0  0  0  0  0  0  0  0  0  0
   84.2458  156.3486   11.5148 O   0  0  0  0  0  0  0  0  0  0  0  0
   84.6047  156.7273   12.6269 C   0  0  0  0  0  0  0  0  0  0  0  0
   84.6276  155.9731   13.8062 N   0  0  0  0  0  0  0  0  0  0  0  0
   85.0415  158.0257   12.7527 N   0  0  0  0  0  0  0  0  0  0  0  0
   85.2709  156.5660   14.9752 C   0  0  0  0  0  0  0  0  0  0  0  0
   85.0616  158.7640   13.9017 C   0  0  0  0  0  0  0  0  0  0  0  0
   84.8276  158.0012   15.1679 C   0  0  0  0  0  0  0  0  0  0  0  0
   85.1819  159.9857   13.8807 O   0  0  0  0  0  0  0  0  0  0  0  0
   85.3714  158.4650   11.9358 H   0  0  0  0  0  0  0  0  0  0  0  0
   79.4706  150.4745   15.2290 O   0  0  0  0  0  0  0  0  0  0  0  0
   78.2139  149.7523   15.2285 C   0  0  0  0  0  0  0  0  0  0  0  0
   78.5113  148.4583   16.0018 C   0  0  0  0  0  0  0  0  0  0  0  0
   77.1224  150.5275   15.9738 C   0  0  0  0  0  0  0  0  0  0  0  0
   77.7867  149.3821   13.8038 C   0  0  0  0  0  0  0  0  0  0  0  0
   83.6525  150.1684   18.0041 C   0  0  0  0  0  0  0  0  0  0  0  0
   82.8287  149.5702   19.1250 C   0  0  0  0  0  0  0  0  0  0  0  0
   81.4847  149.2231   18.9197 C   0  0  0  0  0  0  0  0  0  0  0  0
   83.3869  149.3637   20.3955 C   0  0  0  0  0  0  0  0  0  0  0  0
   80.7242  148.6712   19.9525 C   0  0  0  0  0  0  0  0  0  0  0  0
   82.6263  148.8113   21.4280 C   0  0  0  0  0  0  0  0  0  0  0  0
   81.2959  148.4637   21.2057 C   0  0  0  0  0  0  0  0  0  0  0  0
  1 17  1  0  0  0  0
  1  2  2  0  0  0  0
  1  3  5  0  0  0  0
  3  5  2  0  0  0  0
  4  2  5  0  0  0  0
  4  6  2  0  0  0  0
  4  7  1  0  0  0  0
  6  8  1  0  0  0  0
  6  5  5  0  0  0  0
  7  9  1  0  0  0  0
  7 10  1  1  0  0  0
  8 11  1  1  0  0  0
  8  9  1  0  0  0  0
  9 12  1  0  0  0  0
 10 13  1  0  0  0  0
 11 13  1  0  0  0  0
 12 14  2  0  0  0  0
 12 24  1  0  0  0  0
 13 29  1  0  0  0  0
 15 16  2  0  0  0  0
 16 17  1  0  0  0  0
 16 18  1  0  0  0  0
 17 19  1  0  0  0  0
 18 20  1  0  0  0  0
 18 23  1  0  0  0  0
 19 21  1  0  0  0  0
 20 22  2  0  0  0  0
 20 21  1  0  0  0  0
 24 25  1  0  0  0  0
 25 26  1  0  0  0  0
 25 27  1  0  0  0  0
 25 28  1  0  0  0  0
 29 30  1  0  0  0  0
 30 31  2  0  0  0  0
 30 32  5  0  0  0  0
 31 33  5  0  0  0  0
 32 34  2  0  0  0  0
 33 35  2  0  0  0  0
 34 35  5  0  0  0  0
M  END
>  <ID>
EDEL-CRBN-0009

>  <Stereoisomer>
original

>  <MW>
462.23

>  <HBD>
1

>  <HBA>
5

>  <RotBonds>
3

>  <cLogP>
3.98

>  <minimizedAffinity>
-10.19955

>  <CNNscore>
0.9455377460

>  <CNNaffinity>
7.3959488869

>  <CNN_VS>
6.9931488037

>  <CNNaffinity_variance>
0.0117455050

$$$$
