EDEL-CRBN-0004
 OpenBabel09062620533D

 32 34  0  0  0  0  0  0  0  0999 V2000
   84.6876  154.1265   13.3557 C   0  0  0  0  0  0  0  0  0  0  0  0
   83.5616  153.5526   13.9887 C   0  0  0  0  0  0  0  0  0  0  0  0
   85.5477  153.3011   12.5958 C   0  0  0  0  0  0  0  0  0  0  0  0
   83.3257  152.1687   13.9371 C   0  0  0  0  0  0  0  0  0  0  0  0
   85.2751  151.9338   12.4921 C   0  0  0  0  0  0  0  0  0  0  0  0
   84.1860  151.3753   13.1645 C   0  0  0  0  0  0  0  0  0  0  0  0
   84.4867  156.1265   11.2830 O   0  0  0  0  0  0  0  0  0  0  0  0
   84.9062  156.3881   12.4069 C   0  0  0  0  0  0  0  0  0  0  0  0
   84.9739  155.5195   13.4910 N   0  0  0  0  0  0  0  0  0  0  0  0
   85.2693  157.6844   12.6962 N   0  0  0  0  0  0  0  0  0  0  0  0
   85.5162  156.0067   14.7494 C   0  0  0  0  0  0  0  0  0  0  0  0
   85.0879  158.2747   13.9180 C   0  0  0  0  0  0  0  0  0  0  0  0
   84.9018  157.3460   15.0879 C   0  0  0  0  0  0  0  0  0  0  0  0
   85.0049  159.4955   14.0324 O   0  0  0  0  0  0  0  0  0  0  0  0
   85.6844  158.2190   11.9813 H   0  0  0  0  0  0  0  0  0  0  0  0
   82.6666  154.3501   14.6650 O   0  0  0  0  0  0  0  0  0  0  0  0
   81.7992  155.0146   13.7473 C   0  0  0  0  0  0  0  0  0  0  0  0
   86.6400  153.9052   12.0183 O   0  0  0  0  0  0  0  0  0  0  0  0
   87.6220  153.0556   11.4384 C   0  0  0  0  0  0  0  0  0  0  0  0
   82.1717  151.5092   14.6722 C   0  0  0  0  0  0  0  0  0  0  0  0
   82.6421  150.5157   15.6569 N   0  0  0  0  0  0  0  0  0  0  0  0
   82.4227  150.9240   17.0687 C   0  0  1  0  0  0  0  0  0  0  0  0
   84.0278  150.0924   15.3668 C   0  0  0  0  0  0  0  0  0  0  0  0
   83.0785  152.2614   17.5190 C   0  0  0  0  0  0  0  0  0  0  0  0
   85.1021  150.3610   16.4293 C   0  0  0  0  0  0  0  0  0  0  0  0
   84.2362  152.7404   16.7550 N   0  0  0  0  0  0  0  0  0  0  0  0
   85.3795  151.8377   16.7094 C   0  0  0  0  0  0  0  0  0  0  0  0
   84.5461  153.6180   17.1725 H   0  0  0  0  0  0  0  0  0  0  0  0
   80.9265  150.9277   17.4313 C   0  0  0  0  0  0  0  0  0  0  0  0
   80.3363  150.2440   18.2534 O   0  0  0  0  0  0  0  0  0  0  0  0
   80.2326  151.8718   16.7517 O   0  0  0  0  0  0  0  0  0  0  0  0
   80.6674  152.4065   16.1168 H   0  0  0  0  0  0  0  0  0  0  0  0
  1  9  1  0  0  0  0
  1  2  2  0  0  0  0
  1  3  5  0  0  0  0
  2 16  1  0  0  0  0
  2  4  5  0  0  0  0
  3 18  1  0  0  0  0
  3  5  2  0  0  0  0
  4  6  2  0  0  0  0
  4 20  1  0  0  0  0
  5  6  5  0  0  0  0
  7  8  2  0  0  0  0
  8  9  1  0  0  0  0
  8 10  1  0  0  0  0
  9 11  1  0  0  0  0
 10 12  1  0  0  0  0
 10 15  1  0  0  0  0
 11 13  1  0  0  0  0
 12 14  2  0  0  0  0
 12 13  1  0  0  0  0
 16 17  1  0  0  0  0
 18 19  1  0  0  0  0
 20 21  1  0  0  0  0
 21 22  1  0  0  0  0
 21 23  1  0  0  0  0
 22 29  1  6  0  0  0
 22 24  1  0  0  0  0
 23 25  1  0  0  0  0
 24 26  1  0  0  0  0
 25 27  1  0  0  0  0
 26 27  1  0  0  0  0
 26 28  1  0  0  0  0
 29 30  2  0  0  0  0
 29 31  1  0  0  0  0
 31 32  1  0  0  0  0
M  END
>  <ID>
EDEL-CRBN-0004

>  <Stereoisomer>
original

>  <MW>
406.19

>  <HBD>
3

>  <HBA>
7

>  <RotBonds>
6

>  <cLogP>
0.4

>  <minimizedAffinity>
-7.74685

>  <CNNscore>
0.7092846632

>  <CNNaffinity>
5.6833777428

>  <CNN_VS>
4.0311326981

>  <CNNaffinity_variance>
0.7767696977

$$$$
