EDEL-CRBN-0011
 OpenBabel09062620533D

 35 39  0  0  0  0  0  0  0  0999 V2000
   88.3078  149.1461   16.4681 N   0  0  0  0  0  0  0  0  0  0  0  0
   88.7264  148.9684   15.0736 C   0  0  0  0  0  0  0  0  0  0  0  0
   86.8714  149.0053   16.7025 C   0  0  0  0  0  0  0  0  0  0  0  0
   87.7030  149.5963   14.1305 C   0  0  0  0  0  0  0  0  0  0  0  0
   86.1660  148.1886   15.6231 C   0  0  0  0  0  0  0  0  0  0  0  0
   86.3671  148.8453   14.2502 C   0  0  2  0  0  0  0  0  0  0  0  0
   86.2880  147.8108   13.2108 O   0  0  0  0  0  0  0  0  0  0  0  0
   85.0956  149.5290   13.6374 C   0  0  2  0  0  0  0  0  0  0  0  0
   85.4262  148.6608   12.4133 C   0  0  0  0  0  0  0  0  0  0  0  0
   85.0049  151.1114   13.5453 C   0  0  0  0  0  0  0  0  0  0  0  0
   83.8118  151.7798   13.8760 C   0  0  0  0  0  0  0  0  0  0  0  0
   86.0637  151.9345   13.1285 C   0  0  0  0  0  0  0  0  0  0  0  0
   83.6852  153.1763   13.8025 C   0  0  0  0  0  0  0  0  0  0  0  0
   85.9531  153.3338   13.0785 C   0  0  0  0  0  0  0  0  0  0  0  0
   84.7695  153.9887   13.4368 C   0  0  0  0  0  0  0  0  0  0  0  0
   84.7189  155.4233   13.4465 N   0  0  0  0  0  0  0  0  0  0  0  0
   85.0879  156.1775   12.3326 C   0  0  0  0  0  0  0  0  0  0  0  0
   84.1132  156.1157   14.5792 C   0  0  0  0  0  0  0  0  0  0  0  0
   85.4655  155.7384   11.2489 O   0  0  0  0  0  0  0  0  0  0  0  0
   84.9987  157.5398   12.4914 N   0  0  0  0  0  0  0  0  0  0  0  0
   84.8857  157.3754   14.9117 C   0  0  0  0  0  0  0  0  0  0  0  0
   85.0127  158.2169   13.6787 C   0  0  0  0  0  0  0  0  0  0  0  0
   85.2008  159.4295   13.7238 O   0  0  0  0  0  0  0  0  0  0  0  0
   84.9170  158.0793   11.6720 H   0  0  0  0  0  0  0  0  0  0  0  0
   82.4450  153.6973   14.0860 O   0  0  0  0  0  0  0  0  0  0  0  0
   81.8081  152.9052   15.0924 C   0  0  0  0  0  0  0  0  0  0  0  0
   89.1860  148.4968   17.4463 C   0  0  0  0  0  0  0  0  0  0  0  0
   94.2751  148.5053   18.6746 Cl  0  0  0  0  0  0  0  0  0  0  0  0
   92.7728  149.3195   18.4595 C   0  0  0  0  0  0  0  0  0  0  0  0
   91.6363  148.6193   18.0539 C   0  0  0  0  0  0  0  0  0  0  0  0
   92.7006  150.6920   18.6915 C   0  0  0  0  0  0  0  0  0  0  0  0
   91.7136  147.2983   17.8242 F   0  0  0  0  0  0  0  0  0  0  0  0
   90.4088  149.2720   17.8796 C   0  0  0  0  0  0  0  0  0  0  0  0
   91.4897  151.3606   18.5119 C   0  0  0  0  0  0  0  0  0  0  0  0
   90.3525  150.6565   18.1061 C   0  0  0  0  0  0  0  0  0  0  0  0
  1  2  1  0  0  0  0
  1  3  1  0  0  0  0
  2  4  1  0  0  0  0
  3  5  1  0  0  0  0
  6  5  1  1  0  0  0
  6  4  1  0  0  0  0
  6  7  1  0  0  0  0
  6  8  1  0  0  0  0
  7  9  1  0  0  0  0
  8 10  1  6  0  0  0
  8  9  1  0  0  0  0
 10 11  2  0  0  0  0
 10 12  5  0  0  0  0
 11 13  5  0  0  0  0
 12 14  2  0  0  0  0
 13 25  1  0  0  0  0
 13 15  2  0  0  0  0
 15 14  5  0  0  0  0
 15 16  1  0  0  0  0
 16 17  1  0  0  0  0
 16 18  1  0  0  0  0
 17 19  2  0  0  0  0
 17 20  1  0  0  0  0
 18 21  1  0  0  0  0
 20 22  1  0  0  0  0
 20 24  1  0  0  0  0
 21 22  1  0  0  0  0
 22 23  2  0  0  0  0
 25 26  1  0  0  0  0
 27  1  1  0  0  0  0
 29 28  1  0  0  0  0
 29 30  2  0  0  0  0
 29 31  5  0  0  0  0
 30 32  1  0  0  0  0
 30 33  5  0  0  0  0
 31 34  2  0  0  0  0
 33 35  2  0  0  0  0
 33 27  1  0  0  0  0
 34 35  5  0  0  0  0
M  END
>  <ID>
EDEL-CRBN-0011

>  <Stereoisomer>
original

>  <MW>
487.17

>  <HBD>
1

>  <HBA>
5

>  <RotBonds>
5

>  <cLogP>
4.08

>  <minimizedAffinity>
-7.93425

>  <CNNscore>
0.5687072873

>  <CNNaffinity>
6.7179055214

>  <CNN_VS>
3.8205218315

>  <CNNaffinity_variance>
0.0631243959

$$$$
