EDEL-CRBN-0007
 OpenBabel09062620533D

 34 38  0  0  0  0  0  0  0  0999 V2000
   90.8869  151.2726    4.6324 O   0  0  0  0  0  0  0  0  0  0  0  0
   89.9668  151.7399    5.2990 C   0  0  0  0  0  0  0  0  0  0  0  0
   90.2632  152.4351    6.4353 N   0  0  0  0  0  0  0  0  0  0  0  0
   88.5046  151.6634    4.9007 C   0  0  2  0  0  0  0  0  0  0  0  0
   89.2901  152.8059    7.4290 C   0  0  0  0  0  0  0  0  0  0  0  0
   87.5135  150.9902    5.8889 C   0  0  2  0  0  0  0  0  0  0  0  0
   88.3410  150.8958    3.5819 C   0  0  0  0  0  0  0  0  0  0  0  0
   88.7329  151.5665    8.0785 C   0  0  0  0  0  0  0  0  0  0  0  0
   87.9182  150.6869    7.3290 C   0  0  0  0  0  0  0  0  0  0  0  0
   86.9866  149.7905    5.0759 C   0  0  0  0  0  0  0  0  0  0  0  0
   87.0112  150.2862    3.6985 N   0  0  0  0  0  0  0  0  0  0  0  0
   89.0500  151.2598    9.4249 C   0  0  0  0  0  0  0  0  0  0  0  0
   87.3996  149.5603    7.9881 C   0  0  0  0  0  0  0  0  0  0  0  0
   88.4860  150.1524   10.0898 C   0  0  0  0  0  0  0  0  0  0  0  0
   87.6779  149.2995    9.3350 C   0  0  0  0  0  0  0  0  0  0  0  0
   91.1999  152.6990    6.5845 H   0  0  0  0  0  0  0  0  0  0  0  0
   88.6614  149.9026   11.4931 N   0  0  0  0  0  0  0  0  0  0  0  0
   87.6645  150.1974   12.4229 C   0  0  0  0  0  0  0  0  0  0  0  0
   89.8585  149.2110   11.9601 C   0  0  0  0  0  0  0  0  0  0  0  0
   86.5487  150.6468   12.1737 O   0  0  0  0  0  0  0  0  0  0  0  0
   87.9935  149.9427   13.7328 N   0  0  0  0  0  0  0  0  0  0  0  0
   90.3707  149.8411   13.2388 C   0  0  0  0  0  0  0  0  0  0  0  0
   89.2600  149.8885   14.2444 C   0  0  0  0  0  0  0  0  0  0  0  0
   89.4677  149.9592   15.4525 O   0  0  0  0  0  0  0  0  0  0  0  0
   87.2503  149.7851   14.3589 H   0  0  0  0  0  0  0  0  0  0  0  0
   89.9628  152.0702   10.0664 O   0  0  0  0  0  0  0  0  0  0  0  0
   89.3320  152.7245   11.1742 C   0  0  0  0  0  0  0  0  0  0  0  0
   86.7922  149.2095    2.7263 C   0  0  0  0  0  0  0  0  0  0  0  0
   85.3528  149.1175    2.2687 C   0  0  0  0  0  0  0  0  0  0  0  0
   84.6505  150.2665    1.8783 C   0  0  0  0  0  0  0  0  0  0  0  0
   84.6975  147.8775    2.2318 C   0  0  0  0  0  0  0  0  0  0  0  0
   83.3231  150.1753    1.4552 C   0  0  0  0  0  0  0  0  0  0  0  0
   83.3707  147.7881    1.8085 C   0  0  0  0  0  0  0  0  0  0  0  0
   82.6845  148.9368    1.4192 C   0  0  0  0  0  0  0  0  0  0  0  0
  1  2  2  0  0  0  0
  2  3  1  0  0  0  0
  3  5  1  0  0  0  0
  3 16  1  0  0  0  0
  4  2  1  0  0  0  0
  4  6  1  0  0  0  0
  4  7  1  6  0  0  0
  6  9  1  0  0  0  0
  6 10  1  6  0  0  0
  7 11  1  0  0  0  0
  8  5  1  0  0  0  0
  8 12  2  0  0  0  0
  8  9  5  0  0  0  0
  9 13  2  0  0  0  0
 10 11  1  0  0  0  0
 11 28  1  0  0  0  0
 12 26  1  0  0  0  0
 12 14  5  0  0  0  0
 13 15  5  0  0  0  0
 14 17  1  0  0  0  0
 14 15  2  0  0  0  0
 17 18  1  0  0  0  0
 17 19  1  0  0  0  0
 18 20  2  0  0  0  0
 18 21  1  0  0  0  0
 19 22  1  0  0  0  0
 21 23  1  0  0  0  0
 21 25  1  0  0  0  0
 22 23  1  0  0  0  0
 23 24  2  0  0  0  0
 26 27  1  0  0  0  0
 28 29  1  0  0  0  0
 29 30  2  0  0  0  0
 29 31  5  0  0  0  0
 30 32  5  0  0  0  0
 31 33  2  0  0  0  0
 32 34  2  0  0  0  0
 33 34  5  0  0  0  0
M  END
>  <ID>
EDEL-CRBN-0007

>  <Stereoisomer>
original

>  <MW>
434.2

>  <HBD>
2

>  <HBA>
5

>  <RotBonds>
4

>  <cLogP>
1.99

>  <minimizedAffinity>
-5.20466

>  <CNNscore>
0.1955077946

>  <CNNaffinity>
4.7996840477

>  <CNN_VS>
0.9383756518

>  <CNNaffinity_variance>
0.2578146756

$$$$
