EDEL-CRBN-0003
 OpenBabel09062620533D

 30 32  0  0  0  0  0  0  0  0999 V2000
   83.9313  154.5878   13.9852 C   0  0  0  0  0  0  0  0  0  0  0  0
   84.7506  153.4759   13.6870 C   0  0  0  0  0  0  0  0  0  0  0  0
   82.5994  154.3440   14.3458 C   0  0  0  0  0  0  0  0  0  0  0  0
   84.2257  152.1691   13.6272 C   0  0  0  0  0  0  0  0  0  0  0  0
   82.0791  153.0480   14.3420 C   0  0  0  0  0  0  0  0  0  0  0  0
   82.8796  151.9717   13.9675 C   0  0  0  0  0  0  0  0  0  0  0  0
   84.0975  156.2417   11.5995 O   0  0  0  0  0  0  0  0  0  0  0  0
   84.5258  156.6163   12.6880 C   0  0  0  0  0  0  0  0  0  0  0  0
   84.4246  155.9296   13.8964 N   0  0  0  0  0  0  0  0  0  0  0  0
   85.0993  157.8640   12.7803 N   0  0  0  0  0  0  0  0  0  0  0  0
   85.1490  156.4793   15.0408 C   0  0  0  0  0  0  0  0  0  0  0  0
   85.0864  158.6487   13.9023 C   0  0  0  0  0  0  0  0  0  0  0  0
   84.8171  157.9456   15.2035 C   0  0  0  0  0  0  0  0  0  0  0  0
   85.2115  159.8686   13.8288 O   0  0  0  0  0  0  0  0  0  0  0  0
   85.5520  158.2183   11.9811 H   0  0  0  0  0  0  0  0  0  0  0  0
   86.1034  153.6365   13.4772 O   0  0  0  0  0  0  0  0  0  0  0  0
   86.3902  153.6057   12.0771 C   0  0  0  0  0  0  0  0  0  0  0  0
   85.0703  150.9856   13.1990 C   0  0  0  0  0  0  0  0  0  0  0  0
   85.2262  149.9543   14.2354 N   0  0  0  0  0  0  0  0  0  0  0  0
   85.4983  148.6180   13.6459 C   0  0  1  0  0  0  0  0  0  0  0  0
   86.1160  150.3131   15.3476 C   0  0  0  0  0  0  0  0  0  0  0  0
   86.9588  148.3284   13.2163 C   0  0  0  0  0  0  0  0  0  0  0  0
   87.5834  150.5549   14.9912 C   0  0  0  0  0  0  0  0  0  0  0  0
   87.8961  148.0986   14.3146 N   0  0  0  0  0  0  0  0  0  0  0  0
   88.4468  149.2961   14.9344 C   0  0  0  0  0  0  0  0  0  0  0  0
   88.6739  147.5467   13.9529 H   0  0  0  0  0  0  0  0  0  0  0  0
   84.9572  147.4931   14.5462 C   0  0  0  0  0  0  0  0  0  0  0  0
   84.0231  147.5179   15.3332 O   0  0  0  0  0  0  0  0  0  0  0  0
   85.6148  146.3221   14.3552 O   0  0  0  0  0  0  0  0  0  0  0  0
   86.3341  146.2811   13.7561 H   0  0  0  0  0  0  0  0  0  0  0  0
  1  9  1  0  0  0  0
  1  2  2  0  0  0  0
  1  3  5  0  0  0  0
  2 16  1  0  0  0  0
  2  4  5  0  0  0  0
  3  5  2  0  0  0  0
  4  6  2  0  0  0  0
  4 18  1  0  0  0  0
  5  6  5  0  0  0  0
  7  8  2  0  0  0  0
  8  9  1  0  0  0  0
  8 10  1  0  0  0  0
  9 11  1  0  0  0  0
 10 12  1  0  0  0  0
 10 15  1  0  0  0  0
 11 13  1  0  0  0  0
 12 14  2  0  0  0  0
 12 13  1  0  0  0  0
 16 17  1  0  0  0  0
 18 19  1  0  0  0  0
 19 20  1  0  0  0  0
 19 21  1  0  0  0  0
 20 27  1  1  0  0  0
 20 22  1  0  0  0  0
 21 23  1  0  0  0  0
 22 24  1  0  0  0  0
 23 25  1  0  0  0  0
 24 25  1  0  0  0  0
 24 26  1  0  0  0  0
 27 28  2  0  0  0  0
 27 29  1  0  0  0  0
 29 30  1  0  0  0  0
M  END
>  <ID>
EDEL-CRBN-0003

>  <Stereoisomer>
original

>  <MW>
376.17

>  <HBD>
3

>  <HBA>
6

>  <RotBonds>
5

>  <cLogP>
0.39

>  <minimizedAffinity>
-7.34638

>  <CNNscore>
0.8932448030

>  <CNNaffinity>
6.3879694939

>  <CNN_VS>
5.7060203552

>  <CNNaffinity_variance>
0.2284001708

$$$$
