EDEL-CRBN-0010_ent
 OpenBabel09062620533D

 36 40  0  0  0  0  0  0  0  0999 V2000
   83.6885  152.8004   18.4414 O   0  0  0  0  0  0  0  0  0  0  0  0
   83.2947  151.6939   18.0671 C   0  0  0  0  0  0  0  0  0  0  0  0
   82.6577  150.9088   18.9787 N   0  0  0  0  0  0  0  0  0  0  0  0
   83.6231  151.1559   16.6835 C   0  0  1  0  0  0  0  0  0  0  0  0
   81.9246  149.6954   18.7092 C   0  0  0  0  0  0  0  0  0  0  0  0
   82.7329  150.1176   15.9864 C   0  0  1  0  0  0  0  0  0  0  0  0
   83.7457  152.3018   15.6611 C   0  0  0  0  0  0  0  0  0  0  0  0
   80.8587  149.9498   17.6746 C   0  0  0  0  0  0  0  0  0  0  0  0
   81.2520  150.2105   16.3402 C   0  0  0  0  0  0  0  0  0  0  0  0
   83.1404  150.3370   14.5203 C   0  0  0  0  0  0  0  0  0  0  0  0
   83.1726  151.7915   14.4026 N   0  0  0  0  0  0  0  0  0  0  0  0
   79.4952  150.0002   18.0223 C   0  0  0  0  0  0  0  0  0  0  0  0
   80.2592  150.5058   15.3933 C   0  0  0  0  0  0  0  0  0  0  0  0
   78.5015  150.2574   17.0582 C   0  0  0  0  0  0  0  0  0  0  0  0
   78.9021  150.5370   15.7434 C   0  0  0  0  0  0  0  0  0  0  0  0
   82.7016  151.1987   19.9186 H   0  0  0  0  0  0  0  0  0  0  0  0
   77.1236  150.2002   17.4261 N   0  0  0  0  0  0  0  0  0  0  0  0
   76.4215  149.0008   17.4301 C   0  0  0  0  0  0  0  0  0  0  0  0
   76.5950  151.3237   18.1871 C   0  0  0  0  0  0  0  0  0  0  0  0
   76.7724  147.9591   16.8808 O   0  0  0  0  0  0  0  0  0  0  0  0
   75.1836  149.0609   18.0262 N   0  0  0  0  0  0  0  0  0  0  0  0
   75.1218  151.4977   17.8943 C   0  0  0  0  0  0  0  0  0  0  0  0
   74.4160  150.1897   18.1220 C   0  0  0  0  0  0  0  0  0  0  0  0
   73.2019  150.1239   18.2991 O   0  0  0  0  0  0  0  0  0  0  0  0
   74.8229  148.2303   18.4125 H   0  0  0  0  0  0  0  0  0  0  0  0
   79.1482  149.7816   19.3381 O   0  0  0  0  0  0  0  0  0  0  0  0
   79.1110  148.3759   19.6081 C   0  0  0  0  0  0  0  0  0  0  0  0
   77.9437  150.6887   14.7692 O   0  0  0  0  0  0  0  0  0  0  0  0
   77.8960  149.5739   13.8767 C   0  0  0  0  0  0  0  0  0  0  0  0
   83.8683  152.2569   13.2024 C   0  0  0  0  0  0  0  0  0  0  0  0
   84.2146  153.7293   13.2537 C   0  0  0  0  0  0  0  0  0  0  0  0
   85.4603  154.1850   12.7952 C   0  0  0  0  0  0  0  0  0  0  0  0
   83.3058  154.6597   13.7776 C   0  0  0  0  0  0  0  0  0  0  0  0
   85.7866  155.5405   12.8531 C   0  0  0  0  0  0  0  0  0  0  0  0
   83.6344  156.0155   13.8357 C   0  0  0  0  0  0  0  0  0  0  0  0
   84.8737  156.4551   13.3739 C   0  0  0  0  0  0  0  0  0  0  0  0
  1  2  2  0  0  0  0
  2  3  1  0  0  0  0
  3  5  1  0  0  0  0
  3 16  1  0  0  0  0
  4  2  1  0  0  0  0
  4  6  1  0  0  0  0
  4  7  1  6  0  0  0
  6  9  1  0  0  0  0
  6 10  1  6  0  0  0
  7 11  1  0  0  0  0
  8  5  1  0  0  0  0
  8 12  2  0  0  0  0
  8  9  5  0  0  0  0
  9 13  2  0  0  0  0
 10 11  1  0  0  0  0
 11 30  1  0  0  0  0
 12 26  1  0  0  0  0
 12 14  5  0  0  0  0
 13 15  5  0  0  0  0
 14 17  1  0  0  0  0
 14 15  2  0  0  0  0
 15 28  1  0  0  0  0
 17 18  1  0  0  0  0
 17 19  1  0  0  0  0
 18 20  2  0  0  0  0
 18 21  1  0  0  0  0
 19 22  1  0  0  0  0
 21 23  1  0  0  0  0
 21 25  1  0  0  0  0
 22 23  1  0  0  0  0
 23 24  2  0  0  0  0
 26 27  1  0  0  0  0
 28 29  1  0  0  0  0
 30 31  1  0  0  0  0
 31 32  2  0  0  0  0
 31 33  5  0  0  0  0
 32 34  5  0  0  0  0
 33 35  2  0  0  0  0
 34 36  2  0  0  0  0
 35 36  5  0  0  0  0
M  END
>  <ID>
EDEL-CRBN-0010_ent

>  <Stereoisomer>
enantiomer

>  <MW>
464.21

>  <HBD>
2

>  <HBA>
6

>  <RotBonds>
5

>  <cLogP>
2.0

>  <minimizedAffinity>
-7.61045

>  <CNNscore>
0.1955153793

>  <CNNaffinity>
4.6759052277

>  <CNN_VS>
0.9142113924

>  <CNNaffinity_variance>
1.6306905746

$$$$
