EDEL-CRBN-0001
 OpenBabel09062620533D

 28 30  0  0  0  0  0  0  0  0999 V2000
   84.2787  154.7281   13.8259 C   0  0  0  0  0  0  0  0  0  0  0  0
   85.1962  153.7197   13.4847 C   0  0  0  0  0  0  0  0  0  0  0  0
   82.9822  154.3281   14.1752 C   0  0  0  0  0  0  0  0  0  0  0  0
   84.8479  152.3548   13.5047 C   0  0  0  0  0  0  0  0  0  0  0  0
   82.6156  152.9785   14.1870 C   0  0  0  0  0  0  0  0  0  0  0  0
   83.5424  151.9962   13.8518 C   0  0  0  0  0  0  0  0  0  0  0  0
   84.4234  156.5189   11.5339 O   0  0  0  0  0  0  0  0  0  0  0  0
   84.7050  156.8846   12.6723 C   0  0  0  0  0  0  0  0  0  0  0  0
   84.6639  156.1127   13.8381 N   0  0  0  0  0  0  0  0  0  0  0  0
   85.1187  158.1854   12.8446 N   0  0  0  0  0  0  0  0  0  0  0  0
   85.2357  156.6866   15.0536 C   0  0  0  0  0  0  0  0  0  0  0  0
   85.0835  158.9019   14.0072 C   0  0  0  0  0  0  0  0  0  0  0  0
   84.7780  158.1173   15.2445 C   0  0  0  0  0  0  0  0  0  0  0  0
   85.2153  160.1226   14.0155 O   0  0  0  0  0  0  0  0  0  0  0  0
   85.4756  158.6457   12.0509 H   0  0  0  0  0  0  0  0  0  0  0  0
   85.8488  151.2889   13.0965 C   0  0  0  0  0  0  0  0  0  0  0  0
   86.3973  151.4946   11.7494 N   0  0  0  0  0  0  0  0  0  0  0  0
   86.5891  150.2431   10.9740 C   0  0  1  0  0  0  0  0  0  0  0  0
   87.4668  152.4913   11.6936 C   0  0  0  0  0  0  0  0  0  0  0  0
   87.2893  150.3659    9.5855 C   0  0  0  0  0  0  0  0  0  0  0  0
   88.9168  152.0028   11.7543 C   0  0  0  0  0  0  0  0  0  0  0  0
   88.4899  151.2086    9.4279 N   0  0  0  0  0  0  0  0  0  0  0  0
   89.3857  151.1477   10.5736 C   0  0  0  0  0  0  0  0  0  0  0  0
   88.1928  152.1759    9.2994 H   0  0  0  0  0  0  0  0  0  0  0  0
   87.2251  149.0905   11.7706 C   0  0  0  0  0  0  0  0  0  0  0  0
   88.2807  149.0779   12.3833 O   0  0  0  0  0  0  0  0  0  0  0  0
   86.4515  147.9800   11.7741 O   0  0  0  0  0  0  0  0  0  0  0  0
   85.6384  147.9739   11.3086 H   0  0  0  0  0  0  0  0  0  0  0  0
  1  9  1  0  0  0  0
  1  2  2  0  0  0  0
  1  3  5  0  0  0  0
  2  4  5  0  0  0  0
  3  5  2  0  0  0  0
  4  6  2  0  0  0  0
  4 16  1  0  0  0  0
  5  6  5  0  0  0  0
  7  8  2  0  0  0  0
  8  9  1  0  0  0  0
  8 10  1  0  0  0  0
  9 11  1  0  0  0  0
 10 12  1  0  0  0  0
 10 15  1  0  0  0  0
 11 13  1  0  0  0  0
 12 14  2  0  0  0  0
 12 13  1  0  0  0  0
 16 17  1  0  0  0  0
 17 18  1  0  0  0  0
 17 19  1  0  0  0  0
 18 25  1  1  0  0  0
 18 20  1  0  0  0  0
 19 21  1  0  0  0  0
 20 22  1  0  0  0  0
 21 23  1  0  0  0  0
 22 23  1  0  0  0  0
 22 24  1  0  0  0  0
 25 26  2  0  0  0  0
 25 27  1  0  0  0  0
 27 28  1  0  0  0  0
M  END
>  <ID>
EDEL-CRBN-0001

>  <Stereoisomer>
original

>  <MW>
346.16

>  <HBD>
3

>  <HBA>
5

>  <RotBonds>
4

>  <cLogP>
0.38

>  <minimizedAffinity>
-8.58648

>  <CNNscore>
0.9658514261

>  <CNNaffinity>
7.0123391151

>  <CNN_VS>
6.7728776932

>  <CNNaffinity_variance>
0.7394548059

$$$$
