EDEL-CRBN-0006_ent
 OpenBabel09062620533D

 34 38  0  0  0  0  0  0  0  0999 V2000
   86.4671  156.1653    3.3291 O   0  0  0  0  0  0  0  0  0  0  0  0
   87.5487  156.6463    2.9990 C   0  0  0  0  0  0  0  0  0  0  0  0
   87.6201  157.9832    2.7313 N   0  0  0  0  0  0  0  0  0  0  0  0
   88.8099  155.8275    2.7877 C   0  0  1  0  0  0  0  0  0  0  0  0
   88.8531  158.7048    2.5722 C   0  0  0  0  0  0  0  0  0  0  0  0
   90.0711  156.1943    3.6174 C   0  0  1  0  0  0  0  0  0  0  0  0
   88.5486  154.3467    3.0943 C   0  0  0  0  0  0  0  0  0  0  0  0
   89.6032  158.7004    3.8763 C   0  0  0  0  0  0  0  0  0  0  0  0
   90.1470  157.5059    4.3920 C   0  0  0  0  0  0  0  0  0  0  0  0
   90.3259  154.9144    4.4387 C   0  0  0  0  0  0  0  0  0  0  0  0
   89.8504  153.8502    3.5497 N   0  0  0  0  0  0  0  0  0  0  0  0
   89.7201  159.9047    4.5997 C   0  0  0  0  0  0  0  0  0  0  0  0
   90.8459  157.5806    5.6119 C   0  0  0  0  0  0  0  0  0  0  0  0
   90.4190  159.9689    5.8123 C   0  0  0  0  0  0  0  0  0  0  0  0
   90.9876  158.7886    6.3125 C   0  0  0  0  0  0  0  0  0  0  0  0
   86.7766  158.4829    2.6418 H   0  0  0  0  0  0  0  0  0  0  0  0
   90.5236  161.2093    6.5140 N   0  0  0  0  0  0  0  0  0  0  0  0
   91.4485  162.1790    6.1256 C   0  0  0  0  0  0  0  0  0  0  0  0
   89.4823  161.5915    7.4547 C   0  0  0  0  0  0  0  0  0  0  0  0
   92.1710  162.1429    5.1323 O   0  0  0  0  0  0  0  0  0  0  0  0
   91.4922  163.2937    6.9326 N   0  0  0  0  0  0  0  0  0  0  0  0
   90.0905  162.2929    8.6500 C   0  0  0  0  0  0  0  0  0  0  0  0
   90.9287  163.4412    8.1703 C   0  0  0  0  0  0  0  0  0  0  0  0
   91.1515  164.4289    8.8652 O   0  0  0  0  0  0  0  0  0  0  0  0
   91.9834  164.0705    6.5798 H   0  0  0  0  0  0  0  0  0  0  0  0
   91.5401  158.8006    7.5715 O   0  0  0  0  0  0  0  0  0  0  0  0
   92.9428  159.0654    7.5657 C   0  0  0  0  0  0  0  0  0  0  0  0
   89.7286  152.5522    4.2242 C   0  0  0  0  0  0  0  0  0  0  0  0
   89.7906  152.6652    5.7327 C   0  0  0  0  0  0  0  0  0  0  0  0
   91.0015  152.4783    6.4150 C   0  0  0  0  0  0  0  0  0  0  0  0
   88.6363  152.9653    6.4714 C   0  0  0  0  0  0  0  0  0  0  0  0
   91.0547  152.5878    7.8059 C   0  0  0  0  0  0  0  0  0  0  0  0
   88.6911  153.0739    7.8617 C   0  0  0  0  0  0  0  0  0  0  0  0
   89.9004  152.8855    8.5282 C   0  0  0  0  0  0  0  0  0  0  0  0
  1  2  2  0  0  0  0
  2  3  1  0  0  0  0
  3  5  1  0  0  0  0
  3 16  1  0  0  0  0
  4  2  1  0  0  0  0
  4  6  1  0  0  0  0
  4  7  1  1  0  0  0
  6  9  1  0  0  0  0
  6 10  1  1  0  0  0
  7 11  1  0  0  0  0
  8  5  1  0  0  0  0
  8 12  2  0  0  0  0
  8  9  5  0  0  0  0
  9 13  2  0  0  0  0
 10 11  1  0  0  0  0
 11 28  1  0  0  0  0
 13 15  5  0  0  0  0
 14 12  5  0  0  0  0
 14 17  1  0  0  0  0
 14 15  2  0  0  0  0
 15 26  1  0  0  0  0
 17 18  1  0  0  0  0
 17 19  1  0  0  0  0
 18 20  2  0  0  0  0
 18 21  1  0  0  0  0
 19 22  1  0  0  0  0
 21 23  1  0  0  0  0
 21 25  1  0  0  0  0
 22 23  1  0  0  0  0
 23 24  2  0  0  0  0
 26 27  1  0  0  0  0
 28 29  1  0  0  0  0
 29 30  2  0  0  0  0
 29 31  5  0  0  0  0
 30 32  5  0  0  0  0
 31 33  2  0  0  0  0
 32 34  2  0  0  0  0
 33 34  5  0  0  0  0
M  END
>  <ID>
EDEL-CRBN-0006_ent

>  <Stereoisomer>
enantiomer

>  <MW>
434.2

>  <HBD>
2

>  <HBA>
5

>  <RotBonds>
4

>  <cLogP>
1.99

>  <minimizedAffinity>
-6.41401

>  <CNNscore>
0.1986629069

>  <CNNaffinity>
4.5118823051

>  <CNN_VS>
0.8963436484

>  <CNNaffinity_variance>
0.6926615834

$$$$
