EDEL-CRBN-0011_ent
 OpenBabel09062620533D

 35 39  0  0  0  0  0  0  0  0999 V2000
   86.1143  148.5629   15.5780 N   0  0  0  0  0  0  0  0  0  0  0  0
   85.1046  148.9017   16.5850 C   0  0  0  0  0  0  0  0  0  0  0  0
   85.6428  148.6020   14.1937 C   0  0  0  0  0  0  0  0  0  0  0  0
   84.0918  149.9240   16.0766 C   0  0  0  0  0  0  0  0  0  0  0  0
   84.1527  148.2801   14.1105 C   0  0  0  0  0  0  0  0  0  0  0  0
   83.3665  149.3816   14.8334 C   0  0  1  0  0  0  0  0  0  0  0  0
   82.0452  148.8707   15.2125 O   0  0  0  0  0  0  0  0  0  0  0  0
   82.6755  150.4243   13.8904 C   0  0  1  0  0  0  0  0  0  0  0  0
   81.4151  150.0688   14.6925 C   0  0  0  0  0  0  0  0  0  0  0  0
   83.2226  151.9137   13.7951 C   0  0  0  0  0  0  0  0  0  0  0  0
   84.4520  152.2620   13.2118 C   0  0  0  0  0  0  0  0  0  0  0  0
   82.4665  152.9885   14.2976 C   0  0  0  0  0  0  0  0  0  0  0  0
   84.8941  153.5939   13.1316 C   0  0  0  0  0  0  0  0  0  0  0  0
   82.9147  154.3179   14.2485 C   0  0  0  0  0  0  0  0  0  0  0  0
   84.1508  154.6495   13.6842 C   0  0  0  0  0  0  0  0  0  0  0  0
   84.6172  156.0072   13.7245 N   0  0  0  0  0  0  0  0  0  0  0  0
   84.6184  156.8202   12.5913 C   0  0  0  0  0  0  0  0  0  0  0  0
   85.2511  156.5151   14.9375 C   0  0  0  0  0  0  0  0  0  0  0  0
   84.2642  156.4948   11.4603 O   0  0  0  0  0  0  0  0  0  0  0  0
   85.0775  158.1003   12.7886 N   0  0  0  0  0  0  0  0  0  0  0  0
   84.8339  157.9473   15.2003 C   0  0  0  0  0  0  0  0  0  0  0  0
   85.1003  158.7723   13.9787 C   0  0  0  0  0  0  0  0  0  0  0  0
   85.2462  159.9905   14.0235 O   0  0  0  0  0  0  0  0  0  0  0  0
   85.4219  158.5778   11.9996 H   0  0  0  0  0  0  0  0  0  0  0  0
   86.0808  153.8022   12.4691 O   0  0  0  0  0  0  0  0  0  0  0  0
   86.6714  152.5432   12.1321 C   0  0  0  0  0  0  0  0  0  0  0  0
   87.4480  149.1314   15.8014 C   0  0  0  0  0  0  0  0  0  0  0  0
   91.2040  152.0448   13.5925 Cl  0  0  0  0  0  0  0  0  0  0  0  0
   89.9660  150.8508   13.4976 C   0  0  0  0  0  0  0  0  0  0  0  0
   89.2530  150.4751   14.6371 C   0  0  0  0  0  0  0  0  0  0  0  0
   89.6782  150.2616   12.2693 C   0  0  0  0  0  0  0  0  0  0  0  0
   89.5447  151.0430   15.8182 F   0  0  0  0  0  0  0  0  0  0  0  0
   88.2371  149.5134   14.5699 C   0  0  0  0  0  0  0  0  0  0  0  0
   88.6841  149.2876   12.1869 C   0  0  0  0  0  0  0  0  0  0  0  0
   87.9734  148.9114   13.3287 C   0  0  0  0  0  0  0  0  0  0  0  0
  1  2  1  0  0  0  0
  1  3  1  0  0  0  0
  2  4  1  0  0  0  0
  3  5  1  0  0  0  0
  6  5  1  6  0  0  0
  6  4  1  0  0  0  0
  6  7  1  0  0  0  0
  6  8  1  0  0  0  0
  7  9  1  0  0  0  0
  8 10  1  1  0  0  0
  8  9  1  0  0  0  0
 10 11  2  0  0  0  0
 10 12  5  0  0  0  0
 11 13  5  0  0  0  0
 12 14  2  0  0  0  0
 13 25  1  0  0  0  0
 13 15  2  0  0  0  0
 15 14  5  0  0  0  0
 15 16  1  0  0  0  0
 16 17  1  0  0  0  0
 16 18  1  0  0  0  0
 17 19  2  0  0  0  0
 17 20  1  0  0  0  0
 18 21  1  0  0  0  0
 20 22  1  0  0  0  0
 20 24  1  0  0  0  0
 21 22  1  0  0  0  0
 22 23  2  0  0  0  0
 25 26  1  0  0  0  0
 27  1  1  0  0  0  0
 29 28  1  0  0  0  0
 29 30  2  0  0  0  0
 29 31  5  0  0  0  0
 30 32  1  0  0  0  0
 30 33  5  0  0  0  0
 31 34  2  0  0  0  0
 33 35  2  0  0  0  0
 33 27  1  0  0  0  0
 34 35  5  0  0  0  0
M  END
>  <ID>
EDEL-CRBN-0011_ent

>  <Stereoisomer>
enantiomer

>  <MW>
487.17

>  <HBD>
1

>  <HBA>
5

>  <RotBonds>
5

>  <cLogP>
4.08

>  <minimizedAffinity>
-9.14456

>  <CNNscore>
0.9052139521

>  <CNNaffinity>
7.4775595665

>  <CNN_VS>
6.7687911987

>  <CNNaffinity_variance>
0.0992617086

$$$$
