EDEL-CRBN-0004_ent
 OpenBabel09062620533D

 32 34  0  0  0  0  0  0  0  0999 V2000
   85.0415  154.0432   13.2772 C   0  0  0  0  0  0  0  0  0  0  0  0
   84.1478  153.1453   13.9034 C   0  0  0  0  0  0  0  0  0  0  0  0
   86.0577  153.5011   12.4699 C   0  0  0  0  0  0  0  0  0  0  0  0
   84.2921  151.7473   13.7713 C   0  0  0  0  0  0  0  0  0  0  0  0
   86.1827  152.1206   12.2947 C   0  0  0  0  0  0  0  0  0  0  0  0
   85.3227  151.2507   12.9613 C   0  0  0  0  0  0  0  0  0  0  0  0
   84.4961  155.9337   11.2120 O   0  0  0  0  0  0  0  0  0  0  0  0
   84.6689  156.2886   12.3747 C   0  0  0  0  0  0  0  0  0  0  0  0
   84.9048  155.4555   13.4658 N   0  0  0  0  0  0  0  0  0  0  0  0
   84.5984  157.6296   12.6780 N   0  0  0  0  0  0  0  0  0  0  0  0
   84.6779  155.9869   14.7998 C   0  0  0  0  0  0  0  0  0  0  0  0
   84.9834  158.2309   13.8452 C   0  0  0  0  0  0  0  0  0  0  0  0
   85.3971  157.3098   14.9568 C   0  0  0  0  0  0  0  0  0  0  0  0
   85.0510  159.4530   13.9462 O   0  0  0  0  0  0  0  0  0  0  0  0
   84.2316  158.2192   11.9801 H   0  0  0  0  0  0  0  0  0  0  0  0
   83.1011  153.6060   14.6707 O   0  0  0  0  0  0  0  0  0  0  0  0
   81.8755  152.9808   14.2905 C   0  0  0  0  0  0  0  0  0  0  0  0
   86.9761  154.3041   11.8364 O   0  0  0  0  0  0  0  0  0  0  0  0
   87.7795  153.5153   10.9537 C   0  0  0  0  0  0  0  0  0  0  0  0
   83.3637  150.7863   14.4859 C   0  0  0  0  0  0  0  0  0  0  0  0
   83.9872  150.0892   15.6232 N   0  0  0  0  0  0  0  0  0  0  0  0
   83.5274  150.4740   16.9813 C   0  0  2  0  0  0  0  0  0  0  0  0
   84.0673  148.6423   15.4239 C   0  0  0  0  0  0  0  0  0  0  0  0
   81.9945  150.4476   17.2312 C   0  0  0  0  0  0  0  0  0  0  0  0
   82.9893  147.7385   16.0295 C   0  0  0  0  0  0  0  0  0  0  0  0
   81.3318  149.1357   17.2413 N   0  0  0  0  0  0  0  0  0  0  0  0
   81.5780  148.3140   16.0596 C   0  0  0  0  0  0  0  0  0  0  0  0
   80.3262  149.2892   17.3167 H   0  0  0  0  0  0  0  0  0  0  0  0
   84.0752  151.8513   17.3760 C   0  0  0  0  0  0  0  0  0  0  0  0
   85.1583  152.3271   17.0673 O   0  0  0  0  0  0  0  0  0  0  0  0
   83.2089  152.5873   18.1084 O   0  0  0  0  0  0  0  0  0  0  0  0
   82.3769  152.2296   18.3488 H   0  0  0  0  0  0  0  0  0  0  0  0
  1  9  1  0  0  0  0
  1  2  2  0  0  0  0
  1  3  5  0  0  0  0
  2 16  1  0  0  0  0
  2  4  5  0  0  0  0
  3 18  1  0  0  0  0
  3  5  2  0  0  0  0
  4  6  2  0  0  0  0
  4 20  1  0  0  0  0
  5  6  5  0  0  0  0
  7  8  2  0  0  0  0
  8  9  1  0  0  0  0
  8 10  1  0  0  0  0
  9 11  1  0  0  0  0
 10 12  1  0  0  0  0
 10 15  1  0  0  0  0
 11 13  1  0  0  0  0
 12 14  2  0  0  0  0
 12 13  1  0  0  0  0
 16 17  1  0  0  0  0
 18 19  1  0  0  0  0
 20 21  1  0  0  0  0
 21 22  1  0  0  0  0
 21 23  1  0  0  0  0
 22 29  1  6  0  0  0
 22 24  1  0  0  0  0
 23 25  1  0  0  0  0
 24 26  1  0  0  0  0
 25 27  1  0  0  0  0
 26 27  1  0  0  0  0
 26 28  1  0  0  0  0
 29 30  2  0  0  0  0
 29 31  1  0  0  0  0
 31 32  1  0  0  0  0
M  END
>  <ID>
EDEL-CRBN-0004_ent

>  <Stereoisomer>
enantiomer

>  <MW>
406.19

>  <HBD>
3

>  <HBA>
7

>  <RotBonds>
6

>  <cLogP>
0.4

>  <minimizedAffinity>
-6.97651

>  <CNNscore>
0.7617416382

>  <CNNaffinity>
5.4753279686

>  <CNN_VS>
4.1707854271

>  <CNNaffinity_variance>
1.5926207304

$$$$
