EDEL-CRBN-0009_ent
 OpenBabel09062620533D

 35 39  0  0  0  0  0  0  0  0999 V2000
   84.5639  154.7304   14.1925 C   0  0  0  0  0  0  0  0  0  0  0  0
   85.0301  153.9429   15.2586 C   0  0  0  0  0  0  0  0  0  0  0  0
   83.7663  154.1089   13.1945 C   0  0  0  0  0  0  0  0  0  0  0  0
   84.6997  152.5994   15.2945 C   0  0  0  0  0  0  0  0  0  0  0  0
   83.4311  152.7470   13.2387 C   0  0  0  0  0  0  0  0  0  0  0  0
   83.9103  152.0053   14.2929 C   0  0  0  0  0  0  0  0  0  0  0  0
   85.0235  151.5354   16.3188 C   0  0  2  0  0  0  0  0  0  0  0  0
   83.7157  150.5510   14.6588 C   0  0  1  0  0  0  0  0  0  0  0  0
   84.8984  150.3394   15.4869 N   0  0  0  0  0  0  0  0  0  0  0  0
   83.8835  151.4474   17.3893 C   0  0  0  0  0  0  0  0  0  0  0  0
   82.4778  150.3875   15.6044 C   0  0  0  0  0  0  0  0  0  0  0  0
   85.3130  149.0875   15.8419 C   0  0  0  0  0  0  0  0  0  0  0  0
   82.5128  151.2807   16.8090 N   0  0  0  0  0  0  0  0  0  0  0  0
   84.9050  148.0662   15.3059 O   0  0  0  0  0  0  0  0  0  0  0  0
   85.1404  156.2401   11.7677 O   0  0  0  0  0  0  0  0  0  0  0  0
   85.1679  156.7539   12.8833 C   0  0  0  0  0  0  0  0  0  0  0  0
   84.8979  156.1277   14.1061 N   0  0  0  0  0  0  0  0  0  0  0  0
   85.5058  158.0849   12.9680 N   0  0  0  0  0  0  0  0  0  0  0  0
   85.1833  156.8761   15.3268 C   0  0  0  0  0  0  0  0  0  0  0  0
   85.2001  158.9359   13.9918 C   0  0  0  0  0  0  0  0  0  0  0  0
   84.6584  158.2932   15.2300 C   0  0  0  0  0  0  0  0  0  0  0  0
   85.2905  160.1538   13.8661 O   0  0  0  0  0  0  0  0  0  0  0  0
   86.0186  158.4611   12.2165 H   0  0  0  0  0  0  0  0  0  0  0  0
   86.2092  149.1309   16.8592 O   0  0  0  0  0  0  0  0  0  0  0  0
   87.6008  148.7849   16.6432 C   0  0  0  0  0  0  0  0  0  0  0  0
   88.2954  150.1275   16.3683 C   0  0  0  0  0  0  0  0  0  0  0  0
   88.2194  148.1633   17.9002 C   0  0  0  0  0  0  0  0  0  0  0  0
   87.7695  147.8859   15.4139 C   0  0  0  0  0  0  0  0  0  0  0  0
   81.5405  150.8903   17.8343 C   0  0  0  0  0  0  0  0  0  0  0  0
   82.0982  149.9097   18.8433 C   0  0  0  0  0  0  0  0  0  0  0  0
   81.2423  149.0381   19.5342 C   0  0  0  0  0  0  0  0  0  0  0  0
   83.4734  149.8631   19.1126 C   0  0  0  0  0  0  0  0  0  0  0  0
   81.7511  148.1380   20.4711 C   0  0  0  0  0  0  0  0  0  0  0  0
   83.9806  148.9620   20.0509 C   0  0  0  0  0  0  0  0  0  0  0  0
   83.1199  148.1007   20.7295 C   0  0  0  0  0  0  0  0  0  0  0  0
  1 17  1  0  0  0  0
  1  2  2  0  0  0  0
  1  3  5  0  0  0  0
  3  5  2  0  0  0  0
  4  2  5  0  0  0  0
  4  6  2  0  0  0  0
  4  7  1  0  0  0  0
  6  8  1  0  0  0  0
  6  5  5  0  0  0  0
  7  9  1  0  0  0  0
  7 10  1  1  0  0  0
  8 11  1  1  0  0  0
  8  9  1  0  0  0  0
  9 12  1  0  0  0  0
 10 13  1  0  0  0  0
 11 13  1  0  0  0  0
 12 14  2  0  0  0  0
 12 24  1  0  0  0  0
 13 29  1  0  0  0  0
 15 16  2  0  0  0  0
 16 17  1  0  0  0  0
 16 18  1  0  0  0  0
 17 19  1  0  0  0  0
 18 20  1  0  0  0  0
 18 23  1  0  0  0  0
 19 21  1  0  0  0  0
 20 22  2  0  0  0  0
 20 21  1  0  0  0  0
 24 25  1  0  0  0  0
 25 26  1  0  0  0  0
 25 27  1  0  0  0  0
 25 28  1  0  0  0  0
 29 30  1  0  0  0  0
 30 31  2  0  0  0  0
 30 32  5  0  0  0  0
 31 33  5  0  0  0  0
 32 34  2  0  0  0  0
 33 35  2  0  0  0  0
 34 35  5  0  0  0  0
M  END
>  <ID>
EDEL-CRBN-0009_ent

>  <Stereoisomer>
enantiomer

>  <MW>
462.23

>  <HBD>
1

>  <HBA>
5

>  <RotBonds>
3

>  <cLogP>
3.98

>  <minimizedAffinity>
-9.24529

>  <CNNscore>
0.9317962527

>  <CNNaffinity>
7.5924477577

>  <CNN_VS>
7.0746145248

>  <CNNaffinity_variance>
0.0404398032

$$$$
