BX912


 34 37  0  0  0  0  0  0  0  0999 V2000
   -8.7442   45.2244   43.1458 Br  0  0  0  0  0  0  0  0  0  0  0  0
   -8.0393   43.5517   43.6642 C   0  0  0  0  0  0  0  0  0  0  0  0
   -6.7351   43.3713   44.1007 C   0  0  0  0  0  0  0  0  0  0  0  0
   -8.8177   42.4209   43.5914 C   0  0  0  0  0  0  0  0  0  0  0  0
   -6.2906   42.1518   44.4697 N   0  0  0  0  0  0  0  0  0  0  0  0
   -8.3831   41.1924   43.9338 N   0  0  0  0  0  0  0  0  0  0  0  0
   -7.1290   41.1035   44.3953 C   0  0  0  0  0  0  0  0  0  0  0  0
   -5.8745   44.4794   44.2303 N   0  0  0  0  0  0  0  0  0  0  0  0
   -6.2364   45.1311   44.9226 H   0  0  0  0  0  0  0  0  0  0  0  0
   -5.4701   45.1392   42.9850 C   0  0  0  0  0  0  0  0  0  0  0  0
   -3.9457   45.0930   42.7765 C   0  0  0  0  0  0  0  0  0  0  0  0
   -3.4154   46.3559   42.1988 C   0  0  0  0  0  0  0  0  0  0  0  0
   -2.0686   46.5988   42.0772 N   0  0  0  0  0  0  0  0  0  0  0  0
   -4.0214   47.4810   41.6858 C   0  0  0  0  0  0  0  0  0  0  0  0
   -1.9227   47.8359   41.5188 C   0  0  0  0  0  0  0  0  0  0  0  0
   -3.0859   48.3936   41.2704 N   0  0  0  0  0  0  0  0  0  0  0  0
   -1.3190   45.9878   42.3825 H   0  0  0  0  0  0  0  0  0  0  0  0
   -6.6996   39.8264   44.7415 N   0  0  0  0  0  0  0  0  0  0  0  0
   -7.4979   39.2068   44.8065 H   0  0  0  0  0  0  0  0  0  0  0  0
   -5.5382   39.3700   45.3831 C   0  0  0  0  0  0  0  0  0  0  0  0
   -4.3819   40.1682   45.3166 C   0  0  0  0  0  0  0  0  0  0  0  0
   -5.4949   38.2109   46.1634 C   0  0  0  0  0  0  0  0  0  0  0  0
   -3.2063   39.8150   45.9875 C   0  0  0  0  0  0  0  0  0  0  0  0
   -4.3314   37.8473   46.8420 C   0  0  0  0  0  0  0  0  0  0  0  0
   -3.1935   38.6473   46.7558 C   0  0  0  0  0  0  0  0  0  0  0  0
   -2.0240   40.5834   45.9656 N   0  0  0  0  0  0  0  0  0  0  0  0
   -0.8742   40.3459   45.2469 C   0  0  0  0  0  0  0  0  0  0  0  0
   -0.6636   39.3521   44.5566 O   0  0  0  0  0  0  0  0  0  0  0  0
    0.0763   41.3427   45.3608 N   0  0  0  0  0  0  0  0  0  0  0  0
   -0.0500   42.6459   45.9976 C   0  0  0  0  0  0  0  0  0  0  0  0
    1.3582   41.2132   44.6886 C   0  0  0  0  0  0  0  0  0  0  0  0
    1.1436   43.4416   45.4872 C   0  0  0  0  0  0  0  0  0  0  0  0
    2.1896   42.3648   45.2328 C   0  0  0  0  0  0  0  0  0  0  0  0
   -1.9698   41.3282   46.6400 H   0  0  0  0  0  0  0  0  0  0  0  0
  1  2  1  0
  2  3  2  0
  2  4  1  0
  3  5  1  0
  3  8  1  0
  4  6  2  0
  5  7  2  0
  8 10  1  0
  7 18  1  0
 10 11  1  0
 18 20  1  0
 11 12  1  0
 20 21  2  0
 20 22  1  0
 12 13  1  0
 12 14  2  0
 21 23  1  0
 22 24  2  0
 13 15  1  0
 14 16  1  0
 23 26  1  0
 23 25  2  0
 26 27  1  0
 27 28  2  0
 27 29  1  0
 29 30  1  0
 29 31  1  0
 30 32  1  0
 31 33  1  0
  6  7  1  0
 24 25  1  0
 15 16  2  0
 32 33  1  0
  8  9  1  0
 18 19  1  0
 13 17  1  0
 26 34  1  0
M  END
> <Molecule Name>
BX912

> <Name>
BX912

> <pIC50 PDK>
7.327902

> <selection>
Y

> <MMFF94_energy_kcal_mol>
-102.6324

> <Note>
No stereocenters; achiral molecule

> <minimizedAffinity>
-8.90759

> <CNNscore>
0.9053560495

> <CNNaffinity>
7.5617251396

> <CNN_VS>
6.8460536003

> <CNNaffinity_variance>
0.2101588249
$$$$
