EL2003A-A2U1


 38 42  0  0  0  0  0  0  0  0999 V2000
   -7.2260   41.5464   44.4815 C   0  0  0  0  0  0  0  0  0  0  0  0
   -6.4210   42.6032   44.7317 N   0  0  0  0  0  0  0  0  0  0  0  0
   -8.4067   41.5903   43.8278 N   0  0  0  0  0  0  0  0  0  0  0  0
   -6.7404   43.8375   44.2636 C   0  0  0  0  0  0  0  0  0  0  0  0
   -8.7081   42.8294   43.4240 C   0  0  0  0  0  0  0  0  0  0  0  0
   -7.9642   43.9793   43.5920 C   0  0  0  0  0  0  0  0  0  0  0  0
   -9.8186   43.2231   42.7363 N   0  0  0  0  0  0  0  0  0  0  0  0
   -8.6036   45.0651   43.0222 N   0  0  0  0  0  0  0  0  0  0  0  0
   -9.7132   44.5699   42.5162 C   0  0  0  0  0  0  0  0  0  0  0  0
  -10.5679   42.6162   42.4420 H   0  0  0  0  0  0  0  0  0  0  0  0
   -6.8235   40.2549   44.8594 N   0  0  0  0  0  0  0  0  0  0  0  0
   -7.2695   39.6214   44.2098 H   0  0  0  0  0  0  0  0  0  0  0  0
   -3.9957   38.1367   46.0271 C   0  0  0  0  0  0  0  0  0  0  0  0
   -2.9363   39.0637   46.0352 C   0  0  0  0  0  0  0  0  0  0  0  0
   -5.2871   38.5689   45.6899 C   0  0  0  0  0  0  0  0  0  0  0  0
   -3.1855   40.3798   45.6160 C   0  0  0  0  0  0  0  0  0  0  0  0
   -1.5337   38.6859   46.4233 C   0  0  0  0  0  0  0  0  0  0  0  0
   -5.5358   39.8840   45.2795 C   0  0  0  0  0  0  0  0  0  0  0  0
   -4.4649   40.7754   45.2216 C   0  0  0  0  0  0  0  0  0  0  0  0
   -5.2292   36.5405   48.1233 O   0  0  0  0  0  0  0  0  0  0  0  0
   -4.3119   36.1082   47.4260 C   0  0  0  0  0  0  0  0  0  0  0  0
   -3.7820   34.8523   47.6321 N   0  0  0  0  0  0  0  0  0  0  0  0
   -3.7461   36.7872   46.3691 N   0  0  0  0  0  0  0  0  0  0  0  0
   -2.5960   34.2753   47.0149 C   0  0  0  0  0  0  0  0  0  0  0  0
   -4.2926   33.9944   48.6874 C   0  0  0  0  0  0  0  0  0  0  0  0
   -2.2356   33.0946   47.9063 C   0  0  0  0  0  0  0  0  0  0  0  0
   -3.5844   32.6662   48.4696 C   0  0  0  0  0  0  0  0  0  0  0  0
   -3.3983   36.1911   45.6363 H   0  0  0  0  0  0  0  0  0  0  0  0
   -5.8755   44.9271   44.4465 N   0  0  0  0  0  0  0  0  0  0  0  0
   -6.3559   45.7681   44.1259 H   0  0  0  0  0  0  0  0  0  0  0  0
   -4.5391   44.7485   43.8744 C   0  0  0  0  0  0  0  0  0  0  0  0
   -3.6684   46.0128   43.9322 C   0  0  0  0  0  0  0  0  0  0  0  0
   -3.8739   46.9655   42.8041 C   0  0  0  0  0  0  0  0  0  0  0  0
   -4.1197   48.3009   43.0387 N   0  0  0  0  0  0  0  0  0  0  0  0
   -3.8288   46.7243   41.4470 C   0  0  0  0  0  0  0  0  0  0  0  0
   -4.2649   48.8437   41.8510 C   0  0  0  0  0  0  0  0  0  0  0  0
   -4.0995   47.9265   40.8533 N   0  0  0  0  0  0  0  0  0  0  0  0
   -4.1839   48.1053   39.8555 H   0  0  0  0  0  0  0  0  0  0  0  0
 20 21  2  0
 21 22  1  0
 21 23  1  0
 22 24  1  0
 22 25  1  0
 23 13  1  0
 24 26  1  0
 25 27  1  0
 13 14  2  0
 13 15  1  0
 14 16  1  0
 14 17  1  0
 15 18  2  0
 16 19  2  0
 18 11  1  0
 11  1  1  0
  1  2  2  0
  1  3  1  0
  2  4  1  0
  3  5  2  0
  4 29  1  0
  4  6  2  0
  5  7  1  0
 29 31  1  0
  6  8  1  0
  7  9  1  0
 31 32  1  0
 32 33  1  0
 33 34  1  0
 33 35  2  0
 34 36  2  0
 35 37  1  0
 26 27  1  0
 18 19  1  0
  5  6  1  0
  8  9  2  0
 36 37  1  0
 23 28  1  0
 11 12  1  0
 29 30  1  0
  7 10  1  0
 37 38  1  0
M  END
> <Molecule Name>
EL2003A-A2U1

> <Name>
EL2003A-A2U1

> <pIC50 PDK>
7.6

> <selection>
Y

> <MMFF94_energy_kcal_mol>
-80.5413

> <Note>
No stereocenters; achiral molecule

> <minimizedAffinity>
-9.35506

> <CNNscore>
0.9744322896

> <CNNaffinity>
7.8898911476

> <CNN_VS>
7.6881647110

> <CNNaffinity_variance>
0.2477966547
$$$$
