EL5003A


 33 36  0  0  0  0  0  0  0  0999 V2000
   -9.3412   44.6238   42.5438 Br  0  0  0  0  0  0  0  0  0  0  0  0
   -8.3520   43.2976   43.4530 C   0  0  0  0  0  0  0  0  0  0  0  0
   -7.1269   43.5322   44.0593 C   0  0  0  0  0  0  0  0  0  0  0  0
   -8.8347   42.0116   43.5361 C   0  0  0  0  0  0  0  0  0  0  0  0
   -6.4743   42.5418   44.6968 N   0  0  0  0  0  0  0  0  0  0  0  0
   -8.1958   41.0118   44.1744 N   0  0  0  0  0  0  0  0  0  0  0  0
   -7.0353   41.3286   44.7566 C   0  0  0  0  0  0  0  0  0  0  0  0
   -6.5322   44.8096   43.9822 N   0  0  0  0  0  0  0  0  0  0  0  0
   -7.2469   45.5142   44.1479 H   0  0  0  0  0  0  0  0  0  0  0  0
   -5.3415   45.0156   44.8230 C   0  0  0  0  0  0  0  0  0  0  0  0
   -4.1516   45.5052   43.9866 C   0  0  0  0  0  0  0  0  0  0  0  0
   -4.5180   46.5665   43.0102 C   0  0  0  0  0  0  0  0  0  0  0  0
   -5.5267   47.4661   43.2721 N   0  0  0  0  0  0  0  0  0  0  0  0
   -3.9750   46.8100   41.7679 C   0  0  0  0  0  0  0  0  0  0  0  0
   -5.5722   48.2548   42.2211 C   0  0  0  0  0  0  0  0  0  0  0  0
   -4.6473   47.8976   41.2823 N   0  0  0  0  0  0  0  0  0  0  0  0
   -4.4656   48.3697   40.3990 H   0  0  0  0  0  0  0  0  0  0  0  0
   -6.3363   40.3963   45.5024 N   0  0  0  0  0  0  0  0  0  0  0  0
   -6.1548   40.8386   46.3990 H   0  0  0  0  0  0  0  0  0  0  0  0
   -5.2240   39.7226   44.8498 C   0  0  0  0  0  0  0  0  0  0  0  0
   -3.9495   40.5662   44.8676 C   0  0  0  0  0  0  0  0  0  0  0  0
   -4.8353   38.4830   45.6679 C   0  0  0  0  0  0  0  0  0  0  0  0
   -3.4287   40.3823   46.2883 C   0  0  0  0  0  0  0  0  0  0  0  0
   -3.7110   38.9151   46.6147 C   0  0  0  0  0  0  0  0  0  0  0  0
   -2.0327   40.7395   46.4314 N   0  0  0  0  0  0  0  0  0  0  0  0
   -1.1506   40.5694   45.3956 C   0  0  0  0  0  0  0  0  0  0  0  0
   -1.4600   40.0158   44.3420 O   0  0  0  0  0  0  0  0  0  0  0  0
    0.1151   41.0364   45.6391 N   0  0  0  0  0  0  0  0  0  0  0  0
    0.6528   41.5471   46.8918 C   0  0  0  0  0  0  0  0  0  0  0  0
    1.1537   40.9293   44.6295 C   0  0  0  0  0  0  0  0  0  0  0  0
    2.1626   41.5338   46.6953 C   0  0  0  0  0  0  0  0  0  0  0  0
    2.3140   41.7349   45.1932 C   0  0  0  0  0  0  0  0  0  0  0  0
   -1.8205   41.5017   47.0558 H   0  0  0  0  0  0  0  0  0  0  0  0
  1  2  1  0
  2  3  2  0
  2  4  1  0
  3  5  1  0
  3  8  1  0
  4  6  2  0
  5  7  2  0
  8 10  1  0
  7 18  1  0
 10 11  1  0
 20 18  1  0
 11 12  1  0
 20 21  1  0
 20 22  1  0
 12 13  1  0
 12 14  2  0
 21 23  1  0
 22 24  1  0
 13 15  2  0
 14 16  1  0
 23 25  1  0
 25 26  1  0
 26 27  2  0
 26 28  1  0
 28 29  1  0
 28 30  1  0
 29 31  1  0
 30 32  1  0
  6  7  1  0
 23 24  1  0
 15 16  1  0
 31 32  1  0
  8  9  1  0
 18 19  1  0
 16 17  1  0
 25 33  1  0
M  END
> <Molecule Name>
EL5003A

> <Name>
EL5003A

> <pIC50 PDK>
4

> <selection>
Y

> <MMFF94_energy_kcal_mol>
-154.3111

> <Note>
Stereocenters: [(11, 'R'), (17, 'R')]; absolute config retained

> <minimizedAffinity>
-7.80529

> <CNNscore>
0.9197016954

> <CNNaffinity>
7.7364363670

> <CNN_VS>
7.1152138710

> <CNNaffinity_variance>
0.0447055586
$$$$
