EL5001A


 30 32  0  0  0  0  0  0  0  0999 V2000
   -8.9693   45.3227   43.1328 Br  0  0  0  0  0  0  0  0  0  0  0  0
   -8.2306   43.6658   43.6560 C   0  0  0  0  0  0  0  0  0  0  0  0
   -7.0024   43.5353   44.2874 C   0  0  0  0  0  0  0  0  0  0  0  0
   -8.9231   42.4999   43.4296 C   0  0  0  0  0  0  0  0  0  0  0  0
   -6.5218   42.3200   44.6263 N   0  0  0  0  0  0  0  0  0  0  0  0
   -8.4679   41.2803   43.7768 N   0  0  0  0  0  0  0  0  0  0  0  0
   -7.2673   41.2385   44.3625 C   0  0  0  0  0  0  0  0  0  0  0  0
   -6.2028   44.6710   44.5088 N   0  0  0  0  0  0  0  0  0  0  0  0
   -5.3361   44.3957   44.9898 H   0  0  0  0  0  0  0  0  0  0  0  0
   -5.8726   45.4539   43.3158 C   0  0  0  0  0  0  0  0  0  0  0  0
   -4.6055   44.9009   42.6505 C   0  0  0  0  0  0  0  0  0  0  0  0
   -3.7127   45.9740   42.1171 C   0  0  0  0  0  0  0  0  0  0  0  0
   -2.5319   46.2965   42.7544 N   0  0  0  0  0  0  0  0  0  0  0  0
   -3.8844   46.7737   41.0072 C   0  0  0  0  0  0  0  0  0  0  0  0
   -2.0041   47.2685   42.0473 C   0  0  0  0  0  0  0  0  0  0  0  0
   -2.7885   47.5911   40.9775 N   0  0  0  0  0  0  0  0  0  0  0  0
   -2.5911   48.3089   40.2937 H   0  0  0  0  0  0  0  0  0  0  0  0
   -6.8127   39.9706   44.6936 N   0  0  0  0  0  0  0  0  0  0  0  0
   -7.5731   39.5347   45.2060 H   0  0  0  0  0  0  0  0  0  0  0  0
   -5.5212   39.9276   45.3809 C   0  0  0  0  0  0  0  0  0  0  0  0
   -5.2262   38.5251   45.9390 C   0  0  0  0  0  0  0  0  0  0  0  0
   -3.8292   38.1547   45.7718 N   0  0  0  0  0  0  0  0  0  0  0  0
   -3.2516   37.2512   46.6237 C   0  0  0  0  0  0  0  0  0  0  0  0
   -3.8316   36.8144   47.6148 O   0  0  0  0  0  0  0  0  0  0  0  0
   -1.9677   36.8943   46.2969 N   0  0  0  0  0  0  0  0  0  0  0  0
   -1.1470   37.4191   45.2160 C   0  0  0  0  0  0  0  0  0  0  0  0
   -1.2048   36.0013   47.1504 C   0  0  0  0  0  0  0  0  0  0  0  0
    0.1187   36.5742   45.2558 C   0  0  0  0  0  0  0  0  0  0  0  0
    0.2423   36.2147   46.7302 C   0  0  0  0  0  0  0  0  0  0  0  0
   -3.5663   38.0494   44.8037 H   0  0  0  0  0  0  0  0  0  0  0  0
  1  2  1  0
  2  3  2  0
  2  4  1  0
  3  5  1  0
  3  8  1  0
  4  6  2  0
  5  7  2  0
  8 10  1  0
  7 18  1  0
 10 11  1  0
 18 20  1  0
 11 12  1  0
 20 21  1  0
 12 13  1  0
 12 14  2  0
 21 22  1  0
 13 15  2  0
 14 16  1  0
 22 23  1  0
 23 24  2  0
 23 25  1  0
 25 26  1  0
 25 27  1  0
 26 28  1  0
 27 29  1  0
  6  7  1  0
 15 16  1  0
 28 29  1  0
  8  9  1  0
 18 19  1  0
 22 30  1  0
 16 17  1  0
M  END
> <Molecule Name>
EL5001A

> <Name>
EL5001A

> <pIC50 PDK>
4

> <selection>
Y

> <MMFF94_energy_kcal_mol>
-151.5602

> <Note>
No stereocenters; achiral molecule

> <minimizedAffinity>
-7.61716

> <CNNscore>
0.9038507342

> <CNNaffinity>
7.0420222282

> <CNN_VS>
6.3649368286

> <CNNaffinity_variance>
0.1319258362
$$$$
