EL5003A
 OpenBabel09072615533D

 33 36  0  0  0  0  0  0  0  0999 V2000
   -9.7260   44.2130   43.1059 Br  0  0  0  0  0  0  0  0  0  0  0  0
   -8.4502   45.5918   42.9181 C   0  0  0  0  0  0  0  0  0  0  0  0
   -7.0882   45.4103   43.1061 C   0  0  0  0  0  0  0  0  0  0  0  0
   -8.8531   46.8644   42.5834 C   0  0  0  0  0  0  0  0  0  0  0  0
   -6.2299   46.4364   42.9515 N   0  0  0  0  0  0  0  0  0  0  0  0
   -8.0062   47.8995   42.4206 N   0  0  0  0  0  0  0  0  0  0  0  0
   -6.7077   47.6332   42.5918 C   0  0  0  0  0  0  0  0  0  0  0  0
   -6.5898   44.1500   43.4989 N   0  0  0  0  0  0  0  0  0  0  0  0
   -6.5980   43.5289   42.6934 H   0  0  0  0  0  0  0  0  0  0  0  0
   -5.2856   44.1593   44.1817 C   0  0  0  0  0  0  0  0  0  0  0  0
   -4.5438   42.8317   43.9759 C   0  0  0  0  0  0  0  0  0  0  0  0
   -5.3336   41.6458   44.4045 C   0  0  0  0  0  0  0  0  0  0  0  0
   -4.8133   40.7115   45.2716 N   0  0  0  0  0  0  0  0  0  0  0  0
   -6.6103   41.2880   44.0311 C   0  0  0  0  0  0  0  0  0  0  0  0
   -5.7674   39.8229   45.4405 C   0  0  0  0  0  0  0  0  0  0  0  0
   -6.8789   40.1315   44.7099 N   0  0  0  0  0  0  0  0  0  0  0  0
   -7.7577   39.6179   44.6955 H   0  0  0  0  0  0  0  0  0  0  0  0
   -5.7479   48.6055   42.3736 N   0  0  0  0  0  0  0  0  0  0  0  0
   -5.8973   48.9338   41.4236 H   0  0  0  0  0  0  0  0  0  0  0  0
   -4.3829   48.2914   42.7674 C   0  0  1  0  0  0  0  0  0  0  0  0
   -3.3526   48.9825   41.8746 C   0  0  0  0  0  0  0  0  0  0  0  0
   -4.1066   48.8936   44.1524 C   0  0  0  0  0  0  0  0  0  0  0  0
   -3.3391   50.4134   42.3998 C   0  0  1  0  0  0  0  0  0  0  0  0
   -3.4720   50.2679   43.9163 C   0  0  0  0  0  0  0  0  0  0  0  0
   -2.1604   51.1534   41.9995 N   0  0  0  0  0  0  0  0  0  0  0  0
   -2.2527   52.4558   41.5810 C   0  0  0  0  0  0  0  0  0  0  0  0
   -3.3290   53.0287   41.4206 O   0  0  0  0  0  0  0  0  0  0  0  0
   -1.0499   53.0608   41.3233 N   0  0  0  0  0  0  0  0  0  0  0  0
    0.2712   52.4495   41.3042 C   0  0  0  0  0  0  0  0  0  0  0  0
   -0.9932   54.4421   40.8780 C   0  0  0  0  0  0  0  0  0  0  0  0
    1.1517   53.4607   40.5828 C   0  0  0  0  0  0  0  0  0  0  0  0
    0.4869   54.7906   40.9130 C   0  0  0  0  0  0  0  0  0  0  0  0
   -1.2943   50.9080   42.4528 H   0  0  0  0  0  0  0  0  0  0  0  0
  1  2  1  0  0  0  0
  2  3  2  0  0  0  0
  2  4  1  0  0  0  0
  3  5  1  0  0  0  0
  3  8  1  0  0  0  0
  4  6  2  0  0  0  0
  5  7  2  0  0  0  0
  6  7  1  0  0  0  0
  7 18  1  0  0  0  0
  8 10  1  0  0  0  0
  8  9  1  0  0  0  0
 10 11  1  0  0  0  0
 11 12  1  0  0  0  0
 12 13  1  0  0  0  0
 12 14  2  0  0  0  0
 13 15  2  0  0  0  0
 14 16  1  0  0  0  0
 15 16  1  0  0  0  0
 16 17  1  0  0  0  0
 18 19  1  0  0  0  0
 20 18  1  6  0  0  0
 20 21  1  0  0  0  0
 20 22  1  0  0  0  0
 21 23  1  0  0  0  0
 22 24  1  0  0  0  0
 23 25  1  1  0  0  0
 23 24  1  0  0  0  0
 25 26  1  0  0  0  0
 25 33  1  0  0  0  0
 26 27  2  0  0  0  0
 26 28  1  0  0  0  0
 28 29  1  0  0  0  0
 28 30  1  0  0  0  0
 29 31  1  0  0  0  0
 30 32  1  0  0  0  0
 31 32  1  0  0  0  0
M  END
