EL5003A


 33 36  0  0  0  0  0  0  0  0999 V2000
   -8.3918   42.0262   43.7609 Br  0  0  0  0  0  0  0  0  0  0  0  0
   -6.7261   41.4739   44.4569 C   0  0  0  0  0  0  0  0  0  0  0  0
   -5.5543   42.2024   44.3168 C   0  0  0  0  0  0  0  0  0  0  0  0
   -6.6241   40.2850   45.1424 C   0  0  0  0  0  0  0  0  0  0  0  0
   -4.3986   41.7536   44.8425 N   0  0  0  0  0  0  0  0  0  0  0  0
   -5.4764   39.8255   45.6780 N   0  0  0  0  0  0  0  0  0  0  0  0
   -4.3995   40.6016   45.5230 C   0  0  0  0  0  0  0  0  0  0  0  0
   -5.5546   43.4099   43.5867 N   0  0  0  0  0  0  0  0  0  0  0  0
   -6.4357   43.4887   43.0844 H   0  0  0  0  0  0  0  0  0  0  0  0
   -5.2411   44.6256   44.3555 C   0  0  0  0  0  0  0  0  0  0  0  0
   -5.2301   45.8650   43.4505 C   0  0  0  0  0  0  0  0  0  0  0  0
   -6.5927   46.3252   43.0694 C   0  0  0  0  0  0  0  0  0  0  0  0
   -7.6861   45.4949   43.1717 N   0  0  0  0  0  0  0  0  0  0  0  0
   -6.9729   47.5519   42.5712 C   0  0  0  0  0  0  0  0  0  0  0  0
   -8.7100   46.2154   42.7706 C   0  0  0  0  0  0  0  0  0  0  0  0
   -8.3273   47.4722   42.3986 N   0  0  0  0  0  0  0  0  0  0  0  0
   -8.9368   48.2238   42.0827 H   0  0  0  0  0  0  0  0  0  0  0  0
   -3.1888   40.2608   46.0992 N   0  0  0  0  0  0  0  0  0  0  0  0
   -2.4959   40.3510   45.3615 H   0  0  0  0  0  0  0  0  0  0  0  0
   -3.1548   39.0509   46.9067 C   0  0  0  0  0  0  0  0  0  0  0  0
   -2.7268   37.8287   46.0948 C   0  0  0  0  0  0  0  0  0  0  0  0
   -2.0447   39.1786   47.9595 C   0  0  0  0  0  0  0  0  0  0  0  0
   -1.2144   37.9888   45.9935 C   0  0  0  0  0  0  0  0  0  0  0  0
   -0.7925   38.5311   47.3597 C   0  0  0  0  0  0  0  0  0  0  0  0
   -0.5368   36.7605   45.6339 N   0  0  0  0  0  0  0  0  0  0  0  0
   -0.0834   36.5519   44.3569 C   0  0  0  0  0  0  0  0  0  0  0  0
   -0.3138   37.3305   43.4333 O   0  0  0  0  0  0  0  0  0  0  0  0
    0.6207   35.3887   44.1823 N   0  0  0  0  0  0  0  0  0  0  0  0
    0.8120   34.3085   45.1393 C   0  0  0  0  0  0  0  0  0  0  0  0
    1.1672   35.0388   42.8829 C   0  0  0  0  0  0  0  0  0  0  0  0
    1.3053   33.1365   44.3018 C   0  0  0  0  0  0  0  0  0  0  0  0
    2.0359   33.8200   43.1535 C   0  0  0  0  0  0  0  0  0  0  0  0
   -0.0031   36.3071   46.3589 H   0  0  0  0  0  0  0  0  0  0  0  0
  1  2  1  0
  2  3  2  0
  2  4  1  0
  3  5  1  0
  3  8  1  0
  4  6  2  0
  5  7  2  0
  8 10  1  0
  7 18  1  0
 10 11  1  0
 20 18  1  0
 11 12  1  0
 20 21  1  0
 20 22  1  0
 12 13  1  0
 12 14  2  0
 21 23  1  0
 22 24  1  0
 13 15  2  0
 14 16  1  0
 23 25  1  0
 25 26  1  0
 26 27  2  0
 26 28  1  0
 28 29  1  0
 28 30  1  0
 29 31  1  0
 30 32  1  0
  6  7  1  0
 23 24  1  0
 15 16  1  0
 31 32  1  0
  8  9  1  0
 18 19  1  0
 16 17  1  0
 25 33  1  0
M  END
> <Molecule Name>
EL5003A

> <Name>
EL5003A

> <pIC50 PDK>
4

> <selection>
Y

> <MMFF94_energy_kcal_mol>
-154.3111

> <Note>
Stereocenters: [(11, 'R'), (17, 'R')]; absolute config retained

> <minimizedAffinity>
-7.71406

> <CNNscore>
0.3582361341

> <CNNaffinity>
6.7254862785

> <CNN_VS>
2.4093122482

> <CNNaffinity_variance>
0.1080671921
$$$$
