EL5001A
 OpenBabel09072615523D

 30 32  0  0  0  0  0  0  0  0999 V2000
   -9.4894   44.4641   43.0972 Br  0  0  0  0  0  0  0  0  0  0  0  0
   -8.2619   43.1760   43.7290 C   0  0  0  0  0  0  0  0  0  0  0  0
   -6.9582   43.4714   44.0993 C   0  0  0  0  0  0  0  0  0  0  0  0
   -8.6462   41.8623   43.8576 C   0  0  0  0  0  0  0  0  0  0  0  0
   -6.1233   42.5028   44.5324 N   0  0  0  0  0  0  0  0  0  0  0  0
   -7.8330   40.8857   44.3048 N   0  0  0  0  0  0  0  0  0  0  0  0
   -6.5865   41.2488   44.6218 C   0  0  0  0  0  0  0  0  0  0  0  0
   -6.4649   44.7798   43.9483 N   0  0  0  0  0  0  0  0  0  0  0  0
   -6.0320   45.0902   44.8284 H   0  0  0  0  0  0  0  0  0  0  0  0
   -5.5233   44.9770   42.8439 C   0  0  0  0  0  0  0  0  0  0  0  0
   -4.1562   45.4183   43.3827 C   0  0  0  0  0  0  0  0  0  0  0  0
   -3.4239   46.3201   42.4427 C   0  0  0  0  0  0  0  0  0  0  0  0
   -2.1165   46.6886   42.6868 N   0  0  0  0  0  0  0  0  0  0  0  0
   -3.8705   46.9065   41.2776 C   0  0  0  0  0  0  0  0  0  0  0  0
   -1.7823   47.4794   41.6937 C   0  0  0  0  0  0  0  0  0  0  0  0
   -2.8139   47.6403   40.8139 N   0  0  0  0  0  0  0  0  0  0  0  0
   -2.7945   48.2049   39.9758 H   0  0  0  0  0  0  0  0  0  0  0  0
   -5.7636   40.2227   45.0619 N   0  0  0  0  0  0  0  0  0  0  0  0
   -6.3183   39.6976   45.7307 H   0  0  0  0  0  0  0  0  0  0  0  0
   -4.4537   40.6411   45.5634 C   0  0  0  0  0  0  0  0  0  0  0  0
   -3.4947   40.9895   44.4126 C   0  0  0  0  0  0  0  0  0  0  0  0
   -2.2350   41.5319   44.8980 N   0  0  0  0  0  0  0  0  0  0  0  0
   -1.0773   40.8145   44.7539 C   0  0  0  0  0  0  0  0  0  0  0  0
   -1.0639   39.6612   44.3311 O   0  0  0  0  0  0  0  0  0  0  0  0
    0.0599   41.4763   45.1434 N   0  0  0  0  0  0  0  0  0  0  0  0
    0.1570   42.7945   45.7515 C   0  0  0  0  0  0  0  0  0  0  0  0
    1.3513   40.8135   45.1157 C   0  0  0  0  0  0  0  0  0  0  0  0
    1.6531   43.0593   45.8469 C   0  0  0  0  0  0  0  0  0  0  0  0
    2.2361   41.6630   46.0166 C   0  0  0  0  0  0  0  0  0  0  0  0
   -2.1428   42.5212   44.7236 H   0  0  0  0  0  0  0  0  0  0  0  0
  1  2  1  0  0  0  0
  2  3  2  0  0  0  0
  2  4  1  0  0  0  0
  3  5  1  0  0  0  0
  3  8  1  0  0  0  0
  4  6  2  0  0  0  0
  5  7  2  0  0  0  0
  6  7  1  0  0  0  0
  7 18  1  0  0  0  0
  8 10  1  0  0  0  0
  8  9  1  0  0  0  0
 10 11  1  0  0  0  0
 11 12  1  0  0  0  0
 12 13  1  0  0  0  0
 12 14  2  0  0  0  0
 13 15  2  0  0  0  0
 14 16  1  0  0  0  0
 15 16  1  0  0  0  0
 16 17  1  0  0  0  0
 18 20  1  0  0  0  0
 18 19  1  0  0  0  0
 20 21  1  0  0  0  0
 21 22  1  0  0  0  0
 22 23  1  0  0  0  0
 22 30  1  0  0  0  0
 23 24  2  0  0  0  0
 23 25  1  0  0  0  0
 25 26  1  0  0  0  0
 25 27  1  0  0  0  0
 26 28  1  0  0  0  0
 27 29  1  0  0  0  0
 28 29  1  0  0  0  0
M  END
