EL5003A


 33 36  0  0  0  0  0  0  0  0999 V2000
   -9.3412   44.6238   42.5438 Br  0  0  0  0  0  0  0  0  0  0  0  0
   -8.3520   43.2976   43.4530 C   0  0  0  0  0  0  0  0  0  0  0  0
   -7.1269   43.5322   44.0593 C   0  0  0  0  0  0  0  0  0  0  0  0
   -8.8347   42.0116   43.5361 C   0  0  0  0  0  0  0  0  0  0  0  0
   -6.4743   42.5418   44.6968 N   0  0  0  0  0  0  0  0  0  0  0  0
   -8.1958   41.0118   44.1744 N   0  0  0  0  0  0  0  0  0  0  0  0
   -7.0353   41.3286   44.7566 C   0  0  0  0  0  0  0  0  0  0  0  0
   -6.5322   44.8096   43.9822 N   0  0  0  0  0  0  0  0  0  0  0  0
   -7.2469   45.5142   44.1479 H   0  0  0  0  0  0  0  0  0  0  0  0
   -5.3415   45.0156   44.8230 C   0  0  0  0  0  0  0  0  0  0  0  0
   -4.1516   45.5052   43.9866 C   0  0  0  0  0  0  0  0  0  0  0  0
   -4.5180   46.5665   43.0102 C   0  0  0  0  0  0  0  0  0  0  0  0
   -5.5267   47.4661   43.2721 N   0  0  0  0  0  0  0  0  0  0  0  0
   -3.9750   46.8100   41.7679 C   0  0  0  0  0  0  0  0  0  0  0  0
   -5.5722   48.2548   42.2211 C   0  0  0  0  0  0  0  0  0  0  0  0
   -4.6473   47.8976   41.2823 N   0  0  0  0  0  0  0  0  0  0  0  0
   -4.4656   48.3697   40.3990 H   0  0  0  0  0  0  0  0  0  0  0  0
   -6.3363   40.3963   45.5024 N   0  0  0  0  0  0  0  0  0  0  0  0
   -6.1548   40.8386   46.3990 H   0  0  0  0  0  0  0  0  0  0  0  0
   -5.2240   39.7226   44.8498 C   0  0  0  0  0  0  0  0  0  0  0  0
   -3.9495   40.5662   44.8676 C   0  0  0  0  0  0  0  0  0  0  0  0
   -4.8353   38.4830   45.6679 C   0  0  0  0  0  0  0  0  0  0  0  0
   -3.4287   40.3823   46.2883 C   0  0  0  0  0  0  0  0  0  0  0  0
   -3.7110   38.9151   46.6147 C   0  0  0  0  0  0  0  0  0  0  0  0
   -2.0327   40.7395   46.4314 N   0  0  0  0  0  0  0  0  0  0  0  0
   -1.1506   40.5694   45.3956 C   0  0  0  0  0  0  0  0  0  0  0  0
   -1.4600   40.0158   44.3420 O   0  0  0  0  0  0  0  0  0  0  0  0
    0.1151   41.0364   45.6391 N   0  0  0  0  0  0  0  0  0  0  0  0
    0.6528   41.5471   46.8918 C   0  0  0  0  0  0  0  0  0  0  0  0
    1.1537   40.9293   44.6295 C   0  0  0  0  0  0  0  0  0  0  0  0
    2.1626   41.5338   46.6953 C   0  0  0  0  0  0  0  0  0  0  0  0
    2.3140   41.7349   45.1932 C   0  0  0  0  0  0  0  0  0  0  0  0
   -1.8205   41.5017   47.0558 H   0  0  0  0  0  0  0  0  0  0  0  0
  1  2  1  0
  2  3  2  0
  2  4  1  0
  3  5  1  0
  3  8  1  0
  4  6  2  0
  5  7  2  0
  8 10  1  0
  7 18  1  0
 10 11  1  0
 20 18  1  0
 11 12  1  0
 20 21  1  0
 20 22  1  0
 12 13  1  0
 12 14  2  0
 21 23  1  0
 22 24  1  0
 13 15  2  0
 14 16  1  0
 23 25  1  0
 25 26  1  0
 26 27  2  0
 26 28  1  0
 28 29  1  0
 28 30  1  0
 29 31  1  0
 30 32  1  0
  6  7  1  0
 23 24  1  0
 15 16  1  0
 31 32  1  0
  8  9  1  0
 18 19  1  0
 16 17  1  0
 25 33  1  0
M  END
> <Molecule Name>
EL5003A

> <Name>
EL5003A

> <pIC50 PDK>
4

> <selection>
Y

> <MMFF94_energy_kcal_mol>
-154.3111

> <Note>
Stereocenters: [(11, 'R'), (17, 'R')]; absolute config retained

> <minimizedAffinity>
-7.80529

> <CNNscore>
0.9197016954

> <CNNaffinity>
7.7364363670

> <CNN_VS>
7.1152138710

> <CNNaffinity_variance>
0.0447055586
$$$$
EL5003A


 33 36  0  0  0  0  0  0  0  0999 V2000
   -9.3447   44.6114   42.5419 Br  0  0  0  0  0  0  0  0  0  0  0  0
   -8.3615   43.2812   43.4518 C   0  0  0  0  0  0  0  0  0  0  0  0
   -7.1110   43.4967   44.0115 C   0  0  0  0  0  0  0  0  0  0  0  0
   -8.8754   42.0114   43.5835 C   0  0  0  0  0  0  0  0  0  0  0  0
   -6.4642   42.5047   44.6524 N   0  0  0  0  0  0  0  0  0  0  0  0
   -8.2426   41.0104   44.2258 N   0  0  0  0  0  0  0  0  0  0  0  0
   -7.0552   41.3093   44.7614 C   0  0  0  0  0  0  0  0  0  0  0  0
   -6.4852   44.7549   43.8823 N   0  0  0  0  0  0  0  0  0  0  0  0
   -7.1657   45.4820   44.0894 H   0  0  0  0  0  0  0  0  0  0  0  0
   -5.2345   44.9309   44.6387 C   0  0  0  0  0  0  0  0  0  0  0  0
   -4.7332   46.3786   44.5496 C   0  0  0  0  0  0  0  0  0  0  0  0
   -3.7232   46.5848   43.4766 C   0  0  0  0  0  0  0  0  0  0  0  0
   -2.9858   47.7447   43.3976 N   0  0  0  0  0  0  0  0  0  0  0  0
   -3.3843   45.7353   42.4466 C   0  0  0  0  0  0  0  0  0  0  0  0
   -2.1972   47.5864   42.3576 C   0  0  0  0  0  0  0  0  0  0  0  0
   -2.4005   46.3810   41.7494 N   0  0  0  0  0  0  0  0  0  0  0  0
   -1.8940   46.0129   40.9468 H   0  0  0  0  0  0  0  0  0  0  0  0
   -6.3569   40.3767   45.5075 N   0  0  0  0  0  0  0  0  0  0  0  0
   -6.2826   40.7690   46.4420 H   0  0  0  0  0  0  0  0  0  0  0  0
   -5.1491   39.8220   44.9154 C   0  0  0  0  0  0  0  0  0  0  0  0
   -3.8956   40.5854   45.3424 C   0  0  0  0  0  0  0  0  0  0  0  0
   -4.9115   38.4143   45.4800 C   0  0  0  0  0  0  0  0  0  0  0  0
   -3.6310   40.0631   46.7497 C   0  0  0  0  0  0  0  0  0  0  0  0
   -3.9687   38.5734   46.6771 C   0  0  0  0  0  0  0  0  0  0  0  0
   -2.2806   40.3198   47.2053 N   0  0  0  0  0  0  0  0  0  0  0  0
   -1.9184   40.0872   48.5072 C   0  0  0  0  0  0  0  0  0  0  0  0
   -2.7259   39.7564   49.3737 O   0  0  0  0  0  0  0  0  0  0  0  0
   -0.5886   40.2842   48.7752 N   0  0  0  0  0  0  0  0  0  0  0  0
    0.4279   40.8378   47.8922 C   0  0  0  0  0  0  0  0  0  0  0  0
   -0.0600   40.0697   50.1110 C   0  0  0  0  0  0  0  0  0  0  0  0
    1.5853   41.1943   48.8152 C   0  0  0  0  0  0  0  0  0  0  0  0
    1.4475   40.1811   49.9439 C   0  0  0  0  0  0  0  0  0  0  0  0
   -1.5433   40.2070   46.5274 H   0  0  0  0  0  0  0  0  0  0  0  0
  1  2  1  0
  2  3  2  0
  2  4  1  0
  3  5  1  0
  3  8  1  0
  4  6  2  0
  5  7  2  0
  8 10  1  0
  7 18  1  0
 10 11  1  0
 20 18  1  0
 11 12  1  0
 20 21  1  0
 20 22  1  0
 12 13  1  0
 12 14  2  0
 21 23  1  0
 22 24  1  0
 13 15  2  0
 14 16  1  0
 23 25  1  0
 25 26  1  0
 26 27  2  0
 26 28  1  0
 28 29  1  0
 28 30  1  0
 29 31  1  0
 30 32  1  0
  6  7  1  0
 23 24  1  0
 15 16  1  0
 31 32  1  0
  8  9  1  0
 18 19  1  0
 16 17  1  0
 25 33  1  0
M  END
> <Molecule Name>
EL5003A

> <Name>
EL5003A

> <pIC50 PDK>
4

> <selection>
Y

> <MMFF94_energy_kcal_mol>
-154.3111

> <Note>
Stereocenters: [(11, 'R'), (17, 'R')]; absolute config retained

> <minimizedAffinity>
-7.59185

> <CNNscore>
0.8556323051

> <CNNaffinity>
7.3520793915

> <CNN_VS>
6.2906765938

> <CNNaffinity_variance>
0.0223511737
$$$$
EL5003A


 33 36  0  0  0  0  0  0  0  0999 V2000
   -4.8303   38.5280   45.9961 Br  0  0  0  0  0  0  0  0  0  0  0  0
   -4.3923   40.1873   45.2093 C   0  0  0  0  0  0  0  0  0  0  0  0
   -5.3365   41.1041   44.7717 C   0  0  0  0  0  0  0  0  0  0  0  0
   -3.0743   40.5427   45.0357 C   0  0  0  0  0  0  0  0  0  0  0  0
   -4.9566   42.2735   44.2227 N   0  0  0  0  0  0  0  0  0  0  0  0
   -2.6789   41.7106   44.4928 N   0  0  0  0  0  0  0  0  0  0  0  0
   -3.6513   42.5501   44.1239 C   0  0  0  0  0  0  0  0  0  0  0  0
   -6.7119   40.8028   44.8650 N   0  0  0  0  0  0  0  0  0  0  0  0
   -6.9851   40.8191   45.8447 H   0  0  0  0  0  0  0  0  0  0  0  0
   -7.6060   41.6153   44.0239 C   0  0  0  0  0  0  0  0  0  0  0  0
   -7.7141   43.0504   44.5567 C   0  0  0  0  0  0  0  0  0  0  0  0
   -8.3397   43.9904   43.5877 C   0  0  0  0  0  0  0  0  0  0  0  0
   -9.3401   43.5820   42.7346 N   0  0  0  0  0  0  0  0  0  0  0  0
   -8.0458   45.3190   43.3735 C   0  0  0  0  0  0  0  0  0  0  0  0
   -9.6633   44.6501   42.0394 C   0  0  0  0  0  0  0  0  0  0  0  0
   -8.9067   45.7302   42.3936 N   0  0  0  0  0  0  0  0  0  0  0  0
   -8.9872   46.6751   42.0238 H   0  0  0  0  0  0  0  0  0  0  0  0
   -3.3548   43.8067   43.6268 N   0  0  0  0  0  0  0  0  0  0  0  0
   -2.4751   44.0750   44.0588 H   0  0  0  0  0  0  0  0  0  0  0  0
   -4.4275   44.7897   43.6236 C   0  0  0  0  0  0  0  0  0  0  0  0
   -3.9358   46.1797   44.0268 C   0  0  0  0  0  0  0  0  0  0  0  0
   -4.9184   44.9957   42.1836 C   0  0  0  0  0  0  0  0  0  0  0  0
   -3.2555   46.6901   42.7619 C   0  0  0  0  0  0  0  0  0  0  0  0
   -4.1411   46.1895   41.6200 C   0  0  0  0  0  0  0  0  0  0  0  0
   -3.0751   48.1269   42.7552 N   0  0  0  0  0  0  0  0  0  0  0  0
   -4.1519   48.9740   42.8078 C   0  0  0  0  0  0  0  0  0  0  0  0
   -5.3145   48.5767   42.7561 O   0  0  0  0  0  0  0  0  0  0  0  0
   -3.8303   50.3041   42.8896 N   0  0  0  0  0  0  0  0  0  0  0  0
   -2.5119   50.9123   42.7833 C   0  0  0  0  0  0  0  0  0  0  0  0
   -4.8691   51.3169   42.9586 C   0  0  0  0  0  0  0  0  0  0  0  0
   -2.7890   52.3901   42.5431 C   0  0  0  0  0  0  0  0  0  0  0  0
   -4.1201   52.6080   43.2504 C   0  0  0  0  0  0  0  0  0  0  0  0
   -2.2293   48.4804   43.1742 H   0  0  0  0  0  0  0  0  0  0  0  0
  1  2  1  0
  2  3  2  0
  2  4  1  0
  3  5  1  0
  3  8  1  0
  4  6  2  0
  5  7  2  0
  8 10  1  0
  7 18  1  0
 10 11  1  0
 20 18  1  0
 11 12  1  0
 20 21  1  0
 20 22  1  0
 12 13  1  0
 12 14  2  0
 21 23  1  0
 22 24  1  0
 13 15  2  0
 14 16  1  0
 23 25  1  0
 25 26  1  0
 26 27  2  0
 26 28  1  0
 28 29  1  0
 28 30  1  0
 29 31  1  0
 30 32  1  0
  6  7  1  0
 23 24  1  0
 15 16  1  0
 31 32  1  0
  8  9  1  0
 18 19  1  0
 16 17  1  0
 25 33  1  0
M  END
> <Molecule Name>
EL5003A

> <Name>
EL5003A

> <pIC50 PDK>
4

> <selection>
Y

> <MMFF94_energy_kcal_mol>
-154.3111

> <Note>
Stereocenters: [(11, 'R'), (17, 'R')]; absolute config retained

> <minimizedAffinity>
-8.10762

> <CNNscore>
0.4979847670

> <CNNaffinity>
7.4017605782

> <CNN_VS>
3.6859641075

> <CNNaffinity_variance>
0.0470370837
$$$$
EL5003A


 33 36  0  0  0  0  0  0  0  0999 V2000
   -8.3918   42.0262   43.7609 Br  0  0  0  0  0  0  0  0  0  0  0  0
   -6.7261   41.4739   44.4569 C   0  0  0  0  0  0  0  0  0  0  0  0
   -5.5543   42.2024   44.3168 C   0  0  0  0  0  0  0  0  0  0  0  0
   -6.6241   40.2850   45.1424 C   0  0  0  0  0  0  0  0  0  0  0  0
   -4.3986   41.7536   44.8425 N   0  0  0  0  0  0  0  0  0  0  0  0
   -5.4764   39.8255   45.6780 N   0  0  0  0  0  0  0  0  0  0  0  0
   -4.3995   40.6016   45.5230 C   0  0  0  0  0  0  0  0  0  0  0  0
   -5.5546   43.4099   43.5867 N   0  0  0  0  0  0  0  0  0  0  0  0
   -6.4357   43.4887   43.0844 H   0  0  0  0  0  0  0  0  0  0  0  0
   -5.2411   44.6256   44.3555 C   0  0  0  0  0  0  0  0  0  0  0  0
   -5.2301   45.8650   43.4505 C   0  0  0  0  0  0  0  0  0  0  0  0
   -6.5927   46.3252   43.0694 C   0  0  0  0  0  0  0  0  0  0  0  0
   -7.6861   45.4949   43.1717 N   0  0  0  0  0  0  0  0  0  0  0  0
   -6.9729   47.5519   42.5712 C   0  0  0  0  0  0  0  0  0  0  0  0
   -8.7100   46.2154   42.7706 C   0  0  0  0  0  0  0  0  0  0  0  0
   -8.3273   47.4722   42.3986 N   0  0  0  0  0  0  0  0  0  0  0  0
   -8.9368   48.2238   42.0827 H   0  0  0  0  0  0  0  0  0  0  0  0
   -3.1888   40.2608   46.0992 N   0  0  0  0  0  0  0  0  0  0  0  0
   -2.4959   40.3510   45.3615 H   0  0  0  0  0  0  0  0  0  0  0  0
   -3.1548   39.0509   46.9067 C   0  0  0  0  0  0  0  0  0  0  0  0
   -2.7268   37.8287   46.0948 C   0  0  0  0  0  0  0  0  0  0  0  0
   -2.0447   39.1786   47.9595 C   0  0  0  0  0  0  0  0  0  0  0  0
   -1.2144   37.9888   45.9935 C   0  0  0  0  0  0  0  0  0  0  0  0
   -0.7925   38.5311   47.3597 C   0  0  0  0  0  0  0  0  0  0  0  0
   -0.5368   36.7605   45.6339 N   0  0  0  0  0  0  0  0  0  0  0  0
   -0.0834   36.5519   44.3569 C   0  0  0  0  0  0  0  0  0  0  0  0
   -0.3138   37.3305   43.4333 O   0  0  0  0  0  0  0  0  0  0  0  0
    0.6207   35.3887   44.1823 N   0  0  0  0  0  0  0  0  0  0  0  0
    0.8120   34.3085   45.1393 C   0  0  0  0  0  0  0  0  0  0  0  0
    1.1672   35.0388   42.8829 C   0  0  0  0  0  0  0  0  0  0  0  0
    1.3053   33.1365   44.3018 C   0  0  0  0  0  0  0  0  0  0  0  0
    2.0359   33.8200   43.1535 C   0  0  0  0  0  0  0  0  0  0  0  0
   -0.0031   36.3071   46.3589 H   0  0  0  0  0  0  0  0  0  0  0  0
  1  2  1  0
  2  3  2  0
  2  4  1  0
  3  5  1  0
  3  8  1  0
  4  6  2  0
  5  7  2  0
  8 10  1  0
  7 18  1  0
 10 11  1  0
 20 18  1  0
 11 12  1  0
 20 21  1  0
 20 22  1  0
 12 13  1  0
 12 14  2  0
 21 23  1  0
 22 24  1  0
 13 15  2  0
 14 16  1  0
 23 25  1  0
 25 26  1  0
 26 27  2  0
 26 28  1  0
 28 29  1  0
 28 30  1  0
 29 31  1  0
 30 32  1  0
  6  7  1  0
 23 24  1  0
 15 16  1  0
 31 32  1  0
  8  9  1  0
 18 19  1  0
 16 17  1  0
 25 33  1  0
M  END
> <Molecule Name>
EL5003A

> <Name>
EL5003A

> <pIC50 PDK>
4

> <selection>
Y

> <MMFF94_energy_kcal_mol>
-154.3111

> <Note>
Stereocenters: [(11, 'R'), (17, 'R')]; absolute config retained

> <minimizedAffinity>
-7.71406

> <CNNscore>
0.3582361341

> <CNNaffinity>
6.7254862785

> <CNN_VS>
2.4093122482

> <CNNaffinity_variance>
0.1080671921
$$$$
EL5003A


 33 36  0  0  0  0  0  0  0  0999 V2000
   -9.7260   44.2130   43.1059 Br  0  0  0  0  0  0  0  0  0  0  0  0
   -8.4502   45.5918   42.9181 C   0  0  0  0  0  0  0  0  0  0  0  0
   -7.0882   45.4103   43.1061 C   0  0  0  0  0  0  0  0  0  0  0  0
   -8.8531   46.8644   42.5834 C   0  0  0  0  0  0  0  0  0  0  0  0
   -6.2299   46.4364   42.9515 N   0  0  0  0  0  0  0  0  0  0  0  0
   -8.0062   47.8995   42.4206 N   0  0  0  0  0  0  0  0  0  0  0  0
   -6.7077   47.6332   42.5918 C   0  0  0  0  0  0  0  0  0  0  0  0
   -6.5898   44.1500   43.4989 N   0  0  0  0  0  0  0  0  0  0  0  0
   -6.5980   43.5289   42.6934 H   0  0  0  0  0  0  0  0  0  0  0  0
   -5.2856   44.1593   44.1817 C   0  0  0  0  0  0  0  0  0  0  0  0
   -4.5438   42.8317   43.9759 C   0  0  0  0  0  0  0  0  0  0  0  0
   -5.3336   41.6458   44.4045 C   0  0  0  0  0  0  0  0  0  0  0  0
   -4.8133   40.7115   45.2716 N   0  0  0  0  0  0  0  0  0  0  0  0
   -6.6103   41.2880   44.0311 C   0  0  0  0  0  0  0  0  0  0  0  0
   -5.7674   39.8229   45.4405 C   0  0  0  0  0  0  0  0  0  0  0  0
   -6.8789   40.1315   44.7099 N   0  0  0  0  0  0  0  0  0  0  0  0
   -7.7577   39.6179   44.6955 H   0  0  0  0  0  0  0  0  0  0  0  0
   -5.7479   48.6055   42.3736 N   0  0  0  0  0  0  0  0  0  0  0  0
   -5.8973   48.9338   41.4236 H   0  0  0  0  0  0  0  0  0  0  0  0
   -4.3829   48.2914   42.7674 C   0  0  0  0  0  0  0  0  0  0  0  0
   -3.3526   48.9825   41.8746 C   0  0  0  0  0  0  0  0  0  0  0  0
   -4.1066   48.8936   44.1524 C   0  0  0  0  0  0  0  0  0  0  0  0
   -3.3391   50.4134   42.3998 C   0  0  0  0  0  0  0  0  0  0  0  0
   -3.4720   50.2679   43.9163 C   0  0  0  0  0  0  0  0  0  0  0  0
   -2.1604   51.1534   41.9995 N   0  0  0  0  0  0  0  0  0  0  0  0
   -2.2527   52.4558   41.5810 C   0  0  0  0  0  0  0  0  0  0  0  0
   -3.3290   53.0287   41.4206 O   0  0  0  0  0  0  0  0  0  0  0  0
   -1.0499   53.0608   41.3233 N   0  0  0  0  0  0  0  0  0  0  0  0
    0.2712   52.4495   41.3042 C   0  0  0  0  0  0  0  0  0  0  0  0
   -0.9932   54.4421   40.8780 C   0  0  0  0  0  0  0  0  0  0  0  0
    1.1517   53.4607   40.5828 C   0  0  0  0  0  0  0  0  0  0  0  0
    0.4869   54.7906   40.9130 C   0  0  0  0  0  0  0  0  0  0  0  0
   -1.2943   50.9080   42.4528 H   0  0  0  0  0  0  0  0  0  0  0  0
  1  2  1  0
  2  3  2  0
  2  4  1  0
  3  5  1  0
  3  8  1  0
  4  6  2  0
  5  7  2  0
  8 10  1  0
  7 18  1  0
 10 11  1  0
 20 18  1  0
 11 12  1  0
 20 21  1  0
 20 22  1  0
 12 13  1  0
 12 14  2  0
 21 23  1  0
 22 24  1  0
 13 15  2  0
 14 16  1  0
 23 25  1  0
 25 26  1  0
 26 27  2  0
 26 28  1  0
 28 29  1  0
 28 30  1  0
 29 31  1  0
 30 32  1  0
  6  7  1  0
 23 24  1  0
 15 16  1  0
 31 32  1  0
  8  9  1  0
 18 19  1  0
 16 17  1  0
 25 33  1  0
M  END
> <Molecule Name>
EL5003A

> <Name>
EL5003A

> <pIC50 PDK>
4

> <selection>
Y

> <MMFF94_energy_kcal_mol>
-154.3111

> <Note>
Stereocenters: [(11, 'R'), (17, 'R')]; absolute config retained

> <minimizedAffinity>
-8.11963

> <CNNscore>
0.3417159319

> <CNNaffinity>
7.2250270844

> <CNN_VS>
2.4689068794

> <CNNaffinity_variance>
0.0131645203
$$$$
