EL5001A


 30 32  0  0  0  0  0  0  0  0999 V2000
   -5.3211   39.6727   45.4087 Br  0  0  0  0  0  0  0  0  0  0  0  0
   -6.4005   41.0618   44.7230 C   0  0  0  0  0  0  0  0  0  0  0  0
   -5.9285   42.3347   44.4382 C   0  0  0  0  0  0  0  0  0  0  0  0
   -7.7318   40.8365   44.4639 C   0  0  0  0  0  0  0  0  0  0  0  0
   -6.7539   43.2903   43.9604 N   0  0  0  0  0  0  0  0  0  0  0  0
   -8.5663   41.7720   43.9703 N   0  0  0  0  0  0  0  0  0  0  0  0
   -8.0385   42.9784   43.7420 C   0  0  0  0  0  0  0  0  0  0  0  0
   -4.5923   42.6680   44.7240 N   0  0  0  0  0  0  0  0  0  0  0  0
   -4.0615   41.8140   44.9415 H   0  0  0  0  0  0  0  0  0  0  0  0
   -3.8937   43.4267   43.6842 C   0  0  0  0  0  0  0  0  0  0  0  0
   -3.9379   44.9274   44.0001 C   0  0  0  0  0  0  0  0  0  0  0  0
   -3.5179   45.7778   42.8452 C   0  0  0  0  0  0  0  0  0  0  0  0
   -2.3592   46.5255   42.8990 N   0  0  0  0  0  0  0  0  0  0  0  0
   -4.1476   45.9685   41.6337 C   0  0  0  0  0  0  0  0  0  0  0  0
   -2.2916   47.1537   41.7483 C   0  0  0  0  0  0  0  0  0  0  0  0
   -3.3542   46.8463   40.9480 N   0  0  0  0  0  0  0  0  0  0  0  0
   -3.5205   47.2093   40.0194 H   0  0  0  0  0  0  0  0  0  0  0  0
   -8.9214   43.9290   43.2516 N   0  0  0  0  0  0  0  0  0  0  0  0
   -9.6842   43.4028   42.8370 H   0  0  0  0  0  0  0  0  0  0  0  0
   -8.3320   44.9339   42.3656 C   0  0  0  0  0  0  0  0  0  0  0  0
   -8.6317   46.3612   42.8538 C   0  0  0  0  0  0  0  0  0  0  0  0
   -7.4192   47.0795   43.2152 N   0  0  0  0  0  0  0  0  0  0  0  0
   -7.0122   48.1566   42.4737 C   0  0  0  0  0  0  0  0  0  0  0  0
   -7.5662   48.4848   41.4275 O   0  0  0  0  0  0  0  0  0  0  0  0
   -5.9230   48.8215   42.9779 N   0  0  0  0  0  0  0  0  0  0  0  0
   -5.1260   48.4672   44.1425 C   0  0  0  0  0  0  0  0  0  0  0  0
   -5.3362   49.9381   42.2590 C   0  0  0  0  0  0  0  0  0  0  0  0
   -4.1435   49.6199   44.2951 C   0  0  0  0  0  0  0  0  0  0  0  0
   -3.9469   50.0922   42.8610 C   0  0  0  0  0  0  0  0  0  0  0  0
   -7.3129   47.1893   44.2123 H   0  0  0  0  0  0  0  0  0  0  0  0
  1  2  1  0
  2  3  2  0
  2  4  1  0
  3  5  1  0
  3  8  1  0
  4  6  2  0
  5  7  2  0
  8 10  1  0
  7 18  1  0
 10 11  1  0
 18 20  1  0
 11 12  1  0
 20 21  1  0
 12 13  1  0
 12 14  2  0
 21 22  1  0
 13 15  2  0
 14 16  1  0
 22 23  1  0
 23 24  2  0
 23 25  1  0
 25 26  1  0
 25 27  1  0
 26 28  1  0
 27 29  1  0
  6  7  1  0
 15 16  1  0
 28 29  1  0
  8  9  1  0
 18 19  1  0
 22 30  1  0
 16 17  1  0
M  END
> <Molecule Name>
EL5001A

> <Name>
EL5001A

> <pIC50 PDK>
4

> <selection>
Y

> <MMFF94_energy_kcal_mol>
-151.5602

> <Note>
No stereocenters; achiral molecule

> <minimizedAffinity>
-7.73034

> <CNNscore>
0.9244671464

> <CNNaffinity>
7.5343527794

> <CNN_VS>
6.9652614594

> <CNNaffinity_variance>
0.0766475126
$$$$
EL5001A


 30 32  0  0  0  0  0  0  0  0999 V2000
   -8.9693   45.3227   43.1328 Br  0  0  0  0  0  0  0  0  0  0  0  0
   -8.2306   43.6658   43.6560 C   0  0  0  0  0  0  0  0  0  0  0  0
   -7.0024   43.5353   44.2874 C   0  0  0  0  0  0  0  0  0  0  0  0
   -8.9231   42.4999   43.4296 C   0  0  0  0  0  0  0  0  0  0  0  0
   -6.5218   42.3200   44.6263 N   0  0  0  0  0  0  0  0  0  0  0  0
   -8.4679   41.2803   43.7768 N   0  0  0  0  0  0  0  0  0  0  0  0
   -7.2673   41.2385   44.3625 C   0  0  0  0  0  0  0  0  0  0  0  0
   -6.2028   44.6710   44.5088 N   0  0  0  0  0  0  0  0  0  0  0  0
   -5.3361   44.3957   44.9898 H   0  0  0  0  0  0  0  0  0  0  0  0
   -5.8726   45.4539   43.3158 C   0  0  0  0  0  0  0  0  0  0  0  0
   -4.6055   44.9009   42.6505 C   0  0  0  0  0  0  0  0  0  0  0  0
   -3.7127   45.9740   42.1171 C   0  0  0  0  0  0  0  0  0  0  0  0
   -2.5319   46.2965   42.7544 N   0  0  0  0  0  0  0  0  0  0  0  0
   -3.8844   46.7737   41.0072 C   0  0  0  0  0  0  0  0  0  0  0  0
   -2.0041   47.2685   42.0473 C   0  0  0  0  0  0  0  0  0  0  0  0
   -2.7885   47.5911   40.9775 N   0  0  0  0  0  0  0  0  0  0  0  0
   -2.5911   48.3089   40.2937 H   0  0  0  0  0  0  0  0  0  0  0  0
   -6.8127   39.9706   44.6936 N   0  0  0  0  0  0  0  0  0  0  0  0
   -7.5731   39.5347   45.2060 H   0  0  0  0  0  0  0  0  0  0  0  0
   -5.5212   39.9276   45.3809 C   0  0  0  0  0  0  0  0  0  0  0  0
   -5.2262   38.5251   45.9390 C   0  0  0  0  0  0  0  0  0  0  0  0
   -3.8292   38.1547   45.7718 N   0  0  0  0  0  0  0  0  0  0  0  0
   -3.2516   37.2512   46.6237 C   0  0  0  0  0  0  0  0  0  0  0  0
   -3.8316   36.8144   47.6148 O   0  0  0  0  0  0  0  0  0  0  0  0
   -1.9677   36.8943   46.2969 N   0  0  0  0  0  0  0  0  0  0  0  0
   -1.1470   37.4191   45.2160 C   0  0  0  0  0  0  0  0  0  0  0  0
   -1.2048   36.0013   47.1504 C   0  0  0  0  0  0  0  0  0  0  0  0
    0.1187   36.5742   45.2558 C   0  0  0  0  0  0  0  0  0  0  0  0
    0.2423   36.2147   46.7302 C   0  0  0  0  0  0  0  0  0  0  0  0
   -3.5663   38.0494   44.8037 H   0  0  0  0  0  0  0  0  0  0  0  0
  1  2  1  0
  2  3  2  0
  2  4  1  0
  3  5  1  0
  3  8  1  0
  4  6  2  0
  5  7  2  0
  8 10  1  0
  7 18  1  0
 10 11  1  0
 18 20  1  0
 11 12  1  0
 20 21  1  0
 12 13  1  0
 12 14  2  0
 21 22  1  0
 13 15  2  0
 14 16  1  0
 22 23  1  0
 23 24  2  0
 23 25  1  0
 25 26  1  0
 25 27  1  0
 26 28  1  0
 27 29  1  0
  6  7  1  0
 15 16  1  0
 28 29  1  0
  8  9  1  0
 18 19  1  0
 22 30  1  0
 16 17  1  0
M  END
> <Molecule Name>
EL5001A

> <Name>
EL5001A

> <pIC50 PDK>
4

> <selection>
Y

> <MMFF94_energy_kcal_mol>
-151.5602

> <Note>
No stereocenters; achiral molecule

> <minimizedAffinity>
-7.61716

> <CNNscore>
0.9038507342

> <CNNaffinity>
7.0420222282

> <CNN_VS>
6.3649368286

> <CNNaffinity_variance>
0.1319258362
$$$$
EL5001A


 30 32  0  0  0  0  0  0  0  0999 V2000
   -9.3004   44.7915   43.2627 Br  0  0  0  0  0  0  0  0  0  0  0  0
   -8.1310   43.3539   43.6242 C   0  0  0  0  0  0  0  0  0  0  0  0
   -6.7776   43.5093   43.8857 C   0  0  0  0  0  0  0  0  0  0  0  0
   -8.6104   42.0657   43.6532 C   0  0  0  0  0  0  0  0  0  0  0  0
   -5.9897   42.4394   44.1253 N   0  0  0  0  0  0  0  0  0  0  0  0
   -7.8433   40.9879   43.9081 N   0  0  0  0  0  0  0  0  0  0  0  0
   -6.5461   41.2206   44.1300 C   0  0  0  0  0  0  0  0  0  0  0  0
   -6.1927   44.7867   43.8226 N   0  0  0  0  0  0  0  0  0  0  0  0
   -6.6306   45.4028   44.5206 H   0  0  0  0  0  0  0  0  0  0  0  0
   -4.7372   44.8242   43.9817 C   0  0  0  0  0  0  0  0  0  0  0  0
   -4.0586   45.0341   42.6218 C   0  0  0  0  0  0  0  0  0  0  0  0
   -4.2107   46.4279   42.1046 C   0  0  0  0  0  0  0  0  0  0  0  0
   -5.3707   47.1430   42.3225 N   0  0  0  0  0  0  0  0  0  0  0  0
   -3.3186   47.1852   41.3755 C   0  0  0  0  0  0  0  0  0  0  0  0
   -5.1841   48.3035   41.7380 C   0  0  0  0  0  0  0  0  0  0  0  0
   -3.9535   48.3754   41.1510 N   0  0  0  0  0  0  0  0  0  0  0  0
   -3.5865   49.1666   40.6403 H   0  0  0  0  0  0  0  0  0  0  0  0
   -5.7742   40.0939   44.3717 N   0  0  0  0  0  0  0  0  0  0  0  0
   -6.0150   39.4369   43.6361 H   0  0  0  0  0  0  0  0  0  0  0  0
   -5.8728   39.5451   45.7249 C   0  0  0  0  0  0  0  0  0  0  0  0
   -4.6508   38.6782   46.0721 C   0  0  0  0  0  0  0  0  0  0  0  0
   -3.4024   39.3133   45.6784 N   0  0  0  0  0  0  0  0  0  0  0  0
   -2.5752   39.8499   46.6290 C   0  0  0  0  0  0  0  0  0  0  0  0
   -2.8937   39.9279   47.8129 O   0  0  0  0  0  0  0  0  0  0  0  0
   -1.3770   40.3158   46.1497 N   0  0  0  0  0  0  0  0  0  0  0  0
   -0.9350   40.3721   44.7646 C   0  0  0  0  0  0  0  0  0  0  0  0
   -0.4311   40.9769   47.0307 C   0  0  0  0  0  0  0  0  0  0  0  0
    0.5062   40.8556   44.8453 C   0  0  0  0  0  0  0  0  0  0  0  0
    0.5036   41.7278   46.0933 C   0  0  0  0  0  0  0  0  0  0  0  0
   -2.9289   38.8182   44.9380 H   0  0  0  0  0  0  0  0  0  0  0  0
  1  2  1  0
  2  3  2  0
  2  4  1  0
  3  5  1  0
  3  8  1  0
  4  6  2  0
  5  7  2  0
  8 10  1  0
  7 18  1  0
 10 11  1  0
 18 20  1  0
 11 12  1  0
 20 21  1  0
 12 13  1  0
 12 14  2  0
 21 22  1  0
 13 15  2  0
 14 16  1  0
 22 23  1  0
 23 24  2  0
 23 25  1  0
 25 26  1  0
 25 27  1  0
 26 28  1  0
 27 29  1  0
  6  7  1  0
 15 16  1  0
 28 29  1  0
  8  9  1  0
 18 19  1  0
 22 30  1  0
 16 17  1  0
M  END
> <Molecule Name>
EL5001A

> <Name>
EL5001A

> <pIC50 PDK>
4

> <selection>
Y

> <MMFF94_energy_kcal_mol>
-151.5602

> <Note>
No stereocenters; achiral molecule

> <minimizedAffinity>
-6.99986

> <CNNscore>
0.8963475823

> <CNNaffinity>
7.2765278816

> <CNN_VS>
6.5222983360

> <CNNaffinity_variance>
0.0016585098
$$$$
EL5001A


 30 32  0  0  0  0  0  0  0  0999 V2000
   -9.4894   44.4641   43.0972 Br  0  0  0  0  0  0  0  0  0  0  0  0
   -8.2619   43.1760   43.7290 C   0  0  0  0  0  0  0  0  0  0  0  0
   -6.9582   43.4714   44.0993 C   0  0  0  0  0  0  0  0  0  0  0  0
   -8.6462   41.8623   43.8576 C   0  0  0  0  0  0  0  0  0  0  0  0
   -6.1233   42.5028   44.5324 N   0  0  0  0  0  0  0  0  0  0  0  0
   -7.8330   40.8857   44.3048 N   0  0  0  0  0  0  0  0  0  0  0  0
   -6.5865   41.2488   44.6218 C   0  0  0  0  0  0  0  0  0  0  0  0
   -6.4649   44.7798   43.9483 N   0  0  0  0  0  0  0  0  0  0  0  0
   -6.0320   45.0902   44.8284 H   0  0  0  0  0  0  0  0  0  0  0  0
   -5.5233   44.9770   42.8439 C   0  0  0  0  0  0  0  0  0  0  0  0
   -4.1562   45.4183   43.3827 C   0  0  0  0  0  0  0  0  0  0  0  0
   -3.4239   46.3201   42.4427 C   0  0  0  0  0  0  0  0  0  0  0  0
   -2.1165   46.6886   42.6868 N   0  0  0  0  0  0  0  0  0  0  0  0
   -3.8705   46.9065   41.2776 C   0  0  0  0  0  0  0  0  0  0  0  0
   -1.7823   47.4794   41.6937 C   0  0  0  0  0  0  0  0  0  0  0  0
   -2.8139   47.6403   40.8139 N   0  0  0  0  0  0  0  0  0  0  0  0
   -2.7945   48.2049   39.9758 H   0  0  0  0  0  0  0  0  0  0  0  0
   -5.7636   40.2227   45.0619 N   0  0  0  0  0  0  0  0  0  0  0  0
   -6.3183   39.6976   45.7307 H   0  0  0  0  0  0  0  0  0  0  0  0
   -4.4537   40.6411   45.5634 C   0  0  0  0  0  0  0  0  0  0  0  0
   -3.4947   40.9895   44.4126 C   0  0  0  0  0  0  0  0  0  0  0  0
   -2.2350   41.5319   44.8980 N   0  0  0  0  0  0  0  0  0  0  0  0
   -1.0773   40.8145   44.7539 C   0  0  0  0  0  0  0  0  0  0  0  0
   -1.0639   39.6612   44.3311 O   0  0  0  0  0  0  0  0  0  0  0  0
    0.0599   41.4763   45.1434 N   0  0  0  0  0  0  0  0  0  0  0  0
    0.1570   42.7945   45.7515 C   0  0  0  0  0  0  0  0  0  0  0  0
    1.3513   40.8135   45.1157 C   0  0  0  0  0  0  0  0  0  0  0  0
    1.6531   43.0593   45.8469 C   0  0  0  0  0  0  0  0  0  0  0  0
    2.2361   41.6630   46.0166 C   0  0  0  0  0  0  0  0  0  0  0  0
   -2.1428   42.5212   44.7236 H   0  0  0  0  0  0  0  0  0  0  0  0
  1  2  1  0
  2  3  2  0
  2  4  1  0
  3  5  1  0
  3  8  1  0
  4  6  2  0
  5  7  2  0
  8 10  1  0
  7 18  1  0
 10 11  1  0
 18 20  1  0
 11 12  1  0
 20 21  1  0
 12 13  1  0
 12 14  2  0
 21 22  1  0
 13 15  2  0
 14 16  1  0
 22 23  1  0
 23 24  2  0
 23 25  1  0
 25 26  1  0
 25 27  1  0
 26 28  1  0
 27 29  1  0
  6  7  1  0
 15 16  1  0
 28 29  1  0
  8  9  1  0
 18 19  1  0
 22 30  1  0
 16 17  1  0
M  END
> <Molecule Name>
EL5001A

> <Name>
EL5001A

> <pIC50 PDK>
4

> <selection>
Y

> <MMFF94_energy_kcal_mol>
-151.5602

> <Note>
No stereocenters; achiral molecule

> <minimizedAffinity>
-7.63417

> <CNNscore>
0.7355940342

> <CNNaffinity>
7.0852813721

> <CNN_VS>
5.2118906975

> <CNNaffinity_variance>
0.1619352251
$$$$
EL5001A


 30 32  0  0  0  0  0  0  0  0999 V2000
   -9.5675   44.3386   42.9005 Br  0  0  0  0  0  0  0  0  0  0  0  0
   -8.3459   43.1115   43.6534 C   0  0  0  0  0  0  0  0  0  0  0  0
   -7.0853   43.4635   44.1128 C   0  0  0  0  0  0  0  0  0  0  0  0
   -8.6916   41.7873   43.7850 C   0  0  0  0  0  0  0  0  0  0  0  0
   -6.2515   42.5365   44.6307 N   0  0  0  0  0  0  0  0  0  0  0  0
   -7.8800   40.8518   44.3154 N   0  0  0  0  0  0  0  0  0  0  0  0
   -6.6749   41.2682   44.7157 C   0  0  0  0  0  0  0  0  0  0  0  0
   -6.6292   44.7859   43.9672 N   0  0  0  0  0  0  0  0  0  0  0  0
   -6.0827   45.0567   44.7957 H   0  0  0  0  0  0  0  0  0  0  0  0
   -5.8496   45.0562   42.7572 C   0  0  0  0  0  0  0  0  0  0  0  0
   -4.3491   45.0433   43.0771 C   0  0  0  0  0  0  0  0  0  0  0  0
   -3.5819   46.0714   42.3106 C   0  0  0  0  0  0  0  0  0  0  0  0
   -2.3549   46.5193   42.7559 N   0  0  0  0  0  0  0  0  0  0  0  0
   -3.9220   46.7128   41.1385 C   0  0  0  0  0  0  0  0  0  0  0  0
   -1.9642   47.4105   41.8748 C   0  0  0  0  0  0  0  0  0  0  0  0
   -2.8821   47.5609   40.8754 N   0  0  0  0  0  0  0  0  0  0  0  0
   -2.8029   48.1906   40.0887 H   0  0  0  0  0  0  0  0  0  0  0  0
   -5.8514   40.2835   45.2410 N   0  0  0  0  0  0  0  0  0  0  0  0
   -6.2679   40.0274   46.1307 H   0  0  0  0  0  0  0  0  0  0  0  0
   -4.4314   40.6297   45.3187 C   0  0  0  0  0  0  0  0  0  0  0  0
   -3.6719   39.6850   46.2653 C   0  0  0  0  0  0  0  0  0  0  0  0
   -2.5219   40.3340   46.8760 N   0  0  0  0  0  0  0  0  0  0  0  0
   -2.1570   40.0203   48.1583 C   0  0  0  0  0  0  0  0  0  0  0  0
   -2.8335   39.2887   48.8767 O   0  0  0  0  0  0  0  0  0  0  0  0
   -0.9923   40.6082   48.5833 N   0  0  0  0  0  0  0  0  0  0  0  0
   -0.1667   41.5668   47.8647 C   0  0  0  0  0  0  0  0  0  0  0  0
   -0.5213   40.4247   49.9443 C   0  0  0  0  0  0  0  0  0  0  0  0
    1.0474   41.7688   48.7605 C   0  0  0  0  0  0  0  0  0  0  0  0
    0.4809   41.5501   50.1567 C   0  0  0  0  0  0  0  0  0  0  0  0
   -1.7521   40.4491   46.2345 H   0  0  0  0  0  0  0  0  0  0  0  0
  1  2  1  0
  2  3  2  0
  2  4  1  0
  3  5  1  0
  3  8  1  0
  4  6  2  0
  5  7  2  0
  8 10  1  0
  7 18  1  0
 10 11  1  0
 18 20  1  0
 11 12  1  0
 20 21  1  0
 12 13  1  0
 12 14  2  0
 21 22  1  0
 13 15  2  0
 14 16  1  0
 22 23  1  0
 23 24  2  0
 23 25  1  0
 25 26  1  0
 25 27  1  0
 26 28  1  0
 27 29  1  0
  6  7  1  0
 15 16  1  0
 28 29  1  0
  8  9  1  0
 18 19  1  0
 22 30  1  0
 16 17  1  0
M  END
> <Molecule Name>
EL5001A

> <Name>
EL5001A

> <pIC50 PDK>
4

> <selection>
Y

> <MMFF94_energy_kcal_mol>
-151.5602

> <Note>
No stereocenters; achiral molecule

> <minimizedAffinity>
-7.45817

> <CNNscore>
0.7331535816

> <CNNaffinity>
6.9116396904

> <CNN_VS>
5.0672931671

> <CNNaffinity_variance>
0.0802530497
$$$$
