EL2003A-A2U1
OCL MolfileCreator  2D

  0  0  0  0  0  0              0 V3000
M  V30 BEGIN CTAB
M  V30 COUNTS 33 37 0 0 0
M  V30 BEGIN ATOM
M  V30 1 O 0.0 0.0 0.0 0
M  V30 2 C 0.0244 1.5007 0.0 0
M  V30 3 N 1.3299 2.2327 0.0 0
M  V30 4 N -1.2567 2.2693 0.0 0
M  V30 5 C 2.6842 1.5983 0.0 0
M  V30 6 C 1.5129 3.7213 0.0 0
M  V30 7 C -1.2323 3.7701 0.0 0
M  V30 8 C 3.7091 2.6964 0.0 0
M  V30 9 C 2.9892 4.0019 0.0 0
M  V30 10 C -2.55 4.5265 0.0 0
M  V30 11 C 0.0976 4.5143 0.0 0
M  V30 12 C -2.489 6.076 0.0 0
M  V30 13 C -3.8677 3.8067 0.0 0
M  V30 14 C 0.1586 6.0638 0.0 0
M  V30 15 C -1.159 6.8203 0.0 0
M  V30 16 N 1.2933 6.7837 0.0 0
M  V30 17 C 1.159 8.2966 0.0 0
M  V30 18 N -0.0732 8.9311 0.0 0
M  V30 19 N 2.5012 9.1385 0.0 0
M  V30 20 C -0.2684 10.4196 0.0 0
M  V30 21 C 2.3059 10.627 0.0 0
M  V30 22 N -1.6471 11.0174 0.0 0
M  V30 23 C 0.9272 11.2737 0.0 0
M  V30 24 N 3.3186 11.7251 0.0 0
M  V30 25 C -2.855 10.1268 0.0 0
M  V30 26 N 1.1224 12.7622 0.0 0
M  V30 27 C 2.5988 13.0428 0.0 0
M  V30 28 C -4.2337 10.7246 0.0 0
M  V30 29 C -5.4416 9.834 0.0 0
M  V30 30 N -6.8691 10.2854 0.0 0
M  V30 31 C -5.4294 8.3332 0.0 0
M  V30 32 C -7.7354 9.0653 0.0 0
M  V30 33 N -6.8569 7.8574 0.0 0
M  V30 END ATOM
M  V30 BEGIN BOND
M  V30 1 2 1 2
M  V30 2 1 2 3
M  V30 3 1 2 4
M  V30 4 1 3 5
M  V30 5 1 3 6
M  V30 6 1 4 7
M  V30 7 1 5 8
M  V30 8 1 6 9
M  V30 9 2 7 10
M  V30 10 1 7 11
M  V30 11 1 10 12
M  V30 12 1 10 13
M  V30 13 2 11 14
M  V30 14 2 12 15
M  V30 15 1 14 16
M  V30 16 1 16 17
M  V30 17 2 17 18
M  V30 18 1 17 19
M  V30 19 1 18 20
M  V30 20 2 19 21
M  V30 21 1 20 22
M  V30 22 2 20 23
M  V30 23 1 21 24
M  V30 24 1 22 25
M  V30 25 1 23 26
M  V30 26 1 24 27
M  V30 27 1 25 28
M  V30 28 1 28 29
M  V30 29 1 29 30
M  V30 30 2 29 31
M  V30 31 2 30 32
M  V30 32 1 31 33
M  V30 33 1 8 9
M  V30 34 1 14 15
M  V30 35 1 21 23
M  V30 36 2 26 27
M  V30 37 1 32 33
M  V30 END BOND
M  V30 END CTAB
M  END
>  <Molecule Name>
EL2003A-A2U1

>  <Name>
EL2003A-A2U1

>  <pIC50 PDK>
7.6

>  <selection>
Y

$$$$
