EL2003A
OCL MolfileCreator  2D

  0  0  0  0  0  0              0 V3000
M  V30 BEGIN CTAB
M  V30 COUNTS 32 36 0 0 0
M  V30 BEGIN ATOM
M  V30 1 O 0.0 0.0 0.0 0
M  V30 2 C 1.309 0.7325 0.0 0
M  V30 3 N 2.594 -0.036 0.0 0
M  V30 4 N 1.333 2.2337 0.0 0
M  V30 5 C 2.7261 -1.5252 0.0 0
M  V30 6 C 3.9751 0.5524 0.0 0
M  V30 7 C 2.6421 2.9663 0.0 0
M  V30 8 C 4.1913 -1.8614 0.0 0
M  V30 9 C 4.9599 -0.5764 0.0 0
M  V30 10 C 3.9511 2.1977 0.0 0
M  V30 11 C 2.6421 4.4915 0.0 0
M  V30 12 C 5.3202 2.9303 0.0 0
M  V30 13 C 4.0111 5.2121 0.0 0
M  V30 14 N 6.5091 2.3058 0.0 0
M  V30 15 C 5.3202 4.4435 0.0 0
M  V30 16 C 7.7461 3.1705 0.0 0
M  V30 17 N 7.6861 4.5516 0.0 0
M  V30 18 N 9.1512 2.4259 0.0 0
M  V30 19 C 8.875 5.4643 0.0 0
M  V30 20 C 10.3402 3.3386 0.0 0
M  V30 21 N 8.7069 6.9535 0.0 0
M  V30 22 C 10.2081 4.8518 0.0 0
M  V30 23 N 11.8054 3.0144 0.0 0
M  V30 24 C 7.3258 7.554 0.0 0
M  V30 25 N 11.5892 5.4283 0.0 0
M  V30 26 C 12.574 4.2994 0.0 0
M  V30 27 C 7.1577 9.0432 0.0 0
M  V30 28 C 5.7766 9.6436 0.0 0
M  V30 29 N 5.4523 11.1088 0.0 0
M  V30 30 C 4.4795 8.875 0.0 0
M  V30 31 C 3.9631 11.2529 0.0 0
M  V30 32 N 3.3506 9.8718 0.0 0
M  V30 END ATOM
M  V30 BEGIN BOND
M  V30 1 2 1 2
M  V30 2 1 2 3
M  V30 3 1 2 4
M  V30 4 1 3 5
M  V30 5 1 3 6
M  V30 6 1 4 7
M  V30 7 1 5 8
M  V30 8 1 6 9
M  V30 9 2 7 10
M  V30 10 1 7 11
M  V30 11 1 10 12
M  V30 12 2 11 13
M  V30 13 1 12 14
M  V30 14 2 12 15
M  V30 15 1 14 16
M  V30 16 2 16 17
M  V30 17 1 16 18
M  V30 18 1 17 19
M  V30 19 2 18 20
M  V30 20 1 19 21
M  V30 21 2 19 22
M  V30 22 1 20 23
M  V30 23 1 21 24
M  V30 24 1 22 25
M  V30 25 1 23 26
M  V30 26 1 24 27
M  V30 27 1 27 28
M  V30 28 1 28 29
M  V30 29 2 28 30
M  V30 30 1 29 31
M  V30 31 1 30 32
M  V30 32 1 8 9
M  V30 33 1 13 15
M  V30 34 1 20 22
M  V30 35 2 25 26
M  V30 36 2 31 32
M  V30 END BOND
M  V30 END CTAB
M  END
>  <Molecule Name>
EL2003A

>  <Name>
EL2003A

>  <pIC50 PDK>
7.9

>  <selection>
Y

$$$$
EL2003A-A4U1
OCL MolfileCreator  2D

  0  0  0  0  0  0              0 V3000
M  V30 BEGIN CTAB
M  V30 COUNTS 36 40 0 0 0
M  V30 BEGIN ATOM
M  V30 1 F 0.0 0.0 0.0 0
M  V30 2 C 1.479 0.2322 0.0 0
M  V30 3 F 1.2467 1.7112 0.0 0
M  V30 4 F 2.958 0.4644 0.0 0
M  V30 5 C 1.7112 -1.2467 0.0 0
M  V30 6 C 0.5378 -2.2246 0.0 0
M  V30 7 C 3.1414 -1.8335 0.0 0
M  V30 8 N -0.8678 -1.6868 0.0 0
M  V30 9 C 0.7822 -3.7281 0.0 0
M  V30 10 C 3.3858 -3.3369 0.0 0
M  V30 11 C -2.029 -2.628 0.0 0
M  V30 12 C 2.2246 -4.3148 0.0 0
M  V30 13 O -3.4347 -2.0901 0.0 0
M  V30 14 N -1.7968 -4.107 0.0 0
M  V30 15 N 2.518 -5.6227 0.0 0
M  V30 16 C -2.8602 -5.1704 0.0 0
M  V30 17 C -0.4644 -4.7915 0.0 0
M  V30 18 C 3.9848 -6.0139 0.0 0
M  V30 19 C -2.1757 -6.5028 0.0 0
M  V30 20 C -0.6967 -6.2705 0.0 0
M  V30 21 N 5.0115 -5.0849 0.0 0
M  V30 22 N 4.327 -7.5662 0.0 0
M  V30 23 C 6.4783 -5.4027 0.0 0
M  V30 24 C 5.7938 -7.884 0.0 0
M  V30 25 N 7.5051 -4.3148 0.0 0
M  V30 26 C 6.8695 -6.8206 0.0 0
M  V30 27 N 6.4783 -9.2164 0.0 0
M  V30 28 C 7.0773 -2.8724 0.0 0
M  V30 29 N 8.2018 -7.5051 0.0 0
M  V30 30 C 7.9574 -8.9841 0.0 0
M  V30 31 C 8.104 -1.7846 0.0 0
M  V30 32 C 7.6762 -0.3422 0.0 0
M  V30 33 N 8.593 0.8434 0.0 0
M  V30 34 C 6.2583 0.1589 0.0 0
M  V30 35 C 7.7373 2.0779 0.0 0
M  V30 36 N 6.295 1.6623 0.0 0
M  V30 END ATOM
M  V30 BEGIN BOND
M  V30 1 1 1 2
M  V30 2 1 2 3
M  V30 3 1 2 4
M  V30 4 1 2 5
M  V30 5 2 5 6
M  V30 6 1 5 7
M  V30 7 1 6 8
M  V30 8 1 6 9
M  V30 9 2 7 10
M  V30 10 1 8 11
M  V30 11 2 9 12
M  V30 12 2 11 13
M  V30 13 1 11 14
M  V30 14 1 12 15
M  V30 15 1 14 16
M  V30 16 1 14 17
M  V30 17 1 15 18
M  V30 18 1 16 19
M  V30 19 1 17 20
M  V30 20 2 18 21
M  V30 21 1 18 22
M  V30 22 1 21 23
M  V30 23 2 22 24
M  V30 24 1 23 25
M  V30 25 2 23 26
M  V30 26 1 24 27
M  V30 27 1 25 28
M  V30 28 1 26 29
M  V30 29 1 27 30
M  V30 30 1 28 31
M  V30 31 1 31 32
M  V30 32 1 32 33
M  V30 33 2 32 34
M  V30 34 2 33 35
M  V30 35 1 34 36
M  V30 36 1 10 12
M  V30 37 1 19 20
M  V30 38 1 24 26
M  V30 39 2 29 30
M  V30 40 1 35 36
M  V30 END BOND
M  V30 END CTAB
M  END
>  <Molecule Name>
EL2003A-A4U1

>  <Name>
EL2003A-A4U1

>  <pIC50 PDK>
7.3

>  <selection>
Y

$$$$
BX912
OCL MolfileCreator  2D

  0  0  0  0  0  0              0 V3000
M  V30 BEGIN CTAB
M  V30 COUNTS 30 33 0 0 0
M  V30 BEGIN ATOM
M  V30 1 Br 0.0 0.0 0.0 0
M  V30 2 C -1.2248 -0.8645 0.0 0
M  V30 3 C -2.5576 -0.2521 0.0 0
M  V30 4 C -1.0927 -2.3775 0.0 0
M  V30 5 N -3.7464 -1.1647 0.0 0
M  V30 6 N -2.7257 1.2368 0.0 0
M  V30 7 N -2.2815 -3.2901 0.0 0
M  V30 8 C -3.6864 -2.5456 0.0 0
M  V30 9 C -4.1067 1.8372 0.0 0
M  V30 10 N -4.9232 -3.4102 0.0 0
M  V30 11 C -4.2748 3.3261 0.0 0
M  V30 12 C -6.112 -2.7858 0.0 0
M  V30 13 C -5.6557 3.9265 0.0 0
M  V30 14 C -7.4809 -3.5183 0.0 0
M  V30 15 C -6.112 -1.2728 0.0 0
M  V30 16 N -5.9799 5.3915 0.0 0
M  V30 17 C -6.9525 3.158 0.0 0
M  V30 18 C -8.7897 -2.7498 0.0 0
M  V30 19 C -7.4208 -0.5043 0.0 0
M  V30 20 C -7.4689 5.5356 0.0 0
M  V30 21 N -8.0813 4.1547 0.0 0
M  V30 22 N -10.0986 -3.4822 0.0 0
M  V30 23 C -8.7897 -1.2248 0.0 0
M  V30 24 C -10.1226 -4.9832 0.0 0
M  V30 25 O -11.4315 -5.7157 0.0 0
M  V30 26 N -8.8378 -5.7517 0.0 0
M  V30 27 C -8.7057 -7.2407 0.0 0
M  V30 28 C -7.4569 -5.1634 0.0 0
M  V30 29 C -7.2407 -7.5769 0.0 0
M  V30 30 C -6.4722 -6.2921 0.0 0
M  V30 END ATOM
M  V30 BEGIN BOND
M  V30 1 1 1 2
M  V30 2 2 2 3
M  V30 3 1 2 4
M  V30 4 1 3 5
M  V30 5 1 3 6
M  V30 6 2 4 7
M  V30 7 2 5 8
M  V30 8 1 6 9
M  V30 9 1 8 10
M  V30 10 1 9 11
M  V30 11 1 10 12
M  V30 12 1 11 13
M  V30 13 2 12 14
M  V30 14 1 12 15
M  V30 15 1 13 16
M  V30 16 2 13 17
M  V30 17 1 14 18
M  V30 18 2 15 19
M  V30 19 1 16 20
M  V30 20 1 17 21
M  V30 21 1 18 22
M  V30 22 2 18 23
M  V30 23 1 22 24
M  V30 24 2 24 25
M  V30 25 1 24 26
M  V30 26 1 26 27
M  V30 27 1 26 28
M  V30 28 1 27 29
M  V30 29 1 28 30
M  V30 30 1 7 8
M  V30 31 1 19 23
M  V30 32 2 20 21
M  V30 33 1 29 30
M  V30 END BOND
M  V30 END CTAB
M  END
>  <Molecule Name>
BX912

>  <Name>
BX912

>  <pIC50 PDK>
7.327902

>  <selection>
Y

$$$$
EL5001A
OCL MolfileCreator  2D

  0  0  0  0  0  0              0 V3000
M  V30 BEGIN CTAB
M  V30 COUNTS 26 28 0 0 0
M  V30 BEGIN ATOM
M  V30 1 Br 0.0 0.0 0.0 0
M  V30 2 C 1.2986 -0.7437 0.0 0
M  V30 3 C 1.2986 -2.2431 0.0 0
M  V30 4 C 2.5973 0.0 0.0 0
M  V30 5 N 2.5973 -2.9987 0.0 0
M  V30 6 N 0.0 -2.9987 0.0 0
M  V30 7 N 3.896 -0.7437 0.0 0
M  V30 8 C 3.896 -2.2431 0.0 0
M  V30 9 C 0.0 -4.4981 0.0 0
M  V30 10 N 5.1946 -2.9869 0.0 0
M  V30 11 C -1.2986 -5.2536 0.0 0
M  V30 12 C 6.4933 -2.2313 0.0 0
M  V30 13 C -1.2986 -6.753 0.0 0
M  V30 14 C 7.792 -2.9751 0.0 0
M  V30 15 N -2.5146 -7.6385 0.0 0
M  V30 16 C -0.0826 -7.6385 0.0 0
M  V30 17 N 9.0906 -2.2313 0.0 0
M  V30 18 C -2.0542 -9.067 0.0 0
M  V30 19 N -0.543 -9.067 0.0 0
M  V30 20 C 10.3893 -2.9751 0.0 0
M  V30 21 O 10.3893 -4.4744 0.0 0
M  V30 22 N 11.688 -2.2195 0.0 0
M  V30 23 C 13.0575 -2.8334 0.0 0
M  V30 24 C 11.8414 -0.7319 0.0 0
M  V30 25 C 14.061 -1.7236 0.0 0
M  V30 26 C 13.3054 -0.425 0.0 0
M  V30 END ATOM
M  V30 BEGIN BOND
M  V30 1 1 1 2
M  V30 2 2 2 3
M  V30 3 1 2 4
M  V30 4 1 3 5
M  V30 5 1 3 6
M  V30 6 2 4 7
M  V30 7 2 5 8
M  V30 8 1 6 9
M  V30 9 1 8 10
M  V30 10 1 9 11
M  V30 11 1 10 12
M  V30 12 1 11 13
M  V30 13 1 12 14
M  V30 14 1 13 15
M  V30 15 2 13 16
M  V30 16 1 14 17
M  V30 17 2 15 18
M  V30 18 1 16 19
M  V30 19 1 17 20
M  V30 20 2 20 21
M  V30 21 1 20 22
M  V30 22 1 22 23
M  V30 23 1 22 24
M  V30 24 1 23 25
M  V30 25 1 24 26
M  V30 26 1 7 8
M  V30 27 1 18 19
M  V30 28 1 25 26
M  V30 END BOND
M  V30 END CTAB
M  END
>  <Molecule Name>
EL5001A

>  <Name>
EL5001A

>  <pIC50 PDK>
4

>  <selection>
Y

$$$$
EL5003A
OCL MolfileCreator  2D

  0  0  0  0  0  0              0 V3000
M  V30 BEGIN CTAB
M  V30 COUNTS 29 32 0 0 0
M  V30 BEGIN ATOM
M  V30 1 Br 0.0 0.0 0.0 0
M  V30 2 C 1.299 -0.744 0.0 0
M  V30 3 C 1.299 -2.2438 0.0 0
M  V30 4 C 2.5981 0.0 0.0 0
M  V30 5 N 2.5981 -2.9997 0.0 0
M  V30 6 N 0.0 -2.9997 0.0 0
M  V30 7 N 3.8972 -0.744 0.0 0
M  V30 8 C 3.8972 -2.2438 0.0 0
M  V30 9 C 0.0 -4.4995 0.0 0
M  V30 10 N 5.1963 -2.9878 0.0 0
M  V30 11 C -1.299 -5.2553 0.0 0
M  V30 12 C 6.4954 -2.2438 0.0 0 CFG=1
M  V30 13 C -1.299 -6.7552 0.0 0
M  V30 14 C 7.8653 -2.8579 0.0 0
M  V30 15 C 6.6489 -0.7558 0.0 0
M  V30 16 N -2.5154 -7.6409 0.0 0
M  V30 17 C -0.0826 -7.6409 0.0 0
M  V30 18 C 8.8692 -1.7478 0.0 0 CFG=1
M  V30 19 C 8.1133 -0.4487 0.0 0
M  V30 20 C -2.0549 -9.0699 0.0 0
M  V30 21 N -0.5432 -9.0699 0.0 0
M  V30 22 N 10.3572 -1.9013 0.0 0
M  V30 23 C 10.9713 -3.2713 0.0 0
M  V30 24 O 10.0856 -4.4877 0.0 0
M  V30 25 N 12.4593 -3.4248 0.0 0
M  V30 26 C 13.2034 -4.7239 0.0 0
M  V30 27 C 13.4632 -2.3147 0.0 0
M  V30 28 C 14.6678 -4.4168 0.0 0
M  V30 29 C 14.8331 -2.9288 0.0 0
M  V30 END ATOM
M  V30 BEGIN BOND
M  V30 1 1 1 2
M  V30 2 2 2 3
M  V30 3 1 2 4
M  V30 4 1 3 5
M  V30 5 1 3 6
M  V30 6 2 4 7
M  V30 7 2 5 8
M  V30 8 1 6 9
M  V30 9 1 8 10
M  V30 10 1 9 11
M  V30 11 1 12 10 CFG=3
M  V30 12 1 11 13
M  V30 13 1 12 14
M  V30 14 1 12 15
M  V30 15 1 13 16
M  V30 16 2 13 17
M  V30 17 1 14 18
M  V30 18 1 15 19
M  V30 19 2 16 20
M  V30 20 1 17 21
M  V30 21 1 18 22 CFG=1
M  V30 22 1 22 23
M  V30 23 2 23 24
M  V30 24 1 23 25
M  V30 25 1 25 26
M  V30 26 1 25 27
M  V30 27 1 26 28
M  V30 28 1 27 29
M  V30 29 1 7 8
M  V30 30 1 18 19
M  V30 31 1 20 21
M  V30 32 1 28 29
M  V30 END BOND
M  V30 BEGIN COLLECTION
M  V30 MDLV30/STEABS ATOMS=(2 12 18)
M  V30 END COLLECTION
M  V30 END CTAB
M  END
>  <Molecule Name>
EL5003A

>  <Name>
EL5003A

>  <pIC50 PDK>
4

>  <selection>
Y

$$$$
