@<TRIPOS>MOLECULE
LIG
   37    41     1     0     0
SMALL
gas


@<TRIPOS>ATOM
      1 C1          84.1040   154.3500    13.7310 c2         1 LIG       0.133487
      2 C2          84.8660   153.3600    13.0430 c2         1 LIG       0.166955
      3 C3          82.9310   153.9780    14.4130 c1         1 LIG      -0.080561
      4 C4          84.4780   152.0120    13.0440 c1         1 LIG      -0.071837
      5 C5          82.5740   152.6440    14.4210 cc         1 LIG       0.067530
      6 C6          83.3410   151.6730    13.7460 cc         1 LIG       0.068225
      7 C7          81.4390   151.9270    15.1170 c2         1 LIG       0.116115
      8 C8          82.7020   150.3270    13.9950 c2         1 LIG       0.116141
      9 N1          81.3350   150.7440    14.2710 n          1 LIG      -0.196752
     10 C9          81.8900   151.4270    16.5300 c1         1 LIG      -0.013799
     11 C10         83.2610   149.7040    15.3180 c1         1 LIG      -0.013799
     12 C11         80.3020   149.8500    14.2880 c          1 LIG       0.366410
     13 N2          83.0810   150.5100    16.5790 n3         1 LIG      -0.104654
     14 O1          80.3800   148.7220    13.8220 o          1 LIG      -0.241340
     15 O2          84.1160   156.0970    11.4620 o          1 LIG      -0.252117
     16 C12         84.4390   156.4920    12.5810 c          1 LIG       0.324536
     17 N3          84.5190   155.7170    13.7390 n          1 LIG      -0.169983
     18 N4          84.8140   157.8070    12.7370 ns         1 LIG      -0.226968
     19 C13         85.3100   156.2220    14.8490 c1         1 LIG       0.021475
     20 C14         85.0240   158.4730    13.9130 c          1 LIG       0.296821
     21 C15         84.9160   157.6500    15.1620 c1         1 LIG       0.014529
     22 O3          85.2270   159.6840    13.9380 o          1 LIG      -0.261606
     23 H1          84.9450   158.3260    11.9100 hn         1 LIG       0.161344
     24 O4          85.9110   153.7850    12.2530 os         1 LIG      -0.247656
     25 C16         86.9780   152.8420    12.1650 c1         1 LIG       0.091180
     26 O5          79.2010   150.3760    14.8830 os         1 LIG      -0.255444
     27 C17         78.0320   149.5570    15.1410 c3         1 LIG       0.262932
     28 C18         77.5100   149.1790    13.7470 c1         1 LIG      -0.035362
     29 C19         76.9450   150.3550    15.8710 c1         1 LIG      -0.035362
     30 C20         78.4030   148.2720    15.8890 c1         1 LIG      -0.035362
     31 C21         84.2990   151.2410    16.9720 c1         1 LIG      -0.013102
     32 C22         85.5900   150.5300    16.6170 ce         1 LIG       0.131806
     33 C23         86.5680   151.1870    15.8540 c1         1 LIG      -0.033781
     34 C24         85.8480   149.2300    17.0740 c1         1 LIG      -0.033781
     35 C25         87.7690   150.5480    15.5410 c1         1 LIG      -0.007503
     36 C26         87.0490   148.5920    16.7580 c1         1 LIG      -0.007503
     37 C27         88.0080   149.2500    15.9910 c1         1 LIG      -0.001214
@<TRIPOS>BOND
     1     1    17 1   
     2     1     2 2   
     3     1     3 1   
     4     2    24 1   
     5     2     4 1   
     6     5     3 2   
     7     5     7 1   
     8     5     6 1   
     9     6     4 2   
    10     6     8 1   
    11     7     9 1   
    12     7    10 1   
    13     8    11 1   
    14     8     9 1   
    15     9    12 1   
    16    10    13 1   
    17    11    13 1   
    18    12    14 2   
    19    12    26 1   
    20    13    31 1   
    21    15    16 2   
    22    16    17 1   
    23    16    18 1   
    24    17    19 1   
    25    18    20 1   
    26    18    23 1   
    27    19    21 1   
    28    20    22 2   
    29    20    21 1   
    30    24    25 1   
    31    26    27 1   
    32    27    28 1   
    33    27    29 1   
    34    27    30 1   
    35    31    32 1   
    36    32    33 2   
    37    32    34 1   
    38    33    35 1   
    39    34    36 2   
    40    35    37 2   
    41    36    37 1   
@<TRIPOS>SUBSTRUCTURE
     1 LIG         1 TEMP              0 ****  ****    0 ROOT
