@<TRIPOS>MOLECULE
LIG
   37    41     1     0     0
SMALL
gas


@<TRIPOS>ATOM
      1 C1          85.3750   153.9860    13.3060 c2         1 LIG       0.133482
      2 C2          84.8360   153.0360    14.2030 c2         1 LIG       0.135848
      3 C3          86.2550   153.5290    12.2910 c1         1 LIG      -0.041515
      4 C4          85.2390   151.7170    14.1030 cc         1 LIG       0.058486
      5 C5          86.6410   152.1860    12.1800 c1         1 LIG      -0.056598
      6 C6          86.1320   151.2960    13.0980 cd         1 LIG       0.068790
      7 C7          84.9060   150.5160    14.9550 c2         1 LIG       0.111092
      8 C8          86.3870   149.8180    13.2950 c2         1 LIG       0.116138
      9 N1          85.1630   149.4430    13.9950 n          1 LIG      -0.197296
     10 C9          85.9690   150.3520    16.0930 c1         1 LIG      -0.014370
     11 C10         87.5610   149.6010    14.3080 c1         1 LIG      -0.013799
     12 C11         84.8000   148.1370    14.1600 c          1 LIG       0.366390
     13 N2          87.3850   150.3360    15.6060 n3         1 LIG      -0.104676
     14 O1          85.3090   147.2130    13.5400 o          1 LIG      -0.241340
     15 O2          85.4550   155.9220    11.1630 o          1 LIG      -0.252117
     16 C12         85.1890   156.2460    12.3180 c          1 LIG       0.324534
     17 N3          85.1060   155.3930    13.4180 n          1 LIG      -0.170017
     18 N4          84.9340   157.5700    12.5840 ns         1 LIG      -0.226968
     19 C13         84.5920   155.9310    14.6730 c1         1 LIG       0.021474
     20 C14         85.0480   158.1820    13.8020 c          1 LIG       0.296821
     21 C15         85.2290   157.2710    14.9770 c1         1 LIG       0.014529
     22 O3          85.0800   159.4050    13.9040 o          1 LIG      -0.261606
     23 H1          84.6420   158.1300    11.8290 hn         1 LIG       0.161344
     24 O4          83.9120   153.3540    15.1620 os         1 LIG      -0.255491
     25 C16         82.6040   152.9960    14.7040 c1         1 LIG       0.090543
     26 O5          83.8280   148.0060    15.0970 os         1 LIG      -0.255445
     27 C17         82.4350   147.8850    14.7140 c3         1 LIG       0.262932
     28 C18         82.0360   146.4660    15.1510 c1         1 LIG      -0.035362
     29 C19         82.2650   147.9930    13.1950 c1         1 LIG      -0.035362
     30 C20         81.5580   148.8920    15.4660 c1         1 LIG      -0.035362
     31 C21         88.3050   149.8690    16.6490 c1         1 LIG      -0.013103
     32 C22         89.5820   150.6790    16.7260 ce         1 LIG       0.131806
     33 C23         89.9650   151.2890    17.9300 c1         1 LIG      -0.033781
     34 C24         90.4080   150.8200    15.6020 c1         1 LIG      -0.033781
     35 C25         91.1460   152.0290    18.0060 c1         1 LIG      -0.007503
     36 C26         91.5890   151.5600    15.6810 c1         1 LIG      -0.007503
     37 C27         91.9570   152.1640    16.8820 c1         1 LIG      -0.001214
@<TRIPOS>BOND
     1     1    17 1   
     2     1     2 2   
     3     1     3 1   
     4     2    24 1   
     5     2     4 1   
     6     3     5 2   
     7     4     6 2   
     8     4     7 1   
     9     5     6 1   
    10     6     8 1   
    11     7     9 1   
    12     7    10 1   
    13     8    11 1   
    14     8     9 1   
    15     9    12 1   
    16    10    13 1   
    17    11    13 1   
    18    12    14 2   
    19    12    26 1   
    20    13    31 1   
    21    15    16 2   
    22    16    17 1   
    23    16    18 1   
    24    17    19 1   
    25    18    20 1   
    26    18    23 1   
    27    19    21 1   
    28    20    22 2   
    29    20    21 1   
    30    24    25 1   
    31    26    27 1   
    32    27    28 1   
    33    27    29 1   
    34    27    30 1   
    35    31    32 1   
    36    32    33 2   
    37    32    34 1   
    38    33    35 1   
    39    34    36 2   
    40    35    37 2   
    41    36    37 1   
@<TRIPOS>SUBSTRUCTURE
     1 LIG         1 TEMP              0 ****  ****    0 ROOT
