@<TRIPOS>MOLECULE
LIG
   36    40     1     0     0
SMALL
gas


@<TRIPOS>ATOM
      1 O1          83.6890   152.8000    18.4410 o          1 LIG      -0.270119
      2 C1          83.2950   151.6940    18.0670 c          1 LIG       0.263941
      3 N1          82.6580   150.9090    18.9790 ns         1 LIG      -0.245798
      4 C2          83.6230   151.1560    16.6830 c2         1 LIG       0.111107
      5 C3          81.9250   149.6950    18.7090 c1         1 LIG      -0.034151
      6 C4          82.7330   150.1180    15.9860 c2         1 LIG       0.068323
      7 C5          83.7460   152.3020    15.6610 c1         1 LIG      -0.024735
      8 C6          80.8590   149.9500    17.6750 ce         1 LIG       0.082046
      9 C7          81.2520   150.2100    16.3400 ce         1 LIG       0.055980
     10 C8          83.1400   150.3370    14.5200 c1         1 LIG      -0.028862
     11 N2          83.1730   151.7920    14.4030 n3         1 LIG      -0.107047
     12 C9          79.4950   150.0000    18.0220 c2         1 LIG       0.137048
     13 C10         80.2590   150.5060    15.3930 c1         1 LIG      -0.073704
     14 C11         78.5010   150.2570    17.0580 c2         1 LIG       0.123543
     15 C12         78.9020   150.5370    15.7430 c2         1 LIG       0.161692
     16 H1          82.7020   151.1990    19.9190 hn         1 LIG       0.165812
     17 N3          77.1240   150.2000    17.4260 n          1 LIG      -0.174917
     18 C13         76.4210   149.0010    17.4300 c          1 LIG       0.324077
     19 C14         76.5950   151.3240    18.1870 c1         1 LIG       0.020998
     20 O2          76.7720   147.9590    16.8810 o          1 LIG      -0.252137
     21 N4          75.1840   149.0610    18.0260 ns         1 LIG      -0.226983
     22 C15         75.1220   151.4980    17.8940 c1         1 LIG       0.014511
     23 C16         74.4160   150.1900    18.1220 c          1 LIG       0.296821
     24 O3          73.2020   150.1240    18.2990 o          1 LIG      -0.261606
     25 H2          74.8230   148.2300    18.4130 hn         1 LIG       0.161344
     26 O4          79.1480   149.7820    19.3380 os         1 LIG      -0.255452
     27 C17         79.1110   148.3760    19.6080 c1         1 LIG       0.090543
     28 O5          77.9440   150.6890    14.7690 os         1 LIG      -0.248250
     29 C18         77.8960   149.5740    13.8770 c1         1 LIG       0.091159
     30 C19         83.8680   152.2570    13.2020 c1         1 LIG      -0.013204
     31 C20         84.2150   153.7290    13.2540 ce         1 LIG       0.131804
     32 C21         85.4600   154.1850    12.7950 c1         1 LIG      -0.033781
     33 C22         83.3060   154.6600    13.7780 c1         1 LIG      -0.033781
     34 C23         85.7870   155.5410    12.8530 c1         1 LIG      -0.007503
     35 C24         83.6340   156.0160    13.8360 c1         1 LIG      -0.007503
     36 C25         84.8740   156.4550    13.3740 c1         1 LIG      -0.001214
@<TRIPOS>BOND
     1     1     2 2   
     2     2     3 1   
     3     3     5 1   
     4     3    16 1   
     5     4     2 1   
     6     4     6 1   
     7     4     7 1   
     8     6     9 1   
     9     6    10 1   
    10     7    11 1   
    11     8     5 1   
    12     8    12 2   
    13     8     9 1   
    14     9    13 2   
    15    10    11 1   
    16    11    30 1   
    17    12    26 1   
    18    12    14 1   
    19    13    15 1   
    20    14    17 1   
    21    14    15 2   
    22    15    28 1   
    23    17    18 1   
    24    17    19 1   
    25    18    20 2   
    26    18    21 1   
    27    19    22 1   
    28    21    23 1   
    29    21    25 1   
    30    22    23 1   
    31    23    24 2   
    32    26    27 1   
    33    28    29 1   
    34    30    31 1   
    35    31    32 2   
    36    31    33 1   
    37    32    34 1   
    38    33    35 2   
    39    34    36 2   
    40    35    36 1   
@<TRIPOS>SUBSTRUCTURE
     1 LIG         1 TEMP              0 ****  ****    0 ROOT
