@<TRIPOS>MOLECULE
LIG
   37    41     1     0     0
SMALL
gas


@<TRIPOS>ATOM
      1 C1          84.5730   151.2080    13.0730 ce         1 LIG       0.081969
      2 C2          85.6660   151.9190    12.5310 c1         1 LIG      -0.066649
      3 C3          83.6000   151.9760    13.7400 c1         1 LIG      -0.066649
      4 C4          85.7940   153.3120    12.6400 c2         1 LIG       0.162897
      5 C5          83.7100   153.3660    13.8780 c2         1 LIG       0.162897
      6 C6          84.8040   154.0480    13.3210 c2         1 LIG       0.130293
      7 N1          87.6320   147.5930    14.9350 n3         1 LIG      -0.093432
      8 C7          87.1500   147.5040    13.5470 c1         1 LIG       0.012137
      9 C8          86.6680   148.2370    15.8440 c1         1 LIG       0.012137
     10 C9          85.6290   147.3740    13.4870 c1         1 LIG      -0.028277
     11 C10         85.8240   149.3030    15.1510 c1         1 LIG      -0.028277
     12 C11         84.9950   148.6670    14.0280 c3         1 LIG       0.243418
     13 O1          83.6410   148.3840    14.5020 os         1 LIG      -0.266346
     14 C12         84.4110   149.6240    12.9320 c2         1 LIG       0.099601
     15 C13         83.0690   148.9730    13.3120 c1         1 LIG       0.018792
     16 C14         88.9700   148.1940    15.0360 c1         1 LIG      -0.018014
     17 Cl1         90.4160   151.7000    18.6450 cl         1 LIG      -0.071066
     18 C15         90.0540   150.0860    18.1640 c2         1 LIG       0.129023
     19 C16         89.6810   149.8000    16.8510 c2         1 LIG       0.174394
     20 C17         90.1430   149.0590    19.1040 c1         1 LIG      -0.037744
     21 F1          89.6150   150.7900    15.9450 f          1 LIG      -0.202494
     22 C18         89.3910   148.4880    16.4570 ce         1 LIG       0.119116
     23 C19         89.8600   147.7460    18.7260 c1         1 LIG      -0.015891
     24 C20         89.4860   147.4610    17.4100 c1         1 LIG      -0.040533
     25 N2          84.9260   155.4660    13.4350 n          1 LIG      -0.174286
     26 C21         84.8130   156.2990    12.3280 c          1 LIG       0.324099
     27 C22         85.5020   156.0010    14.6590 c1         1 LIG       0.021020
     28 O2          84.4120   155.9730    11.2130 o          1 LIG      -0.252137
     29 N3          85.1040   157.6210    12.5750 ns         1 LIG      -0.226983
     30 C23         84.8630   157.3310    14.9880 c1         1 LIG       0.014511
     31 C24         84.9700   158.2350    13.7910 c          1 LIG       0.296821
     32 O3          84.8640   159.4560    13.8810 o          1 LIG      -0.261606
     33 H1          85.4320   158.1640    11.8220 hn         1 LIG       0.161344
     34 O4          86.8560   154.0270    12.1400 os         1 LIG      -0.248202
     35 C25         87.7440   153.3580    11.2520 c1         1 LIG       0.091159
     36 O5          82.6760   154.0910    14.4210 os         1 LIG      -0.248202
     37 C26         81.6820   153.2620    15.0240 c1         1 LIG       0.091159
@<TRIPOS>BOND
     1     1     2 2   
     2     1     3 1   
     3     2     4 1   
     4     3     5 2   
     5     4    34 1   
     6     4     6 2   
     7     5    36 1   
     8     5     6 1   
     9     6    25 1   
    10     7     8 1   
    11     7     9 1   
    12     8    10 1   
    13     9    11 1   
    14    12    11 1   
    15    12    10 1   
    16    12    13 1   
    17    12    14 1   
    18    13    15 1   
    19    14     1 1   
    20    14    15 1   
    21    16     7 1   
    22    18    17 1   
    23    18    19 2   
    24    18    20 1   
    25    19    21 1   
    26    19    22 1   
    27    20    23 2   
    28    22    24 2   
    29    22    16 1   
    30    23    24 1   
    31    25    26 1   
    32    25    27 1   
    33    26    28 2   
    34    26    29 1   
    35    27    30 1   
    36    29    31 1   
    37    29    33 1   
    38    30    31 1   
    39    31    32 2   
    40    34    35 1   
    41    36    37 1   
@<TRIPOS>SUBSTRUCTURE
     1 LIG         1 TEMP              0 ****  ****    0 ROOT
