@<TRIPOS>MOLECULE
LIG
   34    38     1     0     0
SMALL
gas


@<TRIPOS>ATOM
      1 O1          90.8870   151.2730     4.6320 o          1 LIG      -0.270119
      2 C1          89.9670   151.7400     5.2990 c          1 LIG       0.263942
      3 N1          90.2630   152.4350     6.4350 ns         1 LIG      -0.245797
      4 C2          88.5050   151.6630     4.9010 c2         1 LIG       0.111129
      5 C3          89.2900   152.8060     7.4290 c1         1 LIG      -0.034104
      6 C4          87.5130   150.9900     5.8890 c2         1 LIG       0.068884
      7 C5          88.3410   150.8960     3.5820 c1         1 LIG      -0.024735
      8 C6          88.7330   151.5660     8.0790 ce         1 LIG       0.083173
      9 C7          87.9180   150.6870     7.3290 ce         1 LIG       0.061664
     10 C8          86.9870   149.7910     5.0760 c1         1 LIG      -0.028840
     11 N2          87.0110   150.2860     3.6990 n3         1 LIG      -0.107047
     12 C9          89.0500   151.2600     9.4250 c2         1 LIG       0.142267
     13 C10         87.4000   149.5600     7.9880 c1         1 LIG      -0.057331
     14 C11         88.4860   150.1520    10.0900 c2         1 LIG       0.134087
     15 C12         87.6780   149.2990     9.3350 c1         1 LIG      -0.041519
     16 H1          91.2000   152.6990     6.5850 hn         1 LIG       0.165812
     17 N3          88.6610   149.9030    11.4930 n          1 LIG      -0.169993
     18 C13         87.6650   150.1970    12.4230 c          1 LIG       0.324534
     19 C14         89.8590   149.2110    11.9600 c1         1 LIG       0.021474
     20 O2          86.5490   150.6470    12.1740 o          1 LIG      -0.252117
     21 N4          87.9930   149.9430    13.7330 ns         1 LIG      -0.226968
     22 C15         90.3710   149.8410    13.2390 c1         1 LIG       0.014529
     23 C16         89.2600   149.8880    14.2440 c          1 LIG       0.296821
     24 O3          89.4680   149.9590    15.4530 o          1 LIG      -0.261606
     25 H2          87.2500   149.7850    14.3590 hn         1 LIG       0.161344
     26 O4          89.9630   152.0700    10.0660 os         1 LIG      -0.254866
     27 C17         89.3320   152.7250    11.1740 c1         1 LIG       0.090564
     28 C18         86.7920   149.2090     2.7260 c1         1 LIG      -0.013204
     29 C19         85.3530   149.1180     2.2690 ce         1 LIG       0.131804
     30 C20         84.6500   150.2670     1.8780 c1         1 LIG      -0.033781
     31 C21         84.6980   147.8770     2.2320 c1         1 LIG      -0.033781
     32 C22         83.3230   150.1750     1.4550 c1         1 LIG      -0.007503
     33 C23         83.3710   147.7880     1.8080 c1         1 LIG      -0.007503
     34 C24         82.6840   148.9370     1.4190 c1         1 LIG      -0.001214
@<TRIPOS>BOND
     1     1     2 2   
     2     2     3 1   
     3     3     5 1   
     4     3    16 1   
     5     4     2 1   
     6     4     6 1   
     7     4     7 1   
     8     6     9 1   
     9     6    10 1   
    10     7    11 1   
    11     8     5 1   
    12     8    12 2   
    13     8     9 1   
    14     9    13 2   
    15    10    11 1   
    16    11    28 1   
    17    12    26 1   
    18    12    14 1   
    19    13    15 1   
    20    14    17 1   
    21    14    15 2   
    22    17    18 1   
    23    17    19 1   
    24    18    20 2   
    25    18    21 1   
    26    19    22 1   
    27    21    23 1   
    28    21    25 1   
    29    22    23 1   
    30    23    24 2   
    31    26    27 1   
    32    28    29 1   
    33    29    30 2   
    34    29    31 1   
    35    30    32 1   
    36    31    33 2   
    37    32    34 2   
    38    33    34 1   
@<TRIPOS>SUBSTRUCTURE
     1 LIG         1 TEMP              0 ****  ****    0 ROOT
