@<TRIPOS>MOLECULE
LIG
   37    41     1     0     0
SMALL
gas


@<TRIPOS>ATOM
      1 C1          84.6930   151.1360    13.2520 ce         1 LIG       0.081969
      2 C2          85.8060   151.8370    12.7360 c1         1 LIG      -0.066649
      3 C3          83.6910   151.9190    13.8510 c1         1 LIG      -0.066649
      4 C4          85.9200   153.2340    12.7910 c2         1 LIG       0.162897
      5 C5          83.7860   153.3150    13.9370 c2         1 LIG       0.162897
      6 C6          84.8950   153.9870    13.3960 c2         1 LIG       0.130293
      7 N1          84.2510   148.5420    17.3200 n3         1 LIG      -0.093432
      8 C7          84.9950   149.6470    16.6910 c1         1 LIG       0.012137
      9 C8          83.8330   147.5010    16.3620 c1         1 LIG       0.012137
     10 C9          85.8170   149.1720    15.4970 c1         1 LIG      -0.028277
     11 C10         83.5850   148.0420    14.9570 c1         1 LIG      -0.028277
     12 C11         84.8700   148.6640    14.4000 c3         1 LIG       0.243418
     13 O1          85.5850   147.6990    13.5580 os         1 LIG      -0.266346
     14 C12         84.6210   149.5530    13.1350 c2         1 LIG       0.099601
     15 C13         85.7640   148.7160    12.5370 c1         1 LIG       0.018792
     16 C14         83.1380   149.0680    18.1280 c1         1 LIG      -0.018014
     17 Cl1         86.2880   147.7120    22.0780 cl         1 LIG      -0.071066
     18 C15         84.7970   148.3370    21.4820 c2         1 LIG       0.129023
     19 C16         84.5760   148.4590    20.1100 c2         1 LIG       0.174394
     20 C17         83.8070   148.7200    22.3860 c1         1 LIG      -0.037744
     21 F1          85.5290   148.0800    19.2420 f          1 LIG      -0.202494
     22 C18         83.3710   148.9720    19.6180 ce         1 LIG       0.119116
     23 C19         82.5940   149.2200    21.9120 c1         1 LIG      -0.015891
     24 C20         82.3750   149.3400    20.5380 c1         1 LIG      -0.040533
     25 N2          85.0000   155.4090    13.4560 n          1 LIG      -0.174286
     26 C21         84.9390   156.1920    12.3100 c          1 LIG       0.324099
     27 C22         85.5170   155.9980    14.6810 c1         1 LIG       0.021020
     28 O2          84.5930   155.8160    11.1930 o          1 LIG      -0.252137
     29 N3          85.2160   157.5250    12.5120 ns         1 LIG      -0.226983
     30 C23         84.8620   157.3400    14.9220 c1         1 LIG       0.014511
     31 C24         85.0250   158.1910    13.6930 c          1 LIG       0.296821
     32 O3          84.9140   159.4150    13.7250 o          1 LIG      -0.261606
     33 H1          85.5760   158.0360    11.7520 hn         1 LIG       0.161344
     34 O4          86.9960   153.9370    12.3050 os         1 LIG      -0.248202
     35 C25         87.8190   153.2990    11.3370 c1         1 LIG       0.091159
     36 O5          82.7250   154.0540    14.4060 os         1 LIG      -0.248202
     37 C26         81.7290   153.2480    15.0360 c1         1 LIG       0.091159
@<TRIPOS>BOND
     1     1     2 2   
     2     1     3 1   
     3     2     4 1   
     4     3     5 2   
     5     4    34 1   
     6     4     6 2   
     7     5    36 1   
     8     5     6 1   
     9     6    25 1   
    10     7     8 1   
    11     7     9 1   
    12     8    10 1   
    13     9    11 1   
    14    12    11 1   
    15    12    10 1   
    16    12    13 1   
    17    12    14 1   
    18    13    15 1   
    19    14     1 1   
    20    14    15 1   
    21    16     7 1   
    22    18    17 1   
    23    18    19 2   
    24    18    20 1   
    25    19    21 1   
    26    19    22 1   
    27    20    23 2   
    28    22    24 2   
    29    22    16 1   
    30    23    24 1   
    31    25    26 1   
    32    25    27 1   
    33    26    28 2   
    34    26    29 1   
    35    27    30 1   
    36    29    31 1   
    37    29    33 1   
    38    30    31 1   
    39    31    32 2   
    40    34    35 1   
    41    36    37 1   
@<TRIPOS>SUBSTRUCTURE
     1 LIG         1 TEMP              0 ****  ****    0 ROOT
