@<TRIPOS>MOLECULE
LIG
   30    32     1     0     0
SMALL
gas


@<TRIPOS>ATOM
      1 C1          84.3290   154.5180    13.6930 c2         1 LIG       0.135285
      2 C2          85.1030   153.5790    12.9820 c2         1 LIG       0.174359
      3 C3          83.1760   154.0730    14.3620 c1         1 LIG      -0.065939
      4 C4          84.7270   152.2320    12.9550 c1         1 LIG      -0.030861
      5 C5          82.8090   152.7170    14.3590 ce         1 LIG       0.123896
      6 C6          83.5950   151.8030    13.6480 c1         1 LIG      -0.041035
      7 O1          84.3110   156.3140    11.4460 o          1 LIG      -0.252117
      8 C7          84.5880   156.6960    12.5810 c          1 LIG       0.324537
      9 N1          84.6810   155.9040    13.7260 n          1 LIG      -0.169915
     10 N2          84.8920   158.0250    12.7710 ns         1 LIG      -0.226968
     11 C8          85.4100   156.4310    14.8690 c1         1 LIG       0.021477
     12 C9          85.0270   158.6800    13.9650 c          1 LIG       0.296821
     13 C10         84.9280   157.8280    15.1950 c1         1 LIG       0.014529
     14 O2          85.1590   159.9000    14.0180 o          1 LIG      -0.261606
     15 H1          85.0270   158.5650    11.9590 hn         1 LIG       0.161344
     16 O3          86.1290   154.0360    12.1890 os         1 LIG      -0.247006
     17 C11         87.0860   153.0250    11.8730 c1         1 LIG       0.091202
     18 C12         81.5790   152.2470    15.1070 c1         1 LIG      -0.020657
     19 N3          81.5350   150.7900    15.3010 n3         1 LIG      -0.120766
     20 C13         80.1930   150.3550    15.7850 c2         1 LIG       0.169558
     21 C14         82.6660   150.2440    16.0500 c1         1 LIG       0.015096
     22 C15         80.1510   149.1380    16.7550 c1         1 LIG      -0.026803
     23 C16         82.7700   150.6050    17.5330 c1         1 LIG       0.008296
     24 N4          80.6760   149.3240    18.1220 n7         1 LIG      -0.181435
     25 C17         81.4740   150.5230    18.3350 c1         1 LIG       0.006146
     26 H2          81.2570   148.5160    18.3470 hn         1 LIG       0.153771
     27 C18         79.3280   150.0520    14.5570 c          1 LIG       0.312324
     28 O4          79.3790   149.0320    13.8840 o          1 LIG      -0.258875
     29 O5          78.3990   150.9900    14.2800 oh         1 LIG      -0.326499
     30 H3          78.3550   151.7730    14.7930 ho         1 LIG       0.221838
@<TRIPOS>BOND
     1     1     9 1   
     2     1     2 2   
     3     1     3 1   
     4     2    16 1   
     5     2     4 1   
     6     3     5 2   
     7     4     6 2   
     8     5    18 1   
     9     5     6 1   
    10     7     8 2   
    11     8     9 1   
    12     8    10 1   
    13     9    11 1   
    14    10    12 1   
    15    10    15 1   
    16    11    13 1   
    17    12    14 2   
    18    12    13 1   
    19    16    17 1   
    20    18    19 1   
    21    19    20 1   
    22    19    21 1   
    23    20    27 1   
    24    20    22 1   
    25    21    23 1   
    26    22    24 1   
    27    23    25 1   
    28    24    25 1   
    29    24    26 1   
    30    27    28 2   
    31    27    29 1   
    32    29    30 1   
@<TRIPOS>SUBSTRUCTURE
     1 LIG         1 TEMP              0 ****  ****    0 ROOT
