Compound_10_ent1


 39 42  0  0  0  0  0  0  0  0999 V2000
   83.8035  149.5555   16.3003 C   0  0  0  0  0  0  0  0  0  0  0  0
   81.9134  149.6110   18.1662 S   0  0  0  0  0  0  0  0  0  0  0  0
   82.0828  148.4717   19.1442 O   0  0  0  0  0  0  0  0  0  0  0  0
   82.7972  150.7360   18.7057 O   0  0  0  0  0  0  0  0  0  0  0  0
   82.4902  149.1637   16.6560 N   0  0  0  0  0  0  0  0  0  0  0  0
   80.2447  150.1361   18.2487 C   0  0  0  0  0  0  0  0  0  0  0  0
   81.5720  148.8725   15.6260 C   0  0  0  0  0  0  0  0  0  0  0  0
   79.3144  149.4457   17.2977 C   0  0  0  0  0  0  0  0  0  0  0  0
   80.6780  150.0194   15.2074 C   0  0  0  0  0  0  0  0  0  0  0  0
   79.4473  149.9259   15.9438 N   0  0  0  0  0  0  0  0  0  0  0  0
   78.2925  150.3533   15.2460 C   0  0  0  0  0  0  0  0  0  0  0  0
   78.4016  150.7686   14.0727 O   0  0  0  0  0  0  0  0  0  0  0  0
   76.9407  150.3222   15.8737 C   0  0  0  0  0  0  0  0  0  0  0  0
   77.0076  150.3310   17.2645 O   0  0  0  0  0  0  0  0  0  0  0  0
   76.2086  151.0421   18.1332 C   0  0  0  0  0  0  0  0  0  0  0  0
   74.8790  151.3131   17.9515 C   0  0  0  0  0  0  0  0  0  0  0  0
   76.8049  151.5301   19.2994 C   0  0  0  0  0  0  0  0  0  0  0  0
   74.1710  152.0373   18.8859 C   0  0  0  0  0  0  0  0  0  0  0  0
   76.1011  152.2539   20.2351 C   0  0  0  0  0  0  0  0  0  0  0  0
   74.7630  152.5228   20.0444 C   0  0  0  0  0  0  0  0  0  0  0  0
   83.8601  150.4650   15.1263 C   0  0  0  0  0  0  0  0  0  0  0  0
   84.1226  151.8186   15.2662 C   0  0  0  0  0  0  0  0  0  0  0  0
   83.6464  149.9087   13.8835 C   0  0  0  0  0  0  0  0  0  0  0  0
   84.1829  152.6714   14.1737 C   0  0  0  0  0  0  0  0  0  0  0  0
   83.7026  150.7419   12.7863 C   0  0  0  0  0  0  0  0  0  0  0  0
   83.9650  152.0857   12.9436 C   0  0  0  0  0  0  0  0  0  0  0  0
   84.4551  154.0915   14.2928 C   0  0  0  0  0  0  0  0  0  0  0  0
   85.2242  154.4666   15.2183 O   0  0  0  0  0  0  0  0  0  0  0  0
   83.9308  155.0896   13.4580 N   0  0  0  0  0  0  0  0  0  0  0  0
   83.3297  154.8058   12.7318 H   0  0  0  0  0  0  0  0  0  0  0  0
   84.2063  156.5039   13.5833 C   0  0  0  0  0  0  0  0  0  0  0  0
   85.4416  156.9109   12.8835 C   0  0  0  0  0  0  0  0  0  0  0  0
   84.3914  156.8239   15.0503 C   0  0  0  0  0  0  0  0  0  0  0  0
   86.1275  156.1629   12.1408 O   0  0  0  0  0  0  0  0  0  0  0  0
   85.8646  158.2614   13.0850 N   0  0  0  0  0  0  0  0  0  0  0  0
   84.7630  158.2404   15.3182 C   0  0  0  0  0  0  0  0  0  0  0  0
   85.2350  158.9927   14.1313 C   0  0  0  0  0  0  0  0  0  0  0  0
   85.1062  160.2359   14.0070 O   0  0  0  0  0  0  0  0  0  0  0  0
   86.5627  158.6690   12.5231 H   0  0  0  0  0  0  0  0  0  0  0  0
  2  3  2  0
  2  4  2  0
  2  5  1  0
  2  6  1  0
  5  7  1  0
  5  1  1  0
  6  8  1  0
  7  9  1  0
  1 21  1  0
  8 10  1  0
  9 10  1  0
 21 22  2  0
 21 23  1  0
 10 11  1  0
 22 24  1  0
 23 25  2  0
 11 12  2  0
 11 13  1  0
 24 27  1  0
 24 26  2  0
 25 26  1  0
 13 14  1  0
 27 28  2  0
 27 29  1  0
 14 15  1  0
 29 30  1  0
 15 16  2  0
 15 17  1  0
 31 29  1  0
 31 32  1  0
 31 33  1  0
 16 18  1  0
 17 19  2  0
 32 34  2  0
 32 35  1  0
 33 36  1  0
 18 20  2  0
 19 20  1  0
 35 37  1  0
 35 39  1  0
 36 37  1  0
 37 38  2  0
M  END
> <Molecule Name>
Compound 10

> <EC50 (µM) (Excel)>
14.3

> <Error (µM)>
1.3

> <HTRC CRBN-DDB1 EC50 (µM)>
14.29 ±  1.32

> <EC50 fitting (µM)>
23.96

> <Modèle Fitting>
3PL

> <Parent_Compound>
Compound 10

> <MMFF94s_energy_kcalmol>
144.245
> <Compound_Name>
Compound_10_ent1

> <Pose_Rank>
1

> <Docking_Affinity_kcal_mol>
-9.47

> <CNN_Affinity>
6.68

> <CNN_Pose_Score>
0.5844
$$$$

> <minimizedAffinity>
-9.46683

> <CNNscore>
0.5844262838

> <CNNaffinity>
6.6795601845

> <CNN_VS>
3.9037106037

> <CNNaffinity_variance>
0.1838857383

> <Compound_Name>
Compound_10_ent1

> <Pose_Rank>
2

> <Docking_Affinity_kcal_mol>
-8.87

> <CNN_Affinity>
6.779

> <CNN_Pose_Score>
0.5698
$$$$
Compound_10_ent1


 39 42  0  0  0  0  0  0  0  0999 V2000
   85.7897  149.4166   14.9435 C   0  0  0  0  0  0  0  0  0  0  0  0
   86.6533  148.3530   12.6674 S   0  0  0  0  0  0  0  0  0  0  0  0
   87.4516  147.0961   12.9244 O   0  0  0  0  0  0  0  0  0  0  0  0
   85.1968  147.8937   12.5937 O   0  0  0  0  0  0  0  0  0  0  0  0
   86.8098  149.4088   13.9614 N   0  0  0  0  0  0  0  0  0  0  0  0
   87.1173  148.9624   11.0926 C   0  0  0  0  0  0  0  0  0  0  0  0
   87.6188  150.5553   13.8216 C   0  0  0  0  0  0  0  0  0  0  0  0
   88.2619  149.9300   11.0985 C   0  0  0  0  0  0  0  0  0  0  0  0
   87.1730  151.5417   12.7642 C   0  0  0  0  0  0  0  0  0  0  0  0
   87.8743  151.2460   11.5450 N   0  0  0  0  0  0  0  0  0  0  0  0
   88.1900  152.3685   10.7429 C   0  0  0  0  0  0  0  0  0  0  0  0
   87.8581  153.5106   11.1256 O   0  0  0  0  0  0  0  0  0  0  0  0
   88.9120  152.2275    9.4462 C   0  0  0  0  0  0  0  0  0  0  0  0
   89.4763  153.4293    9.0265 O   0  0  0  0  0  0  0  0  0  0  0  0
   89.3860  154.0010    7.7760 C   0  0  0  0  0  0  0  0  0  0  0  0
   90.3346  154.7992    7.1950 C   0  0  0  0  0  0  0  0  0  0  0  0
   88.2275  153.7466    7.0367 C   0  0  0  0  0  0  0  0  0  0  0  0
   90.1425  155.3229    5.9350 C   0  0  0  0  0  0  0  0  0  0  0  0
   88.0319  154.2678    5.7778 C   0  0  0  0  0  0  0  0  0  0  0  0
   88.9916  155.0707    5.2002 C   0  0  0  0  0  0  0  0  0  0  0  0
   84.7584  150.4648   14.7276 C   0  0  0  0  0  0  0  0  0  0  0  0
   85.0724  151.8140   14.7671 C   0  0  0  0  0  0  0  0  0  0  0  0
   83.4698  150.0434   14.4790 C   0  0  0  0  0  0  0  0  0  0  0  0
   84.1154  152.7967   14.5603 C   0  0  0  0  0  0  0  0  0  0  0  0
   82.5057  151.0070   14.2711 C   0  0  0  0  0  0  0  0  0  0  0  0
   82.8355  152.3444   14.3138 C   0  0  0  0  0  0  0  0  0  0  0  0
   84.4176  154.2153   14.5970 C   0  0  0  0  0  0  0  0  0  0  0  0
   85.2804  154.6109   15.4264 O   0  0  0  0  0  0  0  0  0  0  0  0
   83.8264  155.1909   13.7806 N   0  0  0  0  0  0  0  0  0  0  0  0
   83.1519  154.8911   13.1290 H   0  0  0  0  0  0  0  0  0  0  0  0
   84.1324  156.6039   13.8233 C   0  0  0  0  0  0  0  0  0  0  0  0
   85.2872  156.9655   12.9766 C   0  0  0  0  0  0  0  0  0  0  0  0
   84.4838  156.9711   15.2482 C   0  0  0  0  0  0  0  0  0  0  0  0
   85.8763  156.1809   12.1899 O   0  0  0  0  0  0  0  0  0  0  0  0
   85.7474  158.3149   13.0810 N   0  0  0  0  0  0  0  0  0  0  0  0
   84.9013  158.3895   15.4218 C   0  0  0  0  0  0  0  0  0  0  0  0
   85.2478  159.0923   14.1635 C   0  0  0  0  0  0  0  0  0  0  0  0
   85.1221  160.3325   14.0093 O   0  0  0  0  0  0  0  0  0  0  0  0
   86.3839  158.6909   12.4308 H   0  0  0  0  0  0  0  0  0  0  0  0
  2  3  2  0
  2  4  2  0
  2  5  1  0
  2  6  1  0
  5  7  1  0
  5  1  1  0
  6  8  1  0
  7  9  1  0
  1 21  1  0
  8 10  1  0
  9 10  1  0
 21 22  2  0
 21 23  1  0
 10 11  1  0
 22 24  1  0
 23 25  2  0
 11 12  2  0
 11 13  1  0
 24 27  1  0
 24 26  2  0
 25 26  1  0
 13 14  1  0
 27 28  2  0
 27 29  1  0
 14 15  1  0
 29 30  1  0
 15 16  2  0
 15 17  1  0
 31 29  1  0
 31 32  1  0
 31 33  1  0
 16 18  1  0
 17 19  2  0
 32 34  2  0
 32 35  1  0
 33 36  1  0
 18 20  2  0
 19 20  1  0
 35 37  1  0
 35 39  1  0
 36 37  1  0
 37 38  2  0
M  END
> <Molecule Name>
Compound 10

> <EC50 (µM) (Excel)>
14.3

> <Error (µM)>
1.3

> <HTRC CRBN-DDB1 EC50 (µM)>
14.29 ±  1.32

> <EC50 fitting (µM)>
23.96

> <Modèle Fitting>
3PL

> <Parent_Compound>
Compound 10

> <MMFF94s_energy_kcalmol>
144.245
> <Compound_Name>
Compound_10_ent1

> <Pose_Rank>
3

> <Docking_Affinity_kcal_mol>
-8.8

> <CNN_Affinity>
6.551

> <CNN_Pose_Score>
0.5235
$$$$

> <minimizedAffinity>
-8.87465

> <CNNscore>
0.5698404908

> <CNNaffinity>
6.7787213326

> <CNN_VS>
3.8627898693

> <CNNaffinity_variance>
0.0781782717

> <Compound_Name>
Compound_10_ent1

> <Pose_Rank>
4

> <Docking_Affinity_kcal_mol>
-9.7

> <CNN_Affinity>
6.775

> <CNN_Pose_Score>
0.5013
$$$$
Compound_10_ent1


 39 42  0  0  0  0  0  0  0  0999 V2000
   83.9010  149.6805   16.6570 C   0  0  0  0  0  0  0  0  0  0  0  0
   81.5486  148.7560   17.4747 S   0  0  0  0  0  0  0  0  0  0  0  0
   80.4139  149.4488   16.7565 O   0  0  0  0  0  0  0  0  0  0  0  0
   81.9457  147.5922   16.5661 O   0  0  0  0  0  0  0  0  0  0  0  0
   82.8609  149.7917   17.6114 N   0  0  0  0  0  0  0  0  0  0  0  0
   80.9074  148.0955   18.9645 C   0  0  0  0  0  0  0  0  0  0  0  0
   83.1546  150.3707   18.8632 C   0  0  0  0  0  0  0  0  0  0  0  0
   80.9823  149.0112   20.1487 C   0  0  0  0  0  0  0  0  0  0  0  0
   83.5074  149.3954   19.9650 C   0  0  0  0  0  0  0  0  0  0  0  0
   82.3116  149.0945   20.7033 N   0  0  0  0  0  0  0  0  0  0  0  0
   82.4984  148.8651   22.0872 C   0  0  0  0  0  0  0  0  0  0  0  0
   83.6472  148.9375   22.5730 O   0  0  0  0  0  0  0  0  0  0  0  0
   81.3572  148.5374   22.9888 C   0  0  0  0  0  0  0  0  0  0  0  0
   80.5250  147.5607   22.4481 O   0  0  0  0  0  0  0  0  0  0  0  0
   79.2133  147.3039   22.7834 C   0  0  0  0  0  0  0  0  0  0  0  0
   78.5625  147.7929   23.8842 C   0  0  0  0  0  0  0  0  0  0  0  0
   78.4838  146.4728   21.9286 C   0  0  0  0  0  0  0  0  0  0  0  0
   77.2448  147.4712   24.1273 C   0  0  0  0  0  0  0  0  0  0  0  0
   77.1675  146.1491   22.1680 C   0  0  0  0  0  0  0  0  0  0  0  0
   76.5198  146.6451   23.2787 C   0  0  0  0  0  0  0  0  0  0  0  0
   83.7405  150.5838   15.4879 C   0  0  0  0  0  0  0  0  0  0  0  0
   84.0874  151.9241   15.5505 C   0  0  0  0  0  0  0  0  0  0  0  0
   83.2359  150.0352   14.3285 C   0  0  0  0  0  0  0  0  0  0  0  0
   83.9457  152.7707   14.4607 C   0  0  0  0  0  0  0  0  0  0  0  0
   83.0882  150.8625   13.2353 C   0  0  0  0  0  0  0  0  0  0  0  0
   83.4384  152.1930   13.3151 C   0  0  0  0  0  0  0  0  0  0  0  0
   84.3005  154.1769   14.5002 C   0  0  0  0  0  0  0  0  0  0  0  0
   85.1964  154.5342   15.3117 O   0  0  0  0  0  0  0  0  0  0  0  0
   83.7266  155.1798   13.7048 N   0  0  0  0  0  0  0  0  0  0  0  0
   83.0265  154.9099   13.0673 H   0  0  0  0  0  0  0  0  0  0  0  0
   84.0851  156.5803   13.7501 C   0  0  0  0  0  0  0  0  0  0  0  0
   85.2949  156.8875   12.9605 C   0  0  0  0  0  0  0  0  0  0  0  0
   84.3776  156.9497   15.1877 C   0  0  0  0  0  0  0  0  0  0  0  0
   85.8921  156.0719   12.2124 O   0  0  0  0  0  0  0  0  0  0  0  0
   85.8017  158.2191   13.0759 N   0  0  0  0  0  0  0  0  0  0  0  0
   84.8410  158.3527   15.3694 C   0  0  0  0  0  0  0  0  0  0  0  0
   85.2784  159.0274   14.1241 C   0  0  0  0  0  0  0  0  0  0  0  0
   85.2095  160.2697   13.9522 O   0  0  0  0  0  0  0  0  0  0  0  0
   86.4847  158.5630   12.4558 H   0  0  0  0  0  0  0  0  0  0  0  0
  2  3  2  0
  2  4  2  0
  2  5  1  0
  2  6  1  0
  5  7  1  0
  5  1  1  0
  6  8  1  0
  7  9  1  0
  1 21  1  0
  8 10  1  0
  9 10  1  0
 21 22  2  0
 21 23  1  0
 10 11  1  0
 22 24  1  0
 23 25  2  0
 11 12  2  0
 11 13  1  0
 24 27  1  0
 24 26  2  0
 25 26  1  0
 13 14  1  0
 27 28  2  0
 27 29  1  0
 14 15  1  0
 29 30  1  0
 15 16  2  0
 15 17  1  0
 31 29  1  0
 31 32  1  0
 31 33  1  0
 16 18  1  0
 17 19  2  0
 32 34  2  0
 32 35  1  0
 33 36  1  0
 18 20  2  0
 19 20  1  0
 35 37  1  0
 35 39  1  0
 36 37  1  0
 37 38  2  0
M  END
> <Molecule Name>
Compound 10

> <EC50 (µM) (Excel)>
14.3

> <Error (µM)>
1.3

> <HTRC CRBN-DDB1 EC50 (µM)>
14.29 ±  1.32

> <EC50 fitting (µM)>
23.96

> <Modèle Fitting>
3PL

> <Parent_Compound>
Compound 10

> <MMFF94s_energy_kcalmol>
144.245
> <Compound_Name>
Compound_10_ent1

> <Pose_Rank>
5

> <Docking_Affinity_kcal_mol>
-8.62

> <CNN_Affinity>
6.443

> <CNN_Pose_Score>
0.4707
$$$$
Compound_10_ent2


 39 42  0  0  0  0  0  0  0  0999 V2000
   81.7588  151.6231   15.2152 C   0  0  0  0  0  0  0  0  0  0  0  0
   83.3199  150.4231   13.5073 S   0  0  0  0  0  0  0  0  0  0  0  0
   83.3091  149.0527   14.1750 O   0  0  0  0  0  0  0  0  0  0  0  0
   82.1849  150.4007   12.5193 O   0  0  0  0  0  0  0  0  0  0  0  0
   83.0419  151.5930   14.6517 N   0  0  0  0  0  0  0  0  0  0  0  0
   84.8156  150.5619   12.5972 C   0  0  0  0  0  0  0  0  0  0  0  0
   84.0987  152.2891   15.2498 C   0  0  0  0  0  0  0  0  0  0  0  0
   85.9217  151.2426   13.3569 C   0  0  0  0  0  0  0  0  0  0  0  0
   84.7063  153.3176   14.2773 C   0  0  0  0  0  0  0  0  0  0  0  0
   85.6099  152.6797   13.3777 N   0  0  0  0  0  0  0  0  0  0  0  0
   86.2691  153.4493   12.4260 C   0  0  0  0  0  0  0  0  0  0  0  0
   87.0783  152.8892   11.6111 O   0  0  0  0  0  0  0  0  0  0  0  0
   86.1092  154.8955   12.2733 C   0  0  0  0  0  0  0  0  0  0  0  0
   84.9823  155.4531   12.8648 O   0  0  0  0  0  0  0  0  0  0  0  0
   84.9703  156.6570   13.5119 C   0  0  0  0  0  0  0  0  0  0  0  0
   84.6124  156.7160   14.8355 C   0  0  0  0  0  0  0  0  0  0  0  0
   85.3228  157.8170   12.8195 C   0  0  0  0  0  0  0  0  0  0  0  0
   84.6189  157.9527   15.4331 C   0  0  0  0  0  0  0  0  0  0  0  0
   85.3214  159.0435   13.4401 C   0  0  0  0  0  0  0  0  0  0  0  0
   84.9642  159.1112   14.7658 C   0  0  0  0  0  0  0  0  0  0  0  0
   81.5967  150.9858   16.5376 C   0  0  0  0  0  0  0  0  0  0  0  0
   80.3394  150.7007   17.0598 C   0  0  0  0  0  0  0  0  0  0  0  0
   82.6901  150.6455   17.3037 C   0  0  0  0  0  0  0  0  0  0  0  0
   80.1691  150.1029   18.2896 C   0  0  0  0  0  0  0  0  0  0  0  0
   82.5678  150.0450   18.5421 C   0  0  0  0  0  0  0  0  0  0  0  0
   81.3031  149.7873   19.0066 C   0  0  0  0  0  0  0  0  0  0  0  0
   78.8742  149.7906   18.8667 C   0  0  0  0  0  0  0  0  0  0  0  0
   78.6963  148.6438   19.3586 O   0  0  0  0  0  0  0  0  0  0  0  0
   77.7856  150.7009   18.9137 N   0  0  0  0  0  0  0  0  0  0  0  0
   77.8743  151.6086   18.5429 H   0  0  0  0  0  0  0  0  0  0  0  0
   76.5450  150.2696   19.5161 C   0  0  0  0  0  0  0  0  0  0  0  0
   76.3943  150.7868   20.8941 C   0  0  0  0  0  0  0  0  0  0  0  0
   75.3800  150.7953   18.6965 C   0  0  0  0  0  0  0  0  0  0  0  0
   76.6052  150.0278   21.8681 O   0  0  0  0  0  0  0  0  0  0  0  0
   76.0114  152.1407   21.0651 N   0  0  0  0  0  0  0  0  0  0  0  0
   75.3887  152.3078   18.6205 C   0  0  0  0  0  0  0  0  0  0  0  0
   75.5553  152.9264   19.9569 C   0  0  0  0  0  0  0  0  0  0  0  0
   75.2993  154.1354   20.1240 O   0  0  0  0  0  0  0  0  0  0  0  0
   76.0595  152.5481   21.9601 H   0  0  0  0  0  0  0  0  0  0  0  0
  2  3  2  0
  2  4  2  0
  2  5  1  0
  2  6  1  0
  5  7  1  0
  5  1  1  0
  6  8  1  0
  7  9  1  0
  1 21  1  0
  8 10  1  0
  9 10  1  0
 21 22  2  0
 21 23  1  0
 10 11  1  0
 22 24  1  0
 23 25  2  0
 11 12  2  0
 11 13  1  0
 24 27  1  0
 24 26  2  0
 25 26  1  0
 13 14  1  0
 27 28  2  0
 27 29  1  0
 14 15  1  0
 29 30  1  0
 15 16  2  0
 15 17  1  0
 31 29  1  0
 31 32  1  0
 31 33  1  0
 16 18  1  0
 17 19  2  0
 32 34  2  0
 32 35  1  0
 33 36  1  0
 18 20  2  0
 19 20  1  0
 35 37  1  0
 35 39  1  0
 36 37  1  0
 37 38  2  0
M  END
> <Molecule Name>
Compound 10

> <EC50 (µM) (Excel)>
14.3

> <Error (µM)>
1.3

> <HTRC CRBN-DDB1 EC50 (µM)>
14.29 ±  1.32

> <EC50 fitting (µM)>
23.96

> <Modèle Fitting>
3PL

> <Parent_Compound>
Compound 10

> <MMFF94s_energy_kcalmol>
145.091
> <Compound_Name>
Compound_10_ent2

> <Pose_Rank>
1

> <Docking_Affinity_kcal_mol>
-10.23

> <CNN_Affinity>
6.215

> <CNN_Pose_Score>
0.2336
$$$$

> <minimizedAffinity>
-10.23051

> <CNNscore>
0.2335942686

> <CNNaffinity>
6.2149682045

> <CNN_VS>
1.4517809153

> <CNNaffinity_variance>
0.2327405661

> <Compound_Name>
Compound_10_ent2

> <Pose_Rank>
2

> <Docking_Affinity_kcal_mol>
-7.72

> <CNN_Affinity>
4.849

> <CNN_Pose_Score>
0.2313
$$$$
Compound_10_ent2


 39 42  0  0  0  0  0  0  0  0999 V2000
   87.8215  148.9391   12.4450 C   0  0  0  0  0  0  0  0  0  0  0  0
   87.8529  149.9231   14.8583 S   0  0  0  0  0  0  0  0  0  0  0  0
   88.3032  148.6536   15.5721 O   0  0  0  0  0  0  0  0  0  0  0  0
   89.1171  150.6645   14.5157 O   0  0  0  0  0  0  0  0  0  0  0  0
   87.0499  149.5134   13.4645 N   0  0  0  0  0  0  0  0  0  0  0  0
   86.9607  150.8981   16.0151 C   0  0  0  0  0  0  0  0  0  0  0  0
   85.6526  149.4421   13.4261 C   0  0  0  0  0  0  0  0  0  0  0  0
   85.4723  150.6846   15.9610 C   0  0  0  0  0  0  0  0  0  0  0  0
   85.0250  150.8489   13.4305 C   0  0  0  0  0  0  0  0  0  0  0  0
   84.9814  151.3710   14.7565 N   0  0  0  0  0  0  0  0  0  0  0  0
   84.4367  152.6327   14.9664 C   0  0  0  0  0  0  0  0  0  0  0  0
   84.3954  153.1139   16.1494 O   0  0  0  0  0  0  0  0  0  0  0  0
   83.8880  153.4851   13.9116 C   0  0  0  0  0  0  0  0  0  0  0  0
   83.4756  154.7535   14.3014 O   0  0  0  0  0  0  0  0  0  0  0  0
   84.1485  155.9054   14.0040 C   0  0  0  0  0  0  0  0  0  0  0  0
   84.9804  155.9468   12.9134 C   0  0  0  0  0  0  0  0  0  0  0  0
   83.9828  157.0308   14.8136 C   0  0  0  0  0  0  0  0  0  0  0  0
   85.6300  157.1311   12.6638 C   0  0  0  0  0  0  0  0  0  0  0  0
   84.6443  158.2049   14.5429 C   0  0  0  0  0  0  0  0  0  0  0  0
   85.4795  158.2547   13.4522 C   0  0  0  0  0  0  0  0  0  0  0  0
   87.8816  149.6698   11.1629 C   0  0  0  0  0  0  0  0  0  0  0  0
   87.6646  149.0284    9.9479 C   0  0  0  0  0  0  0  0  0  0  0  0
   88.1520  151.0202   11.1241 C   0  0  0  0  0  0  0  0  0  0  0  0
   87.7126  149.6946    8.7426 C   0  0  0  0  0  0  0  0  0  0  0  0
   88.2103  151.7293    9.9396 C   0  0  0  0  0  0  0  0  0  0  0  0
   87.9879  151.0448    8.7719 C   0  0  0  0  0  0  0  0  0  0  0  0
   87.4921  149.0594    7.4560 C   0  0  0  0  0  0  0  0  0  0  0  0
   87.9225  147.8875    7.2828 O   0  0  0  0  0  0  0  0  0  0  0  0
   86.8171  149.6777    6.3706 N   0  0  0  0  0  0  0  0  0  0  0  0
   86.4623  150.5921    6.4559 H   0  0  0  0  0  0  0  0  0  0  0  0
   86.6609  148.9393    5.1385 C   0  0  0  0  0  0  0  0  0  0  0  0
   85.2493  148.8990    4.6972 C   0  0  0  0  0  0  0  0  0  0  0  0
   87.4671  149.6146    4.0433 C   0  0  0  0  0  0  0  0  0  0  0  0
   84.5728  147.8600    4.8761 O   0  0  0  0  0  0  0  0  0  0  0  0
   84.7057  150.0529    4.0793 N   0  0  0  0  0  0  0  0  0  0  0  0
   87.0173  151.0432    3.8194 C   0  0  0  0  0  0  0  0  0  0  0  0
   85.5454  151.1423    3.6776 C   0  0  0  0  0  0  0  0  0  0  0  0
   85.0295  152.1758    3.2074 O   0  0  0  0  0  0  0  0  0  0  0  0
   83.7350  150.1069    3.9236 H   0  0  0  0  0  0  0  0  0  0  0  0
  2  3  2  0
  2  4  2  0
  2  5  1  0
  2  6  1  0
  5  7  1  0
  5  1  1  0
  6  8  1  0
  7  9  1  0
  1 21  1  0
  8 10  1  0
  9 10  1  0
 21 22  2  0
 21 23  1  0
 10 11  1  0
 22 24  1  0
 23 25  2  0
 11 12  2  0
 11 13  1  0
 24 27  1  0
 24 26  2  0
 25 26  1  0
 13 14  1  0
 27 28  2  0
 27 29  1  0
 14 15  1  0
 29 30  1  0
 15 16  2  0
 15 17  1  0
 31 29  1  0
 31 32  1  0
 31 33  1  0
 16 18  1  0
 17 19  2  0
 32 34  2  0
 32 35  1  0
 33 36  1  0
 18 20  2  0
 19 20  1  0
 35 37  1  0
 35 39  1  0
 36 37  1  0
 37 38  2  0
M  END
> <Molecule Name>
Compound 10

> <EC50 (µM) (Excel)>
14.3

> <Error (µM)>
1.3

> <HTRC CRBN-DDB1 EC50 (µM)>
14.29 ±  1.32

> <EC50 fitting (µM)>
23.96

> <Modèle Fitting>
3PL

> <Parent_Compound>
Compound 10

> <MMFF94s_energy_kcalmol>
145.091
> <Compound_Name>
Compound_10_ent2

> <Pose_Rank>
3

> <Docking_Affinity_kcal_mol>
-9.59

> <CNN_Affinity>
4.994

> <CNN_Pose_Score>
0.2213
$$$$

> <minimizedAffinity>
-7.71592

> <CNNscore>
0.2312507331

> <CNNaffinity>
4.8493900299

> <CNN_VS>
1.1214250326

> <CNNaffinity_variance>
1.4818143845

> <Compound_Name>
Compound_10_ent2

> <Pose_Rank>
4

> <Docking_Affinity_kcal_mol>
-8.91

> <CNN_Affinity>
4.554

> <CNN_Pose_Score>
0.2211
$$$$
Compound_10_ent2


 39 42  0  0  0  0  0  0  0  0999 V2000
   87.2831  150.0163   11.0029 C   0  0  0  0  0  0  0  0  0  0  0  0
   87.6730  149.8593   13.5753 S   0  0  0  0  0  0  0  0  0  0  0  0
   87.8842  148.3510   13.6407 O   0  0  0  0  0  0  0  0  0  0  0  0
   89.0429  150.4516   13.3815 O   0  0  0  0  0  0  0  0  0  0  0  0
   86.7166  150.2231   12.2683 N   0  0  0  0  0  0  0  0  0  0  0  0
   87.0830  150.3843   15.1441 C   0  0  0  0  0  0  0  0  0  0  0  0
   85.3367  150.4112   12.4085 C   0  0  0  0  0  0  0  0  0  0  0  0
   85.5830  150.4679   15.2259 C   0  0  0  0  0  0  0  0  0  0  0  0
   85.0262  151.7658   13.0728 C   0  0  0  0  0  0  0  0  0  0  0  0
   85.1771  151.6734   14.4875 N   0  0  0  0  0  0  0  0  0  0  0  0
   84.9290  152.7977   15.2667 C   0  0  0  0  0  0  0  0  0  0  0  0
   85.0645  152.7292   16.5354 O   0  0  0  0  0  0  0  0  0  0  0  0
   84.5115  154.0967   14.7390 C   0  0  0  0  0  0  0  0  0  0  0  0
   85.1490  155.2091   15.2746 O   0  0  0  0  0  0  0  0  0  0  0  0
   85.1454  156.4484   14.6982 C   0  0  0  0  0  0  0  0  0  0  0  0
   85.3791  156.5748   13.3518 C   0  0  0  0  0  0  0  0  0  0  0  0
   84.9036  157.5758   15.4856 C   0  0  0  0  0  0  0  0  0  0  0  0
   85.3630  157.8446   12.8282 C   0  0  0  0  0  0  0  0  0  0  0  0
   84.8928  158.8364   14.9379 C   0  0  0  0  0  0  0  0  0  0  0  0
   85.1259  158.9717   13.5899 C   0  0  0  0  0  0  0  0  0  0  0  0
   87.8108  151.2070   10.3066 C   0  0  0  0  0  0  0  0  0  0  0  0
   88.1022  151.1861    8.9466 C   0  0  0  0  0  0  0  0  0  0  0  0
   88.0307  152.3881   10.9809 C   0  0  0  0  0  0  0  0  0  0  0  0
   88.5911  152.2883    8.2795 C   0  0  0  0  0  0  0  0  0  0  0  0
   88.5197  153.5181   10.3539 C   0  0  0  0  0  0  0  0  0  0  0  0
   88.7891  153.4393    9.0112 C   0  0  0  0  0  0  0  0  0  0  0  0
   88.9067  152.3040    6.8626 C   0  0  0  0  0  0  0  0  0  0  0  0
   90.0998  152.1012    6.5104 O   0  0  0  0  0  0  0  0  0  0  0  0
   87.9504  152.5351    5.8387 N   0  0  0  0  0  0  0  0  0  0  0  0
   87.0057  152.6986    6.0623 H   0  0  0  0  0  0  0  0  0  0  0  0
   88.3904  152.5256    4.4624 C   0  0  0  0  0  0  0  0  0  0  0  0
   87.3014  152.1350    3.5401 C   0  0  0  0  0  0  0  0  0  0  0  0
   88.8470  153.9200    4.0721 C   0  0  0  0  0  0  0  0  0  0  0  0
   87.2759  150.9758    3.0659 O   0  0  0  0  0  0  0  0  0  0  0  0
   86.3128  153.0994    3.2217 N   0  0  0  0  0  0  0  0  0  0  0  0
   87.7334  154.9349    4.2242 C   0  0  0  0  0  0  0  0  0  0  0  0
   86.4775  154.4757    3.5850 C   0  0  0  0  0  0  0  0  0  0  0  0
   85.5565  155.2858    3.3600 O   0  0  0  0  0  0  0  0  0  0  0  0
   85.4994  152.8191    2.7430 H   0  0  0  0  0  0  0  0  0  0  0  0
  2  3  2  0
  2  4  2  0
  2  5  1  0
  2  6  1  0
  5  7  1  0
  5  1  1  0
  6  8  1  0
  7  9  1  0
  1 21  1  0
  8 10  1  0
  9 10  1  0
 21 22  2  0
 21 23  1  0
 10 11  1  0
 22 24  1  0
 23 25  2  0
 11 12  2  0
 11 13  1  0
 24 27  1  0
 24 26  2  0
 25 26  1  0
 13 14  1  0
 27 28  2  0
 27 29  1  0
 14 15  1  0
 29 30  1  0
 15 16  2  0
 15 17  1  0
 31 29  1  0
 31 32  1  0
 31 33  1  0
 16 18  1  0
 17 19  2  0
 32 34  2  0
 32 35  1  0
 33 36  1  0
 18 20  2  0
 19 20  1  0
 35 37  1  0
 35 39  1  0
 36 37  1  0
 37 38  2  0
M  END
> <Molecule Name>
Compound 10

> <EC50 (µM) (Excel)>
14.3

> <Error (µM)>
1.3

> <HTRC CRBN-DDB1 EC50 (µM)>
14.29 ±  1.32

> <EC50 fitting (µM)>
23.96

> <Modèle Fitting>
3PL

> <Parent_Compound>
Compound 10

> <MMFF94s_energy_kcalmol>
145.091
> <Compound_Name>
Compound_10_ent2

> <Pose_Rank>
5

> <Docking_Affinity_kcal_mol>
-8.01

> <CNN_Affinity>
5.237

> <CNN_Pose_Score>
0.2174
$$$$
Compound_11_ent1


 37 40  0  0  0  0  0  0  0  0999 V2000
   83.4061  150.2662   15.8060 C   0  0  0  0  0  0  0  0  0  0  0  0
   83.4496  149.3419   16.8018 C   0  0  0  0  0  0  0  0  0  0  0  0
   82.9460  151.5323   16.1482 C   0  0  0  0  0  0  0  0  0  0  0  0
   83.0640  149.5978   18.1067 C   0  0  0  0  0  0  0  0  0  0  0  0
   82.5542  151.8307   17.4287 C   0  0  0  0  0  0  0  0  0  0  0  0
   82.6152  150.8550   18.4092 C   0  0  0  0  0  0  0  0  0  0  0  0
   83.1460  148.5288   19.1153 C   0  0  0  0  0  0  0  0  0  0  0  0
   82.3525  147.5291   19.0328 O   0  0  0  0  0  0  0  0  0  0  0  0
   84.0438  148.5043   20.1951 N   0  0  0  0  0  0  0  0  0  0  0  0
   84.6772  149.2509   20.2983 H   0  0  0  0  0  0  0  0  0  0  0  0
   84.0777  147.4261   21.1649 C   0  0  0  0  0  0  0  0  0  0  0  0
   84.5093  147.9736   22.4653 C   0  0  0  0  0  0  0  0  0  0  0  0
   85.0428  146.3786   20.6592 C   0  0  0  0  0  0  0  0  0  0  0  0
   83.6734  148.2815   23.3319 O   0  0  0  0  0  0  0  0  0  0  0  0
   85.8918  148.1395   22.7031 N   0  0  0  0  0  0  0  0  0  0  0  0
   86.4658  146.8010   20.6810 C   0  0  0  0  0  0  0  0  0  0  0  0
   86.7863  147.8937   21.6252 C   0  0  0  0  0  0  0  0  0  0  0  0
   87.8213  148.6060   21.5011 O   0  0  0  0  0  0  0  0  0  0  0  0
   86.2256  148.4166   23.5869 H   0  0  0  0  0  0  0  0  0  0  0  0
   83.7825  149.9761   14.3823 C   0  0  0  0  0  0  0  0  0  0  0  0
   85.7369  151.7136   14.5785 S   0  0  0  0  0  0  0  0  0  0  0  0
   86.9827  151.7684   13.6741 O   0  0  0  0  0  0  0  0  0  0  0  0
   86.1772  150.7293   15.6666 O   0  0  0  0  0  0  0  0  0  0  0  0
   84.4079  151.0939   13.7867 N   0  0  0  0  0  0  0  0  0  0  0  0
   85.5106  153.2403   15.3968 C   0  0  0  0  0  0  0  0  0  0  0  0
   83.6032  151.9764   13.0362 C   0  0  0  0  0  0  0  0  0  0  0  0
   84.7834  154.3174   14.7196 C   0  0  0  0  0  0  0  0  0  0  0  0
   84.3622  153.1067   12.3994 C   0  0  0  0  0  0  0  0  0  0  0  0
   84.5565  154.2387   13.3071 N   0  0  0  0  0  0  0  0  0  0  0  0
   84.5087  155.5119   12.6760 C   0  0  0  0  0  0  0  0  0  0  0  0
   84.3139  155.5742   11.4442 O   0  0  0  0  0  0  0  0  0  0  0  0
   84.6817  156.7379   13.4308 C   0  0  0  0  0  0  0  0  0  0  0  0
   85.3473  157.8013   12.8799 N   0  0  0  0  0  0  0  0  0  0  0  0
   84.1904  156.8629   14.7096 C   0  0  0  0  0  0  0  0  0  0  0  0
   85.5295  158.9453   13.5477 C   0  0  0  0  0  0  0  0  0  0  0  0
   84.3643  158.0240   15.4146 C   0  0  0  0  0  0  0  0  0  0  0  0
   85.0400  159.0914   14.8449 C   0  0  0  0  0  0  0  0  0  0  0  0
 21 22  2  0
 21 23  2  0
 21 24  1  0
 21 25  1  0
 24 26  1  0
 24 20  1  0
 25 27  1  0
 26 28  1  0
 20  1  1  0
 27 29  1  0
 28 29  1  0
  1  2  2  0
  1  3  1  0
 29 30  1  0
  2  4  1  0
  3  5  2  0
 30 31  2  0
 30 32  1  0
  4  7  1  0
  4  6  2  0
  5  6  1  0
 32 33  2  0
 32 34  1  0
  7  8  2  0
  7  9  1  0
 33 35  1  0
 34 36  2  0
  9 10  1  0
 35 37  2  0
 36 37  1  0
 11  9  1  0
 11 12  1  0
 11 13  1  0
 12 14  2  0
 12 15  1  0
 13 16  1  0
 15 17  1  0
 15 19  1  0
 16 17  1  0
 17 18  2  0
M  END
> <Molecule Name>
Compound 11

> <EC50 (µM) (Excel)>
37.7

> <Error (µM)>
0.8

> <HTRC CRBN-DDB1 EC50 (µM)>
37.72 ±  0.78

> <EC50 fitting (µM)>
52.96

> <Modèle Fitting>
3PL

> <Parent_Compound>
Compound 11

> <MMFF94s_energy_kcalmol>
162.965
> <Compound_Name>
Compound_11_ent1

> <Pose_Rank>
1

> <Docking_Affinity_kcal_mol>
-8.24

> <CNN_Affinity>
6.854

> <CNN_Pose_Score>
0.625
$$$$

> <minimizedAffinity>
-8.24388

> <CNNscore>
0.6250433326

> <CNNaffinity>
6.8539581299

> <CNN_VS>
4.2840209007

> <CNNaffinity_variance>
0.0600532182

> <Compound_Name>
Compound_11_ent1

> <Pose_Rank>
2

> <Docking_Affinity_kcal_mol>
-8.44

> <CNN_Affinity>
5.895

> <CNN_Pose_Score>
0.2789
$$$$
Compound_11_ent1


 37 40  0  0  0  0  0  0  0  0999 V2000
   83.4961  149.5117   18.1227 C   0  0  0  0  0  0  0  0  0  0  0  0
   82.1708  149.7361   17.9197 C   0  0  0  0  0  0  0  0  0  0  0  0
   83.8813  149.1682   19.4132 C   0  0  0  0  0  0  0  0  0  0  0  0
   81.2132  149.6426   18.9152 C   0  0  0  0  0  0  0  0  0  0  0  0
   82.9664  149.0632   20.4303 C   0  0  0  0  0  0  0  0  0  0  0  0
   81.6269  149.3028   20.1749 C   0  0  0  0  0  0  0  0  0  0  0  0
   79.8006  149.9068   18.5965 C   0  0  0  0  0  0  0  0  0  0  0  0
   79.5095  150.5455   17.5273 O   0  0  0  0  0  0  0  0  0  0  0  0
   78.7071  149.5097   19.3836 N   0  0  0  0  0  0  0  0  0  0  0  0
   78.8811  149.0118   20.2149 H   0  0  0  0  0  0  0  0  0  0  0  0
   77.3325  149.8020   19.0241 C   0  0  0  0  0  0  0  0  0  0  0  0
   76.8862  150.9845   19.7856 C   0  0  0  0  0  0  0  0  0  0  0  0
   76.4986  148.5856   19.3546 C   0  0  0  0  0  0  0  0  0  0  0  0
   76.9120  152.1158   19.2716 O   0  0  0  0  0  0  0  0  0  0  0  0
   76.4295  150.8023   21.1098 N   0  0  0  0  0  0  0  0  0  0  0  0
   76.3449  148.3300   20.8088 C   0  0  0  0  0  0  0  0  0  0  0  0
   76.5496  149.5061   21.6824 C   0  0  0  0  0  0  0  0  0  0  0  0
   76.8252  149.3912   22.9092 O   0  0  0  0  0  0  0  0  0  0  0  0
   76.0404  151.5489   21.6202 H   0  0  0  0  0  0  0  0  0  0  0  0
   84.5394  149.6561   17.0535 C   0  0  0  0  0  0  0  0  0  0  0  0
   85.1020  150.6731   14.7027 S   0  0  0  0  0  0  0  0  0  0  0  0
   84.4640  150.2498   13.3661 O   0  0  0  0  0  0  0  0  0  0  0  0
   86.2673  149.6861   14.8253 O   0  0  0  0  0  0  0  0  0  0  0  0
   84.0680  150.4602   15.9921 N   0  0  0  0  0  0  0  0  0  0  0  0
   85.8414  152.2487   14.5527 C   0  0  0  0  0  0  0  0  0  0  0  0
   83.1621  151.4959   16.3027 C   0  0  0  0  0  0  0  0  0  0  0  0
   85.0206  153.4481   14.7402 C   0  0  0  0  0  0  0  0  0  0  0  0
   82.6768  152.2651   15.1061 C   0  0  0  0  0  0  0  0  0  0  0  0
   83.5921  153.3388   14.7156 N   0  0  0  0  0  0  0  0  0  0  0  0
   82.9499  154.5056   14.2181 C   0  0  0  0  0  0  0  0  0  0  0  0
   81.7033  154.5326   14.1501 O   0  0  0  0  0  0  0  0  0  0  0  0
   83.7100  155.6631   13.7878 C   0  0  0  0  0  0  0  0  0  0  0  0
   84.0518  155.8152   12.4697 N   0  0  0  0  0  0  0  0  0  0  0  0
   84.1082  156.6277   14.6841 C   0  0  0  0  0  0  0  0  0  0  0  0
   84.7556  156.8669   12.0378 C   0  0  0  0  0  0  0  0  0  0  0  0
   84.8302  157.7140   14.2668 C   0  0  0  0  0  0  0  0  0  0  0  0
   85.1691  157.8547   12.9305 C   0  0  0  0  0  0  0  0  0  0  0  0
 21 22  2  0
 21 23  2  0
 21 24  1  0
 21 25  1  0
 24 26  1  0
 24 20  1  0
 25 27  1  0
 26 28  1  0
 20  1  1  0
 27 29  1  0
 28 29  1  0
  1  2  2  0
  1  3  1  0
 29 30  1  0
  2  4  1  0
  3  5  2  0
 30 31  2  0
 30 32  1  0
  4  7  1  0
  4  6  2  0
  5  6  1  0
 32 33  2  0
 32 34  1  0
  7  8  2  0
  7  9  1  0
 33 35  1  0
 34 36  2  0
  9 10  1  0
 35 37  2  0
 36 37  1  0
 11  9  1  0
 11 12  1  0
 11 13  1  0
 12 14  2  0
 12 15  1  0
 13 16  1  0
 15 17  1  0
 15 19  1  0
 16 17  1  0
 17 18  2  0
M  END
> <Molecule Name>
Compound 11

> <EC50 (µM) (Excel)>
37.7

> <Error (µM)>
0.8

> <HTRC CRBN-DDB1 EC50 (µM)>
37.72 ±  0.78

> <EC50 fitting (µM)>
52.96

> <Modèle Fitting>
3PL

> <Parent_Compound>
Compound 11

> <MMFF94s_energy_kcalmol>
162.965
> <Compound_Name>
Compound_11_ent1

> <Pose_Rank>
3

> <Docking_Affinity_kcal_mol>
-7.82

> <CNN_Affinity>
6.397

> <CNN_Pose_Score>
0.2592
$$$$

> <minimizedAffinity>
-8.44153

> <CNNscore>
0.2789391577

> <CNNaffinity>
5.8954405785

> <CNN_VS>
1.6444692612

> <CNNaffinity_variance>
0.6080105901

> <Compound_Name>
Compound_11_ent1

> <Pose_Rank>
4

> <Docking_Affinity_kcal_mol>
-8.1

> <CNN_Affinity>
5.501

> <CNN_Pose_Score>
0.2574
$$$$
Compound_11_ent1


 37 40  0  0  0  0  0  0  0  0999 V2000
   83.3038  149.8406   16.9981 C   0  0  0  0  0  0  0  0  0  0  0  0
   81.9888  149.4992   16.9526 C   0  0  0  0  0  0  0  0  0  0  0  0
   83.7993  150.2568   18.2281 C   0  0  0  0  0  0  0  0  0  0  0  0
   81.1427  149.5487   18.0473 C   0  0  0  0  0  0  0  0  0  0  0  0
   82.9973  150.3204   19.3395 C   0  0  0  0  0  0  0  0  0  0  0  0
   81.6630  149.9637   19.2433 C   0  0  0  0  0  0  0  0  0  0  0  0
   79.7309  149.1601   17.8970 C   0  0  0  0  0  0  0  0  0  0  0  0
   79.1036  148.6808   18.9033 O   0  0  0  0  0  0  0  0  0  0  0  0
   78.9846  149.2702   16.7122 N   0  0  0  0  0  0  0  0  0  0  0  0
   79.4236  149.6373   15.9112 H   0  0  0  0  0  0  0  0  0  0  0  0
   77.5945  148.8661   16.6184 C   0  0  0  0  0  0  0  0  0  0  0  0
   77.5411  147.4477   16.2154 C   0  0  0  0  0  0  0  0  0  0  0  0
   76.9214  149.7555   15.5985 C   0  0  0  0  0  0  0  0  0  0  0  0
   77.3986  146.5524   17.0655 O   0  0  0  0  0  0  0  0  0  0  0  0
   77.6550  147.1304   14.8436 N   0  0  0  0  0  0  0  0  0  0  0  0
   77.3620  149.5201   14.2006 C   0  0  0  0  0  0  0  0  0  0  0  0
   77.9482  148.1874   13.9385 C   0  0  0  0  0  0  0  0  0  0  0  0
   78.6937  147.9659   12.9440 O   0  0  0  0  0  0  0  0  0  0  0  0
   77.5352  146.2069   14.5242 H   0  0  0  0  0  0  0  0  0  0  0  0
   84.2100  149.8290   15.8016 C   0  0  0  0  0  0  0  0  0  0  0  0
   85.0638  151.3270   13.8258 S   0  0  0  0  0  0  0  0  0  0  0  0
   84.5823  151.2451   12.3649 O   0  0  0  0  0  0  0  0  0  0  0  0
   86.1904  150.2891   13.8477 O   0  0  0  0  0  0  0  0  0  0  0  0
   83.8807  150.8720   14.9076 N   0  0  0  0  0  0  0  0  0  0  0  0
   85.8408  152.8626   14.1259 C   0  0  0  0  0  0  0  0  0  0  0  0
   82.9610  151.8481   15.3447 C   0  0  0  0  0  0  0  0  0  0  0  0
   85.0227  154.0224   14.4911 C   0  0  0  0  0  0  0  0  0  0  0  0
   82.6336  152.8884   14.3105 C   0  0  0  0  0  0  0  0  0  0  0  0
   83.6057  153.9825   14.2824 N   0  0  0  0  0  0  0  0  0  0  0  0
   83.0458  155.2581   13.9978 C   0  0  0  0  0  0  0  0  0  0  0  0
   81.8167  155.3530   13.7988 O   0  0  0  0  0  0  0  0  0  0  0  0
   83.8700  156.4493   13.9331 C   0  0  0  0  0  0  0  0  0  0  0  0
   84.5096  156.7855   12.7690 N   0  0  0  0  0  0  0  0  0  0  0  0
   84.0335  157.2634   15.0299 C   0  0  0  0  0  0  0  0  0  0  0  0
   85.2809  157.8736   12.6738 C   0  0  0  0  0  0  0  0  0  0  0  0
   84.8185  158.3832   14.9582 C   0  0  0  0  0  0  0  0  0  0  0  0
   85.4598  158.7108   13.7742 C   0  0  0  0  0  0  0  0  0  0  0  0
 21 22  2  0
 21 23  2  0
 21 24  1  0
 21 25  1  0
 24 26  1  0
 24 20  1  0
 25 27  1  0
 26 28  1  0
 20  1  1  0
 27 29  1  0
 28 29  1  0
  1  2  2  0
  1  3  1  0
 29 30  1  0
  2  4  1  0
  3  5  2  0
 30 31  2  0
 30 32  1  0
  4  7  1  0
  4  6  2  0
  5  6  1  0
 32 33  2  0
 32 34  1  0
  7  8  2  0
  7  9  1  0
 33 35  1  0
 34 36  2  0
  9 10  1  0
 35 37  2  0
 36 37  1  0
 11  9  1  0
 11 12  1  0
 11 13  1  0
 12 14  2  0
 12 15  1  0
 13 16  1  0
 15 17  1  0
 15 19  1  0
 16 17  1  0
 17 18  2  0
M  END
> <Molecule Name>
Compound 11

> <EC50 (µM) (Excel)>
37.7

> <Error (µM)>
0.8

> <HTRC CRBN-DDB1 EC50 (µM)>
37.72 ±  0.78

> <EC50 fitting (µM)>
52.96

> <Modèle Fitting>
3PL

> <Parent_Compound>
Compound 11

> <MMFF94s_energy_kcalmol>
162.965
> <Compound_Name>
Compound_11_ent1

> <Pose_Rank>
5

> <Docking_Affinity_kcal_mol>
-6.91

> <CNN_Affinity>
5.667

> <CNN_Pose_Score>
0.253
$$$$
Compound_11_ent2


 37 40  0  0  0  0  0  0  0  0999 V2000
   83.2334  150.3564   17.5875 C   0  0  0  0  0  0  0  0  0  0  0  0
   83.1153  149.3587   18.5416 C   0  0  0  0  0  0  0  0  0  0  0  0
   82.0503  151.0143   17.2655 C   0  0  0  0  0  0  0  0  0  0  0  0
   81.9448  149.0099   19.1490 C   0  0  0  0  0  0  0  0  0  0  0  0
   80.8644  150.6792   17.8644 C   0  0  0  0  0  0  0  0  0  0  0  0
   80.7984  149.6629   18.8224 C   0  0  0  0  0  0  0  0  0  0  0  0
   81.9152  147.9436   20.1401 C   0  0  0  0  0  0  0  0  0  0  0  0
   82.9209  147.1554   20.2725 O   0  0  0  0  0  0  0  0  0  0  0  0
   80.8334  147.6825   21.0113 N   0  0  0  0  0  0  0  0  0  0  0  0
   80.0393  148.2612   20.9501 H   0  0  0  0  0  0  0  0  0  0  0  0
   80.8241  146.6063   21.9957 C   0  0  0  0  0  0  0  0  0  0  0  0
   80.9774  147.2112   23.3253 C   0  0  0  0  0  0  0  0  0  0  0  0
   79.5173  145.8775   21.8272 C   0  0  0  0  0  0  0  0  0  0  0  0
   82.0326  147.0653   23.9782 O   0  0  0  0  0  0  0  0  0  0  0  0
   79.8820  147.9686   23.8431 N   0  0  0  0  0  0  0  0  0  0  0  0
   78.3666  146.4849   22.5488 C   0  0  0  0  0  0  0  0  0  0  0  0
   78.6309  147.7838   23.1855 C   0  0  0  0  0  0  0  0  0  0  0  0
   77.8076  148.7426   23.1793 O   0  0  0  0  0  0  0  0  0  0  0  0
   79.9851  148.5808   24.6072 H   0  0  0  0  0  0  0  0  0  0  0  0
   84.5287  150.6807   16.9696 C   0  0  0  0  0  0  0  0  0  0  0  0
   85.6633  151.1923   14.6446 S   0  0  0  0  0  0  0  0  0  0  0  0
   85.6152  149.9319   13.8123 O   0  0  0  0  0  0  0  0  0  0  0  0
   86.9694  151.0367   15.4451 O   0  0  0  0  0  0  0  0  0  0  0  0
   84.4269  151.3656   15.7307 N   0  0  0  0  0  0  0  0  0  0  0  0
   85.9010  152.5826   13.6102 C   0  0  0  0  0  0  0  0  0  0  0  0
   83.1964  151.9427   15.4361 C   0  0  0  0  0  0  0  0  0  0  0  0
   85.3345  153.8784   14.1749 C   0  0  0  0  0  0  0  0  0  0  0  0
   83.0182  152.6717   14.1576 C   0  0  0  0  0  0  0  0  0  0  0  0
   83.8785  153.8482   14.1045 N   0  0  0  0  0  0  0  0  0  0  0  0
   83.2762  155.1099   13.9646 C   0  0  0  0  0  0  0  0  0  0  0  0
   82.0141  155.1896   13.8986 O   0  0  0  0  0  0  0  0  0  0  0  0
   83.9937  156.3762   13.8849 C   0  0  0  0  0  0  0  0  0  0  0  0
   84.4939  156.8164   12.6947 N   0  0  0  0  0  0  0  0  0  0  0  0
   84.1714  157.1376   15.0150 C   0  0  0  0  0  0  0  0  0  0  0  0
   85.1510  157.9691   12.6041 C   0  0  0  0  0  0  0  0  0  0  0  0
   84.8465  158.3392   14.9659 C   0  0  0  0  0  0  0  0  0  0  0  0
   85.3366  158.7492   13.7453 C   0  0  0  0  0  0  0  0  0  0  0  0
 21 22  2  0
 21 23  2  0
 21 24  1  0
 21 25  1  0
 24 26  1  0
 24 20  1  0
 25 27  1  0
 26 28  1  0
 20  1  1  0
 27 29  1  0
 28 29  1  0
  1  2  2  0
  1  3  1  0
 29 30  1  0
  2  4  1  0
  3  5  2  0
 30 31  2  0
 30 32  1  0
  4  7  1  0
  4  6  2  0
  5  6  1  0
 32 33  2  0
 32 34  1  0
  7  8  2  0
  7  9  1  0
 33 35  1  0
 34 36  2  0
  9 10  1  0
 35 37  2  0
 36 37  1  0
 11  9  1  0
 11 12  1  0
 11 13  1  0
 12 14  2  0
 12 15  1  0
 13 16  1  0
 15 17  1  0
 15 19  1  0
 16 17  1  0
 17 18  2  0
M  END
> <Molecule Name>
Compound 11

> <EC50 (µM) (Excel)>
37.7

> <Error (µM)>
0.8

> <HTRC CRBN-DDB1 EC50 (µM)>
37.72 ±  0.78

> <EC50 fitting (µM)>
52.96

> <Modèle Fitting>
3PL

> <Parent_Compound>
Compound 11

> <MMFF94s_energy_kcalmol>
152.433
> <Compound_Name>
Compound_11_ent2

> <Pose_Rank>
1

> <Docking_Affinity_kcal_mol>
-8.59

> <CNN_Affinity>
6.489

> <CNN_Pose_Score>
0.4683
$$$$

> <minimizedAffinity>
-8.58510

> <CNNscore>
0.4683251083

> <CNNaffinity>
6.4888744354

> <CNN_VS>
3.0389027596

> <CNNaffinity_variance>
0.1222625375

> <Compound_Name>
Compound_11_ent2

> <Pose_Rank>
2

> <Docking_Affinity_kcal_mol>
-8.73

> <CNN_Affinity>
6.329

> <CNN_Pose_Score>
0.3567
$$$$
Compound_11_ent2


 37 40  0  0  0  0  0  0  0  0999 V2000
   84.5879  150.5787   16.6773 C   0  0  0  0  0  0  0  0  0  0  0  0
   84.3265  149.5451   17.5621 C   0  0  0  0  0  0  0  0  0  0  0  0
   84.0593  151.8153   17.0346 C   0  0  0  0  0  0  0  0  0  0  0  0
   83.6068  149.6811   18.7129 C   0  0  0  0  0  0  0  0  0  0  0  0
   83.3339  151.9729   18.1863 C   0  0  0  0  0  0  0  0  0  0  0  0
   83.0975  150.8962   19.0465 C   0  0  0  0  0  0  0  0  0  0  0  0
   83.3790  148.5354   19.5822 C   0  0  0  0  0  0  0  0  0  0  0  0
   82.1903  148.0792   19.7530 O   0  0  0  0  0  0  0  0  0  0  0  0
   84.3903  147.8455   20.2884 N   0  0  0  0  0  0  0  0  0  0  0  0
   85.3192  148.1560   20.1884 H   0  0  0  0  0  0  0  0  0  0  0  0
   84.1389  146.7008   21.1566 C   0  0  0  0  0  0  0  0  0  0  0  0
   85.2332  145.7404   20.9632 C   0  0  0  0  0  0  0  0  0  0  0  0
   84.0640  147.2332   22.5631 C   0  0  0  0  0  0  0  0  0  0  0  0
   85.0360  144.6524   20.3814 O   0  0  0  0  0  0  0  0  0  0  0  0
   86.5250  146.0929   21.4618 N   0  0  0  0  0  0  0  0  0  0  0  0
   85.3794  147.3979   23.2387 C   0  0  0  0  0  0  0  0  0  0  0  0
   86.5604  147.1723   22.3922 C   0  0  0  0  0  0  0  0  0  0  0  0
   87.6026  147.8850   22.4469 O   0  0  0  0  0  0  0  0  0  0  0  0
   87.3408  145.6192   21.1800 H   0  0  0  0  0  0  0  0  0  0  0  0
   85.3709  150.3621   15.4507 C   0  0  0  0  0  0  0  0  0  0  0  0
   86.2411  151.4913   13.2320 S   0  0  0  0  0  0  0  0  0  0  0  0
   86.2120  150.4527   12.1349 O   0  0  0  0  0  0  0  0  0  0  0  0
   87.6242  151.2851   13.8764 O   0  0  0  0  0  0  0  0  0  0  0  0
   85.1019  151.2958   14.4163 N   0  0  0  0  0  0  0  0  0  0  0  0
   86.2741  153.0954   12.5353 C   0  0  0  0  0  0  0  0  0  0  0  0
   83.8087  151.8038   14.3552 C   0  0  0  0  0  0  0  0  0  0  0  0
   85.6653  154.1699   13.4263 C   0  0  0  0  0  0  0  0  0  0  0  0
   83.4567  152.7819   13.2981 C   0  0  0  0  0  0  0  0  0  0  0  0
   84.2157  154.0169   13.4576 N   0  0  0  0  0  0  0  0  0  0  0  0
   83.5083  155.2139   13.6600 C   0  0  0  0  0  0  0  0  0  0  0  0
   82.2431  155.1851   13.7070 O   0  0  0  0  0  0  0  0  0  0  0  0
   84.1163  156.5284   13.8250 C   0  0  0  0  0  0  0  0  0  0  0  0
   84.6083  157.2053   12.7479 N   0  0  0  0  0  0  0  0  0  0  0  0
   84.1978  157.0958   15.0739 C   0  0  0  0  0  0  0  0  0  0  0  0
   85.1662  158.4053   12.8806 C   0  0  0  0  0  0  0  0  0  0  0  0
   84.7684  158.3381   15.2564 C   0  0  0  0  0  0  0  0  0  0  0  0
   85.2537  158.9898   14.1439 C   0  0  0  0  0  0  0  0  0  0  0  0
 21 22  2  0
 21 23  2  0
 21 24  1  0
 21 25  1  0
 24 26  1  0
 24 20  1  0
 25 27  1  0
 26 28  1  0
 20  1  1  0
 27 29  1  0
 28 29  1  0
  1  2  2  0
  1  3  1  0
 29 30  1  0
  2  4  1  0
  3  5  2  0
 30 31  2  0
 30 32  1  0
  4  7  1  0
  4  6  2  0
  5  6  1  0
 32 33  2  0
 32 34  1  0
  7  8  2  0
  7  9  1  0
 33 35  1  0
 34 36  2  0
  9 10  1  0
 35 37  2  0
 36 37  1  0
 11  9  1  0
 11 12  1  0
 11 13  1  0
 12 14  2  0
 12 15  1  0
 13 16  1  0
 15 17  1  0
 15 19  1  0
 16 17  1  0
 17 18  2  0
M  END
> <Molecule Name>
Compound 11

> <EC50 (µM) (Excel)>
37.7

> <Error (µM)>
0.8

> <HTRC CRBN-DDB1 EC50 (µM)>
37.72 ±  0.78

> <EC50 fitting (µM)>
52.96

> <Modèle Fitting>
3PL

> <Parent_Compound>
Compound 11

> <MMFF94s_energy_kcalmol>
152.433
> <Compound_Name>
Compound_11_ent2

> <Pose_Rank>
3

> <Docking_Affinity_kcal_mol>
-8.84

> <CNN_Affinity>
6.19

> <CNN_Pose_Score>
0.3137
$$$$

> <minimizedAffinity>
-8.72837

> <CNNscore>
0.3567050695

> <CNNaffinity>
6.3293309212

> <CNN_VS>
2.2577044964

> <CNNaffinity_variance>
0.0126440069

> <Compound_Name>
Compound_11_ent2

> <Pose_Rank>
4

> <Docking_Affinity_kcal_mol>
-5.06

> <CNN_Affinity>
6.607

> <CNN_Pose_Score>
0.262
$$$$
Compound_11_ent2


 37 40  0  0  0  0  0  0  0  0999 V2000
   84.5810  150.5269   16.6671 C   0  0  0  0  0  0  0  0  0  0  0  0
   84.2686  149.4379   17.4646 C   0  0  0  0  0  0  0  0  0  0  0  0
   84.0569  151.7442   17.0911 C   0  0  0  0  0  0  0  0  0  0  0  0
   83.5051  149.5046   18.5931 C   0  0  0  0  0  0  0  0  0  0  0  0
   83.2880  151.8325   18.2218 C   0  0  0  0  0  0  0  0  0  0  0  0
   83.0010  150.7018   18.9927 C   0  0  0  0  0  0  0  0  0  0  0  0
   83.2251  148.3043   19.3684 C   0  0  0  0  0  0  0  0  0  0  0  0
   83.6906  147.1678   18.9920 O   0  0  0  0  0  0  0  0  0  0  0  0
   82.4536  148.2709   20.5520 N   0  0  0  0  0  0  0  0  0  0  0  0
   82.0762  149.1178   20.8831 H   0  0  0  0  0  0  0  0  0  0  0  0
   82.1833  147.0557   21.3120 C   0  0  0  0  0  0  0  0  0  0  0  0
   81.5402  147.4472   22.5732 C   0  0  0  0  0  0  0  0  0  0  0  0
   81.3055  146.1909   20.4468 C   0  0  0  0  0  0  0  0  0  0  0  0
   82.1458  147.3429   23.6610 O   0  0  0  0  0  0  0  0  0  0  0  0
   80.2038  147.9491   22.5119 N   0  0  0  0  0  0  0  0  0  0  0  0
   79.8529  146.5048   20.5209 C   0  0  0  0  0  0  0  0  0  0  0  0
   79.5016  147.7042   21.2958 C   0  0  0  0  0  0  0  0  0  0  0  0
   78.6112  148.5272   20.9395 O   0  0  0  0  0  0  0  0  0  0  0  0
   79.7931  148.4344   23.2636 H   0  0  0  0  0  0  0  0  0  0  0  0
   85.4096  150.3840   15.4598 C   0  0  0  0  0  0  0  0  0  0  0  0
   86.2064  151.5094   13.2118 S   0  0  0  0  0  0  0  0  0  0  0  0
   86.1441  150.4681   12.1186 O   0  0  0  0  0  0  0  0  0  0  0  0
   87.6098  151.3071   13.8122 O   0  0  0  0  0  0  0  0  0  0  0  0
   85.1059  151.3148   14.4324 N   0  0  0  0  0  0  0  0  0  0  0  0
   86.2143  153.1119   12.5107 C   0  0  0  0  0  0  0  0  0  0  0  0
   83.8106  151.8204   14.4115 C   0  0  0  0  0  0  0  0  0  0  0  0
   85.6324  154.1875   13.4182 C   0  0  0  0  0  0  0  0  0  0  0  0
   83.4232  152.7954   13.3639 C   0  0  0  0  0  0  0  0  0  0  0  0
   84.1848  154.0321   13.4962 N   0  0  0  0  0  0  0  0  0  0  0  0
   83.4822  155.2284   13.7183 C   0  0  0  0  0  0  0  0  0  0  0  0
   82.2192  155.1975   13.8058 O   0  0  0  0  0  0  0  0  0  0  0  0
   84.0928  156.5443   13.8607 C   0  0  0  0  0  0  0  0  0  0  0  0
   84.6209  157.1848   12.7785 N   0  0  0  0  0  0  0  0  0  0  0  0
   84.1402  157.1499   15.0933 C   0  0  0  0  0  0  0  0  0  0  0  0
   85.1817  158.3855   12.8906 C   0  0  0  0  0  0  0  0  0  0  0  0
   84.7125  158.3944   15.2543 C   0  0  0  0  0  0  0  0  0  0  0  0
   85.2348  159.0087   14.1372 C   0  0  0  0  0  0  0  0  0  0  0  0
 21 22  2  0
 21 23  2  0
 21 24  1  0
 21 25  1  0
 24 26  1  0
 24 20  1  0
 25 27  1  0
 26 28  1  0
 20  1  1  0
 27 29  1  0
 28 29  1  0
  1  2  2  0
  1  3  1  0
 29 30  1  0
  2  4  1  0
  3  5  2  0
 30 31  2  0
 30 32  1  0
  4  7  1  0
  4  6  2  0
  5  6  1  0
 32 33  2  0
 32 34  1  0
  7  8  2  0
  7  9  1  0
 33 35  1  0
 34 36  2  0
  9 10  1  0
 35 37  2  0
 36 37  1  0
 11  9  1  0
 11 12  1  0
 11 13  1  0
 12 14  2  0
 12 15  1  0
 13 16  1  0
 15 17  1  0
 15 19  1  0
 16 17  1  0
 17 18  2  0
M  END
> <Molecule Name>
Compound 11

> <EC50 (µM) (Excel)>
37.7

> <Error (µM)>
0.8

> <HTRC CRBN-DDB1 EC50 (µM)>
37.72 ±  0.78

> <EC50 fitting (µM)>
52.96

> <Modèle Fitting>
3PL

> <Parent_Compound>
Compound 11

> <MMFF94s_energy_kcalmol>
152.433
> <Compound_Name>
Compound_11_ent2

> <Pose_Rank>
5

> <Docking_Affinity_kcal_mol>
-8.14

> <CNN_Affinity>
6.472

> <CNN_Pose_Score>
0.2614
$$$$
Compound_12_ent1


 40 43  0  0  0  0  0  0  0  0999 V2000
   86.8853  147.9759   14.5941 S   0  0  0  0  0  0  0  0  0  0  0  0
   87.5753  146.7823   15.1831 O   0  0  0  0  0  0  0  0  0  0  0  0
   85.3931  147.6762   14.6421 O   0  0  0  0  0  0  0  0  0  0  0  0
   87.2615  149.4335   15.3962 N   0  0  0  0  0  0  0  0  0  0  0  0
   87.3099  148.0204   12.8632 C   0  0  0  0  0  0  0  0  0  0  0  0
   87.8124  150.4475   14.5235 C   0  0  0  0  0  0  0  0  0  0  0  0
   86.3511  148.9036   12.0895 C   0  0  0  0  0  0  0  0  0  0  0  0
   86.7007  150.9523   13.5920 C   0  0  0  0  0  0  0  0  0  0  0  0
   86.7516  150.2816   12.3207 N   0  0  0  0  0  0  0  0  0  0  0  0
   87.2292  151.0246   11.2152 C   0  0  0  0  0  0  0  0  0  0  0  0
   87.3015  150.4961   10.0586 O   0  0  0  0  0  0  0  0  0  0  0  0
   86.2437  149.9228   16.2651 C   0  0  0  0  0  0  0  0  0  0  0  0
   85.1898  150.7215   15.6382 C   0  0  0  0  0  0  0  0  0  0  0  0
   85.3483  152.1007   15.4423 C   0  0  0  0  0  0  0  0  0  0  0  0
   84.0350  150.0842   15.2454 C   0  0  0  0  0  0  0  0  0  0  0  0
   84.3690  152.8598   14.8580 C   0  0  0  0  0  0  0  0  0  0  0  0
   83.0482  150.8451   14.6574 C   0  0  0  0  0  0  0  0  0  0  0  0
   83.2001  152.2016   14.4630 C   0  0  0  0  0  0  0  0  0  0  0  0
   84.5136  154.2918   14.6447 C   0  0  0  0  0  0  0  0  0  0  0  0
   85.2902  154.9862   15.3907 O   0  0  0  0  0  0  0  0  0  0  0  0
   83.8436  155.0312   13.6396 N   0  0  0  0  0  0  0  0  0  0  0  0
   83.2324  154.5513   13.0352 H   0  0  0  0  0  0  0  0  0  0  0  0
   84.0132  156.4643   13.4553 C   0  0  0  0  0  0  0  0  0  0  0  0
   85.3234  156.7902   12.8585 C   0  0  0  0  0  0  0  0  0  0  0  0
   83.6691  157.2458   14.6795 C   0  0  0  0  0  0  0  0  0  0  0  0
   85.9654  155.9125   12.2539 O   0  0  0  0  0  0  0  0  0  0  0  0
   85.8272  158.1068   12.9876 N   0  0  0  0  0  0  0  0  0  0  0  0
   84.8103  158.0698   15.2345 C   0  0  0  0  0  0  0  0  0  0  0  0
   85.3537  158.8716   14.1040 C   0  0  0  0  0  0  0  0  0  0  0  0
   85.4132  160.1146   14.0840 O   0  0  0  0  0  0  0  0  0  0  0  0
   86.4711  158.4788   12.3424 H   0  0  0  0  0  0  0  0  0  0  0  0
   87.6575  152.4398   11.3795 C   0  0  0  0  0  0  0  0  0  0  0  0
   88.8298  152.6992   10.4835 C   0  0  0  0  0  0  0  0  0  0  0  0
   88.6667  153.6193    9.4813 O   0  0  0  0  0  0  0  0  0  0  0  0
   88.7729  153.5012    8.1205 C   0  0  0  0  0  0  0  0  0  0  0  0
   89.2212  154.6135    7.4161 C   0  0  0  0  0  0  0  0  0  0  0  0
   88.4796  152.3970    7.3763 C   0  0  0  0  0  0  0  0  0  0  0  0
   89.3723  154.6354    6.0551 C   0  0  0  0  0  0  0  0  0  0  0  0
   88.6093  152.3487    5.9979 C   0  0  0  0  0  0  0  0  0  0  0  0
   89.0569  153.4765    5.3530 C   0  0  0  0  0  0  0  0  0  0  0  0
  1  2  2  0
  1  3  2  0
  1  4  1  0
  1  5  1  0
  4  6  1  0
  4 12  1  0
  5  7  1  0
  6  8  1  0
 12 13  1  0
  7  9  1  0
  8  9  1  0
 13 14  2  0
 13 15  1  0
  9 10  1  0
 14 16  1  0
 15 17  2  0
 10 11  2  0
 10 32  1  0
 16 19  1  0
 16 18  2  0
 17 18  1  0
 32 33  1  0
 19 20  2  0
 19 21  1  0
 33 34  1  0
 21 22  1  0
 34 35  1  0
 23 21  1  0
 23 24  1  0
 23 25  1  0
 35 36  2  0
 35 37  1  0
 24 26  2  0
 24 27  1  0
 25 28  1  0
 36 38  1  0
 37 39  2  0
 27 29  1  0
 27 31  1  0
 28 29  1  0
 38 40  2  0
 39 40  1  0
 29 30  2  0
M  END
> <Molecule Name>
Compound 12

> <EC50 (µM) (Excel)>
61.9

> <Error (µM)>
8.1

> <HTRC CRBN-DDB1 EC50 (µM)>
61.88 ±  8.05

> <EC50 fitting (µM)>
111.51

> <Modèle Fitting>
4PL

> <Parent_Compound>
Compound 12

> <MMFF94s_energy_kcalmol>
156.552
> <Compound_Name>
Compound_12_ent1

> <Pose_Rank>
1

> <Docking_Affinity_kcal_mol>
-8.63

> <CNN_Affinity>
6.869

> <CNN_Pose_Score>
0.6131
$$$$

> <minimizedAffinity>
-8.63180

> <CNNscore>
0.6130837202

> <CNNaffinity>
6.8691105843

> <CNN_VS>
4.2113399506

> <CNNaffinity_variance>
0.0576640181

> <Compound_Name>
Compound_12_ent1

> <Pose_Rank>
2

> <Docking_Affinity_kcal_mol>
-9.42

> <CNN_Affinity>
6.636

> <CNN_Pose_Score>
0.567
$$$$
Compound_12_ent1


 40 43  0  0  0  0  0  0  0  0999 V2000
   82.4607  150.5692   18.1686 S   0  0  0  0  0  0  0  0  0  0  0  0
   82.3352  150.3646   19.6485 O   0  0  0  0  0  0  0  0  0  0  0  0
   83.1219  151.9276   17.9776 O   0  0  0  0  0  0  0  0  0  0  0  0
   83.3342  149.3280   17.3901 N   0  0  0  0  0  0  0  0  0  0  0  0
   80.8072  150.7463   17.5261 C   0  0  0  0  0  0  0  0  0  0  0  0
   82.5946  148.6792   16.3292 C   0  0  0  0  0  0  0  0  0  0  0  0
   80.8230  151.3757   16.1471 C   0  0  0  0  0  0  0  0  0  0  0  0
   82.4520  149.6606   15.1567 C   0  0  0  0  0  0  0  0  0  0  0  0
   81.1812  150.3325   15.2006 N   0  0  0  0  0  0  0  0  0  0  0  0
   80.2099  149.9436   14.2478 C   0  0  0  0  0  0  0  0  0  0  0  0
   79.0622  150.4956   14.2265 O   0  0  0  0  0  0  0  0  0  0  0  0
   84.6694  149.6679   17.0269 C   0  0  0  0  0  0  0  0  0  0  0  0
   84.8338  150.3572   15.7464 C   0  0  0  0  0  0  0  0  0  0  0  0
   84.7598  151.7548   15.6636 C   0  0  0  0  0  0  0  0  0  0  0  0
   85.0621  149.5977   14.6217 C   0  0  0  0  0  0  0  0  0  0  0  0
   84.9105  152.4120   14.4711 C   0  0  0  0  0  0  0  0  0  0  0  0
   85.2141  150.2559   13.4208 C   0  0  0  0  0  0  0  0  0  0  0  0
   85.1420  151.6301   13.3350 C   0  0  0  0  0  0  0  0  0  0  0  0
   84.8383  153.8612   14.3632 C   0  0  0  0  0  0  0  0  0  0  0  0
   85.2832  154.6073   15.3053 O   0  0  0  0  0  0  0  0  0  0  0  0
   84.2952  154.5638   13.2601 N   0  0  0  0  0  0  0  0  0  0  0  0
   83.9369  154.0436   12.5050 H   0  0  0  0  0  0  0  0  0  0  0  0
   84.2400  156.0158   13.1865 C   0  0  0  0  0  0  0  0  0  0  0  0
   85.4808  156.5849   12.6249 C   0  0  0  0  0  0  0  0  0  0  0  0
   83.7856  156.6390   14.4643 C   0  0  0  0  0  0  0  0  0  0  0  0
   86.2477  155.8657   11.9595 O   0  0  0  0  0  0  0  0  0  0  0  0
   85.7755  157.9498   12.8571 N   0  0  0  0  0  0  0  0  0  0  0  0
   84.7884  157.5849   15.0880 C   0  0  0  0  0  0  0  0  0  0  0  0
   85.1952  158.5449   14.0254 C   0  0  0  0  0  0  0  0  0  0  0  0
   85.0616  159.7800   14.1004 O   0  0  0  0  0  0  0  0  0  0  0  0
   86.3506  158.4651   12.2464 H   0  0  0  0  0  0  0  0  0  0  0  0
   80.5079  148.8813   13.2499 C   0  0  0  0  0  0  0  0  0  0  0  0
   79.7791  149.1917   11.9783 C   0  0  0  0  0  0  0  0  0  0  0  0
   79.0148  148.1956   11.4296 O   0  0  0  0  0  0  0  0  0  0  0  0
   77.6606  148.0906   11.2506 C   0  0  0  0  0  0  0  0  0  0  0  0
   77.1513  148.4483   10.0068 C   0  0  0  0  0  0  0  0  0  0  0  0
   76.7499  147.6704   12.1744 C   0  0  0  0  0  0  0  0  0  0  0  0
   75.8196  148.3942    9.6917 C   0  0  0  0  0  0  0  0  0  0  0  0
   75.3897  147.5906   11.9242 C   0  0  0  0  0  0  0  0  0  0  0  0
   74.9413  147.9561   10.6778 C   0  0  0  0  0  0  0  0  0  0  0  0
  1  2  2  0
  1  3  2  0
  1  4  1  0
  1  5  1  0
  4  6  1  0
  4 12  1  0
  5  7  1  0
  6  8  1  0
 12 13  1  0
  7  9  1  0
  8  9  1  0
 13 14  2  0
 13 15  1  0
  9 10  1  0
 14 16  1  0
 15 17  2  0
 10 11  2  0
 10 32  1  0
 16 19  1  0
 16 18  2  0
 17 18  1  0
 32 33  1  0
 19 20  2  0
 19 21  1  0
 33 34  1  0
 21 22  1  0
 34 35  1  0
 23 21  1  0
 23 24  1  0
 23 25  1  0
 35 36  2  0
 35 37  1  0
 24 26  2  0
 24 27  1  0
 25 28  1  0
 36 38  1  0
 37 39  2  0
 27 29  1  0
 27 31  1  0
 28 29  1  0
 38 40  2  0
 39 40  1  0
 29 30  2  0
M  END
> <Molecule Name>
Compound 12

> <EC50 (µM) (Excel)>
61.9

> <Error (µM)>
8.1

> <HTRC CRBN-DDB1 EC50 (µM)>
61.88 ±  8.05

> <EC50 fitting (µM)>
111.51

> <Modèle Fitting>
4PL

> <Parent_Compound>
Compound 12

> <MMFF94s_energy_kcalmol>
156.552
> <Compound_Name>
Compound_12_ent1

> <Pose_Rank>
3

> <Docking_Affinity_kcal_mol>
-7.34

> <CNN_Affinity>
6.747

> <CNN_Pose_Score>
0.4739
$$$$

> <minimizedAffinity>
-9.42320

> <CNNscore>
0.5669851303

> <CNNaffinity>
6.6361060143

> <CNN_VS>
3.7625734806

> <CNNaffinity_variance>
0.4733537734

> <Compound_Name>
Compound_12_ent1

> <Pose_Rank>
4

> <Docking_Affinity_kcal_mol>
-7.42

> <CNN_Affinity>
6.915

> <CNN_Pose_Score>
0.466
$$$$
Compound_12_ent1


 40 43  0  0  0  0  0  0  0  0999 V2000
   88.2923  151.5148   11.5350 S   0  0  0  0  0  0  0  0  0  0  0  0
   88.0598  152.9907   11.6597 O   0  0  0  0  0  0  0  0  0  0  0  0
   89.1403  151.1111   12.7336 O   0  0  0  0  0  0  0  0  0  0  0  0
   86.8478  150.6114   11.4520 N   0  0  0  0  0  0  0  0  0  0  0  0
   89.3324  151.2710   10.1079 C   0  0  0  0  0  0  0  0  0  0  0  0
   86.7504  149.7852   10.2683 C   0  0  0  0  0  0  0  0  0  0  0  0
   89.9771  149.8992   10.1314 C   0  0  0  0  0  0  0  0  0  0  0  0
   87.7607  148.6347   10.3863 C   0  0  0  0  0  0  0  0  0  0  0  0
   88.9767  148.9445    9.6837 N   0  0  0  0  0  0  0  0  0  0  0  0
   89.2111  148.2656    8.4645 C   0  0  0  0  0  0  0  0  0  0  0  0
   90.2672  148.4887    7.7883 O   0  0  0  0  0  0  0  0  0  0  0  0
   86.4942  149.9295   12.6521 C   0  0  0  0  0  0  0  0  0  0  0  0
   85.7293  150.7024   13.6316 C   0  0  0  0  0  0  0  0  0  0  0  0
   85.6651  152.1009   13.5572 C   0  0  0  0  0  0  0  0  0  0  0  0
   85.0734  150.0210   14.6314 C   0  0  0  0  0  0  0  0  0  0  0  0
   84.9539  152.8361   14.4685 C   0  0  0  0  0  0  0  0  0  0  0  0
   84.3572  150.7578   15.5494 C   0  0  0  0  0  0  0  0  0  0  0  0
   84.2916  152.1332   15.4799 C   0  0  0  0  0  0  0  0  0  0  0  0
   84.8736  154.2877   14.4090 C   0  0  0  0  0  0  0  0  0  0  0  0
   85.5219  155.0106   15.2452 O   0  0  0  0  0  0  0  0  0  0  0  0
   84.1079  155.0172   13.4671 N   0  0  0  0  0  0  0  0  0  0  0  0
   83.5873  154.5155   12.7989 H   0  0  0  0  0  0  0  0  0  0  0  0
   84.0517  156.4707   13.4374 C   0  0  0  0  0  0  0  0  0  0  0  0
   85.1861  157.0491   12.6908 C   0  0  0  0  0  0  0  0  0  0  0  0
   83.8203  157.0645   14.7870 C   0  0  0  0  0  0  0  0  0  0  0  0
   85.8267  156.3436   11.8908 O   0  0  0  0  0  0  0  0  0  0  0  0
   85.5251  158.4070   12.9024 N   0  0  0  0  0  0  0  0  0  0  0  0
   84.9195  157.9918   15.2572 C   0  0  0  0  0  0  0  0  0  0  0  0
   85.1512  158.9758   14.1643 C   0  0  0  0  0  0  0  0  0  0  0  0
   85.0408  160.2091   14.2891 O   0  0  0  0  0  0  0  0  0  0  0  0
   85.9946  158.9350   12.2167 H   0  0  0  0  0  0  0  0  0  0  0  0
   88.2290  147.2760    7.9455 C   0  0  0  0  0  0  0  0  0  0  0  0
   87.6370  147.8011    6.6733 C   0  0  0  0  0  0  0  0  0  0  0  0
   87.0801  146.8910    5.8136 O   0  0  0  0  0  0  0  0  0  0  0  0
   85.7721  146.5789    5.5515 C   0  0  0  0  0  0  0  0  0  0  0  0
   85.0689  147.4319    4.7075 C   0  0  0  0  0  0  0  0  0  0  0  0
   85.0793  145.5102    6.0385 C   0  0  0  0  0  0  0  0  0  0  0  0
   83.7572  147.2414    4.3628 C   0  0  0  0  0  0  0  0  0  0  0  0
   83.7525  145.2563    5.7317 C   0  0  0  0  0  0  0  0  0  0  0  0
   83.1064  146.1317    4.8924 C   0  0  0  0  0  0  0  0  0  0  0  0
  1  2  2  0
  1  3  2  0
  1  4  1  0
  1  5  1  0
  4  6  1  0
  4 12  1  0
  5  7  1  0
  6  8  1  0
 12 13  1  0
  7  9  1  0
  8  9  1  0
 13 14  2  0
 13 15  1  0
  9 10  1  0
 14 16  1  0
 15 17  2  0
 10 11  2  0
 10 32  1  0
 16 19  1  0
 16 18  2  0
 17 18  1  0
 32 33  1  0
 19 20  2  0
 19 21  1  0
 33 34  1  0
 21 22  1  0
 34 35  1  0
 23 21  1  0
 23 24  1  0
 23 25  1  0
 35 36  2  0
 35 37  1  0
 24 26  2  0
 24 27  1  0
 25 28  1  0
 36 38  1  0
 37 39  2  0
 27 29  1  0
 27 31  1  0
 28 29  1  0
 38 40  2  0
 39 40  1  0
 29 30  2  0
M  END
> <Molecule Name>
Compound 12

> <EC50 (µM) (Excel)>
61.9

> <Error (µM)>
8.1

> <HTRC CRBN-DDB1 EC50 (µM)>
61.88 ±  8.05

> <EC50 fitting (µM)>
111.51

> <Modèle Fitting>
4PL

> <Parent_Compound>
Compound 12

> <MMFF94s_energy_kcalmol>
156.552
> <Compound_Name>
Compound_12_ent1

> <Pose_Rank>
5

> <Docking_Affinity_kcal_mol>
-8.01

> <CNN_Affinity>
6.447

> <CNN_Pose_Score>
0.4172
$$$$
Compound_12_ent2


 40 43  0  0  0  0  0  0  0  0999 V2000
   83.4478  148.8967   19.1862 S   0  0  0  0  0  0  0  0  0  0  0  0
   82.8524  150.0611   19.9081 O   0  0  0  0  0  0  0  0  0  0  0  0
   82.3372  147.8679   19.0162 O   0  0  0  0  0  0  0  0  0  0  0  0
   84.0947  149.2817   17.6626 N   0  0  0  0  0  0  0  0  0  0  0  0
   84.6429  148.1446   20.2639 C   0  0  0  0  0  0  0  0  0  0  0  0
   85.4697  148.9336   17.4803 C   0  0  0  0  0  0  0  0  0  0  0  0
   84.9898  146.7447   19.8183 C   0  0  0  0  0  0  0  0  0  0  0  0
   85.6920  147.4183   17.4289 C   0  0  0  0  0  0  0  0  0  0  0  0
   85.9267  146.8499   18.7185 N   0  0  0  0  0  0  0  0  0  0  0  0
   87.2077  146.3120   18.9995 C   0  0  0  0  0  0  0  0  0  0  0  0
   87.5024  145.7901   20.0994 O   0  0  0  0  0  0  0  0  0  0  0  0
   83.2729  148.9266   16.5404 C   0  0  0  0  0  0  0  0  0  0  0  0
   83.1897  149.9872   15.4999 C   0  0  0  0  0  0  0  0  0  0  0  0
   83.8571  151.1712   15.6548 C   0  0  0  0  0  0  0  0  0  0  0  0
   82.4266  149.7451   14.3851 C   0  0  0  0  0  0  0  0  0  0  0  0
   83.7563  152.1396   14.6640 C   0  0  0  0  0  0  0  0  0  0  0  0
   82.3471  150.7252   13.4214 C   0  0  0  0  0  0  0  0  0  0  0  0
   82.9982  151.9279   13.5324 C   0  0  0  0  0  0  0  0  0  0  0  0
   84.4818  153.3829   14.8670 C   0  0  0  0  0  0  0  0  0  0  0  0
   85.2304  153.5059   15.8874 O   0  0  0  0  0  0  0  0  0  0  0  0
   84.4314  154.5080   14.0061 N   0  0  0  0  0  0  0  0  0  0  0  0
   83.8688  154.4742   13.1990 H   0  0  0  0  0  0  0  0  0  0  0  0
   85.2040  155.7239   14.2969 C   0  0  0  0  0  0  0  0  0  0  0  0
   85.6988  156.2867   13.0363 C   0  0  0  0  0  0  0  0  0  0  0  0
   84.2068  156.7133   14.8930 C   0  0  0  0  0  0  0  0  0  0  0  0
   86.2693  155.5004   12.2301 O   0  0  0  0  0  0  0  0  0  0  0  0
   85.5360  157.6747   12.7415 N   0  0  0  0  0  0  0  0  0  0  0  0
   84.8299  158.0663   15.1136 C   0  0  0  0  0  0  0  0  0  0  0  0
   85.1891  158.6119   13.7779 C   0  0  0  0  0  0  0  0  0  0  0  0
   85.1901  159.8480   13.5605 O   0  0  0  0  0  0  0  0  0  0  0  0
   85.6625  157.9943   11.8190 H   0  0  0  0  0  0  0  0  0  0  0  0
   88.2450  146.3723   17.9388 C   0  0  0  0  0  0  0  0  0  0  0  0
   89.2768  147.3991   18.3534 C   0  0  0  0  0  0  0  0  0  0  0  0
   88.9813  148.7001   18.0504 O   0  0  0  0  0  0  0  0  0  0  0  0
   89.7834  149.7919   17.8933 C   0  0  0  0  0  0  0  0  0  0  0  0
   90.1797  150.0954   16.5782 C   0  0  0  0  0  0  0  0  0  0  0  0
   90.2319  150.6061   18.8986 C   0  0  0  0  0  0  0  0  0  0  0  0
   90.9862  151.1649   16.2905 C   0  0  0  0  0  0  0  0  0  0  0  0
   91.0501  151.6986   18.6429 C   0  0  0  0  0  0  0  0  0  0  0  0
   91.4064  151.9484   17.3356 C   0  0  0  0  0  0  0  0  0  0  0  0
  1  2  2  0
  1  3  2  0
  1  4  1  0
  1  5  1  0
  4  6  1  0
  4 12  1  0
  5  7  1  0
  6  8  1  0
 12 13  1  0
  7  9  1  0
  8  9  1  0
 13 14  2  0
 13 15  1  0
  9 10  1  0
 14 16  1  0
 15 17  2  0
 10 11  2  0
 10 32  1  0
 16 19  1  0
 16 18  2  0
 17 18  1  0
 32 33  1  0
 19 20  2  0
 19 21  1  0
 33 34  1  0
 21 22  1  0
 34 35  1  0
 23 21  1  0
 23 24  1  0
 23 25  1  0
 35 36  2  0
 35 37  1  0
 24 26  2  0
 24 27  1  0
 25 28  1  0
 36 38  1  0
 37 39  2  0
 27 29  1  0
 27 31  1  0
 28 29  1  0
 38 40  2  0
 39 40  1  0
 29 30  2  0
M  END
> <Molecule Name>
Compound 12

> <EC50 (µM) (Excel)>
61.9

> <Error (µM)>
8.1

> <HTRC CRBN-DDB1 EC50 (µM)>
61.88 ±  8.05

> <EC50 fitting (µM)>
111.51

> <Modèle Fitting>
4PL

> <Parent_Compound>
Compound 12

> <MMFF94s_energy_kcalmol>
147.331
> <Compound_Name>
Compound_12_ent2

> <Pose_Rank>
1

> <Docking_Affinity_kcal_mol>
-7.9

> <CNN_Affinity>
6.903

> <CNN_Pose_Score>
0.536
$$$$

> <minimizedAffinity>
-7.89676

> <CNNscore>
0.5359663963

> <CNNaffinity>
6.9033236504

> <CNN_VS>
3.6999495029

> <CNNaffinity_variance>
0.0768489167

> <Compound_Name>
Compound_12_ent2

> <Pose_Rank>
2

> <Docking_Affinity_kcal_mol>
-8.35

> <CNN_Affinity>
6.595

> <CNN_Pose_Score>
0.5099
$$$$
Compound_12_ent2


 40 43  0  0  0  0  0  0  0  0999 V2000
   79.4375  149.6767   17.0138 S   0  0  0  0  0  0  0  0  0  0  0  0
   78.7561  150.7233   16.1941 O   0  0  0  0  0  0  0  0  0  0  0  0
   79.4856  148.4128   16.1647 O   0  0  0  0  0  0  0  0  0  0  0  0
   81.0140  150.0899   17.4956 N   0  0  0  0  0  0  0  0  0  0  0  0
   78.3822  149.2946   18.3905 C   0  0  0  0  0  0  0  0  0  0  0  0
   81.2485  150.0518   18.9058 C   0  0  0  0  0  0  0  0  0  0  0  0
   78.7607  147.9824   19.0335 C   0  0  0  0  0  0  0  0  0  0  0  0
   81.2204  148.6271   19.4693 C   0  0  0  0  0  0  0  0  0  0  0  0
   79.9135  148.2198   19.8781 N   0  0  0  0  0  0  0  0  0  0  0  0
   79.6697  148.0088   21.2584 C   0  0  0  0  0  0  0  0  0  0  0  0
   78.5576  147.6469   21.7074 O   0  0  0  0  0  0  0  0  0  0  0  0
   82.0672  149.4785   16.7354 C   0  0  0  0  0  0  0  0  0  0  0  0
   82.5036  150.2832   15.5622 C   0  0  0  0  0  0  0  0  0  0  0  0
   83.2106  151.4417   15.7341 C   0  0  0  0  0  0  0  0  0  0  0  0
   82.1771  149.8326   14.3076 C   0  0  0  0  0  0  0  0  0  0  0  0
   83.6011  152.1685   14.6165 C   0  0  0  0  0  0  0  0  0  0  0  0
   82.5787  150.5758   13.2205 C   0  0  0  0  0  0  0  0  0  0  0  0
   83.2891  151.7433   13.3430 C   0  0  0  0  0  0  0  0  0  0  0  0
   84.3515  153.3928   14.8430 C   0  0  0  0  0  0  0  0  0  0  0  0
   85.0773  153.4934   15.8821 O   0  0  0  0  0  0  0  0  0  0  0  0
   84.3501  154.5220   13.9862 N   0  0  0  0  0  0  0  0  0  0  0  0
   83.8069  154.5052   13.1652 H   0  0  0  0  0  0  0  0  0  0  0  0
   85.1447  155.7175   14.3014 C   0  0  0  0  0  0  0  0  0  0  0  0
   85.6761  156.2786   13.0549 C   0  0  0  0  0  0  0  0  0  0  0  0
   84.1593  156.7249   14.8868 C   0  0  0  0  0  0  0  0  0  0  0  0
   86.2435  155.4855   12.2532 O   0  0  0  0  0  0  0  0  0  0  0  0
   85.5508  157.6722   12.7686 N   0  0  0  0  0  0  0  0  0  0  0  0
   84.8090  158.0615   15.1302 C   0  0  0  0  0  0  0  0  0  0  0  0
   85.2059  158.6090   13.8060 C   0  0  0  0  0  0  0  0  0  0  0  0
   85.2394  159.8464   13.5988 O   0  0  0  0  0  0  0  0  0  0  0  0
   85.7020  157.9960   11.8512 H   0  0  0  0  0  0  0  0  0  0  0  0
   80.7861  148.2282   22.2124 C   0  0  0  0  0  0  0  0  0  0  0  0
   81.1125  146.9005   22.8615 C   0  0  0  0  0  0  0  0  0  0  0  0
   82.3362  146.3703   22.5565 O   0  0  0  0  0  0  0  0  0  0  0  0
   83.5715  146.9434   22.4801 C   0  0  0  0  0  0  0  0  0  0  0  0
   83.8909  147.5874   21.2711 C   0  0  0  0  0  0  0  0  0  0  0  0
   84.5167  146.9413   23.4708 C   0  0  0  0  0  0  0  0  0  0  0  0
   85.1005  148.1988   21.0705 C   0  0  0  0  0  0  0  0  0  0  0  0
   85.7526  147.5514   23.3017 C   0  0  0  0  0  0  0  0  0  0  0  0
   86.0107  148.1674   22.0966 C   0  0  0  0  0  0  0  0  0  0  0  0
  1  2  2  0
  1  3  2  0
  1  4  1  0
  1  5  1  0
  4  6  1  0
  4 12  1  0
  5  7  1  0
  6  8  1  0
 12 13  1  0
  7  9  1  0
  8  9  1  0
 13 14  2  0
 13 15  1  0
  9 10  1  0
 14 16  1  0
 15 17  2  0
 10 11  2  0
 10 32  1  0
 16 19  1  0
 16 18  2  0
 17 18  1  0
 32 33  1  0
 19 20  2  0
 19 21  1  0
 33 34  1  0
 21 22  1  0
 34 35  1  0
 23 21  1  0
 23 24  1  0
 23 25  1  0
 35 36  2  0
 35 37  1  0
 24 26  2  0
 24 27  1  0
 25 28  1  0
 36 38  1  0
 37 39  2  0
 27 29  1  0
 27 31  1  0
 28 29  1  0
 38 40  2  0
 39 40  1  0
 29 30  2  0
M  END
> <Molecule Name>
Compound 12

> <EC50 (µM) (Excel)>
61.9

> <Error (µM)>
8.1

> <HTRC CRBN-DDB1 EC50 (µM)>
61.88 ±  8.05

> <EC50 fitting (µM)>
111.51

> <Modèle Fitting>
4PL

> <Parent_Compound>
Compound 12

> <MMFF94s_energy_kcalmol>
147.331
> <Compound_Name>
Compound_12_ent2

> <Pose_Rank>
3

> <Docking_Affinity_kcal_mol>
-7.23

> <CNN_Affinity>
6.627

> <CNN_Pose_Score>
0.5068
$$$$

> <minimizedAffinity>
-8.34754

> <CNNscore>
0.5098628998

> <CNNaffinity>
6.5953860283

> <CNN_VS>
3.3627426624

> <CNNaffinity_variance>
0.0621602684

> <Compound_Name>
Compound_12_ent2

> <Pose_Rank>
4

> <Docking_Affinity_kcal_mol>
-9.23

> <CNN_Affinity>
6.677

> <CNN_Pose_Score>
0.4695
$$$$
Compound_12_ent2


 40 43  0  0  0  0  0  0  0  0999 V2000
   83.0203  149.7415   18.9913 S   0  0  0  0  0  0  0  0  0  0  0  0
   83.0287  151.2262   19.1563 O   0  0  0  0  0  0  0  0  0  0  0  0
   81.5628  149.3213   18.8503 O   0  0  0  0  0  0  0  0  0  0  0  0
   83.8972  149.1879   17.6450 N   0  0  0  0  0  0  0  0  0  0  0  0
   83.5852  149.0239   20.5148 C   0  0  0  0  0  0  0  0  0  0  0  0
   84.9240  148.2364   17.9376 C   0  0  0  0  0  0  0  0  0  0  0  0
   83.2219  147.5618   20.6089 C   0  0  0  0  0  0  0  0  0  0  0  0
   84.3628  146.8862   18.3957 C   0  0  0  0  0  0  0  0  0  0  0  0
   84.1738  146.8171   19.8102 N   0  0  0  0  0  0  0  0  0  0  0  0
   84.9862  145.9302   20.5603 C   0  0  0  0  0  0  0  0  0  0  0  0
   84.8879  145.8001   21.8023 O   0  0  0  0  0  0  0  0  0  0  0  0
   83.1046  148.8245   16.5046 C   0  0  0  0  0  0  0  0  0  0  0  0
   83.1303  149.8338   15.4115 C   0  0  0  0  0  0  0  0  0  0  0  0
   83.7869  151.0228   15.5743 C   0  0  0  0  0  0  0  0  0  0  0  0
   82.4782  149.5397   14.2401 C   0  0  0  0  0  0  0  0  0  0  0  0
   83.7897  151.9426   14.5332 C   0  0  0  0  0  0  0  0  0  0  0  0
   82.4996  150.4723   13.2276 C   0  0  0  0  0  0  0  0  0  0  0  0
   83.1444  151.6778   13.3442 C   0  0  0  0  0  0  0  0  0  0  0  0
   84.4998  153.1929   14.7466 C   0  0  0  0  0  0  0  0  0  0  0  0
   85.2100  153.3335   15.7919 O   0  0  0  0  0  0  0  0  0  0  0  0
   84.4742  154.3068   13.8703 N   0  0  0  0  0  0  0  0  0  0  0  0
   83.9415  154.2593   13.0437 H   0  0  0  0  0  0  0  0  0  0  0  0
   85.2284  155.5312   14.1735 C   0  0  0  0  0  0  0  0  0  0  0  0
   85.6953  156.1265   12.9171 C   0  0  0  0  0  0  0  0  0  0  0  0
   84.2215  156.4906   14.8015 C   0  0  0  0  0  0  0  0  0  0  0  0
   86.2687  155.3660   12.0886 O   0  0  0  0  0  0  0  0  0  0  0  0
   85.5031  157.5165   12.6508 N   0  0  0  0  0  0  0  0  0  0  0  0
   84.8228  157.8507   15.0392 C   0  0  0  0  0  0  0  0  0  0  0  0
   85.1534  158.4276   13.7093 C   0  0  0  0  0  0  0  0  0  0  0  0
   85.1288  159.6674   13.5153 O   0  0  0  0  0  0  0  0  0  0  0  0
   85.6109  157.8555   11.7328 H   0  0  0  0  0  0  0  0  0  0  0  0
   85.9989  145.1204   19.8369 C   0  0  0  0  0  0  0  0  0  0  0  0
   87.3656  145.6821   20.1645 C   0  0  0  0  0  0  0  0  0  0  0  0
   87.8368  146.6438   19.3131 O   0  0  0  0  0  0  0  0  0  0  0  0
   89.0839  147.1731   19.1552 C   0  0  0  0  0  0  0  0  0  0  0  0
   90.1673  146.3238   19.4444 C   0  0  0  0  0  0  0  0  0  0  0  0
   89.3651  148.4490   18.7457 C   0  0  0  0  0  0  0  0  0  0  0  0
   91.4677  146.7386   19.3264 C   0  0  0  0  0  0  0  0  0  0  0  0
   90.6711  148.9024   18.6149 C   0  0  0  0  0  0  0  0  0  0  0  0
   91.6928  148.0269   18.9115 C   0  0  0  0  0  0  0  0  0  0  0  0
  1  2  2  0
  1  3  2  0
  1  4  1  0
  1  5  1  0
  4  6  1  0
  4 12  1  0
  5  7  1  0
  6  8  1  0
 12 13  1  0
  7  9  1  0
  8  9  1  0
 13 14  2  0
 13 15  1  0
  9 10  1  0
 14 16  1  0
 15 17  2  0
 10 11  2  0
 10 32  1  0
 16 19  1  0
 16 18  2  0
 17 18  1  0
 32 33  1  0
 19 20  2  0
 19 21  1  0
 33 34  1  0
 21 22  1  0
 34 35  1  0
 23 21  1  0
 23 24  1  0
 23 25  1  0
 35 36  2  0
 35 37  1  0
 24 26  2  0
 24 27  1  0
 25 28  1  0
 36 38  1  0
 37 39  2  0
 27 29  1  0
 27 31  1  0
 28 29  1  0
 38 40  2  0
 39 40  1  0
 29 30  2  0
M  END
> <Molecule Name>
Compound 12

> <EC50 (µM) (Excel)>
61.9

> <Error (µM)>
8.1

> <HTRC CRBN-DDB1 EC50 (µM)>
61.88 ±  8.05

> <EC50 fitting (µM)>
111.51

> <Modèle Fitting>
4PL

> <Parent_Compound>
Compound 12

> <MMFF94s_energy_kcalmol>
147.331
> <Compound_Name>
Compound_12_ent2

> <Pose_Rank>
5

> <Docking_Affinity_kcal_mol>
-7.8

> <CNN_Affinity>
6.779

> <CNN_Pose_Score>
0.4596
$$$$
Compound_1_ent1


 35 37  0  0  0  0  0  0  0  0999 V2000
   82.8192  150.3899   16.3773 N   0  0  0  0  0  0  0  0  0  0  0  0
   81.8565  149.6036   15.7398 C   0  0  0  0  0  0  0  0  0  0  0  0
   82.4841  151.0697   17.5529 C   0  0  0  0  0  0  0  0  0  0  0  0
   81.1981  148.5527   16.5913 C   0  0  0  0  0  0  0  0  0  0  0  0
   82.1967  150.1921   18.7450 C   0  0  0  0  0  0  0  0  0  0  0  0
   80.3472  149.0552   17.6157 N   0  0  0  0  0  0  0  0  0  0  0  0
   80.7117  149.8102   18.7867 C   0  0  0  0  0  0  0  0  0  0  0  0
   78.9704  148.7880   17.4830 C   0  0  0  0  0  0  0  0  0  0  0  0
   78.4741  148.1406   16.5239 O   0  0  0  0  0  0  0  0  0  0  0  0
   82.6921  151.2066   15.7796 H   0  0  0  0  0  0  0  0  0  0  0  0
   80.8362  150.4466   15.0887 C   0  0  0  0  0  0  0  0  0  0  0  0
   80.0509  150.0115   14.2014 O   0  0  0  0  0  0  0  0  0  0  0  0
   80.6995  151.7777   15.4355 O   0  0  0  0  0  0  0  0  0  0  0  0
   81.3864  152.8333   14.8032 C   0  0  0  0  0  0  0  0  0  0  0  0
   84.1759  150.1761   16.0725 C   0  0  0  0  0  0  0  0  0  0  0  0
   85.2068  152.9003   13.6451 C   0  0  0  0  0  0  0  0  0  0  0  0
   84.8768  152.2143   14.7877 C   0  0  0  0  0  0  0  0  0  0  0  0
   85.1731  152.1616   12.4589 C   0  0  0  0  0  0  0  0  0  0  0  0
   84.5235  150.8591   14.7970 C   0  0  0  0  0  0  0  0  0  0  0  0
   84.8350  150.8285   12.4022 C   0  0  0  0  0  0  0  0  0  0  0  0
   84.5164  150.2088   13.5850 C   0  0  0  0  0  0  0  0  0  0  0  0
   86.8595  154.2067   11.6660 O   0  0  0  0  0  0  0  0  0  0  0  0
   86.1372  154.8495   12.4832 C   0  0  0  0  0  0  0  0  0  0  0  0
   85.5416  154.3026   13.6247 N   0  0  0  0  0  0  0  0  0  0  0  0
   85.9166  156.2534   12.2140 N   0  0  0  0  0  0  0  0  0  0  0  0
   85.1999  155.0563   14.8118 C   0  0  0  0  0  0  0  0  0  0  0  0
   85.1018  156.9142   13.1746 C   0  0  0  0  0  0  0  0  0  0  0  0
   85.1023  156.5415   14.5991 C   0  0  0  0  0  0  0  0  0  0  0  0
   84.3606  157.8448   12.7908 O   0  0  0  0  0  0  0  0  0  0  0  0
   86.2983  156.7130   11.4315 H   0  0  0  0  0  0  0  0  0  0  0  0
   78.0913  149.2502   18.4444 O   0  0  0  0  0  0  0  0  0  0  0  0
   77.4405  148.4343   19.3792 C   0  0  0  0  0  0  0  0  0  0  0  0
   78.1835  147.1268   19.4846 C   0  0  0  0  0  0  0  0  0  0  0  0
   76.0215  148.2155   18.8868 C   0  0  0  0  0  0  0  0  0  0  0  0
   77.3708  149.1326   20.7388 C   0  0  0  0  0  0  0  0  0  0  0  0
 22 23  2  0
 23 24  1  0
 23 25  1  0
 24 16  1  0
 24 26  1  0
 25 27  1  0
 25 30  1  0
 16 17  2  0
 16 18  1  0
 26 28  1  0
 27 29  2  0
 27 28  1  0
 17 19  1  0
 18 20  2  0
 19 21  2  0
 19 15  1  0
 20 21  1  0
 15  1  1  0
  1  2  1  0
  1  3  1  0
  1 10  1  0
  2 11  1  0
  2  4  1  0
  3  5  1  0
 11 12  2  0
 11 13  1  0
  4  6  1  0
  5  7  1  0
 13 14  1  0
  6  8  1  0
  6  7  1  0
  8  9  2  0
  8 31  1  0
 31 32  1  0
 32 33  1  0
 32 34  1  0
 32 35  1  0
M  CHG 1   1   1
M  END
> <Molecule Name>
Compound 1

> <EC50 (µM) (Excel)>
49.5

> <Error (µM)>
6.2

> <HTRC CRBN-DDB1 EC50 (µM)>
49.46 ±  6.19

> <EC50 fitting (µM)>
60.01

> <Modèle Fitting>
3PL

> <Parent_Compound>
Compound 1

> <MMFF94s_energy_kcalmol>
189.703
> <Compound_Name>
Compound_1_ent1

> <Pose_Rank>
1

> <Docking_Affinity_kcal_mol>
-6.6

> <CNN_Affinity>
5.841

> <CNN_Pose_Score>
0.3537
$$$$

> <minimizedAffinity>
-6.59917

> <CNNscore>
0.3536702394

> <CNNaffinity>
5.8414211273

> <CNN_VS>
2.0659368038

> <CNNaffinity_variance>
0.2545880377

> <Compound_Name>
Compound_1_ent1

> <Pose_Rank>
2

> <Docking_Affinity_kcal_mol>
-7.84

> <CNN_Affinity>
5.279

> <CNN_Pose_Score>
0.3502
$$$$
Compound_1_ent1


 35 37  0  0  0  0  0  0  0  0999 V2000
   85.0082  150.2523   14.2033 N   0  0  0  0  0  0  0  0  0  0  0  0
   83.7056  149.7555   14.2926 C   0  0  0  0  0  0  0  0  0  0  0  0
   85.7497  150.4531   15.3721 C   0  0  0  0  0  0  0  0  0  0  0  0
   83.5453  148.4656   15.0499 C   0  0  0  0  0  0  0  0  0  0  0  0
   86.1207  149.1993   16.1231 C   0  0  0  0  0  0  0  0  0  0  0  0
   83.7821  148.5573   16.4504 N   0  0  0  0  0  0  0  0  0  0  0  0
   85.0231  148.8294   17.1287 C   0  0  0  0  0  0  0  0  0  0  0  0
   82.6721  148.3581   17.2947 C   0  0  0  0  0  0  0  0  0  0  0  0
   81.5117  148.1083   16.8750 O   0  0  0  0  0  0  0  0  0  0  0  0
   84.7354  151.2315   14.1184 H   0  0  0  0  0  0  0  0  0  0  0  0
   82.7879  150.7791   14.8269 C   0  0  0  0  0  0  0  0  0  0  0  0
   82.3510  150.7581   16.0110 O   0  0  0  0  0  0  0  0  0  0  0  0
   82.3622  151.8253   14.0301 O   0  0  0  0  0  0  0  0  0  0  0  0
   82.1792  153.1448   14.4898 C   0  0  0  0  0  0  0  0  0  0  0  0
   85.6816  150.1648   12.9712 C   0  0  0  0  0  0  0  0  0  0  0  0
   85.9057  153.9365   12.6562 C   0  0  0  0  0  0  0  0  0  0  0  0
   85.5101  152.6679   13.0012 C   0  0  0  0  0  0  0  0  0  0  0  0
   87.0231  154.0211   11.8207 C   0  0  0  0  0  0  0  0  0  0  0  0
   86.1639  151.5108   12.5594 C   0  0  0  0  0  0  0  0  0  0  0  0
   87.7087  152.9226   11.3537 C   0  0  0  0  0  0  0  0  0  0  0  0
   87.2549  151.6860   11.7403 C   0  0  0  0  0  0  0  0  0  0  0  0
   85.2871  154.6355   15.3919 O   0  0  0  0  0  0  0  0  0  0  0  0
   85.2051  155.4666   14.4404 C   0  0  0  0  0  0  0  0  0  0  0  0
   85.2188  155.1305   13.0826 N   0  0  0  0  0  0  0  0  0  0  0  0
   85.0858  156.8655   14.7879 N   0  0  0  0  0  0  0  0  0  0  0  0
   84.6045  155.9197   12.0367 C   0  0  0  0  0  0  0  0  0  0  0  0
   84.9922  157.7417   13.6713 C   0  0  0  0  0  0  0  0  0  0  0  0
   84.3332  157.3495   12.4143 C   0  0  0  0  0  0  0  0  0  0  0  0
   85.4882  158.8852   13.7656 O   0  0  0  0  0  0  0  0  0  0  0  0
   85.0706  157.1845   15.7192 H   0  0  0  0  0  0  0  0  0  0  0  0
   82.8364  148.4355   18.6650 O   0  0  0  0  0  0  0  0  0  0  0  0
   82.3163  149.4594   19.4678 C   0  0  0  0  0  0  0  0  0  0  0  0
   82.7774  149.2466   20.8873 C   0  0  0  0  0  0  0  0  0  0  0  0
   80.8030  149.3929   19.3716 C   0  0  0  0  0  0  0  0  0  0  0  0
   82.7675  150.8256   18.9473 C   0  0  0  0  0  0  0  0  0  0  0  0
 22 23  2  0
 23 24  1  0
 23 25  1  0
 24 16  1  0
 24 26  1  0
 25 27  1  0
 25 30  1  0
 16 17  2  0
 16 18  1  0
 26 28  1  0
 27 29  2  0
 27 28  1  0
 17 19  1  0
 18 20  2  0
 19 21  2  0
 19 15  1  0
 20 21  1  0
 15  1  1  0
  1  2  1  0
  1  3  1  0
  1 10  1  0
  2 11  1  0
  2  4  1  0
  3  5  1  0
 11 12  2  0
 11 13  1  0
  4  6  1  0
  5  7  1  0
 13 14  1  0
  6  8  1  0
  6  7  1  0
  8  9  2  0
  8 31  1  0
 31 32  1  0
 32 33  1  0
 32 34  1  0
 32 35  1  0
M  CHG 1   1   1
M  END
> <Molecule Name>
Compound 1

> <EC50 (µM) (Excel)>
49.5

> <Error (µM)>
6.2

> <HTRC CRBN-DDB1 EC50 (µM)>
49.46 ±  6.19

> <EC50 fitting (µM)>
60.01

> <Modèle Fitting>
3PL

> <Parent_Compound>
Compound 1

> <MMFF94s_energy_kcalmol>
189.703
> <Compound_Name>
Compound_1_ent1

> <Pose_Rank>
3

> <Docking_Affinity_kcal_mol>
-6.76

> <CNN_Affinity>
5.587

> <CNN_Pose_Score>
0.3441
$$$$

> <minimizedAffinity>
-7.84414

> <CNNscore>
0.3502327204

> <CNNaffinity>
5.2787685394

> <CNN_VS>
1.8487974405

> <CNNaffinity_variance>
1.5376167297

> <Compound_Name>
Compound_1_ent1

> <Pose_Rank>
4

> <Docking_Affinity_kcal_mol>
-7.35

> <CNN_Affinity>
5.187

> <CNN_Pose_Score>
0.3077
$$$$
Compound_1_ent1


 35 37  0  0  0  0  0  0  0  0999 V2000
   87.7503  149.5660   11.9415 N   0  0  0  0  0  0  0  0  0  0  0  0
   87.1755  149.4424   10.6743 C   0  0  0  0  0  0  0  0  0  0  0  0
   89.0116  150.1567   12.0705 C   0  0  0  0  0  0  0  0  0  0  0  0
   87.0641  150.7132    9.8770 C   0  0  0  0  0  0  0  0  0  0  0  0
   89.0721  151.6259   11.7366 C   0  0  0  0  0  0  0  0  0  0  0  0
   88.3038  151.2608    9.4421 N   0  0  0  0  0  0  0  0  0  0  0  0
   89.3581  151.8273   10.2431 C   0  0  0  0  0  0  0  0  0  0  0  0
   88.5457  151.2567    8.0543 C   0  0  0  0  0  0  0  0  0  0  0  0
   87.7341  150.8029    7.2054 O   0  0  0  0  0  0  0  0  0  0  0  0
   88.1098  148.6123   11.9810 H   0  0  0  0  0  0  0  0  0  0  0  0
   87.8619  148.4026    9.8848 C   0  0  0  0  0  0  0  0  0  0  0  0
   89.1153  148.2525    9.8901 O   0  0  0  0  0  0  0  0  0  0  0  0
   87.1391  147.5325    9.0904 O   0  0  0  0  0  0  0  0  0  0  0  0
   87.2129  147.5008    7.6834 C   0  0  0  0  0  0  0  0  0  0  0  0
   86.9188  149.4722   13.0725 C   0  0  0  0  0  0  0  0  0  0  0  0
   85.2656  152.8835   13.1474 C   0  0  0  0  0  0  0  0  0  0  0  0
   86.1919  151.8710   13.1882 C   0  0  0  0  0  0  0  0  0  0  0  0
   83.9434  152.4918   12.9187 C   0  0  0  0  0  0  0  0  0  0  0  0
   85.8642  150.5203   13.0157 C   0  0  0  0  0  0  0  0  0  0  0  0
   83.5578  151.1824   12.7410 C   0  0  0  0  0  0  0  0  0  0  0  0
   84.5392  150.2241   12.7952 C   0  0  0  0  0  0  0  0  0  0  0  0
   86.9899  154.4765   11.4609 O   0  0  0  0  0  0  0  0  0  0  0  0
   86.2303  154.9872   12.3355 C   0  0  0  0  0  0  0  0  0  0  0  0
   85.5918  154.2726   13.3546 N   0  0  0  0  0  0  0  0  0  0  0  0
   86.0119  156.4156   12.2742 N   0  0  0  0  0  0  0  0  0  0  0  0
   85.1966  154.8366   14.6274 C   0  0  0  0  0  0  0  0  0  0  0  0
   85.1539  156.9222   13.2893 C   0  0  0  0  0  0  0  0  0  0  0  0
   85.0983  156.3368   14.6393 C   0  0  0  0  0  0  0  0  0  0  0  0
   84.4232  157.9003   13.0212 O   0  0  0  0  0  0  0  0  0  0  0  0
   86.4225  156.9891   11.5874 H   0  0  0  0  0  0  0  0  0  0  0  0
   89.7322  151.7734    7.5684 O   0  0  0  0  0  0  0  0  0  0  0  0
   89.8304  152.9376    6.7949 C   0  0  0  0  0  0  0  0  0  0  0  0
   91.0811  153.6806    7.1906 C   0  0  0  0  0  0  0  0  0  0  0  0
   88.5925  153.7731    7.0660 C   0  0  0  0  0  0  0  0  0  0  0  0
   89.8525  152.5876    5.3057 C   0  0  0  0  0  0  0  0  0  0  0  0
 22 23  2  0
 23 24  1  0
 23 25  1  0
 24 16  1  0
 24 26  1  0
 25 27  1  0
 25 30  1  0
 16 17  2  0
 16 18  1  0
 26 28  1  0
 27 29  2  0
 27 28  1  0
 17 19  1  0
 18 20  2  0
 19 21  2  0
 19 15  1  0
 20 21  1  0
 15  1  1  0
  1  2  1  0
  1  3  1  0
  1 10  1  0
  2 11  1  0
  2  4  1  0
  3  5  1  0
 11 12  2  0
 11 13  1  0
  4  6  1  0
  5  7  1  0
 13 14  1  0
  6  8  1  0
  6  7  1  0
  8  9  2  0
  8 31  1  0
 31 32  1  0
 32 33  1  0
 32 34  1  0
 32 35  1  0
M  CHG 1   1   1
M  END
> <Molecule Name>
Compound 1

> <EC50 (µM) (Excel)>
49.5

> <Error (µM)>
6.2

> <HTRC CRBN-DDB1 EC50 (µM)>
49.46 ±  6.19

> <EC50 fitting (µM)>
60.01

> <Modèle Fitting>
3PL

> <Parent_Compound>
Compound 1

> <MMFF94s_energy_kcalmol>
189.703
> <Compound_Name>
Compound_1_ent1

> <Pose_Rank>
5

> <Docking_Affinity_kcal_mol>
-7.92

> <CNN_Affinity>
5.166

> <CNN_Pose_Score>
0.3061
$$$$
Compound_1_ent2


 35 37  0  0  0  0  0  0  0  0999 V2000
   84.3576  150.0717   14.3972 N   0  0  0  0  0  0  0  0  0  0  0  0
   82.9856  150.1660   14.1907 C   0  0  0  0  0  0  0  0  0  0  0  0
   84.9308  150.9704   15.3609 C   0  0  0  0  0  0  0  0  0  0  0  0
   82.2651  149.7473   15.5066 C   0  0  0  0  0  0  0  0  0  0  0  0
   84.4925  150.9350   16.7541 C   0  0  0  0  0  0  0  0  0  0  0  0
   82.1134  150.9182   16.3238 N   0  0  0  0  0  0  0  0  0  0  0  0
   83.1811  151.6653   17.0131 C   0  0  0  0  0  0  0  0  0  0  0  0
   80.8051  151.3923   16.4902 C   0  0  0  0  0  0  0  0  0  0  0  0
   80.5164  152.4146   17.1708 O   0  0  0  0  0  0  0  0  0  0  0  0
   84.3273  149.1417   14.8152 H   0  0  0  0  0  0  0  0  0  0  0  0
   82.3812  149.3624   13.0992 C   0  0  0  0  0  0  0  0  0  0  0  0
   81.4804  149.9015   12.3576 O   0  0  0  0  0  0  0  0  0  0  0  0
   82.6761  148.0630   12.7747 O   0  0  0  0  0  0  0  0  0  0  0  0
   81.8871  146.9711   13.2016 C   0  0  0  0  0  0  0  0  0  0  0  0
   85.2322  149.9260   13.2613 C   0  0  0  0  0  0  0  0  0  0  0  0
   85.6705  153.6596   12.8044 C   0  0  0  0  0  0  0  0  0  0  0  0
   85.1969  152.4279   13.1767 C   0  0  0  0  0  0  0  0  0  0  0  0
   86.8158  153.6865   12.0008 C   0  0  0  0  0  0  0  0  0  0  0  0
   85.7878  151.2091   12.8033 C   0  0  0  0  0  0  0  0  0  0  0  0
   87.4120  152.5169   11.6226 C   0  0  0  0  0  0  0  0  0  0  0  0
   86.8920  151.2814   12.0283 C   0  0  0  0  0  0  0  0  0  0  0  0
   85.0897  154.5686   15.4829 O   0  0  0  0  0  0  0  0  0  0  0  0
   85.1081  155.3206   14.5009 C   0  0  0  0  0  0  0  0  0  0  0  0
   85.0704  154.9017   13.1519 N   0  0  0  0  0  0  0  0  0  0  0  0
   85.1693  156.7405   14.7615 N   0  0  0  0  0  0  0  0  0  0  0  0
   84.4679  155.7019   12.1052 C   0  0  0  0  0  0  0  0  0  0  0  0
   85.1827  157.5679   13.6098 C   0  0  0  0  0  0  0  0  0  0  0  0
   84.3772  157.1721   12.4412 C   0  0  0  0  0  0  0  0  0  0  0  0
   85.8662  158.6133   13.5918 O   0  0  0  0  0  0  0  0  0  0  0  0
   85.1996  157.1078   15.6744 H   0  0  0  0  0  0  0  0  0  0  0  0
   79.7572  150.7292   15.8924 O   0  0  0  0  0  0  0  0  0  0  0  0
   78.7685  149.9709   16.5094 C   0  0  0  0  0  0  0  0  0  0  0  0
   77.4099  150.5089   16.0385 C   0  0  0  0  0  0  0  0  0  0  0  0
   78.8208  150.0276   18.0388 C   0  0  0  0  0  0  0  0  0  0  0  0
   78.8646  148.5465   16.0161 C   0  0  0  0  0  0  0  0  0  0  0  0
 22 23  2  0
 23 24  1  0
 23 25  1  0
 24 16  1  0
 24 26  1  0
 25 27  1  0
 25 30  1  0
 16 17  2  0
 16 18  1  0
 26 28  1  0
 27 29  2  0
 27 28  1  0
 17 19  1  0
 18 20  2  0
 19 21  2  0
 19 15  1  0
 20 21  1  0
 15  1  1  0
  1  2  1  0
  1  3  1  0
  1 10  1  0
  2 11  1  0
  2  4  1  0
  3  5  1  0
 11 12  2  0
 11 13  1  0
  4  6  1  0
  5  7  1  0
 13 14  1  0
  6  8  1  0
  6  7  1  0
  8  9  2  0
  8 31  1  0
 31 32  1  0
 32 33  1  0
 32 34  1  0
 32 35  1  0
M  CHG 1   1   1
M  END
> <Molecule Name>
Compound 1

> <EC50 (µM) (Excel)>
49.5

> <Error (µM)>
6.2

> <HTRC CRBN-DDB1 EC50 (µM)>
49.46 ±  6.19

> <EC50 fitting (µM)>
60.01

> <Modèle Fitting>
3PL

> <Parent_Compound>
Compound 1

> <MMFF94s_energy_kcalmol>
176.500
> <Compound_Name>
Compound_1_ent2

> <Pose_Rank>
1

> <Docking_Affinity_kcal_mol>
-7.8

> <CNN_Affinity>
5.157

> <CNN_Pose_Score>
0.3152
$$$$

> <minimizedAffinity>
-7.80356

> <CNNscore>
0.3152046502

> <CNNaffinity>
5.1572394371

> <CNN_VS>
1.6255857944

> <CNNaffinity_variance>
1.5502516031

> <Compound_Name>
Compound_1_ent2

> <Pose_Rank>
2

> <Docking_Affinity_kcal_mol>
-6.94

> <CNN_Affinity>
4.321

> <CNN_Pose_Score>
0.3133
$$$$
Compound_1_ent2


 35 37  0  0  0  0  0  0  0  0999 V2000
   84.2786  150.1686   16.0270 N   0  0  0  0  0  0  0  0  0  0  0  0
   83.9374  151.4997   15.8130 C   0  0  0  0  0  0  0  0  0  0  0  0
   85.0427  149.5220   14.9960 C   0  0  0  0  0  0  0  0  0  0  0  0
   85.2480  152.3410   15.7921 C   0  0  0  0  0  0  0  0  0  0  0  0
   86.3599  150.0329   14.6242 C   0  0  0  0  0  0  0  0  0  0  0  0
   85.7420  152.3634   14.4440 N   0  0  0  0  0  0  0  0  0  0  0  0
   86.3204  151.2359   13.6907 C   0  0  0  0  0  0  0  0  0  0  0  0
   85.6751  153.5959   13.7800 C   0  0  0  0  0  0  0  0  0  0  0  0
   86.0611  153.7680   12.5914 O   0  0  0  0  0  0  0  0  0  0  0  0
   84.9045  150.3555   16.8105 H   0  0  0  0  0  0  0  0  0  0  0  0
   83.0242  152.1565   16.7808 C   0  0  0  0  0  0  0  0  0  0  0  0
   83.4939  152.5424   17.9133 O   0  0  0  0  0  0  0  0  0  0  0  0
   81.6873  152.4092   16.6086 O   0  0  0  0  0  0  0  0  0  0  0  0
   80.7868  151.4454   16.1014 C   0  0  0  0  0  0  0  0  0  0  0  0
   83.2917  149.2663   16.5639 C   0  0  0  0  0  0  0  0  0  0  0  0
   84.8984  148.2313   19.8331 C   0  0  0  0  0  0  0  0  0  0  0  0
   84.6573  148.4674   18.5042 C   0  0  0  0  0  0  0  0  0  0  0  0
   83.8842  148.5705   20.7355 C   0  0  0  0  0  0  0  0  0  0  0  0
   83.4676  149.0230   18.0043 C   0  0  0  0  0  0  0  0  0  0  0  0
   82.7166  149.1129   20.2781 C   0  0  0  0  0  0  0  0  0  0  0  0
   82.5157  149.3365   18.9102 C   0  0  0  0  0  0  0  0  0  0  0  0
   87.1223  147.2448   18.2778 O   0  0  0  0  0  0  0  0  0  0  0  0
   87.1920  147.4723   19.4917 C   0  0  0  0  0  0  0  0  0  0  0  0
   86.0860  147.6464   20.3538 N   0  0  0  0  0  0  0  0  0  0  0  0
   88.5137  147.5621   20.0687 N   0  0  0  0  0  0  0  0  0  0  0  0
   86.1253  147.2768   21.7540 C   0  0  0  0  0  0  0  0  0  0  0  0
   88.5500  147.8179   21.4631 C   0  0  0  0  0  0  0  0  0  0  0  0
   87.5225  147.2069   22.3245 C   0  0  0  0  0  0  0  0  0  0  0  0
   89.4400  148.5482   21.9477 O   0  0  0  0  0  0  0  0  0  0  0  0
   89.3315  147.4534   19.5315 H   0  0  0  0  0  0  0  0  0  0  0  0
   85.1667  154.6964   14.4324 O   0  0  0  0  0  0  0  0  0  0  0  0
   84.8005  155.9183   13.8795 C   0  0  0  0  0  0  0  0  0  0  0  0
   85.7415  156.1932   12.6979 C   0  0  0  0  0  0  0  0  0  0  0  0
   84.8896  157.0861   14.8661 C   0  0  0  0  0  0  0  0  0  0  0  0
   83.4085  155.7986   13.3055 C   0  0  0  0  0  0  0  0  0  0  0  0
 22 23  2  0
 23 24  1  0
 23 25  1  0
 24 16  1  0
 24 26  1  0
 25 27  1  0
 25 30  1  0
 16 17  2  0
 16 18  1  0
 26 28  1  0
 27 29  2  0
 27 28  1  0
 17 19  1  0
 18 20  2  0
 19 21  2  0
 19 15  1  0
 20 21  1  0
 15  1  1  0
  1  2  1  0
  1  3  1  0
  1 10  1  0
  2 11  1  0
  2  4  1  0
  3  5  1  0
 11 12  2  0
 11 13  1  0
  4  6  1  0
  5  7  1  0
 13 14  1  0
  6  8  1  0
  6  7  1  0
  8  9  2  0
  8 31  1  0
 31 32  1  0
 32 33  1  0
 32 34  1  0
 32 35  1  0
M  CHG 1   1   1
M  END
> <Molecule Name>
Compound 1

> <EC50 (µM) (Excel)>
49.5

> <Error (µM)>
6.2

> <HTRC CRBN-DDB1 EC50 (µM)>
49.46 ±  6.19

> <EC50 fitting (µM)>
60.01

> <Modèle Fitting>
3PL

> <Parent_Compound>
Compound 1

> <MMFF94s_energy_kcalmol>
176.500
> <Compound_Name>
Compound_1_ent2

> <Pose_Rank>
3

> <Docking_Affinity_kcal_mol>
-7.0

> <CNN_Affinity>
4.616

> <CNN_Pose_Score>
0.3085
$$$$

> <minimizedAffinity>
-6.93646

> <CNNscore>
0.3133015633

> <CNNaffinity>
4.3212246895

> <CNN_VS>
1.3538464308

> <CNNaffinity_variance>
2.0910980701

> <Compound_Name>
Compound_1_ent2

> <Pose_Rank>
4

> <Docking_Affinity_kcal_mol>
-6.51

> <CNN_Affinity>
4.671

> <CNN_Pose_Score>
0.308
$$$$
Compound_1_ent2


 35 37  0  0  0  0  0  0  0  0999 V2000
   84.5434  150.6451   14.5340 N   0  0  0  0  0  0  0  0  0  0  0  0
   84.2516  152.0004   14.6444 C   0  0  0  0  0  0  0  0  0  0  0  0
   85.1524  150.2116   13.3067 C   0  0  0  0  0  0  0  0  0  0  0  0
   85.5945  152.7894   14.6417 C   0  0  0  0  0  0  0  0  0  0  0  0
   86.4452  150.7525   12.8937 C   0  0  0  0  0  0  0  0  0  0  0  0
   85.9356  153.0844   13.2784 N   0  0  0  0  0  0  0  0  0  0  0  0
   86.3656  152.1274   12.2429 C   0  0  0  0  0  0  0  0  0  0  0  0
   85.8604  154.4315   12.8985 C   0  0  0  0  0  0  0  0  0  0  0  0
   86.1201  154.8418   11.7342 O   0  0  0  0  0  0  0  0  0  0  0  0
   85.2619  150.6431   15.2581 H   0  0  0  0  0  0  0  0  0  0  0  0
   83.4882  152.4616   15.8304 C   0  0  0  0  0  0  0  0  0  0  0  0
   84.1098  152.6237   16.9437 O   0  0  0  0  0  0  0  0  0  0  0  0
   82.1474  152.7442   15.8863 O   0  0  0  0  0  0  0  0  0  0  0  0
   81.1620  151.8808   15.3565 C   0  0  0  0  0  0  0  0  0  0  0  0
   83.5761  149.6775   14.9859 C   0  0  0  0  0  0  0  0  0  0  0  0
   83.0081  148.7343   18.6093 C   0  0  0  0  0  0  0  0  0  0  0  0
   82.8345  149.1841   17.3257 C   0  0  0  0  0  0  0  0  0  0  0  0
   84.2801  148.2637   18.9537 C   0  0  0  0  0  0  0  0  0  0  0  0
   83.8460  149.1985   16.3507 C   0  0  0  0  0  0  0  0  0  0  0  0
   85.2830  148.2654   18.0260 C   0  0  0  0  0  0  0  0  0  0  0  0
   85.0580  148.7343   16.7256 C   0  0  0  0  0  0  0  0  0  0  0  0
   80.6673  150.4244   18.6605 O   0  0  0  0  0  0  0  0  0  0  0  0
   80.7882  149.4122   19.3613 C   0  0  0  0  0  0  0  0  0  0  0  0
   82.0028  148.7364   19.6157 N   0  0  0  0  0  0  0  0  0  0  0  0
   79.5872  148.8862   19.9686 N   0  0  0  0  0  0  0  0  0  0  0  0
   82.2521  148.0229   20.8517 C   0  0  0  0  0  0  0  0  0  0  0  0
   79.7694  147.7294   20.7685 C   0  0  0  0  0  0  0  0  0  0  0  0
   80.9937  147.6123   21.5800 C   0  0  0  0  0  0  0  0  0  0  0  0
   78.9038  146.8289   20.7821 O   0  0  0  0  0  0  0  0  0  0  0  0
   78.7046  149.3016   19.8364 H   0  0  0  0  0  0  0  0  0  0  0  0
   85.4871  155.3817   13.8221 O   0  0  0  0  0  0  0  0  0  0  0  0
   84.4326  156.2835   13.7349 C   0  0  0  0  0  0  0  0  0  0  0  0
   84.4687  156.9050   12.3315 C   0  0  0  0  0  0  0  0  0  0  0  0
   84.5008  157.4050   14.7754 C   0  0  0  0  0  0  0  0  0  0  0  0
   83.1302  155.5256   13.8393 C   0  0  0  0  0  0  0  0  0  0  0  0
 22 23  2  0
 23 24  1  0
 23 25  1  0
 24 16  1  0
 24 26  1  0
 25 27  1  0
 25 30  1  0
 16 17  2  0
 16 18  1  0
 26 28  1  0
 27 29  2  0
 27 28  1  0
 17 19  1  0
 18 20  2  0
 19 21  2  0
 19 15  1  0
 20 21  1  0
 15  1  1  0
  1  2  1  0
  1  3  1  0
  1 10  1  0
  2 11  1  0
  2  4  1  0
  3  5  1  0
 11 12  2  0
 11 13  1  0
  4  6  1  0
  5  7  1  0
 13 14  1  0
  6  8  1  0
  6  7  1  0
  8  9  2  0
  8 31  1  0
 31 32  1  0
 32 33  1  0
 32 34  1  0
 32 35  1  0
M  CHG 1   1   1
M  END
> <Molecule Name>
Compound 1

> <EC50 (µM) (Excel)>
49.5

> <Error (µM)>
6.2

> <HTRC CRBN-DDB1 EC50 (µM)>
49.46 ±  6.19

> <EC50 fitting (µM)>
60.01

> <Modèle Fitting>
3PL

> <Parent_Compound>
Compound 1

> <MMFF94s_energy_kcalmol>
176.500
> <Compound_Name>
Compound_1_ent2

> <Pose_Rank>
5

> <Docking_Affinity_kcal_mol>
-7.5

> <CNN_Affinity>
5.516

> <CNN_Pose_Score>
0.3067
$$$$
Compound_4_s12


 31 34  0  0  0  0  0  0  0  0999 V2000
   84.0971  154.8436   14.1559 C   0  0  0  0  0  0  0  0  0  0  0  0
   84.8202  153.6522   14.2425 C   0  0  0  0  0  0  0  0  0  0  0  0
   82.7239  154.7236   14.1748 C   0  0  0  0  0  0  0  0  0  0  0  0
   84.1828  152.4334   14.3406 C   0  0  0  0  0  0  0  0  0  0  0  0
   82.0842  153.4894   14.2741 C   0  0  0  0  0  0  0  0  0  0  0  0
   82.8038  152.3371   14.3575 C   0  0  0  0  0  0  0  0  0  0  0  0
   84.7063  151.0424   14.4491 C   0  0  0  0  0  0  0  0  0  0  0  0
   82.5029  150.8765   14.4674 C   0  0  0  0  0  0  0  0  0  0  0  0
   83.6339  150.4635   15.2808 N   0  0  0  0  0  0  0  0  0  0  0  0
   84.4417  150.3561   13.1501 C   0  0  0  0  0  0  0  0  0  0  0  0
   82.9075  150.2844   13.1381 C   0  0  0  0  0  0  0  0  0  0  0  0
   83.7050  149.7468   16.4729 C   0  0  0  0  0  0  0  0  0  0  0  0
   84.9173  151.0492   12.0443 O   0  0  0  0  0  0  0  0  0  0  0  0
   82.4710  148.9919   12.9636 O   0  0  0  0  0  0  0  0  0  0  0  0
   84.7973  149.4864   17.0296 O   0  0  0  0  0  0  0  0  0  0  0  0
   84.5174  151.9326   12.0200 H   0  0  0  0  0  0  0  0  0  0  0  0
   82.8306  148.4312   13.6686 H   0  0  0  0  0  0  0  0  0  0  0  0
   84.7452  156.1391   11.7407 O   0  0  0  0  0  0  0  0  0  0  0  0
   84.8099  156.8074   12.8038 C   0  0  0  0  0  0  0  0  0  0  0  0
   84.7175  156.1189   14.0534 N   0  0  0  0  0  0  0  0  0  0  0  0
   84.9722  158.2197   12.7417 N   0  0  0  0  0  0  0  0  0  0  0  0
   85.2936  156.7969   15.2115 C   0  0  0  0  0  0  0  0  0  0  0  0
   85.0362  158.8991   13.9909 C   0  0  0  0  0  0  0  0  0  0  0  0
   84.7060  158.1837   15.2567 C   0  0  0  0  0  0  0  0  0  0  0  0
   85.3789  160.1160   13.9877 O   0  0  0  0  0  0  0  0  0  0  0  0
   85.0364  158.6992   11.8843 H   0  0  0  0  0  0  0  0  0  0  0  0
   82.5433  149.2991   17.0776 O   0  0  0  0  0  0  0  0  0  0  0  0
   81.9092  150.0616   18.0606 C   0  0  0  0  0  0  0  0  0  0  0  0
   82.9135  151.0113   18.6606 C   0  0  0  0  0  0  0  0  0  0  0  0
   81.2745  149.2495   19.1529 C   0  0  0  0  0  0  0  0  0  0  0  0
   80.7898  150.8851   17.4186 C   0  0  0  0  0  0  0  0  0  0  0  0
 18 19  2  0
 19 20  1  0
 19 21  1  0
 20  1  1  0
 20 22  1  0
 21 23  1  0
 21 26  1  0
  1  2  2  0
  1  3  1  0
 22 24  1  0
 23 25  2  0
 23 24  1  0
  2  4  1  0
  3  5  2  0
  4  6  2  0
  5  6  1  0
  7  4  1  0
  7  9  1  0
  7 10  1  0
  8  6  1  0
  8 11  1  0
  8  9  1  0
  9 12  1  0
 10 13  1  0
 10 11  1  0
 11 14  1  0
 12 15  2  0
 12 27  1  0
 13 16  1  0
 14 17  1  0
 27 28  1  0
 28 29  1  0
 28 30  1  0
 28 31  1  0
M  END
> <Molecule Name>
Compound 4

> <EC50 (µM) (Excel)>
11.8

> <Error (µM)>
7.4

> <HTRC CRBN-DDB1 EC50 (µM)>
11.78 ±  7.41

> <EC50 fitting (µM)>
15.10

> <Modèle Fitting>
4PL

> <Parent_Compound>
Compound 4

> <MMFF94s_energy_kcalmol>
162.454
> <Compound_Name>
Compound_4_s12

> <Pose_Rank>
1

> <Docking_Affinity_kcal_mol>
-9.52

> <CNN_Affinity>
7.292

> <CNN_Pose_Score>
0.964
$$$$

> <minimizedAffinity>
-9.51988

> <CNNscore>
0.9640263319

> <CNNaffinity>
7.2923545837

> <CNN_VS>
7.0300216675

> <CNNaffinity_variance>
0.2540880144

> <Compound_Name>
Compound_4_s12

> <Pose_Rank>
2

> <Docking_Affinity_kcal_mol>
-8.7

> <CNN_Affinity>
7.177

> <CNN_Pose_Score>
0.9325
$$$$
Compound_4_s12


 31 34  0  0  0  0  0  0  0  0999 V2000
   84.7417  154.7146   14.3254 C   0  0  0  0  0  0  0  0  0  0  0  0
   85.2269  153.7902   15.2527 C   0  0  0  0  0  0  0  0  0  0  0  0
   83.8049  154.2431   13.4307 C   0  0  0  0  0  0  0  0  0  0  0  0
   84.7845  152.4842   15.2603 C   0  0  0  0  0  0  0  0  0  0  0  0
   83.3608  152.9221   13.4423 C   0  0  0  0  0  0  0  0  0  0  0  0
   83.8440  152.0333   14.3529 C   0  0  0  0  0  0  0  0  0  0  0  0
   85.1286  151.3219   16.1272 C   0  0  0  0  0  0  0  0  0  0  0  0
   83.6328  150.5886   14.6753 C   0  0  0  0  0  0  0  0  0  0  0  0
   83.8209  150.6385   16.1153 N   0  0  0  0  0  0  0  0  0  0  0  0
   85.9383  150.3709   15.3096 C   0  0  0  0  0  0  0  0  0  0  0  0
   84.9128  149.8974   14.2689 C   0  0  0  0  0  0  0  0  0  0  0  0
   83.0291  150.1892   17.1692 C   0  0  0  0  0  0  0  0  0  0  0  0
   87.0378  150.9570   14.6957 O   0  0  0  0  0  0  0  0  0  0  0  0
   84.8103  148.5260   14.2591 O   0  0  0  0  0  0  0  0  0  0  0  0
   83.3720  150.3282   18.3666 O   0  0  0  0  0  0  0  0  0  0  0  0
   86.7409  151.6853   14.1280 H   0  0  0  0  0  0  0  0  0  0  0  0
   84.5637  148.2139   15.1438 H   0  0  0  0  0  0  0  0  0  0  0  0
   86.0126  155.9451   12.1340 O   0  0  0  0  0  0  0  0  0  0  0  0
   85.6032  156.6814   13.0675 C   0  0  0  0  0  0  0  0  0  0  0  0
   85.1729  156.0690   14.2856 N   0  0  0  0  0  0  0  0  0  0  0  0
   85.5771  158.0935   12.8940 N   0  0  0  0  0  0  0  0  0  0  0  0
   85.2017  156.9096   15.4795 C   0  0  0  0  0  0  0  0  0  0  0  0
   85.0999  158.8525   13.9995 C   0  0  0  0  0  0  0  0  0  0  0  0
   84.4477  158.1734   15.1557 C   0  0  0  0  0  0  0  0  0  0  0  0
   85.2473  160.1076   13.9656 O   0  0  0  0  0  0  0  0  0  0  0  0
   85.8722  158.5208   12.0575 H   0  0  0  0  0  0  0  0  0  0  0  0
   81.8212  149.5665   16.9061 O   0  0  0  0  0  0  0  0  0  0  0  0
   80.6249  150.2862   16.9329 C   0  0  0  0  0  0  0  0  0  0  0  0
   79.9586  150.0697   18.2670 C   0  0  0  0  0  0  0  0  0  0  0  0
   79.6682  149.9277   15.8322 C   0  0  0  0  0  0  0  0  0  0  0  0
   80.9289  151.7789   16.7818 C   0  0  0  0  0  0  0  0  0  0  0  0
 18 19  2  0
 19 20  1  0
 19 21  1  0
 20  1  1  0
 20 22  1  0
 21 23  1  0
 21 26  1  0
  1  2  2  0
  1  3  1  0
 22 24  1  0
 23 25  2  0
 23 24  1  0
  2  4  1  0
  3  5  2  0
  4  6  2  0
  5  6  1  0
  7  4  1  0
  7  9  1  0
  7 10  1  0
  8  6  1  0
  8 11  1  0
  8  9  1  0
  9 12  1  0
 10 13  1  0
 10 11  1  0
 11 14  1  0
 12 15  2  0
 12 27  1  0
 13 16  1  0
 14 17  1  0
 27 28  1  0
 28 29  1  0
 28 30  1  0
 28 31  1  0
M  END
> <Molecule Name>
Compound 4

> <EC50 (µM) (Excel)>
11.8

> <Error (µM)>
7.4

> <HTRC CRBN-DDB1 EC50 (µM)>
11.78 ±  7.41

> <EC50 fitting (µM)>
15.10

> <Modèle Fitting>
4PL

> <Parent_Compound>
Compound 4

> <MMFF94s_energy_kcalmol>
162.454
> <Compound_Name>
Compound_4_s12

> <Pose_Rank>
3

> <Docking_Affinity_kcal_mol>
-8.18

> <CNN_Affinity>
7.038

> <CNN_Pose_Score>
0.889
$$$$

> <minimizedAffinity>
-8.70164

> <CNNscore>
0.9324915409

> <CNNaffinity>
7.1769976616

> <CNN_VS>
6.6924896240

> <CNNaffinity_variance>
0.3051559031

> <Compound_Name>
Compound_4_s12

> <Pose_Rank>
4

> <Docking_Affinity_kcal_mol>
-9.14

> <CNN_Affinity>
6.899

> <CNN_Pose_Score>
0.7987
$$$$
Compound_4_s12


 31 34  0  0  0  0  0  0  0  0999 V2000
   84.5124  154.5172   14.5805 C   0  0  0  0  0  0  0  0  0  0  0  0
   85.0743  153.6039   15.4749 C   0  0  0  0  0  0  0  0  0  0  0  0
   83.3952  154.0883   13.8960 C   0  0  0  0  0  0  0  0  0  0  0  0
   84.5315  152.3488   15.6521 C   0  0  0  0  0  0  0  0  0  0  0  0
   82.8502  152.8187   14.0785 C   0  0  0  0  0  0  0  0  0  0  0  0
   83.4103  151.9400   14.9542 C   0  0  0  0  0  0  0  0  0  0  0  0
   84.9243  151.2092   16.5284 C   0  0  0  0  0  0  0  0  0  0  0  0
   83.1383  150.5425   15.4111 C   0  0  0  0  0  0  0  0  0  0  0  0
   83.5823  150.6547   16.7901 N   0  0  0  0  0  0  0  0  0  0  0  0
   85.4929  150.1408   15.6546 C   0  0  0  0  0  0  0  0  0  0  0  0
   84.2628  149.7102   14.8419 C   0  0  0  0  0  0  0  0  0  0  0  0
   82.9548  150.3430   17.9937 C   0  0  0  0  0  0  0  0  0  0  0  0
   86.5117  150.5835   14.8206 O   0  0  0  0  0  0  0  0  0  0  0  0
   84.0447  148.3566   14.9484 O   0  0  0  0  0  0  0  0  0  0  0  0
   83.5151  150.5154   19.1014 O   0  0  0  0  0  0  0  0  0  0  0  0
   86.1815  151.3040   14.2614 H   0  0  0  0  0  0  0  0  0  0  0  0
   83.9333  148.1196   15.8824 H   0  0  0  0  0  0  0  0  0  0  0  0
   85.8185  155.3741   12.2372 O   0  0  0  0  0  0  0  0  0  0  0  0
   85.4881  156.2465   13.0803 C   0  0  0  0  0  0  0  0  0  0  0  0
   85.0426  155.8197   14.3701 N   0  0  0  0  0  0  0  0  0  0  0  0
   85.5636  157.6253   12.7370 N   0  0  0  0  0  0  0  0  0  0  0  0
   85.1630  156.7927   15.4525 C   0  0  0  0  0  0  0  0  0  0  0  0
   85.1712  158.5460   13.7491 C   0  0  0  0  0  0  0  0  0  0  0  0
   84.4981  158.0629   14.9888 C   0  0  0  0  0  0  0  0  0  0  0  0
   85.4113  159.7728   13.5609 O   0  0  0  0  0  0  0  0  0  0  0  0
   85.8695  157.9251   11.8506 H   0  0  0  0  0  0  0  0  0  0  0  0
   81.6712  149.8252   17.9872 O   0  0  0  0  0  0  0  0  0  0  0  0
   81.4567  148.4454   17.9791 C   0  0  0  0  0  0  0  0  0  0  0  0
   82.7743  147.7486   18.2003 C   0  0  0  0  0  0  0  0  0  0  0  0
   80.8240  147.9300   16.7183 C   0  0  0  0  0  0  0  0  0  0  0  0
   80.5149  148.0731   19.1270 C   0  0  0  0  0  0  0  0  0  0  0  0
 18 19  2  0
 19 20  1  0
 19 21  1  0
 20  1  1  0
 20 22  1  0
 21 23  1  0
 21 26  1  0
  1  2  2  0
  1  3  1  0
 22 24  1  0
 23 25  2  0
 23 24  1  0
  2  4  1  0
  3  5  2  0
  4  6  2  0
  5  6  1  0
  7  4  1  0
  7  9  1  0
  7 10  1  0
  8  6  1  0
  8 11  1  0
  8  9  1  0
  9 12  1  0
 10 13  1  0
 10 11  1  0
 11 14  1  0
 12 15  2  0
 12 27  1  0
 13 16  1  0
 14 17  1  0
 27 28  1  0
 28 29  1  0
 28 30  1  0
 28 31  1  0
M  END
> <Molecule Name>
Compound 4

> <EC50 (µM) (Excel)>
11.8

> <Error (µM)>
7.4

> <HTRC CRBN-DDB1 EC50 (µM)>
11.78 ±  7.41

> <EC50 fitting (µM)>
15.10

> <Modèle Fitting>
4PL

> <Parent_Compound>
Compound 4

> <MMFF94s_energy_kcalmol>
162.454
> <Compound_Name>
Compound_4_s12

> <Pose_Rank>
5

> <Docking_Affinity_kcal_mol>
-7.47

> <CNN_Affinity>
6.437

> <CNN_Pose_Score>
0.6843
$$$$
Compound_4_s13


 31 34  0  0  0  0  0  0  0  0999 V2000
   85.3656  154.7443   13.6732 C   0  0  0  0  0  0  0  0  0  0  0  0
   85.3946  153.8625   14.7232 C   0  0  0  0  0  0  0  0  0  0  0  0
   85.8415  154.3129   12.4517 C   0  0  0  0  0  0  0  0  0  0  0  0
   85.8947  152.5668   14.5480 C   0  0  0  0  0  0  0  0  0  0  0  0
   86.3433  153.0195   12.2668 C   0  0  0  0  0  0  0  0  0  0  0  0
   86.3707  152.1384   13.3231 C   0  0  0  0  0  0  0  0  0  0  0  0
   86.0606  151.3951   15.4552 C   0  0  0  0  0  0  0  0  0  0  0  0
   86.8200  150.7397   13.4856 C   0  0  0  0  0  0  0  0  0  0  0  0
   87.2801  150.8186   14.8786 N   0  0  0  0  0  0  0  0  0  0  0  0
   85.0592  150.3669   14.9873 C   0  0  0  0  0  0  0  0  0  0  0  0
   85.6339  149.8224   13.6860 C   0  0  0  0  0  0  0  0  0  0  0  0
   88.4954  150.4532   15.4406 C   0  0  0  0  0  0  0  0  0  0  0  0
   83.8856  151.0552   14.6524 O   0  0  0  0  0  0  0  0  0  0  0  0
   84.7259  149.8983   12.6446 O   0  0  0  0  0  0  0  0  0  0  0  0
   89.3807  149.9727   14.6853 O   0  0  0  0  0  0  0  0  0  0  0  0
   84.0872  151.7353   13.9909 H   0  0  0  0  0  0  0  0  0  0  0  0
   84.4329  150.8167   12.5374 H   0  0  0  0  0  0  0  0  0  0  0  0
   84.2077  156.3090   11.5703 O   0  0  0  0  0  0  0  0  0  0  0  0
   84.5988  156.8549   12.6173 C   0  0  0  0  0  0  0  0  0  0  0  0
   84.8869  156.1028   13.7825 N   0  0  0  0  0  0  0  0  0  0  0  0
   84.7706  158.2867   12.6805 N   0  0  0  0  0  0  0  0  0  0  0  0
   84.7272  156.7094   15.0800 C   0  0  0  0  0  0  0  0  0  0  0  0
   85.2233  158.8358   13.9445 C   0  0  0  0  0  0  0  0  0  0  0  0
   84.6222  158.1805   15.1267 C   0  0  0  0  0  0  0  0  0  0  0  0
   86.0362  159.7640   13.9366 O   0  0  0  0  0  0  0  0  0  0  0  0
   84.5893  158.8628   11.9030 H   0  0  0  0  0  0  0  0  0  0  0  0
   88.8201  150.5749   16.7827 O   0  0  0  0  0  0  0  0  0  0  0  0
   90.1458  150.7547   17.2509 C   0  0  0  0  0  0  0  0  0  0  0  0
   90.9618  151.4551   16.1802 C   0  0  0  0  0  0  0  0  0  0  0  0
   90.1985  151.5413   18.5315 C   0  0  0  0  0  0  0  0  0  0  0  0
   90.7217  149.3751   17.5001 C   0  0  0  0  0  0  0  0  0  0  0  0
 18 19  2  0
 19 20  1  0
 19 21  1  0
 20  1  1  0
 20 22  1  0
 21 23  1  0
 21 26  1  0
  1  2  2  0
  1  3  1  0
 22 24  1  0
 23 25  2  0
 23 24  1  0
  2  4  1  0
  3  5  2  0
  4  6  2  0
  5  6  1  0
  7  4  1  0
  7  9  1  0
  7 10  1  0
  8  6  1  0
  8 11  1  0
  8  9  1  0
  9 12  1  0
 10 13  1  0
 10 11  1  0
 11 14  1  0
 12 15  2  0
 12 27  1  0
 13 16  1  0
 14 17  1  0
 27 28  1  0
 28 29  1  0
 28 30  1  0
 28 31  1  0
M  END
> <Molecule Name>
Compound 4

> <EC50 (µM) (Excel)>
11.8

> <Error (µM)>
7.4

> <HTRC CRBN-DDB1 EC50 (µM)>
11.78 ±  7.41

> <EC50 fitting (µM)>
15.10

> <Modèle Fitting>
4PL

> <Parent_Compound>
Compound 4

> <MMFF94s_energy_kcalmol>
197.272
> <Compound_Name>
Compound_4_s13

> <Pose_Rank>
1

> <Docking_Affinity_kcal_mol>
-9.15

> <CNN_Affinity>
6.858

> <CNN_Pose_Score>
0.9682
$$$$

> <minimizedAffinity>
-9.14656

> <CNNscore>
0.9681974053

> <CNNaffinity>
6.8584270477

> <CNN_VS>
6.6403112411

> <CNNaffinity_variance>
0.1951401681

> <Compound_Name>
Compound_4_s13

> <Pose_Rank>
2

> <Docking_Affinity_kcal_mol>
-7.93

> <CNN_Affinity>
7.189

> <CNN_Pose_Score>
0.9538
$$$$
Compound_4_s13


 31 34  0  0  0  0  0  0  0  0999 V2000
   85.0419  155.0524   13.6123 C   0  0  0  0  0  0  0  0  0  0  0  0
   84.4268  154.0273   14.2843 C   0  0  0  0  0  0  0  0  0  0  0  0
   86.0504  154.7329   12.7261 C   0  0  0  0  0  0  0  0  0  0  0  0
   84.8199  152.7011   14.0690 C   0  0  0  0  0  0  0  0  0  0  0  0
   86.4503  153.4102   12.5040 C   0  0  0  0  0  0  0  0  0  0  0  0
   85.8307  152.3849   13.1807 C   0  0  0  0  0  0  0  0  0  0  0  0
   84.3688  151.3906   14.6190 C   0  0  0  0  0  0  0  0  0  0  0  0
   85.9922  150.9159   13.1960 C   0  0  0  0  0  0  0  0  0  0  0  0
   85.6482  150.6730   14.6035 N   0  0  0  0  0  0  0  0  0  0  0  0
   83.6772  150.6818   13.4796 C   0  0  0  0  0  0  0  0  0  0  0  0
   84.8008  150.2454   12.5483 C   0  0  0  0  0  0  0  0  0  0  0  0
   86.3400  149.9776   15.5855 C   0  0  0  0  0  0  0  0  0  0  0  0
   82.9304  151.6437   12.7867 O   0  0  0  0  0  0  0  0  0  0  0  0
   84.5952  150.6744   11.2490 O   0  0  0  0  0  0  0  0  0  0  0  0
   87.4415  149.4509   15.2787 O   0  0  0  0  0  0  0  0  0  0  0  0
   83.5148  152.3640   12.5031 H   0  0  0  0  0  0  0  0  0  0  0  0
   84.4911  151.6388   11.2396 H   0  0  0  0  0  0  0  0  0  0  0  0
   84.1679  156.8738   11.5801 O   0  0  0  0  0  0  0  0  0  0  0  0
   84.5619  157.3014   12.6797 C   0  0  0  0  0  0  0  0  0  0  0  0
   84.7077  156.4453   13.7987 N   0  0  0  0  0  0  0  0  0  0  0  0
   84.8838  158.6976   12.8536 N   0  0  0  0  0  0  0  0  0  0  0  0
   84.5486  156.9774   15.1286 C   0  0  0  0  0  0  0  0  0  0  0  0
   85.3284  159.1069   14.1724 C   0  0  0  0  0  0  0  0  0  0  0  0
   84.6008  158.4445   15.2771 C   0  0  0  0  0  0  0  0  0  0  0  0
   86.2360  159.9373   14.2667 O   0  0  0  0  0  0  0  0  0  0  0  0
   84.8054  159.3413   12.1127 H   0  0  0  0  0  0  0  0  0  0  0  0
   85.9129  149.8123   16.8939 O   0  0  0  0  0  0  0  0  0  0  0  0
   85.0210  148.7882   17.2994 C   0  0  0  0  0  0  0  0  0  0  0  0
   83.8539  149.4099   18.0439 C   0  0  0  0  0  0  0  0  0  0  0  0
   84.5145  147.9778   16.1383 C   0  0  0  0  0  0  0  0  0  0  0  0
   85.7863  147.8753   18.2364 C   0  0  0  0  0  0  0  0  0  0  0  0
 18 19  2  0
 19 20  1  0
 19 21  1  0
 20  1  1  0
 20 22  1  0
 21 23  1  0
 21 26  1  0
  1  2  2  0
  1  3  1  0
 22 24  1  0
 23 25  2  0
 23 24  1  0
  2  4  1  0
  3  5  2  0
  4  6  2  0
  5  6  1  0
  7  4  1  0
  7  9  1  0
  7 10  1  0
  8  6  1  0
  8 11  1  0
  8  9  1  0
  9 12  1  0
 10 13  1  0
 10 11  1  0
 11 14  1  0
 12 15  2  0
 12 27  1  0
 13 16  1  0
 14 17  1  0
 27 28  1  0
 28 29  1  0
 28 30  1  0
 28 31  1  0
M  END
> <Molecule Name>
Compound 4

> <EC50 (µM) (Excel)>
11.8

> <Error (µM)>
7.4

> <HTRC CRBN-DDB1 EC50 (µM)>
11.78 ±  7.41

> <EC50 fitting (µM)>
15.10

> <Modèle Fitting>
4PL

> <Parent_Compound>
Compound 4

> <MMFF94s_energy_kcalmol>
197.272
> <Compound_Name>
Compound_4_s13

> <Pose_Rank>
3

> <Docking_Affinity_kcal_mol>
-8.54

> <CNN_Affinity>
6.441

> <CNN_Pose_Score>
0.9237
$$$$

> <minimizedAffinity>
-7.93008

> <CNNscore>
0.9537550807

> <CNNaffinity>
7.1890482903

> <CNN_VS>
6.8565912247

> <CNNaffinity_variance>
0.3357006609

> <Compound_Name>
Compound_4_s13

> <Pose_Rank>
4

> <Docking_Affinity_kcal_mol>
-8.39

> <CNN_Affinity>
6.711

> <CNN_Pose_Score>
0.9173
$$$$
Compound_4_s13


 31 34  0  0  0  0  0  0  0  0999 V2000
   85.9350  154.5505   12.8746 C   0  0  0  0  0  0  0  0  0  0  0  0
   85.8869  153.3536   13.5425 C   0  0  0  0  0  0  0  0  0  0  0  0
   86.7177  154.6285   11.7406 C   0  0  0  0  0  0  0  0  0  0  0  0
   86.6150  152.2520   13.0777 C   0  0  0  0  0  0  0  0  0  0  0  0
   87.4490  153.5327   11.2681 C   0  0  0  0  0  0  0  0  0  0  0  0
   87.3981  152.3340   11.9416 C   0  0  0  0  0  0  0  0  0  0  0  0
   86.7755  150.8481   13.5538 C   0  0  0  0  0  0  0  0  0  0  0  0
   88.0235  151.0106   11.7367 C   0  0  0  0  0  0  0  0  0  0  0  0
   88.1650  150.6156   13.1446 N   0  0  0  0  0  0  0  0  0  0  0  0
   86.0727  149.9846   12.5343 C   0  0  0  0  0  0  0  0  0  0  0  0
   86.9856  149.9940   11.3150 C   0  0  0  0  0  0  0  0  0  0  0  0
   89.2796  150.1670   13.8394 C   0  0  0  0  0  0  0  0  0  0  0  0
   84.8990  150.6542   12.1639 O   0  0  0  0  0  0  0  0  0  0  0  0
   86.3139  150.3709   10.1655 O   0  0  0  0  0  0  0  0  0  0  0  0
   90.3682  150.0624   13.2158 O   0  0  0  0  0  0  0  0  0  0  0  0
   85.1213  151.5410   11.8399 H   0  0  0  0  0  0  0  0  0  0  0  0
   85.9053  151.2403   10.3002 H   0  0  0  0  0  0  0  0  0  0  0  0
   84.1771  156.1543   11.2780 O   0  0  0  0  0  0  0  0  0  0  0  0
   84.6212  156.5905   12.3549 C   0  0  0  0  0  0  0  0  0  0  0  0
   85.2312  155.7360   13.3057 N   0  0  0  0  0  0  0  0  0  0  0  0
   84.5261  157.9948   12.6750 N   0  0  0  0  0  0  0  0  0  0  0  0
   85.1708  156.0699   14.7064 C   0  0  0  0  0  0  0  0  0  0  0  0
   85.0643  158.4114   13.9560 C   0  0  0  0  0  0  0  0  0  0  0  0
   84.7974  157.4548   15.0524 C   0  0  0  0  0  0  0  0  0  0  0  0
   85.6741  159.4816   14.0291 O   0  0  0  0  0  0  0  0  0  0  0  0
   84.1156  158.6389   12.0537 H   0  0  0  0  0  0  0  0  0  0  0  0
   89.2942  149.8196   15.1813 O   0  0  0  0  0  0  0  0  0  0  0  0
   90.2879  150.2613   16.0902 C   0  0  0  0  0  0  0  0  0  0  0  0
   91.2260  149.1097   16.4012 C   0  0  0  0  0  0  0  0  0  0  0  0
   91.0707  151.4301   15.5586 C   0  0  0  0  0  0  0  0  0  0  0  0
   89.5753  150.6860   17.3586 C   0  0  0  0  0  0  0  0  0  0  0  0
 18 19  2  0
 19 20  1  0
 19 21  1  0
 20  1  1  0
 20 22  1  0
 21 23  1  0
 21 26  1  0
  1  2  2  0
  1  3  1  0
 22 24  1  0
 23 25  2  0
 23 24  1  0
  2  4  1  0
  3  5  2  0
  4  6  2  0
  5  6  1  0
  7  4  1  0
  7  9  1  0
  7 10  1  0
  8  6  1  0
  8 11  1  0
  8  9  1  0
  9 12  1  0
 10 13  1  0
 10 11  1  0
 11 14  1  0
 12 15  2  0
 12 27  1  0
 13 16  1  0
 14 17  1  0
 27 28  1  0
 28 29  1  0
 28 30  1  0
 28 31  1  0
M  END
> <Molecule Name>
Compound 4

> <EC50 (µM) (Excel)>
11.8

> <Error (µM)>
7.4

> <HTRC CRBN-DDB1 EC50 (µM)>
11.78 ±  7.41

> <EC50 fitting (µM)>
15.10

> <Modèle Fitting>
4PL

> <Parent_Compound>
Compound 4

> <MMFF94s_energy_kcalmol>
197.272
> <Compound_Name>
Compound_4_s13

> <Pose_Rank>
5

> <Docking_Affinity_kcal_mol>
-8.69

> <CNN_Affinity>
6.34

> <CNN_Pose_Score>
0.8035
$$$$
Compound_4_s16


 31 34  0  0  0  0  0  0  0  0999 V2000
   84.1340  154.8819   14.2582 C   0  0  0  0  0  0  0  0  0  0  0  0
   84.9028  153.7299   14.3269 C   0  0  0  0  0  0  0  0  0  0  0  0
   82.7698  154.6813   14.2623 C   0  0  0  0  0  0  0  0  0  0  0  0
   84.3357  152.4740   14.3947 C   0  0  0  0  0  0  0  0  0  0  0  0
   82.1919  153.4328   14.3294 C   0  0  0  0  0  0  0  0  0  0  0  0
   82.9660  152.3040   14.3968 C   0  0  0  0  0  0  0  0  0  0  0  0
   84.9017  151.0884   14.4843 C   0  0  0  0  0  0  0  0  0  0  0  0
   82.7074  150.8380   14.4696 C   0  0  0  0  0  0  0  0  0  0  0  0
   83.8436  150.4463   15.2857 N   0  0  0  0  0  0  0  0  0  0  0  0
   84.6678  150.4317   13.1656 C   0  0  0  0  0  0  0  0  0  0  0  0
   83.1529  150.2723   13.1421 C   0  0  0  0  0  0  0  0  0  0  0  0
   83.9198  149.7014   16.4549 C   0  0  0  0  0  0  0  0  0  0  0  0
   85.3084  149.2083   13.0337 O   0  0  0  0  0  0  0  0  0  0  0  0
   82.8528  148.9216   13.0152 O   0  0  0  0  0  0  0  0  0  0  0  0
   84.9831  149.4355   17.0625 O   0  0  0  0  0  0  0  0  0  0  0  0
   85.0111  148.6101   13.7371 H   0  0  0  0  0  0  0  0  0  0  0  0
   83.2771  148.4272   13.7339 H   0  0  0  0  0  0  0  0  0  0  0  0
   84.5629  156.1080   11.8784 O   0  0  0  0  0  0  0  0  0  0  0  0
   84.7217  156.8382   12.9003 C   0  0  0  0  0  0  0  0  0  0  0  0
   84.6721  156.1942   14.1871 N   0  0  0  0  0  0  0  0  0  0  0  0
   84.9382  158.2312   12.7627 N   0  0  0  0  0  0  0  0  0  0  0  0
   85.1732  156.9288   15.3119 C   0  0  0  0  0  0  0  0  0  0  0  0
   85.1074  158.9780   13.9716 C   0  0  0  0  0  0  0  0  0  0  0  0
   84.6248  158.3402   15.2239 C   0  0  0  0  0  0  0  0  0  0  0  0
   85.6431  160.1157   13.9345 O   0  0  0  0  0  0  0  0  0  0  0  0
   84.9707  158.6641   11.8791 H   0  0  0  0  0  0  0  0  0  0  0  0
   82.7447  149.2096   17.0018 O   0  0  0  0  0  0  0  0  0  0  0  0
   81.9841  149.8640   17.9767 C   0  0  0  0  0  0  0  0  0  0  0  0
   81.3390  148.8586   18.8939 C   0  0  0  0  0  0  0  0  0  0  0  0
   80.9291  150.7694   17.3819 C   0  0  0  0  0  0  0  0  0  0  0  0
   82.9208  150.7358   18.7874 C   0  0  0  0  0  0  0  0  0  0  0  0
 18 19  2  0
 19 20  1  0
 19 21  1  0
 20  1  1  0
 20 22  1  0
 21 23  1  0
 21 26  1  0
  1  2  2  0
  1  3  1  0
 22 24  1  0
 23 25  2  0
 23 24  1  0
  2  4  1  0
  3  5  2  0
  4  6  2  0
  5  6  1  0
  7  4  1  0
  7  9  1  0
  7 10  1  0
  8  6  1  0
  8 11  1  0
  8  9  1  0
  9 12  1  0
 10 13  1  0
 10 11  1  0
 11 14  1  0
 12 15  2  0
 12 27  1  0
 13 16  1  0
 14 17  1  0
 27 28  1  0
 28 29  1  0
 28 30  1  0
 28 31  1  0
M  END
> <Molecule Name>
Compound 4

> <EC50 (µM) (Excel)>
11.8

> <Error (µM)>
7.4

> <HTRC CRBN-DDB1 EC50 (µM)>
11.78 ±  7.41

> <EC50 fitting (µM)>
15.10

> <Modèle Fitting>
4PL

> <Parent_Compound>
Compound 4

> <MMFF94s_energy_kcalmol>
166.183
> <Compound_Name>
Compound_4_s16

> <Pose_Rank>
1

> <Docking_Affinity_kcal_mol>
-9.23

> <CNN_Affinity>
7.218

> <CNN_Pose_Score>
0.9668
$$$$

> <minimizedAffinity>
-9.23484

> <CNNscore>
0.9668022990

> <CNNaffinity>
7.2184119225

> <CNN_VS>
6.9787774086

> <CNNaffinity_variance>
0.2016038150

> <Compound_Name>
Compound_4_s16

> <Pose_Rank>
2

> <Docking_Affinity_kcal_mol>
-9.32

> <CNN_Affinity>
6.917

> <CNN_Pose_Score>
0.9027
$$$$
Compound_4_s16


 31 34  0  0  0  0  0  0  0  0999 V2000
   84.4919  154.4768   13.9500 C   0  0  0  0  0  0  0  0  0  0  0  0
   83.6149  153.9270   14.8728 C   0  0  0  0  0  0  0  0  0  0  0  0
   84.9863  153.5974   13.0100 C   0  0  0  0  0  0  0  0  0  0  0  0
   83.2657  152.5926   14.8463 C   0  0  0  0  0  0  0  0  0  0  0  0
   84.6454  152.2633   12.9735 C   0  0  0  0  0  0  0  0  0  0  0  0
   83.7772  151.7355   13.8930 C   0  0  0  0  0  0  0  0  0  0  0  0
   82.3588  151.7453   15.6875 C   0  0  0  0  0  0  0  0  0  0  0  0
   83.2019  150.3874   14.1633 C   0  0  0  0  0  0  0  0  0  0  0  0
   81.8985  150.7914   14.6616 N   0  0  0  0  0  0  0  0  0  0  0  0
   83.2272  150.8512   16.5070 C   0  0  0  0  0  0  0  0  0  0  0  0
   83.8256  149.9228   15.4578 C   0  0  0  0  0  0  0  0  0  0  0  0
   80.6163  150.4062   14.2940 C   0  0  0  0  0  0  0  0  0  0  0  0
   82.5341  150.1409   17.4763 O   0  0  0  0  0  0  0  0  0  0  0  0
   83.4765  148.6157   15.7741 O   0  0  0  0  0  0  0  0  0  0  0  0
   79.5638  150.8421   14.8166 O   0  0  0  0  0  0  0  0  0  0  0  0
   81.8452  149.6046   17.0536 H   0  0  0  0  0  0  0  0  0  0  0  0
   82.5113  148.5455   15.8391 H   0  0  0  0  0  0  0  0  0  0  0  0
   84.7484  155.8537   11.6285 O   0  0  0  0  0  0  0  0  0  0  0  0
   84.8400  156.5481   12.6831 C   0  0  0  0  0  0  0  0  0  0  0  0
   84.8804  155.8427   13.9376 N   0  0  0  0  0  0  0  0  0  0  0  0
   84.8989  157.9615   12.6111 N   0  0  0  0  0  0  0  0  0  0  0  0
   85.3129  156.5748   15.0921 C   0  0  0  0  0  0  0  0  0  0  0  0
   85.0016  158.6647   13.8531 C   0  0  0  0  0  0  0  0  0  0  0  0
   84.6105  157.9189   15.0774 C   0  0  0  0  0  0  0  0  0  0  0  0
   85.4074  159.8554   13.8664 O   0  0  0  0  0  0  0  0  0  0  0  0
   84.8707  158.4364   11.7492 H   0  0  0  0  0  0  0  0  0  0  0  0
   80.4730  149.4739   13.2781 O   0  0  0  0  0  0  0  0  0  0  0  0
   79.3066  148.7443   13.0243 C   0  0  0  0  0  0  0  0  0  0  0  0
   79.3489  147.4269   13.7528 C   0  0  0  0  0  0  0  0  0  0  0  0
   79.0760  148.5094   11.5484 C   0  0  0  0  0  0  0  0  0  0  0  0
   78.1334  149.5517   13.5406 C   0  0  0  0  0  0  0  0  0  0  0  0
 18 19  2  0
 19 20  1  0
 19 21  1  0
 20  1  1  0
 20 22  1  0
 21 23  1  0
 21 26  1  0
  1  2  2  0
  1  3  1  0
 22 24  1  0
 23 25  2  0
 23 24  1  0
  2  4  1  0
  3  5  2  0
  4  6  2  0
  5  6  1  0
  7  4  1  0
  7  9  1  0
  7 10  1  0
  8  6  1  0
  8 11  1  0
  8  9  1  0
  9 12  1  0
 10 13  1  0
 10 11  1  0
 11 14  1  0
 12 15  2  0
 12 27  1  0
 13 16  1  0
 14 17  1  0
 27 28  1  0
 28 29  1  0
 28 30  1  0
 28 31  1  0
M  END
> <Molecule Name>
Compound 4

> <EC50 (µM) (Excel)>
11.8

> <Error (µM)>
7.4

> <HTRC CRBN-DDB1 EC50 (µM)>
11.78 ±  7.41

> <EC50 fitting (µM)>
15.10

> <Modèle Fitting>
4PL

> <Parent_Compound>
Compound 4

> <MMFF94s_energy_kcalmol>
166.183
> <Compound_Name>
Compound_4_s16

> <Pose_Rank>
3

> <Docking_Affinity_kcal_mol>
-7.73

> <CNN_Affinity>
6.788

> <CNN_Pose_Score>
0.7494
$$$$

> <minimizedAffinity>
-9.31930

> <CNNscore>
0.9026932120

> <CNNaffinity>
6.9173946381

> <CNN_VS>
6.2442851067

> <CNNaffinity_variance>
0.1495946646

> <Compound_Name>
Compound_4_s16

> <Pose_Rank>
4

> <Docking_Affinity_kcal_mol>
-7.38

> <CNN_Affinity>
6.47

> <CNN_Pose_Score>
0.6347
$$$$
Compound_4_s16


 31 34  0  0  0  0  0  0  0  0999 V2000
   85.0485  154.1005   14.5169 C   0  0  0  0  0  0  0  0  0  0  0  0
   84.6342  153.1975   13.5495 C   0  0  0  0  0  0  0  0  0  0  0  0
   85.2576  153.5665   15.7709 C   0  0  0  0  0  0  0  0  0  0  0  0
   84.4464  151.8596   13.8291 C   0  0  0  0  0  0  0  0  0  0  0  0
   85.0733  152.2330   16.0623 C   0  0  0  0  0  0  0  0  0  0  0  0
   84.6634  151.3534   15.0947 C   0  0  0  0  0  0  0  0  0  0  0  0
   84.0237  150.6812   13.0040 C   0  0  0  0  0  0  0  0  0  0  0  0
   84.3606  149.8951   15.0402 C   0  0  0  0  0  0  0  0  0  0  0  0
   84.7951  149.6226   13.6811 N   0  0  0  0  0  0  0  0  0  0  0  0
   82.6428  150.3161   13.4338 C   0  0  0  0  0  0  0  0  0  0  0  0
   82.8667  149.7891   14.8455 C   0  0  0  0  0  0  0  0  0  0  0  0
   85.6637  148.6677   13.1698 C   0  0  0  0  0  0  0  0  0  0  0  0
   82.0444  149.3608   12.6251 O   0  0  0  0  0  0  0  0  0  0  0  0
   82.4177  148.4755   14.9031 O   0  0  0  0  0  0  0  0  0  0  0  0
   85.9527  148.5439   11.9566 O   0  0  0  0  0  0  0  0  0  0  0  0
   82.5900  148.5588   12.6140 H   0  0  0  0  0  0  0  0  0  0  0  0
   82.8684  147.9496   14.2240 H   0  0  0  0  0  0  0  0  0  0  0  0
   86.0544  154.9928   12.1625 O   0  0  0  0  0  0  0  0  0  0  0  0
   85.6399  155.8930   12.9504 C   0  0  0  0  0  0  0  0  0  0  0  0
   85.2550  155.4848   14.2764 N   0  0  0  0  0  0  0  0  0  0  0  0
   85.5649  157.2421   12.5257 N   0  0  0  0  0  0  0  0  0  0  0  0
   85.1068  156.5121   15.2656 C   0  0  0  0  0  0  0  0  0  0  0  0
   85.0848  158.1916   13.4826 C   0  0  0  0  0  0  0  0  0  0  0  0
   84.3236  157.6492   14.6379 C   0  0  0  0  0  0  0  0  0  0  0  0
   85.3164  159.4172   13.3185 O   0  0  0  0  0  0  0  0  0  0  0  0
   85.8300  157.5132   11.6172 H   0  0  0  0  0  0  0  0  0  0  0  0
   86.2620  147.7805   14.0511 O   0  0  0  0  0  0  0  0  0  0  0  0
   85.9103  146.4333   14.1877 C   0  0  0  0  0  0  0  0  0  0  0  0
   85.7556  146.0817   15.6438 C   0  0  0  0  0  0  0  0  0  0  0  0
   86.9077  145.5019   13.5362 C   0  0  0  0  0  0  0  0  0  0  0  0
   84.5809  146.2285   13.4908 C   0  0  0  0  0  0  0  0  0  0  0  0
 18 19  2  0
 19 20  1  0
 19 21  1  0
 20  1  1  0
 20 22  1  0
 21 23  1  0
 21 26  1  0
  1  2  2  0
  1  3  1  0
 22 24  1  0
 23 25  2  0
 23 24  1  0
  2  4  1  0
  3  5  2  0
  4  6  2  0
  5  6  1  0
  7  4  1  0
  7  9  1  0
  7 10  1  0
  8  6  1  0
  8 11  1  0
  8  9  1  0
  9 12  1  0
 10 13  1  0
 10 11  1  0
 11 14  1  0
 12 15  2  0
 12 27  1  0
 13 16  1  0
 14 17  1  0
 27 28  1  0
 28 29  1  0
 28 30  1  0
 28 31  1  0
M  END
> <Molecule Name>
Compound 4

> <EC50 (µM) (Excel)>
11.8

> <Error (µM)>
7.4

> <HTRC CRBN-DDB1 EC50 (µM)>
11.78 ±  7.41

> <EC50 fitting (µM)>
15.10

> <Modèle Fitting>
4PL

> <Parent_Compound>
Compound 4

> <MMFF94s_energy_kcalmol>
166.183
> <Compound_Name>
Compound_4_s16

> <Pose_Rank>
5

> <Docking_Affinity_kcal_mol>
-6.32

> <CNN_Affinity>
5.126

> <CNN_Pose_Score>
0.3096
$$$$
Compound_4_s1


 31 34  0  0  0  0  0  0  0  0999 V2000
   83.9846  154.9627   14.3503 C   0  0  0  0  0  0  0  0  0  0  0  0
   84.6303  153.7887   14.6882 C   0  0  0  0  0  0  0  0  0  0  0  0
   82.6296  154.9952   14.1501 C   0  0  0  0  0  0  0  0  0  0  0  0
   83.9573  152.6180   14.8372 C   0  0  0  0  0  0  0  0  0  0  0  0
   81.9386  153.7995   14.3017 C   0  0  0  0  0  0  0  0  0  0  0  0
   82.5847  152.6321   14.6382 C   0  0  0  0  0  0  0  0  0  0  0  0
   84.2932  151.2037   15.1828 C   0  0  0  0  0  0  0  0  0  0  0  0
   82.1112  151.2516   14.8578 C   0  0  0  0  0  0  0  0  0  0  0  0
   83.2818  150.5138   14.4008 N   0  0  0  0  0  0  0  0  0  0  0  0
   83.7331  150.9826   16.5689 C   0  0  0  0  0  0  0  0  0  0  0  0
   82.2199  150.9943   16.3460 C   0  0  0  0  0  0  0  0  0  0  0  0
   83.3295  149.4663   13.4803 C   0  0  0  0  0  0  0  0  0  0  0  0
   84.1714  149.7366   17.0021 O   0  0  0  0  0  0  0  0  0  0  0  0
   81.7212  149.7200   16.5828 O   0  0  0  0  0  0  0  0  0  0  0  0
   84.3716  148.8673   13.1247 O   0  0  0  0  0  0  0  0  0  0  0  0
   83.9158  149.0609   16.3549 H   0  0  0  0  0  0  0  0  0  0  0  0
   82.1890  149.0806   16.0232 H   0  0  0  0  0  0  0  0  0  0  0  0
   84.9074  156.0103   11.8932 O   0  0  0  0  0  0  0  0  0  0  0  0
   84.9086  156.7436   12.9188 C   0  0  0  0  0  0  0  0  0  0  0  0
   84.7399  156.1803   14.2032 N   0  0  0  0  0  0  0  0  0  0  0  0
   85.0796  158.1499   12.8013 N   0  0  0  0  0  0  0  0  0  0  0  0
   85.3327  156.8438   15.3427 C   0  0  0  0  0  0  0  0  0  0  0  0
   85.0712  158.9216   14.0005 C   0  0  0  0  0  0  0  0  0  0  0  0
   84.9321  158.2894   15.3295 C   0  0  0  0  0  0  0  0  0  0  0  0
   85.1843  160.1546   13.9109 O   0  0  0  0  0  0  0  0  0  0  0  0
   85.1997  158.5765   11.9223 H   0  0  0  0  0  0  0  0  0  0  0  0
   82.1436  149.0350   12.8981 O   0  0  0  0  0  0  0  0  0  0  0  0
   81.6395  147.7364   13.0137 C   0  0  0  0  0  0  0  0  0  0  0  0
   80.3669  147.5206   12.2237 C   0  0  0  0  0  0  0  0  0  0  0  0
   82.6367  146.6735   12.6302 C   0  0  0  0  0  0  0  0  0  0  0  0
   81.3164  147.5162   14.4965 C   0  0  0  0  0  0  0  0  0  0  0  0
 18 19  2  0
 19 20  1  0
 19 21  1  0
 20  1  1  0
 20 22  1  0
 21 23  1  0
 21 26  1  0
  1  2  2  0
  1  3  1  0
 22 24  1  0
 23 25  2  0
 23 24  1  0
  2  4  1  0
  3  5  2  0
  4  6  2  0
  5  6  1  0
  7  4  1  0
  7  9  1  0
  7 10  1  0
  8  6  1  0
  8 11  1  0
  8  9  1  0
  9 12  1  0
 10 13  1  0
 10 11  1  0
 11 14  1  0
 12 15  2  0
 12 27  1  0
 13 16  1  0
 14 17  1  0
 27 28  1  0
 28 29  1  0
 28 30  1  0
 28 31  1  0
M  END
> <Molecule Name>
Compound 4

> <EC50 (µM) (Excel)>
11.8

> <Error (µM)>
7.4

> <HTRC CRBN-DDB1 EC50 (µM)>
11.78 ±  7.41

> <EC50 fitting (µM)>
15.10

> <Modèle Fitting>
4PL

> <Parent_Compound>
Compound 4

> <MMFF94s_energy_kcalmol>
171.662
> <Compound_Name>
Compound_4_s1

> <Pose_Rank>
1

> <Docking_Affinity_kcal_mol>
-8.36

> <CNN_Affinity>
7.139

> <CNN_Pose_Score>
0.8732
$$$$

> <minimizedAffinity>
-8.35683

> <CNNscore>
0.8732074499

> <CNNaffinity>
7.1393609047

> <CNN_VS>
6.2341432571

> <CNNaffinity_variance>
0.3904861510

> <Compound_Name>
Compound_4_s1

> <Pose_Rank>
2

> <Docking_Affinity_kcal_mol>
-7.82

> <CNN_Affinity>
7.108

> <CNN_Pose_Score>
0.7779
$$$$
Compound_4_s1


 31 34  0  0  0  0  0  0  0  0999 V2000
   84.4647  154.0902   14.0381 C   0  0  0  0  0  0  0  0  0  0  0  0
   84.1052  153.5477   15.2570 C   0  0  0  0  0  0  0  0  0  0  0  0
   84.2296  153.4207   12.8661 C   0  0  0  0  0  0  0  0  0  0  0  0
   83.5055  152.3324   15.3515 C   0  0  0  0  0  0  0  0  0  0  0  0
   83.6164  152.1775   12.9596 C   0  0  0  0  0  0  0  0  0  0  0  0
   83.2598  151.6401   14.1750 C   0  0  0  0  0  0  0  0  0  0  0  0
   82.9900  151.4529   16.4439 C   0  0  0  0  0  0  0  0  0  0  0  0
   82.6129  150.3702   14.5586 C   0  0  0  0  0  0  0  0  0  0  0  0
   83.2470  150.1513   15.8522 N   0  0  0  0  0  0  0  0  0  0  0  0
   81.4845  151.4931   16.3183 C   0  0  0  0  0  0  0  0  0  0  0  0
   81.2161  150.7255   15.0228 C   0  0  0  0  0  0  0  0  0  0  0  0
   83.8897  148.9998   16.3081 C   0  0  0  0  0  0  0  0  0  0  0  0
   80.9561  150.8287   17.4192 O   0  0  0  0  0  0  0  0  0  0  0  0
   80.5679  149.5366   15.3313 O   0  0  0  0  0  0  0  0  0  0  0  0
   84.4192  148.8699   17.4368 O   0  0  0  0  0  0  0  0  0  0  0  0
   81.3299  149.9349   17.4675 H   0  0  0  0  0  0  0  0  0  0  0  0
   81.0964  149.0374   15.9734 H   0  0  0  0  0  0  0  0  0  0  0  0
   86.0480  155.0347   11.8963 O   0  0  0  0  0  0  0  0  0  0  0  0
   85.6310  155.8485   12.7643 C   0  0  0  0  0  0  0  0  0  0  0  0
   85.0987  155.3826   13.9870 N   0  0  0  0  0  0  0  0  0  0  0  0
   85.6888  157.2492   12.5284 N   0  0  0  0  0  0  0  0  0  0  0  0
   85.2046  156.2190   15.1614 C   0  0  0  0  0  0  0  0  0  0  0  0
   85.2007  158.1149   13.5511 C   0  0  0  0  0  0  0  0  0  0  0  0
   84.6881  157.5888   14.8340 C   0  0  0  0  0  0  0  0  0  0  0  0
   85.2124  159.3389   13.3450 O   0  0  0  0  0  0  0  0  0  0  0  0
   86.0533  157.6092   11.6877 H   0  0  0  0  0  0  0  0  0  0  0  0
   83.9622  147.8976   15.4647 O   0  0  0  0  0  0  0  0  0  0  0  0
   85.0110  147.6603   14.5718 C   0  0  0  0  0  0  0  0  0  0  0  0
   84.5371  147.3177   13.1761 C   0  0  0  0  0  0  0  0  0  0  0  0
   85.9911  148.8020   14.4864 C   0  0  0  0  0  0  0  0  0  0  0  0
   85.7909  146.4561   15.1132 C   0  0  0  0  0  0  0  0  0  0  0  0
 18 19  2  0
 19 20  1  0
 19 21  1  0
 20  1  1  0
 20 22  1  0
 21 23  1  0
 21 26  1  0
  1  2  2  0
  1  3  1  0
 22 24  1  0
 23 25  2  0
 23 24  1  0
  2  4  1  0
  3  5  2  0
  4  6  2  0
  5  6  1  0
  7  4  1  0
  7  9  1  0
  7 10  1  0
  8  6  1  0
  8 11  1  0
  8  9  1  0
  9 12  1  0
 10 13  1  0
 10 11  1  0
 11 14  1  0
 12 15  2  0
 12 27  1  0
 13 16  1  0
 14 17  1  0
 27 28  1  0
 28 29  1  0
 28 30  1  0
 28 31  1  0
M  END
> <Molecule Name>
Compound 4

> <EC50 (µM) (Excel)>
11.8

> <Error (µM)>
7.4

> <HTRC CRBN-DDB1 EC50 (µM)>
11.78 ±  7.41

> <EC50 fitting (µM)>
15.10

> <Modèle Fitting>
4PL

> <Parent_Compound>
Compound 4

> <MMFF94s_energy_kcalmol>
171.662
> <Compound_Name>
Compound_4_s1

> <Pose_Rank>
3

> <Docking_Affinity_kcal_mol>
-7.85

> <CNN_Affinity>
6.251

> <CNN_Pose_Score>
0.5437
$$$$

> <minimizedAffinity>
-7.81765

> <CNNscore>
0.7779474258

> <CNNaffinity>
7.1080970764

> <CNN_VS>
5.5297260284

> <CNNaffinity_variance>
0.8184614182

> <Compound_Name>
Compound_4_s1

> <Pose_Rank>
4

> <Docking_Affinity_kcal_mol>
-7.67

> <CNN_Affinity>
7.012

> <CNN_Pose_Score>
0.5339
$$$$
Compound_4_s1


 31 34  0  0  0  0  0  0  0  0999 V2000
   84.7378  153.5136   14.5521 C   0  0  0  0  0  0  0  0  0  0  0  0
   83.3805  153.2628   14.6156 C   0  0  0  0  0  0  0  0  0  0  0  0
   85.6544  152.5366   14.8396 C   0  0  0  0  0  0  0  0  0  0  0  0
   82.8926  152.0437   14.9639 C   0  0  0  0  0  0  0  0  0  0  0  0
   85.1583  151.2887   15.1961 C   0  0  0  0  0  0  0  0  0  0  0  0
   83.8060  151.0424   15.2585 C   0  0  0  0  0  0  0  0  0  0  0  0
   81.5475  151.4159   15.1347 C   0  0  0  0  0  0  0  0  0  0  0  0
   83.0206  149.8409   15.6016 C   0  0  0  0  0  0  0  0  0  0  0  0
   81.8505  150.4729   16.1973 N   0  0  0  0  0  0  0  0  0  0  0  0
   81.4014  150.4533   13.9788 C   0  0  0  0  0  0  0  0  0  0  0  0
   82.4063  149.3483   14.3083 C   0  0  0  0  0  0  0  0  0  0  0  0
   81.2602  150.1944   17.4306 C   0  0  0  0  0  0  0  0  0  0  0  0
   80.0968  149.9734   13.9979 O   0  0  0  0  0  0  0  0  0  0  0  0
   81.7116  148.1814   14.5985 O   0  0  0  0  0  0  0  0  0  0  0  0
   80.2494  150.7744   17.8922 O   0  0  0  0  0  0  0  0  0  0  0  0
   79.9073  149.5867   14.8671 H   0  0  0  0  0  0  0  0  0  0  0  0
   81.0773  148.3518   15.3123 H   0  0  0  0  0  0  0  0  0  0  0  0
   86.1165  154.1168   12.1601 O   0  0  0  0  0  0  0  0  0  0  0  0
   85.6363  155.0551   12.8518 C   0  0  0  0  0  0  0  0  0  0  0  0
   85.2090  154.8223   14.1780 N   0  0  0  0  0  0  0  0  0  0  0  0
   85.5161  156.3639   12.3100 N   0  0  0  0  0  0  0  0  0  0  0  0
   85.2560  155.9090   15.1303 C   0  0  0  0  0  0  0  0  0  0  0  0
   84.9647  157.3796   13.1454 C   0  0  0  0  0  0  0  0  0  0  0  0
   84.5664  157.1044   14.5422 C   0  0  0  0  0  0  0  0  0  0  0  0
   84.8212  158.5191   12.6744 O   0  0  0  0  0  0  0  0  0  0  0  0
   85.8036  156.5622   11.3896 H   0  0  0  0  0  0  0  0  0  0  0  0
   81.8169  149.2017   18.2280 O   0  0  0  0  0  0  0  0  0  0  0  0
   82.7215  149.4439   19.2656 C   0  0  0  0  0  0  0  0  0  0  0  0
   82.1007  149.3073   20.6390 C   0  0  0  0  0  0  0  0  0  0  0  0
   83.9515  148.5757   19.1990 C   0  0  0  0  0  0  0  0  0  0  0  0
   83.2010  150.8919   19.1075 C   0  0  0  0  0  0  0  0  0  0  0  0
 18 19  2  0
 19 20  1  0
 19 21  1  0
 20  1  1  0
 20 22  1  0
 21 23  1  0
 21 26  1  0
  1  2  2  0
  1  3  1  0
 22 24  1  0
 23 25  2  0
 23 24  1  0
  2  4  1  0
  3  5  2  0
  4  6  2  0
  5  6  1  0
  7  4  1  0
  7  9  1  0
  7 10  1  0
  8  6  1  0
  8 11  1  0
  8  9  1  0
  9 12  1  0
 10 13  1  0
 10 11  1  0
 11 14  1  0
 12 15  2  0
 12 27  1  0
 13 16  1  0
 14 17  1  0
 27 28  1  0
 28 29  1  0
 28 30  1  0
 28 31  1  0
M  END
> <Molecule Name>
Compound 4

> <EC50 (µM) (Excel)>
11.8

> <Error (µM)>
7.4

> <HTRC CRBN-DDB1 EC50 (µM)>
11.78 ±  7.41

> <EC50 fitting (µM)>
15.10

> <Modèle Fitting>
4PL

> <Parent_Compound>
Compound 4

> <MMFF94s_energy_kcalmol>
171.662
> <Compound_Name>
Compound_4_s1

> <Pose_Rank>
5

> <Docking_Affinity_kcal_mol>
-6.47

> <CNN_Affinity>
5.418

> <CNN_Pose_Score>
0.3295
$$$$
Compound_4_s4


 31 34  0  0  0  0  0  0  0  0999 V2000
   84.1574  154.9794   14.2387 C   0  0  0  0  0  0  0  0  0  0  0  0
   85.0555  153.9263   14.2117 C   0  0  0  0  0  0  0  0  0  0  0  0
   82.8195  154.6224   14.3468 C   0  0  0  0  0  0  0  0  0  0  0  0
   84.6765  152.6044   14.2855 C   0  0  0  0  0  0  0  0  0  0  0  0
   82.3882  153.3146   14.4237 C   0  0  0  0  0  0  0  0  0  0  0  0
   83.3276  152.3090   14.3921 C   0  0  0  0  0  0  0  0  0  0  0  0
   85.4000  151.2863   14.2839 C   0  0  0  0  0  0  0  0  0  0  0  0
   83.2506  150.8214   14.4464 C   0  0  0  0  0  0  0  0  0  0  0  0
   84.4958  150.5406   15.1279 N   0  0  0  0  0  0  0  0  0  0  0  0
   85.1229  150.6249   12.9526 C   0  0  0  0  0  0  0  0  0  0  0  0
   83.6222  150.3467   13.0538 C   0  0  0  0  0  0  0  0  0  0  0  0
   84.6856  149.7592   16.2733 C   0  0  0  0  0  0  0  0  0  0  0  0
   85.4031  151.4533   11.8738 O   0  0  0  0  0  0  0  0  0  0  0  0
   82.9946  151.0853   12.0707 O   0  0  0  0  0  0  0  0  0  0  0  0
   85.8267  149.5696   16.8025 O   0  0  0  0  0  0  0  0  0  0  0  0
   84.8888  152.2719   11.9526 H   0  0  0  0  0  0  0  0  0  0  0  0
   83.2295  152.0212   12.1699 H   0  0  0  0  0  0  0  0  0  0  0  0
   84.3060  156.3476   11.8262 O   0  0  0  0  0  0  0  0  0  0  0  0
   84.5800  156.9618   12.8912 C   0  0  0  0  0  0  0  0  0  0  0  0
   84.5693  156.3341   14.1614 N   0  0  0  0  0  0  0  0  0  0  0  0
   84.9092  158.3529   12.7538 N   0  0  0  0  0  0  0  0  0  0  0  0
   84.9664  157.0630   15.3212 C   0  0  0  0  0  0  0  0  0  0  0  0
   85.2203  159.0534   13.9564 C   0  0  0  0  0  0  0  0  0  0  0  0
   84.6199  158.5455   15.2142 C   0  0  0  0  0  0  0  0  0  0  0  0
   85.9854  160.0708   13.9227 O   0  0  0  0  0  0  0  0  0  0  0  0
   84.9197  158.7991   11.8763 H   0  0  0  0  0  0  0  0  0  0  0  0
   83.6330  149.1163   16.9383 O   0  0  0  0  0  0  0  0  0  0  0  0
   83.0683  149.5716   18.1267 C   0  0  0  0  0  0  0  0  0  0  0  0
   83.7689  149.0919   19.3606 C   0  0  0  0  0  0  0  0  0  0  0  0
   81.5888  149.2773   18.1478 C   0  0  0  0  0  0  0  0  0  0  0  0
   83.2003  151.1016   18.1173 C   0  0  0  0  0  0  0  0  0  0  0  0
 18 19  2  0
 19 20  1  0
 19 21  1  0
 20  1  1  0
 20 22  1  0
 21 23  1  0
 21 26  1  0
  1  2  2  0
  1  3  1  0
 22 24  1  0
 23 25  2  0
 23 24  1  0
  2  4  1  0
  3  5  2  0
  4  6  2  0
  5  6  1  0
  7  4  1  0
  7  9  1  0
  7 10  1  0
  8  6  1  0
  8 11  1  0
  8  9  1  0
  9 12  1  0
 10 13  1  0
 10 11  1  0
 11 14  1  0
 12 15  2  0
 12 27  1  0
 13 16  1  0
 14 17  1  0
 27 28  1  0
 28 29  1  0
 28 30  1  0
 28 31  1  0
M  END
> <Molecule Name>
Compound 4

> <EC50 (µM) (Excel)>
11.8

> <Error (µM)>
7.4

> <HTRC CRBN-DDB1 EC50 (µM)>
11.78 ±  7.41

> <EC50 fitting (µM)>
15.10

> <Modèle Fitting>
4PL

> <Parent_Compound>
Compound 4

> <MMFF94s_energy_kcalmol>
179.945
> <Compound_Name>
Compound_4_s4

> <Pose_Rank>
1

> <Docking_Affinity_kcal_mol>
-9.39

> <CNN_Affinity>
7.397

> <CNN_Pose_Score>
0.972
$$$$

> <minimizedAffinity>
-9.38529

> <CNNscore>
0.9720361233

> <CNNaffinity>
7.3967170715

> <CNN_VS>
7.1898760796

> <CNNaffinity_variance>
0.3947106600

> <Compound_Name>
Compound_4_s4

> <Pose_Rank>
2

> <Docking_Affinity_kcal_mol>
-8.48

> <CNN_Affinity>
7.05

> <CNN_Pose_Score>
0.9601
$$$$
Compound_4_s4


 31 34  0  0  0  0  0  0  0  0999 V2000
   84.4583  154.6575   14.1863 C   0  0  0  0  0  0  0  0  0  0  0  0
   85.4499  153.6993   14.0644 C   0  0  0  0  0  0  0  0  0  0  0  0
   83.1764  154.1683   14.4013 C   0  0  0  0  0  0  0  0  0  0  0  0
   85.2105  152.3457   14.1466 C   0  0  0  0  0  0  0  0  0  0  0  0
   82.8840  152.8235   14.4913 C   0  0  0  0  0  0  0  0  0  0  0  0
   83.9114  151.9166   14.3621 C   0  0  0  0  0  0  0  0  0  0  0  0
   86.0571  151.1061   14.0601 C   0  0  0  0  0  0  0  0  0  0  0  0
   83.9859  150.4282   14.3963 C   0  0  0  0  0  0  0  0  0  0  0  0
   85.3069  150.2664   14.9645 N   0  0  0  0  0  0  0  0  0  0  0  0
   85.7325  150.4328   12.7456 C   0  0  0  0  0  0  0  0  0  0  0  0
   84.2808  150.0058   12.9690 C   0  0  0  0  0  0  0  0  0  0  0  0
   85.6707  149.4971   16.0755 C   0  0  0  0  0  0  0  0  0  0  0  0
   85.8359  151.2949   11.6618 O   0  0  0  0  0  0  0  0  0  0  0  0
   83.5012  150.6874   12.0560 O   0  0  0  0  0  0  0  0  0  0  0  0
   86.8663  149.4170   16.5024 O   0  0  0  0  0  0  0  0  0  0  0  0
   85.2523  152.0576   11.7985 H   0  0  0  0  0  0  0  0  0  0  0  0
   83.6506  151.6411   12.1515 H   0  0  0  0  0  0  0  0  0  0  0  0
   84.5460  155.9989   11.7558 O   0  0  0  0  0  0  0  0  0  0  0  0
   84.7157  156.6541   12.8181 C   0  0  0  0  0  0  0  0  0  0  0  0
   84.7269  156.0472   14.0984 N   0  0  0  0  0  0  0  0  0  0  0  0
   84.9004  158.0702   12.6667 N   0  0  0  0  0  0  0  0  0  0  0  0
   85.0034  156.8308   15.2575 C   0  0  0  0  0  0  0  0  0  0  0  0
   85.0929  158.8171   13.8663 C   0  0  0  0  0  0  0  0  0  0  0  0
   84.5058  158.2663   15.1122 C   0  0  0  0  0  0  0  0  0  0  0  0
   85.7467  159.9096   13.8398 O   0  0  0  0  0  0  0  0  0  0  0  0
   84.8944  158.5023   11.7822 H   0  0  0  0  0  0  0  0  0  0  0  0
   84.7477  148.7466   16.8160 O   0  0  0  0  0  0  0  0  0  0  0  0
   85.0298  147.5089   17.3880 C   0  0  0  0  0  0  0  0  0  0  0  0
   85.9260  146.6414   16.5587 C   0  0  0  0  0  0  0  0  0  0  0  0
   83.7509  146.8127   17.7825 C   0  0  0  0  0  0  0  0  0  0  0  0
   85.7844  147.7915   18.6953 C   0  0  0  0  0  0  0  0  0  0  0  0
 18 19  2  0
 19 20  1  0
 19 21  1  0
 20  1  1  0
 20 22  1  0
 21 23  1  0
 21 26  1  0
  1  2  2  0
  1  3  1  0
 22 24  1  0
 23 25  2  0
 23 24  1  0
  2  4  1  0
  3  5  2  0
  4  6  2  0
  5  6  1  0
  7  4  1  0
  7  9  1  0
  7 10  1  0
  8  6  1  0
  8 11  1  0
  8  9  1  0
  9 12  1  0
 10 13  1  0
 10 11  1  0
 11 14  1  0
 12 15  2  0
 12 27  1  0
 13 16  1  0
 14 17  1  0
 27 28  1  0
 28 29  1  0
 28 30  1  0
 28 31  1  0
M  END
> <Molecule Name>
Compound 4

> <EC50 (µM) (Excel)>
11.8

> <Error (µM)>
7.4

> <HTRC CRBN-DDB1 EC50 (µM)>
11.78 ±  7.41

> <EC50 fitting (µM)>
15.10

> <Modèle Fitting>
4PL

> <Parent_Compound>
Compound 4

> <MMFF94s_energy_kcalmol>
179.945
> <Compound_Name>
Compound_4_s4

> <Pose_Rank>
3

> <Docking_Affinity_kcal_mol>
-9.57

> <CNN_Affinity>
6.98

> <CNN_Pose_Score>
0.9161
$$$$

> <minimizedAffinity>
-8.47890

> <CNNscore>
0.9601237774

> <CNNaffinity>
7.0496039391

> <CNN_VS>
6.7684922218

> <CNNaffinity_variance>
0.2861924767

> <Compound_Name>
Compound_4_s4

> <Pose_Rank>
4

> <Docking_Affinity_kcal_mol>
-8.43

> <CNN_Affinity>
6.71

> <CNN_Pose_Score>
0.8764
$$$$
Compound_4_s4


 31 34  0  0  0  0  0  0  0  0999 V2000
   84.7148  154.4789   13.7998 C   0  0  0  0  0  0  0  0  0  0  0  0
   83.8227  153.8133   14.6227 C   0  0  0  0  0  0  0  0  0  0  0  0
   85.4472  153.6746   12.9363 C   0  0  0  0  0  0  0  0  0  0  0  0
   83.6520  152.4469   14.6079 C   0  0  0  0  0  0  0  0  0  0  0  0
   85.3139  152.3029   12.8825 C   0  0  0  0  0  0  0  0  0  0  0  0
   84.4105  151.6960   13.7253 C   0  0  0  0  0  0  0  0  0  0  0  0
   82.7854  151.4726   15.3568 C   0  0  0  0  0  0  0  0  0  0  0  0
   84.0008  150.2813   13.9546 C   0  0  0  0  0  0  0  0  0  0  0  0
   82.6145  150.4875   14.3145 N   0  0  0  0  0  0  0  0  0  0  0  0
   83.6853  150.7051   16.2990 C   0  0  0  0  0  0  0  0  0  0  0  0
   84.5554  149.9163   15.3191 C   0  0  0  0  0  0  0  0  0  0  0  0
   81.4871  149.8691   13.7619 C   0  0  0  0  0  0  0  0  0  0  0  0
   84.4621  151.5369   17.0949 O   0  0  0  0  0  0  0  0  0  0  0  0
   85.8576  150.3454   15.4800 O   0  0  0  0  0  0  0  0  0  0  0  0
   80.3006  150.1177   14.1473 O   0  0  0  0  0  0  0  0  0  0  0  0
   84.9917  152.1219   16.5309 H   0  0  0  0  0  0  0  0  0  0  0  0
   85.8987  151.3067   15.3577 H   0  0  0  0  0  0  0  0  0  0  0  0
   84.5079  156.0452   11.5155 O   0  0  0  0  0  0  0  0  0  0  0  0
   84.7161  156.6092   12.6223 C   0  0  0  0  0  0  0  0  0  0  0  0
   84.8749  155.8876   13.8313 N   0  0  0  0  0  0  0  0  0  0  0  0
   84.7858  158.0434   12.5997 N   0  0  0  0  0  0  0  0  0  0  0  0
   85.1880  156.5784   15.0392 C   0  0  0  0  0  0  0  0  0  0  0  0
   85.0213  158.6873   13.8502 C   0  0  0  0  0  0  0  0  0  0  0  0
   84.5785  157.9772   15.0751 C   0  0  0  0  0  0  0  0  0  0  0  0
   85.5907  159.8259   13.8846 O   0  0  0  0  0  0  0  0  0  0  0  0
   84.6769  158.5548   11.7656 H   0  0  0  0  0  0  0  0  0  0  0  0
   81.5675  148.9205   12.7338 O   0  0  0  0  0  0  0  0  0  0  0  0
   80.6602  147.8784   12.5624 C   0  0  0  0  0  0  0  0  0  0  0  0
   81.2205  146.6914   11.8407 C   0  0  0  0  0  0  0  0  0  0  0  0
   79.3881  148.3919   11.9346 C   0  0  0  0  0  0  0  0  0  0  0  0
   80.2783  147.3934   13.9685 C   0  0  0  0  0  0  0  0  0  0  0  0
 18 19  2  0
 19 20  1  0
 19 21  1  0
 20  1  1  0
 20 22  1  0
 21 23  1  0
 21 26  1  0
  1  2  2  0
  1  3  1  0
 22 24  1  0
 23 25  2  0
 23 24  1  0
  2  4  1  0
  3  5  2  0
  4  6  2  0
  5  6  1  0
  7  4  1  0
  7  9  1  0
  7 10  1  0
  8  6  1  0
  8 11  1  0
  8  9  1  0
  9 12  1  0
 10 13  1  0
 10 11  1  0
 11 14  1  0
 12 15  2  0
 12 27  1  0
 13 16  1  0
 14 17  1  0
 27 28  1  0
 28 29  1  0
 28 30  1  0
 28 31  1  0
M  END
> <Molecule Name>
Compound 4

> <EC50 (µM) (Excel)>
11.8

> <Error (µM)>
7.4

> <HTRC CRBN-DDB1 EC50 (µM)>
11.78 ±  7.41

> <EC50 fitting (µM)>
15.10

> <Modèle Fitting>
4PL

> <Parent_Compound>
Compound 4

> <MMFF94s_energy_kcalmol>
179.945
> <Compound_Name>
Compound_4_s4

> <Pose_Rank>
5

> <Docking_Affinity_kcal_mol>
-8.78

> <CNN_Affinity>
7.162

> <CNN_Pose_Score>
0.871
$$$$
Compound_4_s5


 31 34  0  0  0  0  0  0  0  0999 V2000
   83.9619  154.9773   14.3233 C   0  0  0  0  0  0  0  0  0  0  0  0
   84.6168  153.8332   14.7242 C   0  0  0  0  0  0  0  0  0  0  0  0
   82.6040  154.9701   14.0509 C   0  0  0  0  0  0  0  0  0  0  0  0
   83.9503  152.6534   14.8666 C   0  0  0  0  0  0  0  0  0  0  0  0
   81.9329  153.7573   14.2001 C   0  0  0  0  0  0  0  0  0  0  0  0
   82.5949  152.6250   14.5996 C   0  0  0  0  0  0  0  0  0  0  0  0
   84.3187  151.2635   15.2698 C   0  0  0  0  0  0  0  0  0  0  0  0
   82.1564  151.2238   14.8372 C   0  0  0  0  0  0  0  0  0  0  0  0
   83.3706  150.5300   14.4740 N   0  0  0  0  0  0  0  0  0  0  0  0
   83.7028  151.0742   16.6429 C   0  0  0  0  0  0  0  0  0  0  0  0
   82.2040  151.0278   16.3383 C   0  0  0  0  0  0  0  0  0  0  0  0
   83.5090  149.4617   13.5952 C   0  0  0  0  0  0  0  0  0  0  0  0
   84.0085  152.1658   17.4333 O   0  0  0  0  0  0  0  0  0  0  0  0
   81.7095  149.7823   16.6432 O   0  0  0  0  0  0  0  0  0  0  0  0
   84.6492  148.9346   13.3592 O   0  0  0  0  0  0  0  0  0  0  0  0
   83.7100  152.9772   16.9934 H   0  0  0  0  0  0  0  0  0  0  0  0
   82.2084  149.1082   16.1557 H   0  0  0  0  0  0  0  0  0  0  0  0
   84.8358  156.0479   11.8576 O   0  0  0  0  0  0  0  0  0  0  0  0
   84.8596  156.7674   12.8945 C   0  0  0  0  0  0  0  0  0  0  0  0
   84.6886  156.1945   14.1843 N   0  0  0  0  0  0  0  0  0  0  0  0
   85.0589  158.1799   12.8050 N   0  0  0  0  0  0  0  0  0  0  0  0
   85.2664  156.8774   15.3207 C   0  0  0  0  0  0  0  0  0  0  0  0
   85.0770  158.9445   14.0049 C   0  0  0  0  0  0  0  0  0  0  0  0
   84.8587  158.3304   15.3309 C   0  0  0  0  0  0  0  0  0  0  0  0
   85.2861  160.1982   13.9577 O   0  0  0  0  0  0  0  0  0  0  0  0
   85.1812  158.6152   11.9304 H   0  0  0  0  0  0  0  0  0  0  0  0
   82.4554  148.8729   12.9026 O   0  0  0  0  0  0  0  0  0  0  0  0
   81.6562  147.8492   13.4052 C   0  0  0  0  0  0  0  0  0  0  0  0
   82.2913  147.0983   14.5484 C   0  0  0  0  0  0  0  0  0  0  0  0
   80.2698  148.2908   13.7966 C   0  0  0  0  0  0  0  0  0  0  0  0
   81.4808  146.8243   12.2758 C   0  0  0  0  0  0  0  0  0  0  0  0
 18 19  2  0
 19 20  1  0
 19 21  1  0
 20  1  1  0
 20 22  1  0
 21 23  1  0
 21 26  1  0
  1  2  2  0
  1  3  1  0
 22 24  1  0
 23 25  2  0
 23 24  1  0
  2  4  1  0
  3  5  2  0
  4  6  2  0
  5  6  1  0
  7  4  1  0
  7  9  1  0
  7 10  1  0
  8  6  1  0
  8 11  1  0
  8  9  1  0
  9 12  1  0
 10 13  1  0
 10 11  1  0
 11 14  1  0
 12 15  2  0
 12 27  1  0
 13 16  1  0
 14 17  1  0
 27 28  1  0
 28 29  1  0
 28 30  1  0
 28 31  1  0
M  END
> <Molecule Name>
Compound 4

> <EC50 (µM) (Excel)>
11.8

> <Error (µM)>
7.4

> <HTRC CRBN-DDB1 EC50 (µM)>
11.78 ±  7.41

> <EC50 fitting (µM)>
15.10

> <Modèle Fitting>
4PL

> <Parent_Compound>
Compound 4

> <MMFF94s_energy_kcalmol>
163.563
> <Compound_Name>
Compound_4_s5

> <Pose_Rank>
1

> <Docking_Affinity_kcal_mol>
-8.67

> <CNN_Affinity>
7.097

> <CNN_Pose_Score>
0.8525
$$$$

> <minimizedAffinity>
-8.67140

> <CNNscore>
0.8525338769

> <CNNaffinity>
7.0973114967

> <CNN_VS>
6.0506982803

> <CNNaffinity_variance>
0.2922334671

> <Compound_Name>
Compound_4_s5

> <Pose_Rank>
2

> <Docking_Affinity_kcal_mol>
-8.41

> <CNN_Affinity>
7.19

> <CNN_Pose_Score>
0.8459
$$$$
Compound_4_s5


 31 34  0  0  0  0  0  0  0  0999 V2000
   84.7920  153.9868   14.0066 C   0  0  0  0  0  0  0  0  0  0  0  0
   84.0061  153.5882   15.0659 C   0  0  0  0  0  0  0  0  0  0  0  0
   85.1331  153.1063   12.9934 C   0  0  0  0  0  0  0  0  0  0  0  0
   83.5366  152.3121   15.1534 C   0  0  0  0  0  0  0  0  0  0  0  0
   84.6469  151.8036   13.0939 C   0  0  0  0  0  0  0  0  0  0  0  0
   83.8656  151.4180   14.1527 C   0  0  0  0  0  0  0  0  0  0  0  0
   82.6880  151.5530   16.1197 C   0  0  0  0  0  0  0  0  0  0  0  0
   83.2209  150.1294   14.5216 C   0  0  0  0  0  0  0  0  0  0  0  0
   83.2660  150.2448   15.9612 N   0  0  0  0  0  0  0  0  0  0  0  0
   81.3682  151.3396   15.4034 C   0  0  0  0  0  0  0  0  0  0  0  0
   81.7361  150.3372   14.3073 C   0  0  0  0  0  0  0  0  0  0  0  0
   83.7467  149.3132   16.8742 C   0  0  0  0  0  0  0  0  0  0  0  0
   80.9504  152.5362   14.8528 O   0  0  0  0  0  0  0  0  0  0  0  0
   81.0811  149.1495   14.5293 O   0  0  0  0  0  0  0  0  0  0  0  0
   83.7294  149.5404   18.1319 O   0  0  0  0  0  0  0  0  0  0  0  0
   81.6445  152.8844   14.2714 H   0  0  0  0  0  0  0  0  0  0  0  0
   81.2950  148.8235   15.4175 H   0  0  0  0  0  0  0  0  0  0  0  0
   86.2269  155.0807   11.8308 O   0  0  0  0  0  0  0  0  0  0  0  0
   85.7516  155.8470   12.7141 C   0  0  0  0  0  0  0  0  0  0  0  0
   85.2665  155.3285   13.9457 N   0  0  0  0  0  0  0  0  0  0  0  0
   85.6859  157.2593   12.5043 N   0  0  0  0  0  0  0  0  0  0  0  0
   85.2732  156.1935   15.1047 C   0  0  0  0  0  0  0  0  0  0  0  0
   85.1408  158.0779   13.5327 C   0  0  0  0  0  0  0  0  0  0  0  0
   84.6079  157.5106   14.7886 C   0  0  0  0  0  0  0  0  0  0  0  0
   85.1010  159.3409   13.3870 O   0  0  0  0  0  0  0  0  0  0  0  0
   86.0115  157.6579   11.6650 H   0  0  0  0  0  0  0  0  0  0  0  0
   84.2800  148.0758   16.5265 O   0  0  0  0  0  0  0  0  0  0  0  0
   85.6052  147.8654   16.1537 C   0  0  0  0  0  0  0  0  0  0  0  0
   86.3088  146.8316   16.9967 C   0  0  0  0  0  0  0  0  0  0  0  0
   85.7860  147.5380   14.6941 C   0  0  0  0  0  0  0  0  0  0  0  0
   86.3522  149.1843   16.3968 C   0  0  0  0  0  0  0  0  0  0  0  0
 18 19  2  0
 19 20  1  0
 19 21  1  0
 20  1  1  0
 20 22  1  0
 21 23  1  0
 21 26  1  0
  1  2  2  0
  1  3  1  0
 22 24  1  0
 23 25  2  0
 23 24  1  0
  2  4  1  0
  3  5  2  0
  4  6  2  0
  5  6  1  0
  7  4  1  0
  7  9  1  0
  7 10  1  0
  8  6  1  0
  8 11  1  0
  8  9  1  0
  9 12  1  0
 10 13  1  0
 10 11  1  0
 11 14  1  0
 12 15  2  0
 12 27  1  0
 13 16  1  0
 14 17  1  0
 27 28  1  0
 28 29  1  0
 28 30  1  0
 28 31  1  0
M  END
> <Molecule Name>
Compound 4

> <EC50 (µM) (Excel)>
11.8

> <Error (µM)>
7.4

> <HTRC CRBN-DDB1 EC50 (µM)>
11.78 ±  7.41

> <EC50 fitting (µM)>
15.10

> <Modèle Fitting>
4PL

> <Parent_Compound>
Compound 4

> <MMFF94s_energy_kcalmol>
163.563
> <Compound_Name>
Compound_4_s5

> <Pose_Rank>
3

> <Docking_Affinity_kcal_mol>
-8.27

> <CNN_Affinity>
6.974

> <CNN_Pose_Score>
0.646
$$$$

> <minimizedAffinity>
-8.40507

> <CNNscore>
0.8459011912

> <CNNaffinity>
7.1903004646

> <CNN_VS>
6.0822834969

> <CNNaffinity_variance>
0.8749635816

> <Compound_Name>
Compound_4_s5

> <Pose_Rank>
4

> <Docking_Affinity_kcal_mol>
-8.03

> <CNN_Affinity>
6.632

> <CNN_Pose_Score>
0.6237
$$$$
Compound_4_s5


 31 34  0  0  0  0  0  0  0  0999 V2000
   84.3599  154.3030   14.6432 C   0  0  0  0  0  0  0  0  0  0  0  0
   84.8913  153.4763   15.6090 C   0  0  0  0  0  0  0  0  0  0  0  0
   83.2189  153.9490   13.9426 C   0  0  0  0  0  0  0  0  0  0  0  0
   84.3119  152.2802   15.9087 C   0  0  0  0  0  0  0  0  0  0  0  0
   82.6351  152.7229   14.2579 C   0  0  0  0  0  0  0  0  0  0  0  0
   83.1727  151.9082   15.2209 C   0  0  0  0  0  0  0  0  0  0  0  0
   84.5976  151.1671   16.8624 C   0  0  0  0  0  0  0  0  0  0  0  0
   82.7822  150.5772   15.7575 C   0  0  0  0  0  0  0  0  0  0  0  0
   84.0904  150.0628   16.0920 N   0  0  0  0  0  0  0  0  0  0  0  0
   83.5130  151.2637   17.9183 C   0  0  0  0  0  0  0  0  0  0  0  0
   82.2579  150.8357   17.1547 C   0  0  0  0  0  0  0  0  0  0  0  0
   84.6384  148.8361   15.7351 C   0  0  0  0  0  0  0  0  0  0  0  0
   83.4054  152.5747   18.3419 O   0  0  0  0  0  0  0  0  0  0  0  0
   81.7784  149.6587   17.6778 O   0  0  0  0  0  0  0  0  0  0  0  0
   85.8167  148.4999   16.0987 O   0  0  0  0  0  0  0  0  0  0  0  0
   83.2415  153.1490   17.5775 H   0  0  0  0  0  0  0  0  0  0  0  0
   82.4762  148.9855   17.6522 H   0  0  0  0  0  0  0  0  0  0  0  0
   85.7921  154.8598   12.2708 O   0  0  0  0  0  0  0  0  0  0  0  0
   85.4649  155.8060   13.0395 C   0  0  0  0  0  0  0  0  0  0  0  0
   84.9906  155.5472   14.3544 N   0  0  0  0  0  0  0  0  0  0  0  0
   85.5606  157.1668   12.6126 N   0  0  0  0  0  0  0  0  0  0  0  0
   85.1687  156.5694   15.3619 C   0  0  0  0  0  0  0  0  0  0  0  0
   85.1787  158.1952   13.5189 C   0  0  0  0  0  0  0  0  0  0  0  0
   84.6525  157.8985   14.8673 C   0  0  0  0  0  0  0  0  0  0  0  0
   85.2854  159.4159   13.1779 O   0  0  0  0  0  0  0  0  0  0  0  0
   85.8843  157.3881   11.7096 H   0  0  0  0  0  0  0  0  0  0  0  0
   83.9834  147.8763   14.9694 O   0  0  0  0  0  0  0  0  0  0  0  0
   83.8402  147.9355   13.5854 C   0  0  0  0  0  0  0  0  0  0  0  0
   84.3207  146.6930   12.8787 C   0  0  0  0  0  0  0  0  0  0  0  0
   82.4442  148.2711   13.1282 C   0  0  0  0  0  0  0  0  0  0  0  0
   84.7426  149.0749   13.0915 C   0  0  0  0  0  0  0  0  0  0  0  0
 18 19  2  0
 19 20  1  0
 19 21  1  0
 20  1  1  0
 20 22  1  0
 21 23  1  0
 21 26  1  0
  1  2  2  0
  1  3  1  0
 22 24  1  0
 23 25  2  0
 23 24  1  0
  2  4  1  0
  3  5  2  0
  4  6  2  0
  5  6  1  0
  7  4  1  0
  7  9  1  0
  7 10  1  0
  8  6  1  0
  8 11  1  0
  8  9  1  0
  9 12  1  0
 10 13  1  0
 10 11  1  0
 11 14  1  0
 12 15  2  0
 12 27  1  0
 13 16  1  0
 14 17  1  0
 27 28  1  0
 28 29  1  0
 28 30  1  0
 28 31  1  0
M  END
> <Molecule Name>
Compound 4

> <EC50 (µM) (Excel)>
11.8

> <Error (µM)>
7.4

> <HTRC CRBN-DDB1 EC50 (µM)>
11.78 ±  7.41

> <EC50 fitting (µM)>
15.10

> <Modèle Fitting>
4PL

> <Parent_Compound>
Compound 4

> <MMFF94s_energy_kcalmol>
163.563
> <Compound_Name>
Compound_4_s5

> <Pose_Rank>
5

> <Docking_Affinity_kcal_mol>
-8.48

> <CNN_Affinity>
6.461

> <CNN_Pose_Score>
0.584
$$$$
Compound_4_s8


 31 34  0  0  0  0  0  0  0  0999 V2000
   84.3676  154.8764   14.3062 C   0  0  0  0  0  0  0  0  0  0  0  0
   85.0701  153.6869   14.4213 C   0  0  0  0  0  0  0  0  0  0  0  0
   82.9943  154.7512   14.2636 C   0  0  0  0  0  0  0  0  0  0  0  0
   84.4612  152.4396   14.4919 C   0  0  0  0  0  0  0  0  0  0  0  0
   82.3571  153.5131   14.3321 C   0  0  0  0  0  0  0  0  0  0  0  0
   83.0829  152.3575   14.4461 C   0  0  0  0  0  0  0  0  0  0  0  0
   84.9443  151.0411   14.6142 C   0  0  0  0  0  0  0  0  0  0  0  0
   82.7435  150.9046   14.5431 C   0  0  0  0  0  0  0  0  0  0  0  0
   83.8526  150.4812   15.3969 N   0  0  0  0  0  0  0  0  0  0  0  0
   84.6623  150.3869   13.2813 C   0  0  0  0  0  0  0  0  0  0  0  0
   83.1439  150.2343   13.2493 C   0  0  0  0  0  0  0  0  0  0  0  0
   83.8550  149.7532   16.6071 C   0  0  0  0  0  0  0  0  0  0  0  0
   85.2997  149.1654   13.1471 O   0  0  0  0  0  0  0  0  0  0  0  0
   82.5857  150.8251   12.1368 O   0  0  0  0  0  0  0  0  0  0  0  0
   84.9608  149.5088   17.1630 O   0  0  0  0  0  0  0  0  0  0  0  0
   85.0125  148.5710   13.8579 H   0  0  0  0  0  0  0  0  0  0  0  0
   82.8359  151.7619   12.1083 H   0  0  0  0  0  0  0  0  0  0  0  0
   85.8212  156.0155   12.0751 O   0  0  0  0  0  0  0  0  0  0  0  0
   85.4733  156.7144   13.0413 C   0  0  0  0  0  0  0  0  0  0  0  0
   85.0307  156.1288   14.2599 N   0  0  0  0  0  0  0  0  0  0  0  0
   85.5074  158.1495   12.9640 N   0  0  0  0  0  0  0  0  0  0  0  0
   85.2787  156.9299   15.4414 C   0  0  0  0  0  0  0  0  0  0  0  0
   85.1089  158.9325   14.0803 C   0  0  0  0  0  0  0  0  0  0  0  0
   84.5335  158.2545   15.2592 C   0  0  0  0  0  0  0  0  0  0  0  0
   85.2712  160.1745   13.9990 O   0  0  0  0  0  0  0  0  0  0  0  0
   85.8074  158.5903   12.1363 H   0  0  0  0  0  0  0  0  0  0  0  0
   82.7233  149.2915   17.2213 O   0  0  0  0  0  0  0  0  0  0  0  0
   81.9409  150.0118   18.1279 C   0  0  0  0  0  0  0  0  0  0  0  0
   81.2262  149.1178   19.1191 C   0  0  0  0  0  0  0  0  0  0  0  0
   80.9696  150.9526   17.4383 C   0  0  0  0  0  0  0  0  0  0  0  0
   82.8863  150.8907   18.9491 C   0  0  0  0  0  0  0  0  0  0  0  0
 18 19  2  0
 19 20  1  0
 19 21  1  0
 20  1  1  0
 20 22  1  0
 21 23  1  0
 21 26  1  0
  1  2  2  0
  1  3  1  0
 22 24  1  0
 23 25  2  0
 23 24  1  0
  2  4  1  0
  3  5  2  0
  4  6  2  0
  5  6  1  0
  7  4  1  0
  7  9  1  0
  7 10  1  0
  8  6  1  0
  8 11  1  0
  8  9  1  0
  9 12  1  0
 10 13  1  0
 10 11  1  0
 11 14  1  0
 12 15  2  0
 12 27  1  0
 13 16  1  0
 14 17  1  0
 27 28  1  0
 28 29  1  0
 28 30  1  0
 28 31  1  0
M  END
> <Molecule Name>
Compound 4

> <EC50 (µM) (Excel)>
11.8

> <Error (µM)>
7.4

> <HTRC CRBN-DDB1 EC50 (µM)>
11.78 ±  7.41

> <EC50 fitting (µM)>
15.10

> <Modèle Fitting>
4PL

> <Parent_Compound>
Compound 4

> <MMFF94s_energy_kcalmol>
162.344
> <Compound_Name>
Compound_4_s8

> <Pose_Rank>
1

> <Docking_Affinity_kcal_mol>
-9.63

> <CNN_Affinity>
7.39

> <CNN_Pose_Score>
0.9507
$$$$

> <minimizedAffinity>
-9.62761

> <CNNscore>
0.9506933093

> <CNNaffinity>
7.3901457787

> <CNN_VS>
7.0257620811

> <CNNaffinity_variance>
0.4433907568

> <Compound_Name>
Compound_4_s8

> <Pose_Rank>
2

> <Docking_Affinity_kcal_mol>
-8.87

> <CNN_Affinity>
7.293

> <CNN_Pose_Score>
0.9308
$$$$
Compound_4_s8


 31 34  0  0  0  0  0  0  0  0999 V2000
   84.2038  154.5978   14.6179 C   0  0  0  0  0  0  0  0  0  0  0  0
   84.7038  153.6299   15.4752 C   0  0  0  0  0  0  0  0  0  0  0  0
   82.9644  154.3257   14.0763 C   0  0  0  0  0  0  0  0  0  0  0  0
   84.0264  152.4572   15.7874 C   0  0  0  0  0  0  0  0  0  0  0  0
   82.2629  153.1577   14.3716 C   0  0  0  0  0  0  0  0  0  0  0  0
   82.7871  152.2227   15.2238 C   0  0  0  0  0  0  0  0  0  0  0  0
   84.3082  151.2789   16.6456 C   0  0  0  0  0  0  0  0  0  0  0  0
   82.3281  150.9005   15.7496 C   0  0  0  0  0  0  0  0  0  0  0  0
   82.9520  150.9659   17.0705 N   0  0  0  0  0  0  0  0  0  0  0  0
   84.5503  150.1253   15.6997 C   0  0  0  0  0  0  0  0  0  0  0  0
   83.1727  149.8176   15.1190 C   0  0  0  0  0  0  0  0  0  0  0  0
   82.4008  150.7809   18.3576 C   0  0  0  0  0  0  0  0  0  0  0  0
   85.0912  149.0229   16.3388 O   0  0  0  0  0  0  0  0  0  0  0  0
   83.1683  149.8591   13.7419 O   0  0  0  0  0  0  0  0  0  0  0  0
   83.1579  150.8914   19.3607 O   0  0  0  0  0  0  0  0  0  0  0  0
   84.4927  148.7325   17.0448 H   0  0  0  0  0  0  0  0  0  0  0  0
   83.4788  150.7283   13.4436 H   0  0  0  0  0  0  0  0  0  0  0  0
   85.6105  155.2871   12.1818 O   0  0  0  0  0  0  0  0  0  0  0  0
   85.3367  156.1490   13.0334 C   0  0  0  0  0  0  0  0  0  0  0  0
   84.9207  155.7903   14.3457 N   0  0  0  0  0  0  0  0  0  0  0  0
   85.4329  157.5494   12.7229 N   0  0  0  0  0  0  0  0  0  0  0  0
   85.2555  156.7566   15.3719 C   0  0  0  0  0  0  0  0  0  0  0  0
   85.1189  158.5210   13.7105 C   0  0  0  0  0  0  0  0  0  0  0  0
   84.5644  158.0718   15.0033 C   0  0  0  0  0  0  0  0  0  0  0  0
   85.3340  159.7237   13.4230 O   0  0  0  0  0  0  0  0  0  0  0  0
   85.7169  157.8354   11.8247 H   0  0  0  0  0  0  0  0  0  0  0  0
   81.0851  150.4866   18.5885 O   0  0  0  0  0  0  0  0  0  0  0  0
   80.5832  149.2279   18.9303 C   0  0  0  0  0  0  0  0  0  0  0  0
   81.1262  148.7233   20.2505 C   0  0  0  0  0  0  0  0  0  0  0  0
   80.7822  148.2036   17.8279 C   0  0  0  0  0  0  0  0  0  0  0  0
   79.0718  149.3746   19.1176 C   0  0  0  0  0  0  0  0  0  0  0  0
 18 19  2  0
 19 20  1  0
 19 21  1  0
 20  1  1  0
 20 22  1  0
 21 23  1  0
 21 26  1  0
  1  2  2  0
  1  3  1  0
 22 24  1  0
 23 25  2  0
 23 24  1  0
  2  4  1  0
  3  5  2  0
  4  6  2  0
  5  6  1  0
  7  4  1  0
  7  9  1  0
  7 10  1  0
  8  6  1  0
  8 11  1  0
  8  9  1  0
  9 12  1  0
 10 13  1  0
 10 11  1  0
 11 14  1  0
 12 15  2  0
 12 27  1  0
 13 16  1  0
 14 17  1  0
 27 28  1  0
 28 29  1  0
 28 30  1  0
 28 31  1  0
M  END
> <Molecule Name>
Compound 4

> <EC50 (µM) (Excel)>
11.8

> <Error (µM)>
7.4

> <HTRC CRBN-DDB1 EC50 (µM)>
11.78 ±  7.41

> <EC50 fitting (µM)>
15.10

> <Modèle Fitting>
4PL

> <Parent_Compound>
Compound 4

> <MMFF94s_energy_kcalmol>
162.344
> <Compound_Name>
Compound_4_s8

> <Pose_Rank>
3

> <Docking_Affinity_kcal_mol>
-8.89

> <CNN_Affinity>
6.755

> <CNN_Pose_Score>
0.7517
$$$$

> <minimizedAffinity>
-8.86716

> <CNNscore>
0.9308413863

> <CNNaffinity>
7.2933297157

> <CNN_VS>
6.7889332771

> <CNNaffinity_variance>
0.5968979001

> <Compound_Name>
Compound_4_s8

> <Pose_Rank>
4

> <Docking_Affinity_kcal_mol>
-8.14

> <CNN_Affinity>
6.388

> <CNN_Pose_Score>
0.6264
$$$$
Compound_4_s8


 31 34  0  0  0  0  0  0  0  0999 V2000
   84.5351  153.9987   13.8093 C   0  0  0  0  0  0  0  0  0  0  0  0
   83.8965  153.4703   14.9206 C   0  0  0  0  0  0  0  0  0  0  0  0
   84.5089  153.2073   12.6796 C   0  0  0  0  0  0  0  0  0  0  0  0
   83.2645  152.2326   14.9265 C   0  0  0  0  0  0  0  0  0  0  0  0
   83.8827  151.9620   12.6572 C   0  0  0  0  0  0  0  0  0  0  0  0
   83.2607  151.4709   13.7739 C   0  0  0  0  0  0  0  0  0  0  0  0
   82.5235  151.4371   15.9376 C   0  0  0  0  0  0  0  0  0  0  0  0
   82.5132  150.2175   14.0992 C   0  0  0  0  0  0  0  0  0  0  0  0
   81.5662  150.7760   15.0634 N   0  0  0  0  0  0  0  0  0  0  0  0
   83.4130  150.2625   16.2741 C   0  0  0  0  0  0  0  0  0  0  0  0
   83.3642  149.3826   15.0278 C   0  0  0  0  0  0  0  0  0  0  0  0
   80.1574  150.6941   15.1212 C   0  0  0  0  0  0  0  0  0  0  0  0
   82.9817  149.5783   17.3976 O   0  0  0  0  0  0  0  0  0  0  0  0
   84.6206  149.1228   14.5257 O   0  0  0  0  0  0  0  0  0  0  0  0
   79.5571  151.2713   16.0688 O   0  0  0  0  0  0  0  0  0  0  0  0
   82.0771  149.2588   17.2542 H   0  0  0  0  0  0  0  0  0  0  0  0
   85.0723  149.9599   14.3358 H   0  0  0  0  0  0  0  0  0  0  0  0
   86.2942  155.1588   11.8223 O   0  0  0  0  0  0  0  0  0  0  0  0
   85.7640  155.8591   12.7007 C   0  0  0  0  0  0  0  0  0  0  0  0
   85.1481  155.2767   13.8431 N   0  0  0  0  0  0  0  0  0  0  0  0
   85.7554  157.2928   12.5955 N   0  0  0  0  0  0  0  0  0  0  0  0
   85.1654  156.1079   15.0297 C   0  0  0  0  0  0  0  0  0  0  0  0
   85.1472  158.0777   13.6114 C   0  0  0  0  0  0  0  0  0  0  0  0
   84.4105  157.3968   14.6950 C   0  0  0  0  0  0  0  0  0  0  0  0
   85.2729  159.3238   13.5282 O   0  0  0  0  0  0  0  0  0  0  0  0
   86.1715  157.7313   11.8184 H   0  0  0  0  0  0  0  0  0  0  0  0
   79.3946  150.0224   14.2059 O   0  0  0  0  0  0  0  0  0  0  0  0
   78.2155  149.3267   14.4867 C   0  0  0  0  0  0  0  0  0  0  0  0
   77.5061  148.8538   13.2354 C   0  0  0  0  0  0  0  0  0  0  0  0
   77.2774  150.1116   15.3856 C   0  0  0  0  0  0  0  0  0  0  0  0
   78.6031  148.0653   15.2610 C   0  0  0  0  0  0  0  0  0  0  0  0
 18 19  2  0
 19 20  1  0
 19 21  1  0
 20  1  1  0
 20 22  1  0
 21 23  1  0
 21 26  1  0
  1  2  2  0
  1  3  1  0
 22 24  1  0
 23 25  2  0
 23 24  1  0
  2  4  1  0
  3  5  2  0
  4  6  2  0
  5  6  1  0
  7  4  1  0
  7  9  1  0
  7 10  1  0
  8  6  1  0
  8 11  1  0
  8  9  1  0
  9 12  1  0
 10 13  1  0
 10 11  1  0
 11 14  1  0
 12 15  2  0
 12 27  1  0
 13 16  1  0
 14 17  1  0
 27 28  1  0
 28 29  1  0
 28 30  1  0
 28 31  1  0
M  END
> <Molecule Name>
Compound 4

> <EC50 (µM) (Excel)>
11.8

> <Error (µM)>
7.4

> <HTRC CRBN-DDB1 EC50 (µM)>
11.78 ±  7.41

> <EC50 fitting (µM)>
15.10

> <Modèle Fitting>
4PL

> <Parent_Compound>
Compound 4

> <MMFF94s_energy_kcalmol>
162.344
> <Compound_Name>
Compound_4_s8

> <Pose_Rank>
5

> <Docking_Affinity_kcal_mol>
-5.22

> <CNN_Affinity>
4.426

> <CNN_Pose_Score>
0.2891
$$$$
Compound_4_s9


 31 34  0  0  0  0  0  0  0  0999 V2000
   84.1777  154.9178   14.4076 C   0  0  0  0  0  0  0  0  0  0  0  0
   84.9232  153.8052   14.7578 C   0  0  0  0  0  0  0  0  0  0  0  0
   82.8180  154.8771   14.1957 C   0  0  0  0  0  0  0  0  0  0  0  0
   84.3043  152.5966   14.9066 C   0  0  0  0  0  0  0  0  0  0  0  0
   82.1838  153.6454   14.3467 C   0  0  0  0  0  0  0  0  0  0  0  0
   82.9319  152.5450   14.6947 C   0  0  0  0  0  0  0  0  0  0  0  0
   84.6951  151.2032   15.2595 C   0  0  0  0  0  0  0  0  0  0  0  0
   82.5172  151.1340   14.9156 C   0  0  0  0  0  0  0  0  0  0  0  0
   83.7283  150.4659   14.4732 N   0  0  0  0  0  0  0  0  0  0  0  0
   84.1257  150.9616   16.6434 C   0  0  0  0  0  0  0  0  0  0  0  0
   82.6158  150.8964   16.4060 C   0  0  0  0  0  0  0  0  0  0  0  0
   83.8218  149.4252   13.5520 C   0  0  0  0  0  0  0  0  0  0  0  0
   84.5846  149.7736   17.1958 O   0  0  0  0  0  0  0  0  0  0  0  0
   81.9965  151.9382   17.0685 O   0  0  0  0  0  0  0  0  0  0  0  0
   84.9629  148.9303   13.2559 O   0  0  0  0  0  0  0  0  0  0  0  0
   84.3521  149.0346   16.6121 H   0  0  0  0  0  0  0  0  0  0  0  0
   82.3867  152.7796   16.7844 H   0  0  0  0  0  0  0  0  0  0  0  0
   85.1358  155.9251   11.9869 O   0  0  0  0  0  0  0  0  0  0  0  0
   85.0495  156.7021   12.9731 C   0  0  0  0  0  0  0  0  0  0  0  0
   84.8236  156.1688   14.2544 N   0  0  0  0  0  0  0  0  0  0  0  0
   85.1753  158.1130   12.8228 N   0  0  0  0  0  0  0  0  0  0  0  0
   85.2691  156.9328   15.4134 C   0  0  0  0  0  0  0  0  0  0  0  0
   85.0637  158.9077   13.9925 C   0  0  0  0  0  0  0  0  0  0  0  0
   84.6775  158.3237   15.3049 C   0  0  0  0  0  0  0  0  0  0  0  0
   85.2900  160.1407   13.9528 O   0  0  0  0  0  0  0  0  0  0  0  0
   85.3337  158.5209   11.9409 H   0  0  0  0  0  0  0  0  0  0  0  0
   82.7483  148.8516   12.8987 O   0  0  0  0  0  0  0  0  0  0  0  0
   81.9037  147.8895   13.4648 C   0  0  0  0  0  0  0  0  0  0  0  0
   81.5836  146.7589   12.5212 C   0  0  0  0  0  0  0  0  0  0  0  0
   82.6125  147.2889   14.6625 C   0  0  0  0  0  0  0  0  0  0  0  0
   80.5979  148.4744   13.9565 C   0  0  0  0  0  0  0  0  0  0  0  0
 18 19  2  0
 19 20  1  0
 19 21  1  0
 20  1  1  0
 20 22  1  0
 21 23  1  0
 21 26  1  0
  1  2  2  0
  1  3  1  0
 22 24  1  0
 23 25  2  0
 23 24  1  0
  2  4  1  0
  3  5  2  0
  4  6  2  0
  5  6  1  0
  7  4  1  0
  7  9  1  0
  7 10  1  0
  8  6  1  0
  8 11  1  0
  8  9  1  0
  9 12  1  0
 10 13  1  0
 10 11  1  0
 11 14  1  0
 12 15  2  0
 12 27  1  0
 13 16  1  0
 14 17  1  0
 27 28  1  0
 28 29  1  0
 28 30  1  0
 28 31  1  0
M  END
> <Molecule Name>
Compound 4

> <EC50 (µM) (Excel)>
11.8

> <Error (µM)>
7.4

> <HTRC CRBN-DDB1 EC50 (µM)>
11.78 ±  7.41

> <EC50 fitting (µM)>
15.10

> <Modèle Fitting>
4PL

> <Parent_Compound>
Compound 4

> <MMFF94s_energy_kcalmol>
153.088
> <Compound_Name>
Compound_4_s9

> <Pose_Rank>
1

> <Docking_Affinity_kcal_mol>
-8.69

> <CNN_Affinity>
7.212

> <CNN_Pose_Score>
0.8844
$$$$

> <minimizedAffinity>
-8.69454

> <CNNscore>
0.8843896389

> <CNNaffinity>
7.2122654915

> <CNN_VS>
6.3784527779

> <CNNaffinity_variance>
0.4899530411

> <Compound_Name>
Compound_4_s9

> <Pose_Rank>
2

> <Docking_Affinity_kcal_mol>
-8.45

> <CNN_Affinity>
7.262

> <CNN_Pose_Score>
0.8687
$$$$
Compound_4_s9


 31 34  0  0  0  0  0  0  0  0999 V2000
   84.5399  154.5197   14.2650 C   0  0  0  0  0  0  0  0  0  0  0  0
   84.5719  153.8370   15.4688 C   0  0  0  0  0  0  0  0  0  0  0  0
   83.9770  154.0020   13.1203 C   0  0  0  0  0  0  0  0  0  0  0  0
   84.0256  152.5878   15.5520 C   0  0  0  0  0  0  0  0  0  0  0  0
   83.4190  152.7276   13.2020 C   0  0  0  0  0  0  0  0  0  0  0  0
   83.4550  152.0562   14.4017 C   0  0  0  0  0  0  0  0  0  0  0  0
   83.8430  151.5405   16.5953 C   0  0  0  0  0  0  0  0  0  0  0  0
   82.9449  150.7063   14.7613 C   0  0  0  0  0  0  0  0  0  0  0  0
   83.9245  150.3516   15.7729 N   0  0  0  0  0  0  0  0  0  0  0  0
   82.3585  151.5293   16.9017 C   0  0  0  0  0  0  0  0  0  0  0  0
   81.7337  150.9356   15.6377 C   0  0  0  0  0  0  0  0  0  0  0  0
   84.6722  149.1782   15.8394 C   0  0  0  0  0  0  0  0  0  0  0  0
   82.0604  150.7454   18.0079 O   0  0  0  0  0  0  0  0  0  0  0  0
   80.9173  151.8748   15.0385 O   0  0  0  0  0  0  0  0  0  0  0  0
   85.5038  148.9999   16.7940 O   0  0  0  0  0  0  0  0  0  0  0  0
   82.3703  149.8390   17.8549 H   0  0  0  0  0  0  0  0  0  0  0  0
   81.4267  152.6817   14.8639 H   0  0  0  0  0  0  0  0  0  0  0  0
   86.0728  155.4507   12.1260 O   0  0  0  0  0  0  0  0  0  0  0  0
   85.6501  156.2801   12.9728 C   0  0  0  0  0  0  0  0  0  0  0  0
   85.1074  155.8146   14.1836 N   0  0  0  0  0  0  0  0  0  0  0  0
   85.7081  157.6832   12.7342 N   0  0  0  0  0  0  0  0  0  0  0  0
   85.1443  156.6948   15.3453 C   0  0  0  0  0  0  0  0  0  0  0  0
   85.2074  158.5401   13.7478 C   0  0  0  0  0  0  0  0  0  0  0  0
   84.5066  158.0107   14.9482 C   0  0  0  0  0  0  0  0  0  0  0  0
   85.3430  159.7838   13.6594 O   0  0  0  0  0  0  0  0  0  0  0  0
   86.0814  158.0444   11.8979 H   0  0  0  0  0  0  0  0  0  0  0  0
   84.5961  148.1420   14.9290 O   0  0  0  0  0  0  0  0  0  0  0  0
   85.5312  147.9160   13.9122 C   0  0  0  0  0  0  0  0  0  0  0  0
   85.2674  146.6483   13.1412 C   0  0  0  0  0  0  0  0  0  0  0  0
   85.4436  149.0667   12.9295 C   0  0  0  0  0  0  0  0  0  0  0  0
   86.9533  147.8653   14.4263 C   0  0  0  0  0  0  0  0  0  0  0  0
 18 19  2  0
 19 20  1  0
 19 21  1  0
 20  1  1  0
 20 22  1  0
 21 23  1  0
 21 26  1  0
  1  2  2  0
  1  3  1  0
 22 24  1  0
 23 25  2  0
 23 24  1  0
  2  4  1  0
  3  5  2  0
  4  6  2  0
  5  6  1  0
  7  4  1  0
  7  9  1  0
  7 10  1  0
  8  6  1  0
  8 11  1  0
  8  9  1  0
  9 12  1  0
 10 13  1  0
 10 11  1  0
 11 14  1  0
 12 15  2  0
 12 27  1  0
 13 16  1  0
 14 17  1  0
 27 28  1  0
 28 29  1  0
 28 30  1  0
 28 31  1  0
M  END
> <Molecule Name>
Compound 4

> <EC50 (µM) (Excel)>
11.8

> <Error (µM)>
7.4

> <HTRC CRBN-DDB1 EC50 (µM)>
11.78 ±  7.41

> <EC50 fitting (µM)>
15.10

> <Modèle Fitting>
4PL

> <Parent_Compound>
Compound 4

> <MMFF94s_energy_kcalmol>
153.088
> <Compound_Name>
Compound_4_s9

> <Pose_Rank>
3

> <Docking_Affinity_kcal_mol>
-8.21

> <CNN_Affinity>
7.294

> <CNN_Pose_Score>
0.8607
$$$$

> <minimizedAffinity>
-8.44791

> <CNNscore>
0.8687278032

> <CNNaffinity>
7.2623982430

> <CNN_VS>
6.3090472221

> <CNNaffinity_variance>
0.5641877055

> <Compound_Name>
Compound_4_s9

> <Pose_Rank>
4

> <Docking_Affinity_kcal_mol>
-8.47

> <CNN_Affinity>
7.023

> <CNN_Pose_Score>
0.7862
$$$$
Compound_4_s9


 31 34  0  0  0  0  0  0  0  0999 V2000
   84.6480  154.4910   14.2417 C   0  0  0  0  0  0  0  0  0  0  0  0
   84.7141  153.7915   15.4344 C   0  0  0  0  0  0  0  0  0  0  0  0
   84.0944  153.9713   13.0935 C   0  0  0  0  0  0  0  0  0  0  0  0
   84.2130  152.5226   15.5023 C   0  0  0  0  0  0  0  0  0  0  0  0
   83.5825  152.6768   13.1595 C   0  0  0  0  0  0  0  0  0  0  0  0
   83.6521  151.9887   14.3483 C   0  0  0  0  0  0  0  0  0  0  0  0
   84.0762  151.4536   16.5306 C   0  0  0  0  0  0  0  0  0  0  0  0
   83.1930  150.6163   14.6907 C   0  0  0  0  0  0  0  0  0  0  0  0
   84.1929  150.2811   15.6890 N   0  0  0  0  0  0  0  0  0  0  0  0
   82.5956  151.3851   16.8481 C   0  0  0  0  0  0  0  0  0  0  0  0
   81.9818  150.7890   15.5799 C   0  0  0  0  0  0  0  0  0  0  0  0
   84.9822  149.1341   15.7315 C   0  0  0  0  0  0  0  0  0  0  0  0
   82.3345  150.5742   17.9442 O   0  0  0  0  0  0  0  0  0  0  0  0
   81.1278  151.7077   15.0016 O   0  0  0  0  0  0  0  0  0  0  0  0
   85.8274  148.9709   16.6768 O   0  0  0  0  0  0  0  0  0  0  0  0
   82.6750  149.6819   17.7747 H   0  0  0  0  0  0  0  0  0  0  0  0
   81.6068  152.5347   14.8358 H   0  0  0  0  0  0  0  0  0  0  0  0
   86.1623  155.4963   12.1231 O   0  0  0  0  0  0  0  0  0  0  0  0
   85.7033  156.3022   12.9738 C   0  0  0  0  0  0  0  0  0  0  0  0
   85.1687  155.8064   14.1762 N   0  0  0  0  0  0  0  0  0  0  0  0
   85.7121  157.7086   12.7480 N   0  0  0  0  0  0  0  0  0  0  0  0
   85.1647  156.6768   15.3458 C   0  0  0  0  0  0  0  0  0  0  0  0
   85.1728  158.5375   13.7650 C   0  0  0  0  0  0  0  0  0  0  0  0
   84.4826  157.9722   14.9551 C   0  0  0  0  0  0  0  0  0  0  0  0
   85.2638  159.7861   13.6886 O   0  0  0  0  0  0  0  0  0  0  0  0
   86.0783  158.0907   11.9179 H   0  0  0  0  0  0  0  0  0  0  0  0
   84.9353  148.1100   14.8057 O   0  0  0  0  0  0  0  0  0  0  0  0
   84.0182  147.0532   14.8453 C   0  0  0  0  0  0  0  0  0  0  0  0
   84.6738  145.7006   14.7373 C   0  0  0  0  0  0  0  0  0  0  0  0
   83.3036  147.1015   16.1812 C   0  0  0  0  0  0  0  0  0  0  0  0
   82.9652  147.1521   13.7634 C   0  0  0  0  0  0  0  0  0  0  0  0
 18 19  2  0
 19 20  1  0
 19 21  1  0
 20  1  1  0
 20 22  1  0
 21 23  1  0
 21 26  1  0
  1  2  2  0
  1  3  1  0
 22 24  1  0
 23 25  2  0
 23 24  1  0
  2  4  1  0
  3  5  2  0
  4  6  2  0
  5  6  1  0
  7  4  1  0
  7  9  1  0
  7 10  1  0
  8  6  1  0
  8 11  1  0
  8  9  1  0
  9 12  1  0
 10 13  1  0
 10 11  1  0
 11 14  1  0
 12 15  2  0
 12 27  1  0
 13 16  1  0
 14 17  1  0
 27 28  1  0
 28 29  1  0
 28 30  1  0
 28 31  1  0
M  END
> <Molecule Name>
Compound 4

> <EC50 (µM) (Excel)>
11.8

> <Error (µM)>
7.4

> <HTRC CRBN-DDB1 EC50 (µM)>
11.78 ±  7.41

> <EC50 fitting (µM)>
15.10

> <Modèle Fitting>
4PL

> <Parent_Compound>
Compound 4

> <MMFF94s_energy_kcalmol>
153.088
> <Compound_Name>
Compound_4_s9

> <Pose_Rank>
5

> <Docking_Affinity_kcal_mol>
-8.3

> <CNN_Affinity>
6.559

> <CNN_Pose_Score>
0.7399
$$$$
Compound_7_ent1


 36 38  0  0  0  0  0  0  0  0999 V2000
   86.8801  150.9519   12.4694 C   0  0  0  0  0  0  0  0  0  0  0  0
   86.2652  152.1383   12.7961 C   0  0  0  0  0  0  0  0  0  0  0  0
   87.8732  150.9794   11.5247 C   0  0  0  0  0  0  0  0  0  0  0  0
   86.5820  153.3394   12.2379 C   0  0  0  0  0  0  0  0  0  0  0  0
   88.2477  152.1693   10.9125 C   0  0  0  0  0  0  0  0  0  0  0  0
   87.5979  153.3195   11.2803 C   0  0  0  0  0  0  0  0  0  0  0  0
   85.9959  154.6237   12.5615 C   0  0  0  0  0  0  0  0  0  0  0  0
   86.6346  155.6859   12.4007 O   0  0  0  0  0  0  0  0  0  0  0  0
   84.6655  154.6957   13.0794 N   0  0  0  0  0  0  0  0  0  0  0  0
   84.1574  153.8626   13.2097 H   0  0  0  0  0  0  0  0  0  0  0  0
   84.0336  155.9796   13.4235 C   0  0  0  0  0  0  0  0  0  0  0  0
   84.3142  156.9776   12.3716 C   0  0  0  0  0  0  0  0  0  0  0  0
   84.3242  156.4100   14.8122 C   0  0  0  0  0  0  0  0  0  0  0  0
   84.1826  156.6124   11.1755 O   0  0  0  0  0  0  0  0  0  0  0  0
   84.7138  158.2895   12.6385 N   0  0  0  0  0  0  0  0  0  0  0  0
   85.3194  157.5389   14.9089 C   0  0  0  0  0  0  0  0  0  0  0  0
   85.0273  158.6486   13.9865 C   0  0  0  0  0  0  0  0  0  0  0  0
   85.0334  159.8658   14.2867 O   0  0  0  0  0  0  0  0  0  0  0  0
   84.7780  158.9527   11.9137 H   0  0  0  0  0  0  0  0  0  0  0  0
   86.4748  149.7070   13.1037 C   0  0  0  0  0  0  0  0  0  0  0  0
   86.0470  150.5403   15.6131 S   0  0  0  0  0  0  0  0  0  0  0  0
   87.4853  150.4027   15.9548 O   0  0  0  0  0  0  0  0  0  0  0  0
   85.2876  149.8718   16.7616 O   0  0  0  0  0  0  0  0  0  0  0  0
   85.5947  149.7934   14.1898 N   0  0  0  0  0  0  0  0  0  0  0  0
   85.5825  152.2621   15.6921 C   0  0  0  0  0  0  0  0  0  0  0  0
   84.2134  149.5995   13.9834 C   0  0  0  0  0  0  0  0  0  0  0  0
   84.0915  152.3996   15.9766 C   0  0  0  0  0  0  0  0  0  0  0  0
   83.5472  150.9622   13.8981 C   0  0  0  0  0  0  0  0  0  0  0  0
   83.3418  151.3838   15.2669 N   0  0  0  0  0  0  0  0  0  0  0  0
   82.3030  150.7155   15.9589 C   0  0  0  0  0  0  0  0  0  0  0  0
   81.5871  149.8222   15.4473 O   0  0  0  0  0  0  0  0  0  0  0  0
   82.0223  151.0355   17.2984 O   0  0  0  0  0  0  0  0  0  0  0  0
   81.9312  150.0251   18.2808 C   0  0  0  0  0  0  0  0  0  0  0  0
   80.5141  149.7999   18.7576 C   0  0  0  0  0  0  0  0  0  0  0  0
   82.5272  148.7273   17.7634 C   0  0  0  0  0  0  0  0  0  0  0  0
   82.8221  150.4858   19.4316 C   0  0  0  0  0  0  0  0  0  0  0  0
 21 22  2  0
 21 23  2  0
 21 24  1  0
 21 25  1  0
 24 26  1  0
 24 20  1  0
 25 27  1  0
 26 28  1  0
 20  1  1  0
 27 29  1  0
 28 29  1  0
  1  2  2  0
  1  3  1  0
 29 30  1  0
  2  4  1  0
  3  5  2  0
 30 31  2  0
 30 32  1  0
  4  7  1  0
  4  6  2  0
  5  6  1  0
 32 33  1  0
  7  8  2  0
  7  9  1  0
 33 34  1  0
 33 35  1  0
 33 36  1  0
  9 10  1  0
 11  9  1  0
 11 12  1  0
 11 13  1  0
 12 14  2  0
 12 15  1  0
 13 16  1  0
 15 17  1  0
 15 19  1  0
 16 17  1  0
 17 18  2  0
M  END
> <Molecule Name>
Compound 7

> <EC50 (µM) (Excel)>
4.1

> <Error (µM)>
0.2

> <HTRC CRBN-DDB1 EC50 (µM)>
4.06 ±  0.18

> <EC50 fitting (µM)>
3.77

> <Modèle Fitting>
4PL

> <Parent_Compound>
Compound 7

> <MMFF94s_energy_kcalmol>
145.431
> <Compound_Name>
Compound_7_ent1

> <Pose_Rank>
1

> <Docking_Affinity_kcal_mol>
-8.29

> <CNN_Affinity>
6.869

> <CNN_Pose_Score>
0.8966
$$$$

> <minimizedAffinity>
-8.28647

> <CNNscore>
0.8966264725

> <CNNaffinity>
6.8690581322

> <CNN_VS>
6.1589794159

> <CNNaffinity_variance>
0.3007564545

> <Compound_Name>
Compound_7_ent1

> <Pose_Rank>
2

> <Docking_Affinity_kcal_mol>
-9.13

> <CNN_Affinity>
6.743

> <CNN_Pose_Score>
0.8138
$$$$
Compound_7_ent1


 36 38  0  0  0  0  0  0  0  0999 V2000
   84.3920  150.3888   15.0830 C   0  0  0  0  0  0  0  0  0  0  0  0
   84.1079  151.7321   14.9979 C   0  0  0  0  0  0  0  0  0  0  0  0
   85.6591  149.9763   14.7612 C   0  0  0  0  0  0  0  0  0  0  0  0
   85.0086  152.6782   14.6127 C   0  0  0  0  0  0  0  0  0  0  0  0
   86.6290  150.8865   14.3589 C   0  0  0  0  0  0  0  0  0  0  0  0
   86.2856  152.2125   14.2937 C   0  0  0  0  0  0  0  0  0  0  0  0
   84.7809  154.1064   14.5345 C   0  0  0  0  0  0  0  0  0  0  0  0
   85.3442  154.8959   15.3226 O   0  0  0  0  0  0  0  0  0  0  0  0
   83.8956  154.6392   13.5467 N   0  0  0  0  0  0  0  0  0  0  0  0
   83.4477  154.0225   12.9236 H   0  0  0  0  0  0  0  0  0  0  0  0
   83.6345  156.0832   13.4346 C   0  0  0  0  0  0  0  0  0  0  0  0
   84.4994  156.6726   12.3926 C   0  0  0  0  0  0  0  0  0  0  0  0
   83.6466  156.7737   14.7466 C   0  0  0  0  0  0  0  0  0  0  0  0
   84.5983  156.0537   11.3023 O   0  0  0  0  0  0  0  0  0  0  0  0
   85.2034  157.8680   12.5584 N   0  0  0  0  0  0  0  0  0  0  0  0
   84.8798  157.6068   14.9899 C   0  0  0  0  0  0  0  0  0  0  0  0
   85.2250  158.4756   13.8525 C   0  0  0  0  0  0  0  0  0  0  0  0
   85.5331  159.6884   13.9299 O   0  0  0  0  0  0  0  0  0  0  0  0
   85.6747  158.2831   11.8002 H   0  0  0  0  0  0  0  0  0  0  0  0
   83.3689  149.4387   15.4918 C   0  0  0  0  0  0  0  0  0  0  0  0
   80.9673  149.7279   14.3414 S   0  0  0  0  0  0  0  0  0  0  0  0
   81.5702  149.7840   12.9858 O   0  0  0  0  0  0  0  0  0  0  0  0
   79.9774  150.8939   14.3978 O   0  0  0  0  0  0  0  0  0  0  0  0
   82.0545  149.9112   15.5955 N   0  0  0  0  0  0  0  0  0  0  0  0
   79.9611  148.2600   14.4808 C   0  0  0  0  0  0  0  0  0  0  0  0
   81.5176  150.2014   16.8665 C   0  0  0  0  0  0  0  0  0  0  0  0
   78.8723  148.4576   15.5289 C   0  0  0  0  0  0  0  0  0  0  0  0
   80.6635  149.0238   17.3046 C   0  0  0  0  0  0  0  0  0  0  0  0
   79.3823  149.2076   16.6580 N   0  0  0  0  0  0  0  0  0  0  0  0
   78.5704  150.2335   17.1994 C   0  0  0  0  0  0  0  0  0  0  0  0
   78.9056  150.9453   18.1756 O   0  0  0  0  0  0  0  0  0  0  0  0
   77.3096  150.5086   16.6426 O   0  0  0  0  0  0  0  0  0  0  0  0
   76.1289  150.0275   17.2500 C   0  0  0  0  0  0  0  0  0  0  0  0
   75.2241  149.3052   16.2774 C   0  0  0  0  0  0  0  0  0  0  0  0
   76.4665  149.1273   18.4259 C   0  0  0  0  0  0  0  0  0  0  0  0
   75.4308  151.2560   17.8276 C   0  0  0  0  0  0  0  0  0  0  0  0
 21 22  2  0
 21 23  2  0
 21 24  1  0
 21 25  1  0
 24 26  1  0
 24 20  1  0
 25 27  1  0
 26 28  1  0
 20  1  1  0
 27 29  1  0
 28 29  1  0
  1  2  2  0
  1  3  1  0
 29 30  1  0
  2  4  1  0
  3  5  2  0
 30 31  2  0
 30 32  1  0
  4  7  1  0
  4  6  2  0
  5  6  1  0
 32 33  1  0
  7  8  2  0
  7  9  1  0
 33 34  1  0
 33 35  1  0
 33 36  1  0
  9 10  1  0
 11  9  1  0
 11 12  1  0
 11 13  1  0
 12 14  2  0
 12 15  1  0
 13 16  1  0
 15 17  1  0
 15 19  1  0
 16 17  1  0
 17 18  2  0
M  END
> <Molecule Name>
Compound 7

> <EC50 (µM) (Excel)>
4.1

> <Error (µM)>
0.2

> <HTRC CRBN-DDB1 EC50 (µM)>
4.06 ±  0.18

> <EC50 fitting (µM)>
3.77

> <Modèle Fitting>
4PL

> <Parent_Compound>
Compound 7

> <MMFF94s_energy_kcalmol>
145.431
> <Compound_Name>
Compound_7_ent1

> <Pose_Rank>
3

> <Docking_Affinity_kcal_mol>
-8.71

> <CNN_Affinity>
6.504

> <CNN_Pose_Score>
0.7804
$$$$

> <minimizedAffinity>
-9.12692

> <CNNscore>
0.8138494492

> <CNNaffinity>
6.7428965569

> <CNN_VS>
5.4877028465

> <CNNaffinity_variance>
0.1343019307

> <Compound_Name>
Compound_7_ent1

> <Pose_Rank>
4

> <Docking_Affinity_kcal_mol>
-7.26

> <CNN_Affinity>
6.538

> <CNN_Pose_Score>
0.7565
$$$$
Compound_7_ent1


 36 38  0  0  0  0  0  0  0  0999 V2000
   84.1118  150.3498   16.0401 C   0  0  0  0  0  0  0  0  0  0  0  0
   83.6062  151.5484   15.5930 C   0  0  0  0  0  0  0  0  0  0  0  0
   85.4156  150.0487   15.7419 C   0  0  0  0  0  0  0  0  0  0  0  0
   84.3215  152.4551   14.8712 C   0  0  0  0  0  0  0  0  0  0  0  0
   86.2043  150.9264   15.0079 C   0  0  0  0  0  0  0  0  0  0  0  0
   85.6439  152.1062   14.5901 C   0  0  0  0  0  0  0  0  0  0  0  0
   83.8578  153.7441   14.4009 C   0  0  0  0  0  0  0  0  0  0  0  0
   82.6449  153.9577   14.1884 O   0  0  0  0  0  0  0  0  0  0  0  0
   84.7913  154.8009   14.1662 N   0  0  0  0  0  0  0  0  0  0  0  0
   85.7483  154.6388   14.3304 H   0  0  0  0  0  0  0  0  0  0  0  0
   84.3626  156.1244   13.6861 C   0  0  0  0  0  0  0  0  0  0  0  0
   85.4388  156.7435   12.8862 C   0  0  0  0  0  0  0  0  0  0  0  0
   83.7935  156.9704   14.7625 C   0  0  0  0  0  0  0  0  0  0  0  0
   86.0191  156.0207   12.0363 O   0  0  0  0  0  0  0  0  0  0  0  0
   85.8376  158.0750   13.0272 N   0  0  0  0  0  0  0  0  0  0  0  0
   84.7087  158.0781   15.2205 C   0  0  0  0  0  0  0  0  0  0  0  0
   85.2969  158.8407   14.1070 C   0  0  0  0  0  0  0  0  0  0  0  0
   85.3604  160.0906   14.0338 O   0  0  0  0  0  0  0  0  0  0  0  0
   86.4775  158.4777   12.3965 H   0  0  0  0  0  0  0  0  0  0  0  0
   83.2776  149.4287   16.7965 C   0  0  0  0  0  0  0  0  0  0  0  0
   80.7229  148.7896   17.2862 S   0  0  0  0  0  0  0  0  0  0  0  0
   81.0894  148.0865   18.5414 O   0  0  0  0  0  0  0  0  0  0  0  0
   79.7814  147.8381   16.5439 O   0  0  0  0  0  0  0  0  0  0  0  0
   82.0098  149.1338   16.2794 N   0  0  0  0  0  0  0  0  0  0  0  0
   79.7239  150.2163   17.6775 C   0  0  0  0  0  0  0  0  0  0  0  0
   81.7013  149.4868   14.9496 C   0  0  0  0  0  0  0  0  0  0  0  0
   78.8321  150.5826   16.4971 C   0  0  0  0  0  0  0  0  0  0  0  0
   80.9088  150.7829   14.9709 C   0  0  0  0  0  0  0  0  0  0  0  0
   79.5410  150.4007   15.2474 N   0  0  0  0  0  0  0  0  0  0  0  0
   78.8539  149.7841   14.1739 C   0  0  0  0  0  0  0  0  0  0  0  0
   79.3639  149.5768   13.0474 O   0  0  0  0  0  0  0  0  0  0  0  0
   77.5232  149.3605   14.3332 O   0  0  0  0  0  0  0  0  0  0  0  0
   77.0328  148.2351   13.6351 C   0  0  0  0  0  0  0  0  0  0  0  0
   75.6355  147.8459   14.0622 C   0  0  0  0  0  0  0  0  0  0  0  0
   77.0786  148.4793   12.1366 C   0  0  0  0  0  0  0  0  0  0  0  0
   78.0202  147.1071   13.9234 C   0  0  0  0  0  0  0  0  0  0  0  0
 21 22  2  0
 21 23  2  0
 21 24  1  0
 21 25  1  0
 24 26  1  0
 24 20  1  0
 25 27  1  0
 26 28  1  0
 20  1  1  0
 27 29  1  0
 28 29  1  0
  1  2  2  0
  1  3  1  0
 29 30  1  0
  2  4  1  0
  3  5  2  0
 30 31  2  0
 30 32  1  0
  4  7  1  0
  4  6  2  0
  5  6  1  0
 32 33  1  0
  7  8  2  0
  7  9  1  0
 33 34  1  0
 33 35  1  0
 33 36  1  0
  9 10  1  0
 11  9  1  0
 11 12  1  0
 11 13  1  0
 12 14  2  0
 12 15  1  0
 13 16  1  0
 15 17  1  0
 15 19  1  0
 16 17  1  0
 17 18  2  0
M  END
> <Molecule Name>
Compound 7

> <EC50 (µM) (Excel)>
4.1

> <Error (µM)>
0.2

> <HTRC CRBN-DDB1 EC50 (µM)>
4.06 ±  0.18

> <EC50 fitting (µM)>
3.77

> <Modèle Fitting>
4PL

> <Parent_Compound>
Compound 7

> <MMFF94s_energy_kcalmol>
145.431
> <Compound_Name>
Compound_7_ent1

> <Pose_Rank>
5

> <Docking_Affinity_kcal_mol>
-7.08

> <CNN_Affinity>
6.296

> <CNN_Pose_Score>
0.7541
$$$$
Compound_7_ent2


 36 38  0  0  0  0  0  0  0  0999 V2000
   83.9112  150.6298   13.5024 C   0  0  0  0  0  0  0  0  0  0  0  0
   84.2544  151.9612   13.5412 C   0  0  0  0  0  0  0  0  0  0  0  0
   82.7221  150.2464   14.0606 C   0  0  0  0  0  0  0  0  0  0  0  0
   83.4633  152.9223   14.1119 C   0  0  0  0  0  0  0  0  0  0  0  0
   81.8954  151.1602   14.6420 C   0  0  0  0  0  0  0  0  0  0  0  0
   82.2718  152.5006   14.6651 C   0  0  0  0  0  0  0  0  0  0  0  0
   83.7931  154.3259   14.1737 C   0  0  0  0  0  0  0  0  0  0  0  0
   82.9119  155.2199   13.9164 O   0  0  0  0  0  0  0  0  0  0  0  0
   85.0703  154.8125   14.5111 N   0  0  0  0  0  0  0  0  0  0  0  0
   85.7854  154.1679   14.7168 H   0  0  0  0  0  0  0  0  0  0  0  0
   85.3727  156.2485   14.5668 C   0  0  0  0  0  0  0  0  0  0  0  0
   85.6198  156.7224   13.1806 C   0  0  0  0  0  0  0  0  0  0  0  0
   84.1575  157.0308   15.0722 C   0  0  0  0  0  0  0  0  0  0  0  0
   85.9640  155.9674   12.2376 O   0  0  0  0  0  0  0  0  0  0  0  0
   85.4498  158.1117   12.9352 N   0  0  0  0  0  0  0  0  0  0  0  0
   84.6768  158.4447   15.3415 C   0  0  0  0  0  0  0  0  0  0  0  0
   85.1557  158.9777   14.0304 C   0  0  0  0  0  0  0  0  0  0  0  0
   85.2902  160.2263   13.9290 O   0  0  0  0  0  0  0  0  0  0  0  0
   85.5337  158.4715   12.0227 H   0  0  0  0  0  0  0  0  0  0  0  0
   84.7903  149.6497   12.8873 C   0  0  0  0  0  0  0  0  0  0  0  0
   87.1445  150.2287   11.7441 S   0  0  0  0  0  0  0  0  0  0  0  0
   86.4494  150.5083   10.4529 O   0  0  0  0  0  0  0  0  0  0  0  0
   88.0506  149.0319   11.4547 O   0  0  0  0  0  0  0  0  0  0  0  0
   86.1629  149.8296   13.0286 N   0  0  0  0  0  0  0  0  0  0  0  0
   88.2574  151.5773   12.0675 C   0  0  0  0  0  0  0  0  0  0  0  0
   86.8510  149.2901   14.1328 C   0  0  0  0  0  0  0  0  0  0  0  0
   89.3860  151.1823   12.9819 C   0  0  0  0  0  0  0  0  0  0  0  0
   87.7268  150.3621   14.7889 C   0  0  0  0  0  0  0  0  0  0  0  0
   88.9920  150.3700   14.0886 N   0  0  0  0  0  0  0  0  0  0  0  0
   89.9521  149.4420   14.5842 C   0  0  0  0  0  0  0  0  0  0  0  0
   89.7133  148.6810   15.5512 O   0  0  0  0  0  0  0  0  0  0  0  0
   91.2049  149.3581   13.9920 O   0  0  0  0  0  0  0  0  0  0  0  0
   91.6926  148.0986   13.5690 C   0  0  0  0  0  0  0  0  0  0  0  0
   92.1213  147.2457   14.7475 C   0  0  0  0  0  0  0  0  0  0  0  0
   90.5770  147.3945   12.8488 C   0  0  0  0  0  0  0  0  0  0  0  0
   92.8312  148.3450   12.6128 C   0  0  0  0  0  0  0  0  0  0  0  0
 21 22  2  0
 21 23  2  0
 21 24  1  0
 21 25  1  0
 24 26  1  0
 24 20  1  0
 25 27  1  0
 26 28  1  0
 20  1  1  0
 27 29  1  0
 28 29  1  0
  1  2  2  0
  1  3  1  0
 29 30  1  0
  2  4  1  0
  3  5  2  0
 30 31  2  0
 30 32  1  0
  4  7  1  0
  4  6  2  0
  5  6  1  0
 32 33  1  0
  7  8  2  0
  7  9  1  0
 33 34  1  0
 33 35  1  0
 33 36  1  0
  9 10  1  0
 11  9  1  0
 11 12  1  0
 11 13  1  0
 12 14  2  0
 12 15  1  0
 13 16  1  0
 15 17  1  0
 15 19  1  0
 16 17  1  0
 17 18  2  0
M  END
> <Molecule Name>
Compound 7

> <EC50 (µM) (Excel)>
4.1

> <Error (µM)>
0.2

> <HTRC CRBN-DDB1 EC50 (µM)>
4.06 ±  0.18

> <EC50 fitting (µM)>
3.77

> <Modèle Fitting>
4PL

> <Parent_Compound>
Compound 7

> <MMFF94s_energy_kcalmol>
148.317
> <Compound_Name>
Compound_7_ent2

> <Pose_Rank>
1

> <Docking_Affinity_kcal_mol>
-7.89

> <CNN_Affinity>
7.016

> <CNN_Pose_Score>
0.8314
$$$$

> <minimizedAffinity>
-7.88665

> <CNNscore>
0.8314337730

> <CNNaffinity>
7.0160164833

> <CNN_VS>
5.8333530426

> <CNNaffinity_variance>
0.1101305559

> <Compound_Name>
Compound_7_ent2

> <Pose_Rank>
2

> <Docking_Affinity_kcal_mol>
-9.33

> <CNN_Affinity>
7.098

> <CNN_Pose_Score>
0.8101
$$$$
Compound_7_ent2


 36 38  0  0  0  0  0  0  0  0999 V2000
   82.9919  150.4060   15.1020 C   0  0  0  0  0  0  0  0  0  0  0  0
   83.5235  151.6455   15.3721 C   0  0  0  0  0  0  0  0  0  0  0  0
   82.8678  150.0203   13.7950 C   0  0  0  0  0  0  0  0  0  0  0  0
   83.9347  152.5130   14.3955 C   0  0  0  0  0  0  0  0  0  0  0  0
   83.2609  150.8430   12.7826 C   0  0  0  0  0  0  0  0  0  0  0  0
   83.7952  152.0919   13.0891 C   0  0  0  0  0  0  0  0  0  0  0  0
   84.4928  153.8209   14.6420 C   0  0  0  0  0  0  0  0  0  0  0  0
   85.2108  154.0439   15.6796 O   0  0  0  0  0  0  0  0  0  0  0  0
   84.3000  154.9242   13.7893 N   0  0  0  0  0  0  0  0  0  0  0  0
   83.7548  154.8081   12.9777 H   0  0  0  0  0  0  0  0  0  0  0  0
   84.8840  156.2424   14.0683 C   0  0  0  0  0  0  0  0  0  0  0  0
   85.1002  156.9354   12.7721 C   0  0  0  0  0  0  0  0  0  0  0  0
   83.8953  157.1090   14.8529 C   0  0  0  0  0  0  0  0  0  0  0  0
   85.2063  156.3378   11.6723 O   0  0  0  0  0  0  0  0  0  0  0  0
   85.1878  158.3532   12.8069 N   0  0  0  0  0  0  0  0  0  0  0  0
   84.7050  158.3244   15.3097 C   0  0  0  0  0  0  0  0  0  0  0  0
   85.1656  159.0179   14.0692 C   0  0  0  0  0  0  0  0  0  0  0  0
   85.5352  160.2173   14.1814 O   0  0  0  0  0  0  0  0  0  0  0  0
   85.2627  158.8694   11.9719 H   0  0  0  0  0  0  0  0  0  0  0  0
   82.5671  149.5254   16.1772 C   0  0  0  0  0  0  0  0  0  0  0  0
   80.2543  150.8792   16.1280 S   0  0  0  0  0  0  0  0  0  0  0  0
   80.7236  151.6387   14.9316 O   0  0  0  0  0  0  0  0  0  0  0  0
   80.0817  151.9323   17.2226 O   0  0  0  0  0  0  0  0  0  0  0  0
   81.2913  149.7093   16.7013 N   0  0  0  0  0  0  0  0  0  0  0  0
   78.6088  150.2948   15.7921 C   0  0  0  0  0  0  0  0  0  0  0  0
   80.9613  149.2254   17.9823 C   0  0  0  0  0  0  0  0  0  0  0  0
   77.8276  150.0273   17.0506 C   0  0  0  0  0  0  0  0  0  0  0  0
   79.6575  148.4232   17.9280 C   0  0  0  0  0  0  0  0  0  0  0  0
   78.5688  149.3637   18.0753 N   0  0  0  0  0  0  0  0  0  0  0  0
   78.2064  149.6479   19.4232 C   0  0  0  0  0  0  0  0  0  0  0  0
   78.7891  149.1214   20.4002 O   0  0  0  0  0  0  0  0  0  0  0  0
   77.1740  150.5365   19.6908 O   0  0  0  0  0  0  0  0  0  0  0  0
   75.9743  150.0571   20.2685 C   0  0  0  0  0  0  0  0  0  0  0  0
   74.7618  150.7688   19.6995 C   0  0  0  0  0  0  0  0  0  0  0  0
   75.8650  148.5930   19.9471 C   0  0  0  0  0  0  0  0  0  0  0  0
   76.0798  150.2373   21.7611 C   0  0  0  0  0  0  0  0  0  0  0  0
 21 22  2  0
 21 23  2  0
 21 24  1  0
 21 25  1  0
 24 26  1  0
 24 20  1  0
 25 27  1  0
 26 28  1  0
 20  1  1  0
 27 29  1  0
 28 29  1  0
  1  2  2  0
  1  3  1  0
 29 30  1  0
  2  4  1  0
  3  5  2  0
 30 31  2  0
 30 32  1  0
  4  7  1  0
  4  6  2  0
  5  6  1  0
 32 33  1  0
  7  8  2  0
  7  9  1  0
 33 34  1  0
 33 35  1  0
 33 36  1  0
  9 10  1  0
 11  9  1  0
 11 12  1  0
 11 13  1  0
 12 14  2  0
 12 15  1  0
 13 16  1  0
 15 17  1  0
 15 19  1  0
 16 17  1  0
 17 18  2  0
M  END
> <Molecule Name>
Compound 7

> <EC50 (µM) (Excel)>
4.1

> <Error (µM)>
0.2

> <HTRC CRBN-DDB1 EC50 (µM)>
4.06 ±  0.18

> <EC50 fitting (µM)>
3.77

> <Modèle Fitting>
4PL

> <Parent_Compound>
Compound 7

> <MMFF94s_energy_kcalmol>
148.317
> <Compound_Name>
Compound_7_ent2

> <Pose_Rank>
3

> <Docking_Affinity_kcal_mol>
-8.07

> <CNN_Affinity>
7.029

> <CNN_Pose_Score>
0.7719
$$$$

> <minimizedAffinity>
-9.33168

> <CNNscore>
0.8100507259

> <CNNaffinity>
7.0977787971

> <CNN_VS>
5.7495608330

> <CNNaffinity_variance>
0.1524820179

> <Compound_Name>
Compound_7_ent2

> <Pose_Rank>
4

> <Docking_Affinity_kcal_mol>
-6.74

> <CNN_Affinity>
7.275

> <CNN_Pose_Score>
0.7464
$$$$
Compound_7_ent2


 36 38  0  0  0  0  0  0  0  0999 V2000
   83.1882  150.2562   15.2214 C   0  0  0  0  0  0  0  0  0  0  0  0
   83.6898  151.5130   15.4680 C   0  0  0  0  0  0  0  0  0  0  0  0
   82.9958  149.8745   13.9215 C   0  0  0  0  0  0  0  0  0  0  0  0
   84.0061  152.4014   14.4750 C   0  0  0  0  0  0  0  0  0  0  0  0
   83.2934  150.7176   12.8935 C   0  0  0  0  0  0  0  0  0  0  0  0
   83.7997  151.9835   13.1764 C   0  0  0  0  0  0  0  0  0  0  0  0
   84.5302  153.7275   14.6971 C   0  0  0  0  0  0  0  0  0  0  0  0
   85.1754  154.0082   15.7681 O   0  0  0  0  0  0  0  0  0  0  0  0
   84.3802  154.7882   13.7838 N   0  0  0  0  0  0  0  0  0  0  0  0
   83.8912  154.6272   12.9446 H   0  0  0  0  0  0  0  0  0  0  0  0
   84.9278  156.1266   14.0396 C   0  0  0  0  0  0  0  0  0  0  0  0
   85.1235  156.8031   12.7315 C   0  0  0  0  0  0  0  0  0  0  0  0
   83.9163  156.9788   14.8108 C   0  0  0  0  0  0  0  0  0  0  0  0
   85.2449  156.1901   11.6418 O   0  0  0  0  0  0  0  0  0  0  0  0
   85.1719  158.2232   12.7420 N   0  0  0  0  0  0  0  0  0  0  0  0
   84.6926  158.2236   15.2458 C   0  0  0  0  0  0  0  0  0  0  0  0
   85.1327  158.9084   13.9930 C   0  0  0  0  0  0  0  0  0  0  0  0
   85.4690  160.1192   14.0842 O   0  0  0  0  0  0  0  0  0  0  0  0
   85.2317  158.7270   11.8983 H   0  0  0  0  0  0  0  0  0  0  0  0
   82.8651  149.3537   16.3136 C   0  0  0  0  0  0  0  0  0  0  0  0
   83.6957  147.7957   18.3304 S   0  0  0  0  0  0  0  0  0  0  0  0
   82.2809  147.6049   18.7664 O   0  0  0  0  0  0  0  0  0  0  0  0
   84.3730  148.5235   19.4917 O   0  0  0  0  0  0  0  0  0  0  0  0
   83.9176  148.7076   16.9549 N   0  0  0  0  0  0  0  0  0  0  0  0
   84.4709  146.1963   18.2785 C   0  0  0  0  0  0  0  0  0  0  0  0
   85.2496  149.1129   16.7417 C   0  0  0  0  0  0  0  0  0  0  0  0
   85.9678  146.2803   18.4125 C   0  0  0  0  0  0  0  0  0  0  0  0
   86.1259  147.9027   16.4041 C   0  0  0  0  0  0  0  0  0  0  0  0
   86.5698  147.3318   17.6564 N   0  0  0  0  0  0  0  0  0  0  0  0
   87.7619  147.9066   18.1829 C   0  0  0  0  0  0  0  0  0  0  0  0
   88.3733  148.8341   17.6021 O   0  0  0  0  0  0  0  0  0  0  0  0
   88.2857  147.4405   19.3810 O   0  0  0  0  0  0  0  0  0  0  0  0
   89.6020  147.8031   19.7538 C   0  0  0  0  0  0  0  0  0  0  0  0
   90.3082  148.5503   18.6388 C   0  0  0  0  0  0  0  0  0  0  0  0
   89.5059  148.7073   20.9504 C   0  0  0  0  0  0  0  0  0  0  0  0
   90.3349  146.5423   20.1344 C   0  0  0  0  0  0  0  0  0  0  0  0
 21 22  2  0
 21 23  2  0
 21 24  1  0
 21 25  1  0
 24 26  1  0
 24 20  1  0
 25 27  1  0
 26 28  1  0
 20  1  1  0
 27 29  1  0
 28 29  1  0
  1  2  2  0
  1  3  1  0
 29 30  1  0
  2  4  1  0
  3  5  2  0
 30 31  2  0
 30 32  1  0
  4  7  1  0
  4  6  2  0
  5  6  1  0
 32 33  1  0
  7  8  2  0
  7  9  1  0
 33 34  1  0
 33 35  1  0
 33 36  1  0
  9 10  1  0
 11  9  1  0
 11 12  1  0
 11 13  1  0
 12 14  2  0
 12 15  1  0
 13 16  1  0
 15 17  1  0
 15 19  1  0
 16 17  1  0
 17 18  2  0
M  END
> <Molecule Name>
Compound 7

> <EC50 (µM) (Excel)>
4.1

> <Error (µM)>
0.2

> <HTRC CRBN-DDB1 EC50 (µM)>
4.06 ±  0.18

> <EC50 fitting (µM)>
3.77

> <Modèle Fitting>
4PL

> <Parent_Compound>
Compound 7

> <MMFF94s_energy_kcalmol>
148.317
> <Compound_Name>
Compound_7_ent2

> <Pose_Rank>
5

> <Docking_Affinity_kcal_mol>
-8.31

> <CNN_Affinity>
7.042

> <CNN_Pose_Score>
0.7402
$$$$
Compound_8_ent1


 31 33  0  0  0  0  0  0  0  0999 V2000
   86.9656  150.9736   13.9869 C   0  0  0  0  0  0  0  0  0  0  0  0
   86.0285  151.9581   13.6400 C   0  0  0  0  0  0  0  0  0  0  0  0
   87.1958  150.6619   15.2844 C   0  0  0  0  0  0  0  0  0  0  0  0
   85.3116  152.6395   14.5994 C   0  0  0  0  0  0  0  0  0  0  0  0
   86.4741  151.3459   16.2715 C   0  0  0  0  0  0  0  0  0  0  0  0
   85.5580  152.3091   15.9109 C   0  0  0  0  0  0  0  0  0  0  0  0
   84.3416  153.6614   14.1911 C   0  0  0  0  0  0  0  0  0  0  0  0
   83.1300  153.3429   14.0256 O   0  0  0  0  0  0  0  0  0  0  0  0
   84.6925  154.9952   13.9710 N   0  0  0  0  0  0  0  0  0  0  0  0
   85.6319  155.2623   14.0951 H   0  0  0  0  0  0  0  0  0  0  0  0
   83.7156  156.0196   13.5608 C   0  0  0  0  0  0  0  0  0  0  0  0
   84.2164  156.7418   12.3702 C   0  0  0  0  0  0  0  0  0  0  0  0
   83.4702  156.9155   14.7301 C   0  0  0  0  0  0  0  0  0  0  0  0
   83.7779  156.4722   11.2255 O   0  0  0  0  0  0  0  0  0  0  0  0
   85.2016  157.7425   12.5588 N   0  0  0  0  0  0  0  0  0  0  0  0
   84.7577  157.6376   15.0636 C   0  0  0  0  0  0  0  0  0  0  0  0
   85.3853  158.2596   13.8895 C   0  0  0  0  0  0  0  0  0  0  0  0
   86.1073  159.2769   14.0468 O   0  0  0  0  0  0  0  0  0  0  0  0
   85.7421  158.0731   11.8052 H   0  0  0  0  0  0  0  0  0  0  0  0
   87.6909  150.3332   12.8614 C   0  0  0  0  0  0  0  0  0  0  0  0
   89.0925  151.6674   11.1329 S   0  0  0  0  0  0  0  0  0  0  0  0
   90.4806  152.2405   10.8997 O   0  0  0  0  0  0  0  0  0  0  0  0
   88.0629  152.7321   11.0138 O   0  0  0  0  0  0  0  0  0  0  0  0
   88.9813  150.9126   12.6544 N   0  0  0  0  0  0  0  0  0  0  0  0
   88.7593  150.4183    9.8801 C   0  0  0  0  0  0  0  0  0  0  0  0
   89.9949  149.9427   12.9214 C   0  0  0  0  0  0  0  0  0  0  0  0
   89.6535  149.2114   10.1968 C   0  0  0  0  0  0  0  0  0  0  0  0
   91.1549  149.9158   11.9816 C   0  0  0  0  0  0  0  0  0  0  0  0
   90.8948  149.7358   10.6309 N   0  0  0  0  0  0  0  0  0  0  0  0
   90.9943  150.6506   10.1908 H   0  0  0  0  0  0  0  0  0  0  0  0
   91.5550  149.0039   10.3681 H   0  0  0  0  0  0  0  0  0  0  0  0
 21 22  2  0
 21 23  2  0
 21 24  1  0
 21 25  1  0
 24 26  1  0
 24 20  1  0
 25 27  1  0
 26 28  1  0
 20  1  1  0
 27 29  1  0
 28 29  1  0
  1  2  2  0
  1  3  1  0
 29 30  1  0
 29 31  1  0
  2  4  1  0
  3  5  2  0
  4  7  1  0
  4  6  2  0
  5  6  1  0
  7  8  2  0
  7  9  1  0
  9 10  1  0
 11  9  1  0
 11 12  1  0
 11 13  1  0
 12 14  2  0
 12 15  1  0
 13 16  1  0
 15 17  1  0
 15 19  1  0
 16 17  1  0
 17 18  2  0
M  CHG 1  29   1
M  END
> <Molecule Name>
Compound 8

> <EC50 (µM) (Excel)>
6.8

> <Error (µM)>
1.0

> <HTRC CRBN-DDB1 EC50 (µM)>
6.77 ±  1.02

> <EC50 fitting (µM)>
7.19

> <Modèle Fitting>
4PL

> <Parent_Compound>
Compound 8

> <MMFF94s_energy_kcalmol>
133.791
> <Compound_Name>
Compound_8_ent1

> <Pose_Rank>
1

> <Docking_Affinity_kcal_mol>
-6.92

> <CNN_Affinity>
6.521

> <CNN_Pose_Score>
0.7899
$$$$

> <minimizedAffinity>
-6.92399

> <CNNscore>
0.7898960114

> <CNNaffinity>
6.5209412575

> <CNN_VS>
5.1508655548

> <CNNaffinity_variance>
0.1255553812

> <Compound_Name>
Compound_8_ent1

> <Pose_Rank>
2

> <Docking_Affinity_kcal_mol>
-7.62

> <CNN_Affinity>
5.778

> <CNN_Pose_Score>
0.6564
$$$$
Compound_8_ent1


 31 33  0  0  0  0  0  0  0  0999 V2000
   88.7231  152.0862   11.6023 C   0  0  0  0  0  0  0  0  0  0  0  0
   87.5230  152.7985   11.7440 C   0  0  0  0  0  0  0  0  0  0  0  0
   89.0425  151.0882   12.4599 C   0  0  0  0  0  0  0  0  0  0  0  0
   86.6301  152.5111   12.7534 C   0  0  0  0  0  0  0  0  0  0  0  0
   88.1443  150.7839   13.4913 C   0  0  0  0  0  0  0  0  0  0  0  0
   86.9709  151.4945   13.6138 C   0  0  0  0  0  0  0  0  0  0  0  0
   85.3870  153.2820   12.8639 C   0  0  0  0  0  0  0  0  0  0  0  0
   84.2808  152.6764   12.9441 O   0  0  0  0  0  0  0  0  0  0  0  0
   85.3597  154.6781   12.8859 N   0  0  0  0  0  0  0  0  0  0  0  0
   86.2118  155.1675   12.8245 H   0  0  0  0  0  0  0  0  0  0  0  0
   84.1089  155.4497   12.9970 C   0  0  0  0  0  0  0  0  0  0  0  0
   84.1589  156.6189   12.0912 C   0  0  0  0  0  0  0  0  0  0  0  0
   83.9264  155.8258   14.4306 C   0  0  0  0  0  0  0  0  0  0  0  0
   83.5547  156.6038   10.9911 O   0  0  0  0  0  0  0  0  0  0  0  0
   84.9057  157.7516   12.4996 N   0  0  0  0  0  0  0  0  0  0  0  0
   85.0554  156.7489   14.8352 C   0  0  0  0  0  0  0  0  0  0  0  0
   85.2522  157.8590   13.8927 C   0  0  0  0  0  0  0  0  0  0  0  0
   85.7387  158.9402   14.3114 O   0  0  0  0  0  0  0  0  0  0  0  0
   85.1784  158.4418   11.8527 H   0  0  0  0  0  0  0  0  0  0  0  0
   89.6106  152.5114   10.4913 C   0  0  0  0  0  0  0  0  0  0  0  0
   90.8701  151.9245    8.3001 S   0  0  0  0  0  0  0  0  0  0  0  0
   90.9146  150.8988    7.1796 O   0  0  0  0  0  0  0  0  0  0  0  0
   92.2012  152.0440    8.9496 O   0  0  0  0  0  0  0  0  0  0  0  0
   89.6872  151.5269    9.4575 N   0  0  0  0  0  0  0  0  0  0  0  0
   90.4355  153.5277    7.6062 C   0  0  0  0  0  0  0  0  0  0  0  0
   88.3843  151.2805    8.9273 C   0  0  0  0  0  0  0  0  0  0  0  0
   88.9596  153.4545    7.1902 C   0  0  0  0  0  0  0  0  0  0  0  0
   88.2865  151.1270    7.4453 C   0  0  0  0  0  0  0  0  0  0  0  0
   88.7595  152.1610    6.6507 N   0  0  0  0  0  0  0  0  0  0  0  0
   89.6607  151.8564    6.2824 H   0  0  0  0  0  0  0  0  0  0  0  0
   87.9966  152.3063    5.9893 H   0  0  0  0  0  0  0  0  0  0  0  0
 21 22  2  0
 21 23  2  0
 21 24  1  0
 21 25  1  0
 24 26  1  0
 24 20  1  0
 25 27  1  0
 26 28  1  0
 20  1  1  0
 27 29  1  0
 28 29  1  0
  1  2  2  0
  1  3  1  0
 29 30  1  0
 29 31  1  0
  2  4  1  0
  3  5  2  0
  4  7  1  0
  4  6  2  0
  5  6  1  0
  7  8  2  0
  7  9  1  0
  9 10  1  0
 11  9  1  0
 11 12  1  0
 11 13  1  0
 12 14  2  0
 12 15  1  0
 13 16  1  0
 15 17  1  0
 15 19  1  0
 16 17  1  0
 17 18  2  0
M  CHG 1  29   1
M  END
> <Molecule Name>
Compound 8

> <EC50 (µM) (Excel)>
6.8

> <Error (µM)>
1.0

> <HTRC CRBN-DDB1 EC50 (µM)>
6.77 ±  1.02

> <EC50 fitting (µM)>
7.19

> <Modèle Fitting>
4PL

> <Parent_Compound>
Compound 8

> <MMFF94s_energy_kcalmol>
133.791
> <Compound_Name>
Compound_8_ent1

> <Pose_Rank>
3

> <Docking_Affinity_kcal_mol>
-7.56

> <CNN_Affinity>
5.277

> <CNN_Pose_Score>
0.3956
$$$$

> <minimizedAffinity>
-7.61743

> <CNNscore>
0.6564220190

> <CNNaffinity>
5.7782611847

> <CNN_VS>
3.7929778099

> <CNNaffinity_variance>
0.1347368509

> <Compound_Name>
Compound_8_ent1

> <Pose_Rank>
4

> <Docking_Affinity_kcal_mol>
-5.8

> <CNN_Affinity>
3.835

> <CNN_Pose_Score>
0.311
$$$$
Compound_8_ent1


 31 33  0  0  0  0  0  0  0  0999 V2000
   89.4796  151.2186   12.8162 C   0  0  0  0  0  0  0  0  0  0  0  0
   88.1659  151.6801   12.9859 C   0  0  0  0  0  0  0  0  0  0  0  0
   90.2035  151.5717   11.7277 C   0  0  0  0  0  0  0  0  0  0  0  0
   87.5671  152.5047   12.0585 C   0  0  0  0  0  0  0  0  0  0  0  0
   89.6083  152.4101   10.7759 C   0  0  0  0  0  0  0  0  0  0  0  0
   88.3174  152.8531   10.9605 C   0  0  0  0  0  0  0  0  0  0  0  0
   86.1908  152.9633   12.2766 C   0  0  0  0  0  0  0  0  0  0  0  0
   85.2480  152.1223   12.3015 O   0  0  0  0  0  0  0  0  0  0  0  0
   85.8598  154.3074   12.4622 N   0  0  0  0  0  0  0  0  0  0  0  0
   86.5810  154.9773   12.4462 H   0  0  0  0  0  0  0  0  0  0  0  0
   84.4760  154.7649   12.6812 C   0  0  0  0  0  0  0  0  0  0  0  0
   84.3740  156.2118   12.3875 C   0  0  0  0  0  0  0  0  0  0  0  0
   84.0950  154.4229   14.0839 C   0  0  0  0  0  0  0  0  0  0  0  0
   83.8857  156.6129   11.3030 O   0  0  0  0  0  0  0  0  0  0  0  0
   84.8418  157.1280   13.3619 N   0  0  0  0  0  0  0  0  0  0  0  0
   84.9777  155.2087   15.0294 C   0  0  0  0  0  0  0  0  0  0  0  0
   85.0340  156.6402   14.7025 C   0  0  0  0  0  0  0  0  0  0  0  0
   85.2569  157.4706   15.6200 O   0  0  0  0  0  0  0  0  0  0  0  0
   85.0289  158.0662   13.1299 H   0  0  0  0  0  0  0  0  0  0  0  0
   89.9986  150.3148   13.8729 C   0  0  0  0  0  0  0  0  0  0  0  0
   91.6479  151.3494   15.5880 S   0  0  0  0  0  0  0  0  0  0  0  0
   91.7021  151.9874   16.9663 O   0  0  0  0  0  0  0  0  0  0  0  0
   92.2486  152.2525   14.5723 O   0  0  0  0  0  0  0  0  0  0  0  0
   90.0511  150.9551   15.1500 N   0  0  0  0  0  0  0  0  0  0  0  0
   92.5981  149.8206   15.6153 C   0  0  0  0  0  0  0  0  0  0  0  0
   89.3376  150.1762   16.1109 C   0  0  0  0  0  0  0  0  0  0  0  0
   91.8058  148.8116   16.4585 C   0  0  0  0  0  0  0  0  0  0  0  0
   89.9621  150.0490   17.4612 C   0  0  0  0  0  0  0  0  0  0  0  0
   91.2505  149.5406   17.5377 N   0  0  0  0  0  0  0  0  0  0  0  0
   91.8682  150.3358   17.7004 H   0  0  0  0  0  0  0  0  0  0  0  0
   91.1735  148.8363   18.2716 H   0  0  0  0  0  0  0  0  0  0  0  0
 21 22  2  0
 21 23  2  0
 21 24  1  0
 21 25  1  0
 24 26  1  0
 24 20  1  0
 25 27  1  0
 26 28  1  0
 20  1  1  0
 27 29  1  0
 28 29  1  0
  1  2  2  0
  1  3  1  0
 29 30  1  0
 29 31  1  0
  2  4  1  0
  3  5  2  0
  4  7  1  0
  4  6  2  0
  5  6  1  0
  7  8  2  0
  7  9  1  0
  9 10  1  0
 11  9  1  0
 11 12  1  0
 11 13  1  0
 12 14  2  0
 12 15  1  0
 13 16  1  0
 15 17  1  0
 15 19  1  0
 16 17  1  0
 17 18  2  0
M  CHG 1  29   1
M  END
> <Molecule Name>
Compound 8

> <EC50 (µM) (Excel)>
6.8

> <Error (µM)>
1.0

> <HTRC CRBN-DDB1 EC50 (µM)>
6.77 ±  1.02

> <EC50 fitting (µM)>
7.19

> <Modèle Fitting>
4PL

> <Parent_Compound>
Compound 8

> <MMFF94s_energy_kcalmol>
133.791
> <Compound_Name>
Compound_8_ent1

> <Pose_Rank>
5

> <Docking_Affinity_kcal_mol>
-7.22

> <CNN_Affinity>
4.94

> <CNN_Pose_Score>
0.2695
$$$$
Compound_8_ent2


 31 33  0  0  0  0  0  0  0  0999 V2000
   82.1823  151.0385   14.9622 C   0  0  0  0  0  0  0  0  0  0  0  0
   82.5565  152.3602   14.9816 C   0  0  0  0  0  0  0  0  0  0  0  0
   82.5117  150.2507   13.9008 C   0  0  0  0  0  0  0  0  0  0  0  0
   83.2607  152.9143   13.9496 C   0  0  0  0  0  0  0  0  0  0  0  0
   83.2245  150.8191   12.8603 C   0  0  0  0  0  0  0  0  0  0  0  0
   83.6037  152.1544   12.8777 C   0  0  0  0  0  0  0  0  0  0  0  0
   83.6370  154.3328   14.0173 C   0  0  0  0  0  0  0  0  0  0  0  0
   82.7158  155.2085   13.8851 O   0  0  0  0  0  0  0  0  0  0  0  0
   84.9370  154.8050   14.2168 N   0  0  0  0  0  0  0  0  0  0  0  0
   85.6813  154.1696   14.3241 H   0  0  0  0  0  0  0  0  0  0  0  0
   85.1869  156.2259   14.2655 C   0  0  0  0  0  0  0  0  0  0  0  0
   85.3057  156.8185   12.9107 C   0  0  0  0  0  0  0  0  0  0  0  0
   84.1012  156.9754   14.9951 C   0  0  0  0  0  0  0  0  0  0  0  0
   85.4368  156.1581   11.8500 O   0  0  0  0  0  0  0  0  0  0  0  0
   85.2663  158.2340   12.8289 N   0  0  0  0  0  0  0  0  0  0  0  0
   84.6560  158.3753   15.2725 C   0  0  0  0  0  0  0  0  0  0  0  0
   85.1557  158.9974   14.0229 C   0  0  0  0  0  0  0  0  0  0  0  0
   85.4744  160.2027   14.0483 O   0  0  0  0  0  0  0  0  0  0  0  0
   85.3149  158.6831   11.9542 H   0  0  0  0  0  0  0  0  0  0  0  0
   81.4218  150.5241   16.1225 C   0  0  0  0  0  0  0  0  0  0  0  0
   79.2128  150.1733   17.3906 S   0  0  0  0  0  0  0  0  0  0  0  0
   78.7271  151.4344   18.0173 O   0  0  0  0  0  0  0  0  0  0  0  0
   80.1262  149.3936   18.2960 O   0  0  0  0  0  0  0  0  0  0  0  0
   79.9867  150.5544   15.9204 N   0  0  0  0  0  0  0  0  0  0  0  0
   77.7589  149.1944   16.9888 C   0  0  0  0  0  0  0  0  0  0  0  0
   79.6618  149.6849   14.8358 C   0  0  0  0  0  0  0  0  0  0  0  0
   76.8051  150.0705   16.2063 C   0  0  0  0  0  0  0  0  0  0  0  0
   78.2603  149.8663   14.3146 C   0  0  0  0  0  0  0  0  0  0  0  0
   77.5236  150.7754   15.1662 N   0  0  0  0  0  0  0  0  0  0  0  0
   78.1784  151.4264   15.5995 H   0  0  0  0  0  0  0  0  0  0  0  0
   76.8436  151.2708   14.5895 H   0  0  0  0  0  0  0  0  0  0  0  0
 21 22  2  0
 21 23  2  0
 21 24  1  0
 21 25  1  0
 24 26  1  0
 24 20  1  0
 25 27  1  0
 26 28  1  0
 20  1  1  0
 27 29  1  0
 28 29  1  0
  1  2  2  0
  1  3  1  0
 29 30  1  0
 29 31  1  0
  2  4  1  0
  3  5  2  0
  4  7  1  0
  4  6  2  0
  5  6  1  0
  7  8  2  0
  7  9  1  0
  9 10  1  0
 11  9  1  0
 11 12  1  0
 11 13  1  0
 12 14  2  0
 12 15  1  0
 13 16  1  0
 15 17  1  0
 15 19  1  0
 16 17  1  0
 17 18  2  0
M  CHG 1  29   1
M  END
> <Molecule Name>
Compound 8

> <EC50 (µM) (Excel)>
6.8

> <Error (µM)>
1.0

> <HTRC CRBN-DDB1 EC50 (µM)>
6.77 ±  1.02

> <EC50 fitting (µM)>
7.19

> <Modèle Fitting>
4PL

> <Parent_Compound>
Compound 8

> <MMFF94s_energy_kcalmol>
109.581
> <Compound_Name>
Compound_8_ent2

> <Pose_Rank>
1

> <Docking_Affinity_kcal_mol>
-9.6

> <CNN_Affinity>
6.939

> <CNN_Pose_Score>
0.9038
$$$$

> <minimizedAffinity>
-9.60427

> <CNNscore>
0.9038450718

> <CNNaffinity>
6.9385223389

> <CNN_VS>
6.2713494301

> <CNNaffinity_variance>
0.8592920899

> <Compound_Name>
Compound_8_ent2

> <Pose_Rank>
2

> <Docking_Affinity_kcal_mol>
-8.8

> <CNN_Affinity>
6.678

> <CNN_Pose_Score>
0.885
$$$$
Compound_8_ent2


 31 33  0  0  0  0  0  0  0  0999 V2000
   83.1343  150.5866   15.2011 C   0  0  0  0  0  0  0  0  0  0  0  0
   83.4009  151.9343   15.1950 C   0  0  0  0  0  0  0  0  0  0  0  0
   83.0940  149.8929   14.0295 C   0  0  0  0  0  0  0  0  0  0  0  0
   83.6301  152.6077   14.0281 C   0  0  0  0  0  0  0  0  0  0  0  0
   83.3271  150.5817   12.8527 C   0  0  0  0  0  0  0  0  0  0  0  0
   83.5966  151.9435   12.8441 C   0  0  0  0  0  0  0  0  0  0  0  0
   83.9103  154.0491   14.0741 C   0  0  0  0  0  0  0  0  0  0  0  0
   82.9471  154.8586   13.8509 O   0  0  0  0  0  0  0  0  0  0  0  0
   85.1607  154.6109   14.3457 N   0  0  0  0  0  0  0  0  0  0  0  0
   85.9344  154.0288   14.5242 H   0  0  0  0  0  0  0  0  0  0  0  0
   85.3163  156.0459   14.3642 C   0  0  0  0  0  0  0  0  0  0  0  0
   85.5448  156.6001   13.0073 C   0  0  0  0  0  0  0  0  0  0  0  0
   84.1139  156.7465   14.9440 C   0  0  0  0  0  0  0  0  0  0  0  0
   85.8305  155.9152   11.9935 O   0  0  0  0  0  0  0  0  0  0  0  0
   85.4277  158.0065   12.8656 N   0  0  0  0  0  0  0  0  0  0  0  0
   84.5485  158.1880   15.2230 C   0  0  0  0  0  0  0  0  0  0  0  0
   85.1416  158.7999   14.0099 C   0  0  0  0  0  0  0  0  0  0  0  0
   85.3812  160.0237   14.0211 O   0  0  0  0  0  0  0  0  0  0  0  0
   85.5434  158.4289   11.9838 H   0  0  0  0  0  0  0  0  0  0  0  0
   82.8982  149.9404   16.5111 C   0  0  0  0  0  0  0  0  0  0  0  0
   80.8201  150.2546   17.9920 S   0  0  0  0  0  0  0  0  0  0  0  0
   79.9275  151.3288   17.4740 O   0  0  0  0  0  0  0  0  0  0  0  0
   81.8626  150.7783   18.9413 O   0  0  0  0  0  0  0  0  0  0  0  0
   81.5413  149.4561   16.6700 N   0  0  0  0  0  0  0  0  0  0  0  0
   79.7693  149.0584   18.8277 C   0  0  0  0  0  0  0  0  0  0  0  0
   81.5766  148.0334   16.7832 C   0  0  0  0  0  0  0  0  0  0  0  0
   78.6503  148.6765   17.8836 C   0  0  0  0  0  0  0  0  0  0  0  0
   80.2276  147.3812   16.6298 C   0  0  0  0  0  0  0  0  0  0  0  0
   79.1890  148.3874   16.5717 N   0  0  0  0  0  0  0  0  0  0  0  0
   79.5799  149.2437   16.1787 H   0  0  0  0  0  0  0  0  0  0  0  0
   78.4322  148.0301   15.9886 H   0  0  0  0  0  0  0  0  0  0  0  0
 21 22  2  0
 21 23  2  0
 21 24  1  0
 21 25  1  0
 24 26  1  0
 24 20  1  0
 25 27  1  0
 26 28  1  0
 20  1  1  0
 27 29  1  0
 28 29  1  0
  1  2  2  0
  1  3  1  0
 29 30  1  0
 29 31  1  0
  2  4  1  0
  3  5  2  0
  4  7  1  0
  4  6  2  0
  5  6  1  0
  7  8  2  0
  7  9  1  0
  9 10  1  0
 11  9  1  0
 11 12  1  0
 11 13  1  0
 12 14  2  0
 12 15  1  0
 13 16  1  0
 15 17  1  0
 15 19  1  0
 16 17  1  0
 17 18  2  0
M  CHG 1  29   1
M  END
> <Molecule Name>
Compound 8

> <EC50 (µM) (Excel)>
6.8

> <Error (µM)>
1.0

> <HTRC CRBN-DDB1 EC50 (µM)>
6.77 ±  1.02

> <EC50 fitting (µM)>
7.19

> <Modèle Fitting>
4PL

> <Parent_Compound>
Compound 8

> <MMFF94s_energy_kcalmol>
109.581
> <Compound_Name>
Compound_8_ent2

> <Pose_Rank>
3

> <Docking_Affinity_kcal_mol>
-9.13

> <CNN_Affinity>
6.938

> <CNN_Pose_Score>
0.871
$$$$

> <minimizedAffinity>
-8.79827

> <CNNscore>
0.8849670291

> <CNNaffinity>
6.6781883240

> <CNN_VS>
5.9099764824

> <CNNaffinity_variance>
0.2917394638

> <Compound_Name>
Compound_8_ent2

> <Pose_Rank>
4

> <Docking_Affinity_kcal_mol>
-8.01

> <CNN_Affinity>
7.074

> <CNN_Pose_Score>
0.8362
$$$$
Compound_8_ent2


 31 33  0  0  0  0  0  0  0  0999 V2000
   81.8832  151.2410   15.0795 C   0  0  0  0  0  0  0  0  0  0  0  0
   82.3065  152.5478   15.0641 C   0  0  0  0  0  0  0  0  0  0  0  0
   82.2722  150.3852   14.0936 C   0  0  0  0  0  0  0  0  0  0  0  0
   83.1192  153.0195   14.0717 C   0  0  0  0  0  0  0  0  0  0  0  0
   83.0948  150.8703   13.0929 C   0  0  0  0  0  0  0  0  0  0  0  0
   83.5238  152.1906   13.0751 C   0  0  0  0  0  0  0  0  0  0  0  0
   83.5443  154.4255   14.0995 C   0  0  0  0  0  0  0  0  0  0  0  0
   82.6523  155.3286   13.9520 O   0  0  0  0  0  0  0  0  0  0  0  0
   84.8613  154.8579   14.2763 N   0  0  0  0  0  0  0  0  0  0  0  0
   85.5845  154.2003   14.3941 H   0  0  0  0  0  0  0  0  0  0  0  0
   85.1600  156.2702   14.2860 C   0  0  0  0  0  0  0  0  0  0  0  0
   85.2101  156.8396   12.9171 C   0  0  0  0  0  0  0  0  0  0  0  0
   84.1487  157.0657   15.0717 C   0  0  0  0  0  0  0  0  0  0  0  0
   85.2507  156.1605   11.8609 O   0  0  0  0  0  0  0  0  0  0  0  0
   85.2115  158.2543   12.8153 N   0  0  0  0  0  0  0  0  0  0  0  0
   84.7656  158.4499   15.2904 C   0  0  0  0  0  0  0  0  0  0  0  0
   85.2033  159.0375   14.0016 C   0  0  0  0  0  0  0  0  0  0  0  0
   85.5621  160.2317   13.9871 O   0  0  0  0  0  0  0  0  0  0  0  0
   85.2181  158.6893   11.9321 H   0  0  0  0  0  0  0  0  0  0  0  0
   81.0047  150.8179   16.1924 C   0  0  0  0  0  0  0  0  0  0  0  0
   80.5194  149.4088   18.2875 S   0  0  0  0  0  0  0  0  0  0  0  0
   79.9987  148.0575   17.9384 O   0  0  0  0  0  0  0  0  0  0  0  0
   79.4241  150.4288   18.4354 O   0  0  0  0  0  0  0  0  0  0  0  0
   81.6449  149.8864   17.0998 N   0  0  0  0  0  0  0  0  0  0  0  0
   81.4185  149.2396   19.8356 C   0  0  0  0  0  0  0  0  0  0  0  0
   82.8293  150.4946   17.6148 C   0  0  0  0  0  0  0  0  0  0  0  0
   82.4040  148.1015   19.6837 C   0  0  0  0  0  0  0  0  0  0  0  0
   83.7518  149.5280   18.3102 C   0  0  0  0  0  0  0  0  0  0  0  0
   83.1191  148.2321   18.4321 N   0  0  0  0  0  0  0  0  0  0  0  0
   82.4618  148.1114   17.6615 H   0  0  0  0  0  0  0  0  0  0  0  0
   83.8477  147.5188   18.4060 H   0  0  0  0  0  0  0  0  0  0  0  0
 21 22  2  0
 21 23  2  0
 21 24  1  0
 21 25  1  0
 24 26  1  0
 24 20  1  0
 25 27  1  0
 26 28  1  0
 20  1  1  0
 27 29  1  0
 28 29  1  0
  1  2  2  0
  1  3  1  0
 29 30  1  0
 29 31  1  0
  2  4  1  0
  3  5  2  0
  4  7  1  0
  4  6  2  0
  5  6  1  0
  7  8  2  0
  7  9  1  0
  9 10  1  0
 11  9  1  0
 11 12  1  0
 11 13  1  0
 12 14  2  0
 12 15  1  0
 13 16  1  0
 15 17  1  0
 15 19  1  0
 16 17  1  0
 17 18  2  0
M  CHG 1  29   1
M  END
> <Molecule Name>
Compound 8

> <EC50 (µM) (Excel)>
6.8

> <Error (µM)>
1.0

> <HTRC CRBN-DDB1 EC50 (µM)>
6.77 ±  1.02

> <EC50 fitting (µM)>
7.19

> <Modèle Fitting>
4PL

> <Parent_Compound>
Compound 8

> <MMFF94s_energy_kcalmol>
109.581
> <Compound_Name>
Compound_8_ent2

> <Pose_Rank>
5

> <Docking_Affinity_kcal_mol>
-8.16

> <CNN_Affinity>
6.605

> <CNN_Pose_Score>
0.8037
$$$$
Compound_9_ent1


 36 38  0  0  0  0  0  0  0  0999 V2000
   80.8721  150.2191   17.1834 C   0  0  0  0  0  0  0  0  0  0  0  0
   79.6077  150.7372   17.3568 C   0  0  0  0  0  0  0  0  0  0  0  0
   80.9259  148.8824   16.7715 C   0  0  0  0  0  0  0  0  0  0  0  0
   78.4695  149.9905   17.1391 C   0  0  0  0  0  0  0  0  0  0  0  0
   79.8100  148.1304   16.5522 C   0  0  0  0  0  0  0  0  0  0  0  0
   78.5364  148.6828   16.7362 C   0  0  0  0  0  0  0  0  0  0  0  0
   77.1720  150.6067   17.3424 C   0  0  0  0  0  0  0  0  0  0  0  0
   76.2841  150.6056   16.4269 O   0  0  0  0  0  0  0  0  0  0  0  0
   76.7826  151.2489   18.5469 N   0  0  0  0  0  0  0  0  0  0  0  0
   77.4181  151.2863   19.2978 H   0  0  0  0  0  0  0  0  0  0  0  0
   75.4532  151.8600   18.7016 C   0  0  0  0  0  0  0  0  0  0  0  0
   75.6148  153.0364   19.5653 C   0  0  0  0  0  0  0  0  0  0  0  0
   74.4681  150.8410   19.2358 C   0  0  0  0  0  0  0  0  0  0  0  0
   75.7296  154.2184   19.1105 O   0  0  0  0  0  0  0  0  0  0  0  0
   75.6429  152.8286   20.9843 N   0  0  0  0  0  0  0  0  0  0  0  0
   74.5456  150.6090   20.7018 C   0  0  0  0  0  0  0  0  0  0  0  0
   75.4286  151.5066   21.4427 C   0  0  0  0  0  0  0  0  0  0  0  0
   75.9980  151.1166   22.4823 O   0  0  0  0  0  0  0  0  0  0  0  0
   75.8038  153.5711   21.6104 H   0  0  0  0  0  0  0  0  0  0  0  0
   82.1259  150.9873   17.4002 C   0  0  0  0  0  0  0  0  0  0  0  0
   84.1056  150.6959   15.7784 S   0  0  0  0  0  0  0  0  0  0  0  0
   84.8848  150.3997   17.0557 O   0  0  0  0  0  0  0  0  0  0  0  0
   83.8810  149.3257   15.1481 O   0  0  0  0  0  0  0  0  0  0  0  0
   82.6700  151.3863   16.1547 N   0  0  0  0  0  0  0  0  0  0  0  0
   85.1963  151.5754   14.7193 C   0  0  0  0  0  0  0  0  0  0  0  0
   82.0426  152.3909   15.4461 C   0  0  0  0  0  0  0  0  0  0  0  0
   85.1767  153.0357   15.1741 C   0  0  0  0  0  0  0  0  0  0  0  0
   82.7535  152.9909   14.2789 C   0  0  0  0  0  0  0  0  0  0  0  0
   83.9884  153.6264   14.6025 N   0  0  0  0  0  0  0  0  0  0  0  0
   84.0901  155.0134   14.3434 C   0  0  0  0  0  0  0  0  0  0  0  0
   83.0821  155.5882   13.8398 O   0  0  0  0  0  0  0  0  0  0  0  0
   85.3159  155.8004   14.6376 C   0  0  0  0  0  0  0  0  0  0  0  0
   85.2156  157.1602   14.1966 N   0  0  0  0  0  0  0  0  0  0  0  0
   84.4312  158.0114   15.0343 C   0  0  0  0  0  0  0  0  0  0  0  0
   84.7792  157.2734   12.8188 C   0  0  0  0  0  0  0  0  0  0  0  0
   86.1753  157.4987   14.2660 H   0  0  0  0  0  0  0  0  0  0  0  0
 21 22  2  0
 21 23  2  0
 21 24  1  0
 21 25  1  0
 24 26  1  0
 24 20  1  0
 25 27  1  0
 26 28  1  0
 20  1  1  0
 27 29  1  0
 28 29  1  0
  1  2  2  0
  1  3  1  0
 29 30  1  0
  2  4  1  0
  3  5  2  0
 30 31  2  0
 30 32  1  0
  4  7  1  0
  4  6  2  0
  5  6  1  0
 32 33  1  0
  7  8  2  0
  7  9  1  0
 33 34  1  0
 33 35  1  0
 33 36  1  0
  9 10  1  0
 11  9  1  0
 11 12  1  0
 11 13  1  0
 12 14  2  0
 12 15  1  0
 13 16  1  0
 15 17  1  0
 15 19  1  0
 16 17  1  0
 17 18  2  0
M  CHG 1  33   1
M  END
> <Molecule Name>
Compound 9

> <EC50 (µM) (Excel)>
54.0

> <Error (µM)>
9.3

> <HTRC CRBN-DDB1 EC50 (µM)>
53.95 ±  9.32

> <EC50 fitting (µM)>
108.30

> <Modèle Fitting>
4PL

> <Parent_Compound>
Compound 9

> <MMFF94s_energy_kcalmol>
165.178
> <Compound_Name>
Compound_9_ent1

> <Pose_Rank>
1

> <Docking_Affinity_kcal_mol>
-7.87

> <CNN_Affinity>
5.906

> <CNN_Pose_Score>
0.2992
$$$$

> <minimizedAffinity>
-7.86998

> <CNNscore>
0.2992449999

> <CNNaffinity>
5.9060959816

> <CNN_VS>
1.7673697472

> <CNNaffinity_variance>
0.3574322760

> <Compound_Name>
Compound_9_ent1

> <Pose_Rank>
2

> <Docking_Affinity_kcal_mol>
-7.64

> <CNN_Affinity>
5.166

> <CNN_Pose_Score>
0.294
$$$$
Compound_9_ent1


 36 38  0  0  0  0  0  0  0  0999 V2000
   82.0124  150.1484   14.4523 C   0  0  0  0  0  0  0  0  0  0  0  0
   83.0408  151.0643   14.4792 C   0  0  0  0  0  0  0  0  0  0  0  0
   80.8719  150.4992   15.1841 C   0  0  0  0  0  0  0  0  0  0  0  0
   82.9543  152.2487   15.1793 C   0  0  0  0  0  0  0  0  0  0  0  0
   80.7706  151.6663   15.8819 C   0  0  0  0  0  0  0  0  0  0  0  0
   81.8319  152.5797   15.8917 C   0  0  0  0  0  0  0  0  0  0  0  0
   84.0798  153.1638   15.1593 C   0  0  0  0  0  0  0  0  0  0  0  0
   84.9593  153.1569   16.0829 O   0  0  0  0  0  0  0  0  0  0  0  0
   84.2994  154.1237   14.1370 N   0  0  0  0  0  0  0  0  0  0  0  0
   83.6603  154.1844   13.3906 H   0  0  0  0  0  0  0  0  0  0  0  0
   85.4579  155.0303   14.1646 C   0  0  0  0  0  0  0  0  0  0  0  0
   84.9454  156.3804   14.4307 C   0  0  0  0  0  0  0  0  0  0  0  0
   86.2407  154.9180   12.8728 C   0  0  0  0  0  0  0  0  0  0  0  0
   84.9403  156.9025   15.5902 O   0  0  0  0  0  0  0  0  0  0  0  0
   84.4303  157.1332   13.3238 N   0  0  0  0  0  0  0  0  0  0  0  0
   85.6640  155.6699   11.7278 C   0  0  0  0  0  0  0  0  0  0  0  0
   84.5340  156.5408   12.0424 C   0  0  0  0  0  0  0  0  0  0  0  0
   83.6552  156.7694   11.1865 O   0  0  0  0  0  0  0  0  0  0  0  0
   84.0233  158.0207   13.4495 H   0  0  0  0  0  0  0  0  0  0  0  0
   82.0585  148.8631   13.7075 C   0  0  0  0  0  0  0  0  0  0  0  0
   79.9081  148.4048   12.3660 S   0  0  0  0  0  0  0  0  0  0  0  0
   80.2567  149.7250   11.6862 O   0  0  0  0  0  0  0  0  0  0  0  0
   80.3133  147.3407   11.3517 O   0  0  0  0  0  0  0  0  0  0  0  0
   80.7863  148.2409   13.7374 N   0  0  0  0  0  0  0  0  0  0  0  0
   78.1570  148.3535   12.4915 C   0  0  0  0  0  0  0  0  0  0  0  0
   80.3452  147.6858   14.9216 C   0  0  0  0  0  0  0  0  0  0  0  0
   77.7743  149.1861   13.7164 C   0  0  0  0  0  0  0  0  0  0  0  0
   78.9146  147.2728   15.0260 C   0  0  0  0  0  0  0  0  0  0  0  0
   77.9796  148.3378   14.8680 N   0  0  0  0  0  0  0  0  0  0  0  0
   77.1332  148.6241   15.9649 C   0  0  0  0  0  0  0  0  0  0  0  0
   77.2631  147.9132   17.0030 O   0  0  0  0  0  0  0  0  0  0  0  0
   76.1187  149.7097   15.9381 C   0  0  0  0  0  0  0  0  0  0  0  0
   75.3784  149.8012   17.1617 N   0  0  0  0  0  0  0  0  0  0  0  0
   74.0625  149.2465   17.1154 C   0  0  0  0  0  0  0  0  0  0  0  0
   75.3352  151.1495   17.6927 C   0  0  0  0  0  0  0  0  0  0  0  0
   75.9128  149.2133   17.8014 H   0  0  0  0  0  0  0  0  0  0  0  0
 21 22  2  0
 21 23  2  0
 21 24  1  0
 21 25  1  0
 24 26  1  0
 24 20  1  0
 25 27  1  0
 26 28  1  0
 20  1  1  0
 27 29  1  0
 28 29  1  0
  1  2  2  0
  1  3  1  0
 29 30  1  0
  2  4  1  0
  3  5  2  0
 30 31  2  0
 30 32  1  0
  4  7  1  0
  4  6  2  0
  5  6  1  0
 32 33  1  0
  7  8  2  0
  7  9  1  0
 33 34  1  0
 33 35  1  0
 33 36  1  0
  9 10  1  0
 11  9  1  0
 11 12  1  0
 11 13  1  0
 12 14  2  0
 12 15  1  0
 13 16  1  0
 15 17  1  0
 15 19  1  0
 16 17  1  0
 17 18  2  0
M  CHG 1  33   1
M  END
> <Molecule Name>
Compound 9

> <EC50 (µM) (Excel)>
54.0

> <Error (µM)>
9.3

> <HTRC CRBN-DDB1 EC50 (µM)>
53.95 ±  9.32

> <EC50 fitting (µM)>
108.30

> <Modèle Fitting>
4PL

> <Parent_Compound>
Compound 9

> <MMFF94s_energy_kcalmol>
165.178
> <Compound_Name>
Compound_9_ent1

> <Pose_Rank>
3

> <Docking_Affinity_kcal_mol>
-7.38

> <CNN_Affinity>
5.481

> <CNN_Pose_Score>
0.23
$$$$

> <minimizedAffinity>
-7.63746

> <CNNscore>
0.2939530313

> <CNNaffinity>
5.1663064957

> <CNN_VS>
1.5186514854

> <CNNaffinity_variance>
1.0141739845

> <Compound_Name>
Compound_9_ent1

> <Pose_Rank>
4

> <Docking_Affinity_kcal_mol>
-7.56

> <CNN_Affinity>
5.288

> <CNN_Pose_Score>
0.2184
$$$$
Compound_9_ent1


 36 38  0  0  0  0  0  0  0  0999 V2000
   86.4614  151.2843   11.9261 C   0  0  0  0  0  0  0  0  0  0  0  0
   87.1725  150.8263   10.8390 C   0  0  0  0  0  0  0  0  0  0  0  0
   86.6236  152.6420   12.2255 C   0  0  0  0  0  0  0  0  0  0  0  0
   87.9899  151.6491   10.0937 C   0  0  0  0  0  0  0  0  0  0  0  0
   87.4282  153.4689   11.4987 C   0  0  0  0  0  0  0  0  0  0  0  0
   88.1398  152.9765   10.3979 C   0  0  0  0  0  0  0  0  0  0  0  0
   88.7067  151.0933    8.9616 C   0  0  0  0  0  0  0  0  0  0  0  0
   88.2062  150.1610    8.2497 O   0  0  0  0  0  0  0  0  0  0  0  0
   89.9957  151.5256    8.5533 N   0  0  0  0  0  0  0  0  0  0  0  0
   90.4426  152.2440    9.0568 H   0  0  0  0  0  0  0  0  0  0  0  0
   90.6808  150.9273    7.3969 C   0  0  0  0  0  0  0  0  0  0  0  0
   92.1170  151.1835    7.5638 C   0  0  0  0  0  0  0  0  0  0  0  0
   90.1080  151.4778    6.1074 C   0  0  0  0  0  0  0  0  0  0  0  0
   92.9207  150.3271    8.0512 O   0  0  0  0  0  0  0  0  0  0  0  0
   92.6227  152.4618    7.1544 N   0  0  0  0  0  0  0  0  0  0  0  0
   90.6127  152.8228    5.7261 C   0  0  0  0  0  0  0  0  0  0  0  0
   91.7043  153.3483    6.5425 C   0  0  0  0  0  0  0  0  0  0  0  0
   91.8357  154.5785    6.7055 O   0  0  0  0  0  0  0  0  0  0  0  0
   93.5651  152.7111    7.2925 H   0  0  0  0  0  0  0  0  0  0  0  0
   85.5646  150.4365   12.7543 C   0  0  0  0  0  0  0  0  0  0  0  0
   83.2872  151.1311   13.7369 S   0  0  0  0  0  0  0  0  0  0  0  0
   82.7875  150.8569   12.3221 O   0  0  0  0  0  0  0  0  0  0  0  0
   82.8334  149.9158   14.5384 O   0  0  0  0  0  0  0  0  0  0  0  0
   84.9210  151.2290   13.7364 N   0  0  0  0  0  0  0  0  0  0  0  0
   82.3741  152.5084   14.3321 C   0  0  0  0  0  0  0  0  0  0  0  0
   85.6820  152.0948   14.4955 C   0  0  0  0  0  0  0  0  0  0  0  0
   83.0378  153.7625   13.7606 C   0  0  0  0  0  0  0  0  0  0  0  0
   84.9814  153.1119   15.3338 C   0  0  0  0  0  0  0  0  0  0  0  0
   84.1837  154.0363   14.5971 N   0  0  0  0  0  0  0  0  0  0  0  0
   84.5389  155.4035   14.6751 C   0  0  0  0  0  0  0  0  0  0  0  0
   85.5334  155.7076   15.3951 O   0  0  0  0  0  0  0  0  0  0  0  0
   83.7980  156.4709   13.9540 C   0  0  0  0  0  0  0  0  0  0  0  0
   84.6233  157.1794   13.0210 N   0  0  0  0  0  0  0  0  0  0  0  0
   85.6454  156.3963   12.4016 C   0  0  0  0  0  0  0  0  0  0  0  0
   85.1901  158.3912   13.5795 C   0  0  0  0  0  0  0  0  0  0  0  0
   83.9708  157.4335   12.2794 H   0  0  0  0  0  0  0  0  0  0  0  0
 21 22  2  0
 21 23  2  0
 21 24  1  0
 21 25  1  0
 24 26  1  0
 24 20  1  0
 25 27  1  0
 26 28  1  0
 20  1  1  0
 27 29  1  0
 28 29  1  0
  1  2  2  0
  1  3  1  0
 29 30  1  0
  2  4  1  0
  3  5  2  0
 30 31  2  0
 30 32  1  0
  4  7  1  0
  4  6  2  0
  5  6  1  0
 32 33  1  0
  7  8  2  0
  7  9  1  0
 33 34  1  0
 33 35  1  0
 33 36  1  0
  9 10  1  0
 11  9  1  0
 11 12  1  0
 11 13  1  0
 12 14  2  0
 12 15  1  0
 13 16  1  0
 15 17  1  0
 15 19  1  0
 16 17  1  0
 17 18  2  0
M  CHG 1  33   1
M  END
> <Molecule Name>
Compound 9

> <EC50 (µM) (Excel)>
54.0

> <Error (µM)>
9.3

> <HTRC CRBN-DDB1 EC50 (µM)>
53.95 ±  9.32

> <EC50 fitting (µM)>
108.30

> <Modèle Fitting>
4PL

> <Parent_Compound>
Compound 9

> <MMFF94s_energy_kcalmol>
165.178
> <Compound_Name>
Compound_9_ent1

> <Pose_Rank>
5

> <Docking_Affinity_kcal_mol>
-6.04

> <CNN_Affinity>
5.334

> <CNN_Pose_Score>
0.2019
$$$$
Compound_9_ent2


 36 38  0  0  0  0  0  0  0  0999 V2000
   82.4104  150.3827   15.6561 C   0  0  0  0  0  0  0  0  0  0  0  0
   83.4163  151.2699   15.3570 C   0  0  0  0  0  0  0  0  0  0  0  0
   81.1047  150.8584   15.6705 C   0  0  0  0  0  0  0  0  0  0  0  0
   83.2025  152.6034   15.0707 C   0  0  0  0  0  0  0  0  0  0  0  0
   80.8587  152.1798   15.3902 C   0  0  0  0  0  0  0  0  0  0  0  0
   81.9058  153.0567   15.0895 C   0  0  0  0  0  0  0  0  0  0  0  0
   84.3093  153.4995   14.7625 C   0  0  0  0  0  0  0  0  0  0  0  0
   85.4832  153.2337   15.1848 O   0  0  0  0  0  0  0  0  0  0  0  0
   84.1721  154.6764   14.0067 N   0  0  0  0  0  0  0  0  0  0  0  0
   83.2878  154.9297   13.6559 H   0  0  0  0  0  0  0  0  0  0  0  0
   85.3238  155.5251   13.7372 C   0  0  0  0  0  0  0  0  0  0  0  0
   85.0980  156.3628   12.5417 C   0  0  0  0  0  0  0  0  0  0  0  0
   85.5297  156.3633   14.9836 C   0  0  0  0  0  0  0  0  0  0  0  0
   84.9132  155.8152   11.4359 O   0  0  0  0  0  0  0  0  0  0  0  0
   85.0864  157.7766   12.6196 N   0  0  0  0  0  0  0  0  0  0  0  0
   84.5384  157.5172   15.0313 C   0  0  0  0  0  0  0  0  0  0  0  0
   84.8437  158.3970   13.8755 C   0  0  0  0  0  0  0  0  0  0  0  0
   84.8802  159.6422   14.0273 O   0  0  0  0  0  0  0  0  0  0  0  0
   85.2441  158.3222   11.8154 H   0  0  0  0  0  0  0  0  0  0  0  0
   82.7008  148.9441   15.9555 C   0  0  0  0  0  0  0  0  0  0  0  0
   85.0998  147.9335   16.1244 S   0  0  0  0  0  0  0  0  0  0  0  0
   84.9604  148.2976   17.5741 O   0  0  0  0  0  0  0  0  0  0  0  0
   85.1718  146.4262   16.0606 O   0  0  0  0  0  0  0  0  0  0  0  0
   83.8123  148.4878   15.2408 N   0  0  0  0  0  0  0  0  0  0  0  0
   86.6726  148.5411   15.5786 C   0  0  0  0  0  0  0  0  0  0  0  0
   83.7840  148.3949   13.8542 C   0  0  0  0  0  0  0  0  0  0  0  0
   86.3874  149.8665   14.9043 C   0  0  0  0  0  0  0  0  0  0  0  0
   85.0809  148.5042   13.1214 C   0  0  0  0  0  0  0  0  0  0  0  0
   85.9265  149.5748   13.5710 N   0  0  0  0  0  0  0  0  0  0  0  0
   86.3751  150.4772   12.5833 C   0  0  0  0  0  0  0  0  0  0  0  0
   86.0224  150.3012   11.3710 O   0  0  0  0  0  0  0  0  0  0  0  0
   87.2437  151.6409   12.8477 C   0  0  0  0  0  0  0  0  0  0  0  0
   87.9293  152.1140   11.6872 N   0  0  0  0  0  0  0  0  0  0  0  0
   89.2843  151.6787   11.5584 C   0  0  0  0  0  0  0  0  0  0  0  0
   87.6945  153.4839   11.3610 C   0  0  0  0  0  0  0  0  0  0  0  0
   87.4626  151.6167   10.9287 H   0  0  0  0  0  0  0  0  0  0  0  0
 21 22  2  0
 21 23  2  0
 21 24  1  0
 21 25  1  0
 24 26  1  0
 24 20  1  0
 25 27  1  0
 26 28  1  0
 20  1  1  0
 27 29  1  0
 28 29  1  0
  1  2  2  0
  1  3  1  0
 29 30  1  0
  2  4  1  0
  3  5  2  0
 30 31  2  0
 30 32  1  0
  4  7  1  0
  4  6  2  0
  5  6  1  0
 32 33  1  0
  7  8  2  0
  7  9  1  0
 33 34  1  0
 33 35  1  0
 33 36  1  0
  9 10  1  0
 11  9  1  0
 11 12  1  0
 11 13  1  0
 12 14  2  0
 12 15  1  0
 13 16  1  0
 15 17  1  0
 15 19  1  0
 16 17  1  0
 17 18  2  0
M  CHG 1  33   1
M  END
> <Molecule Name>
Compound 9

> <EC50 (µM) (Excel)>
54.0

> <Error (µM)>
9.3

> <HTRC CRBN-DDB1 EC50 (µM)>
53.95 ±  9.32

> <EC50 fitting (µM)>
108.30

> <Modèle Fitting>
4PL

> <Parent_Compound>
Compound 9

> <MMFF94s_energy_kcalmol>
152.432
> <Compound_Name>
Compound_9_ent2

> <Pose_Rank>
1

> <Docking_Affinity_kcal_mol>
-7.22

> <CNN_Affinity>
6.741

> <CNN_Pose_Score>
0.6437
$$$$

> <minimizedAffinity>
-7.22372

> <CNNscore>
0.6436757445

> <CNNaffinity>
6.7406487465

> <CNN_VS>
4.3387923241

> <CNNaffinity_variance>
0.0385637730

> <Compound_Name>
Compound_9_ent2

> <Pose_Rank>
2

> <Docking_Affinity_kcal_mol>
-8.5

> <CNN_Affinity>
6.453

> <CNN_Pose_Score>
0.5774
$$$$
Compound_9_ent2


 36 38  0  0  0  0  0  0  0  0999 V2000
   81.9529  150.2974   14.4388 C   0  0  0  0  0  0  0  0  0  0  0  0
   82.9775  151.1602   14.1318 C   0  0  0  0  0  0  0  0  0  0  0  0
   80.9390  150.7591   15.2695 C   0  0  0  0  0  0  0  0  0  0  0  0
   83.0552  152.4563   14.6012 C   0  0  0  0  0  0  0  0  0  0  0  0
   80.9870  152.0432   15.7532 C   0  0  0  0  0  0  0  0  0  0  0  0
   82.0445  152.8960   15.4212 C   0  0  0  0  0  0  0  0  0  0  0  0
   84.1679  153.3265   14.2440 C   0  0  0  0  0  0  0  0  0  0  0  0
   85.3643  152.8871   14.2945 O   0  0  0  0  0  0  0  0  0  0  0  0
   84.0126  154.6615   13.8331 N   0  0  0  0  0  0  0  0  0  0  0  0
   83.1105  155.0518   13.7763 H   0  0  0  0  0  0  0  0  0  0  0  0
   85.1715  155.4732   13.4907 C   0  0  0  0  0  0  0  0  0  0  0  0
   84.8590  156.4073   12.3899 C   0  0  0  0  0  0  0  0  0  0  0  0
   85.5619  156.2057   14.7593 C   0  0  0  0  0  0  0  0  0  0  0  0
   84.5212  155.9529   11.2780 O   0  0  0  0  0  0  0  0  0  0  0  0
   84.9337  157.8104   12.5655 N   0  0  0  0  0  0  0  0  0  0  0  0
   84.6471  157.3978   15.0010 C   0  0  0  0  0  0  0  0  0  0  0  0
   84.8682  158.3461   13.8807 C   0  0  0  0  0  0  0  0  0  0  0  0
   84.9898  159.5735   14.1125 O   0  0  0  0  0  0  0  0  0  0  0  0
   85.0297  158.4065   11.7879 H   0  0  0  0  0  0  0  0  0  0  0  0
   81.9183  148.9014   13.8973 C   0  0  0  0  0  0  0  0  0  0  0  0
   79.6813  148.5548   12.6010 S   0  0  0  0  0  0  0  0  0  0  0  0
   80.2847  149.5452   11.6477 O   0  0  0  0  0  0  0  0  0  0  0  0
   79.5641  147.2481   11.8525 O   0  0  0  0  0  0  0  0  0  0  0  0
   80.6279  148.3657   13.9477 N   0  0  0  0  0  0  0  0  0  0  0  0
   78.0283  149.0945   12.9432 C   0  0  0  0  0  0  0  0  0  0  0  0
   80.2087  147.6074   15.0346 C   0  0  0  0  0  0  0  0  0  0  0  0
   78.1074  149.8484   14.2541 C   0  0  0  0  0  0  0  0  0  0  0  0
   78.7476  147.5802   15.3437 C   0  0  0  0  0  0  0  0  0  0  0  0
   78.1111  148.8675   15.3091 N   0  0  0  0  0  0  0  0  0  0  0  0
   77.3868  149.2405   16.4612 C   0  0  0  0  0  0  0  0  0  0  0  0
   77.3290  148.4370   17.4491 O   0  0  0  0  0  0  0  0  0  0  0  0
   76.6710  150.5216   16.6194 C   0  0  0  0  0  0  0  0  0  0  0  0
   76.0989  150.6968   17.9166 N   0  0  0  0  0  0  0  0  0  0  0  0
   74.7385  151.1344   17.9301 C   0  0  0  0  0  0  0  0  0  0  0  0
   76.9513  151.3232   18.8753 C   0  0  0  0  0  0  0  0  0  0  0  0
   76.0287  149.7409   18.2653 H   0  0  0  0  0  0  0  0  0  0  0  0
 21 22  2  0
 21 23  2  0
 21 24  1  0
 21 25  1  0
 24 26  1  0
 24 20  1  0
 25 27  1  0
 26 28  1  0
 20  1  1  0
 27 29  1  0
 28 29  1  0
  1  2  2  0
  1  3  1  0
 29 30  1  0
  2  4  1  0
  3  5  2  0
 30 31  2  0
 30 32  1  0
  4  7  1  0
  4  6  2  0
  5  6  1  0
 32 33  1  0
  7  8  2  0
  7  9  1  0
 33 34  1  0
 33 35  1  0
 33 36  1  0
  9 10  1  0
 11  9  1  0
 11 12  1  0
 11 13  1  0
 12 14  2  0
 12 15  1  0
 13 16  1  0
 15 17  1  0
 15 19  1  0
 16 17  1  0
 17 18  2  0
M  CHG 1  33   1
M  END
> <Molecule Name>
Compound 9

> <EC50 (µM) (Excel)>
54.0

> <Error (µM)>
9.3

> <HTRC CRBN-DDB1 EC50 (µM)>
53.95 ±  9.32

> <EC50 fitting (µM)>
108.30

> <Modèle Fitting>
4PL

> <Parent_Compound>
Compound 9

> <MMFF94s_energy_kcalmol>
152.432
> <Compound_Name>
Compound_9_ent2

> <Pose_Rank>
3

> <Docking_Affinity_kcal_mol>
-7.5

> <CNN_Affinity>
6.301

> <CNN_Pose_Score>
0.4631
$$$$

> <minimizedAffinity>
-8.50239

> <CNNscore>
0.5773851871

> <CNNaffinity>
6.4532732964

> <CNN_VS>
3.7260243893

> <CNNaffinity_variance>
0.0755456463

> <Compound_Name>
Compound_9_ent2

> <Pose_Rank>
4

> <Docking_Affinity_kcal_mol>
-6.95

> <CNN_Affinity>
6.534

> <CNN_Pose_Score>
0.36
$$$$
Compound_9_ent2


 36 38  0  0  0  0  0  0  0  0999 V2000
   81.7887  150.3578   14.3566 C   0  0  0  0  0  0  0  0  0  0  0  0
   82.8236  151.1987   14.0244 C   0  0  0  0  0  0  0  0  0  0  0  0
   80.7678  150.8636   15.1525 C   0  0  0  0  0  0  0  0  0  0  0  0
   82.9052  152.5140   14.4359 C   0  0  0  0  0  0  0  0  0  0  0  0
   80.8195  152.1678   15.5784 C   0  0  0  0  0  0  0  0  0  0  0  0
   81.8876  152.9973   15.2221 C   0  0  0  0  0  0  0  0  0  0  0  0
   84.0289  153.3594   14.0544 C   0  0  0  0  0  0  0  0  0  0  0  0
   85.1794  152.8438   13.8611 O   0  0  0  0  0  0  0  0  0  0  0  0
   83.9330  154.7503   13.8775 N   0  0  0  0  0  0  0  0  0  0  0  0
   83.0680  155.2002   14.0138 H   0  0  0  0  0  0  0  0  0  0  0  0
   85.0994  155.5328   13.4947 C   0  0  0  0  0  0  0  0  0  0  0  0
   84.7697  156.4827   12.4126 C   0  0  0  0  0  0  0  0  0  0  0  0
   85.5588  156.2456   14.7514 C   0  0  0  0  0  0  0  0  0  0  0  0
   84.3766  156.0454   11.3121 O   0  0  0  0  0  0  0  0  0  0  0  0
   84.8895  157.8820   12.5935 N   0  0  0  0  0  0  0  0  0  0  0  0
   84.6870  157.4602   15.0358 C   0  0  0  0  0  0  0  0  0  0  0  0
   84.8900  158.4101   13.9134 C   0  0  0  0  0  0  0  0  0  0  0  0
   85.0540  159.6320   14.1475 O   0  0  0  0  0  0  0  0  0  0  0  0
   84.9713  158.4807   11.8162 H   0  0  0  0  0  0  0  0  0  0  0  0
   81.7503  148.9390   13.8781 C   0  0  0  0  0  0  0  0  0  0  0  0
   80.6361  147.0493   15.2897 S   0  0  0  0  0  0  0  0  0  0  0  0
   79.3886  147.5031   14.5885 O   0  0  0  0  0  0  0  0  0  0  0  0
   80.9119  145.6416   14.8169 O   0  0  0  0  0  0  0  0  0  0  0  0
   81.9168  148.0389   14.9348 N   0  0  0  0  0  0  0  0  0  0  0  0
   80.2577  146.9401   17.0177 C   0  0  0  0  0  0  0  0  0  0  0  0
   83.1435  147.9035   15.5744 C   0  0  0  0  0  0  0  0  0  0  0  0
   80.7513  148.2355   17.6270 C   0  0  0  0  0  0  0  0  0  0  0  0
   83.1419  147.4434   16.9954 C   0  0  0  0  0  0  0  0  0  0  0  0
   82.1710  148.0969   17.8282 N   0  0  0  0  0  0  0  0  0  0  0  0
   82.6583  148.6938   19.0103 C   0  0  0  0  0  0  0  0  0  0  0  0
   83.9025  148.6223   19.2782 O   0  0  0  0  0  0  0  0  0  0  0  0
   81.8206  149.4147   19.9887 C   0  0  0  0  0  0  0  0  0  0  0  0
   81.6956  148.7359   21.2394 N   0  0  0  0  0  0  0  0  0  0  0  0
   82.5999  149.1641   22.2597 C   0  0  0  0  0  0  0  0  0  0  0  0
   81.5043  147.3242   21.1463 C   0  0  0  0  0  0  0  0  0  0  0  0
   80.7951  149.0647   21.5876 H   0  0  0  0  0  0  0  0  0  0  0  0
 21 22  2  0
 21 23  2  0
 21 24  1  0
 21 25  1  0
 24 26  1  0
 24 20  1  0
 25 27  1  0
 26 28  1  0
 20  1  1  0
 27 29  1  0
 28 29  1  0
  1  2  2  0
  1  3  1  0
 29 30  1  0
  2  4  1  0
  3  5  2  0
 30 31  2  0
 30 32  1  0
  4  7  1  0
  4  6  2  0
  5  6  1  0
 32 33  1  0
  7  8  2  0
  7  9  1  0
 33 34  1  0
 33 35  1  0
 33 36  1  0
  9 10  1  0
 11  9  1  0
 11 12  1  0
 11 13  1  0
 12 14  2  0
 12 15  1  0
 13 16  1  0
 15 17  1  0
 15 19  1  0
 16 17  1  0
 17 18  2  0
M  CHG 1  33   1
M  END
> <Molecule Name>
Compound 9

> <EC50 (µM) (Excel)>
54.0

> <Error (µM)>
9.3

> <HTRC CRBN-DDB1 EC50 (µM)>
53.95 ±  9.32

> <EC50 fitting (µM)>
108.30

> <Modèle Fitting>
4PL

> <Parent_Compound>
Compound 9

> <MMFF94s_energy_kcalmol>
152.432
> <Compound_Name>
Compound_9_ent2

> <Pose_Rank>
5

> <Docking_Affinity_kcal_mol>
-7.64

> <CNN_Affinity>
5.539

> <CNN_Pose_Score>
0.327
$$$$
EDEL-CRBN-0001_ent


 28 30  0  0  0  0  0  0  0  0999 V2000
   84.1434  154.8128   13.7044 C   0  0  0  0  0  0  0  0  0  0  0  0
   84.8634  153.7869   13.0711 C   0  0  0  0  0  0  0  0  0  0  0  0
   82.9113  154.4668   14.2829 C   0  0  0  0  0  0  0  0  0  0  0  0
   84.3910  152.4610   13.0241 C   0  0  0  0  0  0  0  0  0  0  0  0
   82.4262  153.1549   14.2422 C   0  0  0  0  0  0  0  0  0  0  0  0
   83.1626  152.1562   13.6165 C   0  0  0  0  0  0  0  0  0  0  0  0
   84.2940  156.7579   11.5004 O   0  0  0  0  0  0  0  0  0  0  0  0
   84.6948  157.0027   12.6348 C   0  0  0  0  0  0  0  0  0  0  0  0
   84.6353  156.1631   13.7564 N   0  0  0  0  0  0  0  0  0  0  0  0
   85.2020  158.2595   12.8806 N   0  0  0  0  0  0  0  0  0  0  0  0
   85.2760  156.6597   14.9725 C   0  0  0  0  0  0  0  0  0  0  0  0
   85.0716  158.9227   14.0698 C   0  0  0  0  0  0  0  0  0  0  0  0
   84.8047  158.0656   15.2727 C   0  0  0  0  0  0  0  0  0  0  0  0
   85.0974  160.1489   14.1283 O   0  0  0  0  0  0  0  0  0  0  0  0
   85.6899  158.7095   12.1535 H   0  0  0  0  0  0  0  0  0  0  0  0
   85.1946  151.3848   12.3205 C   0  0  0  0  0  0  0  0  0  0  0  0
   86.6515  151.5591   12.4744 N   0  0  0  0  0  0  0  0  0  0  0  0
   87.2252  150.5683   13.4277 C   0  0  0  0  0  0  0  0  0  0  0  0
   87.3421  151.6679   11.1842 C   0  0  0  0  0  0  0  0  0  0  0  0
   88.7551  150.6389   13.6800 C   0  0  0  0  0  0  0  0  0  0  0  0
   88.7036  152.3472   11.3337 C   0  0  0  0  0  0  0  0  0  0  0  0
   89.6225  150.2957   12.5469 N   0  0  0  0  0  0  0  0  0  0  0  0
   89.8660  151.4050   11.6345 C   0  0  0  0  0  0  0  0  0  0  0  0
   89.1825  149.5392   12.0229 H   0  0  0  0  0  0  0  0  0  0  0  0
   86.7889  149.1267   13.1416 C   0  0  0  0  0  0  0  0  0  0  0  0
   85.8407  148.5551   13.6604 O   0  0  0  0  0  0  0  0  0  0  0  0
   87.5057  148.4933   12.1888 O   0  0  0  0  0  0  0  0  0  0  0  0
   88.2338  148.9242   11.7862 H   0  0  0  0  0  0  0  0  0  0  0  0
  7  8  2  0
  8  9  1  0
  8 10  1  0
  9 11  1  0
 10 12  1  0
  1  9  1  0
  1  2  2  0
  1  3  5  0
 11 13  1  0
 12 14  2  0
 12 13  1  0
  2  4  5  0
  3  5  2  0
  4  6  2  0
  4 16  1  0
  5  6  5  0
 16 17  1  0
 17 18  1  0
 17 19  1  0
 18 25  1  0
 18 20  1  0
 19 21  1  0
 25 26  2  0
 25 27  1  0
 20 22  1  0
 21 23  1  0
 22 23  1  0
 10 15  1  0
 27 28  1  0
 22 24  1  0
M  END
> <ID>
EDEL-CRBN-0001_ent

> <Stereoisomer>
enantiomer

> <MW>
346.16

> <HBD>
3

> <HBA>
5

> <RotBonds>
4

> <cLogP>
0.38

> <minimizedAffinity>
-8.26589

> <CNNscore>
0.9102458358

> <CNNaffinity>
6.7187666893

> <CNN_VS>
6.1157293320

> <CNNaffinity_variance>
0.1335707158

> <Compound_Name>
EDEL-CRBN-0001_ent

> <Pose_Rank>
1
$$$$
EDEL-CRBN-0001_ent


 28 30  0  0  0  0  0  0  0  0999 V2000
   84.1174  154.6708   13.7562 C   0  0  0  0  0  0  0  0  0  0  0  0
   82.9541  154.3080   14.4539 C   0  0  0  0  0  0  0  0  0  0  0  0
   84.7891  153.6533   13.0590 C   0  0  0  0  0  0  0  0  0  0  0  0
   82.4613  152.9887   14.4508 C   0  0  0  0  0  0  0  0  0  0  0  0
   84.3145  152.3369   13.0486 C   0  0  0  0  0  0  0  0  0  0  0  0
   83.1557  152.0060   13.7404 C   0  0  0  0  0  0  0  0  0  0  0  0
   84.1258  156.5823   11.5178 O   0  0  0  0  0  0  0  0  0  0  0  0
   84.5981  156.8441   12.6205 C   0  0  0  0  0  0  0  0  0  0  0  0
   84.6108  156.0216   13.7562 N   0  0  0  0  0  0  0  0  0  0  0  0
   85.1192  158.1042   12.8143 N   0  0  0  0  0  0  0  0  0  0  0  0
   85.3276  156.5364   14.9212 C   0  0  0  0  0  0  0  0  0  0  0  0
   85.0647  158.7855   13.9992 C   0  0  0  0  0  0  0  0  0  0  0  0
   84.8756  157.9469   15.2296 C   0  0  0  0  0  0  0  0  0  0  0  0
   85.0934  160.0125   14.0373 O   0  0  0  0  0  0  0  0  0  0  0  0
   85.5594  158.5430   12.0508 H   0  0  0  0  0  0  0  0  0  0  0  0
   81.2070  152.6366   15.2266 C   0  0  0  0  0  0  0  0  0  0  0  0
   81.4923  152.0666   16.5571 N   0  0  0  0  0  0  0  0  0  0  0  0
   80.5881  150.9248   16.8705 C   0  0  0  0  0  0  0  0  0  0  0  0
   82.9231  151.8148   16.7637 C   0  0  0  0  0  0  0  0  0  0  0  0
   80.7836  150.2289   18.2440 C   0  0  0  0  0  0  0  0  0  0  0  0
   83.2676  151.7307   18.2508 C   0  0  0  0  0  0  0  0  0  0  0  0
   82.0417  149.4973   18.4347 N   0  0  0  0  0  0  0  0  0  0  0  0
   83.1523  150.3374   18.8628 C   0  0  0  0  0  0  0  0  0  0  0  0
   82.2944  149.0566   17.5502 H   0  0  0  0  0  0  0  0  0  0  0  0
   80.5060  149.8878   15.7442 C   0  0  0  0  0  0  0  0  0  0  0  0
   81.3213  149.0011   15.5341 O   0  0  0  0  0  0  0  0  0  0  0  0
   79.3950  149.9629   14.9808 O   0  0  0  0  0  0  0  0  0  0  0  0
   78.7653  150.6393   15.1353 H   0  0  0  0  0  0  0  0  0  0  0  0
  7  8  2  0
  8  9  1  0
  8 10  1  0
  9 11  1  0
 10 12  1  0
  1  9  1  0
  1  2  2  0
  1  3  5  0
 11 13  1  0
 12 14  2  0
 12 13  1  0
  2  4  5  0
  3  5  2  0
  4  6  2  0
  4 16  1  0
  5  6  5  0
 16 17  1  0
 17 18  1  0
 17 19  1  0
 18 25  1  0
 18 20  1  0
 19 21  1  0
 25 26  2  0
 25 27  1  0
 20 22  1  0
 21 23  1  0
 22 23  1  0
 10 15  1  0
 27 28  1  0
 22 24  1  0
M  END
> <ID>
EDEL-CRBN-0001_ent

> <Stereoisomer>
enantiomer

> <MW>
346.16

> <HBD>
3

> <HBA>
5

> <RotBonds>
4

> <cLogP>
0.38

> <minimizedAffinity>
-8.76496

> <CNNscore>
0.9053855538

> <CNNaffinity>
6.6548323631

> <CNN_VS>
6.0251889229

> <CNNaffinity_variance>
0.1260229647

> <Compound_Name>
EDEL-CRBN-0001_ent

> <Pose_Rank>
2
$$$$
EDEL-CRBN-0001_ent


 28 30  0  0  0  0  0  0  0  0999 V2000
   84.0433  154.6921   13.7512 C   0  0  0  0  0  0  0  0  0  0  0  0
   84.7326  153.6290   13.1459 C   0  0  0  0  0  0  0  0  0  0  0  0
   82.8079  154.3955   14.3500 C   0  0  0  0  0  0  0  0  0  0  0  0
   84.2275  152.3143   13.1454 C   0  0  0  0  0  0  0  0  0  0  0  0
   82.2906  153.0953   14.3553 C   0  0  0  0  0  0  0  0  0  0  0  0
   82.9971  152.0592   13.7566 C   0  0  0  0  0  0  0  0  0  0  0  0
   84.1738  156.5805   11.4972 O   0  0  0  0  0  0  0  0  0  0  0  0
   84.6141  156.8421   12.6130 C   0  0  0  0  0  0  0  0  0  0  0  0
   84.5684  156.0308   13.7559 N   0  0  0  0  0  0  0  0  0  0  0  0
   85.1582  158.0915   12.8132 N   0  0  0  0  0  0  0  0  0  0  0  0
   85.2570  156.5402   14.9402 C   0  0  0  0  0  0  0  0  0  0  0  0
   85.0794  158.7856   13.9892 C   0  0  0  0  0  0  0  0  0  0  0  0
   84.8284  157.9639   15.2200 C   0  0  0  0  0  0  0  0  0  0  0  0
   85.1360  160.0119   14.0171 O   0  0  0  0  0  0  0  0  0  0  0  0
   85.6346  158.5122   12.0613 H   0  0  0  0  0  0  0  0  0  0  0  0
   84.9987  151.1966   12.4708 C   0  0  0  0  0  0  0  0  0  0  0  0
   85.9904  150.5617   13.3595 N   0  0  0  0  0  0  0  0  0  0  0  0
   87.2280  150.1850   12.6206 C   0  0  0  0  0  0  0  0  0  0  0  0
   86.2001  151.3205   14.5979 C   0  0  0  0  0  0  0  0  0  0  0  0
   88.3586  149.5080   13.4407 C   0  0  0  0  0  0  0  0  0  0  0  0
   86.7927  150.4416   15.6995 C   0  0  0  0  0  0  0  0  0  0  0  0
   89.0204  150.3384   14.4539 N   0  0  0  0  0  0  0  0  0  0  0  0
   88.3175  150.3833   15.7292 C   0  0  0  0  0  0  0  0  0  0  0  0
   89.0924  151.2896   14.0929 H   0  0  0  0  0  0  0  0  0  0  0  0
   87.7899  151.3208   11.7576 C   0  0  0  0  0  0  0  0  0  0  0  0
   88.4331  152.2752   12.1704 O   0  0  0  0  0  0  0  0  0  0  0  0
   87.5819  151.1842   10.4307 O   0  0  0  0  0  0  0  0  0  0  0  0
   87.0901  150.4556   10.1061 H   0  0  0  0  0  0  0  0  0  0  0  0
  7  8  2  0
  8  9  1  0
  8 10  1  0
  9 11  1  0
 10 12  1  0
  1  9  1  0
  1  2  2  0
  1  3  5  0
 11 13  1  0
 12 14  2  0
 12 13  1  0
  2  4  5  0
  3  5  2  0
  4  6  2  0
  4 16  1  0
  5  6  5  0
 16 17  1  0
 17 18  1  0
 17 19  1  0
 18 25  1  0
 18 20  1  0
 19 21  1  0
 25 26  2  0
 25 27  1  0
 20 22  1  0
 21 23  1  0
 22 23  1  0
 10 15  1  0
 27 28  1  0
 22 24  1  0
M  END
> <ID>
EDEL-CRBN-0001_ent

> <Stereoisomer>
enantiomer

> <MW>
346.16

> <HBD>
3

> <HBA>
5

> <RotBonds>
4

> <cLogP>
0.38

> <minimizedAffinity>
-8.47442

> <CNNscore>
0.8626273870

> <CNNaffinity>
6.5198364258

> <CNN_VS>
5.6241893768

> <CNNaffinity_variance>
0.1859703213

> <Compound_Name>
EDEL-CRBN-0001_ent

> <Pose_Rank>
3
$$$$
EDEL-CRBN-0001_ent


 28 30  0  0  0  0  0  0  0  0999 V2000
   84.2828  154.4180   13.6262 C   0  0  0  0  0  0  0  0  0  0  0  0
   83.2118  153.9667   14.4142 C   0  0  0  0  0  0  0  0  0  0  0  0
   84.9072  153.4745   12.7941 C   0  0  0  0  0  0  0  0  0  0  0  0
   82.7618  152.6328   14.3708 C   0  0  0  0  0  0  0  0  0  0  0  0
   84.4745  152.1448   12.7417 C   0  0  0  0  0  0  0  0  0  0  0  0
   83.4064  151.7257   13.5256 C   0  0  0  0  0  0  0  0  0  0  0  0
   84.4023  156.3419   11.4016 O   0  0  0  0  0  0  0  0  0  0  0  0
   84.7803  156.6118   12.5381 C   0  0  0  0  0  0  0  0  0  0  0  0
   84.7320  155.7834   13.6686 N   0  0  0  0  0  0  0  0  0  0  0  0
   85.2453  157.8864   12.7756 N   0  0  0  0  0  0  0  0  0  0  0  0
   85.3411  156.3135   14.8869 C   0  0  0  0  0  0  0  0  0  0  0  0
   85.0789  158.5586   13.9552 C   0  0  0  0  0  0  0  0  0  0  0  0
   84.8227  157.7074   15.1646 C   0  0  0  0  0  0  0  0  0  0  0  0
   85.0661  159.7857   13.9996 O   0  0  0  0  0  0  0  0  0  0  0  0
   85.7286  158.3430   12.0496 H   0  0  0  0  0  0  0  0  0  0  0  0
   81.6083  152.1836   15.2465 C   0  0  0  0  0  0  0  0  0  0  0  0
   81.6771  150.7536   15.6026 N   0  0  0  0  0  0  0  0  0  0  0  0
   82.7800  150.4802   16.5661 C   0  0  0  0  0  0  0  0  0  0  0  0
   80.3668  150.2038   15.9694 C   0  0  0  0  0  0  0  0  0  0  0  0
   82.9624  149.0097   17.0281 C   0  0  0  0  0  0  0  0  0  0  0  0
   80.3393  148.6817   15.8291 C   0  0  0  0  0  0  0  0  0  0  0  0
   81.8856  148.4422   17.8481 N   0  0  0  0  0  0  0  0  0  0  0  0
   80.7727  147.9105   17.0728 C   0  0  0  0  0  0  0  0  0  0  0  0
   81.5288  149.1747   18.4618 H   0  0  0  0  0  0  0  0  0  0  0  0
   82.7857  151.4309   17.7688 C   0  0  0  0  0  0  0  0  0  0  0  0
   83.4329  152.4649   17.8540 O   0  0  0  0  0  0  0  0  0  0  0  0
   81.9480  151.0874   18.7703 O   0  0  0  0  0  0  0  0  0  0  0  0
   81.4484  150.2968   18.7128 H   0  0  0  0  0  0  0  0  0  0  0  0
  7  8  2  0
  8  9  1  0
  8 10  1  0
  9 11  1  0
 10 12  1  0
  1  9  1  0
  1  2  2  0
  1  3  5  0
 11 13  1  0
 12 14  2  0
 12 13  1  0
  2  4  5  0
  3  5  2  0
  4  6  2  0
  4 16  1  0
  5  6  5  0
 16 17  1  0
 17 18  1  0
 17 19  1  0
 18 25  1  0
 18 20  1  0
 19 21  1  0
 25 26  2  0
 25 27  1  0
 20 22  1  0
 21 23  1  0
 22 23  1  0
 10 15  1  0
 27 28  1  0
 22 24  1  0
M  END
> <ID>
EDEL-CRBN-0001_ent

> <Stereoisomer>
enantiomer

> <MW>
346.16

> <HBD>
3

> <HBA>
5

> <RotBonds>
4

> <cLogP>
0.38

> <minimizedAffinity>
-8.66690

> <CNNscore>
0.8235406280

> <CNNaffinity>
6.7369799614

> <CNN_VS>
5.5481767654

> <CNNaffinity_variance>
0.7173030376

> <Compound_Name>
EDEL-CRBN-0001_ent

> <Pose_Rank>
4
$$$$
EDEL-CRBN-0001_ent


 28 30  0  0  0  0  0  0  0  0999 V2000
   84.6719  154.3615   13.7148 C   0  0  0  0  0  0  0  0  0  0  0  0
   85.5925  153.3694   13.3404 C   0  0  0  0  0  0  0  0  0  0  0  0
   83.3692  153.9401   14.0283 C   0  0  0  0  0  0  0  0  0  0  0  0
   85.2439  152.0058   13.2924 C   0  0  0  0  0  0  0  0  0  0  0  0
   83.0058  152.5896   13.9824 C   0  0  0  0  0  0  0  0  0  0  0  0
   83.9387  151.6266   13.6170 C   0  0  0  0  0  0  0  0  0  0  0  0
   85.3583  156.1315   11.4654 O   0  0  0  0  0  0  0  0  0  0  0  0
   85.3791  156.5015   12.6359 C   0  0  0  0  0  0  0  0  0  0  0  0
   85.0364  155.7514   13.7701 N   0  0  0  0  0  0  0  0  0  0  0  0
   85.7054  157.8154   12.8895 N   0  0  0  0  0  0  0  0  0  0  0  0
   85.2442  156.4002   15.0632 C   0  0  0  0  0  0  0  0  0  0  0  0
   85.1776  158.5558   13.9115 C   0  0  0  0  0  0  0  0  0  0  0  0
   84.6141  157.7756   15.0633 C   0  0  0  0  0  0  0  0  0  0  0  0
   85.1051  159.7799   13.8477 O   0  0  0  0  0  0  0  0  0  0  0  0
   86.3609  158.2497   12.2971 H   0  0  0  0  0  0  0  0  0  0  0  0
   86.2656  150.9671   12.8725 C   0  0  0  0  0  0  0  0  0  0  0  0
   86.7605  151.1677   11.4972 N   0  0  0  0  0  0  0  0  0  0  0  0
   87.9267  152.0942   11.4632 C   0  0  0  0  0  0  0  0  0  0  0  0
   86.9374  149.9024   10.7753 C   0  0  0  0  0  0  0  0  0  0  0  0
   88.5494  152.3907   10.0727 C   0  0  0  0  0  0  0  0  0  0  0  0
   86.9376  150.1169    9.2616 C   0  0  0  0  0  0  0  0  0  0  0  0
   89.2136  151.2683    9.3994 N   0  0  0  0  0  0  0  0  0  0  0  0
   88.3052  150.4098    8.6509 C   0  0  0  0  0  0  0  0  0  0  0  0
   89.6824  150.7016   10.1061 H   0  0  0  0  0  0  0  0  0  0  0  0
   89.0168  151.7366   12.4801 C   0  0  0  0  0  0  0  0  0  0  0  0
   88.8981  150.9363   13.3970 O   0  0  0  0  0  0  0  0  0  0  0  0
   90.2081  152.3370   12.2728 O   0  0  0  0  0  0  0  0  0  0  0  0
   90.3075  152.9515   11.5725 H   0  0  0  0  0  0  0  0  0  0  0  0
  7  8  2  0
  8  9  1  0
  8 10  1  0
  9 11  1  0
 10 12  1  0
  1  9  1  0
  1  2  2  0
  1  3  5  0
 11 13  1  0
 12 14  2  0
 12 13  1  0
  2  4  5  0
  3  5  2  0
  4  6  2  0
  4 16  1  0
  5  6  5  0
 16 17  1  0
 17 18  1  0
 17 19  1  0
 18 25  1  0
 18 20  1  0
 19 21  1  0
 25 26  2  0
 25 27  1  0
 20 22  1  0
 21 23  1  0
 22 23  1  0
 10 15  1  0
 27 28  1  0
 22 24  1  0
M  END
> <ID>
EDEL-CRBN-0001_ent

> <Stereoisomer>
enantiomer

> <MW>
346.16

> <HBD>
3

> <HBA>
5

> <RotBonds>
4

> <cLogP>
0.38

> <minimizedAffinity>
-8.23440

> <CNNscore>
0.8204426765

> <CNNaffinity>
6.6640510559

> <CNN_VS>
5.4674720764

> <CNNaffinity_variance>
0.2667499781

> <Compound_Name>
EDEL-CRBN-0001_ent

> <Pose_Rank>
5
$$$$
EDEL-CRBN-0001


 28 30  0  0  0  0  0  0  0  0999 V2000
   84.2787  154.7281   13.8259 C   0  0  0  0  0  0  0  0  0  0  0  0
   85.1962  153.7197   13.4847 C   0  0  0  0  0  0  0  0  0  0  0  0
   82.9822  154.3281   14.1752 C   0  0  0  0  0  0  0  0  0  0  0  0
   84.8479  152.3548   13.5047 C   0  0  0  0  0  0  0  0  0  0  0  0
   82.6156  152.9785   14.1870 C   0  0  0  0  0  0  0  0  0  0  0  0
   83.5424  151.9962   13.8518 C   0  0  0  0  0  0  0  0  0  0  0  0
   84.4234  156.5189   11.5339 O   0  0  0  0  0  0  0  0  0  0  0  0
   84.7050  156.8846   12.6723 C   0  0  0  0  0  0  0  0  0  0  0  0
   84.6639  156.1127   13.8381 N   0  0  0  0  0  0  0  0  0  0  0  0
   85.1187  158.1854   12.8446 N   0  0  0  0  0  0  0  0  0  0  0  0
   85.2357  156.6866   15.0536 C   0  0  0  0  0  0  0  0  0  0  0  0
   85.0835  158.9019   14.0072 C   0  0  0  0  0  0  0  0  0  0  0  0
   84.7780  158.1173   15.2445 C   0  0  0  0  0  0  0  0  0  0  0  0
   85.2153  160.1226   14.0155 O   0  0  0  0  0  0  0  0  0  0  0  0
   85.4756  158.6457   12.0509 H   0  0  0  0  0  0  0  0  0  0  0  0
   85.8488  151.2889   13.0965 C   0  0  0  0  0  0  0  0  0  0  0  0
   86.3973  151.4946   11.7494 N   0  0  0  0  0  0  0  0  0  0  0  0
   86.5891  150.2431   10.9740 C   0  0  0  0  0  0  0  0  0  0  0  0
   87.4668  152.4913   11.6936 C   0  0  0  0  0  0  0  0  0  0  0  0
   87.2893  150.3659    9.5855 C   0  0  0  0  0  0  0  0  0  0  0  0
   88.9168  152.0028   11.7543 C   0  0  0  0  0  0  0  0  0  0  0  0
   88.4899  151.2086    9.4279 N   0  0  0  0  0  0  0  0  0  0  0  0
   89.3857  151.1477   10.5736 C   0  0  0  0  0  0  0  0  0  0  0  0
   88.1928  152.1759    9.2994 H   0  0  0  0  0  0  0  0  0  0  0  0
   87.2251  149.0905   11.7706 C   0  0  0  0  0  0  0  0  0  0  0  0
   88.2807  149.0779   12.3833 O   0  0  0  0  0  0  0  0  0  0  0  0
   86.4515  147.9800   11.7741 O   0  0  0  0  0  0  0  0  0  0  0  0
   85.6384  147.9739   11.3086 H   0  0  0  0  0  0  0  0  0  0  0  0
  7  8  2  0
  8  9  1  0
  8 10  1  0
  9 11  1  0
 10 12  1  0
  1  9  1  0
  1  2  2  0
  1  3  5  0
 11 13  1  0
 12 14  2  0
 12 13  1  0
  2  4  5  0
  3  5  2  0
  4  6  2  0
  4 16  1  0
  5  6  5  0
 16 17  1  0
 17 18  1  0
 17 19  1  0
 18 25  1  0
 18 20  1  0
 19 21  1  0
 25 26  2  0
 25 27  1  0
 20 22  1  0
 21 23  1  0
 22 23  1  0
 10 15  1  0
 27 28  1  0
 22 24  1  0
M  END
> <ID>
EDEL-CRBN-0001

> <Stereoisomer>
original

> <MW>
346.16

> <HBD>
3

> <HBA>
5

> <RotBonds>
4

> <cLogP>
0.38

> <minimizedAffinity>
-8.58648

> <CNNscore>
0.9658514261

> <CNNaffinity>
7.0123391151

> <CNN_VS>
6.7728776932

> <CNNaffinity_variance>
0.7394548059

> <Compound_Name>
EDEL-CRBN-0001

> <Pose_Rank>
1
$$$$
EDEL-CRBN-0001


 28 30  0  0  0  0  0  0  0  0999 V2000
   84.0601  154.7336   13.7872 C   0  0  0  0  0  0  0  0  0  0  0  0
   84.8679  153.6944   13.2946 C   0  0  0  0  0  0  0  0  0  0  0  0
   82.7977  154.3869   14.2863 C   0  0  0  0  0  0  0  0  0  0  0  0
   84.4478  152.3499   13.3106 C   0  0  0  0  0  0  0  0  0  0  0  0
   82.3592  153.0589   14.2970 C   0  0  0  0  0  0  0  0  0  0  0  0
   83.1785  152.0451   13.8101 C   0  0  0  0  0  0  0  0  0  0  0  0
   84.2403  156.5348   11.5059 O   0  0  0  0  0  0  0  0  0  0  0  0
   84.5736  156.8737   12.6387 C   0  0  0  0  0  0  0  0  0  0  0  0
   84.5221  156.0945   13.7991 N   0  0  0  0  0  0  0  0  0  0  0  0
   85.0637  158.1479   12.8091 N   0  0  0  0  0  0  0  0  0  0  0  0
   85.1587  156.6245   15.0023 C   0  0  0  0  0  0  0  0  0  0  0  0
   85.1009  158.8545   13.9777 C   0  0  0  0  0  0  0  0  0  0  0  0
   84.7868  158.0765   15.2171 C   0  0  0  0  0  0  0  0  0  0  0  0
   85.3008  160.0658   13.9917 O   0  0  0  0  0  0  0  0  0  0  0  0
   85.4234  158.5950   12.0092 H   0  0  0  0  0  0  0  0  0  0  0  0
   85.3264  151.2518   12.7389 C   0  0  0  0  0  0  0  0  0  0  0  0
   86.3599  150.7901   13.6752 N   0  0  0  0  0  0  0  0  0  0  0  0
   86.6719  149.3424   13.5699 C   0  0  0  0  0  0  0  0  0  0  0  0
   86.2338  151.3553   15.0188 C   0  0  0  0  0  0  0  0  0  0  0  0
   87.6630  148.7495   14.6185 C   0  0  0  0  0  0  0  0  0  0  0  0
   85.4971  150.5372   16.0831 C   0  0  0  0  0  0  0  0  0  0  0  0
   87.5392  149.1041   16.0451 N   0  0  0  0  0  0  0  0  0  0  0  0
   86.1573  149.2163   16.4887 C   0  0  0  0  0  0  0  0  0  0  0  0
   88.0029  149.9996   16.1983 H   0  0  0  0  0  0  0  0  0  0  0  0
   85.4377  148.4307   13.4558 C   0  0  0  0  0  0  0  0  0  0  0  0
   84.3854  148.4904   14.0714 O   0  0  0  0  0  0  0  0  0  0  0  0
   85.5932  147.4707   12.5145 O   0  0  0  0  0  0  0  0  0  0  0  0
   86.3951  147.4118   12.0333 H   0  0  0  0  0  0  0  0  0  0  0  0
  7  8  2  0
  8  9  1  0
  8 10  1  0
  9 11  1  0
 10 12  1  0
  1  9  1  0
  1  2  2  0
  1  3  5  0
 11 13  1  0
 12 14  2  0
 12 13  1  0
  2  4  5  0
  3  5  2  0
  4  6  2  0
  4 16  1  0
  5  6  5  0
 16 17  1  0
 17 18  1  0
 17 19  1  0
 18 25  1  0
 18 20  1  0
 19 21  1  0
 25 26  2  0
 25 27  1  0
 20 22  1  0
 21 23  1  0
 22 23  1  0
 10 15  1  0
 27 28  1  0
 22 24  1  0
M  END
> <ID>
EDEL-CRBN-0001

> <Stereoisomer>
original

> <MW>
346.16

> <HBD>
3

> <HBA>
5

> <RotBonds>
4

> <cLogP>
0.38

> <minimizedAffinity>
-8.20418

> <CNNscore>
0.9530344009

> <CNNaffinity>
7.0736122131

> <CNN_VS>
6.7413959503

> <CNNaffinity_variance>
0.4189552963

> <Compound_Name>
EDEL-CRBN-0001

> <Pose_Rank>
2
$$$$
EDEL-CRBN-0001


 28 30  0  0  0  0  0  0  0  0999 V2000
   84.1648  154.7024   13.8346 C   0  0  0  0  0  0  0  0  0  0  0  0
   85.0366  153.6649   13.4624 C   0  0  0  0  0  0  0  0  0  0  0  0
   82.8694  154.3446   14.2307 C   0  0  0  0  0  0  0  0  0  0  0  0
   84.6455  152.3119   13.4972 C   0  0  0  0  0  0  0  0  0  0  0  0
   82.4603  153.0075   14.2579 C   0  0  0  0  0  0  0  0  0  0  0  0
   83.3424  151.9957   13.8914 C   0  0  0  0  0  0  0  0  0  0  0  0
   84.3408  156.4688   11.5259 O   0  0  0  0  0  0  0  0  0  0  0  0
   84.6471  156.8345   12.6579 C   0  0  0  0  0  0  0  0  0  0  0  0
   84.5945  156.0739   13.8306 N   0  0  0  0  0  0  0  0  0  0  0  0
   85.1044  158.1226   12.8144 N   0  0  0  0  0  0  0  0  0  0  0  0
   85.1984  156.6390   15.0347 C   0  0  0  0  0  0  0  0  0  0  0  0
   85.1055  158.8494   13.9712 C   0  0  0  0  0  0  0  0  0  0  0  0
   84.7891  158.0852   15.2185 C   0  0  0  0  0  0  0  0  0  0  0  0
   85.2768  160.0652   13.9676 O   0  0  0  0  0  0  0  0  0  0  0  0
   85.4668  158.5647   12.0129 H   0  0  0  0  0  0  0  0  0  0  0  0
   85.5964  151.2141   13.0552 C   0  0  0  0  0  0  0  0  0  0  0  0
   85.4431  149.9710   13.8229 N   0  0  0  0  0  0  0  0  0  0  0  0
   86.2062  149.9456   15.0963 C   0  0  0  0  0  0  0  0  0  0  0  0
   85.4678  148.7621   12.9994 C   0  0  0  0  0  0  0  0  0  0  0  0
   86.2000  148.6109   15.9036 C   0  0  0  0  0  0  0  0  0  0  0  0
   86.7953  148.0134   12.8507 C   0  0  0  0  0  0  0  0  0  0  0  0
   86.3892  147.3210   15.2131 N   0  0  0  0  0  0  0  0  0  0  0  0
   87.3595  147.3890   14.1301 C   0  0  0  0  0  0  0  0  0  0  0  0
   85.4926  147.0250   14.8272 H   0  0  0  0  0  0  0  0  0  0  0  0
   87.6471  150.4739   14.9869 C   0  0  0  0  0  0  0  0  0  0  0  0
   88.2720  150.7843   13.9853 O   0  0  0  0  0  0  0  0  0  0  0  0
   88.2367  150.6134   16.1972 O   0  0  0  0  0  0  0  0  0  0  0  0
   87.7701  150.3795   16.9753 H   0  0  0  0  0  0  0  0  0  0  0  0
  7  8  2  0
  8  9  1  0
  8 10  1  0
  9 11  1  0
 10 12  1  0
  1  9  1  0
  1  2  2  0
  1  3  5  0
 11 13  1  0
 12 14  2  0
 12 13  1  0
  2  4  5  0
  3  5  2  0
  4  6  2  0
  4 16  1  0
  5  6  5  0
 16 17  1  0
 17 18  1  0
 17 19  1  0
 18 25  1  0
 18 20  1  0
 19 21  1  0
 25 26  2  0
 25 27  1  0
 20 22  1  0
 21 23  1  0
 22 23  1  0
 10 15  1  0
 27 28  1  0
 22 24  1  0
M  END
> <ID>
EDEL-CRBN-0001

> <Stereoisomer>
original

> <MW>
346.16

> <HBD>
3

> <HBA>
5

> <RotBonds>
4

> <cLogP>
0.38

> <minimizedAffinity>
-7.92800

> <CNNscore>
0.9199252129

> <CNNaffinity>
6.7598834038

> <CNN_VS>
6.2185873985

> <CNNaffinity_variance>
0.2650817335

> <Compound_Name>
EDEL-CRBN-0001

> <Pose_Rank>
3
$$$$
EDEL-CRBN-0001


 28 30  0  0  0  0  0  0  0  0999 V2000
   84.5277  154.3794   13.5898 C   0  0  0  0  0  0  0  0  0  0  0  0
   83.4515  153.8287   14.3063 C   0  0  0  0  0  0  0  0  0  0  0  0
   85.2799  153.5108   12.7881 C   0  0  0  0  0  0  0  0  0  0  0  0
   83.1173  152.4629   14.2198 C   0  0  0  0  0  0  0  0  0  0  0  0
   84.9705  152.1496   12.7015 C   0  0  0  0  0  0  0  0  0  0  0  0
   83.8962  151.6270   13.4148 C   0  0  0  0  0  0  0  0  0  0  0  0
   84.6109  156.2589   11.3667 O   0  0  0  0  0  0  0  0  0  0  0  0
   84.8470  156.5985   12.5235 C   0  0  0  0  0  0  0  0  0  0  0  0
   84.8288  155.7831   13.6598 N   0  0  0  0  0  0  0  0  0  0  0  0
   85.1782  157.9143   12.7511 N   0  0  0  0  0  0  0  0  0  0  0  0
   85.3403  156.3448   14.9075 C   0  0  0  0  0  0  0  0  0  0  0  0
   85.0765  158.5841   13.9373 C   0  0  0  0  0  0  0  0  0  0  0  0
   84.7937  157.7378   15.1388 C   0  0  0  0  0  0  0  0  0  0  0  0
   85.1346  159.8093   13.9920 O   0  0  0  0  0  0  0  0  0  0  0  0
   85.5228  158.4239   11.9824 H   0  0  0  0  0  0  0  0  0  0  0  0
   81.9716  151.8877   15.0330 C   0  0  0  0  0  0  0  0  0  0  0  0
   82.3833  150.7899   15.9182 N   0  0  0  0  0  0  0  0  0  0  0  0
   81.2552  150.0902   16.5830 C   0  0  0  0  0  0  0  0  0  0  0  0
   83.5581  151.0984   16.7336 C   0  0  0  0  0  0  0  0  0  0  0  0
   81.6163  148.9999   17.6385 C   0  0  0  0  0  0  0  0  0  0  0  0
   83.3365  151.6076   18.1607 C   0  0  0  0  0  0  0  0  0  0  0  0
   82.6723  149.2504   18.6378 N   0  0  0  0  0  0  0  0  0  0  0  0
   82.6804  150.6202   19.1301 C   0  0  0  0  0  0  0  0  0  0  0  0
   83.5771  149.0541   18.2098 H   0  0  0  0  0  0  0  0  0  0  0  0
   80.1750  151.0238   17.1568 C   0  0  0  0  0  0  0  0  0  0  0  0
   79.3344  150.7849   18.0090 O   0  0  0  0  0  0  0  0  0  0  0  0
   80.2330  152.2661   16.6230 O   0  0  0  0  0  0  0  0  0  0  0  0
   80.8727  152.4651   15.9678 H   0  0  0  0  0  0  0  0  0  0  0  0
  7  8  2  0
  8  9  1  0
  8 10  1  0
  9 11  1  0
 10 12  1  0
  1  9  1  0
  1  2  2  0
  1  3  5  0
 11 13  1  0
 12 14  2  0
 12 13  1  0
  2  4  5  0
  3  5  2  0
  4  6  2  0
  4 16  1  0
  5  6  5  0
 16 17  1  0
 17 18  1  0
 17 19  1  0
 18 25  1  0
 18 20  1  0
 19 21  1  0
 25 26  2  0
 25 27  1  0
 20 22  1  0
 21 23  1  0
 22 23  1  0
 10 15  1  0
 27 28  1  0
 22 24  1  0
M  END
> <ID>
EDEL-CRBN-0001

> <Stereoisomer>
original

> <MW>
346.16

> <HBD>
3

> <HBA>
5

> <RotBonds>
4

> <cLogP>
0.38

> <minimizedAffinity>
-9.27188

> <CNNscore>
0.9192242026

> <CNNaffinity>
7.1803779602

> <CNN_VS>
6.6003770828

> <CNNaffinity_variance>
0.4949744046

> <Compound_Name>
EDEL-CRBN-0001

> <Pose_Rank>
4
$$$$
EDEL-CRBN-0001


 28 30  0  0  0  0  0  0  0  0999 V2000
   84.4439  154.4156   13.6767 C   0  0  0  0  0  0  0  0  0  0  0  0
   83.4107  153.8849   14.4678 C   0  0  0  0  0  0  0  0  0  0  0  0
   85.1341  153.5295   12.8392 C   0  0  0  0  0  0  0  0  0  0  0  0
   83.0580  152.5219   14.4200 C   0  0  0  0  0  0  0  0  0  0  0  0
   84.8063  152.1708   12.7896 C   0  0  0  0  0  0  0  0  0  0  0  0
   83.7750  151.6682   13.5770 C   0  0  0  0  0  0  0  0  0  0  0  0
   84.4966  156.2467   11.4128 O   0  0  0  0  0  0  0  0  0  0  0  0
   84.7638  156.6077   12.5562 C   0  0  0  0  0  0  0  0  0  0  0  0
   84.7629  155.8166   13.7098 N   0  0  0  0  0  0  0  0  0  0  0  0
   85.1155  157.9238   12.7479 N   0  0  0  0  0  0  0  0  0  0  0  0
   85.3102  156.3982   14.9329 C   0  0  0  0  0  0  0  0  0  0  0  0
   85.0496  158.6197   13.9216 C   0  0  0  0  0  0  0  0  0  0  0  0
   84.7854  157.8023   15.1471 C   0  0  0  0  0  0  0  0  0  0  0  0
   85.1233  159.8450   13.9488 O   0  0  0  0  0  0  0  0  0  0  0  0
   85.4479  158.4129   11.9607 H   0  0  0  0  0  0  0  0  0  0  0  0
   81.9614  151.9687   15.3122 C   0  0  0  0  0  0  0  0  0  0  0  0
   81.0322  151.0782   14.6039 N   0  0  0  0  0  0  0  0  0  0  0  0
   79.7145  150.9214   15.2698 C   0  0  0  0  0  0  0  0  0  0  0  0
   81.6635  149.8717   14.0688 C   0  0  0  0  0  0  0  0  0  0  0  0
   78.7215  149.8905   14.6499 C   0  0  0  0  0  0  0  0  0  0  0  0
   81.5980  148.5888   14.9023 C   0  0  0  0  0  0  0  0  0  0  0  0
   79.1972  148.5607   14.2235 N   0  0  0  0  0  0  0  0  0  0  0  0
   80.2009  147.9992   15.1159 C   0  0  0  0  0  0  0  0  0  0  0  0
   79.6023  148.6445   13.2912 H   0  0  0  0  0  0  0  0  0  0  0  0
   79.7904  150.7112   16.7922 C   0  0  0  0  0  0  0  0  0  0  0  0
   80.3934  149.8515   17.4146 O   0  0  0  0  0  0  0  0  0  0  0  0
   79.0957  151.6501   17.4760 O   0  0  0  0  0  0  0  0  0  0  0  0
   78.6277  152.3166   17.0126 H   0  0  0  0  0  0  0  0  0  0  0  0
  7  8  2  0
  8  9  1  0
  8 10  1  0
  9 11  1  0
 10 12  1  0
  1  9  1  0
  1  2  2  0
  1  3  5  0
 11 13  1  0
 12 14  2  0
 12 13  1  0
  2  4  5  0
  3  5  2  0
  4  6  2  0
  4 16  1  0
  5  6  5  0
 16 17  1  0
 17 18  1  0
 17 19  1  0
 18 25  1  0
 18 20  1  0
 19 21  1  0
 25 26  2  0
 25 27  1  0
 20 22  1  0
 21 23  1  0
 22 23  1  0
 10 15  1  0
 27 28  1  0
 22 24  1  0
M  END
> <ID>
EDEL-CRBN-0001

> <Stereoisomer>
original

> <MW>
346.16

> <HBD>
3

> <HBA>
5

> <RotBonds>
4

> <cLogP>
0.38

> <minimizedAffinity>
-8.82491

> <CNNscore>
0.9128283262

> <CNNaffinity>
6.5879769325

> <CNN_VS>
6.0136919022

> <CNNaffinity_variance>
0.1362130791

> <Compound_Name>
EDEL-CRBN-0001

> <Pose_Rank>
5
$$$$
EDEL-CRBN-0002_ent


 30 32  0  0  0  0  0  0  0  0999 V2000
   84.3289  154.5182   13.6925 C   0  0  0  0  0  0  0  0  0  0  0  0
   85.1029  153.5795   12.9821 C   0  0  0  0  0  0  0  0  0  0  0  0
   83.1761  154.0726   14.3619 C   0  0  0  0  0  0  0  0  0  0  0  0
   84.7272  152.2315   12.9552 C   0  0  0  0  0  0  0  0  0  0  0  0
   82.8088  152.7169   14.3588 C   0  0  0  0  0  0  0  0  0  0  0  0
   83.5949  151.8029   13.6476 C   0  0  0  0  0  0  0  0  0  0  0  0
   84.3109  156.3141   11.4464 O   0  0  0  0  0  0  0  0  0  0  0  0
   84.5881  156.6961   12.5811 C   0  0  0  0  0  0  0  0  0  0  0  0
   84.6814  155.9035   13.7257 N   0  0  0  0  0  0  0  0  0  0  0  0
   84.8919  158.0255   12.7715 N   0  0  0  0  0  0  0  0  0  0  0  0
   85.4096  156.4306   14.8686 C   0  0  0  0  0  0  0  0  0  0  0  0
   85.0272  158.6804   13.9648 C   0  0  0  0  0  0  0  0  0  0  0  0
   84.9285  157.8279   15.1953 C   0  0  0  0  0  0  0  0  0  0  0  0
   85.1586  159.9004   14.0179 O   0  0  0  0  0  0  0  0  0  0  0  0
   85.0266  158.5645   11.9588 H   0  0  0  0  0  0  0  0  0  0  0  0
   86.1293  154.0359   12.1892 O   0  0  0  0  0  0  0  0  0  0  0  0
   87.0857  153.0254   11.8730 C   0  0  0  0  0  0  0  0  0  0  0  0
   81.5788  152.2473   15.1068 C   0  0  0  0  0  0  0  0  0  0  0  0
   81.5347  150.7904   15.3014 N   0  0  0  0  0  0  0  0  0  0  0  0
   80.1931  150.3551   15.7853 C   0  0  0  0  0  0  0  0  0  0  0  0
   82.6662  150.2438   16.0505 C   0  0  0  0  0  0  0  0  0  0  0  0
   80.1511  149.1385   16.7546 C   0  0  0  0  0  0  0  0  0  0  0  0
   82.7702  150.6050   17.5333 C   0  0  0  0  0  0  0  0  0  0  0  0
   80.6758  149.3237   18.1221 N   0  0  0  0  0  0  0  0  0  0  0  0
   81.4738  150.5226   18.3349 C   0  0  0  0  0  0  0  0  0  0  0  0
   81.2573  148.5163   18.3467 H   0  0  0  0  0  0  0  0  0  0  0  0
   79.3277  150.0519   14.5575 C   0  0  0  0  0  0  0  0  0  0  0  0
   79.3791  149.0321   13.8837 O   0  0  0  0  0  0  0  0  0  0  0  0
   78.3987  150.9903   14.2796 O   0  0  0  0  0  0  0  0  0  0  0  0
   78.3553  151.7731   14.7928 H   0  0  0  0  0  0  0  0  0  0  0  0
  7  8  2  0
  8  9  1  0
  8 10  1  0
  9 11  1  0
 10 12  1  0
  1  9  1  0
  1  2  2  0
  1  3  5  0
 11 13  1  0
 12 14  2  0
 12 13  1  0
  2 16  1  0
  2  4  5  0
  3  5  2  0
 16 17  1  0
  4  6  2  0
  5 18  1  0
  5  6  5  0
 18 19  1  0
 19 20  1  0
 19 21  1  0
 20 27  1  0
 20 22  1  0
 21 23  1  0
 27 28  2  0
 27 29  1  0
 22 24  1  0
 23 25  1  0
 24 25  1  0
 10 15  1  0
 29 30  1  0
 24 26  1  0
M  END
> <ID>
EDEL-CRBN-0002_ent

> <Stereoisomer>
enantiomer

> <MW>
376.17

> <HBD>
3

> <HBA>
6

> <RotBonds>
5

> <cLogP>
0.39

> <minimizedAffinity>
-9.01392

> <CNNscore>
0.9268664718

> <CNNaffinity>
6.6645865440

> <CNN_VS>
6.1771817207

> <CNNaffinity_variance>
0.0717135146

> <Compound_Name>
EDEL-CRBN-0002_ent

> <Pose_Rank>
1
$$$$
EDEL-CRBN-0002_ent


 30 32  0  0  0  0  0  0  0  0999 V2000
   84.2690  154.5074   13.6441 C   0  0  0  0  0  0  0  0  0  0  0  0
   85.0246  153.5600   12.9255 C   0  0  0  0  0  0  0  0  0  0  0  0
   83.1112  154.0776   14.3151 C   0  0  0  0  0  0  0  0  0  0  0  0
   84.6260  152.2187   12.8922 C   0  0  0  0  0  0  0  0  0  0  0  0
   82.7210  152.7283   14.3055 C   0  0  0  0  0  0  0  0  0  0  0  0
   83.4891  151.8052   13.5863 C   0  0  0  0  0  0  0  0  0  0  0  0
   84.2621  156.3195   11.4110 O   0  0  0  0  0  0  0  0  0  0  0  0
   84.5553  156.6886   12.5459 C   0  0  0  0  0  0  0  0  0  0  0  0
   84.6449  155.8864   13.6840 N   0  0  0  0  0  0  0  0  0  0  0  0
   84.8829  158.0114   12.7431 N   0  0  0  0  0  0  0  0  0  0  0  0
   85.3916  156.3930   14.8243 C   0  0  0  0  0  0  0  0  0  0  0  0
   85.0393  158.6553   13.9397 C   0  0  0  0  0  0  0  0  0  0  0  0
   84.9367  157.7958   15.1649 C   0  0  0  0  0  0  0  0  0  0  0  0
   85.1917  159.8725   14.0003 O   0  0  0  0  0  0  0  0  0  0  0  0
   85.0198  158.5539   11.9330 H   0  0  0  0  0  0  0  0  0  0  0  0
   86.0557  154.0036   12.1316 O   0  0  0  0  0  0  0  0  0  0  0  0
   87.0808  153.0285   11.9469 C   0  0  0  0  0  0  0  0  0  0  0  0
   81.4858  152.2751   15.0552 C   0  0  0  0  0  0  0  0  0  0  0  0
   81.7854  151.4036   16.2011 N   0  0  0  0  0  0  0  0  0  0  0  0
   83.2400  151.0808   16.2625 C   0  0  0  0  0  0  0  0  0  0  0  0
   80.8932  150.2522   16.3374 C   0  0  0  0  0  0  0  0  0  0  0  0
   83.6305  149.6754   16.8045 C   0  0  0  0  0  0  0  0  0  0  0  0
   80.9851  149.1595   15.2708 C   0  0  0  0  0  0  0  0  0  0  0  0
   83.3203  148.4993   15.9677 N   0  0  0  0  0  0  0  0  0  0  0  0
   82.3945  148.7332   14.8688 C   0  0  0  0  0  0  0  0  0  0  0  0
   82.9160  147.7831   16.5711 H   0  0  0  0  0  0  0  0  0  0  0  0
   83.9234  152.1571   17.1126 C   0  0  0  0  0  0  0  0  0  0  0  0
   84.9796  152.7130   16.8440 O   0  0  0  0  0  0  0  0  0  0  0  0
   83.2262  152.5381   18.2033 O   0  0  0  0  0  0  0  0  0  0  0  0
   82.4167  152.1154   18.4131 H   0  0  0  0  0  0  0  0  0  0  0  0
  7  8  2  0
  8  9  1  0
  8 10  1  0
  9 11  1  0
 10 12  1  0
  1  9  1  0
  1  2  2  0
  1  3  5  0
 11 13  1  0
 12 14  2  0
 12 13  1  0
  2 16  1  0
  2  4  5  0
  3  5  2  0
 16 17  1  0
  4  6  2  0
  5 18  1  0
  5  6  5  0
 18 19  1  0
 19 20  1  0
 19 21  1  0
 20 27  1  0
 20 22  1  0
 21 23  1  0
 27 28  2  0
 27 29  1  0
 22 24  1  0
 23 25  1  0
 24 25  1  0
 10 15  1  0
 29 30  1  0
 24 26  1  0
M  END
> <ID>
EDEL-CRBN-0002_ent

> <Stereoisomer>
enantiomer

> <MW>
376.17

> <HBD>
3

> <HBA>
6

> <RotBonds>
5

> <cLogP>
0.39

> <minimizedAffinity>
-9.11877

> <CNNscore>
0.9194210172

> <CNNaffinity>
6.5259432793

> <CNN_VS>
6.0000896454

> <CNNaffinity_variance>
0.5960137248

> <Compound_Name>
EDEL-CRBN-0002_ent

> <Pose_Rank>
2
$$$$
EDEL-CRBN-0002_ent


 30 32  0  0  0  0  0  0  0  0999 V2000
   84.4682  154.4052   13.5596 C   0  0  0  0  0  0  0  0  0  0  0  0
   85.3386  153.5064   12.9121 C   0  0  0  0  0  0  0  0  0  0  0  0
   83.2771  153.9076   14.1158 C   0  0  0  0  0  0  0  0  0  0  0  0
   85.0184  152.1461   12.8355 C   0  0  0  0  0  0  0  0  0  0  0  0
   82.9635  152.5395   14.0635 C   0  0  0  0  0  0  0  0  0  0  0  0
   83.8451  151.6657   13.4166 C   0  0  0  0  0  0  0  0  0  0  0  0
   84.4389  156.2624   11.3641 O   0  0  0  0  0  0  0  0  0  0  0  0
   84.6693  156.6225   12.5162 C   0  0  0  0  0  0  0  0  0  0  0  0
   84.7632  155.8019   13.6408 N   0  0  0  0  0  0  0  0  0  0  0  0
   84.9136  157.9570   12.7516 N   0  0  0  0  0  0  0  0  0  0  0  0
   85.4380  156.3246   14.8181 C   0  0  0  0  0  0  0  0  0  0  0  0
   84.9897  158.5824   13.9658 C   0  0  0  0  0  0  0  0  0  0  0  0
   84.8920  157.6919   15.1691 C   0  0  0  0  0  0  0  0  0  0  0  0
   85.0701  159.8046   14.0561 O   0  0  0  0  0  0  0  0  0  0  0  0
   85.0486  158.5239   11.9581 H   0  0  0  0  0  0  0  0  0  0  0  0
   86.4147  154.0121   12.2215 O   0  0  0  0  0  0  0  0  0  0  0  0
   87.2956  153.0000   11.7364 C   0  0  0  0  0  0  0  0  0  0  0  0
   81.6893  152.0137   14.6907 C   0  0  0  0  0  0  0  0  0  0  0  0
   81.7607  150.5901   15.0517 N   0  0  0  0  0  0  0  0  0  0  0  0
   80.6038  149.8362   14.4889 C   0  0  0  0  0  0  0  0  0  0  0  0
   82.0311  150.3358   16.4669 C   0  0  0  0  0  0  0  0  0  0  0  0
   80.0614  148.6430   15.3276 C   0  0  0  0  0  0  0  0  0  0  0  0
   80.9378  150.7059   17.4707 C   0  0  0  0  0  0  0  0  0  0  0  0
   79.3563  148.9463   16.5888 N   0  0  0  0  0  0  0  0  0  0  0  0
   79.5154  150.3039   17.0899 C   0  0  0  0  0  0  0  0  0  0  0  0
   79.7025  148.3059   17.3033 H   0  0  0  0  0  0  0  0  0  0  0  0
   81.0038  149.3341   13.0974 C   0  0  0  0  0  0  0  0  0  0  0  0
   80.4112  149.5764   12.0550 O   0  0  0  0  0  0  0  0  0  0  0  0
   82.1528  148.6273   13.0642 O   0  0  0  0  0  0  0  0  0  0  0  0
   82.6103  148.4392   13.8600 H   0  0  0  0  0  0  0  0  0  0  0  0
  7  8  2  0
  8  9  1  0
  8 10  1  0
  9 11  1  0
 10 12  1  0
  1  9  1  0
  1  2  2  0
  1  3  5  0
 11 13  1  0
 12 14  2  0
 12 13  1  0
  2 16  1  0
  2  4  5  0
  3  5  2  0
 16 17  1  0
  4  6  2  0
  5 18  1  0
  5  6  5  0
 18 19  1  0
 19 20  1  0
 19 21  1  0
 20 27  1  0
 20 22  1  0
 21 23  1  0
 27 28  2  0
 27 29  1  0
 22 24  1  0
 23 25  1  0
 24 25  1  0
 10 15  1  0
 29 30  1  0
 24 26  1  0
M  END
> <ID>
EDEL-CRBN-0002_ent

> <Stereoisomer>
enantiomer

> <MW>
376.17

> <HBD>
3

> <HBA>
6

> <RotBonds>
5

> <cLogP>
0.39

> <minimizedAffinity>
-8.82423

> <CNNscore>
0.8899576664

> <CNNaffinity>
6.5911126137

> <CNN_VS>
5.8658113480

> <CNNaffinity_variance>
0.0186512135

> <Compound_Name>
EDEL-CRBN-0002_ent

> <Pose_Rank>
3
$$$$
EDEL-CRBN-0002_ent


 30 32  0  0  0  0  0  0  0  0999 V2000
   85.0276  153.7945   13.2427 C   0  0  0  0  0  0  0  0  0  0  0  0
   83.7862  153.1638   13.4565 C   0  0  0  0  0  0  0  0  0  0  0  0
   86.1228  153.0092   12.8434 C   0  0  0  0  0  0  0  0  0  0  0  0
   83.6543  151.7835   13.2658 C   0  0  0  0  0  0  0  0  0  0  0  0
   85.9894  151.6279   12.6264 C   0  0  0  0  0  0  0  0  0  0  0  0
   84.7453  151.0242   12.8434 C   0  0  0  0  0  0  0  0  0  0  0  0
   85.8921  155.6869   11.2573 O   0  0  0  0  0  0  0  0  0  0  0  0
   85.5724  156.0360   12.3914 C   0  0  0  0  0  0  0  0  0  0  0  0
   85.1946  155.2004   13.4431 N   0  0  0  0  0  0  0  0  0  0  0  0
   85.6284  157.3750   12.7077 N   0  0  0  0  0  0  0  0  0  0  0  0
   85.2546  155.7293   14.7962 C   0  0  0  0  0  0  0  0  0  0  0  0
   85.1314  157.9816   13.8284 C   0  0  0  0  0  0  0  0  0  0  0  0
   84.5501  157.0671   14.8658 C   0  0  0  0  0  0  0  0  0  0  0  0
   85.1098  159.2044   13.9421 O   0  0  0  0  0  0  0  0  0  0  0  0
   86.0758  157.9606   12.0548 H   0  0  0  0  0  0  0  0  0  0  0  0
   82.7613  153.8950   14.0090 O   0  0  0  0  0  0  0  0  0  0  0  0
   81.9399  153.1318   14.8914 C   0  0  0  0  0  0  0  0  0  0  0  0
   87.1719  150.7990   12.1705 C   0  0  0  0  0  0  0  0  0  0  0  0
   87.6006  151.0999   10.7965 N   0  0  0  0  0  0  0  0  0  0  0  0
   88.3694  149.9626   10.2141 C   0  0  0  0  0  0  0  0  0  0  0  0
   88.2231  152.4133   10.6290 C   0  0  0  0  0  0  0  0  0  0  0  0
   89.5128  150.3170    9.2200 C   0  0  0  0  0  0  0  0  0  0  0  0
   89.5896  152.6336   11.2801 C   0  0  0  0  0  0  0  0  0  0  0  0
   90.7236  150.9671    9.7597 N   0  0  0  0  0  0  0  0  0  0  0  0
   90.6033  151.5056   11.1069 C   0  0  0  0  0  0  0  0  0  0  0  0
   90.9714  151.7352    9.1360 H   0  0  0  0  0  0  0  0  0  0  0  0
   87.3714  149.0277    9.5226 C   0  0  0  0  0  0  0  0  0  0  0  0
   87.1337  147.8727    9.8482 O   0  0  0  0  0  0  0  0  0  0  0  0
   86.6710  149.5967    8.5193 O   0  0  0  0  0  0  0  0  0  0  0  0
   86.8494  150.4811    8.2662 H   0  0  0  0  0  0  0  0  0  0  0  0
  7  8  2  0
  8  9  1  0
  8 10  1  0
  9 11  1  0
 10 12  1  0
  1  9  1  0
  1  2  2  0
  1  3  5  0
 11 13  1  0
 12 14  2  0
 12 13  1  0
  2 16  1  0
  2  4  5  0
  3  5  2  0
 16 17  1  0
  4  6  2  0
  5 18  1  0
  5  6  5  0
 18 19  1  0
 19 20  1  0
 19 21  1  0
 20 27  1  0
 20 22  1  0
 21 23  1  0
 27 28  2  0
 27 29  1  0
 22 24  1  0
 23 25  1  0
 24 25  1  0
 10 15  1  0
 29 30  1  0
 24 26  1  0
M  END
> <ID>
EDEL-CRBN-0002_ent

> <Stereoisomer>
enantiomer

> <MW>
376.17

> <HBD>
3

> <HBA>
6

> <RotBonds>
5

> <cLogP>
0.39

> <minimizedAffinity>
-7.75989

> <CNNscore>
0.8697528243

> <CNNaffinity>
6.6265563965

> <CNN_VS>
5.7634663582

> <CNNaffinity_variance>
0.2438353300

> <Compound_Name>
EDEL-CRBN-0002_ent

> <Pose_Rank>
4
$$$$
EDEL-CRBN-0002_ent


 30 32  0  0  0  0  0  0  0  0999 V2000
   84.7868  154.0544   13.5131 C   0  0  0  0  0  0  0  0  0  0  0  0
   85.6761  153.2588   12.7641 C   0  0  0  0  0  0  0  0  0  0  0  0
   83.7260  153.4265   14.1884 C   0  0  0  0  0  0  0  0  0  0  0  0
   85.5025  151.8712   12.7053 C   0  0  0  0  0  0  0  0  0  0  0  0
   83.5623  152.0320   14.1530 C   0  0  0  0  0  0  0  0  0  0  0  0
   84.4599  151.2625   13.4037 C   0  0  0  0  0  0  0  0  0  0  0  0
   84.5857  155.8728   11.2943 O   0  0  0  0  0  0  0  0  0  0  0  0
   84.7644  156.2684   12.4440 C   0  0  0  0  0  0  0  0  0  0  0  0
   84.9321  155.4753   13.5796 N   0  0  0  0  0  0  0  0  0  0  0  0
   84.8641  157.6239   12.6650 N   0  0  0  0  0  0  0  0  0  0  0  0
   85.5352  156.0797   14.7566 C   0  0  0  0  0  0  0  0  0  0  0  0
   84.8606  158.2677   13.8719 C   0  0  0  0  0  0  0  0  0  0  0  0
   84.8443  157.3857   15.0852 C   0  0  0  0  0  0  0  0  0  0  0  0
   84.8107  159.4925   13.9476 O   0  0  0  0  0  0  0  0  0  0  0  0
   84.9471  158.1927   11.8657 H   0  0  0  0  0  0  0  0  0  0  0  0
   86.6079  153.8819   11.9678 O   0  0  0  0  0  0  0  0  0  0  0  0
   87.6212  152.9969   11.4926 C   0  0  0  0  0  0  0  0  0  0  0  0
   82.4302  151.3668   14.9074 C   0  0  0  0  0  0  0  0  0  0  0  0
   81.5674  150.5374   14.0531 N   0  0  0  0  0  0  0  0  0  0  0  0
   80.5583  149.7999   14.8663 C   0  0  0  0  0  0  0  0  0  0  0  0
   82.2867  149.7199   13.0760 C   0  0  0  0  0  0  0  0  0  0  0  0
   80.1386  148.3886   14.3630 C   0  0  0  0  0  0  0  0  0  0  0  0
   83.1419  148.5704   13.6121 C   0  0  0  0  0  0  0  0  0  0  0  0
   81.1296  147.2979   14.4525 N   0  0  0  0  0  0  0  0  0  0  0  0
   82.5031  147.7120   14.7007 C   0  0  0  0  0  0  0  0  0  0  0  0
   81.1114  146.7847   13.5712 H   0  0  0  0  0  0  0  0  0  0  0  0
   79.3128  150.6850   14.9828 C   0  0  0  0  0  0  0  0  0  0  0  0
   78.5288  150.9346   14.0774 O   0  0  0  0  0  0  0  0  0  0  0  0
   79.0665  151.1471   16.2264 O   0  0  0  0  0  0  0  0  0  0  0  0
   79.6639  150.9586   16.9232 H   0  0  0  0  0  0  0  0  0  0  0  0
  7  8  2  0
  8  9  1  0
  8 10  1  0
  9 11  1  0
 10 12  1  0
  1  9  1  0
  1  2  2  0
  1  3  5  0
 11 13  1  0
 12 14  2  0
 12 13  1  0
  2 16  1  0
  2  4  5  0
  3  5  2  0
 16 17  1  0
  4  6  2  0
  5 18  1  0
  5  6  5  0
 18 19  1  0
 19 20  1  0
 19 21  1  0
 20 27  1  0
 20 22  1  0
 21 23  1  0
 27 28  2  0
 27 29  1  0
 22 24  1  0
 23 25  1  0
 24 25  1  0
 10 15  1  0
 29 30  1  0
 24 26  1  0
M  END
> <ID>
EDEL-CRBN-0002_ent

> <Stereoisomer>
enantiomer

> <MW>
376.17

> <HBD>
3

> <HBA>
6

> <RotBonds>
5

> <cLogP>
0.39

> <minimizedAffinity>
-7.91543

> <CNNscore>
0.6958149672

> <CNNaffinity>
6.1210265160

> <CNN_VS>
4.2591018677

> <CNNaffinity_variance>
0.1881855279

> <Compound_Name>
EDEL-CRBN-0002_ent

> <Pose_Rank>
5
$$$$
EDEL-CRBN-0002


 30 32  0  0  0  0  0  0  0  0999 V2000
   84.3227  154.3472   13.7373 C   0  0  0  0  0  0  0  0  0  0  0  0
   85.1017  153.3821   13.0721 C   0  0  0  0  0  0  0  0  0  0  0  0
   83.1613  153.9262   14.4088 C   0  0  0  0  0  0  0  0  0  0  0  0
   84.7193  152.0363   13.0889 C   0  0  0  0  0  0  0  0  0  0  0  0
   82.7866  152.5714   14.4580 C   0  0  0  0  0  0  0  0  0  0  0  0
   83.5768  151.6349   13.7828 C   0  0  0  0  0  0  0  0  0  0  0  0
   84.2712  156.0728   11.4348 O   0  0  0  0  0  0  0  0  0  0  0  0
   84.5668  156.4888   12.5527 C   0  0  0  0  0  0  0  0  0  0  0  0
   84.6744  155.7333   13.7211 N   0  0  0  0  0  0  0  0  0  0  0  0
   84.8771  157.8229   12.6952 N   0  0  0  0  0  0  0  0  0  0  0  0
   85.4205  156.2963   14.8353 C   0  0  0  0  0  0  0  0  0  0  0  0
   85.0300  158.5164   13.8642 C   0  0  0  0  0  0  0  0  0  0  0  0
   84.9472  157.7049   15.1230 C   0  0  0  0  0  0  0  0  0  0  0  0
   85.1635  159.7372   13.8757 O   0  0  0  0  0  0  0  0  0  0  0  0
   85.0028  158.3343   11.8634 H   0  0  0  0  0  0  0  0  0  0  0  0
   86.1379  153.8033   12.2728 O   0  0  0  0  0  0  0  0  0  0  0  0
   86.9472  152.7293   11.7952 C   0  0  0  0  0  0  0  0  0  0  0  0
   81.5418  152.1416   15.2101 C   0  0  0  0  0  0  0  0  0  0  0  0
   81.7234  151.2063   16.3406 N   0  0  0  0  0  0  0  0  0  0  0  0
   81.8044  149.7767   15.9223 C   0  0  0  0  0  0  0  0  0  0  0  0
   82.8118  151.6269   17.2325 C   0  0  0  0  0  0  0  0  0  0  0  0
   81.9671  148.7217   17.0519 C   0  0  0  0  0  0  0  0  0  0  0  0
   82.6995  151.0122   18.6266 C   0  0  0  0  0  0  0  0  0  0  0  0
   83.2939  148.7268   17.6755 N   0  0  0  0  0  0  0  0  0  0  0  0
   83.4129  149.6714   18.7802 C   0  0  0  0  0  0  0  0  0  0  0  0
   83.9837  148.9719   16.9652 H   0  0  0  0  0  0  0  0  0  0  0  0
   80.5302  149.3697   15.1725 C   0  0  0  0  0  0  0  0  0  0  0  0
   80.4539  149.0876   13.9852 O   0  0  0  0  0  0  0  0  0  0  0  0
   79.4147  149.3576   15.9342 O   0  0  0  0  0  0  0  0  0  0  0  0
   79.4666  149.5728   16.8447 H   0  0  0  0  0  0  0  0  0  0  0  0
  7  8  2  0
  8  9  1  0
  8 10  1  0
  9 11  1  0
 10 12  1  0
  1  9  1  0
  1  2  2  0
  1  3  5  0
 11 13  1  0
 12 14  2  0
 12 13  1  0
  2 16  1  0
  2  4  5  0
  3  5  2  0
 16 17  1  0
  4  6  2  0
  5 18  1  0
  5  6  5  0
 18 19  1  0
 19 20  1  0
 19 21  1  0
 20 27  1  0
 20 22  1  0
 21 23  1  0
 27 28  2  0
 27 29  1  0
 22 24  1  0
 23 25  1  0
 24 25  1  0
 10 15  1  0
 29 30  1  0
 24 26  1  0
M  END
> <ID>
EDEL-CRBN-0002

> <Stereoisomer>
original

> <MW>
376.17

> <HBD>
3

> <HBA>
6

> <RotBonds>
5

> <cLogP>
0.39

> <minimizedAffinity>
-8.46224

> <CNNscore>
0.9051148295

> <CNNaffinity>
6.8049044609

> <CNN_VS>
6.1592197418

> <CNNaffinity_variance>
0.0912517235

> <Compound_Name>
EDEL-CRBN-0002

> <Pose_Rank>
1
$$$$
EDEL-CRBN-0002


 30 32  0  0  0  0  0  0  0  0999 V2000
   84.1765  154.4695   13.7581 C   0  0  0  0  0  0  0  0  0  0  0  0
   84.8876  153.4957   13.0324 C   0  0  0  0  0  0  0  0  0  0  0  0
   83.0350  154.0714   14.4761 C   0  0  0  0  0  0  0  0  0  0  0  0
   84.4592  152.1637   13.0362 C   0  0  0  0  0  0  0  0  0  0  0  0
   82.6155  152.7294   14.5117 C   0  0  0  0  0  0  0  0  0  0  0  0
   83.3384  151.7839   13.7761 C   0  0  0  0  0  0  0  0  0  0  0  0
   84.1619  156.2283   11.4802 O   0  0  0  0  0  0  0  0  0  0  0  0
   84.4826  156.6180   12.6007 C   0  0  0  0  0  0  0  0  0  0  0  0
   84.5756  155.8428   13.7574 N   0  0  0  0  0  0  0  0  0  0  0  0
   84.8402  157.9385   12.7584 N   0  0  0  0  0  0  0  0  0  0  0  0
   85.3516  156.3640   14.8714 C   0  0  0  0  0  0  0  0  0  0  0  0
   85.0285  158.6097   13.9352 C   0  0  0  0  0  0  0  0  0  0  0  0
   84.9301  157.7838   15.1835 C   0  0  0  0  0  0  0  0  0  0  0  0
   85.2042  159.8249   13.9621 O   0  0  0  0  0  0  0  0  0  0  0  0
   84.9753  158.4570   11.9324 H   0  0  0  0  0  0  0  0  0  0  0  0
   85.8978  153.9016   12.1929 O   0  0  0  0  0  0  0  0  0  0  0  0
   86.9486  152.9427   12.0791 C   0  0  0  0  0  0  0  0  0  0  0  0
   81.3945  152.3232   15.3142 C   0  0  0  0  0  0  0  0  0  0  0  0
   81.6235  151.8100   16.6817 N   0  0  0  0  0  0  0  0  0  0  0  0
   80.7682  150.6379   17.0278 C   0  0  0  0  0  0  0  0  0  0  0  0
   83.0511  151.6068   16.9606 C   0  0  0  0  0  0  0  0  0  0  0  0
   80.9242  150.0517   18.4587 C   0  0  0  0  0  0  0  0  0  0  0  0
   83.3591  151.5793   18.4566 C   0  0  0  0  0  0  0  0  0  0  0  0
   82.1839  149.3308   18.6655 N   0  0  0  0  0  0  0  0  0  0  0  0
   83.2833  150.1913   19.0872 C   0  0  0  0  0  0  0  0  0  0  0  0
   82.4452  148.8791   17.7891 H   0  0  0  0  0  0  0  0  0  0  0  0
   79.2853  151.0075   16.9042 C   0  0  0  0  0  0  0  0  0  0  0  0
   78.5753  151.4413   17.8003 O   0  0  0  0  0  0  0  0  0  0  0  0
   78.7581  150.7964   15.6785 O   0  0  0  0  0  0  0  0  0  0  0  0
   79.2970  150.4642   14.9876 H   0  0  0  0  0  0  0  0  0  0  0  0
  7  8  2  0
  8  9  1  0
  8 10  1  0
  9 11  1  0
 10 12  1  0
  1  9  1  0
  1  2  2  0
  1  3  5  0
 11 13  1  0
 12 14  2  0
 12 13  1  0
  2 16  1  0
  2  4  5  0
  3  5  2  0
 16 17  1  0
  4  6  2  0
  5 18  1  0
  5  6  5  0
 18 19  1  0
 19 20  1  0
 19 21  1  0
 20 27  1  0
 20 22  1  0
 21 23  1  0
 27 28  2  0
 27 29  1  0
 22 24  1  0
 23 25  1  0
 24 25  1  0
 10 15  1  0
 29 30  1  0
 24 26  1  0
M  END
> <ID>
EDEL-CRBN-0002

> <Stereoisomer>
original

> <MW>
376.17

> <HBD>
3

> <HBA>
6

> <RotBonds>
5

> <cLogP>
0.39

> <minimizedAffinity>
-9.31411

> <CNNscore>
0.9003117085

> <CNNaffinity>
6.6237010956

> <CNN_VS>
5.9633955956

> <CNNaffinity_variance>
0.1420578212

> <Compound_Name>
EDEL-CRBN-0002

> <Pose_Rank>
2
$$$$
EDEL-CRBN-0002


 30 32  0  0  0  0  0  0  0  0999 V2000
   84.3156  154.5747   13.7074 C   0  0  0  0  0  0  0  0  0  0  0  0
   85.0809  153.6247   13.0057 C   0  0  0  0  0  0  0  0  0  0  0  0
   83.1561  154.1423   14.3750 C   0  0  0  0  0  0  0  0  0  0  0  0
   84.6872  152.2823   12.9833 C   0  0  0  0  0  0  0  0  0  0  0  0
   82.7702  152.7899   14.3846 C   0  0  0  0  0  0  0  0  0  0  0  0
   83.5469  151.8686   13.6736 C   0  0  0  0  0  0  0  0  0  0  0  0
   84.3470  156.3501   11.4427 O   0  0  0  0  0  0  0  0  0  0  0  0
   84.6125  156.7392   12.5777 C   0  0  0  0  0  0  0  0  0  0  0  0
   84.6789  155.9577   13.7321 N   0  0  0  0  0  0  0  0  0  0  0  0
   84.9293  158.0672   12.7586 N   0  0  0  0  0  0  0  0  0  0  0  0
   85.3960  156.4898   14.8799 C   0  0  0  0  0  0  0  0  0  0  0  0
   85.0529  158.7338   13.9465 C   0  0  0  0  0  0  0  0  0  0  0  0
   84.9259  157.8960   15.1842 C   0  0  0  0  0  0  0  0  0  0  0  0
   85.1960  159.9528   13.9886 O   0  0  0  0  0  0  0  0  0  0  0  0
   85.0839  158.5953   11.9423 H   0  0  0  0  0  0  0  0  0  0  0  0
   86.1142  154.0624   12.2114 O   0  0  0  0  0  0  0  0  0  0  0  0
   87.0597  153.0370   11.9095 C   0  0  0  0  0  0  0  0  0  0  0  0
   81.5280  152.3468   15.1332 C   0  0  0  0  0  0  0  0  0  0  0  0
   81.5038  150.9591   15.6427 N   0  0  0  0  0  0  0  0  0  0  0  0
   81.8222  150.8538   17.0963 C   0  0  0  0  0  0  0  0  0  0  0  0
   80.2785  150.2508   15.2501 C   0  0  0  0  0  0  0  0  0  0  0  0
   81.8467  149.4258   17.7091 C   0  0  0  0  0  0  0  0  0  0  0  0
   80.4355  148.7321   15.3028 C   0  0  0  0  0  0  0  0  0  0  0  0
   80.5182  148.8209   17.8457 N   0  0  0  0  0  0  0  0  0  0  0  0
   80.0775  148.1110   16.6504 C   0  0  0  0  0  0  0  0  0  0  0  0
   79.8458  149.5606   18.0483 H   0  0  0  0  0  0  0  0  0  0  0  0
   83.2119  151.4366   17.3791 C   0  0  0  0  0  0  0  0  0  0  0  0
   84.2769  150.9750   16.9946 O   0  0  0  0  0  0  0  0  0  0  0  0
   83.2048  152.5497   18.1444 O   0  0  0  0  0  0  0  0  0  0  0  0
   82.3919  152.9083   18.4422 H   0  0  0  0  0  0  0  0  0  0  0  0
  7  8  2  0
  8  9  1  0
  8 10  1  0
  9 11  1  0
 10 12  1  0
  1  9  1  0
  1  2  2  0
  1  3  5  0
 11 13  1  0
 12 14  2  0
 12 13  1  0
  2 16  1  0
  2  4  5  0
  3  5  2  0
 16 17  1  0
  4  6  2  0
  5 18  1  0
  5  6  5  0
 18 19  1  0
 19 20  1  0
 19 21  1  0
 20 27  1  0
 20 22  1  0
 21 23  1  0
 27 28  2  0
 27 29  1  0
 22 24  1  0
 23 25  1  0
 24 25  1  0
 10 15  1  0
 29 30  1  0
 24 26  1  0
M  END
> <ID>
EDEL-CRBN-0002

> <Stereoisomer>
original

> <MW>
376.17

> <HBD>
3

> <HBA>
6

> <RotBonds>
5

> <cLogP>
0.39

> <minimizedAffinity>
-8.91267

> <CNNscore>
0.8477970362

> <CNNaffinity>
6.5383129120

> <CNN_VS>
5.5431623459

> <CNNaffinity_variance>
0.7217230201

> <Compound_Name>
EDEL-CRBN-0002

> <Pose_Rank>
3
$$$$
EDEL-CRBN-0002


 30 32  0  0  0  0  0  0  0  0999 V2000
   85.1156  153.8052   13.4657 C   0  0  0  0  0  0  0  0  0  0  0  0
   83.8502  153.1898   13.4919 C   0  0  0  0  0  0  0  0  0  0  0  0
   86.2581  152.9887   13.3958 C   0  0  0  0  0  0  0  0  0  0  0  0
   83.7453  151.7953   13.4459 C   0  0  0  0  0  0  0  0  0  0  0  0
   86.1612  151.5878   13.3170 C   0  0  0  0  0  0  0  0  0  0  0  0
   84.8905  151.0032   13.3509 C   0  0  0  0  0  0  0  0  0  0  0  0
   85.9621  155.5184   11.3138 O   0  0  0  0  0  0  0  0  0  0  0  0
   85.6315  155.9657   12.4096 C   0  0  0  0  0  0  0  0  0  0  0  0
   85.2578  155.2267   13.5329 N   0  0  0  0  0  0  0  0  0  0  0  0
   85.6680  157.3292   12.5996 N   0  0  0  0  0  0  0  0  0  0  0  0
   85.3023  155.8818   14.8305 C   0  0  0  0  0  0  0  0  0  0  0  0
   85.1548  158.0315   13.6551 C   0  0  0  0  0  0  0  0  0  0  0  0
   84.5793  157.2102   14.7706 C   0  0  0  0  0  0  0  0  0  0  0  0
   85.1146  159.2590   13.6531 O   0  0  0  0  0  0  0  0  0  0  0  0
   86.1130  157.8571   11.8977 H   0  0  0  0  0  0  0  0  0  0  0  0
   82.7411  153.9656   13.7327 O   0  0  0  0  0  0  0  0  0  0  0  0
   81.8460  153.3821   14.6788 C   0  0  0  0  0  0  0  0  0  0  0  0
   87.4092  150.7319   13.2179 C   0  0  0  0  0  0  0  0  0  0  0  0
   88.1535  150.7659   11.9410 N   0  0  0  0  0  0  0  0  0  0  0  0
   87.4529  150.0658   10.8255 C   0  0  0  0  0  0  0  0  0  0  0  0
   88.6019  152.1228   11.6021 C   0  0  0  0  0  0  0  0  0  0  0  0
   88.1792  150.0288    9.4521 C   0  0  0  0  0  0  0  0  0  0  0  0
   89.7652  152.1269   10.6119 C   0  0  0  0  0  0  0  0  0  0  0  0
   88.2070  151.3240    8.7658 N   0  0  0  0  0  0  0  0  0  0  0  0
   89.3409  152.1587    9.1459 C   0  0  0  0  0  0  0  0  0  0  0  0
   87.3474  151.8260    8.9883 H   0  0  0  0  0  0  0  0  0  0  0  0
   87.2085  148.5968   11.1909 C   0  0  0  0  0  0  0  0  0  0  0  0
   86.3029  148.1719   11.8941 O   0  0  0  0  0  0  0  0  0  0  0  0
   88.1168  147.7367   10.6810 O   0  0  0  0  0  0  0  0  0  0  0  0
   88.8131  148.0561   10.1414 H   0  0  0  0  0  0  0  0  0  0  0  0
  7  8  2  0
  8  9  1  0
  8 10  1  0
  9 11  1  0
 10 12  1  0
  1  9  1  0
  1  2  2  0
  1  3  5  0
 11 13  1  0
 12 14  2  0
 12 13  1  0
  2 16  1  0
  2  4  5  0
  3  5  2  0
 16 17  1  0
  4  6  2  0
  5 18  1  0
  5  6  5  0
 18 19  1  0
 19 20  1  0
 19 21  1  0
 20 27  1  0
 20 22  1  0
 21 23  1  0
 27 28  2  0
 27 29  1  0
 22 24  1  0
 23 25  1  0
 24 25  1  0
 10 15  1  0
 29 30  1  0
 24 26  1  0
M  END
> <ID>
EDEL-CRBN-0002

> <Stereoisomer>
original

> <MW>
376.17

> <HBD>
3

> <HBA>
6

> <RotBonds>
5

> <cLogP>
0.39

> <minimizedAffinity>
-7.11995

> <CNNscore>
0.7755466700

> <CNNaffinity>
6.4350867271

> <CNN_VS>
4.9907102585

> <CNNaffinity_variance>
0.2243630439

> <Compound_Name>
EDEL-CRBN-0002

> <Pose_Rank>
4
$$$$
EDEL-CRBN-0002


 30 32  0  0  0  0  0  0  0  0999 V2000
   85.0879  153.8459   13.3703 C   0  0  0  0  0  0  0  0  0  0  0  0
   83.8357  153.2241   13.5318 C   0  0  0  0  0  0  0  0  0  0  0  0
   86.2118  153.0381   13.1228 C   0  0  0  0  0  0  0  0  0  0  0  0
   83.7250  151.8321   13.4428 C   0  0  0  0  0  0  0  0  0  0  0  0
   86.1049  151.6411   13.0000 C   0  0  0  0  0  0  0  0  0  0  0  0
   84.8484  151.0498   13.1711 C   0  0  0  0  0  0  0  0  0  0  0  0
   85.9446  155.6128   11.2665 O   0  0  0  0  0  0  0  0  0  0  0  0
   85.6164  156.0316   12.3741 C   0  0  0  0  0  0  0  0  0  0  0  0
   85.2383  155.2641   13.4766 N   0  0  0  0  0  0  0  0  0  0  0  0
   85.6609  157.3891   12.6017 N   0  0  0  0  0  0  0  0  0  0  0  0
   85.2864  155.8829   14.7918 C   0  0  0  0  0  0  0  0  0  0  0  0
   85.1516  158.0650   13.6761 C   0  0  0  0  0  0  0  0  0  0  0  0
   84.5712  157.2166   14.7686 C   0  0  0  0  0  0  0  0  0  0  0  0
   85.1185  159.2923   13.7080 O   0  0  0  0  0  0  0  0  0  0  0  0
   86.1091  157.9336   11.9146 H   0  0  0  0  0  0  0  0  0  0  0  0
   82.7666  153.9844   13.9427 O   0  0  0  0  0  0  0  0  0  0  0  0
   81.8539  153.2639   14.7700 C   0  0  0  0  0  0  0  0  0  0  0  0
   87.3297  150.7956   12.7086 C   0  0  0  0  0  0  0  0  0  0  0  0
   87.1023  149.4385   12.1681 N   0  0  0  0  0  0  0  0  0  0  0  0
   87.9090  149.1410   10.9492 C   0  0  0  0  0  0  0  0  0  0  0  0
   87.1991  148.4084   13.2106 C   0  0  0  0  0  0  0  0  0  0  0  0
   87.7102  147.7440   10.2979 C   0  0  0  0  0  0  0  0  0  0  0  0
   86.4904  147.1118   12.8228 C   0  0  0  0  0  0  0  0  0  0  0  0
   88.2843  146.6436   11.0783 N   0  0  0  0  0  0  0  0  0  0  0  0
   87.3750  146.1097   12.0858 C   0  0  0  0  0  0  0  0  0  0  0  0
   89.1231  146.9841   11.5482 H   0  0  0  0  0  0  0  0  0  0  0  0
   87.5884  150.1507    9.8407 C   0  0  0  0  0  0  0  0  0  0  0  0
   86.5597  150.1914    9.1808 O   0  0  0  0  0  0  0  0  0  0  0  0
   88.5735  151.0420    9.5960 O   0  0  0  0  0  0  0  0  0  0  0  0
   89.3642  151.0160   10.0982 H   0  0  0  0  0  0  0  0  0  0  0  0
  7  8  2  0
  8  9  1  0
  8 10  1  0
  9 11  1  0
 10 12  1  0
  1  9  1  0
  1  2  2  0
  1  3  5  0
 11 13  1  0
 12 14  2  0
 12 13  1  0
  2 16  1  0
  2  4  5  0
  3  5  2  0
 16 17  1  0
  4  6  2  0
  5 18  1  0
  5  6  5  0
 18 19  1  0
 19 20  1  0
 19 21  1  0
 20 27  1  0
 20 22  1  0
 21 23  1  0
 27 28  2  0
 27 29  1  0
 22 24  1  0
 23 25  1  0
 24 25  1  0
 10 15  1  0
 29 30  1  0
 24 26  1  0
M  END
> <ID>
EDEL-CRBN-0002

> <Stereoisomer>
original

> <MW>
376.17

> <HBD>
3

> <HBA>
6

> <RotBonds>
5

> <cLogP>
0.39

> <minimizedAffinity>
-6.89645

> <CNNscore>
0.7001219988

> <CNNaffinity>
6.1222076416

> <CNN_VS>
4.2862920761

> <CNNaffinity_variance>
0.1203414574

> <Compound_Name>
EDEL-CRBN-0002

> <Pose_Rank>
5
$$$$
EDEL-CRBN-0003_ent


 30 32  0  0  0  0  0  0  0  0999 V2000
   84.0649  154.8073   13.8093 C   0  0  0  0  0  0  0  0  0  0  0  0
   84.8592  153.7290   13.3620 C   0  0  0  0  0  0  0  0  0  0  0  0
   82.7631  154.5359   14.2578 C   0  0  0  0  0  0  0  0  0  0  0  0
   84.3344  152.4217   13.2838 C   0  0  0  0  0  0  0  0  0  0  0  0
   82.2471  153.2404   14.2225 C   0  0  0  0  0  0  0  0  0  0  0  0
   83.0228  152.1942   13.7298 C   0  0  0  0  0  0  0  0  0  0  0  0
   83.9593  156.7162   11.6164 O   0  0  0  0  0  0  0  0  0  0  0  0
   84.5146  156.9610   12.6822 C   0  0  0  0  0  0  0  0  0  0  0  0
   84.5232  156.1605   13.8251 N   0  0  0  0  0  0  0  0  0  0  0  0
   85.1212  158.1865   12.8399 N   0  0  0  0  0  0  0  0  0  0  0  0
   85.2131  156.6526   15.0109 C   0  0  0  0  0  0  0  0  0  0  0  0
   85.1248  158.8918   14.0118 C   0  0  0  0  0  0  0  0  0  0  0  0
   84.8550  158.1006   15.2610 C   0  0  0  0  0  0  0  0  0  0  0  0
   85.2591  160.1126   14.0274 O   0  0  0  0  0  0  0  0  0  0  0  0
   85.5801  158.5791   12.0623 H   0  0  0  0  0  0  0  0  0  0  0  0
   86.1829  153.9117   13.0343 O   0  0  0  0  0  0  0  0  0  0  0  0
   86.3038  154.5976   11.7898 C   0  0  0  0  0  0  0  0  0  0  0  0
   85.1440  151.2609   12.7326 C   0  0  0  0  0  0  0  0  0  0  0  0
   86.5901  151.4171   12.9443 N   0  0  0  0  0  0  0  0  0  0  0  0
   87.1688  150.4351   13.8948 C   0  0  0  0  0  0  0  0  0  0  0  0
   87.3740  151.4716   11.7061 C   0  0  0  0  0  0  0  0  0  0  0  0
   86.7884  148.9452   13.7141 C   0  0  0  0  0  0  0  0  0  0  0  0
   87.3702  150.2365   10.7978 C   0  0  0  0  0  0  0  0  0  0  0  0
   86.7454  148.4017   12.3437 N   0  0  0  0  0  0  0  0  0  0  0  0
   87.7843  148.9225   11.4613 C   0  0  0  0  0  0  0  0  0  0  0  0
   85.8375  148.6286   11.9379 H   0  0  0  0  0  0  0  0  0  0  0  0
   86.9377  150.8798   15.3415 C   0  0  0  0  0  0  0  0  0  0  0  0
   87.6411  150.5836   16.2982 O   0  0  0  0  0  0  0  0  0  0  0  0
   85.8541  151.6582   15.5395 O   0  0  0  0  0  0  0  0  0  0  0  0
   85.3070  151.8925   14.8158 H   0  0  0  0  0  0  0  0  0  0  0  0
  7  8  2  0
  8  9  1  0
  8 10  1  0
  9 11  1  0
 10 12  1  0
  1  9  1  0
  1  2  2  0
  1  3  5  0
 11 13  1  0
 12 14  2  0
 12 13  1  0
  2 16  1  0
  2  4  5  0
  3  5  2  0
 16 17  1  0
  4  6  2  0
  4 18  1  0
  5  6  5  0
 18 19  1  0
 19 20  1  0
 19 21  1  0
 20 27  1  0
 20 22  1  0
 21 23  1  0
 27 28  2  0
 27 29  1  0
 22 24  1  0
 23 25  1  0
 24 25  1  0
 10 15  1  0
 29 30  1  0
 24 26  1  0
M  END
> <ID>
EDEL-CRBN-0003_ent

> <Stereoisomer>
enantiomer

> <MW>
376.17

> <HBD>
3

> <HBA>
6

> <RotBonds>
5

> <cLogP>
0.39

> <minimizedAffinity>
-8.31194

> <CNNscore>
0.8921540976

> <CNNaffinity>
6.0142498016

> <CNN_VS>
5.3656377792

> <CNNaffinity_variance>
0.4152761698

> <Compound_Name>
EDEL-CRBN-0003_ent

> <Pose_Rank>
1
$$$$
EDEL-CRBN-0003_ent


 30 32  0  0  0  0  0  0  0  0999 V2000
   85.4297  153.5557   13.7697 C   0  0  0  0  0  0  0  0  0  0  0  0
   84.5899  152.8353   14.6469 C   0  0  0  0  0  0  0  0  0  0  0  0
   86.2978  152.8351   12.9350 C   0  0  0  0  0  0  0  0  0  0  0  0
   84.6775  151.4308   14.7490 C   0  0  0  0  0  0  0  0  0  0  0  0
   86.3643  151.4432   12.9991 C   0  0  0  0  0  0  0  0  0  0  0  0
   85.5684  150.7481   13.9057 C   0  0  0  0  0  0  0  0  0  0  0  0
   85.6901  155.1776   11.3685 O   0  0  0  0  0  0  0  0  0  0  0  0
   85.6694  155.6605   12.4958 C   0  0  0  0  0  0  0  0  0  0  0  0
   85.4383  154.9824   13.6932 N   0  0  0  0  0  0  0  0  0  0  0  0
   85.7853  157.0259   12.6269 N   0  0  0  0  0  0  0  0  0  0  0  0
   85.4157  155.7505   14.9316 C   0  0  0  0  0  0  0  0  0  0  0  0
   85.1119  157.7632   13.5616 C   0  0  0  0  0  0  0  0  0  0  0  0
   84.5931  157.0070   14.7526 C   0  0  0  0  0  0  0  0  0  0  0  0
   84.8767  158.9567   13.3919 O   0  0  0  0  0  0  0  0  0  0  0  0
   86.3892  157.5003   12.0109 H   0  0  0  0  0  0  0  0  0  0  0  0
   83.6280  153.4760   15.3934 O   0  0  0  0  0  0  0  0  0  0  0  0
   82.5438  153.8938   14.5663 C   0  0  0  0  0  0  0  0  0  0  0  0
   83.8404  150.6420   15.7409 C   0  0  0  0  0  0  0  0  0  0  0  0
   82.7078  151.4107   16.2763 N   0  0  0  0  0  0  0  0  0  0  0  0
   81.4083  150.6974   16.2038 C   0  0  0  0  0  0  0  0  0  0  0  0
   82.9335  151.9520   17.6204 C   0  0  0  0  0  0  0  0  0  0  0  0
   81.3641  149.2273   16.6875 C   0  0  0  0  0  0  0  0  0  0  0  0
   83.1473  150.9591   18.7687 C   0  0  0  0  0  0  0  0  0  0  0  0
   82.0968  148.8801   17.9194 N   0  0  0  0  0  0  0  0  0  0  0  0
   82.0504  149.9096   18.9526 C   0  0  0  0  0  0  0  0  0  0  0  0
   83.0734  148.7156   17.6753 H   0  0  0  0  0  0  0  0  0  0  0  0
   80.7972  150.8246   14.8059 C   0  0  0  0  0  0  0  0  0  0  0  0
   81.2574  150.3393   13.7810 O   0  0  0  0  0  0  0  0  0  0  0  0
   79.6586  151.5446   14.7374 O   0  0  0  0  0  0  0  0  0  0  0  0
   79.2954  151.9217   15.5145 H   0  0  0  0  0  0  0  0  0  0  0  0
  7  8  2  0
  8  9  1  0
  8 10  1  0
  9 11  1  0
 10 12  1  0
  1  9  1  0
  1  2  2  0
  1  3  5  0
 11 13  1  0
 12 14  2  0
 12 13  1  0
  2 16  1  0
  2  4  5  0
  3  5  2  0
 16 17  1  0
  4  6  2  0
  4 18  1  0
  5  6  5  0
 18 19  1  0
 19 20  1  0
 19 21  1  0
 20 27  1  0
 20 22  1  0
 21 23  1  0
 27 28  2  0
 27 29  1  0
 22 24  1  0
 23 25  1  0
 24 25  1  0
 10 15  1  0
 29 30  1  0
 24 26  1  0
M  END
> <ID>
EDEL-CRBN-0003_ent

> <Stereoisomer>
enantiomer

> <MW>
376.17

> <HBD>
3

> <HBA>
6

> <RotBonds>
5

> <cLogP>
0.39

> <minimizedAffinity>
-7.79775

> <CNNscore>
0.8158252835

> <CNNaffinity>
6.7766304016

> <CNN_VS>
5.5285463333

> <CNNaffinity_variance>
0.1317393929

> <Compound_Name>
EDEL-CRBN-0003_ent

> <Pose_Rank>
2
$$$$
EDEL-CRBN-0003_ent


 30 32  0  0  0  0  0  0  0  0999 V2000
   84.8471  154.0758   13.3639 C   0  0  0  0  0  0  0  0  0  0  0  0
   83.7300  153.3960   13.8963 C   0  0  0  0  0  0  0  0  0  0  0  0
   85.7888  153.3387   12.6294 C   0  0  0  0  0  0  0  0  0  0  0  0
   83.6018  151.9966   13.7709 C   0  0  0  0  0  0  0  0  0  0  0  0
   85.6514  151.9603   12.4650 C   0  0  0  0  0  0  0  0  0  0  0  0
   84.5725  151.2937   13.0398 C   0  0  0  0  0  0  0  0  0  0  0  0
   84.8445  156.1189   11.2927 O   0  0  0  0  0  0  0  0  0  0  0  0
   85.1402  156.3575   12.4589 C   0  0  0  0  0  0  0  0  0  0  0  0
   85.0645  155.4771   13.5389 N   0  0  0  0  0  0  0  0  0  0  0  0
   85.4954  157.6440   12.7959 N   0  0  0  0  0  0  0  0  0  0  0  0
   85.4269  155.9700   14.8617 C   0  0  0  0  0  0  0  0  0  0  0  0
   85.1609  158.2437   13.9788 C   0  0  0  0  0  0  0  0  0  0  0  0
   84.7941  157.3215   15.1076 C   0  0  0  0  0  0  0  0  0  0  0  0
   85.0865  159.4653   14.0821 O   0  0  0  0  0  0  0  0  0  0  0  0
   86.0219  158.1638   12.1463 H   0  0  0  0  0  0  0  0  0  0  0  0
   82.7091  154.0832   14.5117 O   0  0  0  0  0  0  0  0  0  0  0  0
   82.0551  154.9492   13.5862 C   0  0  0  0  0  0  0  0  0  0  0  0
   82.4500  151.2340   14.4024 C   0  0  0  0  0  0  0  0  0  0  0  0
   82.8937  150.2191   15.3685 N   0  0  0  0  0  0  0  0  0  0  0  0
   82.6701  150.5987   16.7857 C   0  0  0  0  0  0  0  0  0  0  0  0
   82.3802  148.8719   15.1001 C   0  0  0  0  0  0  0  0  0  0  0  0
   81.2820  151.1668   17.1702 C   0  0  0  0  0  0  0  0  0  0  0  0
   80.8638  148.6547   15.1640 C   0  0  0  0  0  0  0  0  0  0  0  0
   80.0860  150.5253   16.5932 N   0  0  0  0  0  0  0  0  0  0  0  0
   80.1868  149.0749   16.4691 C   0  0  0  0  0  0  0  0  0  0  0  0
   79.9304  150.9158   15.6638 H   0  0  0  0  0  0  0  0  0  0  0  0
   83.7872  151.5198   17.2831 C   0  0  0  0  0  0  0  0  0  0  0  0
   83.6272  152.5584   17.9102 O   0  0  0  0  0  0  0  0  0  0  0  0
   85.0402  151.1224   16.9802 O   0  0  0  0  0  0  0  0  0  0  0  0
   85.1770  150.3293   16.5005 H   0  0  0  0  0  0  0  0  0  0  0  0
  7  8  2  0
  8  9  1  0
  8 10  1  0
  9 11  1  0
 10 12  1  0
  1  9  1  0
  1  2  2  0
  1  3  5  0
 11 13  1  0
 12 14  2  0
 12 13  1  0
  2 16  1  0
  2  4  5  0
  3  5  2  0
 16 17  1  0
  4  6  2  0
  4 18  1  0
  5  6  5  0
 18 19  1  0
 19 20  1  0
 19 21  1  0
 20 27  1  0
 20 22  1  0
 21 23  1  0
 27 28  2  0
 27 29  1  0
 22 24  1  0
 23 25  1  0
 24 25  1  0
 10 15  1  0
 29 30  1  0
 24 26  1  0
M  END
> <ID>
EDEL-CRBN-0003_ent

> <Stereoisomer>
enantiomer

> <MW>
376.17

> <HBD>
3

> <HBA>
6

> <RotBonds>
5

> <cLogP>
0.39

> <minimizedAffinity>
-7.46844

> <CNNscore>
0.7536569834

> <CNNaffinity>
6.0255007744

> <CNN_VS>
4.5411605835

> <CNNaffinity_variance>
0.4678134620

> <Compound_Name>
EDEL-CRBN-0003_ent

> <Pose_Rank>
3
$$$$
EDEL-CRBN-0003_ent


 30 32  0  0  0  0  0  0  0  0999 V2000
   84.9728  153.7744   13.4828 C   0  0  0  0  0  0  0  0  0  0  0  0
   84.0476  153.0948   14.3049 C   0  0  0  0  0  0  0  0  0  0  0  0
   85.7415  153.0227   12.5807 C   0  0  0  0  0  0  0  0  0  0  0  0
   83.9546  151.6871   14.2869 C   0  0  0  0  0  0  0  0  0  0  0  0
   85.6293  151.6334   12.5260 C   0  0  0  0  0  0  0  0  0  0  0  0
   84.7509  150.9707   13.3793 C   0  0  0  0  0  0  0  0  0  0  0  0
   85.1477  155.5883   11.2149 O   0  0  0  0  0  0  0  0  0  0  0  0
   85.3332  155.9528   12.3712 C   0  0  0  0  0  0  0  0  0  0  0  0
   85.1640  155.1897   13.5271 N   0  0  0  0  0  0  0  0  0  0  0  0
   85.6475  157.2732   12.6007 N   0  0  0  0  0  0  0  0  0  0  0  0
   85.3999  155.8245   14.8176 C   0  0  0  0  0  0  0  0  0  0  0  0
   85.2016  157.9883   13.6779 C   0  0  0  0  0  0  0  0  0  0  0  0
   84.7384  157.1840   14.8602 C   0  0  0  0  0  0  0  0  0  0  0  0
   85.1102  159.2127   13.6439 O   0  0  0  0  0  0  0  0  0  0  0  0
   86.2282  157.7303   11.9502 H   0  0  0  0  0  0  0  0  0  0  0  0
   83.1756  153.7870   15.1133 O   0  0  0  0  0  0  0  0  0  0  0  0
   82.1506  154.4040   14.3370 C   0  0  0  0  0  0  0  0  0  0  0  0
   83.0233  150.9299   15.2176 C   0  0  0  0  0  0  0  0  0  0  0  0
   81.6159  150.9934   14.7988 N   0  0  0  0  0  0  0  0  0  0  0  0
   81.0303  149.6739   14.4543 C   0  0  0  0  0  0  0  0  0  0  0  0
   80.7475  151.7253   15.7266 C   0  0  0  0  0  0  0  0  0  0  0  0
   81.2687  148.5002   15.4355 C   0  0  0  0  0  0  0  0  0  0  0  0
   80.5780  151.1672   17.1445 C   0  0  0  0  0  0  0  0  0  0  0  0
   81.1614  148.7720   16.8811 N   0  0  0  0  0  0  0  0  0  0  0  0
   80.1061  149.7156   17.2351 C   0  0  0  0  0  0  0  0  0  0  0  0
   82.0517  149.1525   17.2020 H   0  0  0  0  0  0  0  0  0  0  0  0
   81.4073  149.2694   13.0267 C   0  0  0  0  0  0  0  0  0  0  0  0
   80.8542  149.6590   12.0069 O   0  0  0  0  0  0  0  0  0  0  0  0
   82.4375  148.4046   12.9252 O   0  0  0  0  0  0  0  0  0  0  0  0
   82.8699  148.0984   13.6980 H   0  0  0  0  0  0  0  0  0  0  0  0
  7  8  2  0
  8  9  1  0
  8 10  1  0
  9 11  1  0
 10 12  1  0
  1  9  1  0
  1  2  2  0
  1  3  5  0
 11 13  1  0
 12 14  2  0
 12 13  1  0
  2 16  1  0
  2  4  5  0
  3  5  2  0
 16 17  1  0
  4  6  2  0
  4 18  1  0
  5  6  5  0
 18 19  1  0
 19 20  1  0
 19 21  1  0
 20 27  1  0
 20 22  1  0
 21 23  1  0
 27 28  2  0
 27 29  1  0
 22 24  1  0
 23 25  1  0
 24 25  1  0
 10 15  1  0
 29 30  1  0
 24 26  1  0
M  END
> <ID>
EDEL-CRBN-0003_ent

> <Stereoisomer>
enantiomer

> <MW>
376.17

> <HBD>
3

> <HBA>
6

> <RotBonds>
5

> <cLogP>
0.39

> <minimizedAffinity>
-7.66539

> <CNNscore>
0.6955469847

> <CNNaffinity>
6.0994734764

> <CNN_VS>
4.2424702644

> <CNNaffinity_variance>
0.1694983244

> <Compound_Name>
EDEL-CRBN-0003_ent

> <Pose_Rank>
4
$$$$
EDEL-CRBN-0003_ent


 30 32  0  0  0  0  0  0  0  0999 V2000
   85.2728  153.5795   13.1157 C   0  0  0  0  0  0  0  0  0  0  0  0
   84.0588  152.8586   13.1166 C   0  0  0  0  0  0  0  0  0  0  0  0
   86.4632  152.8812   12.8611 C   0  0  0  0  0  0  0  0  0  0  0  0
   84.0441  151.4574   12.9524 C   0  0  0  0  0  0  0  0  0  0  0  0
   86.4564  151.5012   12.6576 C   0  0  0  0  0  0  0  0  0  0  0  0
   85.2582  150.7942   12.7133 C   0  0  0  0  0  0  0  0  0  0  0  0
   85.6924  155.6826   11.1498 O   0  0  0  0  0  0  0  0  0  0  0  0
   85.6510  155.9013   12.3560 C   0  0  0  0  0  0  0  0  0  0  0  0
   85.3464  154.9848   13.3631 N   0  0  0  0  0  0  0  0  0  0  0  0
   85.8213  157.1949   12.7946 N   0  0  0  0  0  0  0  0  0  0  0  0
   85.3114  155.4561   14.7418 C   0  0  0  0  0  0  0  0  0  0  0  0
   85.1465  157.7373   13.8535 C   0  0  0  0  0  0  0  0  0  0  0  0
   84.5516  156.7609   14.8292 C   0  0  0  0  0  0  0  0  0  0  0  0
   84.9700  158.9489   13.9511 O   0  0  0  0  0  0  0  0  0  0  0  0
   86.4677  157.7639   12.3175 H   0  0  0  0  0  0  0  0  0  0  0  0
   82.8500  153.5059   13.2298 O   0  0  0  0  0  0  0  0  0  0  0  0
   82.4198  153.5358   14.5892 C   0  0  0  0  0  0  0  0  0  0  0  0
   82.7590  150.6514   13.0279 C   0  0  0  0  0  0  0  0  0  0  0  0
   82.6548  149.8496   14.2554 N   0  0  0  0  0  0  0  0  0  0  0  0
   81.2661  149.4567   14.6016 C   0  0  0  0  0  0  0  0  0  0  0  0
   83.5513  148.6896   14.2907 C   0  0  0  0  0  0  0  0  0  0  0  0
   80.3796  148.8714   13.4751 C   0  0  0  0  0  0  0  0  0  0  0  0
   83.3494  147.5927   13.2388 C   0  0  0  0  0  0  0  0  0  0  0  0
   80.9912  147.9076   12.5413 N   0  0  0  0  0  0  0  0  0  0  0  0
   81.9441  146.9946   13.1638 C   0  0  0  0  0  0  0  0  0  0  0  0
   81.4783  148.4316   11.8142 H   0  0  0  0  0  0  0  0  0  0  0  0
   80.5426  150.5987   15.3200 C   0  0  0  0  0  0  0  0  0  0  0  0
   80.7782  150.9874   16.4562 O   0  0  0  0  0  0  0  0  0  0  0  0
   79.5651  151.1991   14.6103 O   0  0  0  0  0  0  0  0  0  0  0  0
   79.3743  150.9113   13.7392 H   0  0  0  0  0  0  0  0  0  0  0  0
  7  8  2  0
  8  9  1  0
  8 10  1  0
  9 11  1  0
 10 12  1  0
  1  9  1  0
  1  2  2  0
  1  3  5  0
 11 13  1  0
 12 14  2  0
 12 13  1  0
  2 16  1  0
  2  4  5  0
  3  5  2  0
 16 17  1  0
  4  6  2  0
  4 18  1  0
  5  6  5  0
 18 19  1  0
 19 20  1  0
 19 21  1  0
 20 27  1  0
 20 22  1  0
 21 23  1  0
 27 28  2  0
 27 29  1  0
 22 24  1  0
 23 25  1  0
 24 25  1  0
 10 15  1  0
 29 30  1  0
 24 26  1  0
M  END
> <ID>
EDEL-CRBN-0003_ent

> <Stereoisomer>
enantiomer

> <MW>
376.17

> <HBD>
3

> <HBA>
6

> <RotBonds>
5

> <cLogP>
0.39

> <minimizedAffinity>
-7.56178

> <CNNscore>
0.6833053827

> <CNNaffinity>
5.8005185127

> <CNN_VS>
3.9635255337

> <CNNaffinity_variance>
0.1734048277

> <Compound_Name>
EDEL-CRBN-0003_ent

> <Pose_Rank>
5
$$$$
EDEL-CRBN-0003


 30 32  0  0  0  0  0  0  0  0999 V2000
   83.9313  154.5878   13.9852 C   0  0  0  0  0  0  0  0  0  0  0  0
   84.7506  153.4759   13.6870 C   0  0  0  0  0  0  0  0  0  0  0  0
   82.5994  154.3440   14.3458 C   0  0  0  0  0  0  0  0  0  0  0  0
   84.2257  152.1691   13.6272 C   0  0  0  0  0  0  0  0  0  0  0  0
   82.0791  153.0480   14.3420 C   0  0  0  0  0  0  0  0  0  0  0  0
   82.8796  151.9717   13.9675 C   0  0  0  0  0  0  0  0  0  0  0  0
   84.0975  156.2417   11.5995 O   0  0  0  0  0  0  0  0  0  0  0  0
   84.5258  156.6163   12.6880 C   0  0  0  0  0  0  0  0  0  0  0  0
   84.4246  155.9296   13.8964 N   0  0  0  0  0  0  0  0  0  0  0  0
   85.0993  157.8640   12.7803 N   0  0  0  0  0  0  0  0  0  0  0  0
   85.1490  156.4793   15.0408 C   0  0  0  0  0  0  0  0  0  0  0  0
   85.0864  158.6487   13.9023 C   0  0  0  0  0  0  0  0  0  0  0  0
   84.8171  157.9456   15.2035 C   0  0  0  0  0  0  0  0  0  0  0  0
   85.2115  159.8686   13.8288 O   0  0  0  0  0  0  0  0  0  0  0  0
   85.5520  158.2183   11.9811 H   0  0  0  0  0  0  0  0  0  0  0  0
   86.1034  153.6365   13.4772 O   0  0  0  0  0  0  0  0  0  0  0  0
   86.3902  153.6057   12.0771 C   0  0  0  0  0  0  0  0  0  0  0  0
   85.0703  150.9856   13.1990 C   0  0  0  0  0  0  0  0  0  0  0  0
   85.2262  149.9543   14.2354 N   0  0  0  0  0  0  0  0  0  0  0  0
   85.4983  148.6180   13.6459 C   0  0  0  0  0  0  0  0  0  0  0  0
   86.1160  150.3131   15.3476 C   0  0  0  0  0  0  0  0  0  0  0  0
   86.9588  148.3284   13.2163 C   0  0  0  0  0  0  0  0  0  0  0  0
   87.5834  150.5549   14.9912 C   0  0  0  0  0  0  0  0  0  0  0  0
   87.8961  148.0986   14.3146 N   0  0  0  0  0  0  0  0  0  0  0  0
   88.4468  149.2961   14.9344 C   0  0  0  0  0  0  0  0  0  0  0  0
   88.6739  147.5467   13.9529 H   0  0  0  0  0  0  0  0  0  0  0  0
   84.9572  147.4931   14.5462 C   0  0  0  0  0  0  0  0  0  0  0  0
   84.0231  147.5179   15.3332 O   0  0  0  0  0  0  0  0  0  0  0  0
   85.6148  146.3221   14.3552 O   0  0  0  0  0  0  0  0  0  0  0  0
   86.3341  146.2811   13.7561 H   0  0  0  0  0  0  0  0  0  0  0  0
  7  8  2  0
  8  9  1  0
  8 10  1  0
  9 11  1  0
 10 12  1  0
  1  9  1  0
  1  2  2  0
  1  3  5  0
 11 13  1  0
 12 14  2  0
 12 13  1  0
  2 16  1  0
  2  4  5  0
  3  5  2  0
 16 17  1  0
  4  6  2  0
  4 18  1  0
  5  6  5  0
 18 19  1  0
 19 20  1  0
 19 21  1  0
 20 27  1  0
 20 22  1  0
 21 23  1  0
 27 28  2  0
 27 29  1  0
 22 24  1  0
 23 25  1  0
 24 25  1  0
 10 15  1  0
 29 30  1  0
 24 26  1  0
M  END
> <ID>
EDEL-CRBN-0003

> <Stereoisomer>
original

> <MW>
376.17

> <HBD>
3

> <HBA>
6

> <RotBonds>
5

> <cLogP>
0.39

> <minimizedAffinity>
-7.34638

> <CNNscore>
0.8932448030

> <CNNaffinity>
6.3879694939

> <CNN_VS>
5.7060203552

> <CNNaffinity_variance>
0.2284001708

> <Compound_Name>
EDEL-CRBN-0003

> <Pose_Rank>
1
$$$$
EDEL-CRBN-0003


 30 32  0  0  0  0  0  0  0  0999 V2000
   83.9437  154.7805   13.9761 C   0  0  0  0  0  0  0  0  0  0  0  0
   84.7416  153.6679   13.6269 C   0  0  0  0  0  0  0  0  0  0  0  0
   82.6161  154.5430   14.3560 C   0  0  0  0  0  0  0  0  0  0  0  0
   84.1977  152.3706   13.5371 C   0  0  0  0  0  0  0  0  0  0  0  0
   82.0780  153.2547   14.3224 C   0  0  0  0  0  0  0  0  0  0  0  0
   82.8561  152.1803   13.8984 C   0  0  0  0  0  0  0  0  0  0  0  0
   84.1222  156.4917   11.6320 O   0  0  0  0  0  0  0  0  0  0  0  0
   84.5591  156.8334   12.7279 C   0  0  0  0  0  0  0  0  0  0  0  0
   84.4535  156.1179   13.9192 N   0  0  0  0  0  0  0  0  0  0  0  0
   85.1485  158.0711   12.8494 N   0  0  0  0  0  0  0  0  0  0  0  0
   85.1888  156.6295   15.0742 C   0  0  0  0  0  0  0  0  0  0  0  0
   85.1495  158.8275   13.9907 C   0  0  0  0  0  0  0  0  0  0  0  0
   84.8760  158.0952   15.2749 C   0  0  0  0  0  0  0  0  0  0  0  0
   85.2896  160.0472   13.9474 O   0  0  0  0  0  0  0  0  0  0  0  0
   85.6027  158.4397   12.0575 H   0  0  0  0  0  0  0  0  0  0  0  0
   86.0921  153.8172   13.3948 O   0  0  0  0  0  0  0  0  0  0  0  0
   86.3526  153.8080   11.9892 C   0  0  0  0  0  0  0  0  0  0  0  0
   85.0173  151.1902   13.0552 C   0  0  0  0  0  0  0  0  0  0  0  0
   85.5522  150.3503   14.1371 N   0  0  0  0  0  0  0  0  0  0  0  0
   85.9090  151.1551   15.3338 C   0  0  0  0  0  0  0  0  0  0  0  0
   84.7727  149.1418   14.4360 C   0  0  0  0  0  0  0  0  0  0  0  0
   84.7491  151.5444   16.2848 C   0  0  0  0  0  0  0  0  0  0  0  0
   83.3498  149.3627   14.9508 C   0  0  0  0  0  0  0  0  0  0  0  0
   84.2236  150.4533   17.1040 N   0  0  0  0  0  0  0  0  0  0  0  0
   83.2400  149.5962   16.4563 C   0  0  0  0  0  0  0  0  0  0  0  0
   83.7871  150.8632   17.9297 H   0  0  0  0  0  0  0  0  0  0  0  0
   87.0655  150.5061   16.1150 C   0  0  0  0  0  0  0  0  0  0  0  0
   88.1759  150.9525   16.3604 O   0  0  0  0  0  0  0  0  0  0  0  0
   86.7258  149.2945   16.6219 O   0  0  0  0  0  0  0  0  0  0  0  0
   85.8792  148.9337   16.4458 H   0  0  0  0  0  0  0  0  0  0  0  0
  7  8  2  0
  8  9  1  0
  8 10  1  0
  9 11  1  0
 10 12  1  0
  1  9  1  0
  1  2  2  0
  1  3  5  0
 11 13  1  0
 12 14  2  0
 12 13  1  0
  2 16  1  0
  2  4  5  0
  3  5  2  0
 16 17  1  0
  4  6  2  0
  4 18  1  0
  5  6  5  0
 18 19  1  0
 19 20  1  0
 19 21  1  0
 20 27  1  0
 20 22  1  0
 21 23  1  0
 27 28  2  0
 27 29  1  0
 22 24  1  0
 23 25  1  0
 24 25  1  0
 10 15  1  0
 29 30  1  0
 24 26  1  0
M  END
> <ID>
EDEL-CRBN-0003

> <Stereoisomer>
original

> <MW>
376.17

> <HBD>
3

> <HBA>
6

> <RotBonds>
5

> <cLogP>
0.39

> <minimizedAffinity>
-7.94430

> <CNNscore>
0.8629333973

> <CNNaffinity>
6.1061692238

> <CNN_VS>
5.2692174911

> <CNNaffinity_variance>
0.5047476888

> <Compound_Name>
EDEL-CRBN-0003

> <Pose_Rank>
2
$$$$
EDEL-CRBN-0003


 30 32  0  0  0  0  0  0  0  0999 V2000
   85.0107  153.9245   13.5864 C   0  0  0  0  0  0  0  0  0  0  0  0
   83.8275  153.3262   14.0746 C   0  0  0  0  0  0  0  0  0  0  0  0
   86.0209  153.0826   13.1027 C   0  0  0  0  0  0  0  0  0  0  0  0
   83.7048  151.9272   14.1945 C   0  0  0  0  0  0  0  0  0  0  0  0
   85.8912  151.6936   13.1666 C   0  0  0  0  0  0  0  0  0  0  0  0
   84.7514  151.1203   13.7251 C   0  0  0  0  0  0  0  0  0  0  0  0
   85.5812  155.6518   11.3179 O   0  0  0  0  0  0  0  0  0  0  0  0
   85.5360  156.0759   12.4698 C   0  0  0  0  0  0  0  0  0  0  0  0
   85.1981  155.3445   13.6069 N   0  0  0  0  0  0  0  0  0  0  0  0
   85.7585  157.4158   12.6914 N   0  0  0  0  0  0  0  0  0  0  0  0
   85.3681  156.0030   14.9007 C   0  0  0  0  0  0  0  0  0  0  0  0
   85.2066  158.1409   13.7134 C   0  0  0  0  0  0  0  0  0  0  0  0
   84.6876  157.3532   14.8840 C   0  0  0  0  0  0  0  0  0  0  0  0
   85.0775  159.3600   13.6333 O   0  0  0  0  0  0  0  0  0  0  0  0
   86.3583  157.8876   12.0694 H   0  0  0  0  0  0  0  0  0  0  0  0
   82.7397  154.0996   14.4190 O   0  0  0  0  0  0  0  0  0  0  0  0
   81.5829  153.2755   14.5810 C   0  0  0  0  0  0  0  0  0  0  0  0
   82.4853  151.2808   14.8207 C   0  0  0  0  0  0  0  0  0  0  0  0
   82.7635  150.5649   16.0746 N   0  0  0  0  0  0  0  0  0  0  0  0
   81.9002  151.0433   17.1850 C   0  0  0  0  0  0  0  0  0  0  0  0
   82.8380  149.1027   15.9581 C   0  0  0  0  0  0  0  0  0  0  0  0
   80.4600  150.4743   17.2446 C   0  0  0  0  0  0  0  0  0  0  0  0
   81.5555  148.3908   15.5254 C   0  0  0  0  0  0  0  0  0  0  0  0
   80.3582  149.0846   17.6873 N   0  0  0  0  0  0  0  0  0  0  0  0
   80.5806  148.0776   16.6588 C   0  0  0  0  0  0  0  0  0  0  0  0
   79.4218  148.9440   18.0666 H   0  0  0  0  0  0  0  0  0  0  0  0
   82.6075  150.8915   18.5435 C   0  0  0  0  0  0  0  0  0  0  0  0
   82.6031  149.9426   19.3129 O   0  0  0  0  0  0  0  0  0  0  0  0
   83.3687  151.9721   18.8489 O   0  0  0  0  0  0  0  0  0  0  0  0
   83.3865  152.7106   18.2726 H   0  0  0  0  0  0  0  0  0  0  0  0
  7  8  2  0
  8  9  1  0
  8 10  1  0
  9 11  1  0
 10 12  1  0
  1  9  1  0
  1  2  2  0
  1  3  5  0
 11 13  1  0
 12 14  2  0
 12 13  1  0
  2 16  1  0
  2  4  5  0
  3  5  2  0
 16 17  1  0
  4  6  2  0
  4 18  1  0
  5  6  5  0
 18 19  1  0
 19 20  1  0
 19 21  1  0
 20 27  1  0
 20 22  1  0
 21 23  1  0
 27 28  2  0
 27 29  1  0
 22 24  1  0
 23 25  1  0
 24 25  1  0
 10 15  1  0
 29 30  1  0
 24 26  1  0
M  END
> <ID>
EDEL-CRBN-0003

> <Stereoisomer>
original

> <MW>
376.17

> <HBD>
3

> <HBA>
6

> <RotBonds>
5

> <cLogP>
0.39

> <minimizedAffinity>
-7.55258

> <CNNscore>
0.7447149754

> <CNNaffinity>
6.4274563789

> <CNN_VS>
4.7866230011

> <CNNaffinity_variance>
0.0879321620

> <Compound_Name>
EDEL-CRBN-0003

> <Pose_Rank>
3
$$$$
EDEL-CRBN-0003


 30 32  0  0  0  0  0  0  0  0999 V2000
   85.1334  153.8653   13.5660 C   0  0  0  0  0  0  0  0  0  0  0  0
   84.1658  153.2061   14.3570 C   0  0  0  0  0  0  0  0  0  0  0  0
   85.9782  153.0790   12.7715 C   0  0  0  0  0  0  0  0  0  0  0  0
   84.1241  151.8003   14.4503 C   0  0  0  0  0  0  0  0  0  0  0  0
   85.9129  151.6846   12.8138 C   0  0  0  0  0  0  0  0  0  0  0  0
   85.0069  151.0501   13.6600 C   0  0  0  0  0  0  0  0  0  0  0  0
   85.7314  155.6037   11.3133 O   0  0  0  0  0  0  0  0  0  0  0  0
   85.6335  156.0288   12.4614 C   0  0  0  0  0  0  0  0  0  0  0  0
   85.2779  155.2902   13.5884 N   0  0  0  0  0  0  0  0  0  0  0  0
   85.8084  157.3752   12.6864 N   0  0  0  0  0  0  0  0  0  0  0  0
   85.3832  155.9563   14.8853 C   0  0  0  0  0  0  0  0  0  0  0  0
   85.2001  158.0858   13.6863 C   0  0  0  0  0  0  0  0  0  0  0  0
   84.6641  157.2856   14.8406 C   0  0  0  0  0  0  0  0  0  0  0  0
   85.0379  159.3004   13.5977 O   0  0  0  0  0  0  0  0  0  0  0  0
   86.4154  157.8632   12.0842 H   0  0  0  0  0  0  0  0  0  0  0  0
   83.2075  153.9252   15.0387 O   0  0  0  0  0  0  0  0  0  0  0  0
   82.1961  154.3757   14.1345 C   0  0  0  0  0  0  0  0  0  0  0  0
   83.1641  151.0875   15.3817 C   0  0  0  0  0  0  0  0  0  0  0  0
   81.8595  150.7797   14.7772 N   0  0  0  0  0  0  0  0  0  0  0  0
   81.7222  149.3325   14.4711 C   0  0  0  0  0  0  0  0  0  0  0  0
   80.6983  151.3620   15.4626 C   0  0  0  0  0  0  0  0  0  0  0  0
   81.3333  148.4034   15.6488 C   0  0  0  0  0  0  0  0  0  0  0  0
   80.4463  150.8854   16.8937 C   0  0  0  0  0  0  0  0  0  0  0  0
   79.9414  148.5020   16.0854 N   0  0  0  0  0  0  0  0  0  0  0  0
   79.6458  149.5896   17.0081 C   0  0  0  0  0  0  0  0  0  0  0  0
   79.6937  147.6254   16.5442 H   0  0  0  0  0  0  0  0  0  0  0  0
   80.7955  149.1057   13.2634 C   0  0  0  0  0  0  0  0  0  0  0  0
   79.7032  149.5989   13.0267 O   0  0  0  0  0  0  0  0  0  0  0  0
   81.3463  148.2750   12.3431 O   0  0  0  0  0  0  0  0  0  0  0  0
   82.1833  147.8860   12.5046 H   0  0  0  0  0  0  0  0  0  0  0  0
  7  8  2  0
  8  9  1  0
  8 10  1  0
  9 11  1  0
 10 12  1  0
  1  9  1  0
  1  2  2  0
  1  3  5  0
 11 13  1  0
 12 14  2  0
 12 13  1  0
  2 16  1  0
  2  4  5  0
  3  5  2  0
 16 17  1  0
  4  6  2  0
  4 18  1  0
  5  6  5  0
 18 19  1  0
 19 20  1  0
 19 21  1  0
 20 27  1  0
 20 22  1  0
 21 23  1  0
 27 28  2  0
 27 29  1  0
 22 24  1  0
 23 25  1  0
 24 25  1  0
 10 15  1  0
 29 30  1  0
 24 26  1  0
M  END
> <ID>
EDEL-CRBN-0003

> <Stereoisomer>
original

> <MW>
376.17

> <HBD>
3

> <HBA>
6

> <RotBonds>
5

> <cLogP>
0.39

> <minimizedAffinity>
-7.60299

> <CNNscore>
0.6756094098

> <CNNaffinity>
6.1429672241

> <CNN_VS>
4.1502466202

> <CNNaffinity_variance>
0.0741288438

> <Compound_Name>
EDEL-CRBN-0003

> <Pose_Rank>
4
$$$$
EDEL-CRBN-0003


 30 32  0  0  0  0  0  0  0  0999 V2000
   85.4962  153.3224   13.7973 C   0  0  0  0  0  0  0  0  0  0  0  0
   84.6338  152.6716   14.7078 C   0  0  0  0  0  0  0  0  0  0  0  0
   86.3701  152.5308   13.0404 C   0  0  0  0  0  0  0  0  0  0  0  0
   84.7270  151.2859   14.9487 C   0  0  0  0  0  0  0  0  0  0  0  0
   86.4364  151.1489   13.2310 C   0  0  0  0  0  0  0  0  0  0  0  0
   85.6356  150.5338   14.1902 C   0  0  0  0  0  0  0  0  0  0  0  0
   86.2619  154.8569   11.4492 O   0  0  0  0  0  0  0  0  0  0  0  0
   85.9594  155.3925   12.5123 C   0  0  0  0  0  0  0  0  0  0  0  0
   85.5091  154.7485   13.6632 N   0  0  0  0  0  0  0  0  0  0  0  0
   85.9795  156.7664   12.5911 N   0  0  0  0  0  0  0  0  0  0  0  0
   85.3636  155.5599   14.8702 C   0  0  0  0  0  0  0  0  0  0  0  0
   85.1705  157.5143   13.4041 C   0  0  0  0  0  0  0  0  0  0  0  0
   84.5439  156.7934   14.5651 C   0  0  0  0  0  0  0  0  0  0  0  0
   84.9162  158.6880   13.1454 O   0  0  0  0  0  0  0  0  0  0  0  0
   86.6227  157.2466   12.0210 H   0  0  0  0  0  0  0  0  0  0  0  0
   83.6477  153.3745   15.3663 O   0  0  0  0  0  0  0  0  0  0  0  0
   82.5604  153.6439   14.4782 C   0  0  0  0  0  0  0  0  0  0  0  0
   83.8840  150.5979   16.0039 C   0  0  0  0  0  0  0  0  0  0  0  0
   82.4418  150.8567   15.8816 N   0  0  0  0  0  0  0  0  0  0  0  0
   81.7189  149.6889   15.3152 C   0  0  0  0  0  0  0  0  0  0  0  0
   81.8063  151.4377   17.0715 C   0  0  0  0  0  0  0  0  0  0  0  0
   81.3731  148.5393   16.2951 C   0  0  0  0  0  0  0  0  0  0  0  0
   81.8146  150.5751   18.3342 C   0  0  0  0  0  0  0  0  0  0  0  0
   80.2901  148.8272   17.2342 N   0  0  0  0  0  0  0  0  0  0  0  0
   80.6726  149.5653   18.4302 C   0  0  0  0  0  0  0  0  0  0  0  0
   79.8867  147.9382   17.5299 H   0  0  0  0  0  0  0  0  0  0  0  0
   80.4727  150.1347   14.5297 C   0  0  0  0  0  0  0  0  0  0  0  0
   80.1314  149.8406   13.3941 O   0  0  0  0  0  0  0  0  0  0  0  0
   79.6511  150.9178   15.2726 O   0  0  0  0  0  0  0  0  0  0  0  0
   79.8936  151.1553   16.1459 H   0  0  0  0  0  0  0  0  0  0  0  0
  7  8  2  0
  8  9  1  0
  8 10  1  0
  9 11  1  0
 10 12  1  0
  1  9  1  0
  1  2  2  0
  1  3  5  0
 11 13  1  0
 12 14  2  0
 12 13  1  0
  2 16  1  0
  2  4  5  0
  3  5  2  0
 16 17  1  0
  4  6  2  0
  4 18  1  0
  5  6  5  0
 18 19  1  0
 19 20  1  0
 19 21  1  0
 20 27  1  0
 20 22  1  0
 21 23  1  0
 27 28  2  0
 27 29  1  0
 22 24  1  0
 23 25  1  0
 24 25  1  0
 10 15  1  0
 29 30  1  0
 24 26  1  0
M  END
> <ID>
EDEL-CRBN-0003

> <Stereoisomer>
original

> <MW>
376.17

> <HBD>
3

> <HBA>
6

> <RotBonds>
5

> <cLogP>
0.39

> <minimizedAffinity>
-7.37112

> <CNNscore>
0.6680042744

> <CNNaffinity>
6.2182917595

> <CNN_VS>
4.1538453102

> <CNNaffinity_variance>
0.0650532767

> <Compound_Name>
EDEL-CRBN-0003

> <Pose_Rank>
5
$$$$
EDEL-CRBN-0004_ent


 32 34  0  0  0  0  0  0  0  0999 V2000
   85.0415  154.0432   13.2772 C   0  0  0  0  0  0  0  0  0  0  0  0
   84.1478  153.1453   13.9034 C   0  0  0  0  0  0  0  0  0  0  0  0
   86.0577  153.5011   12.4699 C   0  0  0  0  0  0  0  0  0  0  0  0
   84.2921  151.7473   13.7713 C   0  0  0  0  0  0  0  0  0  0  0  0
   86.1827  152.1206   12.2947 C   0  0  0  0  0  0  0  0  0  0  0  0
   85.3227  151.2507   12.9613 C   0  0  0  0  0  0  0  0  0  0  0  0
   84.4961  155.9337   11.2120 O   0  0  0  0  0  0  0  0  0  0  0  0
   84.6689  156.2886   12.3747 C   0  0  0  0  0  0  0  0  0  0  0  0
   84.9048  155.4555   13.4658 N   0  0  0  0  0  0  0  0  0  0  0  0
   84.5984  157.6296   12.6780 N   0  0  0  0  0  0  0  0  0  0  0  0
   84.6779  155.9869   14.7998 C   0  0  0  0  0  0  0  0  0  0  0  0
   84.9834  158.2309   13.8452 C   0  0  0  0  0  0  0  0  0  0  0  0
   85.3971  157.3098   14.9568 C   0  0  0  0  0  0  0  0  0  0  0  0
   85.0510  159.4530   13.9462 O   0  0  0  0  0  0  0  0  0  0  0  0
   84.2316  158.2192   11.9801 H   0  0  0  0  0  0  0  0  0  0  0  0
   83.1011  153.6060   14.6707 O   0  0  0  0  0  0  0  0  0  0  0  0
   81.8755  152.9808   14.2905 C   0  0  0  0  0  0  0  0  0  0  0  0
   86.9761  154.3041   11.8364 O   0  0  0  0  0  0  0  0  0  0  0  0
   87.7795  153.5153   10.9537 C   0  0  0  0  0  0  0  0  0  0  0  0
   83.3637  150.7863   14.4859 C   0  0  0  0  0  0  0  0  0  0  0  0
   83.9872  150.0892   15.6232 N   0  0  0  0  0  0  0  0  0  0  0  0
   83.5274  150.4740   16.9813 C   0  0  0  0  0  0  0  0  0  0  0  0
   84.0673  148.6423   15.4239 C   0  0  0  0  0  0  0  0  0  0  0  0
   81.9945  150.4476   17.2312 C   0  0  0  0  0  0  0  0  0  0  0  0
   82.9893  147.7385   16.0295 C   0  0  0  0  0  0  0  0  0  0  0  0
   81.3318  149.1357   17.2413 N   0  0  0  0  0  0  0  0  0  0  0  0
   81.5780  148.3140   16.0596 C   0  0  0  0  0  0  0  0  0  0  0  0
   80.3262  149.2892   17.3167 H   0  0  0  0  0  0  0  0  0  0  0  0
   84.0752  151.8513   17.3760 C   0  0  0  0  0  0  0  0  0  0  0  0
   85.1583  152.3271   17.0673 O   0  0  0  0  0  0  0  0  0  0  0  0
   83.2089  152.5873   18.1084 O   0  0  0  0  0  0  0  0  0  0  0  0
   82.3769  152.2296   18.3488 H   0  0  0  0  0  0  0  0  0  0  0  0
  7  8  2  0
  8  9  1  0
  8 10  1  0
  9 11  1  0
 10 12  1  0
  1  9  1  0
  1  2  2  0
  1  3  5  0
 11 13  1  0
 12 14  2  0
 12 13  1  0
  2 16  1  0
  2  4  5  0
  3 18  1  0
  3  5  2  0
 16 17  1  0
  4  6  2  0
  4 20  1  0
 18 19  1  0
  5  6  5  0
 20 21  1  0
 21 22  1  0
 21 23  1  0
 22 29  1  0
 22 24  1  0
 23 25  1  0
 29 30  2  0
 29 31  1  0
 24 26  1  0
 25 27  1  0
 26 27  1  0
 10 15  1  0
 31 32  1  0
 26 28  1  0
M  END
> <ID>
EDEL-CRBN-0004_ent

> <Stereoisomer>
enantiomer

> <MW>
406.19

> <HBD>
3

> <HBA>
7

> <RotBonds>
6

> <cLogP>
0.4

> <minimizedAffinity>
-6.97651

> <CNNscore>
0.7617416382

> <CNNaffinity>
5.4753279686

> <CNN_VS>
4.1707854271

> <CNNaffinity_variance>
1.5926207304

> <Compound_Name>
EDEL-CRBN-0004_ent

> <Pose_Rank>
1
$$$$
EDEL-CRBN-0004_ent


 32 34  0  0  0  0  0  0  0  0999 V2000
   84.6682  153.9461   13.1970 C   0  0  0  0  0  0  0  0  0  0  0  0
   85.8222  153.2808   12.7250 C   0  0  0  0  0  0  0  0  0  0  0  0
   83.5365  153.1655   13.4940 C   0  0  0  0  0  0  0  0  0  0  0  0
   85.8332  151.8863   12.5064 C   0  0  0  0  0  0  0  0  0  0  0  0
   83.5502  151.7787   13.3251 C   0  0  0  0  0  0  0  0  0  0  0  0
   84.6809  151.1483   12.8106 C   0  0  0  0  0  0  0  0  0  0  0  0
   84.4785  155.8509   11.0823 O   0  0  0  0  0  0  0  0  0  0  0  0
   84.5997  156.2039   12.2521 C   0  0  0  0  0  0  0  0  0  0  0  0
   84.6654  155.3676   13.3641 N   0  0  0  0  0  0  0  0  0  0  0  0
   84.6466  157.5494   12.5390 N   0  0  0  0  0  0  0  0  0  0  0  0
   84.3957  155.9400   14.6730 C   0  0  0  0  0  0  0  0  0  0  0  0
   85.0037  158.1256   13.7276 C   0  0  0  0  0  0  0  0  0  0  0  0
   85.2349  157.1839   14.8743 C   0  0  0  0  0  0  0  0  0  0  0  0
   85.1903  159.3357   13.8244 O   0  0  0  0  0  0  0  0  0  0  0  0
   84.3964  158.1630   11.8109 H   0  0  0  0  0  0  0  0  0  0  0  0
   86.9814  153.9747   12.4579 O   0  0  0  0  0  0  0  0  0  0  0  0
   87.3096  153.9058   11.0705 C   0  0  0  0  0  0  0  0  0  0  0  0
   82.3697  153.7356   13.9447 O   0  0  0  0  0  0  0  0  0  0  0  0
   81.8081  152.9286   14.9840 C   0  0  0  0  0  0  0  0  0  0  0  0
   87.0553  151.1833   11.9511 C   0  0  0  0  0  0  0  0  0  0  0  0
   87.5344  150.0700   12.7874 N   0  0  0  0  0  0  0  0  0  0  0  0
   88.2156  148.9504   12.0901 C   0  0  0  0  0  0  0  0  0  0  0  0
   88.2405  150.5260   13.9845 C   0  0  0  0  0  0  0  0  0  0  0  0
   89.3869  149.3295   11.1427 C   0  0  0  0  0  0  0  0  0  0  0  0
   89.7704  150.5963   13.9749 C   0  0  0  0  0  0  0  0  0  0  0  0
   90.6124  149.8585   11.7580 N   0  0  0  0  0  0  0  0  0  0  0  0
   90.4100  150.9965   12.6503 C   0  0  0  0  0  0  0  0  0  0  0  0
   91.2420  150.1500   11.0103 H   0  0  0  0  0  0  0  0  0  0  0  0
   87.2070  148.0895   11.3193 C   0  0  0  0  0  0  0  0  0  0  0  0
   86.3758  147.3291   11.7944 O   0  0  0  0  0  0  0  0  0  0  0  0
   87.2627  148.2620    9.9792 O   0  0  0  0  0  0  0  0  0  0  0  0
   87.8970  148.8431    9.6076 H   0  0  0  0  0  0  0  0  0  0  0  0
  7  8  2  0
  8  9  1  0
  8 10  1  0
  9 11  1  0
 10 12  1  0
  1  9  1  0
  1  2  2  0
  1  3  5  0
 11 13  1  0
 12 14  2  0
 12 13  1  0
  2 16  1  0
  2  4  5  0
  3 18  1  0
  3  5  2  0
 16 17  1  0
  4  6  2  0
  4 20  1  0
 18 19  1  0
  5  6  5  0
 20 21  1  0
 21 22  1  0
 21 23  1  0
 22 29  1  0
 22 24  1  0
 23 25  1  0
 29 30  2  0
 29 31  1  0
 24 26  1  0
 25 27  1  0
 26 27  1  0
 10 15  1  0
 31 32  1  0
 26 28  1  0
M  END
> <ID>
EDEL-CRBN-0004_ent

> <Stereoisomer>
enantiomer

> <MW>
406.19

> <HBD>
3

> <HBA>
7

> <RotBonds>
6

> <cLogP>
0.4

> <minimizedAffinity>
-6.68017

> <CNNscore>
0.6590298414

> <CNNaffinity>
5.6928901672

> <CNN_VS>
3.7517845631

> <CNNaffinity_variance>
0.5326794982

> <Compound_Name>
EDEL-CRBN-0004_ent

> <Pose_Rank>
2
$$$$
EDEL-CRBN-0004_ent


 32 34  0  0  0  0  0  0  0  0999 V2000
   85.0277  153.9589   13.2633 C   0  0  0  0  0  0  0  0  0  0  0  0
   84.1545  153.0631   13.9207 C   0  0  0  0  0  0  0  0  0  0  0  0
   86.0188  153.4140   12.4274 C   0  0  0  0  0  0  0  0  0  0  0  0
   84.2958  151.6646   13.7902 C   0  0  0  0  0  0  0  0  0  0  0  0
   86.1396  152.0329   12.2544 C   0  0  0  0  0  0  0  0  0  0  0  0
   85.3013  151.1652   12.9509 C   0  0  0  0  0  0  0  0  0  0  0  0
   84.6225  155.8631   11.1785 O   0  0  0  0  0  0  0  0  0  0  0  0
   84.7319  156.2117   12.3508 C   0  0  0  0  0  0  0  0  0  0  0  0
   84.8956  155.3719   13.4499 N   0  0  0  0  0  0  0  0  0  0  0  0
   84.6586  157.5522   12.6554 N   0  0  0  0  0  0  0  0  0  0  0  0
   84.5981  155.9008   14.7710 C   0  0  0  0  0  0  0  0  0  0  0  0
   84.9824  158.1448   13.8454 C   0  0  0  0  0  0  0  0  0  0  0  0
   85.3215  157.2150   14.9749 C   0  0  0  0  0  0  0  0  0  0  0  0
   85.0573  159.3657   13.9555 O   0  0  0  0  0  0  0  0  0  0  0  0
   84.3390  158.1485   11.9402 H   0  0  0  0  0  0  0  0  0  0  0  0
   83.1315  153.5264   14.7179 O   0  0  0  0  0  0  0  0  0  0  0  0
   81.8629  153.2978   14.1050 C   0  0  0  0  0  0  0  0  0  0  0  0
   86.9166  154.2149   11.7624 O   0  0  0  0  0  0  0  0  0  0  0  0
   87.8143  153.4035   10.9991 C   0  0  0  0  0  0  0  0  0  0  0  0
   83.3907  150.7061   14.5373 C   0  0  0  0  0  0  0  0  0  0  0  0
   83.9970  150.1384   15.7532 N   0  0  0  0  0  0  0  0  0  0  0  0
   85.4226  150.4645   16.0086 C   0  0  0  0  0  0  0  0  0  0  0  0
   83.1449  150.2894   16.9326 C   0  0  0  0  0  0  0  0  0  0  0  0
   85.8087  151.9689   15.9812 C   0  0  0  0  0  0  0  0  0  0  0  0
   83.3862  151.4598   17.8905 C   0  0  0  0  0  0  0  0  0  0  0  0
   85.2896  152.8218   17.0598 N   0  0  0  0  0  0  0  0  0  0  0  0
   83.8425  152.7639   17.2462 C   0  0  0  0  0  0  0  0  0  0  0  0
   85.5439  153.7872   16.8506 H   0  0  0  0  0  0  0  0  0  0  0  0
   86.3413  149.6944   15.0517 C   0  0  0  0  0  0  0  0  0  0  0  0
   87.4699  150.0104   14.7035 O   0  0  0  0  0  0  0  0  0  0  0  0
   85.8091  148.5322   14.6106 O   0  0  0  0  0  0  0  0  0  0  0  0
   84.9448  148.2832   14.8730 H   0  0  0  0  0  0  0  0  0  0  0  0
  7  8  2  0
  8  9  1  0
  8 10  1  0
  9 11  1  0
 10 12  1  0
  1  9  1  0
  1  2  2  0
  1  3  5  0
 11 13  1  0
 12 14  2  0
 12 13  1  0
  2 16  1  0
  2  4  5  0
  3 18  1  0
  3  5  2  0
 16 17  1  0
  4  6  2  0
  4 20  1  0
 18 19  1  0
  5  6  5  0
 20 21  1  0
 21 22  1  0
 21 23  1  0
 22 29  1  0
 22 24  1  0
 23 25  1  0
 29 30  2  0
 29 31  1  0
 24 26  1  0
 25 27  1  0
 26 27  1  0
 10 15  1  0
 31 32  1  0
 26 28  1  0
M  END
> <ID>
EDEL-CRBN-0004_ent

> <Stereoisomer>
enantiomer

> <MW>
406.19

> <HBD>
3

> <HBA>
7

> <RotBonds>
6

> <cLogP>
0.4

> <minimizedAffinity>
-6.46013

> <CNNscore>
0.4924817681

> <CNNaffinity>
4.7056260109

> <CNN_VS>
2.3174350262

> <CNNaffinity_variance>
1.7006577253

> <Compound_Name>
EDEL-CRBN-0004_ent

> <Pose_Rank>
3
$$$$
EDEL-CRBN-0004_ent


 32 34  0  0  0  0  0  0  0  0999 V2000
   84.9898  153.1721   12.9924 C   0  0  0  0  0  0  0  0  0  0  0  0
   83.8171  152.4107   13.1975 C   0  0  0  0  0  0  0  0  0  0  0  0
   86.1181  152.5118   12.4735 C   0  0  0  0  0  0  0  0  0  0  0  0
   83.7836  151.0228   12.9421 C   0  0  0  0  0  0  0  0  0  0  0  0
   86.0832  151.1477   12.1736 C   0  0  0  0  0  0  0  0  0  0  0  0
   84.9332  150.4047   12.4308 C   0  0  0  0  0  0  0  0  0  0  0  0
   85.4624  154.2699   15.5823 O   0  0  0  0  0  0  0  0  0  0  0  0
   85.2242  154.9895   14.6163 C   0  0  0  0  0  0  0  0  0  0  0  0
   85.0143  154.5686   13.3052 N   0  0  0  0  0  0  0  0  0  0  0  0
   85.1841  156.3536   14.7973 N   0  0  0  0  0  0  0  0  0  0  0  0
   85.1555  155.5451   12.2376 C   0  0  0  0  0  0  0  0  0  0  0  0
   84.7158  157.2877   13.9139 C   0  0  0  0  0  0  0  0  0  0  0  0
   84.3346  156.7772   12.5541 C   0  0  0  0  0  0  0  0  0  0  0  0
   84.5538  158.4595   14.2441 O   0  0  0  0  0  0  0  0  0  0  0  0
   85.5293  156.6935   15.6544 H   0  0  0  0  0  0  0  0  0  0  0  0
   82.6609  152.9995   13.6591 O   0  0  0  0  0  0  0  0  0  0  0  0
   82.8914  154.3601   14.0241 C   0  0  0  0  0  0  0  0  0  0  0  0
   87.3019  153.1761   12.2571 O   0  0  0  0  0  0  0  0  0  0  0  0
   88.0926  152.4565   11.3064 C   0  0  0  0  0  0  0  0  0  0  0  0
   82.5404  150.1996   13.2122 C   0  0  0  0  0  0  0  0  0  0  0  0
   82.4378  149.7113   14.5975 N   0  0  0  0  0  0  0  0  0  0  0  0
   81.0771  149.6432   15.1872 C   0  0  0  0  0  0  0  0  0  0  0  0
   83.2351  148.5077   14.8328 C   0  0  0  0  0  0  0  0  0  0  0  0
   80.0001  148.8810   14.3673 C   0  0  0  0  0  0  0  0  0  0  0  0
   82.5617  147.1338   14.7654 C   0  0  0  0  0  0  0  0  0  0  0  0
   80.1529  147.4251   14.2355 N   0  0  0  0  0  0  0  0  0  0  0  0
   81.4513  146.9869   13.7313 C   0  0  0  0  0  0  0  0  0  0  0  0
   79.4340  147.0876   13.5955 H   0  0  0  0  0  0  0  0  0  0  0  0
   80.5528  151.0456   15.5203 C   0  0  0  0  0  0  0  0  0  0  0  0
   80.9946  151.8141   16.3625 O   0  0  0  0  0  0  0  0  0  0  0  0
   79.5184  151.4347   14.7411 O   0  0  0  0  0  0  0  0  0  0  0  0
   79.1744  150.8513   14.0935 H   0  0  0  0  0  0  0  0  0  0  0  0
  7  8  2  0
  8  9  1  0
  8 10  1  0
  9 11  1  0
 10 12  1  0
  1  9  1  0
  1  2  2  0
  1  3  5  0
 11 13  1  0
 12 14  2  0
 12 13  1  0
  2 16  1  0
  2  4  5  0
  3 18  1  0
  3  5  2  0
 16 17  1  0
  4  6  2  0
  4 20  1  0
 18 19  1  0
  5  6  5  0
 20 21  1  0
 21 22  1  0
 21 23  1  0
 22 29  1  0
 22 24  1  0
 23 25  1  0
 29 30  2  0
 29 31  1  0
 24 26  1  0
 25 27  1  0
 26 27  1  0
 10 15  1  0
 31 32  1  0
 26 28  1  0
M  END
> <ID>
EDEL-CRBN-0004_ent

> <Stereoisomer>
enantiomer

> <MW>
406.19

> <HBD>
3

> <HBA>
7

> <RotBonds>
6

> <cLogP>
0.4

> <minimizedAffinity>
-7.41593

> <CNNscore>
0.3284585774

> <CNNaffinity>
4.0274138451

> <CNN_VS>
1.3228386641

> <CNNaffinity_variance>
2.8529961109

> <Compound_Name>
EDEL-CRBN-0004_ent

> <Pose_Rank>
4
$$$$
EDEL-CRBN-0004_ent


 32 34  0  0  0  0  0  0  0  0999 V2000
   76.8633  147.9883   11.9605 C   0  0  0  0  0  0  0  0  0  0  0  0
   77.7243  148.9146   12.5912 C   0  0  0  0  0  0  0  0  0  0  0  0
   75.7472  147.5321   12.6846 C   0  0  0  0  0  0  0  0  0  0  0  0
   77.5093  149.3354   13.9214 C   0  0  0  0  0  0  0  0  0  0  0  0
   75.4986  147.9764   13.9857 C   0  0  0  0  0  0  0  0  0  0  0  0
   76.3872  148.8506   14.6076 C   0  0  0  0  0  0  0  0  0  0  0  0
   76.0372  149.3222    9.5784 O   0  0  0  0  0  0  0  0  0  0  0  0
   76.6476  148.2576    9.5365 C   0  0  0  0  0  0  0  0  0  0  0  0
   77.1294  147.5387   10.6279 N   0  0  0  0  0  0  0  0  0  0  0  0
   76.9326  147.7026    8.3094 N   0  0  0  0  0  0  0  0  0  0  0  0
   78.1628  146.5432   10.3949 C   0  0  0  0  0  0  0  0  0  0  0  0
   77.3886  146.4359    8.0648 C   0  0  0  0  0  0  0  0  0  0  0  0
   77.7430  145.6174    9.2730 C   0  0  0  0  0  0  0  0  0  0  0  0
   77.4355  145.9788    6.9258 O   0  0  0  0  0  0  0  0  0  0  0  0
   76.7935  148.2789    7.5234 H   0  0  0  0  0  0  0  0  0  0  0  0
   78.8104  149.4394   11.9268 O   0  0  0  0  0  0  0  0  0  0  0  0
   79.9664  148.6231   12.1134 C   0  0  0  0  0  0  0  0  0  0  0  0
   74.8682  146.6207   12.1495 O   0  0  0  0  0  0  0  0  0  0  0  0
   73.6759  147.2898   11.7283 C   0  0  0  0  0  0  0  0  0  0  0  0
   78.4633  150.2886   14.6124 C   0  0  0  0  0  0  0  0  0  0  0  0
   79.6804  149.6424   15.1314 N   0  0  0  0  0  0  0  0  0  0  0  0
   80.6393  150.5062   15.8651 C   0  0  0  0  0  0  0  0  0  0  0  0
   79.4027  148.3755   15.8078 C   0  0  0  0  0  0  0  0  0  0  0  0
   80.0601  151.3593   17.0269 C   0  0  0  0  0  0  0  0  0  0  0  0
   79.2700  148.3502   17.3334 C   0  0  0  0  0  0  0  0  0  0  0  0
   79.5922  150.6461   18.2239 N   0  0  0  0  0  0  0  0  0  0  0  0
   78.6285  149.5799   17.9661 C   0  0  0  0  0  0  0  0  0  0  0  0
   79.1547  151.3252   18.8466 H   0  0  0  0  0  0  0  0  0  0  0  0
   81.3993  151.4248   14.9002 C   0  0  0  0  0  0  0  0  0  0  0  0
   82.1561  151.0827   14.0030 O   0  0  0  0  0  0  0  0  0  0  0  0
   81.1335  152.7381   15.0827 O   0  0  0  0  0  0  0  0  0  0  0  0
   80.5545  153.0080   15.7682 H   0  0  0  0  0  0  0  0  0  0  0  0
  7  8  2  0
  8  9  1  0
  8 10  1  0
  9 11  1  0
 10 12  1  0
  1  9  1  0
  1  2  2  0
  1  3  5  0
 11 13  1  0
 12 14  2  0
 12 13  1  0
  2 16  1  0
  2  4  5  0
  3 18  1  0
  3  5  2  0
 16 17  1  0
  4  6  2  0
  4 20  1  0
 18 19  1  0
  5  6  5  0
 20 21  1  0
 21 22  1  0
 21 23  1  0
 22 29  1  0
 22 24  1  0
 23 25  1  0
 29 30  2  0
 29 31  1  0
 24 26  1  0
 25 27  1  0
 26 27  1  0
 10 15  1  0
 31 32  1  0
 26 28  1  0
M  END
> <ID>
EDEL-CRBN-0004_ent

> <Stereoisomer>
enantiomer

> <MW>
406.19

> <HBD>
3

> <HBA>
7

> <RotBonds>
6

> <cLogP>
0.4

> <minimizedAffinity>
-5.96527

> <CNNscore>
0.3106627166

> <CNNaffinity>
4.1315689087

> <CNN_VS>
1.2835243940

> <CNNaffinity_variance>
0.7457898259

> <Compound_Name>
EDEL-CRBN-0004_ent

> <Pose_Rank>
5
$$$$
EDEL-CRBN-0004


 32 34  0  0  0  0  0  0  0  0999 V2000
   84.6876  154.1265   13.3557 C   0  0  0  0  0  0  0  0  0  0  0  0
   83.5616  153.5526   13.9887 C   0  0  0  0  0  0  0  0  0  0  0  0
   85.5477  153.3011   12.5958 C   0  0  0  0  0  0  0  0  0  0  0  0
   83.3257  152.1687   13.9371 C   0  0  0  0  0  0  0  0  0  0  0  0
   85.2751  151.9338   12.4921 C   0  0  0  0  0  0  0  0  0  0  0  0
   84.1860  151.3753   13.1645 C   0  0  0  0  0  0  0  0  0  0  0  0
   84.4867  156.1265   11.2830 O   0  0  0  0  0  0  0  0  0  0  0  0
   84.9062  156.3881   12.4069 C   0  0  0  0  0  0  0  0  0  0  0  0
   84.9739  155.5195   13.4910 N   0  0  0  0  0  0  0  0  0  0  0  0
   85.2693  157.6844   12.6962 N   0  0  0  0  0  0  0  0  0  0  0  0
   85.5162  156.0067   14.7494 C   0  0  0  0  0  0  0  0  0  0  0  0
   85.0879  158.2747   13.9180 C   0  0  0  0  0  0  0  0  0  0  0  0
   84.9018  157.3460   15.0879 C   0  0  0  0  0  0  0  0  0  0  0  0
   85.0049  159.4955   14.0324 O   0  0  0  0  0  0  0  0  0  0  0  0
   85.6844  158.2190   11.9813 H   0  0  0  0  0  0  0  0  0  0  0  0
   82.6666  154.3501   14.6650 O   0  0  0  0  0  0  0  0  0  0  0  0
   81.7992  155.0146   13.7473 C   0  0  0  0  0  0  0  0  0  0  0  0
   86.6400  153.9052   12.0183 O   0  0  0  0  0  0  0  0  0  0  0  0
   87.6220  153.0556   11.4384 C   0  0  0  0  0  0  0  0  0  0  0  0
   82.1717  151.5092   14.6722 C   0  0  0  0  0  0  0  0  0  0  0  0
   82.6421  150.5157   15.6569 N   0  0  0  0  0  0  0  0  0  0  0  0
   82.4227  150.9240   17.0687 C   0  0  0  0  0  0  0  0  0  0  0  0
   84.0278  150.0924   15.3668 C   0  0  0  0  0  0  0  0  0  0  0  0
   83.0785  152.2614   17.5190 C   0  0  0  0  0  0  0  0  0  0  0  0
   85.1021  150.3610   16.4293 C   0  0  0  0  0  0  0  0  0  0  0  0
   84.2362  152.7404   16.7550 N   0  0  0  0  0  0  0  0  0  0  0  0
   85.3795  151.8377   16.7094 C   0  0  0  0  0  0  0  0  0  0  0  0
   84.5461  153.6180   17.1725 H   0  0  0  0  0  0  0  0  0  0  0  0
   80.9265  150.9277   17.4313 C   0  0  0  0  0  0  0  0  0  0  0  0
   80.3363  150.2440   18.2534 O   0  0  0  0  0  0  0  0  0  0  0  0
   80.2326  151.8718   16.7517 O   0  0  0  0  0  0  0  0  0  0  0  0
   80.6674  152.4065   16.1168 H   0  0  0  0  0  0  0  0  0  0  0  0
  7  8  2  0
  8  9  1  0
  8 10  1  0
  9 11  1  0
 10 12  1  0
  1  9  1  0
  1  2  2  0
  1  3  5  0
 11 13  1  0
 12 14  2  0
 12 13  1  0
  2 16  1  0
  2  4  5  0
  3 18  1  0
  3  5  2  0
 16 17  1  0
  4  6  2  0
  4 20  1  0
 18 19  1  0
  5  6  5  0
 20 21  1  0
 21 22  1  0
 21 23  1  0
 22 29  1  0
 22 24  1  0
 23 25  1  0
 29 30  2  0
 29 31  1  0
 24 26  1  0
 25 27  1  0
 26 27  1  0
 10 15  1  0
 31 32  1  0
 26 28  1  0
M  END
> <ID>
EDEL-CRBN-0004

> <Stereoisomer>
original

> <MW>
406.19

> <HBD>
3

> <HBA>
7

> <RotBonds>
6

> <cLogP>
0.4

> <minimizedAffinity>
-7.74685

> <CNNscore>
0.7092846632

> <CNNaffinity>
5.6833777428

> <CNN_VS>
4.0311326981

> <CNNaffinity_variance>
0.7767696977

> <Compound_Name>
EDEL-CRBN-0004

> <Pose_Rank>
1
$$$$
EDEL-CRBN-0004


 32 34  0  0  0  0  0  0  0  0999 V2000
   84.7476  153.5485   13.1038 C   0  0  0  0  0  0  0  0  0  0  0  0
   83.5176  152.9615   13.4786 C   0  0  0  0  0  0  0  0  0  0  0  0
   85.7476  152.7403   12.5162 C   0  0  0  0  0  0  0  0  0  0  0  0
   83.3015  151.5798   13.3460 C   0  0  0  0  0  0  0  0  0  0  0  0
   85.5063  151.3764   12.3256 C   0  0  0  0  0  0  0  0  0  0  0  0
   84.3042  150.8038   12.7469 C   0  0  0  0  0  0  0  0  0  0  0  0
   84.6698  155.6464   11.1216 O   0  0  0  0  0  0  0  0  0  0  0  0
   84.9958  155.8578   12.2864 C   0  0  0  0  0  0  0  0  0  0  0  0
   84.9959  154.9372   13.3288 N   0  0  0  0  0  0  0  0  0  0  0  0
   85.3104  157.1434   12.6660 N   0  0  0  0  0  0  0  0  0  0  0  0
   85.4296  155.3690   14.6481 C   0  0  0  0  0  0  0  0  0  0  0  0
   85.0236  157.6689   13.8971 C   0  0  0  0  0  0  0  0  0  0  0  0
   84.7652  156.6802   15.0022 C   0  0  0  0  0  0  0  0  0  0  0  0
   84.9086  158.8811   14.0639 O   0  0  0  0  0  0  0  0  0  0  0  0
   85.7694  157.7194   12.0127 H   0  0  0  0  0  0  0  0  0  0  0  0
   82.5006  153.7439   13.9765 O   0  0  0  0  0  0  0  0  0  0  0  0
   82.0980  153.2777   15.2637 C   0  0  0  0  0  0  0  0  0  0  0  0
   86.9332  153.3562   12.1896 O   0  0  0  0  0  0  0  0  0  0  0  0
   87.9033  152.5761   11.5019 C   0  0  0  0  0  0  0  0  0  0  0  0
   82.0235  150.9047   13.8129 C   0  0  0  0  0  0  0  0  0  0  0  0
   82.2443  149.4872   14.1590 N   0  0  0  0  0  0  0  0  0  0  0  0
   81.0374  148.6366   13.9917 C   0  0  0  0  0  0  0  0  0  0  0  0
   82.8880  149.3557   15.4825 C   0  0  0  0  0  0  0  0  0  0  0  0
   79.7760  149.0459   14.8060 C   0  0  0  0  0  0  0  0  0  0  0  0
   82.1299  148.5997   16.5821 C   0  0  0  0  0  0  0  0  0  0  0  0
   79.9808  149.8548   16.0132 N   0  0  0  0  0  0  0  0  0  0  0  0
   80.8271  149.2564   17.0378 C   0  0  0  0  0  0  0  0  0  0  0  0
   79.0667  150.0360   16.4280 H   0  0  0  0  0  0  0  0  0  0  0  0
   80.6675  148.4638   12.5074 C   0  0  0  0  0  0  0  0  0  0  0  0
   79.9764  149.1824   11.8019 O   0  0  0  0  0  0  0  0  0  0  0  0
   81.2588  147.3799   11.9504 O   0  0  0  0  0  0  0  0  0  0  0  0
   81.7928  146.8162   12.4748 H   0  0  0  0  0  0  0  0  0  0  0  0
  7  8  2  0
  8  9  1  0
  8 10  1  0
  9 11  1  0
 10 12  1  0
  1  9  1  0
  1  2  2  0
  1  3  5  0
 11 13  1  0
 12 14  2  0
 12 13  1  0
  2 16  1  0
  2  4  5  0
  3 18  1  0
  3  5  2  0
 16 17  1  0
  4  6  2  0
  4 20  1  0
 18 19  1  0
  5  6  5  0
 20 21  1  0
 21 22  1  0
 21 23  1  0
 22 29  1  0
 22 24  1  0
 23 25  1  0
 29 30  2  0
 29 31  1  0
 24 26  1  0
 25 27  1  0
 26 27  1  0
 10 15  1  0
 31 32  1  0
 26 28  1  0
M  END
> <ID>
EDEL-CRBN-0004

> <Stereoisomer>
original

> <MW>
406.19

> <HBD>
3

> <HBA>
7

> <RotBonds>
6

> <cLogP>
0.4

> <minimizedAffinity>
-7.17142

> <CNNscore>
0.6093080640

> <CNNaffinity>
5.5223307610

> <CNN_VS>
3.3648006916

> <CNNaffinity_variance>
0.5047179461

> <Compound_Name>
EDEL-CRBN-0004

> <Pose_Rank>
2
$$$$
EDEL-CRBN-0004


 32 34  0  0  0  0  0  0  0  0999 V2000
   84.4327  153.2721   13.1921 C   0  0  0  0  0  0  0  0  0  0  0  0
   83.3621  152.4563   13.6237 C   0  0  0  0  0  0  0  0  0  0  0  0
   85.5224  152.6794   12.5140 C   0  0  0  0  0  0  0  0  0  0  0  0
   83.3980  151.0620   13.4569 C   0  0  0  0  0  0  0  0  0  0  0  0
   85.5262  151.2991   12.2916 C   0  0  0  0  0  0  0  0  0  0  0  0
   84.4835  150.5017   12.7683 C   0  0  0  0  0  0  0  0  0  0  0  0
   85.3813  154.5751   15.5876 O   0  0  0  0  0  0  0  0  0  0  0  0
   84.8557  155.1968   14.6684 C   0  0  0  0  0  0  0  0  0  0  0  0
   84.4336  154.6773   13.4493 N   0  0  0  0  0  0  0  0  0  0  0  0
   84.7376  156.5646   14.7725 N   0  0  0  0  0  0  0  0  0  0  0  0
   83.8167  155.5696   12.4806 C   0  0  0  0  0  0  0  0  0  0  0  0
   84.8463  157.4243   13.7128 C   0  0  0  0  0  0  0  0  0  0  0  0
   84.6424  156.8289   12.3455 C   0  0  0  0  0  0  0  0  0  0  0  0
   85.1696  158.5992   13.8729 O   0  0  0  0  0  0  0  0  0  0  0  0
   84.5646  156.9475   15.6629 H   0  0  0  0  0  0  0  0  0  0  0  0
   82.2544  153.0225   14.2125 O   0  0  0  0  0  0  0  0  0  0  0  0
   82.2589  152.7799   15.6187 C   0  0  0  0  0  0  0  0  0  0  0  0
   86.5475  153.5141   12.1343 O   0  0  0  0  0  0  0  0  0  0  0  0
   87.6707  152.9169   11.4984 C   0  0  0  0  0  0  0  0  0  0  0  0
   82.3030  150.1486   13.9804 C   0  0  0  0  0  0  0  0  0  0  0  0
   82.0739  148.9959   13.0878 N   0  0  0  0  0  0  0  0  0  0  0  0
   80.7083  148.4199   13.1947 C   0  0  0  0  0  0  0  0  0  0  0  0
   83.1547  147.9969   13.2192 C   0  0  0  0  0  0  0  0  0  0  0  0
   80.2699  147.9185   14.6011 C   0  0  0  0  0  0  0  0  0  0  0  0
   82.7806  146.5872   13.6965 C   0  0  0  0  0  0  0  0  0  0  0  0
   81.3272  147.5630   15.5547 N   0  0  0  0  0  0  0  0  0  0  0  0
   82.2382  146.5104   15.1234 C   0  0  0  0  0  0  0  0  0  0  0  0
   80.8801  147.2562   16.4187 H   0  0  0  0  0  0  0  0  0  0  0  0
   79.6442  149.3759   12.6258 C   0  0  0  0  0  0  0  0  0  0  0  0
   78.6626  149.8459   13.1802 O   0  0  0  0  0  0  0  0  0  0  0  0
   79.9144  149.7511   11.3527 O   0  0  0  0  0  0  0  0  0  0  0  0
   80.6628  149.4017   10.9101 H   0  0  0  0  0  0  0  0  0  0  0  0
  7  8  2  0
  8  9  1  0
  8 10  1  0
  9 11  1  0
 10 12  1  0
  1  9  1  0
  1  2  2  0
  1  3  5  0
 11 13  1  0
 12 14  2  0
 12 13  1  0
  2 16  1  0
  2  4  5  0
  3 18  1  0
  3  5  2  0
 16 17  1  0
  4  6  2  0
  4 20  1  0
 18 19  1  0
  5  6  5  0
 20 21  1  0
 21 22  1  0
 21 23  1  0
 22 29  1  0
 22 24  1  0
 23 25  1  0
 29 30  2  0
 29 31  1  0
 24 26  1  0
 25 27  1  0
 26 27  1  0
 10 15  1  0
 31 32  1  0
 26 28  1  0
M  END
> <ID>
EDEL-CRBN-0004

> <Stereoisomer>
original

> <MW>
406.19

> <HBD>
3

> <HBA>
7

> <RotBonds>
6

> <cLogP>
0.4

> <minimizedAffinity>
-7.36039

> <CNNscore>
0.2944832146

> <CNNaffinity>
3.7464363575

> <CNN_VS>
1.1032626629

> <CNNaffinity_variance>
3.1284940243

> <Compound_Name>
EDEL-CRBN-0004

> <Pose_Rank>
3
$$$$
EDEL-CRBN-0004


 32 34  0  0  0  0  0  0  0  0999 V2000
   84.6145  153.4632   13.0614 C   0  0  0  0  0  0  0  0  0  0  0  0
   83.5392  152.6072   13.3916 C   0  0  0  0  0  0  0  0  0  0  0  0
   85.7587  152.9228   12.4311 C   0  0  0  0  0  0  0  0  0  0  0  0
   83.6195  151.2219   13.1724 C   0  0  0  0  0  0  0  0  0  0  0  0
   85.8101  151.5532   12.1550 C   0  0  0  0  0  0  0  0  0  0  0  0
   84.7594  150.7143   12.5327 C   0  0  0  0  0  0  0  0  0  0  0  0
   85.3798  154.6877   15.5616 O   0  0  0  0  0  0  0  0  0  0  0  0
   84.8974  155.3347   14.6363 C   0  0  0  0  0  0  0  0  0  0  0  0
   84.5649  154.8564   13.3734 N   0  0  0  0  0  0  0  0  0  0  0  0
   84.7395  156.6942   14.7867 N   0  0  0  0  0  0  0  0  0  0  0  0
   83.9878  155.7738   12.4037 C   0  0  0  0  0  0  0  0  0  0  0  0
   84.8928  157.5988   13.7707 C   0  0  0  0  0  0  0  0  0  0  0  0
   84.7891  157.0555   12.3708 C   0  0  0  0  0  0  0  0  0  0  0  0
   85.1766  158.7729   13.9972 O   0  0  0  0  0  0  0  0  0  0  0  0
   84.5021  157.0364   15.6787 H   0  0  0  0  0  0  0  0  0  0  0  0
   82.3833  153.1244   13.9306 O   0  0  0  0  0  0  0  0  0  0  0  0
   82.3495  152.9053   15.3403 C   0  0  0  0  0  0  0  0  0  0  0  0
   86.7848  153.7946   12.1506 O   0  0  0  0  0  0  0  0  0  0  0  0
   87.7684  153.3629   11.2185 C   0  0  0  0  0  0  0  0  0  0  0  0
   82.5166  150.2642   13.5888 C   0  0  0  0  0  0  0  0  0  0  0  0
   83.0407  149.1268   14.3695 N   0  0  0  0  0  0  0  0  0  0  0  0
   82.0254  148.0802   14.6553 C   0  0  0  0  0  0  0  0  0  0  0  0
   83.7700  149.5933   15.5670 C   0  0  0  0  0  0  0  0  0  0  0  0
   80.7541  148.5333   15.4300 C   0  0  0  0  0  0  0  0  0  0  0  0
   83.2441  149.1668   16.9442 C   0  0  0  0  0  0  0  0  0  0  0  0
   80.8560  149.7452   16.2513 N   0  0  0  0  0  0  0  0  0  0  0  0
   81.8620  149.7105   17.3053 C   0  0  0  0  0  0  0  0  0  0  0  0
   79.9486  149.9045   16.6890 H   0  0  0  0  0  0  0  0  0  0  0  0
   81.6170  147.3235   13.3784 C   0  0  0  0  0  0  0  0  0  0  0  0
   82.1969  147.2641   12.3052 O   0  0  0  0  0  0  0  0  0  0  0  0
   80.4811  146.6046   13.5448 O   0  0  0  0  0  0  0  0  0  0  0  0
   80.0216  146.6368   14.3608 H   0  0  0  0  0  0  0  0  0  0  0  0
  7  8  2  0
  8  9  1  0
  8 10  1  0
  9 11  1  0
 10 12  1  0
  1  9  1  0
  1  2  2  0
  1  3  5  0
 11 13  1  0
 12 14  2  0
 12 13  1  0
  2 16  1  0
  2  4  5  0
  3 18  1  0
  3  5  2  0
 16 17  1  0
  4  6  2  0
  4 20  1  0
 18 19  1  0
  5  6  5  0
 20 21  1  0
 21 22  1  0
 21 23  1  0
 22 29  1  0
 22 24  1  0
 23 25  1  0
 29 30  2  0
 29 31  1  0
 24 26  1  0
 25 27  1  0
 26 27  1  0
 10 15  1  0
 31 32  1  0
 26 28  1  0
M  END
> <ID>
EDEL-CRBN-0004

> <Stereoisomer>
original

> <MW>
406.19

> <HBD>
3

> <HBA>
7

> <RotBonds>
6

> <cLogP>
0.4

> <minimizedAffinity>
-7.04414

> <CNNscore>
0.2915504873

> <CNNaffinity>
4.2478518486

> <CNN_VS>
1.2384632826

> <CNNaffinity_variance>
1.9945875406

> <Compound_Name>
EDEL-CRBN-0004

> <Pose_Rank>
4
$$$$
EDEL-CRBN-0004


 32 34  0  0  0  0  0  0  0  0999 V2000
   84.6687  153.3614   12.9937 C   0  0  0  0  0  0  0  0  0  0  0  0
   83.5938  152.4793   13.2477 C   0  0  0  0  0  0  0  0  0  0  0  0
   85.8539  152.8559   12.4122 C   0  0  0  0  0  0  0  0  0  0  0  0
   83.7110  151.1012   13.0018 C   0  0  0  0  0  0  0  0  0  0  0  0
   85.9450  151.4943   12.1083 C   0  0  0  0  0  0  0  0  0  0  0  0
   84.8918  150.6286   12.4113 C   0  0  0  0  0  0  0  0  0  0  0  0
   85.4211  154.5607   15.5100 O   0  0  0  0  0  0  0  0  0  0  0  0
   84.9077  155.2097   14.6029 C   0  0  0  0  0  0  0  0  0  0  0  0
   84.5772  154.7458   13.3341 N   0  0  0  0  0  0  0  0  0  0  0  0
   84.7073  156.5601   14.7822 N   0  0  0  0  0  0  0  0  0  0  0  0
   83.9599  155.6627   12.3890 C   0  0  0  0  0  0  0  0  0  0  0  0
   84.8200  157.4891   13.7830 C   0  0  0  0  0  0  0  0  0  0  0  0
   84.7187  156.9704   12.3737 C   0  0  0  0  0  0  0  0  0  0  0  0
   85.0678  158.6671   14.0302 O   0  0  0  0  0  0  0  0  0  0  0  0
   84.4687  156.8766   15.6833 H   0  0  0  0  0  0  0  0  0  0  0  0
   82.4020  152.9636   13.7371 O   0  0  0  0  0  0  0  0  0  0  0  0
   82.4518  153.0643   15.1596 C   0  0  0  0  0  0  0  0  0  0  0  0
   86.8769  153.7517   12.2056 O   0  0  0  0  0  0  0  0  0  0  0  0
   87.8612  153.4033   11.2400 C   0  0  0  0  0  0  0  0  0  0  0  0
   82.6059  150.1150   13.3381 C   0  0  0  0  0  0  0  0  0  0  0  0
   82.4359  149.9542   14.7952 N   0  0  0  0  0  0  0  0  0  0  0  0
   83.1511  148.7775   15.3537 C   0  0  0  0  0  0  0  0  0  0  0  0
   81.0098  150.0216   15.1761 C   0  0  0  0  0  0  0  0  0  0  0  0
   82.7785  147.3877   14.7609 C   0  0  0  0  0  0  0  0  0  0  0  0
   80.3835  148.7928   15.8491 C   0  0  0  0  0  0  0  0  0  0  0  0
   81.4636  147.2523   14.1234 N   0  0  0  0  0  0  0  0  0  0  0  0
   80.3166  147.5407   14.9751 C   0  0  0  0  0  0  0  0  0  0  0  0
   81.3737  146.2923   13.7908 H   0  0  0  0  0  0  0  0  0  0  0  0
   84.6778  148.9705   15.3126 C   0  0  0  0  0  0  0  0  0  0  0  0
   85.3519  149.8528   15.8215 O   0  0  0  0  0  0  0  0  0  0  0  0
   85.3077  147.9689   14.6532 O   0  0  0  0  0  0  0  0  0  0  0  0
   84.8083  147.2828   14.2559 H   0  0  0  0  0  0  0  0  0  0  0  0
  7  8  2  0
  8  9  1  0
  8 10  1  0
  9 11  1  0
 10 12  1  0
  1  9  1  0
  1  2  2  0
  1  3  5  0
 11 13  1  0
 12 14  2  0
 12 13  1  0
  2 16  1  0
  2  4  5  0
  3 18  1  0
  3  5  2  0
 16 17  1  0
  4  6  2  0
  4 20  1  0
 18 19  1  0
  5  6  5  0
 20 21  1  0
 21 22  1  0
 21 23  1  0
 22 29  1  0
 22 24  1  0
 23 25  1  0
 29 30  2  0
 29 31  1  0
 24 26  1  0
 25 27  1  0
 26 27  1  0
 10 15  1  0
 31 32  1  0
 26 28  1  0
M  END
> <ID>
EDEL-CRBN-0004

> <Stereoisomer>
original

> <MW>
406.19

> <HBD>
3

> <HBA>
7

> <RotBonds>
6

> <cLogP>
0.4

> <minimizedAffinity>
-6.75006

> <CNNscore>
0.2768636644

> <CNNaffinity>
3.9936439991

> <CNN_VS>
1.1056948900

> <CNNaffinity_variance>
2.1013360023

> <Compound_Name>
EDEL-CRBN-0004

> <Pose_Rank>
5
$$$$
EDEL-CRBN-0005_ent


 32 36  0  0  0  0  0  0  0  0999 V2000
   85.5709  149.0583   13.0197 O   0  0  0  0  0  0  0  0  0  0  0  0
   85.0989  149.6338   14.0029 C   0  0  0  0  0  0  0  0  0  0  0  0
   85.9407  150.3955   14.7557 N   0  0  0  0  0  0  0  0  0  0  0  0
   83.6640  149.3988   14.4523 C   0  0  0  0  0  0  0  0  0  0  0  0
   85.5582  151.3251   15.7896 C   0  0  0  0  0  0  0  0  0  0  0  0
   82.8670  150.4754   15.2052 C   0  0  0  0  0  0  0  0  0  0  0  0
   82.7687  149.0228   13.2561 C   0  0  0  0  0  0  0  0  0  0  0  0
   84.5758  152.3268   15.2425 C   0  0  0  0  0  0  0  0  0  0  0  0
   83.2756  151.9087   14.8954 C   0  0  0  0  0  0  0  0  0  0  0  0
   81.4249  150.0558   14.8796 C   0  0  0  0  0  0  0  0  0  0  0  0
   81.4937  149.7279   13.4568 N   0  0  0  0  0  0  0  0  0  0  0  0
   84.9827  153.6540   15.0071 C   0  0  0  0  0  0  0  0  0  0  0  0
   82.4205  152.8464   14.3103 C   0  0  0  0  0  0  0  0  0  0  0  0
   84.1228  154.5995   14.4350 C   0  0  0  0  0  0  0  0  0  0  0  0
   82.8375  154.1660   14.0850 C   0  0  0  0  0  0  0  0  0  0  0  0
   86.9043  150.3024   14.5763 H   0  0  0  0  0  0  0  0  0  0  0  0
   84.5523  155.9491   14.1906 N   0  0  0  0  0  0  0  0  0  0  0  0
   84.6030  156.4901   12.9006 C   0  0  0  0  0  0  0  0  0  0  0  0
   85.1707  156.7138   15.2704 C   0  0  0  0  0  0  0  0  0  0  0  0
   84.2874  155.9295   11.8539 O   0  0  0  0  0  0  0  0  0  0  0  0
   85.0677  157.7824   12.8238 N   0  0  0  0  0  0  0  0  0  0  0  0
   84.7722  158.1729   15.1988 C   0  0  0  0  0  0  0  0  0  0  0  0
   85.0834  158.7022   13.8339 C   0  0  0  0  0  0  0  0  0  0  0  0
   85.2626  159.8967   13.6141 O   0  0  0  0  0  0  0  0  0  0  0  0
   85.4247  158.0737   11.9539 H   0  0  0  0  0  0  0  0  0  0  0  0
   80.3428  148.9758   12.9580 C   0  0  0  0  0  0  0  0  0  0  0  0
   79.0748  149.2759   13.7285 C   0  0  0  0  0  0  0  0  0  0  0  0
   79.0368  150.3104   14.6738 C   0  0  0  0  0  0  0  0  0  0  0  0
   77.9146  148.5189   13.5044 C   0  0  0  0  0  0  0  0  0  0  0  0
   77.8628  150.5807   15.3796 C   0  0  0  0  0  0  0  0  0  0  0  0
   76.7422  148.7905   14.2106 C   0  0  0  0  0  0  0  0  0  0  0  0
   76.7171  149.8210   15.1482 C   0  0  0  0  0  0  0  0  0  0  0  0
  1  2  2  0
  2  3  1  0
  3  5  1  0
  4  2  1  0
  4  6  1  0
  4  7  1  0
  6  9  1  0
  6 10  1  0
  7 11  1  0
  8  5  1  0
  8 12  2  0
  8  9  5  0
  9 13  2  0
 10 11  1  0
 11 26  1  0
 13 15  5  0
 26 27  1  0
 14 12  5  0
 14 17  1  0
 14 15  2  0
 27 28  2  0
 27 29  5  0
 17 18  1  0
 17 19  1  0
 28 30  5  0
 29 31  2  0
 18 20  2  0
 18 21  1  0
 19 22  1  0
 30 32  2  0
 31 32  5  0
 21 23  1  0
 22 23  1  0
 23 24  2  0
  3 16  1  0
 21 25  1  0
M  END
> <ID>
EDEL-CRBN-0005_ent

> <Stereoisomer>
enantiomer

> <MW>
404.18

> <HBD>
2

> <HBA>
4

> <RotBonds>
3

> <cLogP>
1.98

> <minimizedAffinity>
-10.21305

> <CNNscore>
0.8760065436

> <CNNaffinity>
7.1399464607

> <CNN_VS>
6.2546396255

> <CNNaffinity_variance>
0.0545090139

> <Compound_Name>
EDEL-CRBN-0005_ent

> <Pose_Rank>
1
$$$$
EDEL-CRBN-0005_ent


 32 36  0  0  0  0  0  0  0  0999 V2000
   80.8866  149.7867   15.5360 O   0  0  0  0  0  0  0  0  0  0  0  0
   81.9176  149.8045   14.8597 C   0  0  0  0  0  0  0  0  0  0  0  0
   81.8848  150.4710   13.6722 N   0  0  0  0  0  0  0  0  0  0  0  0
   83.1461  148.9984   15.2564 C   0  0  0  0  0  0  0  0  0  0  0  0
   83.0206  150.8114   12.8513 C   0  0  0  0  0  0  0  0  0  0  0  0
   84.5640  149.4408   14.8626 C   0  0  0  0  0  0  0  0  0  0  0  0
   83.2109  148.8129   16.7845 C   0  0  0  0  0  0  0  0  0  0  0  0
   84.0250  151.5887   13.6605 C   0  0  0  0  0  0  0  0  0  0  0  0
   84.7410  150.9426   14.6880 C   0  0  0  0  0  0  0  0  0  0  0  0
   85.4016  148.7422   15.9453 C   0  0  0  0  0  0  0  0  0  0  0  0
   84.6235  148.9747   17.1606 N   0  0  0  0  0  0  0  0  0  0  0  0
   84.1870  152.9699   13.4407 C   0  0  0  0  0  0  0  0  0  0  0  0
   85.6000  151.7157   15.4738 C   0  0  0  0  0  0  0  0  0  0  0  0
   85.0586  153.7439   14.2167 C   0  0  0  0  0  0  0  0  0  0  0  0
   85.7547  153.0897   15.2414 C   0  0  0  0  0  0  0  0  0  0  0  0
   80.9994  150.7472   13.3421 H   0  0  0  0  0  0  0  0  0  0  0  0
   85.2087  155.1551   13.9893 N   0  0  0  0  0  0  0  0  0  0  0  0
   85.6772  155.6654   12.7730 C   0  0  0  0  0  0  0  0  0  0  0  0
   85.0947  156.0809   15.1131 C   0  0  0  0  0  0  0  0  0  0  0  0
   85.9905  155.0203   11.7753 O   0  0  0  0  0  0  0  0  0  0  0  0
   85.7996  157.0343   12.7188 N   0  0  0  0  0  0  0  0  0  0  0  0
   84.4243  157.3702   14.6875 C   0  0  0  0  0  0  0  0  0  0  0  0
   85.1541  157.9404   13.5119 C   0  0  0  0  0  0  0  0  0  0  0  0
   85.1140  159.1335   13.2250 O   0  0  0  0  0  0  0  0  0  0  0  0
   86.4139  157.3976   12.0407 H   0  0  0  0  0  0  0  0  0  0  0  0
   85.0114  148.1325   18.2916 C   0  0  0  0  0  0  0  0  0  0  0  0
   84.2928  148.5092   19.5696 C   0  0  0  0  0  0  0  0  0  0  0  0
   84.7957  148.1176   20.8182 C   0  0  0  0  0  0  0  0  0  0  0  0
   83.1083  149.2602   19.5206 C   0  0  0  0  0  0  0  0  0  0  0  0
   84.1269  148.4699   21.9922 C   0  0  0  0  0  0  0  0  0  0  0  0
   82.4413  149.6114   20.6948 C   0  0  0  0  0  0  0  0  0  0  0  0
   82.9507  149.2157   21.9300 C   0  0  0  0  0  0  0  0  0  0  0  0
  1  2  2  0
  2  3  1  0
  3  5  1  0
  4  2  1  0
  4  6  1  0
  4  7  1  0
  6  9  1  0
  6 10  1  0
  7 11  1  0
  8  5  1  0
  8 12  2  0
  8  9  5  0
  9 13  2  0
 10 11  1  0
 11 26  1  0
 13 15  5  0
 26 27  1  0
 14 12  5  0
 14 17  1  0
 14 15  2  0
 27 28  2  0
 27 29  5  0
 17 18  1  0
 17 19  1  0
 28 30  5  0
 29 31  2  0
 18 20  2  0
 18 21  1  0
 19 22  1  0
 30 32  2  0
 31 32  5  0
 21 23  1  0
 22 23  1  0
 23 24  2  0
  3 16  1  0
 21 25  1  0
M  END
> <ID>
EDEL-CRBN-0005_ent

> <Stereoisomer>
enantiomer

> <MW>
404.18

> <HBD>
2

> <HBA>
4

> <RotBonds>
3

> <cLogP>
1.98

> <minimizedAffinity>
-8.66330

> <CNNscore>
0.7051990628

> <CNNaffinity>
7.0658378601

> <CNN_VS>
4.9828224182

> <CNNaffinity_variance>
0.4677699506

> <Compound_Name>
EDEL-CRBN-0005_ent

> <Pose_Rank>
2
$$$$
EDEL-CRBN-0005_ent


 32 36  0  0  0  0  0  0  0  0999 V2000
   83.8287  152.6952   17.6346 O   0  0  0  0  0  0  0  0  0  0  0  0
   84.0583  151.6689   16.9909 C   0  0  0  0  0  0  0  0  0  0  0  0
   83.5157  150.5036   17.4419 N   0  0  0  0  0  0  0  0  0  0  0  0
   85.0246  151.6638   15.8151 C   0  0  0  0  0  0  0  0  0  0  0  0
   83.4617  149.2526   16.7266 C   0  0  0  0  0  0  0  0  0  0  0  0
   84.8785  150.6679   14.6540 C   0  0  0  0  0  0  0  0  0  0  0  0
   85.0683  153.0453   15.1345 C   0  0  0  0  0  0  0  0  0  0  0  0
   82.7973  149.4530   15.3900 C   0  0  0  0  0  0  0  0  0  0  0  0
   83.4554  150.1963   14.3900 C   0  0  0  0  0  0  0  0  0  0  0  0
   85.6039  151.4207   13.5275 C   0  0  0  0  0  0  0  0  0  0  0  0
   85.1208  152.7911   13.6869 N   0  0  0  0  0  0  0  0  0  0  0  0
   81.4942  148.9662   15.1729 C   0  0  0  0  0  0  0  0  0  0  0  0
   82.7719  150.4347   13.1946 C   0  0  0  0  0  0  0  0  0  0  0  0
   80.8130  149.1906   13.9702 C   0  0  0  0  0  0  0  0  0  0  0  0
   81.4757  149.9407   12.9902 C   0  0  0  0  0  0  0  0  0  0  0  0
   83.1221  150.5167   18.3442 H   0  0  0  0  0  0  0  0  0  0  0  0
   79.4791  148.6968   13.7634 N   0  0  0  0  0  0  0  0  0  0  0  0
   78.3528  149.5134   13.9181 C   0  0  0  0  0  0  0  0  0  0  0  0
   79.2590  147.2609   13.6130 C   0  0  0  0  0  0  0  0  0  0  0  0
   78.3425  150.7054   14.2159 O   0  0  0  0  0  0  0  0  0  0  0  0
   77.1434  148.8892   13.7199 N   0  0  0  0  0  0  0  0  0  0  0  0
   78.1555  146.9832   12.6140 C   0  0  0  0  0  0  0  0  0  0  0  0
   76.9276  147.7401   13.0129 C   0  0  0  0  0  0  0  0  0  0  0  0
   75.8005  147.4017   12.6631 O   0  0  0  0  0  0  0  0  0  0  0  0
   76.3541  149.3127   14.1285 H   0  0  0  0  0  0  0  0  0  0  0  0
   85.9033  153.7912   12.9615 C   0  0  0  0  0  0  0  0  0  0  0  0
   85.4789  155.2077   13.2856 C   0  0  0  0  0  0  0  0  0  0  0  0
   85.2154  155.5936   14.6073 C   0  0  0  0  0  0  0  0  0  0  0  0
   85.3440  156.1580   12.2618 C   0  0  0  0  0  0  0  0  0  0  0  0
   84.8249  156.9024   14.8975 C   0  0  0  0  0  0  0  0  0  0  0  0
   84.9538  157.4654   12.5537 C   0  0  0  0  0  0  0  0  0  0  0  0
   84.6940  157.8369   13.8713 C   0  0  0  0  0  0  0  0  0  0  0  0
  1  2  2  0
  2  3  1  0
  3  5  1  0
  4  2  1  0
  4  6  1  0
  4  7  1  0
  6  9  1  0
  6 10  1  0
  7 11  1  0
  8  5  1  0
  8 12  2  0
  8  9  5  0
  9 13  2  0
 10 11  1  0
 11 26  1  0
 13 15  5  0
 26 27  1  0
 14 12  5  0
 14 17  1  0
 14 15  2  0
 27 28  2  0
 27 29  5  0
 17 18  1  0
 17 19  1  0
 28 30  5  0
 29 31  2  0
 18 20  2  0
 18 21  1  0
 19 22  1  0
 30 32  2  0
 31 32  5  0
 21 23  1  0
 22 23  1  0
 23 24  2  0
  3 16  1  0
 21 25  1  0
M  END
> <ID>
EDEL-CRBN-0005_ent

> <Stereoisomer>
enantiomer

> <MW>
404.18

> <HBD>
2

> <HBA>
4

> <RotBonds>
3

> <cLogP>
1.98

> <minimizedAffinity>
-8.85913

> <CNNscore>
0.2004210353

> <CNNaffinity>
4.4401993752

> <CNN_VS>
0.8899093270

> <CNNaffinity_variance>
1.8933511972

> <Compound_Name>
EDEL-CRBN-0005_ent

> <Pose_Rank>
3
$$$$
EDEL-CRBN-0005_ent


 32 36  0  0  0  0  0  0  0  0999 V2000
   85.5917  154.6562    4.0668 O   0  0  0  0  0  0  0  0  0  0  0  0
   86.7015  154.1406    4.2183 C   0  0  0  0  0  0  0  0  0  0  0  0
   87.5631  154.7360    5.0894 N   0  0  0  0  0  0  0  0  0  0  0  0
   87.1580  152.9648    3.3666 C   0  0  0  0  0  0  0  0  0  0  0  0
   88.7975  154.1796    5.5856 C   0  0  0  0  0  0  0  0  0  0  0  0
   88.1728  151.9356    3.8884 C   0  0  0  0  0  0  0  0  0  0  0  0
   85.9544  152.1200    2.9068 C   0  0  0  0  0  0  0  0  0  0  0  0
   88.5396  152.8351    6.2133 C   0  0  0  0  0  0  0  0  0  0  0  0
   88.1731  151.7453    5.3987 C   0  0  0  0  0  0  0  0  0  0  0  0
   87.8340  150.7184    3.0134 C   0  0  0  0  0  0  0  0  0  0  0  0
   86.3723  150.7139    3.0125 N   0  0  0  0  0  0  0  0  0  0  0  0
   88.5885  152.6921    7.6131 C   0  0  0  0  0  0  0  0  0  0  0  0
   87.8575  150.5366    6.0250 C   0  0  0  0  0  0  0  0  0  0  0  0
   88.2876  151.4777    8.2422 C   0  0  0  0  0  0  0  0  0  0  0  0
   87.9141  150.4069    7.4199 C   0  0  0  0  0  0  0  0  0  0  0  0
   87.3193  155.6337    5.4116 H   0  0  0  0  0  0  0  0  0  0  0  0
   88.3318  151.3460    9.6727 N   0  0  0  0  0  0  0  0  0  0  0  0
   88.4620  152.4550   10.5168 C   0  0  0  0  0  0  0  0  0  0  0  0
   88.4766  150.0206   10.2688 C   0  0  0  0  0  0  0  0  0  0  0  0
   88.5330  153.6340   10.1783 O   0  0  0  0  0  0  0  0  0  0  0  0
   88.5244  152.1663   11.8601 N   0  0  0  0  0  0  0  0  0  0  0  0
   87.6809  149.9137   11.5528 C   0  0  0  0  0  0  0  0  0  0  0  0
   88.0723  151.0301   12.4694 C   0  0  0  0  0  0  0  0  0  0  0  0
   87.9242  150.9677   13.6866 O   0  0  0  0  0  0  0  0  0  0  0  0
   88.9360  152.8465   12.4407 H   0  0  0  0  0  0  0  0  0  0  0  0
   85.7756  149.8639    1.9828 C   0  0  0  0  0  0  0  0  0  0  0  0
   84.5223  149.1634    2.4623 C   0  0  0  0  0  0  0  0  0  0  0  0
   83.5075  148.8110    1.5616 C   0  0  0  0  0  0  0  0  0  0  0  0
   84.3597  148.8553    3.8217 C   0  0  0  0  0  0  0  0  0  0  0  0
   82.3549  148.1646    2.0123 C   0  0  0  0  0  0  0  0  0  0  0  0
   83.2072  148.2092    4.2703 C   0  0  0  0  0  0  0  0  0  0  0  0
   82.2052  147.8646    3.3655 C   0  0  0  0  0  0  0  0  0  0  0  0
  1  2  2  0
  2  3  1  0
  3  5  1  0
  4  2  1  0
  4  6  1  0
  4  7  1  0
  6  9  1  0
  6 10  1  0
  7 11  1  0
  8  5  1  0
  8 12  2  0
  8  9  5  0
  9 13  2  0
 10 11  1  0
 11 26  1  0
 13 15  5  0
 26 27  1  0
 14 12  5  0
 14 17  1  0
 14 15  2  0
 27 28  2  0
 27 29  5  0
 17 18  1  0
 17 19  1  0
 28 30  5  0
 29 31  2  0
 18 20  2  0
 18 21  1  0
 19 22  1  0
 30 32  2  0
 31 32  5  0
 21 23  1  0
 22 23  1  0
 23 24  2  0
  3 16  1  0
 21 25  1  0
M  END
> <ID>
EDEL-CRBN-0005_ent

> <Stereoisomer>
enantiomer

> <MW>
404.18

> <HBD>
2

> <HBA>
4

> <RotBonds>
3

> <cLogP>
1.98

> <minimizedAffinity>
-6.87598

> <CNNscore>
0.1922088712

> <CNNaffinity>
4.5161881447

> <CNN_VS>
0.8680514097

> <CNNaffinity_variance>
0.6669337153

> <Compound_Name>
EDEL-CRBN-0005_ent

> <Pose_Rank>
4
$$$$
EDEL-CRBN-0005_ent


 32 36  0  0  0  0  0  0  0  0999 V2000
   81.7353  151.1271   14.0200 O   0  0  0  0  0  0  0  0  0  0  0  0
   82.4327  151.4261   14.9920 C   0  0  0  0  0  0  0  0  0  0  0  0
   82.3523  150.6338   16.0972 N   0  0  0  0  0  0  0  0  0  0  0  0
   83.2512  152.7089   15.0224 C   0  0  0  0  0  0  0  0  0  0  0  0
   83.2369  150.6622   17.2356 C   0  0  0  0  0  0  0  0  0  0  0  0
   84.5433  152.8230   15.8462 C   0  0  0  0  0  0  0  0  0  0  0  0
   83.6633  153.1309   13.5991 C   0  0  0  0  0  0  0  0  0  0  0  0
   84.6627  150.4870   16.7832 C   0  0  0  0  0  0  0  0  0  0  0  0
   85.2912  151.5128   16.0494 C   0  0  0  0  0  0  0  0  0  0  0  0
   85.2693  153.9535   15.1000 C   0  0  0  0  0  0  0  0  0  0  0  0
   85.0500  153.6113   13.6959 N   0  0  0  0  0  0  0  0  0  0  0  0
   85.3328  149.2728   17.0259 C   0  0  0  0  0  0  0  0  0  0  0  0
   86.5837  151.2792   15.5724 C   0  0  0  0  0  0  0  0  0  0  0  0
   86.6338  149.0421   16.5621 C   0  0  0  0  0  0  0  0  0  0  0  0
   87.2410  150.0667   15.8247 C   0  0  0  0  0  0  0  0  0  0  0  0
   81.6186  149.9777   16.1210 H   0  0  0  0  0  0  0  0  0  0  0  0
   87.3046  147.7949   16.8078 N   0  0  0  0  0  0  0  0  0  0  0  0
   88.3347  147.6786   17.7484 C   0  0  0  0  0  0  0  0  0  0  0  0
   87.0797  146.6676   15.9069 C   0  0  0  0  0  0  0  0  0  0  0  0
   88.7753  148.5684   18.4720 O   0  0  0  0  0  0  0  0  0  0  0  0
   88.9023  146.4296   17.8459 N   0  0  0  0  0  0  0  0  0  0  0  0
   87.0736  145.3584   16.6677 C   0  0  0  0  0  0  0  0  0  0  0  0
   88.3345  145.2464   17.4660 C   0  0  0  0  0  0  0  0  0  0  0  0
   88.7923  144.1667   17.8295 O   0  0  0  0  0  0  0  0  0  0  0  0
   89.8086  146.3835   18.2277 H   0  0  0  0  0  0  0  0  0  0  0  0
   85.3427  154.6970   12.7610 C   0  0  0  0  0  0  0  0  0  0  0  0
   85.1957  156.0642   13.3941 C   0  0  0  0  0  0  0  0  0  0  0  0
   84.8051  156.1967   14.7339 C   0  0  0  0  0  0  0  0  0  0  0  0
   85.4511  157.2226   12.6442 C   0  0  0  0  0  0  0  0  0  0  0  0
   84.6725  157.4616   15.3101 C   0  0  0  0  0  0  0  0  0  0  0  0
   85.3182  158.4858   13.2217 C   0  0  0  0  0  0  0  0  0  0  0  0
   84.9284  158.6047   14.5543 C   0  0  0  0  0  0  0  0  0  0  0  0
  1  2  2  0
  2  3  1  0
  3  5  1  0
  4  2  1  0
  4  6  1  0
  4  7  1  0
  6  9  1  0
  6 10  1  0
  7 11  1  0
  8  5  1  0
  8 12  2  0
  8  9  5  0
  9 13  2  0
 10 11  1  0
 11 26  1  0
 13 15  5  0
 26 27  1  0
 14 12  5  0
 14 17  1  0
 14 15  2  0
 27 28  2  0
 27 29  5  0
 17 18  1  0
 17 19  1  0
 28 30  5  0
 29 31  2  0
 18 20  2  0
 18 21  1  0
 19 22  1  0
 30 32  2  0
 31 32  5  0
 21 23  1  0
 22 23  1  0
 23 24  2  0
  3 16  1  0
 21 25  1  0
M  END
> <ID>
EDEL-CRBN-0005_ent

> <Stereoisomer>
enantiomer

> <MW>
404.18

> <HBD>
2

> <HBA>
4

> <RotBonds>
3

> <cLogP>
1.98

> <minimizedAffinity>
-8.94898

> <CNNscore>
0.1508354694

> <CNNaffinity>
4.8255772591

> <CNN_VS>
0.7278681993

> <CNNaffinity_variance>
0.7842229009

> <Compound_Name>
EDEL-CRBN-0005_ent

> <Pose_Rank>
5
$$$$
EDEL-CRBN-0005


 32 36  0  0  0  0  0  0  0  0999 V2000
   85.3429  148.4815   14.5056 O   0  0  0  0  0  0  0  0  0  0  0  0
   84.8895  149.3976   13.8251 C   0  0  0  0  0  0  0  0  0  0  0  0
   85.7241  150.4019   13.4342 N   0  0  0  0  0  0  0  0  0  0  0  0
   83.4632  149.4606   13.3000 C   0  0  0  0  0  0  0  0  0  0  0  0
   85.3735  151.4686   12.5389 C   0  0  0  0  0  0  0  0  0  0  0  0
   82.6495  150.6862   13.7407 C   0  0  0  0  0  0  0  0  0  0  0  0
   82.6128  148.3100   13.8349 C   0  0  0  0  0  0  0  0  0  0  0  0
   84.4586  152.4606   13.2020 C   0  0  0  0  0  0  0  0  0  0  0  0
   83.2201  152.0952   13.7550 C   0  0  0  0  0  0  0  0  0  0  0  0
   82.0330  150.2371   15.0850 C   0  0  0  0  0  0  0  0  0  0  0  0
   82.1569  148.7791   15.1425 N   0  0  0  0  0  0  0  0  0  0  0  0
   84.8743  153.8135   13.2416 C   0  0  0  0  0  0  0  0  0  0  0  0
   82.4323  153.1202   14.3103 C   0  0  0  0  0  0  0  0  0  0  0  0
   84.1011  154.8282   13.8192 C   0  0  0  0  0  0  0  0  0  0  0  0
   82.8645  154.4523   14.3486 C   0  0  0  0  0  0  0  0  0  0  0  0
   86.6403  150.3954   13.7943 H   0  0  0  0  0  0  0  0  0  0  0  0
   84.5475  156.1953   13.8448 N   0  0  0  0  0  0  0  0  0  0  0  0
   84.6550  156.9658   12.6797 C   0  0  0  0  0  0  0  0  0  0  0  0
   85.1324  156.7391   15.0679 C   0  0  0  0  0  0  0  0  0  0  0  0
   84.3658  156.6205   11.5370 O   0  0  0  0  0  0  0  0  0  0  0  0
   85.1436  158.2389   12.8607 N   0  0  0  0  0  0  0  0  0  0  0  0
   84.7514  158.1930   15.2525 C   0  0  0  0  0  0  0  0  0  0  0  0
   85.1190  158.9594   14.0210 C   0  0  0  0  0  0  0  0  0  0  0  0
   85.3064  160.1726   14.0305 O   0  0  0  0  0  0  0  0  0  0  0  0
   85.5511  158.6735   12.0769 H   0  0  0  0  0  0  0  0  0  0  0  0
   80.9728  148.0763   15.6315 C   0  0  0  0  0  0  0  0  0  0  0  0
   79.7014  148.8900   15.5080 C   0  0  0  0  0  0  0  0  0  0  0  0
   79.1790  149.5699   16.6189 C   0  0  0  0  0  0  0  0  0  0  0  0
   79.0082  148.9523   14.2905 C   0  0  0  0  0  0  0  0  0  0  0  0
   77.9984  150.3060   16.5114 C   0  0  0  0  0  0  0  0  0  0  0  0
   77.8261  149.6884   14.1849 C   0  0  0  0  0  0  0  0  0  0  0  0
   77.3224  150.3652   15.2945 C   0  0  0  0  0  0  0  0  0  0  0  0
  1  2  2  0
  2  3  1  0
  3  5  1  0
  4  2  1  0
  4  6  1  0
  4  7  1  0
  6  9  1  0
  6 10  1  0
  7 11  1  0
  8  5  1  0
  8 12  2  0
  8  9  5  0
  9 13  2  0
 10 11  1  0
 11 26  1  0
 13 15  5  0
 26 27  1  0
 14 12  5  0
 14 17  1  0
 14 15  2  0
 27 28  2  0
 27 29  5  0
 17 18  1  0
 17 19  1  0
 28 30  5  0
 29 31  2  0
 18 20  2  0
 18 21  1  0
 19 22  1  0
 30 32  2  0
 31 32  5  0
 21 23  1  0
 22 23  1  0
 23 24  2  0
  3 16  1  0
 21 25  1  0
M  END
> <ID>
EDEL-CRBN-0005

> <Stereoisomer>
original

> <MW>
404.18

> <HBD>
2

> <HBA>
4

> <RotBonds>
3

> <cLogP>
1.98

> <minimizedAffinity>
-10.16652

> <CNNscore>
0.8544766903

> <CNNaffinity>
7.0146789551

> <CNN_VS>
5.9938797951

> <CNNaffinity_variance>
0.0678329691

> <Compound_Name>
EDEL-CRBN-0005

> <Pose_Rank>
1
$$$$
EDEL-CRBN-0005


 32 36  0  0  0  0  0  0  0  0999 V2000
   82.0875  149.5721   17.0874 O   0  0  0  0  0  0  0  0  0  0  0  0
   83.0483  150.0918   16.5265 C   0  0  0  0  0  0  0  0  0  0  0  0
   83.5918  151.2207   17.0634 N   0  0  0  0  0  0  0  0  0  0  0  0
   83.7496  149.5191   15.3042 C   0  0  0  0  0  0  0  0  0  0  0  0
   84.7855  151.8680   16.5963 C   0  0  0  0  0  0  0  0  0  0  0  0
   83.7754  150.4305   14.0685 C   0  0  0  0  0  0  0  0  0  0  0  0
   83.0304  148.2828   14.7677 C   0  0  0  0  0  0  0  0  0  0  0  0
   84.5478  152.5789   15.2929 C   0  0  0  0  0  0  0  0  0  0  0  0
   84.0796  151.9180   14.1452 C   0  0  0  0  0  0  0  0  0  0  0  0
   82.4504  150.0896   13.3493 C   0  0  0  0  0  0  0  0  0  0  0  0
   81.9747  148.8248   13.9136 N   0  0  0  0  0  0  0  0  0  0  0  0
   84.8323  153.9648   15.2389 C   0  0  0  0  0  0  0  0  0  0  0  0
   83.9373  152.6816   12.9721 C   0  0  0  0  0  0  0  0  0  0  0  0
   84.6640  154.7292   14.0777 C   0  0  0  0  0  0  0  0  0  0  0  0
   84.2151  154.0545   12.9403 C   0  0  0  0  0  0  0  0  0  0  0  0
   83.1290  151.6244   17.8328 H   0  0  0  0  0  0  0  0  0  0  0  0
   84.9619  156.1362   14.0506 N   0  0  0  0  0  0  0  0  0  0  0  0
   85.2674  156.8103   12.8612 C   0  0  0  0  0  0  0  0  0  0  0  0
   85.1895  156.8484   15.3056 C   0  0  0  0  0  0  0  0  0  0  0  0
   85.2884  156.3360   11.7283 O   0  0  0  0  0  0  0  0  0  0  0  0
   85.5784  158.1426   13.0045 N   0  0  0  0  0  0  0  0  0  0  0  0
   84.6414  158.2583   15.2372 C   0  0  0  0  0  0  0  0  0  0  0  0
   85.2146  158.9530   14.0422 C   0  0  0  0  0  0  0  0  0  0  0  0
   85.2800  160.1760   13.9587 O   0  0  0  0  0  0  0  0  0  0  0  0
   86.1160  158.5523   12.2888 H   0  0  0  0  0  0  0  0  0  0  0  0
   81.4666  147.8638   12.9371 C   0  0  0  0  0  0  0  0  0  0  0  0
   80.0088  148.0803   12.5883 C   0  0  0  0  0  0  0  0  0  0  0  0
   79.1859  148.8602   13.4152 C   0  0  0  0  0  0  0  0  0  0  0  0
   79.4492  147.4802   11.4510 C   0  0  0  0  0  0  0  0  0  0  0  0
   77.8382  149.0466   13.1049 C   0  0  0  0  0  0  0  0  0  0  0  0
   78.1000  147.6667   11.1425 C   0  0  0  0  0  0  0  0  0  0  0  0
   77.2958  148.4500   11.9686 C   0  0  0  0  0  0  0  0  0  0  0  0
  1  2  2  0
  2  3  1  0
  3  5  1  0
  4  2  1  0
  4  6  1  0
  4  7  1  0
  6  9  1  0
  6 10  1  0
  7 11  1  0
  8  5  1  0
  8 12  2  0
  8  9  5  0
  9 13  2  0
 10 11  1  0
 11 26  1  0
 13 15  5  0
 26 27  1  0
 14 12  5  0
 14 17  1  0
 14 15  2  0
 27 28  2  0
 27 29  5  0
 17 18  1  0
 17 19  1  0
 28 30  5  0
 29 31  2  0
 18 20  2  0
 18 21  1  0
 19 22  1  0
 30 32  2  0
 31 32  5  0
 21 23  1  0
 22 23  1  0
 23 24  2  0
  3 16  1  0
 21 25  1  0
M  END
> <ID>
EDEL-CRBN-0005

> <Stereoisomer>
original

> <MW>
404.18

> <HBD>
2

> <HBA>
4

> <RotBonds>
3

> <cLogP>
1.98

> <minimizedAffinity>
-9.80348

> <CNNscore>
0.8240703940

> <CNNaffinity>
7.0431103706

> <CNN_VS>
5.8040189743

> <CNNaffinity_variance>
0.0739509165

> <Compound_Name>
EDEL-CRBN-0005

> <Pose_Rank>
2
$$$$
EDEL-CRBN-0005


 32 36  0  0  0  0  0  0  0  0999 V2000
   81.4754  150.9538   14.3894 O   0  0  0  0  0  0  0  0  0  0  0  0
   81.3855  151.0631   15.6092 C   0  0  0  0  0  0  0  0  0  0  0  0
   82.5164  151.2961   16.3337 N   0  0  0  0  0  0  0  0  0  0  0  0
   80.0772  151.0447   16.3849 C   0  0  0  0  0  0  0  0  0  0  0  0
   82.5552  151.5694   17.7430 C   0  0  0  0  0  0  0  0  0  0  0  0
   79.9557  149.9465   17.4514 C   0  0  0  0  0  0  0  0  0  0  0  0
   78.8873  150.7355   15.4785 C   0  0  0  0  0  0  0  0  0  0  0  0
   82.2709  150.3318   18.5481 C   0  0  0  0  0  0  0  0  0  0  0  0
   81.0856  149.5918   18.4045 C   0  0  0  0  0  0  0  0  0  0  0  0
   79.3921  148.7447   16.6595 C   0  0  0  0  0  0  0  0  0  0  0  0
   78.8664  149.2756   15.4000 N   0  0  0  0  0  0  0  0  0  0  0  0
   83.2421  149.9267   19.4954 C   0  0  0  0  0  0  0  0  0  0  0  0
   80.9141  148.4763   19.2446 C   0  0  0  0  0  0  0  0  0  0  0  0
   83.0819  148.8001   20.3117 C   0  0  0  0  0  0  0  0  0  0  0  0
   81.8906  148.0852   20.1701 C   0  0  0  0  0  0  0  0  0  0  0  0
   83.3750  151.2753   15.8525 H   0  0  0  0  0  0  0  0  0  0  0  0
   84.0847  148.4117   21.2670 N   0  0  0  0  0  0  0  0  0  0  0  0
   83.8134  148.3255   22.6386 C   0  0  0  0  0  0  0  0  0  0  0  0
   85.4827  148.3309   20.8509 C   0  0  0  0  0  0  0  0  0  0  0  0
   82.7340  148.5209   23.1913 O   0  0  0  0  0  0  0  0  0  0  0  0
   84.8874  147.9896   23.4297 N   0  0  0  0  0  0  0  0  0  0  0  0
   86.1924  147.1903   21.5497 C   0  0  0  0  0  0  0  0  0  0  0  0
   86.0153  147.3314   23.0288 C   0  0  0  0  0  0  0  0  0  0  0  0
   86.7849  146.8201   23.8370 O   0  0  0  0  0  0  0  0  0  0  0  0
   84.8385  148.2492   24.3781 H   0  0  0  0  0  0  0  0  0  0  0  0
   77.5718  148.7340   14.9926 C   0  0  0  0  0  0  0  0  0  0  0  0
   77.4399  148.5647   13.4934 C   0  0  0  0  0  0  0  0  0  0  0  0
   78.4581  149.0044   12.6337 C   0  0  0  0  0  0  0  0  0  0  0  0
   76.2856  147.9947   12.9373 C   0  0  0  0  0  0  0  0  0  0  0  0
   78.3309  148.8650   11.2511 C   0  0  0  0  0  0  0  0  0  0  0  0
   76.1592  147.8570   11.5533 C   0  0  0  0  0  0  0  0  0  0  0  0
   77.1817  148.2912   10.7114 C   0  0  0  0  0  0  0  0  0  0  0  0
  1  2  2  0
  2  3  1  0
  3  5  1  0
  4  2  1  0
  4  6  1  0
  4  7  1  0
  6  9  1  0
  6 10  1  0
  7 11  1  0
  8  5  1  0
  8 12  2  0
  8  9  5  0
  9 13  2  0
 10 11  1  0
 11 26  1  0
 13 15  5  0
 26 27  1  0
 14 12  5  0
 14 17  1  0
 14 15  2  0
 27 28  2  0
 27 29  5  0
 17 18  1  0
 17 19  1  0
 28 30  5  0
 29 31  2  0
 18 20  2  0
 18 21  1  0
 19 22  1  0
 30 32  2  0
 31 32  5  0
 21 23  1  0
 22 23  1  0
 23 24  2  0
  3 16  1  0
 21 25  1  0
M  END
> <ID>
EDEL-CRBN-0005

> <Stereoisomer>
original

> <MW>
404.18

> <HBD>
2

> <HBA>
4

> <RotBonds>
3

> <cLogP>
1.98

> <minimizedAffinity>
-6.38094

> <CNNscore>
0.2425600141

> <CNNaffinity>
4.5161132812

> <CNN_VS>
1.0954284668

> <CNNaffinity_variance>
0.5426910520

> <Compound_Name>
EDEL-CRBN-0005

> <Pose_Rank>
3
$$$$
EDEL-CRBN-0005


 32 36  0  0  0  0  0  0  0  0999 V2000
   87.0472  147.7601    9.9786 O   0  0  0  0  0  0  0  0  0  0  0  0
   87.5121  148.6650   10.6664 C   0  0  0  0  0  0  0  0  0  0  0  0
   86.7849  149.1290   11.7218 N   0  0  0  0  0  0  0  0  0  0  0  0
   88.8984  149.2642   10.4848 C   0  0  0  0  0  0  0  0  0  0  0  0
   87.2443  150.0893   12.6857 C   0  0  0  0  0  0  0  0  0  0  0  0
   88.9353  150.7740   10.2062 C   0  0  0  0  0  0  0  0  0  0  0  0
   89.6008  148.6998    9.2514 C   0  0  0  0  0  0  0  0  0  0  0  0
   87.3051  151.4707   12.0952 C   0  0  0  0  0  0  0  0  0  0  0  0
   88.0732  151.7745   10.9589 C   0  0  0  0  0  0  0  0  0  0  0  0
   88.8043  150.8534    8.6681 C   0  0  0  0  0  0  0  0  0  0  0  0
   89.0983  149.5165    8.1477 N   0  0  0  0  0  0  0  0  0  0  0  0
   86.5663  152.4932   12.7380 C   0  0  0  0  0  0  0  0  0  0  0  0
   88.0847  153.1128   10.5252 C   0  0  0  0  0  0  0  0  0  0  0  0
   86.5571  153.8195   12.2887 C   0  0  0  0  0  0  0  0  0  0  0  0
   87.3397  154.1096   11.1689 C   0  0  0  0  0  0  0  0  0  0  0  0
   85.8718  148.7778   11.8320 H   0  0  0  0  0  0  0  0  0  0  0  0
   85.7979  154.8391   12.9619 N   0  0  0  0  0  0  0  0  0  0  0  0
   85.2450  154.6389   14.2334 C   0  0  0  0  0  0  0  0  0  0  0  0
   85.3802  156.0299   12.2260 C   0  0  0  0  0  0  0  0  0  0  0  0
   85.3518  153.6366   14.9353 O   0  0  0  0  0  0  0  0  0  0  0  0
   84.5041  155.6891   14.7235 N   0  0  0  0  0  0  0  0  0  0  0  0
   85.4139  157.2565   13.1135 C   0  0  0  0  0  0  0  0  0  0  0  0
   84.6023  156.9976   14.3437 C   0  0  0  0  0  0  0  0  0  0  0  0
   84.1223  157.9029   15.0197 O   0  0  0  0  0  0  0  0  0  0  0  0
   83.8374  155.4769   15.4162 H   0  0  0  0  0  0  0  0  0  0  0  0
   89.9571  149.4877    6.9657 C   0  0  0  0  0  0  0  0  0  0  0  0
   89.2819  148.8854    5.7512 C   0  0  0  0  0  0  0  0  0  0  0  0
   89.9377  148.8582    4.5108 C   0  0  0  0  0  0  0  0  0  0  0  0
   87.9793  148.3734    5.8379 C   0  0  0  0  0  0  0  0  0  0  0  0
   89.3107  148.3194    3.3866 C   0  0  0  0  0  0  0  0  0  0  0  0
   87.3526  147.8356    4.7116 C   0  0  0  0  0  0  0  0  0  0  0  0
   88.0185  147.8082    3.4874 C   0  0  0  0  0  0  0  0  0  0  0  0
  1  2  2  0
  2  3  1  0
  3  5  1  0
  4  2  1  0
  4  6  1  0
  4  7  1  0
  6  9  1  0
  6 10  1  0
  7 11  1  0
  8  5  1  0
  8 12  2  0
  8  9  5  0
  9 13  2  0
 10 11  1  0
 11 26  1  0
 13 15  5  0
 26 27  1  0
 14 12  5  0
 14 17  1  0
 14 15  2  0
 27 28  2  0
 27 29  5  0
 17 18  1  0
 17 19  1  0
 28 30  5  0
 29 31  2  0
 18 20  2  0
 18 21  1  0
 19 22  1  0
 30 32  2  0
 31 32  5  0
 21 23  1  0
 22 23  1  0
 23 24  2  0
  3 16  1  0
 21 25  1  0
M  END
> <ID>
EDEL-CRBN-0005

> <Stereoisomer>
original

> <MW>
404.18

> <HBD>
2

> <HBA>
4

> <RotBonds>
3

> <cLogP>
1.98

> <minimizedAffinity>
-7.06983

> <CNNscore>
0.2271275073

> <CNNaffinity>
4.7228999138

> <CNN_VS>
1.0727005005

> <CNNaffinity_variance>
0.5887758136

> <Compound_Name>
EDEL-CRBN-0005

> <Pose_Rank>
4
$$$$
EDEL-CRBN-0005


 32 36  0  0  0  0  0  0  0  0999 V2000
   80.9361  152.3894   14.7002 O   0  0  0  0  0  0  0  0  0  0  0  0
   81.3363  151.3917   15.2938 C   0  0  0  0  0  0  0  0  0  0  0  0
   80.4245  150.5647   15.8791 N   0  0  0  0  0  0  0  0  0  0  0  0
   82.7900  150.9485   15.3576 C   0  0  0  0  0  0  0  0  0  0  0  0
   80.7266  149.3039   16.4969 C   0  0  0  0  0  0  0  0  0  0  0  0
   83.3850  150.8322   16.7685 C   0  0  0  0  0  0  0  0  0  0  0  0
   83.7211  151.9700   14.7072 C   0  0  0  0  0  0  0  0  0  0  0  0
   81.4280  149.4942   17.8131 C   0  0  0  0  0  0  0  0  0  0  0  0
   82.6373  150.1992   17.9309 C   0  0  0  0  0  0  0  0  0  0  0  0
   83.9075  152.2591   17.0512 C   0  0  0  0  0  0  0  0  0  0  0  0
   83.9693  152.9514   15.7622 N   0  0  0  0  0  0  0  0  0  0  0  0
   80.8375  148.9146   18.9621 C   0  0  0  0  0  0  0  0  0  0  0  0
   83.2206  150.2734   19.2091 C   0  0  0  0  0  0  0  0  0  0  0  0
   81.4055  149.0128   20.2384 C   0  0  0  0  0  0  0  0  0  0  0  0
   82.6167  149.7012   20.3364 C   0  0  0  0  0  0  0  0  0  0  0  0
   79.4837  150.8547   15.8782 H   0  0  0  0  0  0  0  0  0  0  0  0
   80.7844  148.4132   21.3889 N   0  0  0  0  0  0  0  0  0  0  0  0
   81.3696  148.4604   22.6609 C   0  0  0  0  0  0  0  0  0  0  0  0
   79.6373  147.5269   21.2081 C   0  0  0  0  0  0  0  0  0  0  0  0
   82.4185  149.0195   22.9706 O   0  0  0  0  0  0  0  0  0  0  0  0
   80.6793  147.7986   23.6497 N   0  0  0  0  0  0  0  0  0  0  0  0
   78.6431  147.6876   22.3390 C   0  0  0  0  0  0  0  0  0  0  0  0
   79.3472  147.4965   23.6455 C   0  0  0  0  0  0  0  0  0  0  0  0
   78.7570  147.1699   24.6712 O   0  0  0  0  0  0  0  0  0  0  0  0
   81.1963  147.5148   24.4380 H   0  0  0  0  0  0  0  0  0  0  0  0
   85.1759  153.7464   15.5441 C   0  0  0  0  0  0  0  0  0  0  0  0
   84.9669  154.8982   14.5832 C   0  0  0  0  0  0  0  0  0  0  0  0
   84.6666  154.6560   13.2340 C   0  0  0  0  0  0  0  0  0  0  0  0
   85.1007  156.2248   15.0178 C   0  0  0  0  0  0  0  0  0  0  0  0
   84.4908  155.7157   12.3433 C   0  0  0  0  0  0  0  0  0  0  0  0
   84.9257  157.2843   14.1249 C   0  0  0  0  0  0  0  0  0  0  0  0
   84.6202  157.0294   12.7891 C   0  0  0  0  0  0  0  0  0  0  0  0
  1  2  2  0
  2  3  1  0
  3  5  1  0
  4  2  1  0
  4  6  1  0
  4  7  1  0
  6  9  1  0
  6 10  1  0
  7 11  1  0
  8  5  1  0
  8 12  2  0
  8  9  5  0
  9 13  2  0
 10 11  1  0
 11 26  1  0
 13 15  5  0
 26 27  1  0
 14 12  5  0
 14 17  1  0
 14 15  2  0
 27 28  2  0
 27 29  5  0
 17 18  1  0
 17 19  1  0
 28 30  5  0
 29 31  2  0
 18 20  2  0
 18 21  1  0
 19 22  1  0
 30 32  2  0
 31 32  5  0
 21 23  1  0
 22 23  1  0
 23 24  2  0
  3 16  1  0
 21 25  1  0
M  END
> <ID>
EDEL-CRBN-0005

> <Stereoisomer>
original

> <MW>
404.18

> <HBD>
2

> <HBA>
4

> <RotBonds>
3

> <cLogP>
1.98

> <minimizedAffinity>
-9.12321

> <CNNscore>
0.1975620687

> <CNNaffinity>
4.9153919220

> <CNN_VS>
0.9710950255

> <CNNaffinity_variance>
0.7805948257

> <Compound_Name>
EDEL-CRBN-0005

> <Pose_Rank>
5
$$$$
EDEL-CRBN-0006_ent


 34 38  0  0  0  0  0  0  0  0999 V2000
   86.4671  156.1653    3.3291 O   0  0  0  0  0  0  0  0  0  0  0  0
   87.5487  156.6463    2.9990 C   0  0  0  0  0  0  0  0  0  0  0  0
   87.6201  157.9832    2.7313 N   0  0  0  0  0  0  0  0  0  0  0  0
   88.8099  155.8275    2.7877 C   0  0  0  0  0  0  0  0  0  0  0  0
   88.8531  158.7048    2.5722 C   0  0  0  0  0  0  0  0  0  0  0  0
   90.0711  156.1943    3.6174 C   0  0  0  0  0  0  0  0  0  0  0  0
   88.5486  154.3467    3.0943 C   0  0  0  0  0  0  0  0  0  0  0  0
   89.6032  158.7004    3.8763 C   0  0  0  0  0  0  0  0  0  0  0  0
   90.1470  157.5059    4.3920 C   0  0  0  0  0  0  0  0  0  0  0  0
   90.3259  154.9144    4.4387 C   0  0  0  0  0  0  0  0  0  0  0  0
   89.8504  153.8502    3.5497 N   0  0  0  0  0  0  0  0  0  0  0  0
   89.7201  159.9047    4.5997 C   0  0  0  0  0  0  0  0  0  0  0  0
   90.8459  157.5806    5.6119 C   0  0  0  0  0  0  0  0  0  0  0  0
   90.4190  159.9689    5.8123 C   0  0  0  0  0  0  0  0  0  0  0  0
   90.9876  158.7886    6.3125 C   0  0  0  0  0  0  0  0  0  0  0  0
   86.7766  158.4829    2.6418 H   0  0  0  0  0  0  0  0  0  0  0  0
   90.5236  161.2093    6.5140 N   0  0  0  0  0  0  0  0  0  0  0  0
   91.4485  162.1790    6.1256 C   0  0  0  0  0  0  0  0  0  0  0  0
   89.4823  161.5915    7.4547 C   0  0  0  0  0  0  0  0  0  0  0  0
   92.1710  162.1429    5.1323 O   0  0  0  0  0  0  0  0  0  0  0  0
   91.4922  163.2937    6.9326 N   0  0  0  0  0  0  0  0  0  0  0  0
   90.0905  162.2929    8.6500 C   0  0  0  0  0  0  0  0  0  0  0  0
   90.9287  163.4412    8.1703 C   0  0  0  0  0  0  0  0  0  0  0  0
   91.1515  164.4289    8.8652 O   0  0  0  0  0  0  0  0  0  0  0  0
   91.9834  164.0705    6.5798 H   0  0  0  0  0  0  0  0  0  0  0  0
   91.5401  158.8006    7.5715 O   0  0  0  0  0  0  0  0  0  0  0  0
   92.9428  159.0654    7.5657 C   0  0  0  0  0  0  0  0  0  0  0  0
   89.7286  152.5522    4.2242 C   0  0  0  0  0  0  0  0  0  0  0  0
   89.7906  152.6652    5.7327 C   0  0  0  0  0  0  0  0  0  0  0  0
   91.0015  152.4783    6.4150 C   0  0  0  0  0  0  0  0  0  0  0  0
   88.6363  152.9653    6.4714 C   0  0  0  0  0  0  0  0  0  0  0  0
   91.0547  152.5878    7.8059 C   0  0  0  0  0  0  0  0  0  0  0  0
   88.6911  153.0739    7.8617 C   0  0  0  0  0  0  0  0  0  0  0  0
   89.9004  152.8855    8.5282 C   0  0  0  0  0  0  0  0  0  0  0  0
  1  2  2  0
  2  3  1  0
  3  5  1  0
  4  2  1  0
  4  6  1  0
  4  7  1  0
  6  9  1  0
  6 10  1  0
  7 11  1  0
  8  5  1  0
  8 12  2  0
  8  9  5  0
  9 13  2  0
 10 11  1  0
 11 28  1  0
 13 15  5  0
 28 29  1  0
 14 12  5  0
 14 17  1  0
 14 15  2  0
 15 26  1  0
 29 30  2  0
 29 31  5  0
 17 18  1  0
 17 19  1  0
 26 27  1  0
 30 32  5  0
 31 33  2  0
 18 20  2  0
 18 21  1  0
 19 22  1  0
 32 34  2  0
 33 34  5  0
 21 23  1  0
 22 23  1  0
 23 24  2  0
  3 16  1  0
 21 25  1  0
M  END
> <ID>
EDEL-CRBN-0006_ent

> <Stereoisomer>
enantiomer

> <MW>
434.2

> <HBD>
2

> <HBA>
5

> <RotBonds>
4

> <cLogP>
1.99

> <minimizedAffinity>
-6.41401

> <CNNscore>
0.1986629069

> <CNNaffinity>
4.5118823051

> <CNN_VS>
0.8963436484

> <CNNaffinity_variance>
0.6926615834

> <Compound_Name>
EDEL-CRBN-0006_ent

> <Pose_Rank>
1
$$$$
EDEL-CRBN-0006_ent


 34 38  0  0  0  0  0  0  0  0999 V2000
   88.0044  153.8093    7.1889 O   0  0  0  0  0  0  0  0  0  0  0  0
   88.5749  153.1354    8.0436 C   0  0  0  0  0  0  0  0  0  0  0  0
   88.9166  153.7249    9.2266 N   0  0  0  0  0  0  0  0  0  0  0  0
   89.0029  151.6932    7.8373 C   0  0  0  0  0  0  0  0  0  0  0  0
   89.3631  153.0000   10.3848 C   0  0  0  0  0  0  0  0  0  0  0  0
   88.4719  150.6208    8.8281 C   0  0  0  0  0  0  0  0  0  0  0  0
   88.5768  151.1979    6.4488 C   0  0  0  0  0  0  0  0  0  0  0  0
   88.2444  152.1288   10.8874 C   0  0  0  0  0  0  0  0  0  0  0  0
   87.7949  151.0250   10.1336 C   0  0  0  0  0  0  0  0  0  0  0  0
   87.6598  149.6813    7.9141 C   0  0  0  0  0  0  0  0  0  0  0  0
   88.3776  149.7581    6.6383 N   0  0  0  0  0  0  0  0  0  0  0  0
   87.6207  152.4565   12.1085 C   0  0  0  0  0  0  0  0  0  0  0  0
   86.7517  150.2482   10.6726 C   0  0  0  0  0  0  0  0  0  0  0  0
   86.5841  151.6762   12.6372 C   0  0  0  0  0  0  0  0  0  0  0  0
   86.1557  150.5597   11.9047 C   0  0  0  0  0  0  0  0  0  0  0  0
   88.8535  154.7054    9.2902 H   0  0  0  0  0  0  0  0  0  0  0  0
   85.9809  152.0347   13.8819 N   0  0  0  0  0  0  0  0  0  0  0  0
   86.4105  151.4630   15.0799 C   0  0  0  0  0  0  0  0  0  0  0  0
   85.1143  153.2007   13.9497 C   0  0  0  0  0  0  0  0  0  0  0  0
   87.3695  150.7088   15.2266 O   0  0  0  0  0  0  0  0  0  0  0  0
   85.6946  151.8435   16.1926 N   0  0  0  0  0  0  0  0  0  0  0  0
   83.9569  152.9370   14.8887 C   0  0  0  0  0  0  0  0  0  0  0  0
   84.4950  152.5005   16.2194 C   0  0  0  0  0  0  0  0  0  0  0  0
   83.8738  152.6632   17.2662 O   0  0  0  0  0  0  0  0  0  0  0  0
   86.0897  151.6178   17.0657 H   0  0  0  0  0  0  0  0  0  0  0  0
   85.0408  149.8762   12.3294 O   0  0  0  0  0  0  0  0  0  0  0  0
   85.3491  148.6178   12.9286 C   0  0  0  0  0  0  0  0  0  0  0  0
   87.6299  149.1640    5.5237 C   0  0  0  0  0  0  0  0  0  0  0  0
   87.2312  150.1803    4.4749 C   0  0  0  0  0  0  0  0  0  0  0  0
   86.0136  150.8692    4.5725 C   0  0  0  0  0  0  0  0  0  0  0  0
   88.0787  150.4533    3.3906 C   0  0  0  0  0  0  0  0  0  0  0  0
   85.6521  151.8089    3.6052 C   0  0  0  0  0  0  0  0  0  0  0  0
   87.7156  151.3924    2.4243 C   0  0  0  0  0  0  0  0  0  0  0  0
   86.5026  152.0701    2.5323 C   0  0  0  0  0  0  0  0  0  0  0  0
  1  2  2  0
  2  3  1  0
  3  5  1  0
  4  2  1  0
  4  6  1  0
  4  7  1  0
  6  9  1  0
  6 10  1  0
  7 11  1  0
  8  5  1  0
  8 12  2  0
  8  9  5  0
  9 13  2  0
 10 11  1  0
 11 28  1  0
 13 15  5  0
 28 29  1  0
 14 12  5  0
 14 17  1  0
 14 15  2  0
 15 26  1  0
 29 30  2  0
 29 31  5  0
 17 18  1  0
 17 19  1  0
 26 27  1  0
 30 32  5  0
 31 33  2  0
 18 20  2  0
 18 21  1  0
 19 22  1  0
 32 34  2  0
 33 34  5  0
 21 23  1  0
 22 23  1  0
 23 24  2  0
  3 16  1  0
 21 25  1  0
M  END
> <ID>
EDEL-CRBN-0006_ent

> <Stereoisomer>
enantiomer

> <MW>
434.2

> <HBD>
2

> <HBA>
5

> <RotBonds>
4

> <cLogP>
1.99

> <minimizedAffinity>
-6.28910

> <CNNscore>
0.1799313128

> <CNNaffinity>
4.4464316368

> <CNN_VS>
0.8000522852

> <CNNaffinity_variance>
1.3966172934

> <Compound_Name>
EDEL-CRBN-0006_ent

> <Pose_Rank>
2
$$$$
EDEL-CRBN-0006_ent


 34 38  0  0  0  0  0  0  0  0999 V2000
   88.4301  154.0638    8.0239 O   0  0  0  0  0  0  0  0  0  0  0  0
   88.7921  153.1708    8.7867 C   0  0  0  0  0  0  0  0  0  0  0  0
   89.1956  153.5055   10.0472 N   0  0  0  0  0  0  0  0  0  0  0  0
   88.8988  151.7094    8.3884 C   0  0  0  0  0  0  0  0  0  0  0  0
   89.4102  152.5514   11.1008 C   0  0  0  0  0  0  0  0  0  0  0  0
   88.0928  150.6643    9.2081 C   0  0  0  0  0  0  0  0  0  0  0  0
   88.4446  151.5121    6.9360 C   0  0  0  0  0  0  0  0  0  0  0  0
   88.1016  151.8985   11.4538 C   0  0  0  0  0  0  0  0  0  0  0  0
   87.4570  151.0354   10.5438 C   0  0  0  0  0  0  0  0  0  0  0  0
   87.1398  150.0634    8.1554 C   0  0  0  0  0  0  0  0  0  0  0  0
   87.9209  150.1432    6.9175 N   0  0  0  0  0  0  0  0  0  0  0  0
   87.5050  152.1949   12.6963 C   0  0  0  0  0  0  0  0  0  0  0  0
   86.2411  150.4517   10.9477 C   0  0  0  0  0  0  0  0  0  0  0  0
   86.2953  151.6076   13.0896 C   0  0  0  0  0  0  0  0  0  0  0  0
   85.6673  150.7246   12.1992 C   0  0  0  0  0  0  0  0  0  0  0  0
   89.3489  154.4573   10.2466 H   0  0  0  0  0  0  0  0  0  0  0  0
   85.7243  151.9259   14.3601 N   0  0  0  0  0  0  0  0  0  0  0  0
   85.9128  151.0914   15.4623 C   0  0  0  0  0  0  0  0  0  0  0  0
   85.1840  153.2563   14.5909 C   0  0  0  0  0  0  0  0  0  0  0  0
   86.6339  150.0976   15.5110 O   0  0  0  0  0  0  0  0  0  0  0  0
   85.2475  151.4798   16.6033 N   0  0  0  0  0  0  0  0  0  0  0  0
   83.9387  153.1728   15.4471 C   0  0  0  0  0  0  0  0  0  0  0  0
   84.2581  152.4191   16.7044 C   0  0  0  0  0  0  0  0  0  0  0  0
   83.6323  152.5846   17.7480 O   0  0  0  0  0  0  0  0  0  0  0  0
   85.5131  151.0321   17.4389 H   0  0  0  0  0  0  0  0  0  0  0  0
   84.4082  150.2623   12.5017 O   0  0  0  0  0  0  0  0  0  0  0  0
   83.3816  151.2188   12.2389 C   0  0  0  0  0  0  0  0  0  0  0  0
   87.1176  149.8873    5.7159 C   0  0  0  0  0  0  0  0  0  0  0  0
   87.7532  148.8733    4.7885 C   0  0  0  0  0  0  0  0  0  0  0  0
   87.0719  147.6988    4.4378 C   0  0  0  0  0  0  0  0  0  0  0  0
   89.0334  149.0972    4.2601 C   0  0  0  0  0  0  0  0  0  0  0  0
   87.6602  146.7686    3.5787 C   0  0  0  0  0  0  0  0  0  0  0  0
   89.6202  148.1661    3.4019 C   0  0  0  0  0  0  0  0  0  0  0  0
   88.9332  147.0025    3.0613 C   0  0  0  0  0  0  0  0  0  0  0  0
  1  2  2  0
  2  3  1  0
  3  5  1  0
  4  2  1  0
  4  6  1  0
  4  7  1  0
  6  9  1  0
  6 10  1  0
  7 11  1  0
  8  5  1  0
  8 12  2  0
  8  9  5  0
  9 13  2  0
 10 11  1  0
 11 28  1  0
 13 15  5  0
 28 29  1  0
 14 12  5  0
 14 17  1  0
 14 15  2  0
 15 26  1  0
 29 30  2  0
 29 31  5  0
 17 18  1  0
 17 19  1  0
 26 27  1  0
 30 32  5  0
 31 33  2  0
 18 20  2  0
 18 21  1  0
 19 22  1  0
 32 34  2  0
 33 34  5  0
 21 23  1  0
 22 23  1  0
 23 24  2  0
  3 16  1  0
 21 25  1  0
M  END
> <ID>
EDEL-CRBN-0006_ent

> <Stereoisomer>
enantiomer

> <MW>
434.2

> <HBD>
2

> <HBA>
5

> <RotBonds>
4

> <cLogP>
1.99

> <minimizedAffinity>
-6.04114

> <CNNscore>
0.1740563512

> <CNNaffinity>
4.6052684784

> <CNN_VS>
0.8015762568

> <CNNaffinity_variance>
0.6951320171

> <Compound_Name>
EDEL-CRBN-0006_ent

> <Pose_Rank>
3
$$$$
EDEL-CRBN-0006_ent


 34 38  0  0  0  0  0  0  0  0999 V2000
   86.3867  156.5758    3.1271 O   0  0  0  0  0  0  0  0  0  0  0  0
   87.5107  156.9888    2.8506 C   0  0  0  0  0  0  0  0  0  0  0  0
   87.6777  158.3186    2.5908 N   0  0  0  0  0  0  0  0  0  0  0  0
   88.7272  156.0932    2.6972 C   0  0  0  0  0  0  0  0  0  0  0  0
   88.9593  158.9623    2.4932 C   0  0  0  0  0  0  0  0  0  0  0  0
   89.9676  156.3807    3.5875 C   0  0  0  0  0  0  0  0  0  0  0  0
   88.3601  154.6315    2.9863 C   0  0  0  0  0  0  0  0  0  0  0  0
   89.6443  158.9110    3.8316 C   0  0  0  0  0  0  0  0  0  0  0  0
   90.0875  157.6849    4.3690 C   0  0  0  0  0  0  0  0  0  0  0  0
   90.1027  155.0872    4.4159 C   0  0  0  0  0  0  0  0  0  0  0  0
   89.6052  154.0549    3.5019 N   0  0  0  0  0  0  0  0  0  0  0  0
   89.8010  160.1056    4.5637 C   0  0  0  0  0  0  0  0  0  0  0  0
   90.7305  157.7157    5.6211 C   0  0  0  0  0  0  0  0  0  0  0  0
   90.4436  160.1260    5.8084 C   0  0  0  0  0  0  0  0  0  0  0  0
   90.9132  158.9125    6.3315 C   0  0  0  0  0  0  0  0  0  0  0  0
   86.8721  158.8699    2.4627 H   0  0  0  0  0  0  0  0  0  0  0  0
   90.5912  161.3573    6.5182 N   0  0  0  0  0  0  0  0  0  0  0  0
   91.5993  162.2625    6.1852 C   0  0  0  0  0  0  0  0  0  0  0  0
   89.5266  161.8093    7.3999 C   0  0  0  0  0  0  0  0  0  0  0  0
   92.3726  162.1770    5.2340 O   0  0  0  0  0  0  0  0  0  0  0  0
   91.6720  163.3726    6.9963 N   0  0  0  0  0  0  0  0  0  0  0  0
   90.1120  162.4698    8.6295 C   0  0  0  0  0  0  0  0  0  0  0  0
   91.0508  163.5588    8.2008 C   0  0  0  0  0  0  0  0  0  0  0  0
   91.2998  164.5301    8.9098 O   0  0  0  0  0  0  0  0  0  0  0  0
   92.2332  164.1144    6.6738 H   0  0  0  0  0  0  0  0  0  0  0  0
   91.4044  158.8899    7.6156 O   0  0  0  0  0  0  0  0  0  0  0  0
   92.8200  159.0623    7.6774 C   0  0  0  0  0  0  0  0  0  0  0  0
   89.3709  152.7668    4.1656 C   0  0  0  0  0  0  0  0  0  0  0  0
   88.0726  152.1139    3.7410 C   0  0  0  0  0  0  0  0  0  0  0  0
   88.0042  151.3577    2.5620 C   0  0  0  0  0  0  0  0  0  0  0  0
   86.9178  152.2509    4.5257 C   0  0  0  0  0  0  0  0  0  0  0  0
   86.8058  150.7537    2.1767 C   0  0  0  0  0  0  0  0  0  0  0  0
   85.7206  151.6470    4.1388 C   0  0  0  0  0  0  0  0  0  0  0  0
   85.6653  150.8984    2.9647 C   0  0  0  0  0  0  0  0  0  0  0  0
  1  2  2  0
  2  3  1  0
  3  5  1  0
  4  2  1  0
  4  6  1  0
  4  7  1  0
  6  9  1  0
  6 10  1  0
  7 11  1  0
  8  5  1  0
  8 12  2  0
  8  9  5  0
  9 13  2  0
 10 11  1  0
 11 28  1  0
 13 15  5  0
 28 29  1  0
 14 12  5  0
 14 17  1  0
 14 15  2  0
 15 26  1  0
 29 30  2  0
 29 31  5  0
 17 18  1  0
 17 19  1  0
 26 27  1  0
 30 32  5  0
 31 33  2  0
 18 20  2  0
 18 21  1  0
 19 22  1  0
 32 34  2  0
 33 34  5  0
 21 23  1  0
 22 23  1  0
 23 24  2  0
  3 16  1  0
 21 25  1  0
M  END
> <ID>
EDEL-CRBN-0006_ent

> <Stereoisomer>
enantiomer

> <MW>
434.2

> <HBD>
2

> <HBA>
5

> <RotBonds>
4

> <cLogP>
1.99

> <minimizedAffinity>
-6.47335

> <CNNscore>
0.1734294444

> <CNNaffinity>
4.3217921257

> <CNN_VS>
0.7495260239

> <CNNaffinity_variance>
0.8509753346

> <Compound_Name>
EDEL-CRBN-0006_ent

> <Pose_Rank>
4
$$$$
EDEL-CRBN-0006_ent


 34 38  0  0  0  0  0  0  0  0999 V2000
   88.4862  147.6927   19.1949 O   0  0  0  0  0  0  0  0  0  0  0  0
   88.1165  147.7906   18.0270 C   0  0  0  0  0  0  0  0  0  0  0  0
   86.9500  147.1876   17.6533 N   0  0  0  0  0  0  0  0  0  0  0  0
   88.9224  148.4781   16.9392 C   0  0  0  0  0  0  0  0  0  0  0  0
   86.2916  147.4232   16.3974 C   0  0  0  0  0  0  0  0  0  0  0  0
   88.2589  149.6489   16.1627 C   0  0  0  0  0  0  0  0  0  0  0  0
   90.2161  149.0668   17.5175 C   0  0  0  0  0  0  0  0  0  0  0  0
   85.8292  148.8536   16.3394 C   0  0  0  0  0  0  0  0  0  0  0  0
   86.7600  149.9106   16.2675 C   0  0  0  0  0  0  0  0  0  0  0  0
   89.1736  150.8443   16.4967 C   0  0  0  0  0  0  0  0  0  0  0  0
   90.4904  150.2199   16.6550 N   0  0  0  0  0  0  0  0  0  0  0  0
   84.4475  149.1266   16.3998 C   0  0  0  0  0  0  0  0  0  0  0  0
   86.2535  151.2227   16.2046 C   0  0  0  0  0  0  0  0  0  0  0  0
   83.9533  150.4360   16.3350 C   0  0  0  0  0  0  0  0  0  0  0  0
   84.8754  151.4877   16.2322 C   0  0  0  0  0  0  0  0  0  0  0  0
   86.5349  146.5535   18.2816 H   0  0  0  0  0  0  0  0  0  0  0  0
   82.5455  150.6739   16.3911 N   0  0  0  0  0  0  0  0  0  0  0  0
   81.8909  150.8287   17.6135 C   0  0  0  0  0  0  0  0  0  0  0  0
   81.8307  151.0398   15.1786 C   0  0  0  0  0  0  0  0  0  0  0  0
   82.4179  150.8847   18.7222 O   0  0  0  0  0  0  0  0  0  0  0  0
   80.5253  150.9793   17.5242 N   0  0  0  0  0  0  0  0  0  0  0  0
   80.4621  150.3938   15.1643 C   0  0  0  0  0  0  0  0  0  0  0  0
   79.7381  150.7514   16.4288 C   0  0  0  0  0  0  0  0  0  0  0  0
   78.5125  150.7785   16.5005 O   0  0  0  0  0  0  0  0  0  0  0  0
   80.0644  151.2847   18.3387 H   0  0  0  0  0  0  0  0  0  0  0  0
   84.4185  152.7812   16.3245 O   0  0  0  0  0  0  0  0  0  0  0  0
   84.7571  153.5777   15.1893 C   0  0  0  0  0  0  0  0  0  0  0  0
   91.4828  151.1200   17.2543 C   0  0  0  0  0  0  0  0  0  0  0  0
   92.5178  151.6005   16.2593 C   0  0  0  0  0  0  0  0  0  0  0  0
   93.7409  152.1283   16.6976 C   0  0  0  0  0  0  0  0  0  0  0  0
   92.2706  151.5189   14.8807 C   0  0  0  0  0  0  0  0  0  0  0  0
   94.6941  152.5661   15.7761 C   0  0  0  0  0  0  0  0  0  0  0  0
   93.2242  151.9574   13.9610 C   0  0  0  0  0  0  0  0  0  0  0  0
   94.4357  152.4804   14.4092 C   0  0  0  0  0  0  0  0  0  0  0  0
  1  2  2  0
  2  3  1  0
  3  5  1  0
  4  2  1  0
  4  6  1  0
  4  7  1  0
  6  9  1  0
  6 10  1  0
  7 11  1  0
  8  5  1  0
  8 12  2  0
  8  9  5  0
  9 13  2  0
 10 11  1  0
 11 28  1  0
 13 15  5  0
 28 29  1  0
 14 12  5  0
 14 17  1  0
 14 15  2  0
 15 26  1  0
 29 30  2  0
 29 31  5  0
 17 18  1  0
 17 19  1  0
 26 27  1  0
 30 32  5  0
 31 33  2  0
 18 20  2  0
 18 21  1  0
 19 22  1  0
 32 34  2  0
 33 34  5  0
 21 23  1  0
 22 23  1  0
 23 24  2  0
  3 16  1  0
 21 25  1  0
M  END
> <ID>
EDEL-CRBN-0006_ent

> <Stereoisomer>
enantiomer

> <MW>
434.2

> <HBD>
2

> <HBA>
5

> <RotBonds>
4

> <cLogP>
1.99

> <minimizedAffinity>
-5.57359

> <CNNscore>
0.1256145388

> <CNNaffinity>
4.0658926964

> <CNN_VS>
0.5107352138

> <CNNaffinity_variance>
0.9299401641

> <Compound_Name>
EDEL-CRBN-0006_ent

> <Pose_Rank>
5
$$$$
EDEL-CRBN-0006


 34 38  0  0  0  0  0  0  0  0999 V2000
   86.9118  150.1164    8.8615 O   0  0  0  0  0  0  0  0  0  0  0  0
   87.2373  150.3893   10.0183 C   0  0  0  0  0  0  0  0  0  0  0  0
   87.8739  151.5652   10.2556 N   0  0  0  0  0  0  0  0  0  0  0  0
   86.9910  149.4084   11.1442 C   0  0  0  0  0  0  0  0  0  0  0  0
   88.1442  152.1389   11.5469 C   0  0  0  0  0  0  0  0  0  0  0  0
   86.3625  149.8919   12.4623 C   0  0  0  0  0  0  0  0  0  0  0  0
   88.2692  148.6778   11.5496 C   0  0  0  0  0  0  0  0  0  0  0  0
   86.8581  152.4055   12.2788 C   0  0  0  0  0  0  0  0  0  0  0  0
   86.0165  151.3513   12.6716 C   0  0  0  0  0  0  0  0  0  0  0  0
   87.3181  149.3683   13.5514 C   0  0  0  0  0  0  0  0  0  0  0  0
   88.0816  148.2605   12.9527 N   0  0  0  0  0  0  0  0  0  0  0  0
   86.4907  153.7387   12.5587 C   0  0  0  0  0  0  0  0  0  0  0  0
   84.8180  151.6691   13.3281 C   0  0  0  0  0  0  0  0  0  0  0  0
   85.2971  154.0654   13.2206 C   0  0  0  0  0  0  0  0  0  0  0  0
   84.4510  153.0000   13.5688 C   0  0  0  0  0  0  0  0  0  0  0  0
   88.1795  152.0731    9.4695 H   0  0  0  0  0  0  0  0  0  0  0  0
   85.0067  155.4376   13.5338 N   0  0  0  0  0  0  0  0  0  0  0  0
   84.7257  156.3733   12.5371 C   0  0  0  0  0  0  0  0  0  0  0  0
   84.8190  155.8368   14.9248 C   0  0  0  0  0  0  0  0  0  0  0  0
   84.6922  156.1606   11.3273 O   0  0  0  0  0  0  0  0  0  0  0  0
   84.4591  157.6450   12.9849 N   0  0  0  0  0  0  0  0  0  0  0  0
   85.4138  157.2073   15.1742 C   0  0  0  0  0  0  0  0  0  0  0  0
   84.8535  158.1779   14.1801 C   0  0  0  0  0  0  0  0  0  0  0  0
   84.8250  159.3883   14.3839 O   0  0  0  0  0  0  0  0  0  0  0  0
   83.9346  158.2269   12.3887 H   0  0  0  0  0  0  0  0  0  0  0  0
   83.2195  153.2055   14.1437 O   0  0  0  0  0  0  0  0  0  0  0  0
   82.6750  154.4473   13.6870 C   0  0  0  0  0  0  0  0  0  0  0  0
   87.3557  146.9823   13.0718 C   0  0  0  0  0  0  0  0  0  0  0  0
   86.2928  147.0017   14.1503 C   0  0  0  0  0  0  0  0  0  0  0  0
   84.9355  146.8816   13.8153 C   0  0  0  0  0  0  0  0  0  0  0  0
   86.6479  147.1197   15.5019 C   0  0  0  0  0  0  0  0  0  0  0  0
   83.9553  146.8858   14.8087 C   0  0  0  0  0  0  0  0  0  0  0  0
   85.6658  147.1238   16.4945 C   0  0  0  0  0  0  0  0  0  0  0  0
   84.3209  147.0067   16.1479 C   0  0  0  0  0  0  0  0  0  0  0  0
  1  2  2  0
  2  3  1  0
  3  5  1  0
  4  2  1  0
  4  6  1  0
  4  7  1  0
  6  9  1  0
  6 10  1  0
  7 11  1  0
  8  5  1  0
  8 12  2  0
  8  9  5  0
  9 13  2  0
 10 11  1  0
 11 28  1  0
 13 15  5  0
 28 29  1  0
 14 12  5  0
 14 17  1  0
 14 15  2  0
 15 26  1  0
 29 30  2  0
 29 31  5  0
 17 18  1  0
 17 19  1  0
 26 27  1  0
 30 32  5  0
 31 33  2  0
 18 20  2  0
 18 21  1  0
 19 22  1  0
 32 34  2  0
 33 34  5  0
 21 23  1  0
 22 23  1  0
 23 24  2  0
  3 16  1  0
 21 25  1  0
M  END
> <ID>
EDEL-CRBN-0006

> <Stereoisomer>
original

> <MW>
434.2

> <HBD>
2

> <HBA>
5

> <RotBonds>
4

> <cLogP>
1.99

> <minimizedAffinity>
-6.52341

> <CNNscore>
0.5001559258

> <CNNaffinity>
6.1107387543

> <CNN_VS>
3.0563220978

> <CNNaffinity_variance>
0.1932324618

> <Compound_Name>
EDEL-CRBN-0006

> <Pose_Rank>
1
$$$$
EDEL-CRBN-0006


 34 38  0  0  0  0  0  0  0  0999 V2000
   87.9160  151.1699    7.5447 O   0  0  0  0  0  0  0  0  0  0  0  0
   88.2374  151.2560    8.7311 C   0  0  0  0  0  0  0  0  0  0  0  0
   88.6370  152.4617    9.2118 N   0  0  0  0  0  0  0  0  0  0  0  0
   88.2486  150.0322    9.6215 C   0  0  0  0  0  0  0  0  0  0  0  0
   88.8510  152.7959   10.5946 C   0  0  0  0  0  0  0  0  0  0  0  0
   87.6025  150.0894   11.0162 C   0  0  0  0  0  0  0  0  0  0  0  0
   89.6657  149.5124    9.8531 C   0  0  0  0  0  0  0  0  0  0  0  0
   87.5756  152.6328   11.3741 C   0  0  0  0  0  0  0  0  0  0  0  0
   86.9824  151.3695   11.5361 C   0  0  0  0  0  0  0  0  0  0  0  0
   88.6965  149.5582   11.9620 C   0  0  0  0  0  0  0  0  0  0  0  0
   89.6354  148.7815   11.1350 N   0  0  0  0  0  0  0  0  0  0  0  0
   86.9634  153.7731   11.9360 C   0  0  0  0  0  0  0  0  0  0  0  0
   85.7787  151.2892   12.2525 C   0  0  0  0  0  0  0  0  0  0  0  0
   85.7630  153.7011   12.6594 C   0  0  0  0  0  0  0  0  0  0  0  0
   85.1654  152.4356   12.7755 C   0  0  0  0  0  0  0  0  0  0  0  0
   88.7953  153.1745    8.5514 H   0  0  0  0  0  0  0  0  0  0  0  0
   85.2199  154.8876   13.2616 N   0  0  0  0  0  0  0  0  0  0  0  0
   84.7008  155.9291   12.4910 C   0  0  0  0  0  0  0  0  0  0  0  0
   85.0336  154.9430   14.7079 C   0  0  0  0  0  0  0  0  0  0  0  0
   84.6433  155.9684   11.2642 O   0  0  0  0  0  0  0  0  0  0  0  0
   84.2089  156.9966   13.2031 N   0  0  0  0  0  0  0  0  0  0  0  0
   85.3530  156.3259   15.2371 C   0  0  0  0  0  0  0  0  0  0  0  0
   84.5539  157.3418   14.4797 C   0  0  0  0  0  0  0  0  0  0  0  0
   84.2935  158.4509   14.9375 O   0  0  0  0  0  0  0  0  0  0  0  0
   83.5454  157.5665   12.7511 H   0  0  0  0  0  0  0  0  0  0  0  0
   83.9479  152.2581   13.3882 O   0  0  0  0  0  0  0  0  0  0  0  0
   83.2306  151.2037   12.7396 C   0  0  0  0  0  0  0  0  0  0  0  0
   89.1867  147.3852   10.9809 C   0  0  0  0  0  0  0  0  0  0  0  0
   89.0893  146.6443   12.2981 C   0  0  0  0  0  0  0  0  0  0  0  0
   90.2213  146.4861   13.1121 C   0  0  0  0  0  0  0  0  0  0  0  0
   87.8635  146.1219   12.7354 C   0  0  0  0  0  0  0  0  0  0  0  0
   90.1308  145.8153   14.3325 C   0  0  0  0  0  0  0  0  0  0  0  0
   87.7749  145.4509   13.9568 C   0  0  0  0  0  0  0  0  0  0  0  0
   88.9076  145.2982   14.7545 C   0  0  0  0  0  0  0  0  0  0  0  0
  1  2  2  0
  2  3  1  0
  3  5  1  0
  4  2  1  0
  4  6  1  0
  4  7  1  0
  6  9  1  0
  6 10  1  0
  7 11  1  0
  8  5  1  0
  8 12  2  0
  8  9  5  0
  9 13  2  0
 10 11  1  0
 11 28  1  0
 13 15  5  0
 28 29  1  0
 14 12  5  0
 14 17  1  0
 14 15  2  0
 15 26  1  0
 29 30  2  0
 29 31  5  0
 17 18  1  0
 17 19  1  0
 26 27  1  0
 30 32  5  0
 31 33  2  0
 18 20  2  0
 18 21  1  0
 19 22  1  0
 32 34  2  0
 33 34  5  0
 21 23  1  0
 22 23  1  0
 23 24  2  0
  3 16  1  0
 21 25  1  0
M  END
> <ID>
EDEL-CRBN-0006

> <Stereoisomer>
original

> <MW>
434.2

> <HBD>
2

> <HBA>
5

> <RotBonds>
4

> <cLogP>
1.99

> <minimizedAffinity>
-6.85814

> <CNNscore>
0.3367069066

> <CNNaffinity>
5.6562447548

> <CNN_VS>
1.9044966698

> <CNNaffinity_variance>
0.2107920200

> <Compound_Name>
EDEL-CRBN-0006

> <Pose_Rank>
2
$$$$
EDEL-CRBN-0006


 34 38  0  0  0  0  0  0  0  0999 V2000
   87.4472  150.3405    8.0061 O   0  0  0  0  0  0  0  0  0  0  0  0
   87.6372  150.3648    9.2234 C   0  0  0  0  0  0  0  0  0  0  0  0
   88.3564  151.3893    9.7501 N   0  0  0  0  0  0  0  0  0  0  0  0
   87.1351  149.2442   10.1083 C   0  0  0  0  0  0  0  0  0  0  0  0
   88.5055  151.6912   11.1488 C   0  0  0  0  0  0  0  0  0  0  0  0
   86.3859  149.5698   11.4116 C   0  0  0  0  0  0  0  0  0  0  0  0
   88.2603  148.2952   10.5147 C   0  0  0  0  0  0  0  0  0  0  0  0
   87.1664  151.9916   11.7632 C   0  0  0  0  0  0  0  0  0  0  0  0
   86.1715  151.0034   11.8501 C   0  0  0  0  0  0  0  0  0  0  0  0
   87.1211  148.7465   12.4863 C   0  0  0  0  0  0  0  0  0  0  0  0
   87.8377  147.6694   11.7827 N   0  0  0  0  0  0  0  0  0  0  0  0
   86.9078  153.2925   12.2444 C   0  0  0  0  0  0  0  0  0  0  0  0
   84.9345  151.3556   12.4109 C   0  0  0  0  0  0  0  0  0  0  0  0
   85.6759  153.6516   12.8126 C   0  0  0  0  0  0  0  0  0  0  0  0
   84.6814  152.6610   12.8534 C   0  0  0  0  0  0  0  0  0  0  0  0
   88.8196  151.9815    9.1145 H   0  0  0  0  0  0  0  0  0  0  0  0
   85.4926  154.9749   13.3424 N   0  0  0  0  0  0  0  0  0  0  0  0
   85.3024  155.1984   14.7069 C   0  0  0  0  0  0  0  0  0  0  0  0
   85.6878  156.1331   12.4763 C   0  0  0  0  0  0  0  0  0  0  0  0
   85.2671  154.3416   15.5870 O   0  0  0  0  0  0  0  0  0  0  0  0
   85.1487  156.5150   15.0697 N   0  0  0  0  0  0  0  0  0  0  0  0
   84.6771  157.2159   12.7933 C   0  0  0  0  0  0  0  0  0  0  0  0
   84.7336  157.5320   14.2565 C   0  0  0  0  0  0  0  0  0  0  0  0
   84.3525  158.6055   14.7147 O   0  0  0  0  0  0  0  0  0  0  0  0
   85.3573  156.7475   16.0033 H   0  0  0  0  0  0  0  0  0  0  0  0
   83.4114  152.9218   13.3096 O   0  0  0  0  0  0  0  0  0  0  0  0
   83.0189  151.9142   14.2465 C   0  0  0  0  0  0  0  0  0  0  0  0
   86.9706  146.4949   11.5740 C   0  0  0  0  0  0  0  0  0  0  0  0
   87.6164  145.4247   10.7190 C   0  0  0  0  0  0  0  0  0  0  0  0
   89.0131  145.3003   10.6676 C   0  0  0  0  0  0  0  0  0  0  0  0
   86.8300  144.5284    9.9809 C   0  0  0  0  0  0  0  0  0  0  0  0
   89.6098  144.3063    9.8908 C   0  0  0  0  0  0  0  0  0  0  0  0
   87.4288  143.5346    9.2040 C   0  0  0  0  0  0  0  0  0  0  0  0
   88.8175  143.4237    9.1595 C   0  0  0  0  0  0  0  0  0  0  0  0
  1  2  2  0
  2  3  1  0
  3  5  1  0
  4  2  1  0
  4  6  1  0
  4  7  1  0
  6  9  1  0
  6 10  1  0
  7 11  1  0
  8  5  1  0
  8 12  2  0
  8  9  5  0
  9 13  2  0
 10 11  1  0
 11 28  1  0
 13 15  5  0
 28 29  1  0
 14 12  5  0
 14 17  1  0
 14 15  2  0
 15 26  1  0
 29 30  2  0
 29 31  5  0
 17 18  1  0
 17 19  1  0
 26 27  1  0
 30 32  5  0
 31 33  2  0
 18 20  2  0
 18 21  1  0
 19 22  1  0
 32 34  2  0
 33 34  5  0
 21 23  1  0
 22 23  1  0
 23 24  2  0
  3 16  1  0
 21 25  1  0
M  END
> <ID>
EDEL-CRBN-0006

> <Stereoisomer>
original

> <MW>
434.2

> <HBD>
2

> <HBA>
5

> <RotBonds>
4

> <cLogP>
1.99

> <minimizedAffinity>
-7.18613

> <CNNscore>
0.3097777069

> <CNNaffinity>
4.9849276543

> <CNN_VS>
1.5442194939

> <CNNaffinity_variance>
0.8413342834

> <Compound_Name>
EDEL-CRBN-0006

> <Pose_Rank>
3
$$$$
EDEL-CRBN-0006


 34 38  0  0  0  0  0  0  0  0999 V2000
   87.3162  150.3992    7.8423 O   0  0  0  0  0  0  0  0  0  0  0  0
   87.5682  150.4266    9.0482 C   0  0  0  0  0  0  0  0  0  0  0  0
   88.2830  151.4710    9.5408 N   0  0  0  0  0  0  0  0  0  0  0  0
   87.1461  149.2897    9.9538 C   0  0  0  0  0  0  0  0  0  0  0  0
   88.4953  151.7742   10.9310 C   0  0  0  0  0  0  0  0  0  0  0  0
   86.4561  149.5901   11.2953 C   0  0  0  0  0  0  0  0  0  0  0  0
   88.3185  148.3737   10.2980 C   0  0  0  0  0  0  0  0  0  0  0  0
   87.1816  152.0333   11.6150 C   0  0  0  0  0  0  0  0  0  0  0  0
   86.2222  151.0157   11.7496 C   0  0  0  0  0  0  0  0  0  0  0  0
   87.2701  148.7867   12.3276 C   0  0  0  0  0  0  0  0  0  0  0  0
   87.9809  147.7330   11.5839 N   0  0  0  0  0  0  0  0  0  0  0  0
   86.9098  153.3249   12.1136 C   0  0  0  0  0  0  0  0  0  0  0  0
   85.0061  151.3296   12.3748 C   0  0  0  0  0  0  0  0  0  0  0  0
   85.6988  153.6460   12.7460 C   0  0  0  0  0  0  0  0  0  0  0  0
   84.7377  152.6260   12.8346 C   0  0  0  0  0  0  0  0  0  0  0  0
   88.6949  152.0781    8.8843 H   0  0  0  0  0  0  0  0  0  0  0  0
   85.5041  154.9621   13.2895 N   0  0  0  0  0  0  0  0  0  0  0  0
   85.3187  155.1705   14.6570 C   0  0  0  0  0  0  0  0  0  0  0  0
   85.6821  156.1305   12.4335 C   0  0  0  0  0  0  0  0  0  0  0  0
   85.2973  154.3050   15.5290 O   0  0  0  0  0  0  0  0  0  0  0  0
   85.1527  156.4818   15.0332 N   0  0  0  0  0  0  0  0  0  0  0  0
   84.6615  157.1992   12.7660 C   0  0  0  0  0  0  0  0  0  0  0  0
   84.7224  157.5020   14.2319 C   0  0  0  0  0  0  0  0  0  0  0  0
   84.3320  158.5668   14.7023 O   0  0  0  0  0  0  0  0  0  0  0  0
   85.3637  156.7077   15.9679 H   0  0  0  0  0  0  0  0  0  0  0  0
   83.4858  152.8478   13.3568 O   0  0  0  0  0  0  0  0  0  0  0  0
   82.9793  151.6371   13.9268 C   0  0  0  0  0  0  0  0  0  0  0  0
   87.1394  146.5336   11.4161 C   0  0  0  0  0  0  0  0  0  0  0  0
   86.9866  145.7324   12.6921 C   0  0  0  0  0  0  0  0  0  0  0  0
   85.8171  145.8328   13.4608 C   0  0  0  0  0  0  0  0  0  0  0  0
   88.0019  144.8627   13.1158 C   0  0  0  0  0  0  0  0  0  0  0  0
   85.6689  145.0853   14.6299 C   0  0  0  0  0  0  0  0  0  0  0  0
   87.8519  144.1156   14.2859 C   0  0  0  0  0  0  0  0  0  0  0  0
   86.6862  144.2268   15.0419 C   0  0  0  0  0  0  0  0  0  0  0  0
  1  2  2  0
  2  3  1  0
  3  5  1  0
  4  2  1  0
  4  6  1  0
  4  7  1  0
  6  9  1  0
  6 10  1  0
  7 11  1  0
  8  5  1  0
  8 12  2  0
  8  9  5  0
  9 13  2  0
 10 11  1  0
 11 28  1  0
 13 15  5  0
 28 29  1  0
 14 12  5  0
 14 17  1  0
 14 15  2  0
 15 26  1  0
 29 30  2  0
 29 31  5  0
 17 18  1  0
 17 19  1  0
 26 27  1  0
 30 32  5  0
 31 33  2  0
 18 20  2  0
 18 21  1  0
 19 22  1  0
 32 34  2  0
 33 34  5  0
 21 23  1  0
 22 23  1  0
 23 24  2  0
  3 16  1  0
 21 25  1  0
M  END
> <ID>
EDEL-CRBN-0006

> <Stereoisomer>
original

> <MW>
434.2

> <HBD>
2

> <HBA>
5

> <RotBonds>
4

> <cLogP>
1.99

> <minimizedAffinity>
-7.24020

> <CNNscore>
0.2945624292

> <CNNaffinity>
5.0410919189

> <CNN_VS>
1.4849163294

> <CNNaffinity_variance>
0.7650528550

> <Compound_Name>
EDEL-CRBN-0006

> <Pose_Rank>
4
$$$$
EDEL-CRBN-0006


 34 38  0  0  0  0  0  0  0  0999 V2000
   90.6968  149.3636   12.1144 O   0  0  0  0  0  0  0  0  0  0  0  0
   89.8904  150.1923   11.6884 C   0  0  0  0  0  0  0  0  0  0  0  0
   90.3485  151.2063   10.9098 N   0  0  0  0  0  0  0  0  0  0  0  0
   88.4288  150.1207   12.0750 C   0  0  0  0  0  0  0  0  0  0  0  0
   89.5419  152.1364   10.1654 C   0  0  0  0  0  0  0  0  0  0  0  0
   87.3402  150.2596   10.9973 C   0  0  0  0  0  0  0  0  0  0  0  0
   88.0739  151.1519   13.1439 C   0  0  0  0  0  0  0  0  0  0  0  0
   88.7073  151.4065    9.1498 C   0  0  0  0  0  0  0  0  0  0  0  0
   87.7048  150.5065    9.5483 C   0  0  0  0  0  0  0  0  0  0  0  0
   86.4023  151.3520   11.5456 C   0  0  0  0  0  0  0  0  0  0  0  0
   86.6298  151.4196   12.9989 N   0  0  0  0  0  0  0  0  0  0  0  0
   88.9508  151.6234    7.7770 C   0  0  0  0  0  0  0  0  0  0  0  0
   86.9792  149.8380    8.5506 C   0  0  0  0  0  0  0  0  0  0  0  0
   88.2256  150.9641    6.7726 C   0  0  0  0  0  0  0  0  0  0  0  0
   87.2559  150.0388    7.1916 C   0  0  0  0  0  0  0  0  0  0  0  0
   91.3250  151.3154   10.8491 H   0  0  0  0  0  0  0  0  0  0  0  0
   88.4760  151.2728    5.3915 N   0  0  0  0  0  0  0  0  0  0  0  0
   88.0094  152.4516    4.8075 C   0  0  0  0  0  0  0  0  0  0  0  0
   89.3880  150.4362    4.6183 C   0  0  0  0  0  0  0  0  0  0  0  0
   87.3583  153.3320    5.3649 O   0  0  0  0  0  0  0  0  0  0  0  0
   88.3311  152.6163    3.4816 N   0  0  0  0  0  0  0  0  0  0  0  0
   88.8895  150.2704    3.1976 C   0  0  0  0  0  0  0  0  0  0  0  0
   88.6449  151.6216    2.5986 C   0  0  0  0  0  0  0  0  0  0  0  0
   88.6405  151.8145    1.3861 O   0  0  0  0  0  0  0  0  0  0  0  0
   88.3360  153.5379    3.1352 H   0  0  0  0  0  0  0  0  0  0  0  0
   86.5445  149.2739    6.2982 O   0  0  0  0  0  0  0  0  0  0  0  0
   87.0187  147.9245    6.3337 C   0  0  0  0  0  0  0  0  0  0  0  0
   85.7963  150.4390   13.7190 C   0  0  0  0  0  0  0  0  0  0  0  0
   84.8527  151.0798   14.7151 C   0  0  0  0  0  0  0  0  0  0  0  0
   83.4718  151.1140   14.4685 C   0  0  0  0  0  0  0  0  0  0  0  0
   85.3404  151.6315   15.9087 C   0  0  0  0  0  0  0  0  0  0  0  0
   82.5992  151.6922   15.3914 C   0  0  0  0  0  0  0  0  0  0  0  0
   84.4658  152.2098   16.8310 C   0  0  0  0  0  0  0  0  0  0  0  0
   83.0965  152.2396   16.5724 C   0  0  0  0  0  0  0  0  0  0  0  0
  1  2  2  0
  2  3  1  0
  3  5  1  0
  4  2  1  0
  4  6  1  0
  4  7  1  0
  6  9  1  0
  6 10  1  0
  7 11  1  0
  8  5  1  0
  8 12  2  0
  8  9  5  0
  9 13  2  0
 10 11  1  0
 11 28  1  0
 13 15  5  0
 28 29  1  0
 14 12  5  0
 14 17  1  0
 14 15  2  0
 15 26  1  0
 29 30  2  0
 29 31  5  0
 17 18  1  0
 17 19  1  0
 26 27  1  0
 30 32  5  0
 31 33  2  0
 18 20  2  0
 18 21  1  0
 19 22  1  0
 32 34  2  0
 33 34  5  0
 21 23  1  0
 22 23  1  0
 23 24  2  0
  3 16  1  0
 21 25  1  0
M  END
> <ID>
EDEL-CRBN-0006

> <Stereoisomer>
original

> <MW>
434.2

> <HBD>
2

> <HBA>
5

> <RotBonds>
4

> <cLogP>
1.99

> <minimizedAffinity>
-5.54437

> <CNNscore>
0.2813453674

> <CNNaffinity>
4.6578707695

> <CNN_VS>
1.3104703426

> <CNNaffinity_variance>
0.4090327024

> <Compound_Name>
EDEL-CRBN-0006

> <Pose_Rank>
5
$$$$
EDEL-CRBN-0007_ent


 34 38  0  0  0  0  0  0  0  0999 V2000
   82.6857  148.6801   12.9453 O   0  0  0  0  0  0  0  0  0  0  0  0
   83.4733  149.2730   13.6843 C   0  0  0  0  0  0  0  0  0  0  0  0
   82.9768  150.2089   14.5339 N   0  0  0  0  0  0  0  0  0  0  0  0
   84.9443  148.9201   13.7072 C   0  0  0  0  0  0  0  0  0  0  0  0
   83.7455  151.1340   15.3231 C   0  0  0  0  0  0  0  0  0  0  0  0
   86.0085  150.0349   13.6935 C   0  0  0  0  0  0  0  0  0  0  0  0
   85.2903  148.0468   14.9120 C   0  0  0  0  0  0  0  0  0  0  0  0
   84.5639  152.0356   14.4403 C   0  0  0  0  0  0  0  0  0  0  0  0
   85.6148  151.4990   13.6701 C   0  0  0  0  0  0  0  0  0  0  0  0
   86.9204  149.7066   14.8902 C   0  0  0  0  0  0  0  0  0  0  0  0
   86.7313  148.2675   15.0883 N   0  0  0  0  0  0  0  0  0  0  0  0
   84.2799  153.4195   14.3553 C   0  0  0  0  0  0  0  0  0  0  0  0
   86.3709  152.3695   12.8696 C   0  0  0  0  0  0  0  0  0  0  0  0
   85.0795  154.3026   13.5978 C   0  0  0  0  0  0  0  0  0  0  0  0
   86.1109  153.7424   12.8383 C   0  0  0  0  0  0  0  0  0  0  0  0
   81.9972  150.2591   14.6178 H   0  0  0  0  0  0  0  0  0  0  0  0
   84.9086  155.7288   13.6152 N   0  0  0  0  0  0  0  0  0  0  0  0
   85.0650  156.5027   12.4651 C   0  0  0  0  0  0  0  0  0  0  0  0
   84.4351  156.3855   14.8292 C   0  0  0  0  0  0  0  0  0  0  0  0
   85.3178  156.0862   11.3376 O   0  0  0  0  0  0  0  0  0  0  0  0
   84.9083  157.8562   12.6457 N   0  0  0  0  0  0  0  0  0  0  0  0
   85.1789  157.6856   15.0543 C   0  0  0  0  0  0  0  0  0  0  0  0
   85.0761  158.5325   13.8218 C   0  0  0  0  0  0  0  0  0  0  0  0
   85.2165  159.7520   13.8470 O   0  0  0  0  0  0  0  0  0  0  0  0
   84.6521  158.3865   11.8568 H   0  0  0  0  0  0  0  0  0  0  0  0
   83.1626  153.8829   15.0179 O   0  0  0  0  0  0  0  0  0  0  0  0
   82.0080  153.7195   14.1847 C   0  0  0  0  0  0  0  0  0  0  0  0
   87.2323  147.8185   16.3910 C   0  0  0  0  0  0  0  0  0  0  0  0
   88.3623  148.6755   16.9185 C   0  0  0  0  0  0  0  0  0  0  0  0
   89.1914  148.2117   17.9500 C   0  0  0  0  0  0  0  0  0  0  0  0
   88.5915  149.9544   16.3889 C   0  0  0  0  0  0  0  0  0  0  0  0
   90.2281  149.0098   18.4381 C   0  0  0  0  0  0  0  0  0  0  0  0
   89.6283  150.7503   16.8776 C   0  0  0  0  0  0  0  0  0  0  0  0
   90.4458  150.2779   17.9024 C   0  0  0  0  0  0  0  0  0  0  0  0
  1  2  2  0
  2  3  1  0
  3  5  1  0
  4  2  1  0
  4  6  1  0
  4  7  1  0
  6  9  1  0
  6 10  1  0
  7 11  1  0
  8  5  1  0
  8 12  2  0
  8  9  5  0
  9 13  2  0
 10 11  1  0
 11 28  1  0
 12 26  1  0
 12 14  5  0
 13 15  5  0
 28 29  1  0
 26 27  1  0
 14 17  1  0
 14 15  2  0
 29 30  2  0
 29 31  5  0
 17 18  1  0
 17 19  1  0
 30 32  5  0
 31 33  2  0
 18 20  2  0
 18 21  1  0
 19 22  1  0
 32 34  2  0
 33 34  5  0
 21 23  1  0
 22 23  1  0
 23 24  2  0
  3 16  1  0
 21 25  1  0
M  END
> <ID>
EDEL-CRBN-0007_ent

> <Stereoisomer>
enantiomer

> <MW>
434.2

> <HBD>
2

> <HBA>
5

> <RotBonds>
4

> <cLogP>
1.99

> <minimizedAffinity>
-8.04891

> <CNNscore>
0.8514083028

> <CNNaffinity>
6.5744991302

> <CNN_VS>
5.5975832939

> <CNNaffinity_variance>
0.3581138551

> <Compound_Name>
EDEL-CRBN-0007_ent

> <Pose_Rank>
1
$$$$
EDEL-CRBN-0007_ent


 34 38  0  0  0  0  0  0  0  0999 V2000
   82.1788  148.5347   12.6194 O   0  0  0  0  0  0  0  0  0  0  0  0
   82.7121  149.1500   13.5441 C   0  0  0  0  0  0  0  0  0  0  0  0
   82.0360  150.1888   14.0991 N   0  0  0  0  0  0  0  0  0  0  0  0
   84.0494  148.7186   14.1047 C   0  0  0  0  0  0  0  0  0  0  0  0
   82.5627  151.1399   15.0410 C   0  0  0  0  0  0  0  0  0  0  0  0
   85.1450  149.7655   14.3869 C   0  0  0  0  0  0  0  0  0  0  0  0
   83.8838  147.9457   15.4121 C   0  0  0  0  0  0  0  0  0  0  0  0
   83.7090  151.9061   14.4400 C   0  0  0  0  0  0  0  0  0  0  0  0
   84.9105  151.2405   14.1255 C   0  0  0  0  0  0  0  0  0  0  0  0
   85.5580  149.5015   15.8467 C   0  0  0  0  0  0  0  0  0  0  0  0
   85.1895  148.1007   16.0657 N   0  0  0  0  0  0  0  0  0  0  0  0
   83.5913  153.2894   14.1650 C   0  0  0  0  0  0  0  0  0  0  0  0
   85.9674  151.9870   13.5817 C   0  0  0  0  0  0  0  0  0  0  0  0
   84.6753  154.0502   13.6758 C   0  0  0  0  0  0  0  0  0  0  0  0
   85.8529  153.3632   13.3660 C   0  0  0  0  0  0  0  0  0  0  0  0
   81.0954  150.3017   13.8312 H   0  0  0  0  0  0  0  0  0  0  0  0
   84.6319  155.4789   13.5330 N   0  0  0  0  0  0  0  0  0  0  0  0
   85.0088  156.1119   12.3483 C   0  0  0  0  0  0  0  0  0  0  0  0
   84.0616  156.2951   14.5997 C   0  0  0  0  0  0  0  0  0  0  0  0
   85.3712  155.5597   11.3128 O   0  0  0  0  0  0  0  0  0  0  0  0
   84.9511  157.4848   12.3754 N   0  0  0  0  0  0  0  0  0  0  0  0
   84.8821  157.5519   14.8032 C   0  0  0  0  0  0  0  0  0  0  0  0
   85.0205  158.2680   13.4937 C   0  0  0  0  0  0  0  0  0  0  0  0
   85.2649  159.4691   13.4224 O   0  0  0  0  0  0  0  0  0  0  0  0
   84.8508  157.9459   11.5113 H   0  0  0  0  0  0  0  0  0  0  0  0
   82.3585  153.8758   14.3609 O   0  0  0  0  0  0  0  0  0  0  0  0
   81.6432  153.1620   15.3771 C   0  0  0  0  0  0  0  0  0  0  0  0
   85.1716  147.7501   17.4892 C   0  0  0  0  0  0  0  0  0  0  0  0
   83.9424  148.2598   18.2094 C   0  0  0  0  0  0  0  0  0  0  0  0
   83.7953  149.6244   18.4971 C   0  0  0  0  0  0  0  0  0  0  0  0
   82.9335  147.3709   18.6101 C   0  0  0  0  0  0  0  0  0  0  0  0
   82.6624  150.0883   19.1687 C   0  0  0  0  0  0  0  0  0  0  0  0
   81.8017  147.8365   19.2806 C   0  0  0  0  0  0  0  0  0  0  0  0
   81.6668  149.1948   19.5602 C   0  0  0  0  0  0  0  0  0  0  0  0
  1  2  2  0
  2  3  1  0
  3  5  1  0
  4  2  1  0
  4  6  1  0
  4  7  1  0
  6  9  1  0
  6 10  1  0
  7 11  1  0
  8  5  1  0
  8 12  2  0
  8  9  5  0
  9 13  2  0
 10 11  1  0
 11 28  1  0
 12 26  1  0
 12 14  5  0
 13 15  5  0
 28 29  1  0
 26 27  1  0
 14 17  1  0
 14 15  2  0
 29 30  2  0
 29 31  5  0
 17 18  1  0
 17 19  1  0
 30 32  5  0
 31 33  2  0
 18 20  2  0
 18 21  1  0
 19 22  1  0
 32 34  2  0
 33 34  5  0
 21 23  1  0
 22 23  1  0
 23 24  2  0
  3 16  1  0
 21 25  1  0
M  END
> <ID>
EDEL-CRBN-0007_ent

> <Stereoisomer>
enantiomer

> <MW>
434.2

> <HBD>
2

> <HBA>
5

> <RotBonds>
4

> <cLogP>
1.99

> <minimizedAffinity>
-8.22437

> <CNNscore>
0.7216325402

> <CNNaffinity>
6.6555609703

> <CNN_VS>
4.8028693199

> <CNNaffinity_variance>
0.1701130122

> <Compound_Name>
EDEL-CRBN-0007_ent

> <Pose_Rank>
2
$$$$
EDEL-CRBN-0007_ent


 34 38  0  0  0  0  0  0  0  0999 V2000
   82.5487  148.5418   13.0066 O   0  0  0  0  0  0  0  0  0  0  0  0
   83.4180  149.1205   13.6604 C   0  0  0  0  0  0  0  0  0  0  0  0
   83.0257  150.0444   14.5751 N   0  0  0  0  0  0  0  0  0  0  0  0
   84.8803  148.7626   13.5108 C   0  0  0  0  0  0  0  0  0  0  0  0
   83.8835  150.9545   15.2861 C   0  0  0  0  0  0  0  0  0  0  0  0
   85.9416  149.8740   13.3936 C   0  0  0  0  0  0  0  0  0  0  0  0
   85.3563  147.8692   14.6551 C   0  0  0  0  0  0  0  0  0  0  0  0
   84.6010  151.8673   14.3300 C   0  0  0  0  0  0  0  0  0  0  0  0
   85.5550  151.3396   13.4374 C   0  0  0  0  0  0  0  0  0  0  0  0
   86.9817  149.5239   14.4739 C   0  0  0  0  0  0  0  0  0  0  0  0
   86.8091  148.0825   14.6701 N   0  0  0  0  0  0  0  0  0  0  0  0
   84.3160  153.2532   14.2990 C   0  0  0  0  0  0  0  0  0  0  0  0
   86.2197  152.2201   12.5697 C   0  0  0  0  0  0  0  0  0  0  0  0
   85.0289  154.1456   13.4692 C   0  0  0  0  0  0  0  0  0  0  0  0
   85.9647  153.5942   12.5891 C   0  0  0  0  0  0  0  0  0  0  0  0
   82.0621  150.0964   14.7704 H   0  0  0  0  0  0  0  0  0  0  0  0
   84.8681  155.5719   13.5277 N   0  0  0  0  0  0  0  0  0  0  0  0
   85.0007  156.3745   12.3943 C   0  0  0  0  0  0  0  0  0  0  0  0
   84.4300  156.1998   14.7699 C   0  0  0  0  0  0  0  0  0  0  0  0
   85.2221  155.9857   11.2504 O   0  0  0  0  0  0  0  0  0  0  0  0
   84.8578  157.7237   12.6137 N   0  0  0  0  0  0  0  0  0  0  0  0
   85.1880  157.4891   15.0094 C   0  0  0  0  0  0  0  0  0  0  0  0
   85.0598  158.3682   13.8023 C   0  0  0  0  0  0  0  0  0  0  0  0
   85.2090  159.5858   13.8553 O   0  0  0  0  0  0  0  0  0  0  0  0
   84.5854  158.2758   11.8455 H   0  0  0  0  0  0  0  0  0  0  0  0
   83.2834  153.7097   15.0911 O   0  0  0  0  0  0  0  0  0  0  0  0
   82.0316  153.4593   14.4397 C   0  0  0  0  0  0  0  0  0  0  0  0
   87.4524  147.6115   15.9005 C   0  0  0  0  0  0  0  0  0  0  0  0
   87.3502  146.1133   16.0864 C   0  0  0  0  0  0  0  0  0  0  0  0
   86.6441  145.5728   17.1707 C   0  0  0  0  0  0  0  0  0  0  0  0
   87.9706  145.2405   15.1798 C   0  0  0  0  0  0  0  0  0  0  0  0
   86.5593  144.1895   17.3416 C   0  0  0  0  0  0  0  0  0  0  0  0
   87.8843  143.8584   15.3519 C   0  0  0  0  0  0  0  0  0  0  0  0
   87.1791  143.3334   16.4330 C   0  0  0  0  0  0  0  0  0  0  0  0
  1  2  2  0
  2  3  1  0
  3  5  1  0
  4  2  1  0
  4  6  1  0
  4  7  1  0
  6  9  1  0
  6 10  1  0
  7 11  1  0
  8  5  1  0
  8 12  2  0
  8  9  5  0
  9 13  2  0
 10 11  1  0
 11 28  1  0
 12 26  1  0
 12 14  5  0
 13 15  5  0
 28 29  1  0
 26 27  1  0
 14 17  1  0
 14 15  2  0
 29 30  2  0
 29 31  5  0
 17 18  1  0
 17 19  1  0
 30 32  5  0
 31 33  2  0
 18 20  2  0
 18 21  1  0
 19 22  1  0
 32 34  2  0
 33 34  5  0
 21 23  1  0
 22 23  1  0
 23 24  2  0
  3 16  1  0
 21 25  1  0
M  END
> <ID>
EDEL-CRBN-0007_ent

> <Stereoisomer>
enantiomer

> <MW>
434.2

> <HBD>
2

> <HBA>
5

> <RotBonds>
4

> <cLogP>
1.99

> <minimizedAffinity>
-7.14417

> <CNNscore>
0.6059007645

> <CNNaffinity>
6.2345986366

> <CNN_VS>
3.7775480747

> <CNNaffinity_variance>
0.1998965740

> <Compound_Name>
EDEL-CRBN-0007_ent

> <Pose_Rank>
3
$$$$
EDEL-CRBN-0007_ent


 34 38  0  0  0  0  0  0  0  0999 V2000
   83.8901  148.0484   13.2122 O   0  0  0  0  0  0  0  0  0  0  0  0
   84.6855  148.7653   13.8216 C   0  0  0  0  0  0  0  0  0  0  0  0
   84.1911  149.6503   14.7252 N   0  0  0  0  0  0  0  0  0  0  0  0
   86.1791  148.6168   13.6321 C   0  0  0  0  0  0  0  0  0  0  0  0
   84.9290  150.6950   15.3836 C   0  0  0  0  0  0  0  0  0  0  0  0
   87.0648  149.8651   13.4511 C   0  0  0  0  0  0  0  0  0  0  0  0
   86.8129  147.8358   14.7821 C   0  0  0  0  0  0  0  0  0  0  0  0
   85.4785  151.6724   14.3811 C   0  0  0  0  0  0  0  0  0  0  0  0
   86.4720  151.2606   13.4707 C   0  0  0  0  0  0  0  0  0  0  0  0
   88.1760  149.7006   14.5045 C   0  0  0  0  0  0  0  0  0  0  0  0
   88.2194  148.2558   14.7429 N   0  0  0  0  0  0  0  0  0  0  0  0
   84.9954  153.0014   14.3245 C   0  0  0  0  0  0  0  0  0  0  0  0
   86.9766  152.2011   12.5591 C   0  0  0  0  0  0  0  0  0  0  0  0
   85.5471  153.9617   13.4489 C   0  0  0  0  0  0  0  0  0  0  0  0
   86.5264  153.5242   12.5521 C   0  0  0  0  0  0  0  0  0  0  0  0
   83.2363  149.5692   14.9512 H   0  0  0  0  0  0  0  0  0  0  0  0
   85.1837  155.3512   13.4765 N   0  0  0  0  0  0  0  0  0  0  0  0
   85.1774  156.1333   12.3213 C   0  0  0  0  0  0  0  0  0  0  0  0
   84.6838  155.9434   14.7129 C   0  0  0  0  0  0  0  0  0  0  0  0
   85.4303  155.7493   11.1823 O   0  0  0  0  0  0  0  0  0  0  0  0
   84.8459  157.4535   12.5111 N   0  0  0  0  0  0  0  0  0  0  0  0
   85.2527  157.3341   14.9036 C   0  0  0  0  0  0  0  0  0  0  0  0
   84.9759  158.1526   13.6787 C   0  0  0  0  0  0  0  0  0  0  0  0
   84.9492  159.3799   13.6988 O   0  0  0  0  0  0  0  0  0  0  0  0
   84.4820  157.9397   11.7362 H   0  0  0  0  0  0  0  0  0  0  0  0
   83.9315  153.3284   15.1390 O   0  0  0  0  0  0  0  0  0  0  0  0
   82.7032  152.9842   14.4857 C   0  0  0  0  0  0  0  0  0  0  0  0
   88.9601  147.9191   15.9626 C   0  0  0  0  0  0  0  0  0  0  0  0
   90.3406  147.3661   15.6838 C   0  0  0  0  0  0  0  0  0  0  0  0
   91.3463  148.1858   15.1516 C   0  0  0  0  0  0  0  0  0  0  0  0
   90.6328  146.0189   15.9447 C   0  0  0  0  0  0  0  0  0  0  0  0
   92.6164  147.6683   14.8891 C   0  0  0  0  0  0  0  0  0  0  0  0
   91.9028  145.5037   15.6824 C   0  0  0  0  0  0  0  0  0  0  0  0
   92.8940  146.3284   15.1542 C   0  0  0  0  0  0  0  0  0  0  0  0
  1  2  2  0
  2  3  1  0
  3  5  1  0
  4  2  1  0
  4  6  1  0
  4  7  1  0
  6  9  1  0
  6 10  1  0
  7 11  1  0
  8  5  1  0
  8 12  2  0
  8  9  5  0
  9 13  2  0
 10 11  1  0
 11 28  1  0
 12 26  1  0
 12 14  5  0
 13 15  5  0
 28 29  1  0
 26 27  1  0
 14 17  1  0
 14 15  2  0
 29 30  2  0
 29 31  5  0
 17 18  1  0
 17 19  1  0
 30 32  5  0
 31 33  2  0
 18 20  2  0
 18 21  1  0
 19 22  1  0
 32 34  2  0
 33 34  5  0
 21 23  1  0
 22 23  1  0
 23 24  2  0
  3 16  1  0
 21 25  1  0
M  END
> <ID>
EDEL-CRBN-0007_ent

> <Stereoisomer>
enantiomer

> <MW>
434.2

> <HBD>
2

> <HBA>
5

> <RotBonds>
4

> <cLogP>
1.99

> <minimizedAffinity>
-6.93359

> <CNNscore>
0.4933806062

> <CNNaffinity>
5.9021492004

> <CNN_VS>
2.9120059013

> <CNNaffinity_variance>
0.3688612282

> <Compound_Name>
EDEL-CRBN-0007_ent

> <Pose_Rank>
4
$$$$
EDEL-CRBN-0007_ent


 34 38  0  0  0  0  0  0  0  0999 V2000
   87.0638  149.6257    6.9846 O   0  0  0  0  0  0  0  0  0  0  0  0
   87.1446  150.0918    5.8470 C   0  0  0  0  0  0  0  0  0  0  0  0
   88.3795  150.3530    5.3458 N   0  0  0  0  0  0  0  0  0  0  0  0
   85.9119  150.2980    4.9945 C   0  0  0  0  0  0  0  0  0  0  0  0
   88.6707  151.0707    4.1336 C   0  0  0  0  0  0  0  0  0  0  0  0
   85.7234  151.6113    4.2102 C   0  0  0  0  0  0  0  0  0  0  0  0
   85.7556  149.1844    3.9603 C   0  0  0  0  0  0  0  0  0  0  0  0
   88.1509  152.4800    4.2109 C   0  0  0  0  0  0  0  0  0  0  0  0
   86.7624  152.7145    4.2607 C   0  0  0  0  0  0  0  0  0  0  0  0
   85.4414  151.1563    2.7663 C   0  0  0  0  0  0  0  0  0  0  0  0
   84.9147  149.7986    2.9250 N   0  0  0  0  0  0  0  0  0  0  0  0
   89.0409  153.5795    4.2552 C   0  0  0  0  0  0  0  0  0  0  0  0
   86.3086  154.0417    4.3151 C   0  0  0  0  0  0  0  0  0  0  0  0
   88.5820  154.9147    4.2477 C   0  0  0  0  0  0  0  0  0  0  0  0
   87.2000  155.1181    4.3042 C   0  0  0  0  0  0  0  0  0  0  0  0
   89.1489  150.0192    5.8613 H   0  0  0  0  0  0  0  0  0  0  0  0
   89.4594  156.0467    4.1376 N   0  0  0  0  0  0  0  0  0  0  0  0
   89.8846  156.7600    5.2586 C   0  0  0  0  0  0  0  0  0  0  0  0
   90.0311  156.3949    2.8410 C   0  0  0  0  0  0  0  0  0  0  0  0
   89.6115  156.5052    6.4287 O   0  0  0  0  0  0  0  0  0  0  0  0
   90.6900  157.8414    4.9923 N   0  0  0  0  0  0  0  0  0  0  0  0
   90.0413  157.8977    2.6514 C   0  0  0  0  0  0  0  0  0  0  0  0
   90.7347  158.5371    3.8163 C   0  0  0  0  0  0  0  0  0  0  0  0
   91.2412  159.6536    3.7495 O   0  0  0  0  0  0  0  0  0  0  0  0
   91.2888  158.1421    5.7136 H   0  0  0  0  0  0  0  0  0  0  0  0
   90.3897  153.3050    4.3402 O   0  0  0  0  0  0  0  0  0  0  0  0
   90.7689  153.1818    5.7168 C   0  0  0  0  0  0  0  0  0  0  0  0
   84.9137  149.0552    1.6613 C   0  0  0  0  0  0  0  0  0  0  0  0
   84.1876  147.7309    1.7536 C   0  0  0  0  0  0  0  0  0  0  0  0
   84.8397  146.5326    1.4289 C   0  0  0  0  0  0  0  0  0  0  0  0
   82.8446  147.6831    2.1567 C   0  0  0  0  0  0  0  0  0  0  0  0
   84.1626  145.3140    1.5087 C   0  0  0  0  0  0  0  0  0  0  0  0
   82.1697  146.4642    2.2364 C   0  0  0  0  0  0  0  0  0  0  0  0
   82.8288  145.2803    1.9118 C   0  0  0  0  0  0  0  0  0  0  0  0
  1  2  2  0
  2  3  1  0
  3  5  1  0
  4  2  1  0
  4  6  1  0
  4  7  1  0
  6  9  1  0
  6 10  1  0
  7 11  1  0
  8  5  1  0
  8 12  2  0
  8  9  5  0
  9 13  2  0
 10 11  1  0
 11 28  1  0
 12 26  1  0
 12 14  5  0
 13 15  5  0
 28 29  1  0
 26 27  1  0
 14 17  1  0
 14 15  2  0
 29 30  2  0
 29 31  5  0
 17 18  1  0
 17 19  1  0
 30 32  5  0
 31 33  2  0
 18 20  2  0
 18 21  1  0
 19 22  1  0
 32 34  2  0
 33 34  5  0
 21 23  1  0
 22 23  1  0
 23 24  2  0
  3 16  1  0
 21 25  1  0
M  END
> <ID>
EDEL-CRBN-0007_ent

> <Stereoisomer>
enantiomer

> <MW>
434.2

> <HBD>
2

> <HBA>
5

> <RotBonds>
4

> <cLogP>
1.99

> <minimizedAffinity>
-6.31295

> <CNNscore>
0.4014924169

> <CNNaffinity>
5.3170013428

> <CNN_VS>
2.1347358227

> <CNNaffinity_variance>
0.0265961979

> <Compound_Name>
EDEL-CRBN-0007_ent

> <Pose_Rank>
5
$$$$
EDEL-CRBN-0007


 34 38  0  0  0  0  0  0  0  0999 V2000
   90.8869  151.2726    4.6324 O   0  0  0  0  0  0  0  0  0  0  0  0
   89.9668  151.7399    5.2990 C   0  0  0  0  0  0  0  0  0  0  0  0
   90.2632  152.4351    6.4353 N   0  0  0  0  0  0  0  0  0  0  0  0
   88.5046  151.6634    4.9007 C   0  0  0  0  0  0  0  0  0  0  0  0
   89.2901  152.8059    7.4290 C   0  0  0  0  0  0  0  0  0  0  0  0
   87.5135  150.9902    5.8889 C   0  0  0  0  0  0  0  0  0  0  0  0
   88.3410  150.8958    3.5819 C   0  0  0  0  0  0  0  0  0  0  0  0
   88.7329  151.5665    8.0785 C   0  0  0  0  0  0  0  0  0  0  0  0
   87.9182  150.6869    7.3290 C   0  0  0  0  0  0  0  0  0  0  0  0
   86.9866  149.7905    5.0759 C   0  0  0  0  0  0  0  0  0  0  0  0
   87.0112  150.2862    3.6985 N   0  0  0  0  0  0  0  0  0  0  0  0
   89.0500  151.2598    9.4249 C   0  0  0  0  0  0  0  0  0  0  0  0
   87.3996  149.5603    7.9881 C   0  0  0  0  0  0  0  0  0  0  0  0
   88.4860  150.1524   10.0898 C   0  0  0  0  0  0  0  0  0  0  0  0
   87.6779  149.2995    9.3350 C   0  0  0  0  0  0  0  0  0  0  0  0
   91.1999  152.6990    6.5845 H   0  0  0  0  0  0  0  0  0  0  0  0
   88.6614  149.9026   11.4931 N   0  0  0  0  0  0  0  0  0  0  0  0
   87.6645  150.1974   12.4229 C   0  0  0  0  0  0  0  0  0  0  0  0
   89.8585  149.2110   11.9601 C   0  0  0  0  0  0  0  0  0  0  0  0
   86.5487  150.6468   12.1737 O   0  0  0  0  0  0  0  0  0  0  0  0
   87.9935  149.9427   13.7328 N   0  0  0  0  0  0  0  0  0  0  0  0
   90.3707  149.8411   13.2388 C   0  0  0  0  0  0  0  0  0  0  0  0
   89.2600  149.8885   14.2444 C   0  0  0  0  0  0  0  0  0  0  0  0
   89.4677  149.9592   15.4525 O   0  0  0  0  0  0  0  0  0  0  0  0
   87.2503  149.7851   14.3589 H   0  0  0  0  0  0  0  0  0  0  0  0
   89.9628  152.0702   10.0664 O   0  0  0  0  0  0  0  0  0  0  0  0
   89.3320  152.7245   11.1742 C   0  0  0  0  0  0  0  0  0  0  0  0
   86.7922  149.2095    2.7263 C   0  0  0  0  0  0  0  0  0  0  0  0
   85.3528  149.1175    2.2687 C   0  0  0  0  0  0  0  0  0  0  0  0
   84.6505  150.2665    1.8783 C   0  0  0  0  0  0  0  0  0  0  0  0
   84.6975  147.8775    2.2318 C   0  0  0  0  0  0  0  0  0  0  0  0
   83.3231  150.1753    1.4552 C   0  0  0  0  0  0  0  0  0  0  0  0
   83.3707  147.7881    1.8085 C   0  0  0  0  0  0  0  0  0  0  0  0
   82.6845  148.9368    1.4192 C   0  0  0  0  0  0  0  0  0  0  0  0
  1  2  2  0
  2  3  1  0
  3  5  1  0
  4  2  1  0
  4  6  1  0
  4  7  1  0
  6  9  1  0
  6 10  1  0
  7 11  1  0
  8  5  1  0
  8 12  2  0
  8  9  5  0
  9 13  2  0
 10 11  1  0
 11 28  1  0
 12 26  1  0
 12 14  5  0
 13 15  5  0
 28 29  1  0
 26 27  1  0
 14 17  1  0
 14 15  2  0
 29 30  2  0
 29 31  5  0
 17 18  1  0
 17 19  1  0
 30 32  5  0
 31 33  2  0
 18 20  2  0
 18 21  1  0
 19 22  1  0
 32 34  2  0
 33 34  5  0
 21 23  1  0
 22 23  1  0
 23 24  2  0
  3 16  1  0
 21 25  1  0
M  END
> <ID>
EDEL-CRBN-0007

> <Stereoisomer>
original

> <MW>
434.2

> <HBD>
2

> <HBA>
5

> <RotBonds>
4

> <cLogP>
1.99

> <minimizedAffinity>
-5.20466

> <CNNscore>
0.1955077946

> <CNNaffinity>
4.7996840477

> <CNN_VS>
0.9383756518

> <CNNaffinity_variance>
0.2578146756

> <Compound_Name>
EDEL-CRBN-0007

> <Pose_Rank>
1
$$$$
EDEL-CRBN-0007


 34 38  0  0  0  0  0  0  0  0999 V2000
   84.3235  150.2794   12.6730 O   0  0  0  0  0  0  0  0  0  0  0  0
   85.0047  150.5183   13.6671 C   0  0  0  0  0  0  0  0  0  0  0  0
   85.3834  149.4826   14.4709 N   0  0  0  0  0  0  0  0  0  0  0  0
   85.5275  151.8964   14.0280 C   0  0  0  0  0  0  0  0  0  0  0  0
   85.9520  149.6481   15.7829 C   0  0  0  0  0  0  0  0  0  0  0  0
   85.1432  152.4827   15.4138 C   0  0  0  0  0  0  0  0  0  0  0  0
   85.0573  152.9399   13.0056 C   0  0  0  0  0  0  0  0  0  0  0  0
   84.9316  150.2669   16.7019 C   0  0  0  0  0  0  0  0  0  0  0  0
   84.5234  151.6052   16.4979 C   0  0  0  0  0  0  0  0  0  0  0  0
   84.3426  153.7456   15.0374 C   0  0  0  0  0  0  0  0  0  0  0  0
   84.9725  154.1782   13.7885 N   0  0  0  0  0  0  0  0  0  0  0  0
   84.3536  149.5042   17.7465 C   0  0  0  0  0  0  0  0  0  0  0  0
   83.5913  152.1452   17.3992 C   0  0  0  0  0  0  0  0  0  0  0  0
   83.4551  150.0700   18.6733 C   0  0  0  0  0  0  0  0  0  0  0  0
   83.0696  151.3952   18.4599 C   0  0  0  0  0  0  0  0  0  0  0  0
   85.2603  148.5662   14.1328 H   0  0  0  0  0  0  0  0  0  0  0  0
   82.9741  149.3713   19.8321 N   0  0  0  0  0  0  0  0  0  0  0  0
   81.6177  149.1071   20.0213 C   0  0  0  0  0  0  0  0  0  0  0  0
   83.9264  148.8101   20.7849 C   0  0  0  0  0  0  0  0  0  0  0  0
   80.7081  149.3851   19.2438 O   0  0  0  0  0  0  0  0  0  0  0  0
   81.3055  148.4680   21.1973 N   0  0  0  0  0  0  0  0  0  0  0  0
   83.4454  149.0251   22.2050 C   0  0  0  0  0  0  0  0  0  0  0  0
   82.0536  148.4854   22.3414 C   0  0  0  0  0  0  0  0  0  0  0  0
   81.5780  148.1556   23.4242 O   0  0  0  0  0  0  0  0  0  0  0  0
   80.4678  147.9512   21.2176 H   0  0  0  0  0  0  0  0  0  0  0  0
   84.6763  148.1652   17.8134 O   0  0  0  0  0  0  0  0  0  0  0  0
   83.6658  147.3920   17.1544 C   0  0  0  0  0  0  0  0  0  0  0  0
   84.1924  155.2233   13.1164 C   0  0  0  0  0  0  0  0  0  0  0  0
   84.5150  156.6121   13.6234 C   0  0  0  0  0  0  0  0  0  0  0  0
   85.0729  157.5744   12.7699 C   0  0  0  0  0  0  0  0  0  0  0  0
   84.2625  156.9565   14.9598 C   0  0  0  0  0  0  0  0  0  0  0  0
   85.3668  158.8548   13.2427 C   0  0  0  0  0  0  0  0  0  0  0  0
   84.5568  158.2368   15.4307 C   0  0  0  0  0  0  0  0  0  0  0  0
   85.1076  159.1858   14.5717 C   0  0  0  0  0  0  0  0  0  0  0  0
  1  2  2  0
  2  3  1  0
  3  5  1  0
  4  2  1  0
  4  6  1  0
  4  7  1  0
  6  9  1  0
  6 10  1  0
  7 11  1  0
  8  5  1  0
  8 12  2  0
  8  9  5  0
  9 13  2  0
 10 11  1  0
 11 28  1  0
 12 26  1  0
 12 14  5  0
 13 15  5  0
 28 29  1  0
 26 27  1  0
 14 17  1  0
 14 15  2  0
 29 30  2  0
 29 31  5  0
 17 18  1  0
 17 19  1  0
 30 32  5  0
 31 33  2  0
 18 20  2  0
 18 21  1  0
 19 22  1  0
 32 34  2  0
 33 34  5  0
 21 23  1  0
 22 23  1  0
 23 24  2  0
  3 16  1  0
 21 25  1  0
M  END
> <ID>
EDEL-CRBN-0007

> <Stereoisomer>
original

> <MW>
434.2

> <HBD>
2

> <HBA>
5

> <RotBonds>
4

> <cLogP>
1.99

> <minimizedAffinity>
-9.92981

> <CNNscore>
0.1741503477

> <CNNaffinity>
5.2463803291

> <CNN_VS>
0.9136589766

> <CNNaffinity_variance>
1.1823905706

> <Compound_Name>
EDEL-CRBN-0007

> <Pose_Rank>
2
$$$$
EDEL-CRBN-0007


 34 38  0  0  0  0  0  0  0  0999 V2000
   78.5993  150.7135   13.7211 O   0  0  0  0  0  0  0  0  0  0  0  0
   78.1702  149.8351   14.4651 C   0  0  0  0  0  0  0  0  0  0  0  0
   76.8242  149.7456   14.6713 N   0  0  0  0  0  0  0  0  0  0  0  0
   79.0388  148.7775   15.1206 C   0  0  0  0  0  0  0  0  0  0  0  0
   76.2194  148.9436   15.7023 C   0  0  0  0  0  0  0  0  0  0  0  0
   79.0150  148.6715   16.6699 C   0  0  0  0  0  0  0  0  0  0  0  0
   80.5147  148.9843   14.7545 C   0  0  0  0  0  0  0  0  0  0  0  0
   76.6053  149.4833   17.0545 C   0  0  0  0  0  0  0  0  0  0  0  0
   77.9456  149.3839   17.4936 C   0  0  0  0  0  0  0  0  0  0  0  0
   80.4748  148.9869   17.0537 C   0  0  0  0  0  0  0  0  0  0  0  0
   81.2373  148.4613   15.9198 N   0  0  0  0  0  0  0  0  0  0  0  0
   75.6402  150.1210   17.8725 C   0  0  0  0  0  0  0  0  0  0  0  0
   78.2487  149.8760   18.7737 C   0  0  0  0  0  0  0  0  0  0  0  0
   75.9446  150.5683   19.1739 C   0  0  0  0  0  0  0  0  0  0  0  0
   77.2720  150.4548   19.5927 C   0  0  0  0  0  0  0  0  0  0  0  0
   76.2306  150.2611   14.0787 H   0  0  0  0  0  0  0  0  0  0  0  0
   74.9563  151.0742   20.0848 N   0  0  0  0  0  0  0  0  0  0  0  0
   74.6809  152.4376   20.1884 C   0  0  0  0  0  0  0  0  0  0  0  0
   74.1251  150.1424   20.8400 C   0  0  0  0  0  0  0  0  0  0  0  0
   75.1899  153.3343   19.5207 O   0  0  0  0  0  0  0  0  0  0  0  0
   73.7409  152.7735   21.1331 N   0  0  0  0  0  0  0  0  0  0  0  0
   73.9379  150.6304   22.2617 C   0  0  0  0  0  0  0  0  0  0  0  0
   73.4144  152.0348   22.2361 C   0  0  0  0  0  0  0  0  0  0  0  0
   72.8011  152.5266   23.1793 O   0  0  0  0  0  0  0  0  0  0  0  0
   73.2594  153.6224   21.0039 H   0  0  0  0  0  0  0  0  0  0  0  0
   74.3842  150.3216   17.3400 O   0  0  0  0  0  0  0  0  0  0  0  0
   73.5846  149.1486   17.5349 C   0  0  0  0  0  0  0  0  0  0  0  0
   82.6398  148.8903   15.9585 C   0  0  0  0  0  0  0  0  0  0  0  0
   83.2659  148.7224   17.3259 C   0  0  0  0  0  0  0  0  0  0  0  0
   83.1520  149.7297   18.2945 C   0  0  0  0  0  0  0  0  0  0  0  0
   83.9744  147.5538   17.6435 C   0  0  0  0  0  0  0  0  0  0  0  0
   83.7302  149.5684   19.5550 C   0  0  0  0  0  0  0  0  0  0  0  0
   84.5516  147.3941   18.9040 C   0  0  0  0  0  0  0  0  0  0  0  0
   84.4283  148.4009   19.8596 C   0  0  0  0  0  0  0  0  0  0  0  0
  1  2  2  0
  2  3  1  0
  3  5  1  0
  4  2  1  0
  4  6  1  0
  4  7  1  0
  6  9  1  0
  6 10  1  0
  7 11  1  0
  8  5  1  0
  8 12  2  0
  8  9  5  0
  9 13  2  0
 10 11  1  0
 11 28  1  0
 12 26  1  0
 12 14  5  0
 13 15  5  0
 28 29  1  0
 26 27  1  0
 14 17  1  0
 14 15  2  0
 29 30  2  0
 29 31  5  0
 17 18  1  0
 17 19  1  0
 30 32  5  0
 31 33  2  0
 18 20  2  0
 18 21  1  0
 19 22  1  0
 32 34  2  0
 33 34  5  0
 21 23  1  0
 22 23  1  0
 23 24  2  0
  3 16  1  0
 21 25  1  0
M  END
> <ID>
EDEL-CRBN-0007

> <Stereoisomer>
original

> <MW>
434.2

> <HBD>
2

> <HBA>
5

> <RotBonds>
4

> <cLogP>
1.99

> <minimizedAffinity>
-5.94053

> <CNNscore>
0.1708025336

> <CNNaffinity>
4.3180952072

> <CNN_VS>
0.7375416160

> <CNNaffinity_variance>
0.6488070488

> <Compound_Name>
EDEL-CRBN-0007

> <Pose_Rank>
3
$$$$
EDEL-CRBN-0007


 34 38  0  0  0  0  0  0  0  0999 V2000
   84.0718  153.4015   15.9272 O   0  0  0  0  0  0  0  0  0  0  0  0
   84.1415  152.5621   15.0330 C   0  0  0  0  0  0  0  0  0  0  0  0
   83.9821  151.2448   15.3518 N   0  0  0  0  0  0  0  0  0  0  0  0
   84.3185  152.8981   13.5638 C   0  0  0  0  0  0  0  0  0  0  0  0
   84.2922  150.1577   14.4606 C   0  0  0  0  0  0  0  0  0  0  0  0
   85.5416  152.2960   12.8199 C   0  0  0  0  0  0  0  0  0  0  0  0
   84.4337  154.4154   13.3644 C   0  0  0  0  0  0  0  0  0  0  0  0
   85.7737  150.1323   14.1903 C   0  0  0  0  0  0  0  0  0  0  0  0
   86.3683  151.1728   13.4400 C   0  0  0  0  0  0  0  0  0  0  0  0
   86.3310  153.5505   12.3947 C   0  0  0  0  0  0  0  0  0  0  0  0
   85.2797  154.5449   12.1723 N   0  0  0  0  0  0  0  0  0  0  0  0
   86.5789  149.0907   14.7137 C   0  0  0  0  0  0  0  0  0  0  0  0
   87.7480  151.0883   13.1908 C   0  0  0  0  0  0  0  0  0  0  0  0
   87.9532  148.9905   14.4177 C   0  0  0  0  0  0  0  0  0  0  0  0
   88.5210  150.0236   13.6690 C   0  0  0  0  0  0  0  0  0  0  0  0
   83.6338  151.0245   16.2459 H   0  0  0  0  0  0  0  0  0  0  0  0
   88.7619  147.8671   14.8001 N   0  0  0  0  0  0  0  0  0  0  0  0
   89.3679  147.7899   16.0541 C   0  0  0  0  0  0  0  0  0  0  0  0
   88.8627  146.7134   13.9123 C   0  0  0  0  0  0  0  0  0  0  0  0
   89.2618  148.6087   16.9637 O   0  0  0  0  0  0  0  0  0  0  0  0
   90.1453  146.6754   16.2596 N   0  0  0  0  0  0  0  0  0  0  0  0
   90.2835  146.1889   13.8827 C   0  0  0  0  0  0  0  0  0  0  0  0
   90.7404  145.9232   15.2854 C   0  0  0  0  0  0  0  0  0  0  0  0
   91.6506  145.1410   15.5448 O   0  0  0  0  0  0  0  0  0  0  0  0
   90.2864  146.3933   17.1922 H   0  0  0  0  0  0  0  0  0  0  0  0
   85.9773  148.1813   15.5578 O   0  0  0  0  0  0  0  0  0  0  0  0
   85.2798  147.1954   14.7866 C   0  0  0  0  0  0  0  0  0  0  0  0
   85.8301  155.8951   12.0099 C   0  0  0  0  0  0  0  0  0  0  0  0
   85.4578  156.8201   13.1481 C   0  0  0  0  0  0  0  0  0  0  0  0
   85.2951  156.3247   14.4497 C   0  0  0  0  0  0  0  0  0  0  0  0
   85.2663  158.1903   12.9157 C   0  0  0  0  0  0  0  0  0  0  0  0
   84.9533  157.1832   15.4963 C   0  0  0  0  0  0  0  0  0  0  0  0
   84.9249  159.0471   13.9631 C   0  0  0  0  0  0  0  0  0  0  0  0
   84.7697  158.5434   15.2531 C   0  0  0  0  0  0  0  0  0  0  0  0
  1  2  2  0
  2  3  1  0
  3  5  1  0
  4  2  1  0
  4  6  1  0
  4  7  1  0
  6  9  1  0
  6 10  1  0
  7 11  1  0
  8  5  1  0
  8 12  2  0
  8  9  5  0
  9 13  2  0
 10 11  1  0
 11 28  1  0
 12 26  1  0
 12 14  5  0
 13 15  5  0
 28 29  1  0
 26 27  1  0
 14 17  1  0
 14 15  2  0
 29 30  2  0
 29 31  5  0
 17 18  1  0
 17 19  1  0
 30 32  5  0
 31 33  2  0
 18 20  2  0
 18 21  1  0
 19 22  1  0
 32 34  2  0
 33 34  5  0
 21 23  1  0
 22 23  1  0
 23 24  2  0
  3 16  1  0
 21 25  1  0
M  END
> <ID>
EDEL-CRBN-0007

> <Stereoisomer>
original

> <MW>
434.2

> <HBD>
2

> <HBA>
5

> <RotBonds>
4

> <cLogP>
1.99

> <minimizedAffinity>
-7.74233

> <CNNscore>
0.1671214253

> <CNNaffinity>
4.9563374519

> <CNN_VS>
0.8283101916

> <CNNaffinity_variance>
0.6649710536

> <Compound_Name>
EDEL-CRBN-0007

> <Pose_Rank>
4
$$$$
EDEL-CRBN-0007


 34 38  0  0  0  0  0  0  0  0999 V2000
   78.5500  150.7634   13.6401 O   0  0  0  0  0  0  0  0  0  0  0  0
   78.1636  149.8746   14.3950 C   0  0  0  0  0  0  0  0  0  0  0  0
   76.8246  149.7354   14.6182 N   0  0  0  0  0  0  0  0  0  0  0  0
   79.0796  148.8555   15.0470 C   0  0  0  0  0  0  0  0  0  0  0  0
   76.2631  148.9182   15.6617 C   0  0  0  0  0  0  0  0  0  0  0  0
   79.0783  148.7597   16.5972 C   0  0  0  0  0  0  0  0  0  0  0  0
   80.5422  149.1158   14.6617 C   0  0  0  0  0  0  0  0  0  0  0  0
   76.6440  149.4818   17.0055 C   0  0  0  0  0  0  0  0  0  0  0  0
   77.9924  149.4366   17.4290 C   0  0  0  0  0  0  0  0  0  0  0  0
   80.5294  149.1332   16.9611 C   0  0  0  0  0  0  0  0  0  0  0  0
   81.2980  148.6290   15.8216 N   0  0  0  0  0  0  0  0  0  0  0  0
   75.6651  150.0881   17.8309 C   0  0  0  0  0  0  0  0  0  0  0  0
   78.2916  149.9490   18.7021 C   0  0  0  0  0  0  0  0  0  0  0  0
   75.9677  150.5560   19.1255 C   0  0  0  0  0  0  0  0  0  0  0  0
   77.3033  150.4960   19.5290 C   0  0  0  0  0  0  0  0  0  0  0  0
   76.2047  150.2236   14.0294 H   0  0  0  0  0  0  0  0  0  0  0  0
   74.9717  151.0303   20.0450 N   0  0  0  0  0  0  0  0  0  0  0  0
   74.6416  152.3822   20.1389 C   0  0  0  0  0  0  0  0  0  0  0  0
   74.1898  150.0731   20.8208 C   0  0  0  0  0  0  0  0  0  0  0  0
   75.1042  153.2920   19.4553 O   0  0  0  0  0  0  0  0  0  0  0  0
   73.7014  152.6890   21.0932 N   0  0  0  0  0  0  0  0  0  0  0  0
   74.0017  150.5678   22.2400 C   0  0  0  0  0  0  0  0  0  0  0  0
   73.4204  151.9491   22.2078 C   0  0  0  0  0  0  0  0  0  0  0  0
   72.8001  152.4251   23.1545 O   0  0  0  0  0  0  0  0  0  0  0  0
   73.1836  153.5161   20.9622 H   0  0  0  0  0  0  0  0  0  0  0  0
   74.3961  150.2370   17.3124 O   0  0  0  0  0  0  0  0  0  0  0  0
   73.6417  149.0387   17.5318 C   0  0  0  0  0  0  0  0  0  0  0  0
   82.6834  149.1114   15.8405 C   0  0  0  0  0  0  0  0  0  0  0  0
   82.8400  150.4677   15.1881 C   0  0  0  0  0  0  0  0  0  0  0  0
   82.1273  151.5777   15.6632 C   0  0  0  0  0  0  0  0  0  0  0  0
   83.7011  150.6335   14.0929 C   0  0  0  0  0  0  0  0  0  0  0  0
   82.2772  152.8271   15.0584 C   0  0  0  0  0  0  0  0  0  0  0  0
   83.8499  151.8831   13.4897 C   0  0  0  0  0  0  0  0  0  0  0  0
   83.1389  152.9796   13.9734 C   0  0  0  0  0  0  0  0  0  0  0  0
  1  2  2  0
  2  3  1  0
  3  5  1  0
  4  2  1  0
  4  6  1  0
  4  7  1  0
  6  9  1  0
  6 10  1  0
  7 11  1  0
  8  5  1  0
  8 12  2  0
  8  9  5  0
  9 13  2  0
 10 11  1  0
 11 28  1  0
 12 26  1  0
 12 14  5  0
 13 15  5  0
 28 29  1  0
 26 27  1  0
 14 17  1  0
 14 15  2  0
 29 30  2  0
 29 31  5  0
 17 18  1  0
 17 19  1  0
 30 32  5  0
 31 33  2  0
 18 20  2  0
 18 21  1  0
 19 22  1  0
 32 34  2  0
 33 34  5  0
 21 23  1  0
 22 23  1  0
 23 24  2  0
  3 16  1  0
 21 25  1  0
M  END
> <ID>
EDEL-CRBN-0007

> <Stereoisomer>
original

> <MW>
434.2

> <HBD>
2

> <HBA>
5

> <RotBonds>
4

> <cLogP>
1.99

> <minimizedAffinity>
-6.48860

> <CNNscore>
0.1641590744

> <CNNaffinity>
4.4858088493

> <CNN_VS>
0.7363862395

> <CNNaffinity_variance>
0.6004115343

> <Compound_Name>
EDEL-CRBN-0007

> <Pose_Rank>
5
$$$$
EDEL-CRBN-0008_ent


 33 37  0  0  0  0  0  0  0  0999 V2000
   84.8548  149.1546   17.6075 N   0  0  0  0  0  0  0  0  0  0  0  0
   83.3914  149.2341   17.4593 C   0  0  0  0  0  0  0  0  0  0  0  0
   85.5640  149.0392   16.3245 C   0  0  0  0  0  0  0  0  0  0  0  0
   83.0068  150.0540   16.2316 C   0  0  0  0  0  0  0  0  0  0  0  0
   84.7082  148.4391   15.2116 C   0  0  0  0  0  0  0  0  0  0  0  0
   83.4777  149.3216   14.9664 C   0  0  0  0  0  0  0  0  0  0  0  0
   82.3870  148.4883   14.4455 O   0  0  0  0  0  0  0  0  0  0  0  0
   83.4820  150.1265   13.6220 C   0  0  0  0  0  0  0  0  0  0  0  0
   82.1053  149.4754   13.4215 C   0  0  0  0  0  0  0  0  0  0  0  0
   83.6757  151.7019   13.6380 C   0  0  0  0  0  0  0  0  0  0  0  0
   84.8775  152.2764   13.1878 C   0  0  0  0  0  0  0  0  0  0  0  0
   82.7016  152.6112   14.0793 C   0  0  0  0  0  0  0  0  0  0  0  0
   85.0977  153.6620   13.1839 C   0  0  0  0  0  0  0  0  0  0  0  0
   82.9166  153.9998   14.0816 C   0  0  0  0  0  0  0  0  0  0  0  0
   84.1207  154.5541   13.6314 C   0  0  0  0  0  0  0  0  0  0  0  0
   84.3489  155.9723   13.6481 N   0  0  0  0  0  0  0  0  0  0  0  0
   84.8017  156.6654   12.5194 C   0  0  0  0  0  0  0  0  0  0  0  0
   83.8964  156.7612   14.7905 C   0  0  0  0  0  0  0  0  0  0  0  0
   85.0612  156.1892   11.4171 O   0  0  0  0  0  0  0  0  0  0  0  0
   84.9510  158.0228   12.6848 N   0  0  0  0  0  0  0  0  0  0  0  0
   84.8754  157.8732   15.1035 C   0  0  0  0  0  0  0  0  0  0  0  0
   85.1070  158.6866   13.8688 C   0  0  0  0  0  0  0  0  0  0  0  0
   85.4890  159.8526   13.9084 O   0  0  0  0  0  0  0  0  0  0  0  0
   84.9447  158.5715   11.8674 H   0  0  0  0  0  0  0  0  0  0  0  0
   85.2143  148.1164   18.5835 C   0  0  0  0  0  0  0  0  0  0  0  0
   82.1498  148.6662   22.7906 Cl  0  0  0  0  0  0  0  0  0  0  0  0
   82.5921  147.8513   21.3388 C   0  0  0  0  0  0  0  0  0  0  0  0
   83.6734  148.2928   20.5759 C   0  0  0  0  0  0  0  0  0  0  0  0
   81.8518  146.7437   20.9260 C   0  0  0  0  0  0  0  0  0  0  0  0
   84.3688  149.3734   20.9662 F   0  0  0  0  0  0  0  0  0  0  0  0
   84.0335  147.6348   19.3928 C   0  0  0  0  0  0  0  0  0  0  0  0
   82.1945  146.0816   19.7465 C   0  0  0  0  0  0  0  0  0  0  0  0
   83.2778  146.5246   18.9833 C   0  0  0  0  0  0  0  0  0  0  0  0
 27 26  1  0
 27 28  2  0
 27 29  5  0
 28 30  1  0
 28 31  5  0
 29 32  2  0
 31 33  2  0
 31 25  1  0
 32 33  5  0
 25  1  1  0
  1  2  1  0
  1  3  1  0
  2  4  1  0
  3  5  1  0
  6  5  1  0
  6  4  1  0
  6  7  1  0
  6  8  1  0
  7  9  1  0
  8 10  1  0
  8  9  1  0
 10 11  2  0
 10 12  5  0
 11 13  5  0
 12 14  2  0
 15 14  5  0
 15 13  2  0
 15 16  1  0
 16 17  1  0
 16 18  1  0
 17 19  2  0
 17 20  1  0
 18 21  1  0
 20 22  1  0
 21 22  1  0
 22 23  2  0
 20 24  1  0
M  END
> <ID>
EDEL-CRBN-0008_ent

> <Stereoisomer>
enantiomer

> <MW>
457.16

> <HBD>
1

> <HBA>
4

> <RotBonds>
4

> <cLogP>
4.07

> <minimizedAffinity>
-8.47839

> <CNNscore>
0.7928389311

> <CNNaffinity>
7.3925871849

> <CNN_VS>
5.8611307144

> <CNNaffinity_variance>
0.0425307192

> <Compound_Name>
EDEL-CRBN-0008_ent

> <Pose_Rank>
1
$$$$
EDEL-CRBN-0008_ent


 33 37  0  0  0  0  0  0  0  0999 V2000
   81.2750  150.1998   17.7970 N   0  0  0  0  0  0  0  0  0  0  0  0
   80.6637  150.0169   16.4694 C   0  0  0  0  0  0  0  0  0  0  0  0
   82.7331  150.0089   17.7974 C   0  0  0  0  0  0  0  0  0  0  0  0
   81.5646  150.5683   15.3686 C   0  0  0  0  0  0  0  0  0  0  0  0
   83.2271  149.1163   16.6615 C   0  0  0  0  0  0  0  0  0  0  0  0
   82.8565  149.7397   15.3096 C   0  0  0  0  0  0  0  0  0  0  0  0
   82.7106  148.6711   14.3136 O   0  0  0  0  0  0  0  0  0  0  0  0
   84.0544  150.3221   14.4844 C   0  0  0  0  0  0  0  0  0  0  0  0
   83.4967  149.4330   13.3629 C   0  0  0  0  0  0  0  0  0  0  0  0
   84.2155  151.8921   14.3149 C   0  0  0  0  0  0  0  0  0  0  0  0
   84.9858  152.6320   15.2292 C   0  0  0  0  0  0  0  0  0  0  0  0
   83.6309  152.6369   13.2786 C   0  0  0  0  0  0  0  0  0  0  0  0
   85.1569  154.0204   15.1237 C   0  0  0  0  0  0  0  0  0  0  0  0
   83.7948  154.0281   13.1686 C   0  0  0  0  0  0  0  0  0  0  0  0
   84.5641  154.7489   14.0898 C   0  0  0  0  0  0  0  0  0  0  0  0
   84.7198  156.1734   13.9888 N   0  0  0  0  0  0  0  0  0  0  0  0
   85.5155  156.7657   13.0011 C   0  0  0  0  0  0  0  0  0  0  0  0
   83.8654  157.0495   14.7854 C   0  0  0  0  0  0  0  0  0  0  0  0
   86.1638  156.1878   12.1323 O   0  0  0  0  0  0  0  0  0  0  0  0
   85.5472  158.1408   13.0194 N   0  0  0  0  0  0  0  0  0  0  0  0
   84.6301  158.2672   15.2602 C   0  0  0  0  0  0  0  0  0  0  0  0
   85.2519  158.9480   14.0814 C   0  0  0  0  0  0  0  0  0  0  0  0
   85.5525  160.1383   14.0894 O   0  0  0  0  0  0  0  0  0  0  0  0
   85.8092  158.5885   12.1827 H   0  0  0  0  0  0  0  0  0  0  0  0
   80.5673  149.3934   18.8013 C   0  0  0  0  0  0  0  0  0  0  0  0
   80.9622  147.2363   23.5536 Cl  0  0  0  0  0  0  0  0  0  0  0  0
   81.5816  148.2247   22.2860 C   0  0  0  0  0  0  0  0  0  0  0  0
   80.8614  148.4012   21.1044 C   0  0  0  0  0  0  0  0  0  0  0  0
   82.8198  148.8456   22.4488 C   0  0  0  0  0  0  0  0  0  0  0  0
   79.6801  147.7828   20.9440 F   0  0  0  0  0  0  0  0  0  0  0  0
   81.3639  149.2013   20.0701 C   0  0  0  0  0  0  0  0  0  0  0  0
   83.3364  149.6405   21.4250 C   0  0  0  0  0  0  0  0  0  0  0  0
   82.6140  149.8167   20.2420 C   0  0  0  0  0  0  0  0  0  0  0  0
 27 26  1  0
 27 28  2  0
 27 29  5  0
 28 30  1  0
 28 31  5  0
 29 32  2  0
 31 33  2  0
 31 25  1  0
 32 33  5  0
 25  1  1  0
  1  2  1  0
  1  3  1  0
  2  4  1  0
  3  5  1  0
  6  5  1  0
  6  4  1  0
  6  7  1  0
  6  8  1  0
  7  9  1  0
  8 10  1  0
  8  9  1  0
 10 11  2  0
 10 12  5  0
 11 13  5  0
 12 14  2  0
 15 14  5  0
 15 13  2  0
 15 16  1  0
 16 17  1  0
 16 18  1  0
 17 19  2  0
 17 20  1  0
 18 21  1  0
 20 22  1  0
 21 22  1  0
 22 23  2  0
 20 24  1  0
M  END
> <ID>
EDEL-CRBN-0008_ent

> <Stereoisomer>
enantiomer

> <MW>
457.16

> <HBD>
1

> <HBA>
4

> <RotBonds>
4

> <cLogP>
4.07

> <minimizedAffinity>
-9.46710

> <CNNscore>
0.7469515204

> <CNNaffinity>
7.3093609810

> <CNN_VS>
5.4597382545

> <CNNaffinity_variance>
0.0006784559

> <Compound_Name>
EDEL-CRBN-0008_ent

> <Pose_Rank>
2
$$$$
EDEL-CRBN-0008_ent


 33 37  0  0  0  0  0  0  0  0999 V2000
   86.7639  148.8156   16.5493 N   0  0  0  0  0  0  0  0  0  0  0  0
   85.4128  148.9334   17.1242 C   0  0  0  0  0  0  0  0  0  0  0  0
   86.7676  148.7545   15.0801 C   0  0  0  0  0  0  0  0  0  0  0  0
   84.5245  149.8257   16.2628 C   0  0  0  0  0  0  0  0  0  0  0  0
   85.4586  148.2329   14.4926 C   0  0  0  0  0  0  0  0  0  0  0  0
   84.3006  149.1527   14.9005 C   0  0  0  0  0  0  0  0  0  0  0  0
   83.0582  148.3714   14.9360 O   0  0  0  0  0  0  0  0  0  0  0  0
   83.6972  150.0283   13.7497 C   0  0  0  0  0  0  0  0  0  0  0  0
   82.3650  149.4176   14.2099 C   0  0  0  0  0  0  0  0  0  0  0  0
   83.9440  151.5962   13.7293 C   0  0  0  0  0  0  0  0  0  0  0  0
   82.9300  152.4822   14.1338 C   0  0  0  0  0  0  0  0  0  0  0  0
   85.1462  152.1995   13.3279 C   0  0  0  0  0  0  0  0  0  0  0  0
   83.0985  153.8750   14.1320 C   0  0  0  0  0  0  0  0  0  0  0  0
   85.3208  153.5937   13.3199 C   0  0  0  0  0  0  0  0  0  0  0  0
   84.2990  154.4610   13.7244 C   0  0  0  0  0  0  0  0  0  0  0  0
   84.4695  155.8872   13.7017 N   0  0  0  0  0  0  0  0  0  0  0  0
   84.9331  156.5621   12.5664 C   0  0  0  0  0  0  0  0  0  0  0  0
   83.9464  156.6927   14.8015 C   0  0  0  0  0  0  0  0  0  0  0  0
   85.2495  156.0623   11.4898 O   0  0  0  0  0  0  0  0  0  0  0  0
   85.0222  157.9291   12.6916 N   0  0  0  0  0  0  0  0  0  0  0  0
   84.8687  157.8533   15.1101 C   0  0  0  0  0  0  0  0  0  0  0  0
   85.1104  158.6359   13.8575 C   0  0  0  0  0  0  0  0  0  0  0  0
   85.4438  159.8173   13.8713 O   0  0  0  0  0  0  0  0  0  0  0  0
   85.0224  158.4509   11.8567 H   0  0  0  0  0  0  0  0  0  0  0  0
   87.5002  147.7194   17.1941 C   0  0  0  0  0  0  0  0  0  0  0  0
   91.5231  150.5537   18.9760 Cl  0  0  0  0  0  0  0  0  0  0  0  0
   90.2027  149.4770   19.2300 C   0  0  0  0  0  0  0  0  0  0  0  0
   89.4143  149.0528   18.1602 C   0  0  0  0  0  0  0  0  0  0  0  0
   89.9222  149.0352   20.5228 C   0  0  0  0  0  0  0  0  0  0  0  0
   89.6750  149.4991   16.9206 F   0  0  0  0  0  0  0  0  0  0  0  0
   88.3375  148.1802   18.3636 C   0  0  0  0  0  0  0  0  0  0  0  0
   88.8491  148.1708   20.7422 C   0  0  0  0  0  0  0  0  0  0  0  0
   88.0603  147.7464   19.6699 C   0  0  0  0  0  0  0  0  0  0  0  0
 27 26  1  0
 27 28  2  0
 27 29  5  0
 28 30  1  0
 28 31  5  0
 29 32  2  0
 31 33  2  0
 31 25  1  0
 32 33  5  0
 25  1  1  0
  1  2  1  0
  1  3  1  0
  2  4  1  0
  3  5  1  0
  6  5  1  0
  6  4  1  0
  6  7  1  0
  6  8  1  0
  7  9  1  0
  8 10  1  0
  8  9  1  0
 10 11  2  0
 10 12  5  0
 11 13  5  0
 12 14  2  0
 15 14  5  0
 15 13  2  0
 15 16  1  0
 16 17  1  0
 16 18  1  0
 17 19  2  0
 17 20  1  0
 18 21  1  0
 20 22  1  0
 21 22  1  0
 22 23  2  0
 20 24  1  0
M  END
> <ID>
EDEL-CRBN-0008_ent

> <Stereoisomer>
enantiomer

> <MW>
457.16

> <HBD>
1

> <HBA>
4

> <RotBonds>
4

> <cLogP>
4.07

> <minimizedAffinity>
-8.47280

> <CNNscore>
0.7444849610

> <CNNaffinity>
7.3595337868

> <CNN_VS>
5.4790620804

> <CNNaffinity_variance>
0.1739082187

> <Compound_Name>
EDEL-CRBN-0008_ent

> <Pose_Rank>
3
$$$$
EDEL-CRBN-0008_ent


 33 37  0  0  0  0  0  0  0  0999 V2000
   80.0968  150.6875   17.7122 N   0  0  0  0  0  0  0  0  0  0  0  0
   79.8359  150.3449   16.3036 C   0  0  0  0  0  0  0  0  0  0  0  0
   81.5036  150.5119   18.1026 C   0  0  0  0  0  0  0  0  0  0  0  0
   80.9958  150.7724   15.4097 C   0  0  0  0  0  0  0  0  0  0  0  0
   82.2494  149.4975   17.2390 C   0  0  0  0  0  0  0  0  0  0  0  0
   82.2439  149.9550   15.7748 C   0  0  0  0  0  0  0  0  0  0  0  0
   82.3317  148.7760   14.9045 O   0  0  0  0  0  0  0  0  0  0  0  0
   83.6225  150.4485   15.2170 C   0  0  0  0  0  0  0  0  0  0  0  0
   83.3471  149.4291   14.1015 C   0  0  0  0  0  0  0  0  0  0  0  0
   83.8529  151.9894   14.9135 C   0  0  0  0  0  0  0  0  0  0  0  0
   85.0004  152.6458   15.3922 C   0  0  0  0  0  0  0  0  0  0  0  0
   82.9694  152.7867   14.1691 C   0  0  0  0  0  0  0  0  0  0  0  0
   85.2484  154.0057   15.1525 C   0  0  0  0  0  0  0  0  0  0  0  0
   83.2093  154.1500   13.9282 C   0  0  0  0  0  0  0  0  0  0  0  0
   84.3569  154.7876   14.4146 C   0  0  0  0  0  0  0  0  0  0  0  0
   84.5963  156.1851   14.1834 N   0  0  0  0  0  0  0  0  0  0  0  0
   85.4158  156.6362   13.1421 C   0  0  0  0  0  0  0  0  0  0  0  0
   83.8040  157.1799   14.9008 C   0  0  0  0  0  0  0  0  0  0  0  0
   86.0196  155.9439   12.3266 O   0  0  0  0  0  0  0  0  0  0  0  0
   85.5299  158.0029   13.0348 N   0  0  0  0  0  0  0  0  0  0  0  0
   84.6448  158.3872   15.2591 C   0  0  0  0  0  0  0  0  0  0  0  0
   85.2941  158.9195   14.0202 C   0  0  0  0  0  0  0  0  0  0  0  0
   85.6654  160.0852   13.9183 O   0  0  0  0  0  0  0  0  0  0  0  0
   85.8096  158.3562   12.1596 H   0  0  0  0  0  0  0  0  0  0  0  0
   79.1428  149.9973   18.5915 C   0  0  0  0  0  0  0  0  0  0  0  0
   74.3960  151.6464   20.0547 Cl  0  0  0  0  0  0  0  0  0  0  0  0
   75.4812  151.0227   18.8711 C   0  0  0  0  0  0  0  0  0  0  0  0
   76.8166  150.7755   19.1898 C   0  0  0  0  0  0  0  0  0  0  0  0
   75.0126  150.7716   17.5817 C   0  0  0  0  0  0  0  0  0  0  0  0
   77.2677  151.0405   20.4267 F   0  0  0  0  0  0  0  0  0  0  0  0
   77.7026  150.2719   18.2288 C   0  0  0  0  0  0  0  0  0  0  0  0
   75.8847  150.2758   16.6119 C   0  0  0  0  0  0  0  0  0  0  0  0
   77.2220  150.0284   16.9323 C   0  0  0  0  0  0  0  0  0  0  0  0
 27 26  1  0
 27 28  2  0
 27 29  5  0
 28 30  1  0
 28 31  5  0
 29 32  2  0
 31 33  2  0
 31 25  1  0
 32 33  5  0
 25  1  1  0
  1  2  1  0
  1  3  1  0
  2  4  1  0
  3  5  1  0
  6  5  1  0
  6  4  1  0
  6  7  1  0
  6  8  1  0
  7  9  1  0
  8 10  1  0
  8  9  1  0
 10 11  2  0
 10 12  5  0
 11 13  5  0
 12 14  2  0
 15 14  5  0
 15 13  2  0
 15 16  1  0
 16 17  1  0
 16 18  1  0
 17 19  2  0
 17 20  1  0
 18 21  1  0
 20 22  1  0
 21 22  1  0
 22 23  2  0
 20 24  1  0
M  END
> <ID>
EDEL-CRBN-0008_ent

> <Stereoisomer>
enantiomer

> <MW>
457.16

> <HBD>
1

> <HBA>
4

> <RotBonds>
4

> <cLogP>
4.07

> <minimizedAffinity>
-9.80040

> <CNNscore>
0.7146616578

> <CNNaffinity>
7.1824555397

> <CNN_VS>
5.1330256462

> <CNNaffinity_variance>
0.0113539137

> <Compound_Name>
EDEL-CRBN-0008_ent

> <Pose_Rank>
4
$$$$
EDEL-CRBN-0008_ent


 33 37  0  0  0  0  0  0  0  0999 V2000
   80.7482  150.3353   17.4923 N   0  0  0  0  0  0  0  0  0  0  0  0
   80.3896  150.0725   16.0880 C   0  0  0  0  0  0  0  0  0  0  0  0
   82.1860  150.1877   17.7629 C   0  0  0  0  0  0  0  0  0  0  0  0
   81.4623  150.5978   15.1389 C   0  0  0  0  0  0  0  0  0  0  0  0
   82.8945  149.2578   16.7810 C   0  0  0  0  0  0  0  0  0  0  0  0
   82.7604  149.8058   15.3544 C   0  0  0  0  0  0  0  0  0  0  0  0
   82.8181  148.6878   14.4047 O   0  0  0  0  0  0  0  0  0  0  0  0
   84.0750  150.3839   14.7276 C   0  0  0  0  0  0  0  0  0  0  0  0
   83.7465  149.4271   13.5717 C   0  0  0  0  0  0  0  0  0  0  0  0
   84.2316  151.9483   14.5090 C   0  0  0  0  0  0  0  0  0  0  0  0
   85.0183  152.7149   15.3866 C   0  0  0  0  0  0  0  0  0  0  0  0
   83.6271  152.6621   13.4623 C   0  0  0  0  0  0  0  0  0  0  0  0
   85.1863  154.0997   15.2371 C   0  0  0  0  0  0  0  0  0  0  0  0
   83.7879  154.0495   13.3085 C   0  0  0  0  0  0  0  0  0  0  0  0
   84.5737  154.7973   14.1935 C   0  0  0  0  0  0  0  0  0  0  0  0
   84.7263  156.2182   14.0478 N   0  0  0  0  0  0  0  0  0  0  0  0
   85.5045  156.7814   13.0296 C   0  0  0  0  0  0  0  0  0  0  0  0
   83.8848  157.1172   14.8325 C   0  0  0  0  0  0  0  0  0  0  0  0
   86.1385  156.1783   12.1674 O   0  0  0  0  0  0  0  0  0  0  0  0
   85.5353  158.1565   13.0067 N   0  0  0  0  0  0  0  0  0  0  0  0
   84.6563  158.3487   15.2581 C   0  0  0  0  0  0  0  0  0  0  0  0
   85.2573  158.9947   14.0492 C   0  0  0  0  0  0  0  0  0  0  0  0
   85.5569  160.1847   14.0169 O   0  0  0  0  0  0  0  0  0  0  0  0
   85.7826  158.5793   12.1527 H   0  0  0  0  0  0  0  0  0  0  0  0
   79.8882  149.5566   18.3942 C   0  0  0  0  0  0  0  0  0  0  0  0
   75.1525  149.2993   16.1805 Cl  0  0  0  0  0  0  0  0  0  0  0  0
   76.6525  148.5807   16.6290 C   0  0  0  0  0  0  0  0  0  0  0  0
   77.6260  149.3236   17.2971 C   0  0  0  0  0  0  0  0  0  0  0  0
   76.8900  147.2437   16.3109 C   0  0  0  0  0  0  0  0  0  0  0  0
   77.4009  150.6169   17.5808 F   0  0  0  0  0  0  0  0  0  0  0  0
   78.8484  148.7435   17.6600 C   0  0  0  0  0  0  0  0  0  0  0  0
   78.1052  146.6536   16.6603 C   0  0  0  0  0  0  0  0  0  0  0  0
   79.0794  147.3986   17.3296 C   0  0  0  0  0  0  0  0  0  0  0  0
 27 26  1  0
 27 28  2  0
 27 29  5  0
 28 30  1  0
 28 31  5  0
 29 32  2  0
 31 33  2  0
 31 25  1  0
 32 33  5  0
 25  1  1  0
  1  2  1  0
  1  3  1  0
  2  4  1  0
  3  5  1  0
  6  5  1  0
  6  4  1  0
  6  7  1  0
  6  8  1  0
  7  9  1  0
  8 10  1  0
  8  9  1  0
 10 11  2  0
 10 12  5  0
 11 13  5  0
 12 14  2  0
 15 14  5  0
 15 13  2  0
 15 16  1  0
 16 17  1  0
 16 18  1  0
 17 19  2  0
 17 20  1  0
 18 21  1  0
 20 22  1  0
 21 22  1  0
 22 23  2  0
 20 24  1  0
M  END
> <ID>
EDEL-CRBN-0008_ent

> <Stereoisomer>
enantiomer

> <MW>
457.16

> <HBD>
1

> <HBA>
4

> <RotBonds>
4

> <cLogP>
4.07

> <minimizedAffinity>
-8.83080

> <CNNscore>
0.6599799395

> <CNNaffinity>
7.2138233185

> <CNN_VS>
4.7609786987

> <CNNaffinity_variance>
0.0112359896

> <Compound_Name>
EDEL-CRBN-0008_ent

> <Pose_Rank>
5
$$$$
EDEL-CRBN-0008


 33 37  0  0  0  0  0  0  0  0999 V2000
   88.2177  148.9408   14.7933 N   0  0  0  0  0  0  0  0  0  0  0  0
   87.2565  149.1905   15.8794 C   0  0  0  0  0  0  0  0  0  0  0  0
   87.5903  148.9248   13.4592 C   0  0  0  0  0  0  0  0  0  0  0  0
   85.8513  148.6821   15.5688 C   0  0  0  0  0  0  0  0  0  0  0  0
   86.4061  149.8858   13.3809 C   0  0  0  0  0  0  0  0  0  0  0  0
   85.3002  149.3968   14.3276 C   0  0  0  0  0  0  0  0  0  0  0  0
   84.4055  148.4822   13.6063 O   0  0  0  0  0  0  0  0  0  0  0  0
   84.0864  150.3549   14.5831 C   0  0  0  0  0  0  0  0  0  0  0  0
   83.4216  149.5369   13.4652 C   0  0  0  0  0  0  0  0  0  0  0  0
   84.2731  151.9272   14.4728 C   0  0  0  0  0  0  0  0  0  0  0  0
   83.6354  152.6536   13.4524 C   0  0  0  0  0  0  0  0  0  0  0  0
   85.0694  152.6862   15.3446 C   0  0  0  0  0  0  0  0  0  0  0  0
   83.7725  154.0436   13.3153 C   0  0  0  0  0  0  0  0  0  0  0  0
   85.2115  154.0781   15.2128 C   0  0  0  0  0  0  0  0  0  0  0  0
   84.5625  154.7877   14.1951 C   0  0  0  0  0  0  0  0  0  0  0  0
   84.7191  156.2094   14.0502 N   0  0  0  0  0  0  0  0  0  0  0  0
   85.4936  156.7731   13.0285 C   0  0  0  0  0  0  0  0  0  0  0  0
   83.8820  157.1108   14.8371 C   0  0  0  0  0  0  0  0  0  0  0  0
   86.1343  156.1718   12.1704 O   0  0  0  0  0  0  0  0  0  0  0  0
   85.5162  158.1482   12.9995 N   0  0  0  0  0  0  0  0  0  0  0  0
   84.6561  158.3427   15.2574 C   0  0  0  0  0  0  0  0  0  0  0  0
   85.2537  158.9862   14.0459 C   0  0  0  0  0  0  0  0  0  0  0  0
   85.5656  160.1732   14.0161 O   0  0  0  0  0  0  0  0  0  0  0  0
   85.7440  158.5701   12.1397 H   0  0  0  0  0  0  0  0  0  0  0  0
   89.0247  147.7358   15.0450 C   0  0  0  0  0  0  0  0  0  0  0  0
   87.6599  143.8289   11.8387 Cl  0  0  0  0  0  0  0  0  0  0  0  0
   88.7122  145.1149   12.2928 C   0  0  0  0  0  0  0  0  0  0  0  0
   88.4536  145.8780   13.4316 C   0  0  0  0  0  0  0  0  0  0  0  0
   89.8285  145.3929   11.5040 C   0  0  0  0  0  0  0  0  0  0  0  0
   87.3675  145.6185   14.1774 F   0  0  0  0  0  0  0  0  0  0  0  0
   89.3041  146.9280   13.7994 C   0  0  0  0  0  0  0  0  0  0  0  0
   90.6840  146.4373   11.8568 C   0  0  0  0  0  0  0  0  0  0  0  0
   90.4240  147.2009   12.9974 C   0  0  0  0  0  0  0  0  0  0  0  0
 27 26  1  0
 27 28  2  0
 27 29  5  0
 28 30  1  0
 28 31  5  0
 29 32  2  0
 31 33  2  0
 31 25  1  0
 32 33  5  0
 25  1  1  0
  1  2  1  0
  1  3  1  0
  2  4  1  0
  3  5  1  0
  6  5  1  0
  6  4  1  0
  6  7  1  0
  6  8  1  0
  7  9  1  0
  8 10  1  0
  8  9  1  0
 10 11  2  0
 10 12  5  0
 11 13  5  0
 12 14  2  0
 15 14  5  0
 15 13  2  0
 15 16  1  0
 16 17  1  0
 16 18  1  0
 17 19  2  0
 17 20  1  0
 18 21  1  0
 20 22  1  0
 21 22  1  0
 22 23  2  0
 20 24  1  0
M  END
> <ID>
EDEL-CRBN-0008

> <Stereoisomer>
original

> <MW>
457.16

> <HBD>
1

> <HBA>
4

> <RotBonds>
4

> <cLogP>
4.07

> <minimizedAffinity>
-7.56416

> <CNNscore>
0.8149921894

> <CNNaffinity>
6.9923930168

> <CNN_VS>
5.6987457275

> <CNNaffinity_variance>
0.0447334237

> <Compound_Name>
EDEL-CRBN-0008

> <Pose_Rank>
1
$$$$
EDEL-CRBN-0008


 33 37  0  0  0  0  0  0  0  0999 V2000
   79.8860  150.1974   16.4958 N   0  0  0  0  0  0  0  0  0  0  0  0
   80.3244  150.0106   15.1034 C   0  0  0  0  0  0  0  0  0  0  0  0
   81.0034  150.2023   17.4575 C   0  0  0  0  0  0  0  0  0  0  0  0
   81.6014  149.1836   14.9800 C   0  0  0  0  0  0  0  0  0  0  0  0
   82.2702  150.7985   16.8477 C   0  0  0  0  0  0  0  0  0  0  0  0
   82.7532  149.8902   15.7075 C   0  0  0  0  0  0  0  0  0  0  0  0
   83.6739  148.8786   16.2422 O   0  0  0  0  0  0  0  0  0  0  0  0
   83.9041  150.4270   14.7890 C   0  0  0  0  0  0  0  0  0  0  0  0
   84.8081  149.6283   15.7406 C   0  0  0  0  0  0  0  0  0  0  0  0
   84.0893  151.9881   14.5708 C   0  0  0  0  0  0  0  0  0  0  0  0
   85.0314  152.7091   15.3247 C   0  0  0  0  0  0  0  0  0  0  0  0
   83.3468  152.7459   13.6518 C   0  0  0  0  0  0  0  0  0  0  0  0
   85.2285  154.0897   15.1669 C   0  0  0  0  0  0  0  0  0  0  0  0
   83.5388  154.1285   13.4890 C   0  0  0  0  0  0  0  0  0  0  0  0
   84.4875  154.8302   14.2427 C   0  0  0  0  0  0  0  0  0  0  0  0
   84.6742  156.2472   14.0877 N   0  0  0  0  0  0  0  0  0  0  0  0
   85.4563  156.7872   13.0590 C   0  0  0  0  0  0  0  0  0  0  0  0
   83.8602  157.1717   14.8721 C   0  0  0  0  0  0  0  0  0  0  0  0
   86.0801  156.1666   12.2023 O   0  0  0  0  0  0  0  0  0  0  0  0
   85.5085  158.1613   13.0208 N   0  0  0  0  0  0  0  0  0  0  0  0
   84.6625  158.3892   15.2810 C   0  0  0  0  0  0  0  0  0  0  0  0
   85.2687  159.0117   14.0627 C   0  0  0  0  0  0  0  0  0  0  0  0
   85.6061  160.1914   14.0237 O   0  0  0  0  0  0  0  0  0  0  0  0
   85.7417  158.5725   12.1573 H   0  0  0  0  0  0  0  0  0  0  0  0
   78.8324  149.2398   16.8693 C   0  0  0  0  0  0  0  0  0  0  0  0
   76.3693  150.8857   21.1857 Cl  0  0  0  0  0  0  0  0  0  0  0  0
   76.4412  150.6569   19.4798 C   0  0  0  0  0  0  0  0  0  0  0  0
   77.5601  150.0724   18.8864 C   0  0  0  0  0  0  0  0  0  0  0  0
   75.3671  151.0693   18.6911 C   0  0  0  0  0  0  0  0  0  0  0  0
   78.5994  149.6939   19.6480 F   0  0  0  0  0  0  0  0  0  0  0  0
   77.6236  149.8909   17.4993 C   0  0  0  0  0  0  0  0  0  0  0  0
   75.4167  150.8968   17.3073 C   0  0  0  0  0  0  0  0  0  0  0  0
   76.5379  150.3114   16.7141 C   0  0  0  0  0  0  0  0  0  0  0  0
 27 26  1  0
 27 28  2  0
 27 29  5  0
 28 30  1  0
 28 31  5  0
 29 32  2  0
 31 33  2  0
 31 25  1  0
 32 33  5  0
 25  1  1  0
  1  2  1  0
  1  3  1  0
  2  4  1  0
  3  5  1  0
  6  5  1  0
  6  4  1  0
  6  7  1  0
  6  8  1  0
  7  9  1  0
  8 10  1  0
  8  9  1  0
 10 11  2  0
 10 12  5  0
 11 13  5  0
 12 14  2  0
 15 14  5  0
 15 13  2  0
 15 16  1  0
 16 17  1  0
 16 18  1  0
 17 19  2  0
 17 20  1  0
 18 21  1  0
 20 22  1  0
 21 22  1  0
 22 23  2  0
 20 24  1  0
M  END
> <ID>
EDEL-CRBN-0008

> <Stereoisomer>
original

> <MW>
457.16

> <HBD>
1

> <HBA>
4

> <RotBonds>
4

> <cLogP>
4.07

> <minimizedAffinity>
-9.59819

> <CNNscore>
0.7402451038

> <CNNaffinity>
7.2642159462

> <CNN_VS>
5.3773002625

> <CNNaffinity_variance>
0.0011936076

> <Compound_Name>
EDEL-CRBN-0008

> <Pose_Rank>
2
$$$$
EDEL-CRBN-0008


 33 37  0  0  0  0  0  0  0  0999 V2000
   89.7020  149.7695   15.8365 N   0  0  0  0  0  0  0  0  0  0  0  0
   88.4412  149.7457   16.5952 C   0  0  0  0  0  0  0  0  0  0  0  0
   89.5000  149.6922   14.3781 C   0  0  0  0  0  0  0  0  0  0  0  0
   87.3321  148.9642   15.8961 C   0  0  0  0  0  0  0  0  0  0  0  0
   88.2041  150.3781   13.9508 C   0  0  0  0  0  0  0  0  0  0  0  0
   87.0123  149.6106   14.5414 C   0  0  0  0  0  0  0  0  0  0  0  0
   86.5865  148.5658   13.6011 O   0  0  0  0  0  0  0  0  0  0  0  0
   85.5947  150.2688   14.4250 C   0  0  0  0  0  0  0  0  0  0  0  0
   85.4746  149.3897   13.1707 C   0  0  0  0  0  0  0  0  0  0  0  0
   85.4505  151.8480   14.3580 C   0  0  0  0  0  0  0  0  0  0  0  0
   85.5387  152.5229   13.1282 C   0  0  0  0  0  0  0  0  0  0  0  0
   85.2440  152.6657   15.4799 C   0  0  0  0  0  0  0  0  0  0  0  0
   85.4188  153.9172   13.0211 C   0  0  0  0  0  0  0  0  0  0  0  0
   85.1235  154.0623   15.3800 C   0  0  0  0  0  0  0  0  0  0  0  0
   85.2057  154.7182   14.1457 C   0  0  0  0  0  0  0  0  0  0  0  0
   85.0976  156.1482   14.0440 N   0  0  0  0  0  0  0  0  0  0  0  0
   85.7099  156.8698   13.0116 C   0  0  0  0  0  0  0  0  0  0  0  0
   84.1497  156.8619   14.8952 C   0  0  0  0  0  0  0  0  0  0  0  0
   86.4075  156.4176   12.1077 O   0  0  0  0  0  0  0  0  0  0  0  0
   85.4838  158.2266   13.0295 N   0  0  0  0  0  0  0  0  0  0  0  0
   84.7087  158.2018   15.3261 C   0  0  0  0  0  0  0  0  0  0  0  0
   85.1240  158.9750   14.1142 C   0  0  0  0  0  0  0  0  0  0  0  0
   85.2160  160.1992   14.1129 O   0  0  0  0  0  0  0  0  0  0  0  0
   85.5920  158.7057   12.1762 H   0  0  0  0  0  0  0  0  0  0  0  0
   90.6508  148.7549   16.3230 C   0  0  0  0  0  0  0  0  0  0  0  0
   94.4245  152.3371   16.9016 Cl  0  0  0  0  0  0  0  0  0  0  0  0
   93.5410  150.9676   17.4596 C   0  0  0  0  0  0  0  0  0  0  0  0
   92.4942  150.4394   16.7040 C   0  0  0  0  0  0  0  0  0  0  0  0
   93.8791  150.3913   18.6841 C   0  0  0  0  0  0  0  0  0  0  0  0
   92.1604  151.0091   15.5346 F   0  0  0  0  0  0  0  0  0  0  0  0
   91.7705  149.3300   17.1583 C   0  0  0  0  0  0  0  0  0  0  0  0
   93.1658  149.2866   19.1508 C   0  0  0  0  0  0  0  0  0  0  0  0
   92.1175  148.7585   18.3933 C   0  0  0  0  0  0  0  0  0  0  0  0
 27 26  1  0
 27 28  2  0
 27 29  5  0
 28 30  1  0
 28 31  5  0
 29 32  2  0
 31 33  2  0
 31 25  1  0
 32 33  5  0
 25  1  1  0
  1  2  1  0
  1  3  1  0
  2  4  1  0
  3  5  1  0
  6  5  1  0
  6  4  1  0
  6  7  1  0
  6  8  1  0
  7  9  1  0
  8 10  1  0
  8  9  1  0
 10 11  2  0
 10 12  5  0
 11 13  5  0
 12 14  2  0
 15 14  5  0
 15 13  2  0
 15 16  1  0
 16 17  1  0
 16 18  1  0
 17 19  2  0
 17 20  1  0
 18 21  1  0
 20 22  1  0
 21 22  1  0
 22 23  2  0
 20 24  1  0
M  END
> <ID>
EDEL-CRBN-0008

> <Stereoisomer>
original

> <MW>
457.16

> <HBD>
1

> <HBA>
4

> <RotBonds>
4

> <cLogP>
4.07

> <minimizedAffinity>
-8.68977

> <CNNscore>
0.7111181617

> <CNNaffinity>
7.3574008942

> <CNN_VS>
5.2319812775

> <CNNaffinity_variance>
0.1495331079

> <Compound_Name>
EDEL-CRBN-0008

> <Pose_Rank>
3
$$$$
EDEL-CRBN-0008


 33 37  0  0  0  0  0  0  0  0999 V2000
   79.9354  149.5318   14.3237 N   0  0  0  0  0  0  0  0  0  0  0  0
   81.0046  149.3655   13.3261 C   0  0  0  0  0  0  0  0  0  0  0  0
   80.4468  149.6956   15.6967 C   0  0  0  0  0  0  0  0  0  0  0  0
   82.2553  148.6966   13.8898 C   0  0  0  0  0  0  0  0  0  0  0  0
   81.7879  150.4258   15.7160 C   0  0  0  0  0  0  0  0  0  0  0  0
   82.8429  149.5551   15.0180 C   0  0  0  0  0  0  0  0  0  0  0  0
   83.4842  148.6758   16.0043 O   0  0  0  0  0  0  0  0  0  0  0  0
   84.2370  150.2047   14.7165 C   0  0  0  0  0  0  0  0  0  0  0  0
   84.6432  149.5449   16.0433 C   0  0  0  0  0  0  0  0  0  0  0  0
   84.3557  151.7710   14.4889 C   0  0  0  0  0  0  0  0  0  0  0  0
   85.1396  152.5612   15.3473 C   0  0  0  0  0  0  0  0  0  0  0  0
   83.7024  152.4664   13.4596 C   0  0  0  0  0  0  0  0  0  0  0  0
   85.2727  153.9490   15.1855 C   0  0  0  0  0  0  0  0  0  0  0  0
   83.8310  153.8558   13.2920 C   0  0  0  0  0  0  0  0  0  0  0  0
   84.6226  154.6272   14.1515 C   0  0  0  0  0  0  0  0  0  0  0  0
   84.7428  156.0508   13.9902 N   0  0  0  0  0  0  0  0  0  0  0  0
   85.5415  156.6223   12.9918 C   0  0  0  0  0  0  0  0  0  0  0  0
   83.8477  156.9380   14.7278 C   0  0  0  0  0  0  0  0  0  0  0  0
   86.2345  156.0280   12.1703 O   0  0  0  0  0  0  0  0  0  0  0  0
   85.5245  157.9969   12.9416 N   0  0  0  0  0  0  0  0  0  0  0  0
   84.5670  158.1989   15.1592 C   0  0  0  0  0  0  0  0  0  0  0  0
   85.1945  158.8421   13.9627 C   0  0  0  0  0  0  0  0  0  0  0  0
   85.4720  160.0374   13.9266 O   0  0  0  0  0  0  0  0  0  0  0  0
   85.7749  158.4126   12.0850 H   0  0  0  0  0  0  0  0  0  0  0  0
   78.9279  148.4631   14.2271 C   0  0  0  0  0  0  0  0  0  0  0  0
   74.4289  147.5514   11.7101 Cl  0  0  0  0  0  0  0  0  0  0  0  0
   76.0694  148.0766   11.7330 C   0  0  0  0  0  0  0  0  0  0  0  0
   76.8042  148.0651   12.9187 C   0  0  0  0  0  0  0  0  0  0  0  0
   76.6588  148.5223   10.5499 C   0  0  0  0  0  0  0  0  0  0  0  0
   76.2267  147.6526   14.0587 F   0  0  0  0  0  0  0  0  0  0  0  0
   78.1359  148.4974   12.9412 C   0  0  0  0  0  0  0  0  0  0  0  0
   77.9844  148.9579   10.5571 C   0  0  0  0  0  0  0  0  0  0  0  0
   78.7192  148.9461   11.7451 C   0  0  0  0  0  0  0  0  0  0  0  0
 27 26  1  0
 27 28  2  0
 27 29  5  0
 28 30  1  0
 28 31  5  0
 29 32  2  0
 31 33  2  0
 31 25  1  0
 32 33  5  0
 25  1  1  0
  1  2  1  0
  1  3  1  0
  2  4  1  0
  3  5  1  0
  6  5  1  0
  6  4  1  0
  6  7  1  0
  6  8  1  0
  7  9  1  0
  8 10  1  0
  8  9  1  0
 10 11  2  0
 10 12  5  0
 11 13  5  0
 12 14  2  0
 15 14  5  0
 15 13  2  0
 15 16  1  0
 16 17  1  0
 16 18  1  0
 17 19  2  0
 17 20  1  0
 18 21  1  0
 20 22  1  0
 21 22  1  0
 22 23  2  0
 20 24  1  0
M  END
> <ID>
EDEL-CRBN-0008

> <Stereoisomer>
original

> <MW>
457.16

> <HBD>
1

> <HBA>
4

> <RotBonds>
4

> <cLogP>
4.07

> <minimizedAffinity>
-9.57708

> <CNNscore>
0.6802660227

> <CNNaffinity>
7.0066509247

> <CNN_VS>
4.7663865089

> <CNNaffinity_variance>
0.0097164353

> <Compound_Name>
EDEL-CRBN-0008

> <Pose_Rank>
4
$$$$
EDEL-CRBN-0008


 33 37  0  0  0  0  0  0  0  0999 V2000
   87.6675  148.8932   15.9193 N   0  0  0  0  0  0  0  0  0  0  0  0
   86.4545  149.2124   16.6891 C   0  0  0  0  0  0  0  0  0  0  0  0
   87.4271  148.8202   14.4665 C   0  0  0  0  0  0  0  0  0  0  0  0
   85.1729  148.7114   16.0287 C   0  0  0  0  0  0  0  0  0  0  0  0
   86.3374  149.7948   14.0252 C   0  0  0  0  0  0  0  0  0  0  0  0
   85.0017  149.3716   14.6539 C   0  0  0  0  0  0  0  0  0  0  0  0
   84.3112  148.4362   13.7564 O   0  0  0  0  0  0  0  0  0  0  0  0
   83.7926  150.3604   14.5252 C   0  0  0  0  0  0  0  0  0  0  0  0
   83.4340  149.4980   13.3053 C   0  0  0  0  0  0  0  0  0  0  0  0
   84.0478  151.9220   14.4012 C   0  0  0  0  0  0  0  0  0  0  0  0
   82.9863  152.8007   14.1242 C   0  0  0  0  0  0  0  0  0  0  0  0
   85.3076  152.5251   14.5403 C   0  0  0  0  0  0  0  0  0  0  0  0
   83.1649  154.1876   14.0044 C   0  0  0  0  0  0  0  0  0  0  0  0
   85.4937  153.9130   14.4212 C   0  0  0  0  0  0  0  0  0  0  0  0
   84.4236  154.7752   14.1530 C   0  0  0  0  0  0  0  0  0  0  0  0
   84.6152  156.1934   14.0159 N   0  0  0  0  0  0  0  0  0  0  0  0
   85.3673  156.7459   12.9716 C   0  0  0  0  0  0  0  0  0  0  0  0
   83.8335  157.1096   14.8417 C   0  0  0  0  0  0  0  0  0  0  0  0
   85.9587  156.1359   12.0848 O   0  0  0  0  0  0  0  0  0  0  0  0
   85.4279  158.1200   12.9549 N   0  0  0  0  0  0  0  0  0  0  0  0
   84.6572  158.3147   15.2448 C   0  0  0  0  0  0  0  0  0  0  0  0
   85.2280  158.9540   14.0182 C   0  0  0  0  0  0  0  0  0  0  0  0
   85.5722  160.1320   13.9882 O   0  0  0  0  0  0  0  0  0  0  0  0
   85.6360  158.5444   12.0913 H   0  0  0  0  0  0  0  0  0  0  0  0
   88.3401  147.6897   16.4349 C   0  0  0  0  0  0  0  0  0  0  0  0
   89.7336  148.4622   21.4217 Cl  0  0  0  0  0  0  0  0  0  0  0  0
   90.1103  148.3692   19.7434 C   0  0  0  0  0  0  0  0  0  0  0  0
   89.1196  148.0740   18.8066 C   0  0  0  0  0  0  0  0  0  0  0  0
   91.4236  148.5866   19.3266 C   0  0  0  0  0  0  0  0  0  0  0  0
   87.8605  147.8472   19.2146 F   0  0  0  0  0  0  0  0  0  0  0  0
   89.4245  147.9917   17.4424 C   0  0  0  0  0  0  0  0  0  0  0  0
   91.7429  148.5061   17.9707 C   0  0  0  0  0  0  0  0  0  0  0  0
   90.7501  148.2103   17.0335 C   0  0  0  0  0  0  0  0  0  0  0  0
 27 26  1  0
 27 28  2  0
 27 29  5  0
 28 30  1  0
 28 31  5  0
 29 32  2  0
 31 33  2  0
 31 25  1  0
 32 33  5  0
 25  1  1  0
  1  2  1  0
  1  3  1  0
  2  4  1  0
  3  5  1  0
  6  5  1  0
  6  4  1  0
  6  7  1  0
  6  8  1  0
  7  9  1  0
  8 10  1  0
  8  9  1  0
 10 11  2  0
 10 12  5  0
 11 13  5  0
 12 14  2  0
 15 14  5  0
 15 13  2  0
 15 16  1  0
 16 17  1  0
 16 18  1  0
 17 19  2  0
 17 20  1  0
 18 21  1  0
 20 22  1  0
 21 22  1  0
 22 23  2  0
 20 24  1  0
M  END
> <ID>
EDEL-CRBN-0008

> <Stereoisomer>
original

> <MW>
457.16

> <HBD>
1

> <HBA>
4

> <RotBonds>
4

> <cLogP>
4.07

> <minimizedAffinity>
-8.31967

> <CNNscore>
0.6720027328

> <CNNaffinity>
7.0948696136

> <CNN_VS>
4.7677717209

> <CNNaffinity_variance>
0.0039151907

> <Compound_Name>
EDEL-CRBN-0008

> <Pose_Rank>
5
$$$$
EDEL-CRBN-0009_ent


 35 39  0  0  0  0  0  0  0  0999 V2000
   84.5639  154.7304   14.1925 C   0  0  0  0  0  0  0  0  0  0  0  0
   85.0301  153.9429   15.2586 C   0  0  0  0  0  0  0  0  0  0  0  0
   83.7663  154.1089   13.1945 C   0  0  0  0  0  0  0  0  0  0  0  0
   84.6997  152.5994   15.2945 C   0  0  0  0  0  0  0  0  0  0  0  0
   83.4311  152.7470   13.2387 C   0  0  0  0  0  0  0  0  0  0  0  0
   83.9103  152.0053   14.2929 C   0  0  0  0  0  0  0  0  0  0  0  0
   85.0235  151.5354   16.3188 C   0  0  0  0  0  0  0  0  0  0  0  0
   83.7157  150.5510   14.6588 C   0  0  0  0  0  0  0  0  0  0  0  0
   84.8984  150.3394   15.4869 N   0  0  0  0  0  0  0  0  0  0  0  0
   83.8835  151.4474   17.3893 C   0  0  0  0  0  0  0  0  0  0  0  0
   82.4778  150.3875   15.6044 C   0  0  0  0  0  0  0  0  0  0  0  0
   85.3130  149.0875   15.8419 C   0  0  0  0  0  0  0  0  0  0  0  0
   82.5128  151.2807   16.8090 N   0  0  0  0  0  0  0  0  0  0  0  0
   84.9050  148.0662   15.3059 O   0  0  0  0  0  0  0  0  0  0  0  0
   85.1404  156.2401   11.7677 O   0  0  0  0  0  0  0  0  0  0  0  0
   85.1679  156.7539   12.8833 C   0  0  0  0  0  0  0  0  0  0  0  0
   84.8979  156.1277   14.1061 N   0  0  0  0  0  0  0  0  0  0  0  0
   85.5058  158.0849   12.9680 N   0  0  0  0  0  0  0  0  0  0  0  0
   85.1833  156.8761   15.3268 C   0  0  0  0  0  0  0  0  0  0  0  0
   85.2001  158.9359   13.9918 C   0  0  0  0  0  0  0  0  0  0  0  0
   84.6584  158.2932   15.2300 C   0  0  0  0  0  0  0  0  0  0  0  0
   85.2905  160.1538   13.8661 O   0  0  0  0  0  0  0  0  0  0  0  0
   86.0186  158.4611   12.2165 H   0  0  0  0  0  0  0  0  0  0  0  0
   86.2092  149.1309   16.8592 O   0  0  0  0  0  0  0  0  0  0  0  0
   87.6008  148.7849   16.6432 C   0  0  0  0  0  0  0  0  0  0  0  0
   88.2954  150.1275   16.3683 C   0  0  0  0  0  0  0  0  0  0  0  0
   88.2194  148.1633   17.9002 C   0  0  0  0  0  0  0  0  0  0  0  0
   87.7695  147.8859   15.4139 C   0  0  0  0  0  0  0  0  0  0  0  0
   81.5405  150.8903   17.8343 C   0  0  0  0  0  0  0  0  0  0  0  0
   82.0982  149.9097   18.8433 C   0  0  0  0  0  0  0  0  0  0  0  0
   81.2423  149.0381   19.5342 C   0  0  0  0  0  0  0  0  0  0  0  0
   83.4734  149.8631   19.1126 C   0  0  0  0  0  0  0  0  0  0  0  0
   81.7511  148.1380   20.4711 C   0  0  0  0  0  0  0  0  0  0  0  0
   83.9806  148.9620   20.0509 C   0  0  0  0  0  0  0  0  0  0  0  0
   83.1199  148.1007   20.7295 C   0  0  0  0  0  0  0  0  0  0  0  0
 15 16  2  0
 16 17  1  0
 16 18  1  0
 17 19  1  0
 18 20  1  0
  1 17  1  0
  1  2  2  0
  1  3  5  0
 19 21  1  0
 20 22  2  0
 20 21  1  0
  3  5  2  0
  4  2  5  0
  4  6  2  0
  4  7  1  0
  6  8  1  0
  6  5  5  0
  7  9  1  0
  7 10  1  0
  8 11  1  0
  8  9  1  0
  9 12  1  0
 10 13  1  0
 11 13  1  0
 12 14  2  0
 12 24  1  0
 13 29  1  0
 24 25  1  0
 29 30  1  0
 25 26  1  0
 25 27  1  0
 25 28  1  0
 30 31  2  0
 30 32  5  0
 31 33  5  0
 32 34  2  0
 33 35  2  0
 34 35  5  0
 18 23  1  0
M  END
> <ID>
EDEL-CRBN-0009_ent

> <Stereoisomer>
enantiomer

> <MW>
462.23

> <HBD>
1

> <HBA>
5

> <RotBonds>
3

> <cLogP>
3.98

> <minimizedAffinity>
-9.24529

> <CNNscore>
0.9317962527

> <CNNaffinity>
7.5924477577

> <CNN_VS>
7.0746145248

> <CNNaffinity_variance>
0.0404398032

> <Compound_Name>
EDEL-CRBN-0009_ent

> <Pose_Rank>
1
$$$$
EDEL-CRBN-0009_ent


 35 39  0  0  0  0  0  0  0  0999 V2000
   84.7584  154.4375   14.0451 C   0  0  0  0  0  0  0  0  0  0  0  0
   85.1715  153.6743   15.1499 C   0  0  0  0  0  0  0  0  0  0  0  0
   84.0872  153.7753   12.9822 C   0  0  0  0  0  0  0  0  0  0  0  0
   84.9138  152.3146   15.1600 C   0  0  0  0  0  0  0  0  0  0  0  0
   83.8250  152.3970   13.0000 C   0  0  0  0  0  0  0  0  0  0  0  0
   84.2496  151.6803   14.0942 C   0  0  0  0  0  0  0  0  0  0  0  0
   85.2042  151.2676   16.2114 C   0  0  0  0  0  0  0  0  0  0  0  0
   84.1040  150.2166   14.4451 C   0  0  0  0  0  0  0  0  0  0  0  0
   85.2190  150.0685   15.3747 N   0  0  0  0  0  0  0  0  0  0  0  0
   83.9810  151.1144   17.1776 C   0  0  0  0  0  0  0  0  0  0  0  0
   82.7985  149.9828   15.2785 C   0  0  0  0  0  0  0  0  0  0  0  0
   85.6691  148.8406   15.7679 C   0  0  0  0  0  0  0  0  0  0  0  0
   82.6781  150.8738   16.4792 N   0  0  0  0  0  0  0  0  0  0  0  0
   85.3668  147.7996   15.2006 O   0  0  0  0  0  0  0  0  0  0  0  0
   85.4526  155.9841   11.6750 O   0  0  0  0  0  0  0  0  0  0  0  0
   85.3581  156.4951   12.7881 C   0  0  0  0  0  0  0  0  0  0  0  0
   85.0212  155.8513   13.9849 N   0  0  0  0  0  0  0  0  0  0  0  0
   85.6141  157.8424   12.8990 N   0  0  0  0  0  0  0  0  0  0  0  0
   85.1615  156.6104   15.2242 C   0  0  0  0  0  0  0  0  0  0  0  0
   85.1772  158.6722   13.8922 C   0  0  0  0  0  0  0  0  0  0  0  0
   84.5695  157.9969   15.0814 C   0  0  0  0  0  0  0  0  0  0  0  0
   85.2108  159.8936   13.7728 O   0  0  0  0  0  0  0  0  0  0  0  0
   86.1667  158.2485   12.1927 H   0  0  0  0  0  0  0  0  0  0  0  0
   86.4685  148.9309   16.8601 O   0  0  0  0  0  0  0  0  0  0  0  0
   87.9085  148.8053   16.7435 C   0  0  0  0  0  0  0  0  0  0  0  0
   88.3487  148.1574   18.0653 C   0  0  0  0  0  0  0  0  0  0  0  0
   88.2923  147.8717   15.5903 C   0  0  0  0  0  0  0  0  0  0  0  0
   88.5817  150.1765   16.6225 C   0  0  0  0  0  0  0  0  0  0  0  0
   81.6422  150.4279   17.4159 C   0  0  0  0  0  0  0  0  0  0  0  0
   80.2492  150.4600   16.8250 C   0  0  0  0  0  0  0  0  0  0  0  0
   79.1229  150.4700   17.6622 C   0  0  0  0  0  0  0  0  0  0  0  0
   80.0604  150.4687   15.4357 C   0  0  0  0  0  0  0  0  0  0  0  0
   77.8367  150.4914   17.1218 C   0  0  0  0  0  0  0  0  0  0  0  0
   78.7724  150.4896   14.8968 C   0  0  0  0  0  0  0  0  0  0  0  0
   77.6620  150.5006   15.7393 C   0  0  0  0  0  0  0  0  0  0  0  0
 15 16  2  0
 16 17  1  0
 16 18  1  0
 17 19  1  0
 18 20  1  0
  1 17  1  0
  1  2  2  0
  1  3  5  0
 19 21  1  0
 20 22  2  0
 20 21  1  0
  3  5  2  0
  4  2  5  0
  4  6  2  0
  4  7  1  0
  6  8  1  0
  6  5  5  0
  7  9  1  0
  7 10  1  0
  8 11  1  0
  8  9  1  0
  9 12  1  0
 10 13  1  0
 11 13  1  0
 12 14  2  0
 12 24  1  0
 13 29  1  0
 24 25  1  0
 29 30  1  0
 25 26  1  0
 25 27  1  0
 25 28  1  0
 30 31  2  0
 30 32  5  0
 31 33  5  0
 32 34  2  0
 33 35  2  0
 34 35  5  0
 18 23  1  0
M  END
> <ID>
EDEL-CRBN-0009_ent

> <Stereoisomer>
enantiomer

> <MW>
462.23

> <HBD>
1

> <HBA>
5

> <RotBonds>
3

> <cLogP>
3.98

> <minimizedAffinity>
-9.14552

> <CNNscore>
0.8931850195

> <CNNaffinity>
7.4363579750

> <CNN_VS>
6.6420435905

> <CNNaffinity_variance>
0.0505281799

> <Compound_Name>
EDEL-CRBN-0009_ent

> <Pose_Rank>
2
$$$$
EDEL-CRBN-0009_ent


 35 39  0  0  0  0  0  0  0  0999 V2000
   84.0781  154.8082   14.0699 C   0  0  0  0  0  0  0  0  0  0  0  0
   84.9725  153.7346   13.9242 C   0  0  0  0  0  0  0  0  0  0  0  0
   82.7008  154.5164   14.2605 C   0  0  0  0  0  0  0  0  0  0  0  0
   84.4810  152.4415   13.9681 C   0  0  0  0  0  0  0  0  0  0  0  0
   82.2090  153.2031   14.3085 C   0  0  0  0  0  0  0  0  0  0  0  0
   83.1119  152.1771   14.1554 C   0  0  0  0  0  0  0  0  0  0  0  0
   85.1994  151.1142   13.8783 C   0  0  0  0  0  0  0  0  0  0  0  0
   82.9306  150.6762   14.1882 C   0  0  0  0  0  0  0  0  0  0  0  0
   84.1011  150.2645   13.4201 N   0  0  0  0  0  0  0  0  0  0  0  0
   85.5811  150.6053   15.3096 C   0  0  0  0  0  0  0  0  0  0  0  0
   83.1415  150.1331   15.6422 C   0  0  0  0  0  0  0  0  0  0  0  0
   84.2372  148.9919   12.9437 C   0  0  0  0  0  0  0  0  0  0  0  0
   84.4326  150.5673   16.2703 N   0  0  0  0  0  0  0  0  0  0  0  0
   83.3143  148.1904   12.8917 O   0  0  0  0  0  0  0  0  0  0  0  0
   84.3545  156.4598   11.6851 O   0  0  0  0  0  0  0  0  0  0  0  0
   84.6474  156.8699   12.8055 C   0  0  0  0  0  0  0  0  0  0  0  0
   84.5432  156.1690   14.0131 N   0  0  0  0  0  0  0  0  0  0  0  0
   85.1410  158.1498   12.9110 N   0  0  0  0  0  0  0  0  0  0  0  0
   85.1336  156.7779   15.2016 C   0  0  0  0  0  0  0  0  0  0  0  0
   85.1290  158.9344   14.0291 C   0  0  0  0  0  0  0  0  0  0  0  0
   84.7607  158.2420   15.3037 C   0  0  0  0  0  0  0  0  0  0  0  0
   85.3291  160.1442   13.9696 O   0  0  0  0  0  0  0  0  0  0  0  0
   85.5426  158.5386   12.1006 H   0  0  0  0  0  0  0  0  0  0  0  0
   85.5130  148.7396   12.5582 O   0  0  0  0  0  0  0  0  0  0  0  0
   86.2145  147.5596   13.0256 C   0  0  0  0  0  0  0  0  0  0  0  0
   87.6926  147.9771   13.0620 C   0  0  0  0  0  0  0  0  0  0  0  0
   85.7787  147.1813   14.4454 C   0  0  0  0  0  0  0  0  0  0  0  0
   86.0597  146.3918   12.0456 C   0  0  0  0  0  0  0  0  0  0  0  0
   84.7656  149.7991   17.4737 C   0  0  0  0  0  0  0  0  0  0  0  0
   83.6026  149.6564   18.4316 C   0  0  0  0  0  0  0  0  0  0  0  0
   82.2827  149.7615   17.9665 C   0  0  0  0  0  0  0  0  0  0  0  0
   83.8232  149.4290   19.7975 C   0  0  0  0  0  0  0  0  0  0  0  0
   81.2076  149.6388   18.8474 C   0  0  0  0  0  0  0  0  0  0  0  0
   82.7461  149.3069   20.6775 C   0  0  0  0  0  0  0  0  0  0  0  0
   81.4398  149.4120   20.2026 C   0  0  0  0  0  0  0  0  0  0  0  0
 15 16  2  0
 16 17  1  0
 16 18  1  0
 17 19  1  0
 18 20  1  0
  1 17  1  0
  1  2  2  0
  1  3  5  0
 19 21  1  0
 20 22  2  0
 20 21  1  0
  3  5  2  0
  4  2  5  0
  4  6  2  0
  4  7  1  0
  6  8  1  0
  6  5  5  0
  7  9  1  0
  7 10  1  0
  8 11  1  0
  8  9  1  0
  9 12  1  0
 10 13  1  0
 11 13  1  0
 12 14  2  0
 12 24  1  0
 13 29  1  0
 24 25  1  0
 29 30  1  0
 25 26  1  0
 25 27  1  0
 25 28  1  0
 30 31  2  0
 30 32  5  0
 31 33  5  0
 32 34  2  0
 33 35  2  0
 34 35  5  0
 18 23  1  0
M  END
> <ID>
EDEL-CRBN-0009_ent

> <Stereoisomer>
enantiomer

> <MW>
462.23

> <HBD>
1

> <HBA>
5

> <RotBonds>
3

> <cLogP>
3.98

> <minimizedAffinity>
-8.90289

> <CNNscore>
0.8818809390

> <CNNaffinity>
7.4008927345

> <CNN_VS>
6.5267062187

> <CNNaffinity_variance>
0.0835366771

> <Compound_Name>
EDEL-CRBN-0009_ent

> <Pose_Rank>
3
$$$$
EDEL-CRBN-0009_ent


 35 39  0  0  0  0  0  0  0  0999 V2000
   84.2914  154.3047   14.1174 C   0  0  0  0  0  0  0  0  0  0  0  0
   84.3706  153.6750   15.3709 C   0  0  0  0  0  0  0  0  0  0  0  0
   83.8257  153.5454   13.0105 C   0  0  0  0  0  0  0  0  0  0  0  0
   83.9977  152.3465   15.4789 C   0  0  0  0  0  0  0  0  0  0  0  0
   83.4449  152.1999   13.1271 C   0  0  0  0  0  0  0  0  0  0  0  0
   83.5419  151.6140   14.3675 C   0  0  0  0  0  0  0  0  0  0  0  0
   83.9450  151.4361   16.6849 C   0  0  0  0  0  0  0  0  0  0  0  0
   83.1902  150.2223   14.8431 C   0  0  0  0  0  0  0  0  0  0  0  0
   84.0447  150.1361   16.0229 N   0  0  0  0  0  0  0  0  0  0  0  0
   82.5242  151.4870   17.3421 C   0  0  0  0  0  0  0  0  0  0  0  0
   81.7129  150.1804   15.3621 C   0  0  0  0  0  0  0  0  0  0  0  0
   84.2817  148.9483   16.6538 C   0  0  0  0  0  0  0  0  0  0  0  0
   81.4000  151.2310   16.3860 N   0  0  0  0  0  0  0  0  0  0  0  0
   84.0262  147.8598   16.1572 O   0  0  0  0  0  0  0  0  0  0  0  0
   84.3980  155.8081   11.6235 O   0  0  0  0  0  0  0  0  0  0  0  0
   84.7105  156.3040   12.7031 C   0  0  0  0  0  0  0  0  0  0  0  0
   84.6855  155.6794   13.9560 N   0  0  0  0  0  0  0  0  0  0  0  0
   85.1431  157.6101   12.7075 N   0  0  0  0  0  0  0  0  0  0  0  0
   85.2875  156.3920   15.0792 C   0  0  0  0  0  0  0  0  0  0  0  0
   85.1325  158.4646   13.7731 C   0  0  0  0  0  0  0  0  0  0  0  0
   84.8458  157.8403   15.1027 C   0  0  0  0  0  0  0  0  0  0  0  0
   85.2695  159.6761   13.6290 O   0  0  0  0  0  0  0  0  0  0  0  0
   85.4950  157.9637   11.8588 H   0  0  0  0  0  0  0  0  0  0  0  0
   84.8140  149.1384   17.8869 O   0  0  0  0  0  0  0  0  0  0  0  0
   84.1815  148.5811   19.0669 C   0  0  0  0  0  0  0  0  0  0  0  0
   83.0581  147.6879   18.5185 C   0  0  0  0  0  0  0  0  0  0  0  0
   85.1588  147.7057   19.8590 C   0  0  0  0  0  0  0  0  0  0  0  0
   83.5555  149.6767   19.9362 C   0  0  0  0  0  0  0  0  0  0  0  0
   80.1415  150.9775   17.0939 C   0  0  0  0  0  0  0  0  0  0  0  0
   79.0294  150.5035   16.1833 C   0  0  0  0  0  0  0  0  0  0  0  0
   77.7518  150.2402   16.7008 C   0  0  0  0  0  0  0  0  0  0  0  0
   79.2587  150.3089   14.8138 C   0  0  0  0  0  0  0  0  0  0  0  0
   76.7257  149.7953   15.8665 C   0  0  0  0  0  0  0  0  0  0  0  0
   78.2307  149.8631   13.9806 C   0  0  0  0  0  0  0  0  0  0  0  0
   76.9658  149.6064   14.5068 C   0  0  0  0  0  0  0  0  0  0  0  0
 15 16  2  0
 16 17  1  0
 16 18  1  0
 17 19  1  0
 18 20  1  0
  1 17  1  0
  1  2  2  0
  1  3  5  0
 19 21  1  0
 20 22  2  0
 20 21  1  0
  3  5  2  0
  4  2  5  0
  4  6  2  0
  4  7  1  0
  6  8  1  0
  6  5  5  0
  7  9  1  0
  7 10  1  0
  8 11  1  0
  8  9  1  0
  9 12  1  0
 10 13  1  0
 11 13  1  0
 12 14  2  0
 12 24  1  0
 13 29  1  0
 24 25  1  0
 29 30  1  0
 25 26  1  0
 25 27  1  0
 25 28  1  0
 30 31  2  0
 30 32  5  0
 31 33  5  0
 32 34  2  0
 33 35  2  0
 34 35  5  0
 18 23  1  0
M  END
> <ID>
EDEL-CRBN-0009_ent

> <Stereoisomer>
enantiomer

> <MW>
462.23

> <HBD>
1

> <HBA>
5

> <RotBonds>
3

> <cLogP>
3.98

> <minimizedAffinity>
-9.49675

> <CNNscore>
0.8524696231

> <CNNaffinity>
7.3622817993

> <CNN_VS>
6.2761216164

> <CNNaffinity_variance>
0.0190292615

> <Compound_Name>
EDEL-CRBN-0009_ent

> <Pose_Rank>
4
$$$$
EDEL-CRBN-0009_ent


 35 39  0  0  0  0  0  0  0  0999 V2000
   84.8358  154.0698   13.5360 C   0  0  0  0  0  0  0  0  0  0  0  0
   85.9106  153.1666   13.5908 C   0  0  0  0  0  0  0  0  0  0  0  0
   83.5225  153.5461   13.3956 C   0  0  0  0  0  0  0  0  0  0  0  0
   85.6517  151.8099   13.5031 C   0  0  0  0  0  0  0  0  0  0  0  0
   83.2660  152.1692   13.3115 C   0  0  0  0  0  0  0  0  0  0  0  0
   84.3424  151.3148   13.3617 C   0  0  0  0  0  0  0  0  0  0  0  0
   86.5887  150.6250   13.5681 C   0  0  0  0  0  0  0  0  0  0  0  0
   84.4191  149.8048   13.3333 C   0  0  0  0  0  0  0  0  0  0  0  0
   85.7869  149.6312   12.8555 N   0  0  0  0  0  0  0  0  0  0  0  0
   86.7149  150.1126   15.0428 C   0  0  0  0  0  0  0  0  0  0  0  0
   84.3822  149.2294   14.7897 C   0  0  0  0  0  0  0  0  0  0  0  0
   86.2449  148.4246   12.4090 C   0  0  0  0  0  0  0  0  0  0  0  0
   85.4013  149.8368   15.7075 N   0  0  0  0  0  0  0  0  0  0  0  0
   85.5101  147.4861   12.1330 O   0  0  0  0  0  0  0  0  0  0  0  0
   85.5690  155.8308   11.3333 O   0  0  0  0  0  0  0  0  0  0  0  0
   85.4211  156.2420   12.4814 C   0  0  0  0  0  0  0  0  0  0  0  0
   85.0606  155.4896   13.6058 N   0  0  0  0  0  0  0  0  0  0  0  0
   85.6350  157.5807   12.7156 N   0  0  0  0  0  0  0  0  0  0  0  0
   85.1359  156.1429   14.9094 C   0  0  0  0  0  0  0  0  0  0  0  0
   85.1404  158.3111   13.7586 C   0  0  0  0  0  0  0  0  0  0  0  0
   84.5106  157.5213   14.8627 C   0  0  0  0  0  0  0  0  0  0  0  0
   85.1438  159.5387   13.7445 O   0  0  0  0  0  0  0  0  0  0  0  0
   86.2005  158.0597   12.0674 H   0  0  0  0  0  0  0  0  0  0  0  0
   87.5989  148.4057   12.3297 O   0  0  0  0  0  0  0  0  0  0  0  0
   88.2728  148.4893   11.0483 C   0  0  0  0  0  0  0  0  0  0  0  0
   87.2617  149.1852   10.1241 C   0  0  0  0  0  0  0  0  0  0  0  0
   89.5311  149.3596   11.1391 C   0  0  0  0  0  0  0  0  0  0  0  0
   88.5751  147.0974   10.4833 C   0  0  0  0  0  0  0  0  0  0  0  0
   85.5775  149.0727   16.9462 C   0  0  0  0  0  0  0  0  0  0  0  0
   84.5289  149.3823   17.9928 C   0  0  0  0  0  0  0  0  0  0  0  0
   83.7525  150.5474   17.8969 C   0  0  0  0  0  0  0  0  0  0  0  0
   84.3238  148.5192   19.0786 C   0  0  0  0  0  0  0  0  0  0  0  0
   82.7903  150.8410   18.8638 C   0  0  0  0  0  0  0  0  0  0  0  0
   83.3607  148.8150   20.0454 C   0  0  0  0  0  0  0  0  0  0  0  0
   82.5952  149.9749   19.9379 C   0  0  0  0  0  0  0  0  0  0  0  0
 15 16  2  0
 16 17  1  0
 16 18  1  0
 17 19  1  0
 18 20  1  0
  1 17  1  0
  1  2  2  0
  1  3  5  0
 19 21  1  0
 20 22  2  0
 20 21  1  0
  3  5  2  0
  4  2  5  0
  4  6  2  0
  4  7  1  0
  6  8  1  0
  6  5  5  0
  7  9  1  0
  7 10  1  0
  8 11  1  0
  8  9  1  0
  9 12  1  0
 10 13  1  0
 11 13  1  0
 12 14  2  0
 12 24  1  0
 13 29  1  0
 24 25  1  0
 29 30  1  0
 25 26  1  0
 25 27  1  0
 25 28  1  0
 30 31  2  0
 30 32  5  0
 31 33  5  0
 32 34  2  0
 33 35  2  0
 34 35  5  0
 18 23  1  0
M  END
> <ID>
EDEL-CRBN-0009_ent

> <Stereoisomer>
enantiomer

> <MW>
462.23

> <HBD>
1

> <HBA>
5

> <RotBonds>
3

> <cLogP>
3.98

> <minimizedAffinity>
-8.61420

> <CNNscore>
0.7481729388

> <CNNaffinity>
7.2036209106

> <CNN_VS>
5.3895540237

> <CNNaffinity_variance>
0.0819668397

> <Compound_Name>
EDEL-CRBN-0009_ent

> <Pose_Rank>
5
$$$$
EDEL-CRBN-0009


 35 39  0  0  0  0  0  0  0  0999 V2000
   84.2316  154.5901   13.8388 C   0  0  0  0  0  0  0  0  0  0  0  0
   83.0976  154.1818   14.5606 C   0  0  0  0  0  0  0  0  0  0  0  0
   84.9904  153.5981   13.1639 C   0  0  0  0  0  0  0  0  0  0  0  0
   82.7637  152.8379   14.5862 C   0  0  0  0  0  0  0  0  0  0  0  0
   84.6503  152.2378   13.2007 C   0  0  0  0  0  0  0  0  0  0  0  0
   83.5334  151.8759   13.9184 C   0  0  0  0  0  0  0  0  0  0  0  0
   81.6429  152.1197   15.3029 C   0  0  0  0  0  0  0  0  0  0  0  0
   82.9250  150.5208   14.1948 C   0  0  0  0  0  0  0  0  0  0  0  0
   81.5511  150.9100   14.4866 N   0  0  0  0  0  0  0  0  0  0  0  0
   82.1441  151.6999   16.7249 C   0  0  0  0  0  0  0  0  0  0  0  0
   83.5463  149.9479   15.5140 C   0  0  0  0  0  0  0  0  0  0  0  0
   80.5636  149.9715   14.6013 C   0  0  0  0  0  0  0  0  0  0  0  0
   82.9320  150.4450   16.7698 N   0  0  0  0  0  0  0  0  0  0  0  0
   80.6711  148.8267   14.1808 O   0  0  0  0  0  0  0  0  0  0  0  0
   84.2458  156.3486   11.5148 O   0  0  0  0  0  0  0  0  0  0  0  0
   84.6047  156.7273   12.6269 C   0  0  0  0  0  0  0  0  0  0  0  0
   84.6276  155.9731   13.8062 N   0  0  0  0  0  0  0  0  0  0  0  0
   85.0415  158.0257   12.7527 N   0  0  0  0  0  0  0  0  0  0  0  0
   85.2709  156.5660   14.9752 C   0  0  0  0  0  0  0  0  0  0  0  0
   85.0616  158.7640   13.9017 C   0  0  0  0  0  0  0  0  0  0  0  0
   84.8276  158.0012   15.1679 C   0  0  0  0  0  0  0  0  0  0  0  0
   85.1819  159.9857   13.8807 O   0  0  0  0  0  0  0  0  0  0  0  0
   85.3714  158.4650   11.9358 H   0  0  0  0  0  0  0  0  0  0  0  0
   79.4706  150.4745   15.2290 O   0  0  0  0  0  0  0  0  0  0  0  0
   78.2139  149.7523   15.2285 C   0  0  0  0  0  0  0  0  0  0  0  0
   78.5113  148.4583   16.0018 C   0  0  0  0  0  0  0  0  0  0  0  0
   77.1224  150.5275   15.9738 C   0  0  0  0  0  0  0  0  0  0  0  0
   77.7867  149.3821   13.8038 C   0  0  0  0  0  0  0  0  0  0  0  0
   83.6525  150.1684   18.0041 C   0  0  0  0  0  0  0  0  0  0  0  0
   82.8287  149.5702   19.1250 C   0  0  0  0  0  0  0  0  0  0  0  0
   81.4847  149.2231   18.9197 C   0  0  0  0  0  0  0  0  0  0  0  0
   83.3869  149.3637   20.3955 C   0  0  0  0  0  0  0  0  0  0  0  0
   80.7242  148.6712   19.9525 C   0  0  0  0  0  0  0  0  0  0  0  0
   82.6263  148.8113   21.4280 C   0  0  0  0  0  0  0  0  0  0  0  0
   81.2959  148.4637   21.2057 C   0  0  0  0  0  0  0  0  0  0  0  0
 15 16  2  0
 16 17  1  0
 16 18  1  0
 17 19  1  0
 18 20  1  0
  1 17  1  0
  1  2  2  0
  1  3  5  0
 19 21  1  0
 20 22  2  0
 20 21  1  0
  3  5  2  0
  4  2  5  0
  4  6  2  0
  4  7  1  0
  6  8  1  0
  6  5  5  0
  7  9  1  0
  7 10  1  0
  8 11  1  0
  8  9  1  0
  9 12  1  0
 10 13  1  0
 11 13  1  0
 12 14  2  0
 12 24  1  0
 13 29  1  0
 24 25  1  0
 29 30  1  0
 25 26  1  0
 25 27  1  0
 25 28  1  0
 30 31  2  0
 30 32  5  0
 31 33  5  0
 32 34  2  0
 33 35  2  0
 34 35  5  0
 18 23  1  0
M  END
> <ID>
EDEL-CRBN-0009

> <Stereoisomer>
original

> <MW>
462.23

> <HBD>
1

> <HBA>
5

> <RotBonds>
3

> <cLogP>
3.98

> <minimizedAffinity>
-10.19955

> <CNNscore>
0.9455377460

> <CNNaffinity>
7.3959488869

> <CNN_VS>
6.9931488037

> <CNNaffinity_variance>
0.0117455050

> <Compound_Name>
EDEL-CRBN-0009

> <Pose_Rank>
1
$$$$
EDEL-CRBN-0009


 35 39  0  0  0  0  0  0  0  0999 V2000
   84.5571  154.8961   14.2858 C   0  0  0  0  0  0  0  0  0  0  0  0
   85.3897  153.9767   14.9453 C   0  0  0  0  0  0  0  0  0  0  0  0
   83.3818  154.4064   13.6577 C   0  0  0  0  0  0  0  0  0  0  0  0
   85.0359  152.6377   14.9597 C   0  0  0  0  0  0  0  0  0  0  0  0
   83.0340  153.0477   13.6699 C   0  0  0  0  0  0  0  0  0  0  0  0
   83.8743  152.1771   14.3252 C   0  0  0  0  0  0  0  0  0  0  0  0
   85.7503  151.4412   15.5456 C   0  0  0  0  0  0  0  0  0  0  0  0
   83.8204  150.6759   14.4880 C   0  0  0  0  0  0  0  0  0  0  0  0
   84.6255  150.5185   15.6927 N   0  0  0  0  0  0  0  0  0  0  0  0
   86.7136  150.8514   14.4622 C   0  0  0  0  0  0  0  0  0  0  0  0
   84.6028  150.0113   13.3044 C   0  0  0  0  0  0  0  0  0  0  0  0
   84.6885  149.3183   16.3446 C   0  0  0  0  0  0  0  0  0  0  0  0
   86.0749  149.9459   13.4775 N   0  0  0  0  0  0  0  0  0  0  0  0
   83.8784  148.4165   16.1737 O   0  0  0  0  0  0  0  0  0  0  0  0
   85.2016  156.4362   11.8971 O   0  0  0  0  0  0  0  0  0  0  0  0
   85.2028  156.9346   13.0198 C   0  0  0  0  0  0  0  0  0  0  0  0
   84.9000  156.2923   14.2263 N   0  0  0  0  0  0  0  0  0  0  0  0
   85.5405  158.2635   13.1317 N   0  0  0  0  0  0  0  0  0  0  0  0
   85.1489  157.0264   15.4638 C   0  0  0  0  0  0  0  0  0  0  0  0
   85.1957  159.1019   14.1533 C   0  0  0  0  0  0  0  0  0  0  0  0
   84.6222  158.4430   15.3686 C   0  0  0  0  0  0  0  0  0  0  0  0
   85.2772  160.3218   14.0414 O   0  0  0  0  0  0  0  0  0  0  0  0
   86.0831  158.6472   12.4053 H   0  0  0  0  0  0  0  0  0  0  0  0
   85.7480  149.2676   17.1910 O   0  0  0  0  0  0  0  0  0  0  0  0
   86.5843  148.0862   17.2666 C   0  0  0  0  0  0  0  0  0  0  0  0
   86.4875  147.4538   15.8696 C   0  0  0  0  0  0  0  0  0  0  0  0
   88.0473  148.4524   17.5374 C   0  0  0  0  0  0  0  0  0  0  0  0
   86.0413  147.0863   18.2936 C   0  0  0  0  0  0  0  0  0  0  0  0
   86.8573  149.6050   12.2981 C   0  0  0  0  0  0  0  0  0  0  0  0
   87.6508  150.7404   11.6864 C   0  0  0  0  0  0  0  0  0  0  0  0
   88.9614  150.5337   11.2298 C   0  0  0  0  0  0  0  0  0  0  0  0
   87.0984  152.0253   11.5764 C   0  0  0  0  0  0  0  0  0  0  0  0
   89.6940  151.5799   10.6654 C   0  0  0  0  0  0  0  0  0  0  0  0
   87.8309  153.0712   11.0114 C   0  0  0  0  0  0  0  0  0  0  0  0
   89.1277  152.8477   10.5546 C   0  0  0  0  0  0  0  0  0  0  0  0
 15 16  2  0
 16 17  1  0
 16 18  1  0
 17 19  1  0
 18 20  1  0
  1 17  1  0
  1  2  2  0
  1  3  5  0
 19 21  1  0
 20 22  2  0
 20 21  1  0
  3  5  2  0
  4  2  5  0
  4  6  2  0
  4  7  1  0
  6  8  1  0
  6  5  5  0
  7  9  1  0
  7 10  1  0
  8 11  1  0
  8  9  1  0
  9 12  1  0
 10 13  1  0
 11 13  1  0
 12 14  2  0
 12 24  1  0
 13 29  1  0
 24 25  1  0
 29 30  1  0
 25 26  1  0
 25 27  1  0
 25 28  1  0
 30 31  2  0
 30 32  5  0
 31 33  5  0
 32 34  2  0
 33 35  2  0
 34 35  5  0
 18 23  1  0
M  END
> <ID>
EDEL-CRBN-0009

> <Stereoisomer>
original

> <MW>
462.23

> <HBD>
1

> <HBA>
5

> <RotBonds>
3

> <cLogP>
3.98

> <minimizedAffinity>
-8.79277

> <CNNscore>
0.9435926676

> <CNNaffinity>
7.5618395805

> <CNN_VS>
7.1352963448

> <CNNaffinity_variance>
0.0684166551

> <Compound_Name>
EDEL-CRBN-0009

> <Pose_Rank>
2
$$$$
EDEL-CRBN-0009


 35 39  0  0  0  0  0  0  0  0999 V2000
   84.7885  154.5670   14.1161 C   0  0  0  0  0  0  0  0  0  0  0  0
   85.1770  153.7908   15.2207 C   0  0  0  0  0  0  0  0  0  0  0  0
   84.1484  153.9149   13.0296 C   0  0  0  0  0  0  0  0  0  0  0  0
   84.9224  152.4295   15.2099 C   0  0  0  0  0  0  0  0  0  0  0  0
   83.9009  152.5343   13.0226 C   0  0  0  0  0  0  0  0  0  0  0  0
   84.2962  151.8069   14.1217 C   0  0  0  0  0  0  0  0  0  0  0  0
   85.2610  151.3607   16.2241 C   0  0  0  0  0  0  0  0  0  0  0  0
   84.2225  150.3262   14.4132 C   0  0  0  0  0  0  0  0  0  0  0  0
   84.2676  150.3479   15.8698 N   0  0  0  0  0  0  0  0  0  0  0  0
   86.6754  150.7806   15.8890 C   0  0  0  0  0  0  0  0  0  0  0  0
   85.5402  149.6459   13.9077 C   0  0  0  0  0  0  0  0  0  0  0  0
   84.0205  149.2175   16.5979 C   0  0  0  0  0  0  0  0  0  0  0  0
   86.6952  149.7390   14.8345 N   0  0  0  0  0  0  0  0  0  0  0  0
   83.4617  148.2298   16.1384 O   0  0  0  0  0  0  0  0  0  0  0  0
   85.5901  156.1282   11.7894 O   0  0  0  0  0  0  0  0  0  0  0  0
   85.4457  156.6322   12.9002 C   0  0  0  0  0  0  0  0  0  0  0  0
   85.0557  155.9804   14.0762 N   0  0  0  0  0  0  0  0  0  0  0  0
   85.6937  157.9790   13.0310 N   0  0  0  0  0  0  0  0  0  0  0  0
   85.1318  156.7347   15.3242 C   0  0  0  0  0  0  0  0  0  0  0  0
   85.1969  158.8020   14.0013 C   0  0  0  0  0  0  0  0  0  0  0  0
   84.5381  158.1180   15.1581 C   0  0  0  0  0  0  0  0  0  0  0  0
   85.2201  160.0239   13.8842 O   0  0  0  0  0  0  0  0  0  0  0  0
   86.2864  158.3893   12.3604 H   0  0  0  0  0  0  0  0  0  0  0  0
   84.4675  149.3404   17.8734 O   0  0  0  0  0  0  0  0  0  0  0  0
   83.5385  149.4237   18.9828 C   0  0  0  0  0  0  0  0  0  0  0  0
   82.4314  148.4160   18.6367 C   0  0  0  0  0  0  0  0  0  0  0  0
   84.1971  148.9942   20.2979 C   0  0  0  0  0  0  0  0  0  0  0  0
   82.9140  150.8201   19.0805 C   0  0  0  0  0  0  0  0  0  0  0  0
   87.9981  149.3801   14.2932 C   0  0  0  0  0  0  0  0  0  0  0  0
   88.7061  150.4669   13.5119 C   0  0  0  0  0  0  0  0  0  0  0  0
   88.0116  151.2390   12.5682 C   0  0  0  0  0  0  0  0  0  0  0  0
   90.0735  150.7152   13.7040 C   0  0  0  0  0  0  0  0  0  0  0  0
   88.6634  152.2415   11.8473 C   0  0  0  0  0  0  0  0  0  0  0  0
   90.7250  151.7181   12.9833 C   0  0  0  0  0  0  0  0  0  0  0  0
   90.0194  152.4819   12.0566 C   0  0  0  0  0  0  0  0  0  0  0  0
 15 16  2  0
 16 17  1  0
 16 18  1  0
 17 19  1  0
 18 20  1  0
  1 17  1  0
  1  2  2  0
  1  3  5  0
 19 21  1  0
 20 22  2  0
 20 21  1  0
  3  5  2  0
  4  2  5  0
  4  6  2  0
  4  7  1  0
  6  8  1  0
  6  5  5  0
  7  9  1  0
  7 10  1  0
  8 11  1  0
  8  9  1  0
  9 12  1  0
 10 13  1  0
 11 13  1  0
 12 14  2  0
 12 24  1  0
 13 29  1  0
 24 25  1  0
 29 30  1  0
 25 26  1  0
 25 27  1  0
 25 28  1  0
 30 31  2  0
 30 32  5  0
 31 33  5  0
 32 34  2  0
 33 35  2  0
 34 35  5  0
 18 23  1  0
M  END
> <ID>
EDEL-CRBN-0009

> <Stereoisomer>
original

> <MW>
462.23

> <HBD>
1

> <HBA>
5

> <RotBonds>
3

> <cLogP>
3.98

> <minimizedAffinity>
-9.60421

> <CNNscore>
0.9433982968

> <CNNaffinity>
7.6178741455

> <CNN_VS>
7.1866893768

> <CNNaffinity_variance>
0.0637260154

> <Compound_Name>
EDEL-CRBN-0009

> <Pose_Rank>
3
$$$$
EDEL-CRBN-0009


 35 39  0  0  0  0  0  0  0  0999 V2000
   84.7914  154.3319   14.0775 C   0  0  0  0  0  0  0  0  0  0  0  0
   85.1721  153.5911   15.2088 C   0  0  0  0  0  0  0  0  0  0  0  0
   84.1524  153.6469   13.0107 C   0  0  0  0  0  0  0  0  0  0  0  0
   84.9113  152.2313   15.2422 C   0  0  0  0  0  0  0  0  0  0  0  0
   83.8984  152.2680   13.0486 C   0  0  0  0  0  0  0  0  0  0  0  0
   84.2862  151.5758   14.1729 C   0  0  0  0  0  0  0  0  0  0  0  0
   85.2410  151.1954   16.2927 C   0  0  0  0  0  0  0  0  0  0  0  0
   84.2045  150.1059   14.5131 C   0  0  0  0  0  0  0  0  0  0  0  0
   84.2442  150.1759   15.9684 N   0  0  0  0  0  0  0  0  0  0  0  0
   86.6540  150.5980   15.9826 C   0  0  0  0  0  0  0  0  0  0  0  0
   85.5209  149.4032   14.0357 C   0  0  0  0  0  0  0  0  0  0  0  0
   83.9891  149.0714   16.7327 C   0  0  0  0  0  0  0  0  0  0  0  0
   86.6728  149.5218   14.9634 N   0  0  0  0  0  0  0  0  0  0  0  0
   83.4275  148.0716   16.3041 O   0  0  0  0  0  0  0  0  0  0  0  0
   85.6032  155.8122   11.7019 O   0  0  0  0  0  0  0  0  0  0  0  0
   85.4598  156.3531   12.7955 C   0  0  0  0  0  0  0  0  0  0  0  0
   85.0654  155.7419   13.9917 N   0  0  0  0  0  0  0  0  0  0  0  0
   85.7140  157.7022   12.8824 N   0  0  0  0  0  0  0  0  0  0  0  0
   85.1436  156.5364   15.2143 C   0  0  0  0  0  0  0  0  0  0  0  0
   85.2200  158.5589   13.8246 C   0  0  0  0  0  0  0  0  0  0  0  0
   84.5566  157.9162   15.0023 C   0  0  0  0  0  0  0  0  0  0  0  0
   85.2491  159.7762   13.6676 O   0  0  0  0  0  0  0  0  0  0  0  0
   86.3095  158.0876   12.1996 H   0  0  0  0  0  0  0  0  0  0  0  0
   84.4319  149.2346   18.0051 O   0  0  0  0  0  0  0  0  0  0  0  0
   83.5065  149.2371   19.1206 C   0  0  0  0  0  0  0  0  0  0  0  0
   83.0214  150.6918   19.2175 C   0  0  0  0  0  0  0  0  0  0  0  0
   82.2978  148.3357   18.8472 C   0  0  0  0  0  0  0  0  0  0  0  0
   84.2139  148.8704   20.4299 C   0  0  0  0  0  0  0  0  0  0  0  0
   87.9761  149.1392   14.4395 C   0  0  0  0  0  0  0  0  0  0  0  0
   89.1556  149.9198   14.9801 C   0  0  0  0  0  0  0  0  0  0  0  0
   89.8869  150.7809   14.1478 C   0  0  0  0  0  0  0  0  0  0  0  0
   89.5511  149.7878   16.3197 C   0  0  0  0  0  0  0  0  0  0  0  0
   90.9746  151.5013   14.6454 C   0  0  0  0  0  0  0  0  0  0  0  0
   90.6386  150.5087   16.8172 C   0  0  0  0  0  0  0  0  0  0  0  0
   91.3488  151.3663   15.9804 C   0  0  0  0  0  0  0  0  0  0  0  0
 15 16  2  0
 16 17  1  0
 16 18  1  0
 17 19  1  0
 18 20  1  0
  1 17  1  0
  1  2  2  0
  1  3  5  0
 19 21  1  0
 20 22  2  0
 20 21  1  0
  3  5  2  0
  4  2  5  0
  4  6  2  0
  4  7  1  0
  6  8  1  0
  6  5  5  0
  7  9  1  0
  7 10  1  0
  8 11  1  0
  8  9  1  0
  9 12  1  0
 10 13  1  0
 11 13  1  0
 12 14  2  0
 12 24  1  0
 13 29  1  0
 24 25  1  0
 29 30  1  0
 25 26  1  0
 25 27  1  0
 25 28  1  0
 30 31  2  0
 30 32  5  0
 31 33  5  0
 32 34  2  0
 33 35  2  0
 34 35  5  0
 18 23  1  0
M  END
> <ID>
EDEL-CRBN-0009

> <Stereoisomer>
original

> <MW>
462.23

> <HBD>
1

> <HBA>
5

> <RotBonds>
3

> <cLogP>
3.98

> <minimizedAffinity>
-9.16978

> <CNNscore>
0.9151601791

> <CNNaffinity>
7.6574440002

> <CNN_VS>
7.0077877045

> <CNNaffinity_variance>
0.1944606751

> <Compound_Name>
EDEL-CRBN-0009

> <Pose_Rank>
4
$$$$
EDEL-CRBN-0009


 35 39  0  0  0  0  0  0  0  0999 V2000
   84.2399  154.4102   13.5544 C   0  0  0  0  0  0  0  0  0  0  0  0
   83.2039  153.9057   14.3581 C   0  0  0  0  0  0  0  0  0  0  0  0
   84.9056  153.5141   12.6772 C   0  0  0  0  0  0  0  0  0  0  0  0
   82.8719  152.5644   14.2651 C   0  0  0  0  0  0  0  0  0  0  0  0
   84.5687  152.1551   12.5941 C   0  0  0  0  0  0  0  0  0  0  0  0
   83.5493  151.6974   13.3971 C   0  0  0  0  0  0  0  0  0  0  0  0
   81.8474  151.7531   15.0252 C   0  0  0  0  0  0  0  0  0  0  0  0
   82.9762  150.3119   13.5840 C   0  0  0  0  0  0  0  0  0  0  0  0
   81.6508  150.6474   14.0888 N   0  0  0  0  0  0  0  0  0  0  0  0
   82.5211  151.1740   16.3137 C   0  0  0  0  0  0  0  0  0  0  0  0
   83.7559  149.5945   14.7382 C   0  0  0  0  0  0  0  0  0  0  0  0
   80.6826  149.6901   14.2131 C   0  0  0  0  0  0  0  0  0  0  0  0
   83.3048  149.9322   16.1108 N   0  0  0  0  0  0  0  0  0  0  0  0
   80.7333  148.6045   13.6494 O   0  0  0  0  0  0  0  0  0  0  0  0
   84.2830  156.3476   11.3777 O   0  0  0  0  0  0  0  0  0  0  0  0
   84.6249  156.6373   12.5214 C   0  0  0  0  0  0  0  0  0  0  0  0
   84.6328  155.7919   13.6373 N   0  0  0  0  0  0  0  0  0  0  0  0
   85.0565  157.9222   12.7562 N   0  0  0  0  0  0  0  0  0  0  0  0
   85.2576  156.2912   14.8590 C   0  0  0  0  0  0  0  0  0  0  0  0
   85.0581  158.5671   13.9602 C   0  0  0  0  0  0  0  0  0  0  0  0
   84.8079  157.7059   15.1584 C   0  0  0  0  0  0  0  0  0  0  0  0
   85.1756  159.7867   14.0380 O   0  0  0  0  0  0  0  0  0  0  0  0
   85.3970  158.4255   11.9816 H   0  0  0  0  0  0  0  0  0  0  0  0
   79.6781  150.1022   15.0272 O   0  0  0  0  0  0  0  0  0  0  0  0
   78.3784  149.4619   14.9882 C   0  0  0  0  0  0  0  0  0  0  0  0
   77.4638  150.3936   15.7984 C   0  0  0  0  0  0  0  0  0  0  0  0
   77.8408  149.3731   13.5561 C   0  0  0  0  0  0  0  0  0  0  0  0
   78.4130  148.0928   15.6764 C   0  0  0  0  0  0  0  0  0  0  0  0
   84.1732  149.5202   17.2041 C   0  0  0  0  0  0  0  0  0  0  0  0
   85.6574  149.5339   16.9042 C   0  0  0  0  0  0  0  0  0  0  0  0
   86.2607  150.6604   16.3246 C   0  0  0  0  0  0  0  0  0  0  0  0
   86.4576  148.4164   17.1860 C   0  0  0  0  0  0  0  0  0  0  0  0
   87.6293  150.6742   16.0478 C   0  0  0  0  0  0  0  0  0  0  0  0
   87.8262  148.4307   16.9096 C   0  0  0  0  0  0  0  0  0  0  0  0
   88.4117  149.5601   16.3423 C   0  0  0  0  0  0  0  0  0  0  0  0
 15 16  2  0
 16 17  1  0
 16 18  1  0
 17 19  1  0
 18 20  1  0
  1 17  1  0
  1  2  2  0
  1  3  5  0
 19 21  1  0
 20 22  2  0
 20 21  1  0
  3  5  2  0
  4  2  5  0
  4  6  2  0
  4  7  1  0
  6  8  1  0
  6  5  5  0
  7  9  1  0
  7 10  1  0
  8 11  1  0
  8  9  1  0
  9 12  1  0
 10 13  1  0
 11 13  1  0
 12 14  2  0
 12 24  1  0
 13 29  1  0
 24 25  1  0
 29 30  1  0
 25 26  1  0
 25 27  1  0
 25 28  1  0
 30 31  2  0
 30 32  5  0
 31 33  5  0
 32 34  2  0
 33 35  2  0
 34 35  5  0
 18 23  1  0
M  END
> <ID>
EDEL-CRBN-0009

> <Stereoisomer>
original

> <MW>
462.23

> <HBD>
1

> <HBA>
5

> <RotBonds>
3

> <cLogP>
3.98

> <minimizedAffinity>
-9.63870

> <CNNscore>
0.9042714238

> <CNNaffinity>
7.5170397758

> <CNN_VS>
6.7974443436

> <CNNaffinity_variance>
0.0698496029

> <Compound_Name>
EDEL-CRBN-0009

> <Pose_Rank>
5
$$$$
EDEL-CRBN-0010_ent


 36 40  0  0  0  0  0  0  0  0999 V2000
   83.6885  152.8004   18.4414 O   0  0  0  0  0  0  0  0  0  0  0  0
   83.2947  151.6939   18.0671 C   0  0  0  0  0  0  0  0  0  0  0  0
   82.6577  150.9088   18.9787 N   0  0  0  0  0  0  0  0  0  0  0  0
   83.6231  151.1559   16.6835 C   0  0  0  0  0  0  0  0  0  0  0  0
   81.9246  149.6954   18.7092 C   0  0  0  0  0  0  0  0  0  0  0  0
   82.7329  150.1176   15.9864 C   0  0  0  0  0  0  0  0  0  0  0  0
   83.7457  152.3018   15.6611 C   0  0  0  0  0  0  0  0  0  0  0  0
   80.8587  149.9498   17.6746 C   0  0  0  0  0  0  0  0  0  0  0  0
   81.2520  150.2105   16.3402 C   0  0  0  0  0  0  0  0  0  0  0  0
   83.1404  150.3370   14.5203 C   0  0  0  0  0  0  0  0  0  0  0  0
   83.1726  151.7915   14.4026 N   0  0  0  0  0  0  0  0  0  0  0  0
   79.4952  150.0002   18.0223 C   0  0  0  0  0  0  0  0  0  0  0  0
   80.2592  150.5058   15.3933 C   0  0  0  0  0  0  0  0  0  0  0  0
   78.5015  150.2574   17.0582 C   0  0  0  0  0  0  0  0  0  0  0  0
   78.9021  150.5370   15.7434 C   0  0  0  0  0  0  0  0  0  0  0  0
   82.7016  151.1987   19.9186 H   0  0  0  0  0  0  0  0  0  0  0  0
   77.1236  150.2002   17.4261 N   0  0  0  0  0  0  0  0  0  0  0  0
   76.4215  149.0008   17.4301 C   0  0  0  0  0  0  0  0  0  0  0  0
   76.5950  151.3237   18.1871 C   0  0  0  0  0  0  0  0  0  0  0  0
   76.7724  147.9591   16.8808 O   0  0  0  0  0  0  0  0  0  0  0  0
   75.1836  149.0609   18.0262 N   0  0  0  0  0  0  0  0  0  0  0  0
   75.1218  151.4977   17.8943 C   0  0  0  0  0  0  0  0  0  0  0  0
   74.4160  150.1897   18.1220 C   0  0  0  0  0  0  0  0  0  0  0  0
   73.2019  150.1239   18.2991 O   0  0  0  0  0  0  0  0  0  0  0  0
   74.8229  148.2303   18.4125 H   0  0  0  0  0  0  0  0  0  0  0  0
   79.1482  149.7816   19.3381 O   0  0  0  0  0  0  0  0  0  0  0  0
   79.1110  148.3759   19.6081 C   0  0  0  0  0  0  0  0  0  0  0  0
   77.9437  150.6887   14.7692 O   0  0  0  0  0  0  0  0  0  0  0  0
   77.8960  149.5739   13.8767 C   0  0  0  0  0  0  0  0  0  0  0  0
   83.8683  152.2569   13.2024 C   0  0  0  0  0  0  0  0  0  0  0  0
   84.2146  153.7293   13.2537 C   0  0  0  0  0  0  0  0  0  0  0  0
   85.4603  154.1850   12.7952 C   0  0  0  0  0  0  0  0  0  0  0  0
   83.3058  154.6597   13.7776 C   0  0  0  0  0  0  0  0  0  0  0  0
   85.7866  155.5405   12.8531 C   0  0  0  0  0  0  0  0  0  0  0  0
   83.6344  156.0155   13.8357 C   0  0  0  0  0  0  0  0  0  0  0  0
   84.8737  156.4551   13.3739 C   0  0  0  0  0  0  0  0  0  0  0  0
  1  2  2  0
  2  3  1  0
  3  5  1  0
  4  2  1  0
  4  6  1  0
  4  7  1  0
  6  9  1  0
  6 10  1  0
  7 11  1  0
  8  5  1  0
  8 12  2  0
  8  9  5  0
  9 13  2  0
 10 11  1  0
 11 30  1  0
 12 26  1  0
 12 14  5  0
 13 15  5  0
 30 31  1  0
 26 27  1  0
 14 17  1  0
 14 15  2  0
 15 28  1  0
 31 32  2  0
 31 33  5  0
 17 18  1  0
 17 19  1  0
 28 29  1  0
 32 34  5  0
 33 35  2  0
 18 20  2  0
 18 21  1  0
 19 22  1  0
 34 36  2  0
 35 36  5  0
 21 23  1  0
 22 23  1  0
 23 24  2  0
  3 16  1  0
 21 25  1  0
M  END
> <ID>
EDEL-CRBN-0010_ent

> <Stereoisomer>
enantiomer

> <MW>
464.21

> <HBD>
2

> <HBA>
6

> <RotBonds>
5

> <cLogP>
2.0

> <minimizedAffinity>
-7.61045

> <CNNscore>
0.1955153793

> <CNNaffinity>
4.6759052277

> <CNN_VS>
0.9142113924

> <CNNaffinity_variance>
1.6306905746

> <Compound_Name>
EDEL-CRBN-0010_ent

> <Pose_Rank>
1
$$$$
EDEL-CRBN-0010_ent


 36 40  0  0  0  0  0  0  0  0999 V2000
   83.5223  152.6801   18.1963 O   0  0  0  0  0  0  0  0  0  0  0  0
   83.5618  151.5797   17.6423 C   0  0  0  0  0  0  0  0  0  0  0  0
   82.9754  150.5299   18.2805 N   0  0  0  0  0  0  0  0  0  0  0  0
   84.3520  151.3586   16.3623 C   0  0  0  0  0  0  0  0  0  0  0  0
   82.7054  149.2254   17.7259 C   0  0  0  0  0  0  0  0  0  0  0  0
   83.9888  150.2460   15.3688 C   0  0  0  0  0  0  0  0  0  0  0  0
   84.3848  152.6390   15.5063 C   0  0  0  0  0  0  0  0  0  0  0  0
   81.8920  149.3542   16.4637 C   0  0  0  0  0  0  0  0  0  0  0  0
   82.5031  149.9051   15.3119 C   0  0  0  0  0  0  0  0  0  0  0  0
   84.6565  150.7810   14.0914 C   0  0  0  0  0  0  0  0  0  0  0  0
   84.3004  152.1964   14.1029 N   0  0  0  0  0  0  0  0  0  0  0  0
   80.5288  149.0033   16.4296 C   0  0  0  0  0  0  0  0  0  0  0  0
   81.7250  150.0783   14.1571 C   0  0  0  0  0  0  0  0  0  0  0  0
   79.7648  149.1426   15.2549 C   0  0  0  0  0  0  0  0  0  0  0  0
   80.3726  149.7103   14.1255 C   0  0  0  0  0  0  0  0  0  0  0  0
   82.7080  150.6758   19.2167 H   0  0  0  0  0  0  0  0  0  0  0  0
   78.4140  148.6822   15.2278 N   0  0  0  0  0  0  0  0  0  0  0  0
   77.3440  149.5689   15.2088 C   0  0  0  0  0  0  0  0  0  0  0  0
   78.1922  147.3077   14.8008 C   0  0  0  0  0  0  0  0  0  0  0  0
   77.3944  150.7644   15.4888 O   0  0  0  0  0  0  0  0  0  0  0  0
   76.1234  148.9920   14.9474 N   0  0  0  0  0  0  0  0  0  0  0  0
   76.9516  146.7547   15.4653 C   0  0  0  0  0  0  0  0  0  0  0  0
   75.8006  147.6897   15.2162 C   0  0  0  0  0  0  0  0  0  0  0  0
   74.6308  147.3317   15.3308 O   0  0  0  0  0  0  0  0  0  0  0  0
   75.4304  149.5578   14.5364 H   0  0  0  0  0  0  0  0  0  0  0  0
   79.9531  148.5073   17.5795 O   0  0  0  0  0  0  0  0  0  0  0  0
   79.3667  149.5742   18.3334 C   0  0  0  0  0  0  0  0  0  0  0  0
   79.6738  149.7592   12.9423 O   0  0  0  0  0  0  0  0  0  0  0  0
   80.0395  148.7030   12.0521 C   0  0  0  0  0  0  0  0  0  0  0  0
   85.1016  152.9993   13.1785 C   0  0  0  0  0  0  0  0  0  0  0  0
   84.9127  154.4883   13.3727 C   0  0  0  0  0  0  0  0  0  0  0  0
   84.4737  155.2955   12.3119 C   0  0  0  0  0  0  0  0  0  0  0  0
   85.1913  155.0891   14.6085 C   0  0  0  0  0  0  0  0  0  0  0  0
   84.3107  156.6706   12.4852 C   0  0  0  0  0  0  0  0  0  0  0  0
   85.0287  156.4653   14.7800 C   0  0  0  0  0  0  0  0  0  0  0  0
   84.5889  157.2550   13.7190 C   0  0  0  0  0  0  0  0  0  0  0  0
  1  2  2  0
  2  3  1  0
  3  5  1  0
  4  2  1  0
  4  6  1  0
  4  7  1  0
  6  9  1  0
  6 10  1  0
  7 11  1  0
  8  5  1  0
  8 12  2  0
  8  9  5  0
  9 13  2  0
 10 11  1  0
 11 30  1  0
 12 26  1  0
 12 14  5  0
 13 15  5  0
 30 31  1  0
 26 27  1  0
 14 17  1  0
 14 15  2  0
 15 28  1  0
 31 32  2  0
 31 33  5  0
 17 18  1  0
 17 19  1  0
 28 29  1  0
 32 34  5  0
 33 35  2  0
 18 20  2  0
 18 21  1  0
 19 22  1  0
 34 36  2  0
 35 36  5  0
 21 23  1  0
 22 23  1  0
 23 24  2  0
  3 16  1  0
 21 25  1  0
M  END
> <ID>
EDEL-CRBN-0010_ent

> <Stereoisomer>
enantiomer

> <MW>
464.21

> <HBD>
2

> <HBA>
6

> <RotBonds>
5

> <cLogP>
2.0

> <minimizedAffinity>
-7.84220

> <CNNscore>
0.1889410317

> <CNNaffinity>
4.1199989319

> <CNN_VS>
0.7784368396

> <CNNaffinity_variance>
2.5127675533

> <Compound_Name>
EDEL-CRBN-0010_ent

> <Pose_Rank>
2
$$$$
EDEL-CRBN-0010_ent


 36 40  0  0  0  0  0  0  0  0999 V2000
   82.7106  145.9675   11.4673 O   0  0  0  0  0  0  0  0  0  0  0  0
   82.8401  146.3037   12.6462 C   0  0  0  0  0  0  0  0  0  0  0  0
   84.0722  146.7148   13.0540 N   0  0  0  0  0  0  0  0  0  0  0  0
   81.7116  146.1388   13.6516 C   0  0  0  0  0  0  0  0  0  0  0  0
   84.3965  147.3582   14.3042 C   0  0  0  0  0  0  0  0  0  0  0  0
   81.6091  147.0190   14.9051 C   0  0  0  0  0  0  0  0  0  0  0  0
   80.3386  146.2858   12.9686 C   0  0  0  0  0  0  0  0  0  0  0  0
   83.5471  148.5889   14.4923 C   0  0  0  0  0  0  0  0  0  0  0  0
   82.1621  148.4308   14.7370 C   0  0  0  0  0  0  0  0  0  0  0  0
   80.1161  146.8628   15.2370 C   0  0  0  0  0  0  0  0  0  0  0  0
   79.4746  146.9911   13.9322 N   0  0  0  0  0  0  0  0  0  0  0  0
   84.0891  149.8819   14.3618 C   0  0  0  0  0  0  0  0  0  0  0  0
   81.3652  149.5801   14.8518 C   0  0  0  0  0  0  0  0  0  0  0  0
   83.2903  151.0311   14.5184 C   0  0  0  0  0  0  0  0  0  0  0  0
   81.9151  150.8646   14.7381 C   0  0  0  0  0  0  0  0  0  0  0  0
   84.8187  146.5568   12.4319 H   0  0  0  0  0  0  0  0  0  0  0  0
   83.8924  152.3247   14.4806 N   0  0  0  0  0  0  0  0  0  0  0  0
   84.4746  152.8889   15.6095 C   0  0  0  0  0  0  0  0  0  0  0  0
   84.2539  152.8479   13.1705 C   0  0  0  0  0  0  0  0  0  0  0  0
   84.3063  152.5171   16.7686 O   0  0  0  0  0  0  0  0  0  0  0  0
   85.2145  154.0229   15.3694 N   0  0  0  0  0  0  0  0  0  0  0  0
   84.1854  154.3585   13.1813 C   0  0  0  0  0  0  0  0  0  0  0  0
   85.0124  154.8813   14.3231 C   0  0  0  0  0  0  0  0  0  0  0  0
   85.4151  156.0416   14.3613 O   0  0  0  0  0  0  0  0  0  0  0  0
   85.9437  154.2327   15.9967 H   0  0  0  0  0  0  0  0  0  0  0  0
   85.4336  150.0016   14.0834 O   0  0  0  0  0  0  0  0  0  0  0  0
   86.1985  149.8441   15.2836 C   0  0  0  0  0  0  0  0  0  0  0  0
   81.1392  151.9703   14.9949 O   0  0  0  0  0  0  0  0  0  0  0  0
   80.8338  152.1080   16.3840 C   0  0  0  0  0  0  0  0  0  0  0  0
   78.0842  146.5352   13.9268 C   0  0  0  0  0  0  0  0  0  0  0  0
   77.2810  147.1020   12.7761 C   0  0  0  0  0  0  0  0  0  0  0  0
   75.9888  146.6257   12.5059 C   0  0  0  0  0  0  0  0  0  0  0  0
   77.8209  148.0974   11.9493 C   0  0  0  0  0  0  0  0  0  0  0  0
   75.2512  147.1381   11.4379 C   0  0  0  0  0  0  0  0  0  0  0  0
   77.0819  148.6082   10.8804 C   0  0  0  0  0  0  0  0  0  0  0  0
   75.7983  148.1287   10.6252 C   0  0  0  0  0  0  0  0  0  0  0  0
  1  2  2  0
  2  3  1  0
  3  5  1  0
  4  2  1  0
  4  6  1  0
  4  7  1  0
  6  9  1  0
  6 10  1  0
  7 11  1  0
  8  5  1  0
  8 12  2  0
  8  9  5  0
  9 13  2  0
 10 11  1  0
 11 30  1  0
 12 26  1  0
 12 14  5  0
 13 15  5  0
 30 31  1  0
 26 27  1  0
 14 17  1  0
 14 15  2  0
 15 28  1  0
 31 32  2  0
 31 33  5  0
 17 18  1  0
 17 19  1  0
 28 29  1  0
 32 34  5  0
 33 35  2  0
 18 20  2  0
 18 21  1  0
 19 22  1  0
 34 36  2  0
 35 36  5  0
 21 23  1  0
 22 23  1  0
 23 24  2  0
  3 16  1  0
 21 25  1  0
M  END
> <ID>
EDEL-CRBN-0010_ent

> <Stereoisomer>
enantiomer

> <MW>
464.21

> <HBD>
2

> <HBA>
6

> <RotBonds>
5

> <cLogP>
2.0

> <minimizedAffinity>
-5.92343

> <CNNscore>
0.1633380800

> <CNNaffinity>
4.3639359474

> <CNN_VS>
0.7127969265

> <CNNaffinity_variance>
1.1603913307

> <Compound_Name>
EDEL-CRBN-0010_ent

> <Pose_Rank>
3
$$$$
EDEL-CRBN-0010_ent


 36 40  0  0  0  0  0  0  0  0999 V2000
   83.2575  152.3812   18.1005 O   0  0  0  0  0  0  0  0  0  0  0  0
   83.4077  151.3091   17.5110 C   0  0  0  0  0  0  0  0  0  0  0  0
   82.8378  150.2014   18.0599 N   0  0  0  0  0  0  0  0  0  0  0  0
   84.3086  151.1879   16.2922 C   0  0  0  0  0  0  0  0  0  0  0  0
   82.6925  148.9078   17.4371 C   0  0  0  0  0  0  0  0  0  0  0  0
   84.0936  150.0989   15.2318 C   0  0  0  0  0  0  0  0  0  0  0  0
   84.3309  152.5029   15.4900 C   0  0  0  0  0  0  0  0  0  0  0  0
   81.9752  149.0422   16.1185 C   0  0  0  0  0  0  0  0  0  0  0  0
   82.6406  149.6753   15.0416 C   0  0  0  0  0  0  0  0  0  0  0  0
   84.8264  150.7246   14.0338 C   0  0  0  0  0  0  0  0  0  0  0  0
   84.3848  152.1154   14.0688 N   0  0  0  0  0  0  0  0  0  0  0  0
   80.6429  148.6149   15.9606 C   0  0  0  0  0  0  0  0  0  0  0  0
   81.9471  149.8515   13.8344 C   0  0  0  0  0  0  0  0  0  0  0  0
   79.9671  148.7589   14.7336 C   0  0  0  0  0  0  0  0  0  0  0  0
   80.6264  149.4076   13.6792 C   0  0  0  0  0  0  0  0  0  0  0  0
   82.4888  150.2922   18.9760 H   0  0  0  0  0  0  0  0  0  0  0  0
   78.6532  148.2227   14.5795 N   0  0  0  0  0  0  0  0  0  0  0  0
   77.5447  149.0472   14.4283 C   0  0  0  0  0  0  0  0  0  0  0  0
   78.5515  146.8298   14.1667 C   0  0  0  0  0  0  0  0  0  0  0  0
   77.5011  150.2489   14.6818 O   0  0  0  0  0  0  0  0  0  0  0  0
   76.3907  148.3975   14.0576 N   0  0  0  0  0  0  0  0  0  0  0  0
   77.2803  146.2209   14.7141 C   0  0  0  0  0  0  0  0  0  0  0  0
   76.1126  147.0845   14.3246 C   0  0  0  0  0  0  0  0  0  0  0  0
   74.9582  146.6636   14.3274 O   0  0  0  0  0  0  0  0  0  0  0  0
   75.7147  148.9153   13.5635 H   0  0  0  0  0  0  0  0  0  0  0  0
   80.0094  148.0386   17.0405 O   0  0  0  0  0  0  0  0  0  0  0  0
   80.3806  146.6598   17.1479 C   0  0  0  0  0  0  0  0  0  0  0  0
   80.0217  149.4657   12.4457 O   0  0  0  0  0  0  0  0  0  0  0  0
   80.0717  148.2144   11.7575 C   0  0  0  0  0  0  0  0  0  0  0  0
   85.2061  153.0013   13.2432 C   0  0  0  0  0  0  0  0  0  0  0  0
   84.9202  154.4677   13.4851 C   0  0  0  0  0  0  0  0  0  0  0  0
   85.2363  155.0618   14.7167 C   0  0  0  0  0  0  0  0  0  0  0  0
   84.3175  155.2520   12.4914 C   0  0  0  0  0  0  0  0  0  0  0  0
   84.9622  156.4107   14.9464 C   0  0  0  0  0  0  0  0  0  0  0  0
   84.0430  156.6012   12.7233 C   0  0  0  0  0  0  0  0  0  0  0  0
   84.3651  157.1797   13.9498 C   0  0  0  0  0  0  0  0  0  0  0  0
  1  2  2  0
  2  3  1  0
  3  5  1  0
  4  2  1  0
  4  6  1  0
  4  7  1  0
  6  9  1  0
  6 10  1  0
  7 11  1  0
  8  5  1  0
  8 12  2  0
  8  9  5  0
  9 13  2  0
 10 11  1  0
 11 30  1  0
 12 26  1  0
 12 14  5  0
 13 15  5  0
 30 31  1  0
 26 27  1  0
 14 17  1  0
 14 15  2  0
 15 28  1  0
 31 32  2  0
 31 33  5  0
 17 18  1  0
 17 19  1  0
 28 29  1  0
 32 34  5  0
 33 35  2  0
 18 20  2  0
 18 21  1  0
 19 22  1  0
 34 36  2  0
 35 36  5  0
 21 23  1  0
 22 23  1  0
 23 24  2  0
  3 16  1  0
 21 25  1  0
M  END
> <ID>
EDEL-CRBN-0010_ent

> <Stereoisomer>
enantiomer

> <MW>
464.21

> <HBD>
2

> <HBA>
6

> <RotBonds>
5

> <cLogP>
2.0

> <minimizedAffinity>
-7.38391

> <CNNscore>
0.1583149731

> <CNNaffinity>
4.0586605072

> <CNN_VS>
0.6425467134

> <CNNaffinity_variance>
2.2506799698

> <Compound_Name>
EDEL-CRBN-0010_ent

> <Pose_Rank>
4
$$$$
EDEL-CRBN-0010_ent


 36 40  0  0  0  0  0  0  0  0999 V2000
   82.0023  145.2306   10.8870 O   0  0  0  0  0  0  0  0  0  0  0  0
   81.9077  145.4317   12.0995 C   0  0  0  0  0  0  0  0  0  0  0  0
   83.0557  145.6681   12.7919 N   0  0  0  0  0  0  0  0  0  0  0  0
   80.5830  145.2867   12.8316 C   0  0  0  0  0  0  0  0  0  0  0  0
   83.1612  146.1456   14.1495 C   0  0  0  0  0  0  0  0  0  0  0  0
   80.2916  146.0431   14.1352 C   0  0  0  0  0  0  0  0  0  0  0  0
   79.4016  145.6449   11.9100 C   0  0  0  0  0  0  0  0  0  0  0  0
   82.3954  147.4338   14.3094 C   0  0  0  0  0  0  0  0  0  0  0  0
   80.9817  147.3985   14.2512 C   0  0  0  0  0  0  0  0  0  0  0  0
   78.7545  146.0124   14.1403 C   0  0  0  0  0  0  0  0  0  0  0  0
   78.4150  146.3373   12.7584 N   0  0  0  0  0  0  0  0  0  0  0  0
   83.0572  148.6691   14.4457 C   0  0  0  0  0  0  0  0  0  0  0  0
   80.2758  148.6081   14.3407 C   0  0  0  0  0  0  0  0  0  0  0  0
   82.3408  149.8745   14.5754 C   0  0  0  0  0  0  0  0  0  0  0  0
   80.9412  149.8325   14.4938 C   0  0  0  0  0  0  0  0  0  0  0  0
   83.9010  145.4955   12.3176 H   0  0  0  0  0  0  0  0  0  0  0  0
   83.0416  151.0949   14.8138 N   0  0  0  0  0  0  0  0  0  0  0  0
   83.2049  152.0467   13.8144 C   0  0  0  0  0  0  0  0  0  0  0  0
   83.2078  151.5017   16.2022 C   0  0  0  0  0  0  0  0  0  0  0  0
   83.0440  151.8614   12.6103 O   0  0  0  0  0  0  0  0  0  0  0  0
   83.6883  153.2590   14.2479 N   0  0  0  0  0  0  0  0  0  0  0  0
   84.4764  152.3104   16.3547 C   0  0  0  0  0  0  0  0  0  0  0  0
   84.4643  153.4385   15.3605 C   0  0  0  0  0  0  0  0  0  0  0  0
   85.1754  154.4321   15.4903 O   0  0  0  0  0  0  0  0  0  0  0  0
   83.4590  154.0568   13.7185 H   0  0  0  0  0  0  0  0  0  0  0  0
   84.4354  148.6740   14.4584 O   0  0  0  0  0  0  0  0  0  0  0  0
   84.9370  148.8545   13.1294 C   0  0  0  0  0  0  0  0  0  0  0  0
   80.2222  150.9825   14.7204 O   0  0  0  0  0  0  0  0  0  0  0  0
   78.8486  150.7154   15.0097 C   0  0  0  0  0  0  0  0  0  0  0  0
   77.0243  146.0330   12.4202 C   0  0  0  0  0  0  0  0  0  0  0  0
   76.4674  146.9361   11.3410 C   0  0  0  0  0  0  0  0  0  0  0  0
   77.1572  148.0962   10.9563 C   0  0  0  0  0  0  0  0  0  0  0  0
   75.2448  146.6402   10.7217 C   0  0  0  0  0  0  0  0  0  0  0  0
   76.6395  148.9370    9.9702 C   0  0  0  0  0  0  0  0  0  0  0  0
   74.7277  147.4831    9.7360 C   0  0  0  0  0  0  0  0  0  0  0  0
   75.4246  148.6304    9.3609 C   0  0  0  0  0  0  0  0  0  0  0  0
  1  2  2  0
  2  3  1  0
  3  5  1  0
  4  2  1  0
  4  6  1  0
  4  7  1  0
  6  9  1  0
  6 10  1  0
  7 11  1  0
  8  5  1  0
  8 12  2  0
  8  9  5  0
  9 13  2  0
 10 11  1  0
 11 30  1  0
 12 26  1  0
 12 14  5  0
 13 15  5  0
 30 31  1  0
 26 27  1  0
 14 17  1  0
 14 15  2  0
 15 28  1  0
 31 32  2  0
 31 33  5  0
 17 18  1  0
 17 19  1  0
 28 29  1  0
 32 34  5  0
 33 35  2  0
 18 20  2  0
 18 21  1  0
 19 22  1  0
 34 36  2  0
 35 36  5  0
 21 23  1  0
 22 23  1  0
 23 24  2  0
  3 16  1  0
 21 25  1  0
M  END
> <ID>
EDEL-CRBN-0010_ent

> <Stereoisomer>
enantiomer

> <MW>
464.21

> <HBD>
2

> <HBA>
6

> <RotBonds>
5

> <cLogP>
2.0

> <minimizedAffinity>
-5.66363

> <CNNscore>
0.1553516090

> <CNNaffinity>
4.0523872375

> <CNN_VS>
0.6295448542

> <CNNaffinity_variance>
1.2523083687

> <Compound_Name>
EDEL-CRBN-0010_ent

> <Pose_Rank>
5
$$$$
EDEL-CRBN-0010


 36 40  0  0  0  0  0  0  0  0999 V2000
   81.1299  149.9059   12.5817 O   0  0  0  0  0  0  0  0  0  0  0  0
   80.2954  149.0941   12.9845 C   0  0  0  0  0  0  0  0  0  0  0  0
   80.5966  148.3512   14.0806 N   0  0  0  0  0  0  0  0  0  0  0  0
   78.9971  148.8710   12.2407 C   0  0  0  0  0  0  0  0  0  0  0  0
   79.6912  147.5034   14.8097 C   0  0  0  0  0  0  0  0  0  0  0  0
   77.6661  148.7950   13.0142 C   0  0  0  0  0  0  0  0  0  0  0  0
   79.0466  147.5989   11.3964 C   0  0  0  0  0  0  0  0  0  0  0  0
   78.5579  148.3083   15.3829 C   0  0  0  0  0  0  0  0  0  0  0  0
   77.6248  148.9269   14.5251 C   0  0  0  0  0  0  0  0  0  0  0  0
   77.0213  147.4810   12.5355 C   0  0  0  0  0  0  0  0  0  0  0  0
   77.6301  147.2525   11.2231 N   0  0  0  0  0  0  0  0  0  0  0  0
   78.4185  148.4664   16.7779 C   0  0  0  0  0  0  0  0  0  0  0  0
   76.5570  149.6504   15.0913 C   0  0  0  0  0  0  0  0  0  0  0  0
   77.3377  149.1756   17.3398 C   0  0  0  0  0  0  0  0  0  0  0  0
   76.4152  149.7832   16.4774 C   0  0  0  0  0  0  0  0  0  0  0  0
   81.5240  148.3971   14.4079 H   0  0  0  0  0  0  0  0  0  0  0  0
   77.1846  149.2316   18.7577 N   0  0  0  0  0  0  0  0  0  0  0  0
   77.2419  150.4382   19.4451 C   0  0  0  0  0  0  0  0  0  0  0  0
   76.5556  148.0877   19.4033 C   0  0  0  0  0  0  0  0  0  0  0  0
   77.6855  151.4960   19.0040 O   0  0  0  0  0  0  0  0  0  0  0  0
   76.8506  150.3699   20.7616 N   0  0  0  0  0  0  0  0  0  0  0  0
   77.0797  147.9398   20.8139 C   0  0  0  0  0  0  0  0  0  0  0  0
   76.9166  149.2464   21.5402 C   0  0  0  0  0  0  0  0  0  0  0  0
   76.9278  149.3188   22.7666 O   0  0  0  0  0  0  0  0  0  0  0  0
   76.4965  151.1904   21.1748 H   0  0  0  0  0  0  0  0  0  0  0  0
   79.3635  147.8892   17.6002 O   0  0  0  0  0  0  0  0  0  0  0  0
   80.3995  148.8337   17.8919 C   0  0  0  0  0  0  0  0  0  0  0  0
   75.2896  150.3678   17.0056 O   0  0  0  0  0  0  0  0  0  0  0  0
   74.1702  149.4809   17.0254 C   0  0  0  0  0  0  0  0  0  0  0  0
   77.4221  145.8807   10.7489 C   0  0  0  0  0  0  0  0  0  0  0  0
   78.1939  145.5674    9.4856 C   0  0  0  0  0  0  0  0  0  0  0  0
   79.1948  144.5841    9.4896 C   0  0  0  0  0  0  0  0  0  0  0  0
   77.9295  146.2589    8.2948 C   0  0  0  0  0  0  0  0  0  0  0  0
   79.9131  144.2970    8.3282 C   0  0  0  0  0  0  0  0  0  0  0  0
   78.6497  145.9707    7.1338 C   0  0  0  0  0  0  0  0  0  0  0  0
   79.6406  144.9908    7.1510 C   0  0  0  0  0  0  0  0  0  0  0  0
  1  2  2  0
  2  3  1  0
  3  5  1  0
  4  2  1  0
  4  6  1  0
  4  7  1  0
  6  9  1  0
  6 10  1  0
  7 11  1  0
  8  5  1  0
  8 12  2  0
  8  9  5  0
  9 13  2  0
 10 11  1  0
 11 30  1  0
 12 26  1  0
 12 14  5  0
 13 15  5  0
 30 31  1  0
 26 27  1  0
 14 17  1  0
 14 15  2  0
 15 28  1  0
 31 32  2  0
 31 33  5  0
 17 18  1  0
 17 19  1  0
 28 29  1  0
 32 34  5  0
 33 35  2  0
 18 20  2  0
 18 21  1  0
 19 22  1  0
 34 36  2  0
 35 36  5  0
 21 23  1  0
 22 23  1  0
 23 24  2  0
  3 16  1  0
 21 25  1  0
M  END
> <ID>
EDEL-CRBN-0010

> <Stereoisomer>
original

> <MW>
464.21

> <HBD>
2

> <HBA>
6

> <RotBonds>
5

> <cLogP>
2.0

> <minimizedAffinity>
-5.73912

> <CNNscore>
0.2811208665

> <CNNaffinity>
4.6641116142

> <CNN_VS>
1.3111790419

> <CNNaffinity_variance>
0.5645320415

> <Compound_Name>
EDEL-CRBN-0010

> <Pose_Rank>
1
$$$$
EDEL-CRBN-0010


 36 40  0  0  0  0  0  0  0  0999 V2000
   84.3109  153.0723   16.5035 O   0  0  0  0  0  0  0  0  0  0  0  0
   83.7491  151.9800   16.5976 C   0  0  0  0  0  0  0  0  0  0  0  0
   84.4911  150.8568   16.4190 N   0  0  0  0  0  0  0  0  0  0  0  0
   82.2577  151.8840   16.8321 C   0  0  0  0  0  0  0  0  0  0  0  0
   84.0673  149.5064   16.6777 C   0  0  0  0  0  0  0  0  0  0  0  0
   81.7017  150.9019   17.8818 C   0  0  0  0  0  0  0  0  0  0  0  0
   81.5070  151.5627   15.5410 C   0  0  0  0  0  0  0  0  0  0  0  0
   83.7271  149.3276   18.1314 C   0  0  0  0  0  0  0  0  0  0  0  0
   82.6234  150.0065   18.6884 C   0  0  0  0  0  0  0  0  0  0  0  0
   80.6374  150.0910   17.1193 C   0  0  0  0  0  0  0  0  0  0  0  0
   80.2486  150.9754   16.0185 N   0  0  0  0  0  0  0  0  0  0  0  0
   84.5088  148.4932   18.9580 C   0  0  0  0  0  0  0  0  0  0  0  0
   82.3115  149.7970   20.0459 C   0  0  0  0  0  0  0  0  0  0  0  0
   84.1812  148.2724   20.3110 C   0  0  0  0  0  0  0  0  0  0  0  0
   83.0805  148.9501   20.8523 C   0  0  0  0  0  0  0  0  0  0  0  0
   85.4073  150.9782   16.0799 H   0  0  0  0  0  0  0  0  0  0  0  0
   84.9448  147.3481   21.0855 N   0  0  0  0  0  0  0  0  0  0  0  0
   85.9199  147.7817   21.9759 C   0  0  0  0  0  0  0  0  0  0  0  0
   84.4030  146.0052   21.2403 C   0  0  0  0  0  0  0  0  0  0  0  0
   86.4202  148.9038   22.0030 O   0  0  0  0  0  0  0  0  0  0  0  0
   86.4079  146.8072   22.8144 N   0  0  0  0  0  0  0  0  0  0  0  0
   85.5300  145.0118   21.4121 C   0  0  0  0  0  0  0  0  0  0  0  0
   86.4233  145.4681   22.5324 C   0  0  0  0  0  0  0  0  0  0  0  0
   87.1911  144.7024   23.1099 O   0  0  0  0  0  0  0  0  0  0  0  0
   86.7736  147.0942   23.6823 H   0  0  0  0  0  0  0  0  0  0  0  0
   85.6086  147.8698   18.4065 O   0  0  0  0  0  0  0  0  0  0  0  0
   85.2160  146.6342   17.7985 C   0  0  0  0  0  0  0  0  0  0  0  0
   82.6717  148.6501   22.1293 O   0  0  0  0  0  0  0  0  0  0  0  0
   81.3264  148.1723   22.1752 C   0  0  0  0  0  0  0  0  0  0  0  0
   79.5073  150.2631   14.9730 C   0  0  0  0  0  0  0  0  0  0  0  0
   78.0673  149.9902   15.3494 C   0  0  0  0  0  0  0  0  0  0  0  0
   77.4907  150.6241   16.4603 C   0  0  0  0  0  0  0  0  0  0  0  0
   77.2893  149.0943   14.6023 C   0  0  0  0  0  0  0  0  0  0  0  0
   76.1651  150.3699   16.8144 C   0  0  0  0  0  0  0  0  0  0  0  0
   75.9632  148.8407   14.9583 C   0  0  0  0  0  0  0  0  0  0  0  0
   75.4021  149.4779   16.0636 C   0  0  0  0  0  0  0  0  0  0  0  0
  1  2  2  0
  2  3  1  0
  3  5  1  0
  4  2  1  0
  4  6  1  0
  4  7  1  0
  6  9  1  0
  6 10  1  0
  7 11  1  0
  8  5  1  0
  8 12  2  0
  8  9  5  0
  9 13  2  0
 10 11  1  0
 11 30  1  0
 12 26  1  0
 12 14  5  0
 13 15  5  0
 30 31  1  0
 26 27  1  0
 14 17  1  0
 14 15  2  0
 15 28  1  0
 31 32  2  0
 31 33  5  0
 17 18  1  0
 17 19  1  0
 28 29  1  0
 32 34  5  0
 33 35  2  0
 18 20  2  0
 18 21  1  0
 19 22  1  0
 34 36  2  0
 35 36  5  0
 21 23  1  0
 22 23  1  0
 23 24  2  0
  3 16  1  0
 21 25  1  0
M  END
> <ID>
EDEL-CRBN-0010

> <Stereoisomer>
original

> <MW>
464.21

> <HBD>
2

> <HBA>
6

> <RotBonds>
5

> <cLogP>
2.0

> <minimizedAffinity>
-6.09757

> <CNNscore>
0.2234672457

> <CNNaffinity>
4.5747637749

> <CNN_VS>
1.0223098993

> <CNNaffinity_variance>
1.1939830780

> <Compound_Name>
EDEL-CRBN-0010

> <Pose_Rank>
2
$$$$
EDEL-CRBN-0010


 36 40  0  0  0  0  0  0  0  0999 V2000
   84.5205  152.8429   16.6307 O   0  0  0  0  0  0  0  0  0  0  0  0
   83.9320  151.7724   16.7894 C   0  0  0  0  0  0  0  0  0  0  0  0
   84.2809  150.7228   16.0015 N   0  0  0  0  0  0  0  0  0  0  0  0
   82.7982  151.6416   17.7822 C   0  0  0  0  0  0  0  0  0  0  0  0
   83.8545  149.3582   16.1630 C   0  0  0  0  0  0  0  0  0  0  0  0
   82.7382  150.4292   18.7320 C   0  0  0  0  0  0  0  0  0  0  0  0
   81.4381  151.6779   17.0876 C   0  0  0  0  0  0  0  0  0  0  0  0
   84.3136  148.8133   17.4871 C   0  0  0  0  0  0  0  0  0  0  0  0
   83.7945  149.3410   18.6876 C   0  0  0  0  0  0  0  0  0  0  0  0
   81.3207  149.8604   18.5353 C   0  0  0  0  0  0  0  0  0  0  0  0
   80.5508  151.0062   18.0456 N   0  0  0  0  0  0  0  0  0  0  0  0
   85.2734  147.7811   17.5488 C   0  0  0  0  0  0  0  0  0  0  0  0
   84.2215  148.7911   19.9121 C   0  0  0  0  0  0  0  0  0  0  0  0
   85.6832  147.2216   18.7760 C   0  0  0  0  0  0  0  0  0  0  0  0
   85.1581  147.7522   19.9619 C   0  0  0  0  0  0  0  0  0  0  0  0
   84.8838  150.9141   15.2470 H   0  0  0  0  0  0  0  0  0  0  0  0
   86.5862  146.1164   18.7869 N   0  0  0  0  0  0  0  0  0  0  0  0
   86.1882  144.8519   18.3694 C   0  0  0  0  0  0  0  0  0  0  0  0
   88.0093  146.4223   18.8331 C   0  0  0  0  0  0  0  0  0  0  0  0
   85.0273  144.4757   18.2239 O   0  0  0  0  0  0  0  0  0  0  0  0
   87.2126  143.9477   18.2148 N   0  0  0  0  0  0  0  0  0  0  0  0
   88.7535  145.3076   19.5330 C   0  0  0  0  0  0  0  0  0  0  0  0
   88.4074  143.9977   18.8803 C   0  0  0  0  0  0  0  0  0  0  0  0
   89.1113  142.9986   19.0054 O   0  0  0  0  0  0  0  0  0  0  0  0
   87.0764  143.2094   17.5780 H   0  0  0  0  0  0  0  0  0  0  0  0
   85.8008  147.3055   16.3664 O   0  0  0  0  0  0  0  0  0  0  0  0
   86.8986  148.1280   15.9554 C   0  0  0  0  0  0  0  0  0  0  0  0
   85.4474  147.1372   21.1561 O   0  0  0  0  0  0  0  0  0  0  0  0
   86.3125  147.9206   21.9795 C   0  0  0  0  0  0  0  0  0  0  0  0
   79.2678  150.6012   17.4626 C   0  0  0  0  0  0  0  0  0  0  0  0
   79.4080  150.0044   16.0791 C   0  0  0  0  0  0  0  0  0  0  0  0
   78.6226  150.4784   15.0176 C   0  0  0  0  0  0  0  0  0  0  0  0
   80.3160  148.9637   15.8368 C   0  0  0  0  0  0  0  0  0  0  0  0
   78.7445  149.9261   13.7419 C   0  0  0  0  0  0  0  0  0  0  0  0
   80.4363  148.4118   14.5599 C   0  0  0  0  0  0  0  0  0  0  0  0
   79.6508  148.8927   13.5137 C   0  0  0  0  0  0  0  0  0  0  0  0
  1  2  2  0
  2  3  1  0
  3  5  1  0
  4  2  1  0
  4  6  1  0
  4  7  1  0
  6  9  1  0
  6 10  1  0
  7 11  1  0
  8  5  1  0
  8 12  2  0
  8  9  5  0
  9 13  2  0
 10 11  1  0
 11 30  1  0
 12 26  1  0
 12 14  5  0
 13 15  5  0
 30 31  1  0
 26 27  1  0
 14 17  1  0
 14 15  2  0
 15 28  1  0
 31 32  2  0
 31 33  5  0
 17 18  1  0
 17 19  1  0
 28 29  1  0
 32 34  5  0
 33 35  2  0
 18 20  2  0
 18 21  1  0
 19 22  1  0
 34 36  2  0
 35 36  5  0
 21 23  1  0
 22 23  1  0
 23 24  2  0
  3 16  1  0
 21 25  1  0
M  END
> <ID>
EDEL-CRBN-0010

> <Stereoisomer>
original

> <MW>
464.21

> <HBD>
2

> <HBA>
6

> <RotBonds>
5

> <cLogP>
2.0

> <minimizedAffinity>
-4.62388

> <CNNscore>
0.2120447904

> <CNNaffinity>
4.2142291069

> <CNN_VS>
0.8936053514

> <CNNaffinity_variance>
0.9563881755

> <Compound_Name>
EDEL-CRBN-0010

> <Pose_Rank>
3
$$$$
EDEL-CRBN-0010


 36 40  0  0  0  0  0  0  0  0999 V2000
   83.8746  152.2482   17.5200 O   0  0  0  0  0  0  0  0  0  0  0  0
   83.5624  151.1083   17.8677 C   0  0  0  0  0  0  0  0  0  0  0  0
   84.2516  150.0632   17.3417 N   0  0  0  0  0  0  0  0  0  0  0  0
   82.3948  150.8656   18.7984 C   0  0  0  0  0  0  0  0  0  0  0  0
   84.1693  148.6902   17.7638 C   0  0  0  0  0  0  0  0  0  0  0  0
   82.5377  149.8844   19.9785 C   0  0  0  0  0  0  0  0  0  0  0  0
   81.1565  150.4004   18.0344 C   0  0  0  0  0  0  0  0  0  0  0  0
   84.6001  148.5504   19.1976 C   0  0  0  0  0  0  0  0  0  0  0  0
   83.8333  149.1349   20.2269 C   0  0  0  0  0  0  0  0  0  0  0  0
   81.3417  148.9266   19.8251 C   0  0  0  0  0  0  0  0  0  0  0  0
   80.3667  149.7071   19.0600 N   0  0  0  0  0  0  0  0  0  0  0  0
   85.7768  147.8476   19.5321 C   0  0  0  0  0  0  0  0  0  0  0  0
   84.2457  148.9628   21.5627 C   0  0  0  0  0  0  0  0  0  0  0  0
   86.1748  147.6624   20.8716 C   0  0  0  0  0  0  0  0  0  0  0  0
   85.4031  148.2452   21.8857 C   0  0  0  0  0  0  0  0  0  0  0  0
   84.8670  150.2643   16.6000 H   0  0  0  0  0  0  0  0  0  0  0  0
   87.3212  146.8657   21.1687 N   0  0  0  0  0  0  0  0  0  0  0  0
   88.5015  147.4382   21.6277 C   0  0  0  0  0  0  0  0  0  0  0  0
   87.1019  145.4427   21.3882 C   0  0  0  0  0  0  0  0  0  0  0  0
   88.7927  148.6306   21.5671 O   0  0  0  0  0  0  0  0  0  0  0  0
   89.4352  146.5404   22.0894 N   0  0  0  0  0  0  0  0  0  0  0  0
   88.3329  144.6635   20.9835 C   0  0  0  0  0  0  0  0  0  0  0  0
   89.5325  145.2360   21.6868 C   0  0  0  0  0  0  0  0  0  0  0  0
   90.5766  144.6025   21.8200 O   0  0  0  0  0  0  0  0  0  0  0  0
   90.0819  146.8598   22.7595 H   0  0  0  0  0  0  0  0  0  0  0  0
   86.5364  147.3180   18.5099 O   0  0  0  0  0  0  0  0  0  0  0  0
   85.9916  146.0595   18.0978 C   0  0  0  0  0  0  0  0  0  0  0  0
   85.7031  147.9688   23.1977 O   0  0  0  0  0  0  0  0  0  0  0  0
   84.8131  147.0108   23.7726 C   0  0  0  0  0  0  0  0  0  0  0  0
   79.3016  148.8673   18.5029 C   0  0  0  0  0  0  0  0  0  0  0  0
   78.0497  149.6463   18.1631 C   0  0  0  0  0  0  0  0  0  0  0  0
   77.5179  149.6064   16.8653 C   0  0  0  0  0  0  0  0  0  0  0  0
   77.4065  150.4271   19.1341 C   0  0  0  0  0  0  0  0  0  0  0  0
   76.3673  150.3286   16.5466 C   0  0  0  0  0  0  0  0  0  0  0  0
   76.2556  151.1497   18.8132 C   0  0  0  0  0  0  0  0  0  0  0  0
   75.7369  151.1004   17.5205 C   0  0  0  0  0  0  0  0  0  0  0  0
  1  2  2  0
  2  3  1  0
  3  5  1  0
  4  2  1  0
  4  6  1  0
  4  7  1  0
  6  9  1  0
  6 10  1  0
  7 11  1  0
  8  5  1  0
  8 12  2  0
  8  9  5  0
  9 13  2  0
 10 11  1  0
 11 30  1  0
 12 26  1  0
 12 14  5  0
 13 15  5  0
 30 31  1  0
 26 27  1  0
 14 17  1  0
 14 15  2  0
 15 28  1  0
 31 32  2  0
 31 33  5  0
 17 18  1  0
 17 19  1  0
 28 29  1  0
 32 34  5  0
 33 35  2  0
 18 20  2  0
 18 21  1  0
 19 22  1  0
 34 36  2  0
 35 36  5  0
 21 23  1  0
 22 23  1  0
 23 24  2  0
  3 16  1  0
 21 25  1  0
M  END
> <ID>
EDEL-CRBN-0010

> <Stereoisomer>
original

> <MW>
464.21

> <HBD>
2

> <HBA>
6

> <RotBonds>
5

> <cLogP>
2.0

> <minimizedAffinity>
-5.58972

> <CNNscore>
0.2011106908

> <CNNaffinity>
4.2072062492

> <CNN_VS>
0.8461141586

> <CNNaffinity_variance>
1.1269963980

> <Compound_Name>
EDEL-CRBN-0010

> <Pose_Rank>
4
$$$$
EDEL-CRBN-0010


 36 40  0  0  0  0  0  0  0  0999 V2000
   81.3436  149.6051   12.5658 O   0  0  0  0  0  0  0  0  0  0  0  0
   80.3590  148.9390   12.8891 C   0  0  0  0  0  0  0  0  0  0  0  0
   80.5561  147.8114   13.6198 N   0  0  0  0  0  0  0  0  0  0  0  0
   78.9699  149.3190   12.4260 C   0  0  0  0  0  0  0  0  0  0  0  0
   79.5362  147.0171   14.2514 C   0  0  0  0  0  0  0  0  0  0  0  0
   77.7940  149.3129   13.4225 C   0  0  0  0  0  0  0  0  0  0  0  0
   78.5121  148.4501   11.2560 C   0  0  0  0  0  0  0  0  0  0  0  0
   78.7931  147.8277   15.2769 C   0  0  0  0  0  0  0  0  0  0  0  0
   77.9936  148.9173   14.8736 C   0  0  0  0  0  0  0  0  0  0  0  0
   76.7172  148.4520   12.7364 C   0  0  0  0  0  0  0  0  0  0  0  0
   77.0481  148.5499   11.3130 N   0  0  0  0  0  0  0  0  0  0  0  0
   78.8933  147.5204   16.6502 C   0  0  0  0  0  0  0  0  0  0  0  0
   77.2861  149.6404   15.8537 C   0  0  0  0  0  0  0  0  0  0  0  0
   78.1686  148.2354   17.6251 C   0  0  0  0  0  0  0  0  0  0  0  0
   77.3751  149.3140   17.2119 C   0  0  0  0  0  0  0  0  0  0  0  0
   81.4865  147.5083   13.7277 H   0  0  0  0  0  0  0  0  0  0  0  0
   78.2273  147.8313   18.9928 N   0  0  0  0  0  0  0  0  0  0  0  0
   79.0083  148.5151   19.9169 C   0  0  0  0  0  0  0  0  0  0  0  0
   77.1514  146.9792   19.4800 C   0  0  0  0  0  0  0  0  0  0  0  0
   79.9055  149.3114   19.6499 O   0  0  0  0  0  0  0  0  0  0  0  0
   78.7901  148.1624   21.2280 N   0  0  0  0  0  0  0  0  0  0  0  0
   77.6608  146.0927   20.5941 C   0  0  0  0  0  0  0  0  0  0  0  0
   78.3175  146.9470   21.6430 C   0  0  0  0  0  0  0  0  0  0  0  0
   78.5007  146.5483   22.7906 O   0  0  0  0  0  0  0  0  0  0  0  0
   78.9886  148.8344   21.9196 H   0  0  0  0  0  0  0  0  0  0  0  0
   79.7122  146.4776   17.0301 O   0  0  0  0  0  0  0  0  0  0  0  0
   81.0418  146.9583   17.2571 C   0  0  0  0  0  0  0  0  0  0  0  0
   76.5652  149.9391   18.1290 O   0  0  0  0  0  0  0  0  0  0  0  0
   77.0315  151.2454   18.4703 C   0  0  0  0  0  0  0  0  0  0  0  0
   76.3653  147.5264   10.5153 C   0  0  0  0  0  0  0  0  0  0  0  0
   75.8107  148.0625    9.2135 C   0  0  0  0  0  0  0  0  0  0  0  0
   75.9294  147.3180    8.0302 C   0  0  0  0  0  0  0  0  0  0  0  0
   75.1787  149.3132    9.1655 C   0  0  0  0  0  0  0  0  0  0  0  0
   75.4250  147.8120    6.8266 C   0  0  0  0  0  0  0  0  0  0  0  0
   74.6750  149.8062    7.9601 C   0  0  0  0  0  0  0  0  0  0  0  0
   74.7985  149.0562    6.7919 C   0  0  0  0  0  0  0  0  0  0  0  0
  1  2  2  0
  2  3  1  0
  3  5  1  0
  4  2  1  0
  4  6  1  0
  4  7  1  0
  6  9  1  0
  6 10  1  0
  7 11  1  0
  8  5  1  0
  8 12  2  0
  8  9  5  0
  9 13  2  0
 10 11  1  0
 11 30  1  0
 12 26  1  0
 12 14  5  0
 13 15  5  0
 30 31  1  0
 26 27  1  0
 14 17  1  0
 14 15  2  0
 15 28  1  0
 31 32  2  0
 31 33  5  0
 17 18  1  0
 17 19  1  0
 28 29  1  0
 32 34  5  0
 33 35  2  0
 18 20  2  0
 18 21  1  0
 19 22  1  0
 34 36  2  0
 35 36  5  0
 21 23  1  0
 22 23  1  0
 23 24  2  0
  3 16  1  0
 21 25  1  0
M  END
> <ID>
EDEL-CRBN-0010

> <Stereoisomer>
original

> <MW>
464.21

> <HBD>
2

> <HBA>
6

> <RotBonds>
5

> <cLogP>
2.0

> <minimizedAffinity>
-5.82003

> <CNNscore>
0.1953570098

> <CNNaffinity>
4.5655097961

> <CNN_VS>
0.8919043541

> <CNNaffinity_variance>
0.5923886299

> <Compound_Name>
EDEL-CRBN-0010

> <Pose_Rank>
5
$$$$
EDEL-CRBN-0011_ent


 35 39  0  0  0  0  0  0  0  0999 V2000
   86.1143  148.5629   15.5780 N   0  0  0  0  0  0  0  0  0  0  0  0
   85.1046  148.9017   16.5850 C   0  0  0  0  0  0  0  0  0  0  0  0
   85.6428  148.6020   14.1937 C   0  0  0  0  0  0  0  0  0  0  0  0
   84.0918  149.9240   16.0766 C   0  0  0  0  0  0  0  0  0  0  0  0
   84.1527  148.2801   14.1105 C   0  0  0  0  0  0  0  0  0  0  0  0
   83.3665  149.3816   14.8334 C   0  0  0  0  0  0  0  0  0  0  0  0
   82.0452  148.8707   15.2125 O   0  0  0  0  0  0  0  0  0  0  0  0
   82.6755  150.4243   13.8904 C   0  0  0  0  0  0  0  0  0  0  0  0
   81.4151  150.0688   14.6925 C   0  0  0  0  0  0  0  0  0  0  0  0
   83.2226  151.9137   13.7951 C   0  0  0  0  0  0  0  0  0  0  0  0
   84.4520  152.2620   13.2118 C   0  0  0  0  0  0  0  0  0  0  0  0
   82.4665  152.9885   14.2976 C   0  0  0  0  0  0  0  0  0  0  0  0
   84.8941  153.5939   13.1316 C   0  0  0  0  0  0  0  0  0  0  0  0
   82.9147  154.3179   14.2485 C   0  0  0  0  0  0  0  0  0  0  0  0
   84.1508  154.6495   13.6842 C   0  0  0  0  0  0  0  0  0  0  0  0
   84.6172  156.0072   13.7245 N   0  0  0  0  0  0  0  0  0  0  0  0
   84.6184  156.8202   12.5913 C   0  0  0  0  0  0  0  0  0  0  0  0
   85.2511  156.5151   14.9375 C   0  0  0  0  0  0  0  0  0  0  0  0
   84.2642  156.4948   11.4603 O   0  0  0  0  0  0  0  0  0  0  0  0
   85.0775  158.1003   12.7886 N   0  0  0  0  0  0  0  0  0  0  0  0
   84.8339  157.9473   15.2003 C   0  0  0  0  0  0  0  0  0  0  0  0
   85.1003  158.7723   13.9787 C   0  0  0  0  0  0  0  0  0  0  0  0
   85.2462  159.9905   14.0235 O   0  0  0  0  0  0  0  0  0  0  0  0
   85.4219  158.5778   11.9996 H   0  0  0  0  0  0  0  0  0  0  0  0
   86.0808  153.8022   12.4691 O   0  0  0  0  0  0  0  0  0  0  0  0
   86.6714  152.5432   12.1321 C   0  0  0  0  0  0  0  0  0  0  0  0
   87.4480  149.1314   15.8014 C   0  0  0  0  0  0  0  0  0  0  0  0
   91.2040  152.0448   13.5925 Cl  0  0  0  0  0  0  0  0  0  0  0  0
   89.9660  150.8508   13.4976 C   0  0  0  0  0  0  0  0  0  0  0  0
   89.2530  150.4751   14.6371 C   0  0  0  0  0  0  0  0  0  0  0  0
   89.6782  150.2616   12.2693 C   0  0  0  0  0  0  0  0  0  0  0  0
   89.5447  151.0430   15.8182 F   0  0  0  0  0  0  0  0  0  0  0  0
   88.2371  149.5134   14.5699 C   0  0  0  0  0  0  0  0  0  0  0  0
   88.6841  149.2876   12.1869 C   0  0  0  0  0  0  0  0  0  0  0  0
   87.9734  148.9114   13.3287 C   0  0  0  0  0  0  0  0  0  0  0  0
 29 28  1  0
 29 30  2  0
 29 31  5  0
 30 32  1  0
 30 33  5  0
 31 34  2  0
 33 35  2  0
 33 27  1  0
 34 35  5  0
 27  1  1  0
  1  2  1  0
  1  3  1  0
  2  4  1  0
  3  5  1  0
  6  5  1  0
  6  4  1  0
  6  7  1  0
  6  8  1  0
  7  9  1  0
  8 10  1  0
  8  9  1  0
 10 11  2  0
 10 12  5  0
 11 13  5  0
 12 14  2  0
 13 25  1  0
 13 15  2  0
 25 26  1  0
 15 14  5  0
 15 16  1  0
 16 17  1  0
 16 18  1  0
 17 19  2  0
 17 20  1  0
 18 21  1  0
 20 22  1  0
 21 22  1  0
 22 23  2  0
 20 24  1  0
M  END
> <ID>
EDEL-CRBN-0011_ent

> <Stereoisomer>
enantiomer

> <MW>
487.17

> <HBD>
1

> <HBA>
5

> <RotBonds>
5

> <cLogP>
4.08

> <minimizedAffinity>
-9.14456

> <CNNscore>
0.9052139521

> <CNNaffinity>
7.4775595665

> <CNN_VS>
6.7687911987

> <CNNaffinity_variance>
0.0992617086

> <Compound_Name>
EDEL-CRBN-0011_ent

> <Pose_Rank>
1
$$$$
EDEL-CRBN-0011_ent


 35 39  0  0  0  0  0  0  0  0999 V2000
   86.1329  148.6426   15.2427 N   0  0  0  0  0  0  0  0  0  0  0  0
   85.2464  148.9638   16.3649 C   0  0  0  0  0  0  0  0  0  0  0  0
   85.5137  148.7359   13.9206 C   0  0  0  0  0  0  0  0  0  0  0  0
   84.2046  150.0190   16.0035 C   0  0  0  0  0  0  0  0  0  0  0  0
   84.0173  148.4413   13.9917 C   0  0  0  0  0  0  0  0  0  0  0  0
   83.3370  149.5305   14.8311 C   0  0  0  0  0  0  0  0  0  0  0  0
   82.0552  149.0288   15.3369 O   0  0  0  0  0  0  0  0  0  0  0  0
   82.5678  150.6154   14.0033 C   0  0  0  0  0  0  0  0  0  0  0  0
   81.3959  150.2538   14.9275 C   0  0  0  0  0  0  0  0  0  0  0  0
   83.1307  152.0981   13.8955 C   0  0  0  0  0  0  0  0  0  0  0  0
   84.3558  152.4303   13.2940 C   0  0  0  0  0  0  0  0  0  0  0  0
   82.3942  153.1832   14.4050 C   0  0  0  0  0  0  0  0  0  0  0  0
   84.8120  153.7568   13.2032 C   0  0  0  0  0  0  0  0  0  0  0  0
   82.8570  154.5070   14.3454 C   0  0  0  0  0  0  0  0  0  0  0  0
   84.0889  154.8226   13.7628 C   0  0  0  0  0  0  0  0  0  0  0  0
   84.5714  156.1749   13.7922 N   0  0  0  0  0  0  0  0  0  0  0  0
   84.5952  156.9741   12.6494 C   0  0  0  0  0  0  0  0  0  0  0  0
   85.1980  156.6897   15.0061 C   0  0  0  0  0  0  0  0  0  0  0  0
   84.2495  156.6394   11.5184 O   0  0  0  0  0  0  0  0  0  0  0  0
   85.0677  158.2508   12.8366 N   0  0  0  0  0  0  0  0  0  0  0  0
   84.7955  158.1299   15.2471 C   0  0  0  0  0  0  0  0  0  0  0  0
   85.0856  158.9368   14.0188 C   0  0  0  0  0  0  0  0  0  0  0  0
   85.2460  160.1536   14.0507 O   0  0  0  0  0  0  0  0  0  0  0  0
   85.4268  158.7145   12.0459 H   0  0  0  0  0  0  0  0  0  0  0  0
   85.9917  153.9492   12.5235 O   0  0  0  0  0  0  0  0  0  0  0  0
   86.5745  152.6824   12.2026 C   0  0  0  0  0  0  0  0  0  0  0  0
   87.4941  149.1815   15.3359 C   0  0  0  0  0  0  0  0  0  0  0  0
   90.7435  150.4024   19.2634 Cl  0  0  0  0  0  0  0  0  0  0  0  0
   89.8372  149.2540   18.3539 C   0  0  0  0  0  0  0  0  0  0  0  0
   89.0521  149.6630   17.2749 C   0  0  0  0  0  0  0  0  0  0  0  0
   89.8954  147.9073   18.7029 C   0  0  0  0  0  0  0  0  0  0  0  0
   88.9959  150.9651   16.9526 F   0  0  0  0  0  0  0  0  0  0  0  0
   88.3195  148.7370   16.5217 C   0  0  0  0  0  0  0  0  0  0  0  0
   89.1569  146.9736   17.9773 C   0  0  0  0  0  0  0  0  0  0  0  0
   88.3701  147.3853   16.8994 C   0  0  0  0  0  0  0  0  0  0  0  0
 29 28  1  0
 29 30  2  0
 29 31  5  0
 30 32  1  0
 30 33  5  0
 31 34  2  0
 33 35  2  0
 33 27  1  0
 34 35  5  0
 27  1  1  0
  1  2  1  0
  1  3  1  0
  2  4  1  0
  3  5  1  0
  6  5  1  0
  6  4  1  0
  6  7  1  0
  6  8  1  0
  7  9  1  0
  8 10  1  0
  8  9  1  0
 10 11  2  0
 10 12  5  0
 11 13  5  0
 12 14  2  0
 13 25  1  0
 13 15  2  0
 25 26  1  0
 15 14  5  0
 15 16  1  0
 16 17  1  0
 16 18  1  0
 17 19  2  0
 17 20  1  0
 18 21  1  0
 20 22  1  0
 21 22  1  0
 22 23  2  0
 20 24  1  0
M  END
> <ID>
EDEL-CRBN-0011_ent

> <Stereoisomer>
enantiomer

> <MW>
487.17

> <HBD>
1

> <HBA>
5

> <RotBonds>
5

> <cLogP>
4.08

> <minimizedAffinity>
-9.27581

> <CNNscore>
0.8692632318

> <CNNaffinity>
7.1537299156

> <CNN_VS>
6.2184743881

> <CNNaffinity_variance>
0.1330679506

> <Compound_Name>
EDEL-CRBN-0011_ent

> <Pose_Rank>
2
$$$$
EDEL-CRBN-0011_ent


 35 39  0  0  0  0  0  0  0  0999 V2000
   86.1152  148.6316   15.2846 N   0  0  0  0  0  0  0  0  0  0  0  0
   85.1697  148.9498   16.3583 C   0  0  0  0  0  0  0  0  0  0  0  0
   85.5640  148.7143   13.9320 C   0  0  0  0  0  0  0  0  0  0  0  0
   84.1391  149.9947   15.9392 C   0  0  0  0  0  0  0  0  0  0  0  0
   84.0684  148.4073   13.9275 C   0  0  0  0  0  0  0  0  0  0  0  0
   83.3369  149.4942   14.7261 C   0  0  0  0  0  0  0  0  0  0  0  0
   82.0350  148.9836   15.1677 O   0  0  0  0  0  0  0  0  0  0  0  0
   82.6023  150.5691   13.8550 C   0  0  0  0  0  0  0  0  0  0  0  0
   81.3875  150.2013   14.7195 C   0  0  0  0  0  0  0  0  0  0  0  0
   83.1577  152.0560   13.7696 C   0  0  0  0  0  0  0  0  0  0  0  0
   84.3763  152.4048   13.1643 C   0  0  0  0  0  0  0  0  0  0  0  0
   82.4207  153.1284   14.3048 C   0  0  0  0  0  0  0  0  0  0  0  0
   84.8260  153.7346   13.0939 C   0  0  0  0  0  0  0  0  0  0  0  0
   82.8771  154.4552   14.2654 C   0  0  0  0  0  0  0  0  0  0  0  0
   84.1027  154.7868   13.6786 C   0  0  0  0  0  0  0  0  0  0  0  0
   84.5795  156.1406   13.7286 N   0  0  0  0  0  0  0  0  0  0  0  0
   84.5578  156.9716   12.6087 C   0  0  0  0  0  0  0  0  0  0  0  0
   85.2474  156.6248   14.9331 C   0  0  0  0  0  0  0  0  0  0  0  0
   84.1728  156.6668   11.4821 O   0  0  0  0  0  0  0  0  0  0  0  0
   85.0307  158.2454   12.8147 N   0  0  0  0  0  0  0  0  0  0  0  0
   84.8471  158.0553   15.2291 C   0  0  0  0  0  0  0  0  0  0  0  0
   85.0884  158.8980   14.0143 C   0  0  0  0  0  0  0  0  0  0  0  0
   85.2440  160.1143   14.0747 O   0  0  0  0  0  0  0  0  0  0  0  0
   85.3585  158.7331   12.0248 H   0  0  0  0  0  0  0  0  0  0  0  0
   85.9992  153.9448   12.4082 O   0  0  0  0  0  0  0  0  0  0  0  0
   86.6167  152.6879   12.1144 C   0  0  0  0  0  0  0  0  0  0  0  0
   87.4653  149.1823   15.4450 C   0  0  0  0  0  0  0  0  0  0  0  0
   91.0494  145.7105   13.8401 Cl  0  0  0  0  0  0  0  0  0  0  0  0
   90.1757  147.1817   13.6408 C   0  0  0  0  0  0  0  0  0  0  0  0
   89.2044  147.5619   14.5681 C   0  0  0  0  0  0  0  0  0  0  0  0
   90.4484  147.9945   12.5437 C   0  0  0  0  0  0  0  0  0  0  0  0
   88.9430  146.7663   15.6175 F   0  0  0  0  0  0  0  0  0  0  0  0
   88.4954  148.7609   14.4222 C   0  0  0  0  0  0  0  0  0  0  0  0
   89.7383  149.1818   12.3709 C   0  0  0  0  0  0  0  0  0  0  0  0
   88.7652  149.5593   13.2987 C   0  0  0  0  0  0  0  0  0  0  0  0
 29 28  1  0
 29 30  2  0
 29 31  5  0
 30 32  1  0
 30 33  5  0
 31 34  2  0
 33 35  2  0
 33 27  1  0
 34 35  5  0
 27  1  1  0
  1  2  1  0
  1  3  1  0
  2  4  1  0
  3  5  1  0
  6  5  1  0
  6  4  1  0
  6  7  1  0
  6  8  1  0
  7  9  1  0
  8 10  1  0
  8  9  1  0
 10 11  2  0
 10 12  5  0
 11 13  5  0
 12 14  2  0
 13 25  1  0
 13 15  2  0
 25 26  1  0
 15 14  5  0
 15 16  1  0
 16 17  1  0
 16 18  1  0
 17 19  2  0
 17 20  1  0
 18 21  1  0
 20 22  1  0
 21 22  1  0
 22 23  2  0
 20 24  1  0
M  END
> <ID>
EDEL-CRBN-0011_ent

> <Stereoisomer>
enantiomer

> <MW>
487.17

> <HBD>
1

> <HBA>
5

> <RotBonds>
5

> <cLogP>
4.08

> <minimizedAffinity>
-8.48623

> <CNNscore>
0.7206873298

> <CNNaffinity>
7.0453357697

> <CNN_VS>
5.0774841309

> <CNNaffinity_variance>
0.0515475981

> <Compound_Name>
EDEL-CRBN-0011_ent

> <Pose_Rank>
3
$$$$
EDEL-CRBN-0011_ent


 35 39  0  0  0  0  0  0  0  0999 V2000
   80.2509  149.5727   15.0326 N   0  0  0  0  0  0  0  0  0  0  0  0
   80.5740  149.2623   13.6371 C   0  0  0  0  0  0  0  0  0  0  0  0
   81.3829  149.5095   15.9571 C   0  0  0  0  0  0  0  0  0  0  0  0
   81.9885  149.6900   13.2554 C   0  0  0  0  0  0  0  0  0  0  0  0
   82.4247  148.4990   15.4831 C   0  0  0  0  0  0  0  0  0  0  0  0
   83.0184  148.9853   14.1545 C   0  0  0  0  0  0  0  0  0  0  0  0
   83.6088  147.8500   13.4383 O   0  0  0  0  0  0  0  0  0  0  0  0
   84.4399  149.6337   14.2668 C   0  0  0  0  0  0  0  0  0  0  0  0
   84.8083  148.6206   13.1730 C   0  0  0  0  0  0  0  0  0  0  0  0
   84.6315  151.1989   14.0660 C   0  0  0  0  0  0  0  0  0  0  0  0
   85.6501  151.7708   13.2860 C   0  0  0  0  0  0  0  0  0  0  0  0
   83.7502  152.1126   14.6725 C   0  0  0  0  0  0  0  0  0  0  0  0
   85.7768  153.1607   13.1190 C   0  0  0  0  0  0  0  0  0  0  0  0
   83.8883  153.5027   14.5354 C   0  0  0  0  0  0  0  0  0  0  0  0
   84.9198  154.0606   13.7731 C   0  0  0  0  0  0  0  0  0  0  0  0
   85.0833  155.4865   13.7209 N   0  0  0  0  0  0  0  0  0  0  0  0
   84.9811  156.1969   12.5250 C   0  0  0  0  0  0  0  0  0  0  0  0
   85.5190  156.2055   14.9144 C   0  0  0  0  0  0  0  0  0  0  0  0
   84.7743  155.7220   11.4104 O   0  0  0  0  0  0  0  0  0  0  0  0
   85.1444  157.5569   12.6353 N   0  0  0  0  0  0  0  0  0  0  0  0
   84.7913  157.5282   15.0381 C   0  0  0  0  0  0  0  0  0  0  0  0
   84.9506  158.3015   13.7650 C   0  0  0  0  0  0  0  0  0  0  0  0
   84.8310  159.5224   13.7146 O   0  0  0  0  0  0  0  0  0  0  0  0
   85.4271  158.0398   11.8253 H   0  0  0  0  0  0  0  0  0  0  0  0
   86.7719  153.5833   12.2694 O   0  0  0  0  0  0  0  0  0  0  0  0
   87.5014  152.4527   11.7827 C   0  0  0  0  0  0  0  0  0  0  0  0
   79.3394  150.7039   15.2357 C   0  0  0  0  0  0  0  0  0  0  0  0
   76.9506  150.4472   19.8943 Cl  0  0  0  0  0  0  0  0  0  0  0  0
   76.9376  150.2887   18.1791 C   0  0  0  0  0  0  0  0  0  0  0  0
   78.0832  150.5662   17.4317 C   0  0  0  0  0  0  0  0  0  0  0  0
   75.7710  149.8771   17.5401 C   0  0  0  0  0  0  0  0  0  0  0  0
   79.2001  150.9711   18.0571 F   0  0  0  0  0  0  0  0  0  0  0  0
   78.0876  150.4305   16.0378 C   0  0  0  0  0  0  0  0  0  0  0  0
   75.7505  149.7560   16.1514 C   0  0  0  0  0  0  0  0  0  0  0  0
   76.8972  150.0364   15.4052 C   0  0  0  0  0  0  0  0  0  0  0  0
 29 28  1  0
 29 30  2  0
 29 31  5  0
 30 32  1  0
 30 33  5  0
 31 34  2  0
 33 35  2  0
 33 27  1  0
 34 35  5  0
 27  1  1  0
  1  2  1  0
  1  3  1  0
  2  4  1  0
  3  5  1  0
  6  5  1  0
  6  4  1  0
  6  7  1  0
  6  8  1  0
  7  9  1  0
  8 10  1  0
  8  9  1  0
 10 11  2  0
 10 12  5  0
 11 13  5  0
 12 14  2  0
 13 25  1  0
 13 15  2  0
 25 26  1  0
 15 14  5  0
 15 16  1  0
 16 17  1  0
 16 18  1  0
 17 19  2  0
 17 20  1  0
 18 21  1  0
 20 22  1  0
 21 22  1  0
 22 23  2  0
 20 24  1  0
M  END
> <ID>
EDEL-CRBN-0011_ent

> <Stereoisomer>
enantiomer

> <MW>
487.17

> <HBD>
1

> <HBA>
5

> <RotBonds>
5

> <cLogP>
4.08

> <minimizedAffinity>
-8.65512

> <CNNscore>
0.5151275992

> <CNNaffinity>
6.7336897850

> <CNN_VS>
3.4687094688

> <CNNaffinity_variance>
0.1067303047

> <Compound_Name>
EDEL-CRBN-0011_ent

> <Pose_Rank>
4
$$$$
EDEL-CRBN-0011_ent


 35 39  0  0  0  0  0  0  0  0999 V2000
   88.0594  148.3714   15.3961 N   0  0  0  0  0  0  0  0  0  0  0  0
   86.8153  148.2911   16.1669 C   0  0  0  0  0  0  0  0  0  0  0  0
   87.8823  148.4991   13.9496 C   0  0  0  0  0  0  0  0  0  0  0  0
   85.6816  149.0918   15.5320 C   0  0  0  0  0  0  0  0  0  0  0  0
   86.5880  147.8307   13.4925 C   0  0  0  0  0  0  0  0  0  0  0  0
   85.3990  148.5786   14.1099 C   0  0  0  0  0  0  0  0  0  0  0  0
   84.2234  147.7021   14.1225 O   0  0  0  0  0  0  0  0  0  0  0  0
   84.6490  149.5447   13.1312 C   0  0  0  0  0  0  0  0  0  0  0  0
   83.4027  148.7685   13.5817 C   0  0  0  0  0  0  0  0  0  0  0  0
   84.7689  151.1205   13.3024 C   0  0  0  0  0  0  0  0  0  0  0  0
   83.6814  151.9641   13.5829 C   0  0  0  0  0  0  0  0  0  0  0  0
   86.0164  151.7609   13.1889 C   0  0  0  0  0  0  0  0  0  0  0  0
   83.8306  153.3525   13.7438 C   0  0  0  0  0  0  0  0  0  0  0  0
   86.1688  153.1503   13.3181 C   0  0  0  0  0  0  0  0  0  0  0  0
   85.0744  153.9823   13.5762 C   0  0  0  0  0  0  0  0  0  0  0  0
   85.2504  155.4070   13.6198 N   0  0  0  0  0  0  0  0  0  0  0  0
   85.5793  156.1443   12.4825 C   0  0  0  0  0  0  0  0  0  0  0  0
   85.2388  156.0949   14.9074 C   0  0  0  0  0  0  0  0  0  0  0  0
   85.7779  155.6961   11.3554 O   0  0  0  0  0  0  0  0  0  0  0  0
   85.6974  157.4996   12.6764 N   0  0  0  0  0  0  0  0  0  0  0  0
   84.5185  157.4230   14.7985 C   0  0  0  0  0  0  0  0  0  0  0  0
   85.1196  158.2217   13.6828 C   0  0  0  0  0  0  0  0  0  0  0  0
   85.0294  159.4447   13.6232 O   0  0  0  0  0  0  0  0  0  0  0  0
   86.2495  157.9966   12.0303 H   0  0  0  0  0  0  0  0  0  0  0  0
   82.6973  154.0501   14.0898 O   0  0  0  0  0  0  0  0  0  0  0  0
   81.8254  153.2063   14.8482 C   0  0  0  0  0  0  0  0  0  0  0  0
   89.1104  149.2154   15.9750 C   0  0  0  0  0  0  0  0  0  0  0  0
   93.1344  149.5379   19.3183 Cl  0  0  0  0  0  0  0  0  0  0  0  0
   92.0207  148.6190   18.3788 C   0  0  0  0  0  0  0  0  0  0  0  0
   91.0474  149.2561   17.6076 C   0  0  0  0  0  0  0  0  0  0  0  0
   92.1002  147.2290   18.3921 C   0  0  0  0  0  0  0  0  0  0  0  0
   90.9739  150.5966   17.6090 F   0  0  0  0  0  0  0  0  0  0  0  0
   90.1436  148.5197   16.8314 C   0  0  0  0  0  0  0  0  0  0  0  0
   91.1959  146.4787   17.6417 C   0  0  0  0  0  0  0  0  0  0  0  0
   90.2212  147.1181   16.8725 C   0  0  0  0  0  0  0  0  0  0  0  0
 29 28  1  0
 29 30  2  0
 29 31  5  0
 30 32  1  0
 30 33  5  0
 31 34  2  0
 33 35  2  0
 33 27  1  0
 34 35  5  0
 27  1  1  0
  1  2  1  0
  1  3  1  0
  2  4  1  0
  3  5  1  0
  6  5  1  0
  6  4  1  0
  6  7  1  0
  6  8  1  0
  7  9  1  0
  8 10  1  0
  8  9  1  0
 10 11  2  0
 10 12  5  0
 11 13  5  0
 12 14  2  0
 13 25  1  0
 13 15  2  0
 25 26  1  0
 15 14  5  0
 15 16  1  0
 16 17  1  0
 16 18  1  0
 17 19  2  0
 17 20  1  0
 18 21  1  0
 20 22  1  0
 21 22  1  0
 22 23  2  0
 20 24  1  0
M  END
> <ID>
EDEL-CRBN-0011_ent

> <Stereoisomer>
enantiomer

> <MW>
487.17

> <HBD>
1

> <HBA>
5

> <RotBonds>
5

> <cLogP>
4.08

> <minimizedAffinity>
-7.39802

> <CNNscore>
0.4352048934

> <CNNaffinity>
6.3127083778

> <CNN_VS>
2.7473216057

> <CNNaffinity_variance>
0.1995281726

> <Compound_Name>
EDEL-CRBN-0011_ent

> <Pose_Rank>
5
$$$$
EDEL-CRBN-0011


 35 39  0  0  0  0  0  0  0  0999 V2000
   88.3078  149.1461   16.4681 N   0  0  0  0  0  0  0  0  0  0  0  0
   88.7264  148.9684   15.0736 C   0  0  0  0  0  0  0  0  0  0  0  0
   86.8714  149.0053   16.7025 C   0  0  0  0  0  0  0  0  0  0  0  0
   87.7030  149.5963   14.1305 C   0  0  0  0  0  0  0  0  0  0  0  0
   86.1660  148.1886   15.6231 C   0  0  0  0  0  0  0  0  0  0  0  0
   86.3671  148.8453   14.2502 C   0  0  0  0  0  0  0  0  0  0  0  0
   86.2880  147.8108   13.2108 O   0  0  0  0  0  0  0  0  0  0  0  0
   85.0956  149.5290   13.6374 C   0  0  0  0  0  0  0  0  0  0  0  0
   85.4262  148.6608   12.4133 C   0  0  0  0  0  0  0  0  0  0  0  0
   85.0049  151.1114   13.5453 C   0  0  0  0  0  0  0  0  0  0  0  0
   83.8118  151.7798   13.8760 C   0  0  0  0  0  0  0  0  0  0  0  0
   86.0637  151.9345   13.1285 C   0  0  0  0  0  0  0  0  0  0  0  0
   83.6852  153.1763   13.8025 C   0  0  0  0  0  0  0  0  0  0  0  0
   85.9531  153.3338   13.0785 C   0  0  0  0  0  0  0  0  0  0  0  0
   84.7695  153.9887   13.4368 C   0  0  0  0  0  0  0  0  0  0  0  0
   84.7189  155.4233   13.4465 N   0  0  0  0  0  0  0  0  0  0  0  0
   85.0879  156.1775   12.3326 C   0  0  0  0  0  0  0  0  0  0  0  0
   84.1132  156.1157   14.5792 C   0  0  0  0  0  0  0  0  0  0  0  0
   85.4655  155.7384   11.2489 O   0  0  0  0  0  0  0  0  0  0  0  0
   84.9987  157.5398   12.4914 N   0  0  0  0  0  0  0  0  0  0  0  0
   84.8857  157.3754   14.9117 C   0  0  0  0  0  0  0  0  0  0  0  0
   85.0127  158.2169   13.6787 C   0  0  0  0  0  0  0  0  0  0  0  0
   85.2008  159.4295   13.7238 O   0  0  0  0  0  0  0  0  0  0  0  0
   84.9170  158.0793   11.6720 H   0  0  0  0  0  0  0  0  0  0  0  0
   82.4450  153.6973   14.0860 O   0  0  0  0  0  0  0  0  0  0  0  0
   81.8081  152.9052   15.0924 C   0  0  0  0  0  0  0  0  0  0  0  0
   89.1860  148.4968   17.4463 C   0  0  0  0  0  0  0  0  0  0  0  0
   94.2751  148.5053   18.6746 Cl  0  0  0  0  0  0  0  0  0  0  0  0
   92.7728  149.3195   18.4595 C   0  0  0  0  0  0  0  0  0  0  0  0
   91.6363  148.6193   18.0539 C   0  0  0  0  0  0  0  0  0  0  0  0
   92.7006  150.6920   18.6915 C   0  0  0  0  0  0  0  0  0  0  0  0
   91.7136  147.2983   17.8242 F   0  0  0  0  0  0  0  0  0  0  0  0
   90.4088  149.2720   17.8796 C   0  0  0  0  0  0  0  0  0  0  0  0
   91.4897  151.3606   18.5119 C   0  0  0  0  0  0  0  0  0  0  0  0
   90.3525  150.6565   18.1061 C   0  0  0  0  0  0  0  0  0  0  0  0
 29 28  1  0
 29 30  2  0
 29 31  5  0
 30 32  1  0
 30 33  5  0
 31 34  2  0
 33 35  2  0
 33 27  1  0
 34 35  5  0
 27  1  1  0
  1  2  1  0
  1  3  1  0
  2  4  1  0
  3  5  1  0
  6  5  1  0
  6  4  1  0
  6  7  1  0
  6  8  1  0
  7  9  1  0
  8 10  1  0
  8  9  1  0
 10 11  2  0
 10 12  5  0
 11 13  5  0
 12 14  2  0
 13 25  1  0
 13 15  2  0
 25 26  1  0
 15 14  5  0
 15 16  1  0
 16 17  1  0
 16 18  1  0
 17 19  2  0
 17 20  1  0
 18 21  1  0
 20 22  1  0
 21 22  1  0
 22 23  2  0
 20 24  1  0
M  END
> <ID>
EDEL-CRBN-0011

> <Stereoisomer>
original

> <MW>
487.17

> <HBD>
1

> <HBA>
5

> <RotBonds>
5

> <cLogP>
4.08

> <minimizedAffinity>
-7.93425

> <CNNscore>
0.5687072873

> <CNNaffinity>
6.7179055214

> <CNN_VS>
3.8205218315

> <CNNaffinity_variance>
0.0631243959

> <Compound_Name>
EDEL-CRBN-0011

> <Pose_Rank>
1
$$$$
EDEL-CRBN-0011


 35 39  0  0  0  0  0  0  0  0999 V2000
   89.5332  149.5718   16.3867 N   0  0  0  0  0  0  0  0  0  0  0  0
   89.9015  149.4198   14.9751 C   0  0  0  0  0  0  0  0  0  0  0  0
   88.1384  149.2605   16.6960 C   0  0  0  0  0  0  0  0  0  0  0  0
   88.7634  149.8993   14.0773 C   0  0  0  0  0  0  0  0  0  0  0  0
   87.4869  148.3430   15.6649 C   0  0  0  0  0  0  0  0  0  0  0  0
   87.5377  148.9928   14.2750 C   0  0  0  0  0  0  0  0  0  0  0  0
   87.5359  147.9366   13.2546 O   0  0  0  0  0  0  0  0  0  0  0  0
   86.1631  149.5037   13.7191 C   0  0  0  0  0  0  0  0  0  0  0  0
   86.5378  148.6592   12.4911 C   0  0  0  0  0  0  0  0  0  0  0  0
   85.8736  151.0610   13.6111 C   0  0  0  0  0  0  0  0  0  0  0  0
   84.8631  151.6561   14.3885 C   0  0  0  0  0  0  0  0  0  0  0  0
   86.5674  151.9298   12.7532 C   0  0  0  0  0  0  0  0  0  0  0  0
   84.5688  153.0274   14.3200 C   0  0  0  0  0  0  0  0  0  0  0  0
   86.2971  153.3071   12.6990 C   0  0  0  0  0  0  0  0  0  0  0  0
   85.3081  153.8918   13.4979 C   0  0  0  0  0  0  0  0  0  0  0  0
   85.1130  155.3138   13.4711 N   0  0  0  0  0  0  0  0  0  0  0  0
   85.4108  156.0734   12.3396 C   0  0  0  0  0  0  0  0  0  0  0  0
   84.4338  155.9695   14.5836 C   0  0  0  0  0  0  0  0  0  0  0  0
   85.8373  155.6478   11.2688 O   0  0  0  0  0  0  0  0  0  0  0  0
   85.1838  157.4232   12.4635 N   0  0  0  0  0  0  0  0  0  0  0  0
   85.0733  157.3086   14.8868 C   0  0  0  0  0  0  0  0  0  0  0  0
   85.1223  158.1276   13.6332 C   0  0  0  0  0  0  0  0  0  0  0  0
   85.1869  159.3538   13.6482 O   0  0  0  0  0  0  0  0  0  0  0  0
   85.0531  157.9312   11.6304 H   0  0  0  0  0  0  0  0  0  0  0  0
   83.5119  153.4684   15.0804 O   0  0  0  0  0  0  0  0  0  0  0  0
   82.3895  152.6016   14.8946 C   0  0  0  0  0  0  0  0  0  0  0  0
   90.5317  149.0539   17.3272 C   0  0  0  0  0  0  0  0  0  0  0  0
   88.3882  145.2366   20.1981 Cl  0  0  0  0  0  0  0  0  0  0  0  0
   89.0218  146.8300   20.0370 C   0  0  0  0  0  0  0  0  0  0  0  0
   89.5047  147.2823   18.8087 C   0  0  0  0  0  0  0  0  0  0  0  0
   89.0521  147.6685   21.1500 C   0  0  0  0  0  0  0  0  0  0  0  0
   89.4803  146.4672   17.7415 F   0  0  0  0  0  0  0  0  0  0  0  0
   90.0189  148.5780   18.6667 C   0  0  0  0  0  0  0  0  0  0  0  0
   89.5710  148.9577   21.0301 C   0  0  0  0  0  0  0  0  0  0  0  0
   90.0536  149.4084   19.7982 C   0  0  0  0  0  0  0  0  0  0  0  0
 29 28  1  0
 29 30  2  0
 29 31  5  0
 30 32  1  0
 30 33  5  0
 31 34  2  0
 33 35  2  0
 33 27  1  0
 34 35  5  0
 27  1  1  0
  1  2  1  0
  1  3  1  0
  2  4  1  0
  3  5  1  0
  6  5  1  0
  6  4  1  0
  6  7  1  0
  6  8  1  0
  7  9  1  0
  8 10  1  0
  8  9  1  0
 10 11  2  0
 10 12  5  0
 11 13  5  0
 12 14  2  0
 13 25  1  0
 13 15  2  0
 25 26  1  0
 15 14  5  0
 15 16  1  0
 16 17  1  0
 16 18  1  0
 17 19  2  0
 17 20  1  0
 18 21  1  0
 20 22  1  0
 21 22  1  0
 22 23  2  0
 20 24  1  0
M  END
> <ID>
EDEL-CRBN-0011

> <Stereoisomer>
original

> <MW>
487.17

> <HBD>
1

> <HBA>
5

> <RotBonds>
5

> <cLogP>
4.08

> <minimizedAffinity>
-7.65671

> <CNNscore>
0.5423253775

> <CNNaffinity>
6.5339798927

> <CNN_VS>
3.5435431004

> <CNNaffinity_variance>
0.2425200492

> <Compound_Name>
EDEL-CRBN-0011

> <Pose_Rank>
2
$$$$
EDEL-CRBN-0011


 35 39  0  0  0  0  0  0  0  0999 V2000
   90.5881  150.0570   15.1606 N   0  0  0  0  0  0  0  0  0  0  0  0
   90.5739  149.9053   13.7018 C   0  0  0  0  0  0  0  0  0  0  0  0
   89.3488  149.6681   15.8322 C   0  0  0  0  0  0  0  0  0  0  0  0
   89.2098  150.3021   13.1424 C   0  0  0  0  0  0  0  0  0  0  0  0
   88.5030  148.6974   15.0125 C   0  0  0  0  0  0  0  0  0  0  0  0
   88.1400  149.3273   13.6605 C   0  0  0  0  0  0  0  0  0  0  0  0
   87.9303  148.2572   12.6769 O   0  0  0  0  0  0  0  0  0  0  0  0
   86.6380  149.7467   13.4939 C   0  0  0  0  0  0  0  0  0  0  0  0
   86.7217  148.9069   12.2096 C   0  0  0  0  0  0  0  0  0  0  0  0
   86.2348  151.2821   13.4689 C   0  0  0  0  0  0  0  0  0  0  0  0
   85.5565  151.8611   14.5571 C   0  0  0  0  0  0  0  0  0  0  0  0
   86.5007  152.1452   12.3935 C   0  0  0  0  0  0  0  0  0  0  0  0
   85.1750  153.2124   14.5747 C   0  0  0  0  0  0  0  0  0  0  0  0
   86.1465  153.5042   12.4151 C   0  0  0  0  0  0  0  0  0  0  0  0
   85.4968  154.0748   13.5153 C   0  0  0  0  0  0  0  0  0  0  0  0
   85.2197  155.4833   13.5328 N   0  0  0  0  0  0  0  0  0  0  0  0
   85.4159  156.2831   12.4068 C   0  0  0  0  0  0  0  0  0  0  0  0
   84.5615  156.0742   14.6932 C   0  0  0  0  0  0  0  0  0  0  0  0
   85.8111  155.9061   11.3062 O   0  0  0  0  0  0  0  0  0  0  0  0
   85.1187  157.6144   12.5746 N   0  0  0  0  0  0  0  0  0  0  0  0
   85.1380  157.4416   14.9969 C   0  0  0  0  0  0  0  0  0  0  0  0
   85.0764  158.2887   13.7627 C   0  0  0  0  0  0  0  0  0  0  0  0
   85.0716  159.5160   13.8044 O   0  0  0  0  0  0  0  0  0  0  0  0
   84.9171  158.1316   11.7616 H   0  0  0  0  0  0  0  0  0  0  0  0
   84.4569  153.6347   15.6682 O   0  0  0  0  0  0  0  0  0  0  0  0
   84.1755  152.5204   16.5196 C   0  0  0  0  0  0  0  0  0  0  0  0
   91.8318  149.6143   15.7986 C   0  0  0  0  0  0  0  0  0  0  0  0
   96.2735  151.3224   17.9808 Cl  0  0  0  0  0  0  0  0  0  0  0  0
   95.0535  151.4164   16.7687 C   0  0  0  0  0  0  0  0  0  0  0  0
   93.9850  150.5193   16.7642 C   0  0  0  0  0  0  0  0  0  0  0  0
   95.1435  152.3990   15.7841 C   0  0  0  0  0  0  0  0  0  0  0  0
   93.9077  149.5696   17.7108 F   0  0  0  0  0  0  0  0  0  0  0  0
   92.9858  150.5899   15.7845 C   0  0  0  0  0  0  0  0  0  0  0  0
   94.1640  152.4771   14.7942 C   0  0  0  0  0  0  0  0  0  0  0  0
   93.0943  151.5774   14.7924 C   0  0  0  0  0  0  0  0  0  0  0  0
 29 28  1  0
 29 30  2  0
 29 31  5  0
 30 32  1  0
 30 33  5  0
 31 34  2  0
 33 35  2  0
 33 27  1  0
 34 35  5  0
 27  1  1  0
  1  2  1  0
  1  3  1  0
  2  4  1  0
  3  5  1  0
  6  5  1  0
  6  4  1  0
  6  7  1  0
  6  8  1  0
  7  9  1  0
  8 10  1  0
  8  9  1  0
 10 11  2  0
 10 12  5  0
 11 13  5  0
 12 14  2  0
 13 25  1  0
 13 15  2  0
 25 26  1  0
 15 14  5  0
 15 16  1  0
 16 17  1  0
 16 18  1  0
 17 19  2  0
 17 20  1  0
 18 21  1  0
 20 22  1  0
 21 22  1  0
 22 23  2  0
 20 24  1  0
M  END
> <ID>
EDEL-CRBN-0011

> <Stereoisomer>
original

> <MW>
487.17

> <HBD>
1

> <HBA>
5

> <RotBonds>
5

> <cLogP>
4.08

> <minimizedAffinity>
-8.09341

> <CNNscore>
0.4937874675

> <CNNaffinity>
6.4642105103

> <CNN_VS>
3.1919460297

> <CNNaffinity_variance>
0.2410356551

> <Compound_Name>
EDEL-CRBN-0011

> <Pose_Rank>
3
$$$$
EDEL-CRBN-0011


 35 39  0  0  0  0  0  0  0  0999 V2000
   80.2334  149.0210   16.5865 N   0  0  0  0  0  0  0  0  0  0  0  0
   81.4951  148.8452   17.3135 C   0  0  0  0  0  0  0  0  0  0  0  0
   80.3127  148.7755   15.1472 C   0  0  0  0  0  0  0  0  0  0  0  0
   82.6621  149.3719   16.4817 C   0  0  0  0  0  0  0  0  0  0  0  0
   81.4879  147.8837   14.7559 C   0  0  0  0  0  0  0  0  0  0  0  0
   82.8079  148.5235   15.2081 C   0  0  0  0  0  0  0  0  0  0  0  0
   83.7992  147.4635   15.4327 O   0  0  0  0  0  0  0  0  0  0  0  0
   83.7090  149.0942   14.0583 C   0  0  0  0  0  0  0  0  0  0  0  0
   84.7974  148.2272   14.7105 C   0  0  0  0  0  0  0  0  0  0  0  0
   83.8792  150.6625   13.8797 C   0  0  0  0  0  0  0  0  0  0  0  0
   84.5106  151.4312   14.8748 C   0  0  0  0  0  0  0  0  0  0  0  0
   83.4173  151.3793   12.7639 C   0  0  0  0  0  0  0  0  0  0  0  0
   84.6765  152.8209   14.7614 C   0  0  0  0  0  0  0  0  0  0  0  0
   83.6037  152.7651   12.6310 C   0  0  0  0  0  0  0  0  0  0  0  0
   84.2582  153.5142   13.6151 C   0  0  0  0  0  0  0  0  0  0  0  0
   84.4977  154.9146   13.4089 N   0  0  0  0  0  0  0  0  0  0  0  0
   85.5580  155.3693   12.6247 C   0  0  0  0  0  0  0  0  0  0  0  0
   83.5234  155.8906   13.8855 C   0  0  0  0  0  0  0  0  0  0  0  0
   86.3708  154.6707   12.0239 O   0  0  0  0  0  0  0  0  0  0  0  0
   85.6702  156.7355   12.5261 N   0  0  0  0  0  0  0  0  0  0  0  0
   84.2201  157.1175   14.4363 C   0  0  0  0  0  0  0  0  0  0  0  0
   85.1664  157.6526   13.4054 C   0  0  0  0  0  0  0  0  0  0  0  0
   85.5363  158.8235   13.3938 O   0  0  0  0  0  0  0  0  0  0  0  0
   86.1602  157.0870   11.7479 H   0  0  0  0  0  0  0  0  0  0  0  0
   85.2474  153.4619   15.8352 O   0  0  0  0  0  0  0  0  0  0  0  0
   85.5225  152.5149   16.8712 C   0  0  0  0  0  0  0  0  0  0  0  0
   79.0630  148.4625   17.2708 C   0  0  0  0  0  0  0  0  0  0  0  0
   79.5921  147.7702   22.4330 Cl  0  0  0  0  0  0  0  0  0  0  0  0
   79.5906  147.1640   20.8209 C   0  0  0  0  0  0  0  0  0  0  0  0
   79.3351  148.0117   19.7428 C   0  0  0  0  0  0  0  0  0  0  0  0
   79.8448  145.8115   20.5998 C   0  0  0  0  0  0  0  0  0  0  0  0
   79.0830  149.3125   19.9624 F   0  0  0  0  0  0  0  0  0  0  0  0
   79.3352  147.5288   18.4274 C   0  0  0  0  0  0  0  0  0  0  0  0
   79.8376  145.3107   19.2980 C   0  0  0  0  0  0  0  0  0  0  0  0
   79.5818  146.1624   18.2197 C   0  0  0  0  0  0  0  0  0  0  0  0
 29 28  1  0
 29 30  2  0
 29 31  5  0
 30 32  1  0
 30 33  5  0
 31 34  2  0
 33 35  2  0
 33 27  1  0
 34 35  5  0
 27  1  1  0
  1  2  1  0
  1  3  1  0
  2  4  1  0
  3  5  1  0
  6  5  1  0
  6  4  1  0
  6  7  1  0
  6  8  1  0
  7  9  1  0
  8 10  1  0
  8  9  1  0
 10 11  2  0
 10 12  5  0
 11 13  5  0
 12 14  2  0
 13 25  1  0
 13 15  2  0
 25 26  1  0
 15 14  5  0
 15 16  1  0
 16 17  1  0
 16 18  1  0
 17 19  2  0
 17 20  1  0
 18 21  1  0
 20 22  1  0
 21 22  1  0
 22 23  2  0
 20 24  1  0
M  END
> <ID>
EDEL-CRBN-0011

> <Stereoisomer>
original

> <MW>
487.17

> <HBD>
1

> <HBA>
5

> <RotBonds>
5

> <cLogP>
4.08

> <minimizedAffinity>
-6.57731

> <CNNscore>
0.2142226398

> <CNNaffinity>
5.8064446449

> <CNN_VS>
1.2438719273

> <CNNaffinity_variance>
0.4593483508

> <Compound_Name>
EDEL-CRBN-0011

> <Pose_Rank>
4
$$$$
EDEL-CRBN-0011


 35 39  0  0  0  0  0  0  0  0999 V2000
   84.1270  153.1786   15.4438 N   0  0  0  0  0  0  0  0  0  0  0  0
   83.0379  153.3451   14.4756 C   0  0  0  0  0  0  0  0  0  0  0  0
   84.6153  151.8083   15.5917 C   0  0  0  0  0  0  0  0  0  0  0  0
   82.0744  152.1635   14.5557 C   0  0  0  0  0  0  0  0  0  0  0  0
   84.3157  150.9319   14.3785 C   0  0  0  0  0  0  0  0  0  0  0  0
   82.8021  150.8786   14.1284 C   0  0  0  0  0  0  0  0  0  0  0  0
   82.5633  150.6282   12.7011 O   0  0  0  0  0  0  0  0  0  0  0  0
   82.1113  149.5109   14.4628 C   0  0  0  0  0  0  0  0  0  0  0  0
   81.5663  149.6289   13.0308 C   0  0  0  0  0  0  0  0  0  0  0  0
   81.1499  149.3873   15.7201 C   0  0  0  0  0  0  0  0  0  0  0  0
   81.5440  149.8898   16.9738 C   0  0  0  0  0  0  0  0  0  0  0  0
   79.8855  148.7771   15.6834 C   0  0  0  0  0  0  0  0  0  0  0  0
   80.7287  149.7962   18.1133 C   0  0  0  0  0  0  0  0  0  0  0  0
   79.0532  148.7039   16.8124 C   0  0  0  0  0  0  0  0  0  0  0  0
   79.4452  149.2324   18.0474 C   0  0  0  0  0  0  0  0  0  0  0  0
   78.5368  149.2072   19.1587 N   0  0  0  0  0  0  0  0  0  0  0  0
   77.7050  150.2885   19.4503 C   0  0  0  0  0  0  0  0  0  0  0  0
   78.3480  147.9693   19.9077 C   0  0  0  0  0  0  0  0  0  0  0  0
   77.6294  151.3396   18.8187 O   0  0  0  0  0  0  0  0  0  0  0  0
   76.8967  150.1261   20.5499 N   0  0  0  0  0  0  0  0  0  0  0  0
   78.2004  148.2564   21.3875 C   0  0  0  0  0  0  0  0  0  0  0  0
   77.1102  149.2641   21.5888 C   0  0  0  0  0  0  0  0  0  0  0  0
   76.4974  149.3706   22.6476 O   0  0  0  0  0  0  0  0  0  0  0  0
   76.0866  150.6840   20.5934 H   0  0  0  0  0  0  0  0  0  0  0  0
   81.2614  150.2644   19.2909 O   0  0  0  0  0  0  0  0  0  0  0  0
   82.6725  150.4458   19.1432 C   0  0  0  0  0  0  0  0  0  0  0  0
   85.1533  154.2238   15.3792 C   0  0  0  0  0  0  0  0  0  0  0  0
   85.0910  159.2462   13.9030 Cl  0  0  0  0  0  0  0  0  0  0  0  0
   84.9771  157.5657   13.5437 C   0  0  0  0  0  0  0  0  0  0  0  0
   85.1092  156.6122   14.5536 C   0  0  0  0  0  0  0  0  0  0  0  0
   84.7542  157.1623   12.2283 C   0  0  0  0  0  0  0  0  0  0  0  0
   85.3317  157.0065   15.8181 F   0  0  0  0  0  0  0  0  0  0  0  0
   85.0146  155.2429   14.2720 C   0  0  0  0  0  0  0  0  0  0  0  0
   84.6687  155.8030   11.9274 C   0  0  0  0  0  0  0  0  0  0  0  0
   84.8008  154.8499   12.9412 C   0  0  0  0  0  0  0  0  0  0  0  0
 29 28  1  0
 29 30  2  0
 29 31  5  0
 30 32  1  0
 30 33  5  0
 31 34  2  0
 33 35  2  0
 33 27  1  0
 34 35  5  0
 27  1  1  0
  1  2  1  0
  1  3  1  0
  2  4  1  0
  3  5  1  0
  6  5  1  0
  6  4  1  0
  6  7  1  0
  6  8  1  0
  7  9  1  0
  8 10  1  0
  8  9  1  0
 10 11  2  0
 10 12  5  0
 11 13  5  0
 12 14  2  0
 13 25  1  0
 13 15  2  0
 25 26  1  0
 15 14  5  0
 15 16  1  0
 16 17  1  0
 16 18  1  0
 17 19  2  0
 17 20  1  0
 18 21  1  0
 20 22  1  0
 21 22  1  0
 22 23  2  0
 20 24  1  0
M  END
> <ID>
EDEL-CRBN-0011

> <Stereoisomer>
original

> <MW>
487.17

> <HBD>
1

> <HBA>
5

> <RotBonds>
5

> <cLogP>
4.08

> <minimizedAffinity>
-9.21636

> <CNNscore>
0.2057074755

> <CNNaffinity>
5.9376564026

> <CNN_VS>
1.2214202881

> <CNNaffinity_variance>
1.7537416220

> <Compound_Name>
EDEL-CRBN-0011

> <Pose_Rank>
5
$$$$
EDEL-CRBN-0012_ent


 35 39  0  0  0  0  0  0  0  0999 V2000
   86.1143  148.5629   15.5780 N   0  0  0  0  0  0  0  0  0  0  0  0
   85.1046  148.9017   16.5850 C   0  0  0  0  0  0  0  0  0  0  0  0
   85.6428  148.6020   14.1937 C   0  0  0  0  0  0  0  0  0  0  0  0
   84.0918  149.9240   16.0766 C   0  0  0  0  0  0  0  0  0  0  0  0
   84.1527  148.2801   14.1105 C   0  0  0  0  0  0  0  0  0  0  0  0
   83.3665  149.3816   14.8334 C   0  0  0  0  0  0  0  0  0  0  0  0
   82.0452  148.8707   15.2125 O   0  0  0  0  0  0  0  0  0  0  0  0
   82.6755  150.4243   13.8904 C   0  0  0  0  0  0  0  0  0  0  0  0
   81.4151  150.0688   14.6925 C   0  0  0  0  0  0  0  0  0  0  0  0
   83.2226  151.9137   13.7951 C   0  0  0  0  0  0  0  0  0  0  0  0
   84.4520  152.2620   13.2118 C   0  0  0  0  0  0  0  0  0  0  0  0
   82.4665  152.9885   14.2976 C   0  0  0  0  0  0  0  0  0  0  0  0
   84.8941  153.5939   13.1316 C   0  0  0  0  0  0  0  0  0  0  0  0
   82.9147  154.3179   14.2485 C   0  0  0  0  0  0  0  0  0  0  0  0
   84.1508  154.6495   13.6842 C   0  0  0  0  0  0  0  0  0  0  0  0
   84.6172  156.0072   13.7245 N   0  0  0  0  0  0  0  0  0  0  0  0
   84.6184  156.8202   12.5913 C   0  0  0  0  0  0  0  0  0  0  0  0
   85.2511  156.5151   14.9375 C   0  0  0  0  0  0  0  0  0  0  0  0
   84.2642  156.4948   11.4603 O   0  0  0  0  0  0  0  0  0  0  0  0
   85.0775  158.1003   12.7886 N   0  0  0  0  0  0  0  0  0  0  0  0
   84.8339  157.9473   15.2003 C   0  0  0  0  0  0  0  0  0  0  0  0
   85.1003  158.7723   13.9787 C   0  0  0  0  0  0  0  0  0  0  0  0
   85.2462  159.9905   14.0235 O   0  0  0  0  0  0  0  0  0  0  0  0
   85.4219  158.5778   11.9996 H   0  0  0  0  0  0  0  0  0  0  0  0
   86.0808  153.8022   12.4691 O   0  0  0  0  0  0  0  0  0  0  0  0
   86.6714  152.5432   12.1321 C   0  0  0  0  0  0  0  0  0  0  0  0
   87.4480  149.1314   15.8014 C   0  0  0  0  0  0  0  0  0  0  0  0
   91.2040  152.0448   13.5925 Cl  0  0  0  0  0  0  0  0  0  0  0  0
   89.9660  150.8508   13.4976 C   0  0  0  0  0  0  0  0  0  0  0  0
   89.2530  150.4751   14.6371 C   0  0  0  0  0  0  0  0  0  0  0  0
   89.6782  150.2616   12.2693 C   0  0  0  0  0  0  0  0  0  0  0  0
   89.5447  151.0430   15.8182 F   0  0  0  0  0  0  0  0  0  0  0  0
   88.2371  149.5134   14.5699 C   0  0  0  0  0  0  0  0  0  0  0  0
   88.6841  149.2876   12.1869 C   0  0  0  0  0  0  0  0  0  0  0  0
   87.9734  148.9114   13.3287 C   0  0  0  0  0  0  0  0  0  0  0  0
 29 28  1  0
 29 30  2  0
 29 31  5  0
 30 32  1  0
 30 33  5  0
 31 34  2  0
 33 35  2  0
 33 27  1  0
 34 35  5  0
 27  1  1  0
  1  2  1  0
  1  3  1  0
  2  4  1  0
  3  5  1  0
  6  5  1  0
  6  4  1  0
  6  7  1  0
  6  8  1  0
  7  9  1  0
  8 10  1  0
  8  9  1  0
 10 11  2  0
 10 12  5  0
 11 13  5  0
 12 14  2  0
 13 25  1  0
 13 15  2  0
 25 26  1  0
 15 14  5  0
 15 16  1  0
 16 17  1  0
 16 18  1  0
 17 19  2  0
 17 20  1  0
 18 21  1  0
 20 22  1  0
 21 22  1  0
 22 23  2  0
 20 24  1  0
M  END
> <ID>
EDEL-CRBN-0012_ent

> <Stereoisomer>
enantiomer

> <MW>
487.17

> <HBD>
1

> <HBA>
5

> <RotBonds>
5

> <cLogP>
4.08

> <minimizedAffinity>
-9.14456

> <CNNscore>
0.9052139521

> <CNNaffinity>
7.4775595665

> <CNN_VS>
6.7687911987

> <CNNaffinity_variance>
0.0992617086

> <Compound_Name>
EDEL-CRBN-0012_ent

> <Pose_Rank>
1
$$$$
EDEL-CRBN-0012_ent


 35 39  0  0  0  0  0  0  0  0999 V2000
   86.1329  148.6426   15.2427 N   0  0  0  0  0  0  0  0  0  0  0  0
   85.2464  148.9638   16.3649 C   0  0  0  0  0  0  0  0  0  0  0  0
   85.5137  148.7359   13.9206 C   0  0  0  0  0  0  0  0  0  0  0  0
   84.2046  150.0190   16.0035 C   0  0  0  0  0  0  0  0  0  0  0  0
   84.0173  148.4413   13.9917 C   0  0  0  0  0  0  0  0  0  0  0  0
   83.3370  149.5305   14.8311 C   0  0  0  0  0  0  0  0  0  0  0  0
   82.0552  149.0288   15.3369 O   0  0  0  0  0  0  0  0  0  0  0  0
   82.5678  150.6154   14.0033 C   0  0  0  0  0  0  0  0  0  0  0  0
   81.3959  150.2538   14.9275 C   0  0  0  0  0  0  0  0  0  0  0  0
   83.1307  152.0981   13.8955 C   0  0  0  0  0  0  0  0  0  0  0  0
   84.3558  152.4303   13.2940 C   0  0  0  0  0  0  0  0  0  0  0  0
   82.3942  153.1832   14.4050 C   0  0  0  0  0  0  0  0  0  0  0  0
   84.8120  153.7568   13.2032 C   0  0  0  0  0  0  0  0  0  0  0  0
   82.8570  154.5070   14.3454 C   0  0  0  0  0  0  0  0  0  0  0  0
   84.0889  154.8226   13.7628 C   0  0  0  0  0  0  0  0  0  0  0  0
   84.5714  156.1749   13.7922 N   0  0  0  0  0  0  0  0  0  0  0  0
   84.5952  156.9741   12.6494 C   0  0  0  0  0  0  0  0  0  0  0  0
   85.1980  156.6897   15.0061 C   0  0  0  0  0  0  0  0  0  0  0  0
   84.2495  156.6394   11.5184 O   0  0  0  0  0  0  0  0  0  0  0  0
   85.0677  158.2508   12.8366 N   0  0  0  0  0  0  0  0  0  0  0  0
   84.7955  158.1299   15.2471 C   0  0  0  0  0  0  0  0  0  0  0  0
   85.0856  158.9368   14.0188 C   0  0  0  0  0  0  0  0  0  0  0  0
   85.2460  160.1536   14.0507 O   0  0  0  0  0  0  0  0  0  0  0  0
   85.4268  158.7145   12.0459 H   0  0  0  0  0  0  0  0  0  0  0  0
   85.9917  153.9492   12.5235 O   0  0  0  0  0  0  0  0  0  0  0  0
   86.5745  152.6824   12.2026 C   0  0  0  0  0  0  0  0  0  0  0  0
   87.4941  149.1815   15.3359 C   0  0  0  0  0  0  0  0  0  0  0  0
   90.7435  150.4024   19.2634 Cl  0  0  0  0  0  0  0  0  0  0  0  0
   89.8372  149.2540   18.3539 C   0  0  0  0  0  0  0  0  0  0  0  0
   89.0521  149.6630   17.2749 C   0  0  0  0  0  0  0  0  0  0  0  0
   89.8954  147.9073   18.7029 C   0  0  0  0  0  0  0  0  0  0  0  0
   88.9959  150.9651   16.9526 F   0  0  0  0  0  0  0  0  0  0  0  0
   88.3195  148.7370   16.5217 C   0  0  0  0  0  0  0  0  0  0  0  0
   89.1569  146.9736   17.9773 C   0  0  0  0  0  0  0  0  0  0  0  0
   88.3701  147.3853   16.8994 C   0  0  0  0  0  0  0  0  0  0  0  0
 29 28  1  0
 29 30  2  0
 29 31  5  0
 30 32  1  0
 30 33  5  0
 31 34  2  0
 33 35  2  0
 33 27  1  0
 34 35  5  0
 27  1  1  0
  1  2  1  0
  1  3  1  0
  2  4  1  0
  3  5  1  0
  6  5  1  0
  6  4  1  0
  6  7  1  0
  6  8  1  0
  7  9  1  0
  8 10  1  0
  8  9  1  0
 10 11  2  0
 10 12  5  0
 11 13  5  0
 12 14  2  0
 13 25  1  0
 13 15  2  0
 25 26  1  0
 15 14  5  0
 15 16  1  0
 16 17  1  0
 16 18  1  0
 17 19  2  0
 17 20  1  0
 18 21  1  0
 20 22  1  0
 21 22  1  0
 22 23  2  0
 20 24  1  0
M  END
> <ID>
EDEL-CRBN-0012_ent

> <Stereoisomer>
enantiomer

> <MW>
487.17

> <HBD>
1

> <HBA>
5

> <RotBonds>
5

> <cLogP>
4.08

> <minimizedAffinity>
-9.27581

> <CNNscore>
0.8692632318

> <CNNaffinity>
7.1537299156

> <CNN_VS>
6.2184743881

> <CNNaffinity_variance>
0.1330679506

> <Compound_Name>
EDEL-CRBN-0012_ent

> <Pose_Rank>
2
$$$$
EDEL-CRBN-0012_ent


 35 39  0  0  0  0  0  0  0  0999 V2000
   86.1152  148.6316   15.2846 N   0  0  0  0  0  0  0  0  0  0  0  0
   85.1697  148.9498   16.3583 C   0  0  0  0  0  0  0  0  0  0  0  0
   85.5640  148.7143   13.9320 C   0  0  0  0  0  0  0  0  0  0  0  0
   84.1391  149.9947   15.9392 C   0  0  0  0  0  0  0  0  0  0  0  0
   84.0684  148.4073   13.9275 C   0  0  0  0  0  0  0  0  0  0  0  0
   83.3369  149.4942   14.7261 C   0  0  0  0  0  0  0  0  0  0  0  0
   82.0350  148.9836   15.1677 O   0  0  0  0  0  0  0  0  0  0  0  0
   82.6023  150.5691   13.8550 C   0  0  0  0  0  0  0  0  0  0  0  0
   81.3875  150.2013   14.7195 C   0  0  0  0  0  0  0  0  0  0  0  0
   83.1577  152.0560   13.7696 C   0  0  0  0  0  0  0  0  0  0  0  0
   84.3763  152.4048   13.1643 C   0  0  0  0  0  0  0  0  0  0  0  0
   82.4207  153.1284   14.3048 C   0  0  0  0  0  0  0  0  0  0  0  0
   84.8260  153.7346   13.0939 C   0  0  0  0  0  0  0  0  0  0  0  0
   82.8771  154.4552   14.2654 C   0  0  0  0  0  0  0  0  0  0  0  0
   84.1027  154.7868   13.6786 C   0  0  0  0  0  0  0  0  0  0  0  0
   84.5795  156.1406   13.7286 N   0  0  0  0  0  0  0  0  0  0  0  0
   84.5578  156.9716   12.6087 C   0  0  0  0  0  0  0  0  0  0  0  0
   85.2474  156.6248   14.9331 C   0  0  0  0  0  0  0  0  0  0  0  0
   84.1728  156.6668   11.4821 O   0  0  0  0  0  0  0  0  0  0  0  0
   85.0307  158.2454   12.8147 N   0  0  0  0  0  0  0  0  0  0  0  0
   84.8471  158.0553   15.2291 C   0  0  0  0  0  0  0  0  0  0  0  0
   85.0884  158.8980   14.0143 C   0  0  0  0  0  0  0  0  0  0  0  0
   85.2440  160.1143   14.0747 O   0  0  0  0  0  0  0  0  0  0  0  0
   85.3585  158.7331   12.0248 H   0  0  0  0  0  0  0  0  0  0  0  0
   85.9992  153.9448   12.4082 O   0  0  0  0  0  0  0  0  0  0  0  0
   86.6167  152.6879   12.1144 C   0  0  0  0  0  0  0  0  0  0  0  0
   87.4653  149.1823   15.4450 C   0  0  0  0  0  0  0  0  0  0  0  0
   91.0494  145.7105   13.8401 Cl  0  0  0  0  0  0  0  0  0  0  0  0
   90.1757  147.1817   13.6408 C   0  0  0  0  0  0  0  0  0  0  0  0
   89.2044  147.5619   14.5681 C   0  0  0  0  0  0  0  0  0  0  0  0
   90.4484  147.9945   12.5437 C   0  0  0  0  0  0  0  0  0  0  0  0
   88.9430  146.7663   15.6175 F   0  0  0  0  0  0  0  0  0  0  0  0
   88.4954  148.7609   14.4222 C   0  0  0  0  0  0  0  0  0  0  0  0
   89.7383  149.1818   12.3709 C   0  0  0  0  0  0  0  0  0  0  0  0
   88.7652  149.5593   13.2987 C   0  0  0  0  0  0  0  0  0  0  0  0
 29 28  1  0
 29 30  2  0
 29 31  5  0
 30 32  1  0
 30 33  5  0
 31 34  2  0
 33 35  2  0
 33 27  1  0
 34 35  5  0
 27  1  1  0
  1  2  1  0
  1  3  1  0
  2  4  1  0
  3  5  1  0
  6  5  1  0
  6  4  1  0
  6  7  1  0
  6  8  1  0
  7  9  1  0
  8 10  1  0
  8  9  1  0
 10 11  2  0
 10 12  5  0
 11 13  5  0
 12 14  2  0
 13 25  1  0
 13 15  2  0
 25 26  1  0
 15 14  5  0
 15 16  1  0
 16 17  1  0
 16 18  1  0
 17 19  2  0
 17 20  1  0
 18 21  1  0
 20 22  1  0
 21 22  1  0
 22 23  2  0
 20 24  1  0
M  END
> <ID>
EDEL-CRBN-0012_ent

> <Stereoisomer>
enantiomer

> <MW>
487.17

> <HBD>
1

> <HBA>
5

> <RotBonds>
5

> <cLogP>
4.08

> <minimizedAffinity>
-8.48623

> <CNNscore>
0.7206873298

> <CNNaffinity>
7.0453357697

> <CNN_VS>
5.0774841309

> <CNNaffinity_variance>
0.0515475981

> <Compound_Name>
EDEL-CRBN-0012_ent

> <Pose_Rank>
3
$$$$
EDEL-CRBN-0012_ent


 35 39  0  0  0  0  0  0  0  0999 V2000
   80.2509  149.5727   15.0326 N   0  0  0  0  0  0  0  0  0  0  0  0
   80.5740  149.2623   13.6371 C   0  0  0  0  0  0  0  0  0  0  0  0
   81.3829  149.5095   15.9571 C   0  0  0  0  0  0  0  0  0  0  0  0
   81.9885  149.6900   13.2554 C   0  0  0  0  0  0  0  0  0  0  0  0
   82.4247  148.4990   15.4831 C   0  0  0  0  0  0  0  0  0  0  0  0
   83.0184  148.9853   14.1545 C   0  0  0  0  0  0  0  0  0  0  0  0
   83.6088  147.8500   13.4383 O   0  0  0  0  0  0  0  0  0  0  0  0
   84.4399  149.6337   14.2668 C   0  0  0  0  0  0  0  0  0  0  0  0
   84.8083  148.6206   13.1730 C   0  0  0  0  0  0  0  0  0  0  0  0
   84.6315  151.1989   14.0660 C   0  0  0  0  0  0  0  0  0  0  0  0
   85.6501  151.7708   13.2860 C   0  0  0  0  0  0  0  0  0  0  0  0
   83.7502  152.1126   14.6725 C   0  0  0  0  0  0  0  0  0  0  0  0
   85.7768  153.1607   13.1190 C   0  0  0  0  0  0  0  0  0  0  0  0
   83.8883  153.5027   14.5354 C   0  0  0  0  0  0  0  0  0  0  0  0
   84.9198  154.0606   13.7731 C   0  0  0  0  0  0  0  0  0  0  0  0
   85.0833  155.4865   13.7209 N   0  0  0  0  0  0  0  0  0  0  0  0
   84.9811  156.1969   12.5250 C   0  0  0  0  0  0  0  0  0  0  0  0
   85.5190  156.2055   14.9144 C   0  0  0  0  0  0  0  0  0  0  0  0
   84.7743  155.7220   11.4104 O   0  0  0  0  0  0  0  0  0  0  0  0
   85.1444  157.5569   12.6353 N   0  0  0  0  0  0  0  0  0  0  0  0
   84.7913  157.5282   15.0381 C   0  0  0  0  0  0  0  0  0  0  0  0
   84.9506  158.3015   13.7650 C   0  0  0  0  0  0  0  0  0  0  0  0
   84.8310  159.5224   13.7146 O   0  0  0  0  0  0  0  0  0  0  0  0
   85.4271  158.0398   11.8253 H   0  0  0  0  0  0  0  0  0  0  0  0
   86.7719  153.5833   12.2694 O   0  0  0  0  0  0  0  0  0  0  0  0
   87.5014  152.4527   11.7827 C   0  0  0  0  0  0  0  0  0  0  0  0
   79.3394  150.7039   15.2357 C   0  0  0  0  0  0  0  0  0  0  0  0
   76.9506  150.4472   19.8943 Cl  0  0  0  0  0  0  0  0  0  0  0  0
   76.9376  150.2887   18.1791 C   0  0  0  0  0  0  0  0  0  0  0  0
   78.0832  150.5662   17.4317 C   0  0  0  0  0  0  0  0  0  0  0  0
   75.7710  149.8771   17.5401 C   0  0  0  0  0  0  0  0  0  0  0  0
   79.2001  150.9711   18.0571 F   0  0  0  0  0  0  0  0  0  0  0  0
   78.0876  150.4305   16.0378 C   0  0  0  0  0  0  0  0  0  0  0  0
   75.7505  149.7560   16.1514 C   0  0  0  0  0  0  0  0  0  0  0  0
   76.8972  150.0364   15.4052 C   0  0  0  0  0  0  0  0  0  0  0  0
 29 28  1  0
 29 30  2  0
 29 31  5  0
 30 32  1  0
 30 33  5  0
 31 34  2  0
 33 35  2  0
 33 27  1  0
 34 35  5  0
 27  1  1  0
  1  2  1  0
  1  3  1  0
  2  4  1  0
  3  5  1  0
  6  5  1  0
  6  4  1  0
  6  7  1  0
  6  8  1  0
  7  9  1  0
  8 10  1  0
  8  9  1  0
 10 11  2  0
 10 12  5  0
 11 13  5  0
 12 14  2  0
 13 25  1  0
 13 15  2  0
 25 26  1  0
 15 14  5  0
 15 16  1  0
 16 17  1  0
 16 18  1  0
 17 19  2  0
 17 20  1  0
 18 21  1  0
 20 22  1  0
 21 22  1  0
 22 23  2  0
 20 24  1  0
M  END
> <ID>
EDEL-CRBN-0012_ent

> <Stereoisomer>
enantiomer

> <MW>
487.17

> <HBD>
1

> <HBA>
5

> <RotBonds>
5

> <cLogP>
4.08

> <minimizedAffinity>
-8.65512

> <CNNscore>
0.5151275992

> <CNNaffinity>
6.7336897850

> <CNN_VS>
3.4687094688

> <CNNaffinity_variance>
0.1067303047

> <Compound_Name>
EDEL-CRBN-0012_ent

> <Pose_Rank>
4
$$$$
EDEL-CRBN-0012_ent


 35 39  0  0  0  0  0  0  0  0999 V2000
   88.0594  148.3714   15.3961 N   0  0  0  0  0  0  0  0  0  0  0  0
   86.8153  148.2911   16.1669 C   0  0  0  0  0  0  0  0  0  0  0  0
   87.8823  148.4991   13.9496 C   0  0  0  0  0  0  0  0  0  0  0  0
   85.6816  149.0918   15.5320 C   0  0  0  0  0  0  0  0  0  0  0  0
   86.5880  147.8307   13.4925 C   0  0  0  0  0  0  0  0  0  0  0  0
   85.3990  148.5786   14.1099 C   0  0  0  0  0  0  0  0  0  0  0  0
   84.2234  147.7021   14.1225 O   0  0  0  0  0  0  0  0  0  0  0  0
   84.6490  149.5447   13.1312 C   0  0  0  0  0  0  0  0  0  0  0  0
   83.4027  148.7685   13.5817 C   0  0  0  0  0  0  0  0  0  0  0  0
   84.7689  151.1205   13.3024 C   0  0  0  0  0  0  0  0  0  0  0  0
   83.6814  151.9641   13.5829 C   0  0  0  0  0  0  0  0  0  0  0  0
   86.0164  151.7609   13.1889 C   0  0  0  0  0  0  0  0  0  0  0  0
   83.8306  153.3525   13.7438 C   0  0  0  0  0  0  0  0  0  0  0  0
   86.1688  153.1503   13.3181 C   0  0  0  0  0  0  0  0  0  0  0  0
   85.0744  153.9823   13.5762 C   0  0  0  0  0  0  0  0  0  0  0  0
   85.2504  155.4070   13.6198 N   0  0  0  0  0  0  0  0  0  0  0  0
   85.5793  156.1443   12.4825 C   0  0  0  0  0  0  0  0  0  0  0  0
   85.2388  156.0949   14.9074 C   0  0  0  0  0  0  0  0  0  0  0  0
   85.7779  155.6961   11.3554 O   0  0  0  0  0  0  0  0  0  0  0  0
   85.6974  157.4996   12.6764 N   0  0  0  0  0  0  0  0  0  0  0  0
   84.5185  157.4230   14.7985 C   0  0  0  0  0  0  0  0  0  0  0  0
   85.1196  158.2217   13.6828 C   0  0  0  0  0  0  0  0  0  0  0  0
   85.0294  159.4447   13.6232 O   0  0  0  0  0  0  0  0  0  0  0  0
   86.2495  157.9966   12.0303 H   0  0  0  0  0  0  0  0  0  0  0  0
   82.6973  154.0501   14.0898 O   0  0  0  0  0  0  0  0  0  0  0  0
   81.8254  153.2063   14.8482 C   0  0  0  0  0  0  0  0  0  0  0  0
   89.1104  149.2154   15.9750 C   0  0  0  0  0  0  0  0  0  0  0  0
   93.1344  149.5379   19.3183 Cl  0  0  0  0  0  0  0  0  0  0  0  0
   92.0207  148.6190   18.3788 C   0  0  0  0  0  0  0  0  0  0  0  0
   91.0474  149.2561   17.6076 C   0  0  0  0  0  0  0  0  0  0  0  0
   92.1002  147.2290   18.3921 C   0  0  0  0  0  0  0  0  0  0  0  0
   90.9739  150.5966   17.6090 F   0  0  0  0  0  0  0  0  0  0  0  0
   90.1436  148.5197   16.8314 C   0  0  0  0  0  0  0  0  0  0  0  0
   91.1959  146.4787   17.6417 C   0  0  0  0  0  0  0  0  0  0  0  0
   90.2212  147.1181   16.8725 C   0  0  0  0  0  0  0  0  0  0  0  0
 29 28  1  0
 29 30  2  0
 29 31  5  0
 30 32  1  0
 30 33  5  0
 31 34  2  0
 33 35  2  0
 33 27  1  0
 34 35  5  0
 27  1  1  0
  1  2  1  0
  1  3  1  0
  2  4  1  0
  3  5  1  0
  6  5  1  0
  6  4  1  0
  6  7  1  0
  6  8  1  0
  7  9  1  0
  8 10  1  0
  8  9  1  0
 10 11  2  0
 10 12  5  0
 11 13  5  0
 12 14  2  0
 13 25  1  0
 13 15  2  0
 25 26  1  0
 15 14  5  0
 15 16  1  0
 16 17  1  0
 16 18  1  0
 17 19  2  0
 17 20  1  0
 18 21  1  0
 20 22  1  0
 21 22  1  0
 22 23  2  0
 20 24  1  0
M  END
> <ID>
EDEL-CRBN-0012_ent

> <Stereoisomer>
enantiomer

> <MW>
487.17

> <HBD>
1

> <HBA>
5

> <RotBonds>
5

> <cLogP>
4.08

> <minimizedAffinity>
-7.39802

> <CNNscore>
0.4352048934

> <CNNaffinity>
6.3127083778

> <CNN_VS>
2.7473216057

> <CNNaffinity_variance>
0.1995281726

> <Compound_Name>
EDEL-CRBN-0012_ent

> <Pose_Rank>
5
$$$$
EDEL-CRBN-0012


 35 39  0  0  0  0  0  0  0  0999 V2000
   88.3078  149.1461   16.4681 N   0  0  0  0  0  0  0  0  0  0  0  0
   88.7264  148.9684   15.0736 C   0  0  0  0  0  0  0  0  0  0  0  0
   86.8714  149.0053   16.7025 C   0  0  0  0  0  0  0  0  0  0  0  0
   87.7030  149.5963   14.1305 C   0  0  0  0  0  0  0  0  0  0  0  0
   86.1660  148.1886   15.6231 C   0  0  0  0  0  0  0  0  0  0  0  0
   86.3671  148.8453   14.2502 C   0  0  0  0  0  0  0  0  0  0  0  0
   86.2880  147.8108   13.2108 O   0  0  0  0  0  0  0  0  0  0  0  0
   85.0956  149.5290   13.6374 C   0  0  0  0  0  0  0  0  0  0  0  0
   85.4262  148.6608   12.4133 C   0  0  0  0  0  0  0  0  0  0  0  0
   85.0049  151.1114   13.5453 C   0  0  0  0  0  0  0  0  0  0  0  0
   83.8118  151.7798   13.8760 C   0  0  0  0  0  0  0  0  0  0  0  0
   86.0637  151.9345   13.1285 C   0  0  0  0  0  0  0  0  0  0  0  0
   83.6852  153.1763   13.8025 C   0  0  0  0  0  0  0  0  0  0  0  0
   85.9531  153.3338   13.0785 C   0  0  0  0  0  0  0  0  0  0  0  0
   84.7695  153.9887   13.4368 C   0  0  0  0  0  0  0  0  0  0  0  0
   84.7189  155.4233   13.4465 N   0  0  0  0  0  0  0  0  0  0  0  0
   85.0879  156.1775   12.3326 C   0  0  0  0  0  0  0  0  0  0  0  0
   84.1132  156.1157   14.5792 C   0  0  0  0  0  0  0  0  0  0  0  0
   85.4655  155.7384   11.2489 O   0  0  0  0  0  0  0  0  0  0  0  0
   84.9987  157.5398   12.4914 N   0  0  0  0  0  0  0  0  0  0  0  0
   84.8857  157.3754   14.9117 C   0  0  0  0  0  0  0  0  0  0  0  0
   85.0127  158.2169   13.6787 C   0  0  0  0  0  0  0  0  0  0  0  0
   85.2008  159.4295   13.7238 O   0  0  0  0  0  0  0  0  0  0  0  0
   84.9170  158.0793   11.6720 H   0  0  0  0  0  0  0  0  0  0  0  0
   82.4450  153.6973   14.0860 O   0  0  0  0  0  0  0  0  0  0  0  0
   81.8081  152.9052   15.0924 C   0  0  0  0  0  0  0  0  0  0  0  0
   89.1860  148.4968   17.4463 C   0  0  0  0  0  0  0  0  0  0  0  0
   94.2751  148.5053   18.6746 Cl  0  0  0  0  0  0  0  0  0  0  0  0
   92.7728  149.3195   18.4595 C   0  0  0  0  0  0  0  0  0  0  0  0
   91.6363  148.6193   18.0539 C   0  0  0  0  0  0  0  0  0  0  0  0
   92.7006  150.6920   18.6915 C   0  0  0  0  0  0  0  0  0  0  0  0
   91.7136  147.2983   17.8242 F   0  0  0  0  0  0  0  0  0  0  0  0
   90.4088  149.2720   17.8796 C   0  0  0  0  0  0  0  0  0  0  0  0
   91.4897  151.3606   18.5119 C   0  0  0  0  0  0  0  0  0  0  0  0
   90.3525  150.6565   18.1061 C   0  0  0  0  0  0  0  0  0  0  0  0
 29 28  1  0
 29 30  2  0
 29 31  5  0
 30 32  1  0
 30 33  5  0
 31 34  2  0
 33 35  2  0
 33 27  1  0
 34 35  5  0
 27  1  1  0
  1  2  1  0
  1  3  1  0
  2  4  1  0
  3  5  1  0
  6  5  1  0
  6  4  1  0
  6  7  1  0
  6  8  1  0
  7  9  1  0
  8 10  1  0
  8  9  1  0
 10 11  2  0
 10 12  5  0
 11 13  5  0
 12 14  2  0
 13 25  1  0
 13 15  2  0
 25 26  1  0
 15 14  5  0
 15 16  1  0
 16 17  1  0
 16 18  1  0
 17 19  2  0
 17 20  1  0
 18 21  1  0
 20 22  1  0
 21 22  1  0
 22 23  2  0
 20 24  1  0
M  END
> <ID>
EDEL-CRBN-0012

> <Stereoisomer>
original

> <MW>
487.17

> <HBD>
1

> <HBA>
5

> <RotBonds>
5

> <cLogP>
4.08

> <minimizedAffinity>
-7.93425

> <CNNscore>
0.5687072873

> <CNNaffinity>
6.7179055214

> <CNN_VS>
3.8205218315

> <CNNaffinity_variance>
0.0631243959

> <Compound_Name>
EDEL-CRBN-0012

> <Pose_Rank>
1
$$$$
EDEL-CRBN-0012


 35 39  0  0  0  0  0  0  0  0999 V2000
   89.5332  149.5718   16.3867 N   0  0  0  0  0  0  0  0  0  0  0  0
   89.9015  149.4198   14.9751 C   0  0  0  0  0  0  0  0  0  0  0  0
   88.1384  149.2605   16.6960 C   0  0  0  0  0  0  0  0  0  0  0  0
   88.7634  149.8993   14.0773 C   0  0  0  0  0  0  0  0  0  0  0  0
   87.4869  148.3430   15.6649 C   0  0  0  0  0  0  0  0  0  0  0  0
   87.5377  148.9928   14.2750 C   0  0  0  0  0  0  0  0  0  0  0  0
   87.5359  147.9366   13.2546 O   0  0  0  0  0  0  0  0  0  0  0  0
   86.1631  149.5037   13.7191 C   0  0  0  0  0  0  0  0  0  0  0  0
   86.5378  148.6592   12.4911 C   0  0  0  0  0  0  0  0  0  0  0  0
   85.8736  151.0610   13.6111 C   0  0  0  0  0  0  0  0  0  0  0  0
   84.8631  151.6561   14.3885 C   0  0  0  0  0  0  0  0  0  0  0  0
   86.5674  151.9298   12.7532 C   0  0  0  0  0  0  0  0  0  0  0  0
   84.5688  153.0274   14.3200 C   0  0  0  0  0  0  0  0  0  0  0  0
   86.2971  153.3071   12.6990 C   0  0  0  0  0  0  0  0  0  0  0  0
   85.3081  153.8918   13.4979 C   0  0  0  0  0  0  0  0  0  0  0  0
   85.1130  155.3138   13.4711 N   0  0  0  0  0  0  0  0  0  0  0  0
   85.4108  156.0734   12.3396 C   0  0  0  0  0  0  0  0  0  0  0  0
   84.4338  155.9695   14.5836 C   0  0  0  0  0  0  0  0  0  0  0  0
   85.8373  155.6478   11.2688 O   0  0  0  0  0  0  0  0  0  0  0  0
   85.1838  157.4232   12.4635 N   0  0  0  0  0  0  0  0  0  0  0  0
   85.0733  157.3086   14.8868 C   0  0  0  0  0  0  0  0  0  0  0  0
   85.1223  158.1276   13.6332 C   0  0  0  0  0  0  0  0  0  0  0  0
   85.1869  159.3538   13.6482 O   0  0  0  0  0  0  0  0  0  0  0  0
   85.0531  157.9312   11.6304 H   0  0  0  0  0  0  0  0  0  0  0  0
   83.5119  153.4684   15.0804 O   0  0  0  0  0  0  0  0  0  0  0  0
   82.3895  152.6016   14.8946 C   0  0  0  0  0  0  0  0  0  0  0  0
   90.5317  149.0539   17.3272 C   0  0  0  0  0  0  0  0  0  0  0  0
   88.3882  145.2366   20.1981 Cl  0  0  0  0  0  0  0  0  0  0  0  0
   89.0218  146.8300   20.0370 C   0  0  0  0  0  0  0  0  0  0  0  0
   89.5047  147.2823   18.8087 C   0  0  0  0  0  0  0  0  0  0  0  0
   89.0521  147.6685   21.1500 C   0  0  0  0  0  0  0  0  0  0  0  0
   89.4803  146.4672   17.7415 F   0  0  0  0  0  0  0  0  0  0  0  0
   90.0189  148.5780   18.6667 C   0  0  0  0  0  0  0  0  0  0  0  0
   89.5710  148.9577   21.0301 C   0  0  0  0  0  0  0  0  0  0  0  0
   90.0536  149.4084   19.7982 C   0  0  0  0  0  0  0  0  0  0  0  0
 29 28  1  0
 29 30  2  0
 29 31  5  0
 30 32  1  0
 30 33  5  0
 31 34  2  0
 33 35  2  0
 33 27  1  0
 34 35  5  0
 27  1  1  0
  1  2  1  0
  1  3  1  0
  2  4  1  0
  3  5  1  0
  6  5  1  0
  6  4  1  0
  6  7  1  0
  6  8  1  0
  7  9  1  0
  8 10  1  0
  8  9  1  0
 10 11  2  0
 10 12  5  0
 11 13  5  0
 12 14  2  0
 13 25  1  0
 13 15  2  0
 25 26  1  0
 15 14  5  0
 15 16  1  0
 16 17  1  0
 16 18  1  0
 17 19  2  0
 17 20  1  0
 18 21  1  0
 20 22  1  0
 21 22  1  0
 22 23  2  0
 20 24  1  0
M  END
> <ID>
EDEL-CRBN-0012

> <Stereoisomer>
original

> <MW>
487.17

> <HBD>
1

> <HBA>
5

> <RotBonds>
5

> <cLogP>
4.08

> <minimizedAffinity>
-7.65671

> <CNNscore>
0.5423253775

> <CNNaffinity>
6.5339798927

> <CNN_VS>
3.5435431004

> <CNNaffinity_variance>
0.2425200492

> <Compound_Name>
EDEL-CRBN-0012

> <Pose_Rank>
2
$$$$
EDEL-CRBN-0012


 35 39  0  0  0  0  0  0  0  0999 V2000
   90.5881  150.0570   15.1606 N   0  0  0  0  0  0  0  0  0  0  0  0
   90.5739  149.9053   13.7018 C   0  0  0  0  0  0  0  0  0  0  0  0
   89.3488  149.6681   15.8322 C   0  0  0  0  0  0  0  0  0  0  0  0
   89.2098  150.3021   13.1424 C   0  0  0  0  0  0  0  0  0  0  0  0
   88.5030  148.6974   15.0125 C   0  0  0  0  0  0  0  0  0  0  0  0
   88.1400  149.3273   13.6605 C   0  0  0  0  0  0  0  0  0  0  0  0
   87.9303  148.2572   12.6769 O   0  0  0  0  0  0  0  0  0  0  0  0
   86.6380  149.7467   13.4939 C   0  0  0  0  0  0  0  0  0  0  0  0
   86.7217  148.9069   12.2096 C   0  0  0  0  0  0  0  0  0  0  0  0
   86.2348  151.2821   13.4689 C   0  0  0  0  0  0  0  0  0  0  0  0
   85.5565  151.8611   14.5571 C   0  0  0  0  0  0  0  0  0  0  0  0
   86.5007  152.1452   12.3935 C   0  0  0  0  0  0  0  0  0  0  0  0
   85.1750  153.2124   14.5747 C   0  0  0  0  0  0  0  0  0  0  0  0
   86.1465  153.5042   12.4151 C   0  0  0  0  0  0  0  0  0  0  0  0
   85.4968  154.0748   13.5153 C   0  0  0  0  0  0  0  0  0  0  0  0
   85.2197  155.4833   13.5328 N   0  0  0  0  0  0  0  0  0  0  0  0
   85.4159  156.2831   12.4068 C   0  0  0  0  0  0  0  0  0  0  0  0
   84.5615  156.0742   14.6932 C   0  0  0  0  0  0  0  0  0  0  0  0
   85.8111  155.9061   11.3062 O   0  0  0  0  0  0  0  0  0  0  0  0
   85.1187  157.6144   12.5746 N   0  0  0  0  0  0  0  0  0  0  0  0
   85.1380  157.4416   14.9969 C   0  0  0  0  0  0  0  0  0  0  0  0
   85.0764  158.2887   13.7627 C   0  0  0  0  0  0  0  0  0  0  0  0
   85.0716  159.5160   13.8044 O   0  0  0  0  0  0  0  0  0  0  0  0
   84.9171  158.1316   11.7616 H   0  0  0  0  0  0  0  0  0  0  0  0
   84.4569  153.6347   15.6682 O   0  0  0  0  0  0  0  0  0  0  0  0
   84.1755  152.5204   16.5196 C   0  0  0  0  0  0  0  0  0  0  0  0
   91.8318  149.6143   15.7986 C   0  0  0  0  0  0  0  0  0  0  0  0
   96.2735  151.3224   17.9808 Cl  0  0  0  0  0  0  0  0  0  0  0  0
   95.0535  151.4164   16.7687 C   0  0  0  0  0  0  0  0  0  0  0  0
   93.9850  150.5193   16.7642 C   0  0  0  0  0  0  0  0  0  0  0  0
   95.1435  152.3990   15.7841 C   0  0  0  0  0  0  0  0  0  0  0  0
   93.9077  149.5696   17.7108 F   0  0  0  0  0  0  0  0  0  0  0  0
   92.9858  150.5899   15.7845 C   0  0  0  0  0  0  0  0  0  0  0  0
   94.1640  152.4771   14.7942 C   0  0  0  0  0  0  0  0  0  0  0  0
   93.0943  151.5774   14.7924 C   0  0  0  0  0  0  0  0  0  0  0  0
 29 28  1  0
 29 30  2  0
 29 31  5  0
 30 32  1  0
 30 33  5  0
 31 34  2  0
 33 35  2  0
 33 27  1  0
 34 35  5  0
 27  1  1  0
  1  2  1  0
  1  3  1  0
  2  4  1  0
  3  5  1  0
  6  5  1  0
  6  4  1  0
  6  7  1  0
  6  8  1  0
  7  9  1  0
  8 10  1  0
  8  9  1  0
 10 11  2  0
 10 12  5  0
 11 13  5  0
 12 14  2  0
 13 25  1  0
 13 15  2  0
 25 26  1  0
 15 14  5  0
 15 16  1  0
 16 17  1  0
 16 18  1  0
 17 19  2  0
 17 20  1  0
 18 21  1  0
 20 22  1  0
 21 22  1  0
 22 23  2  0
 20 24  1  0
M  END
> <ID>
EDEL-CRBN-0012

> <Stereoisomer>
original

> <MW>
487.17

> <HBD>
1

> <HBA>
5

> <RotBonds>
5

> <cLogP>
4.08

> <minimizedAffinity>
-8.09341

> <CNNscore>
0.4937874675

> <CNNaffinity>
6.4642105103

> <CNN_VS>
3.1919460297

> <CNNaffinity_variance>
0.2410356551

> <Compound_Name>
EDEL-CRBN-0012

> <Pose_Rank>
3
$$$$
EDEL-CRBN-0012


 35 39  0  0  0  0  0  0  0  0999 V2000
   80.2334  149.0210   16.5865 N   0  0  0  0  0  0  0  0  0  0  0  0
   81.4951  148.8452   17.3135 C   0  0  0  0  0  0  0  0  0  0  0  0
   80.3127  148.7755   15.1472 C   0  0  0  0  0  0  0  0  0  0  0  0
   82.6621  149.3719   16.4817 C   0  0  0  0  0  0  0  0  0  0  0  0
   81.4879  147.8837   14.7559 C   0  0  0  0  0  0  0  0  0  0  0  0
   82.8079  148.5235   15.2081 C   0  0  0  0  0  0  0  0  0  0  0  0
   83.7992  147.4635   15.4327 O   0  0  0  0  0  0  0  0  0  0  0  0
   83.7090  149.0942   14.0583 C   0  0  0  0  0  0  0  0  0  0  0  0
   84.7974  148.2272   14.7105 C   0  0  0  0  0  0  0  0  0  0  0  0
   83.8792  150.6625   13.8797 C   0  0  0  0  0  0  0  0  0  0  0  0
   84.5106  151.4312   14.8748 C   0  0  0  0  0  0  0  0  0  0  0  0
   83.4173  151.3793   12.7639 C   0  0  0  0  0  0  0  0  0  0  0  0
   84.6765  152.8209   14.7614 C   0  0  0  0  0  0  0  0  0  0  0  0
   83.6037  152.7651   12.6310 C   0  0  0  0  0  0  0  0  0  0  0  0
   84.2582  153.5142   13.6151 C   0  0  0  0  0  0  0  0  0  0  0  0
   84.4977  154.9146   13.4089 N   0  0  0  0  0  0  0  0  0  0  0  0
   85.5580  155.3693   12.6247 C   0  0  0  0  0  0  0  0  0  0  0  0
   83.5234  155.8906   13.8855 C   0  0  0  0  0  0  0  0  0  0  0  0
   86.3708  154.6707   12.0239 O   0  0  0  0  0  0  0  0  0  0  0  0
   85.6702  156.7355   12.5261 N   0  0  0  0  0  0  0  0  0  0  0  0
   84.2201  157.1175   14.4363 C   0  0  0  0  0  0  0  0  0  0  0  0
   85.1664  157.6526   13.4054 C   0  0  0  0  0  0  0  0  0  0  0  0
   85.5363  158.8235   13.3938 O   0  0  0  0  0  0  0  0  0  0  0  0
   86.1602  157.0870   11.7479 H   0  0  0  0  0  0  0  0  0  0  0  0
   85.2474  153.4619   15.8352 O   0  0  0  0  0  0  0  0  0  0  0  0
   85.5225  152.5149   16.8712 C   0  0  0  0  0  0  0  0  0  0  0  0
   79.0630  148.4625   17.2708 C   0  0  0  0  0  0  0  0  0  0  0  0
   79.5921  147.7702   22.4330 Cl  0  0  0  0  0  0  0  0  0  0  0  0
   79.5906  147.1640   20.8209 C   0  0  0  0  0  0  0  0  0  0  0  0
   79.3351  148.0117   19.7428 C   0  0  0  0  0  0  0  0  0  0  0  0
   79.8448  145.8115   20.5998 C   0  0  0  0  0  0  0  0  0  0  0  0
   79.0830  149.3125   19.9624 F   0  0  0  0  0  0  0  0  0  0  0  0
   79.3352  147.5288   18.4274 C   0  0  0  0  0  0  0  0  0  0  0  0
   79.8376  145.3107   19.2980 C   0  0  0  0  0  0  0  0  0  0  0  0
   79.5818  146.1624   18.2197 C   0  0  0  0  0  0  0  0  0  0  0  0
 29 28  1  0
 29 30  2  0
 29 31  5  0
 30 32  1  0
 30 33  5  0
 31 34  2  0
 33 35  2  0
 33 27  1  0
 34 35  5  0
 27  1  1  0
  1  2  1  0
  1  3  1  0
  2  4  1  0
  3  5  1  0
  6  5  1  0
  6  4  1  0
  6  7  1  0
  6  8  1  0
  7  9  1  0
  8 10  1  0
  8  9  1  0
 10 11  2  0
 10 12  5  0
 11 13  5  0
 12 14  2  0
 13 25  1  0
 13 15  2  0
 25 26  1  0
 15 14  5  0
 15 16  1  0
 16 17  1  0
 16 18  1  0
 17 19  2  0
 17 20  1  0
 18 21  1  0
 20 22  1  0
 21 22  1  0
 22 23  2  0
 20 24  1  0
M  END
> <ID>
EDEL-CRBN-0012

> <Stereoisomer>
original

> <MW>
487.17

> <HBD>
1

> <HBA>
5

> <RotBonds>
5

> <cLogP>
4.08

> <minimizedAffinity>
-6.57731

> <CNNscore>
0.2142226398

> <CNNaffinity>
5.8064446449

> <CNN_VS>
1.2438719273

> <CNNaffinity_variance>
0.4593483508

> <Compound_Name>
EDEL-CRBN-0012

> <Pose_Rank>
4
$$$$
EDEL-CRBN-0012


 35 39  0  0  0  0  0  0  0  0999 V2000
   84.1270  153.1786   15.4438 N   0  0  0  0  0  0  0  0  0  0  0  0
   83.0379  153.3451   14.4756 C   0  0  0  0  0  0  0  0  0  0  0  0
   84.6153  151.8083   15.5917 C   0  0  0  0  0  0  0  0  0  0  0  0
   82.0744  152.1635   14.5557 C   0  0  0  0  0  0  0  0  0  0  0  0
   84.3157  150.9319   14.3785 C   0  0  0  0  0  0  0  0  0  0  0  0
   82.8021  150.8786   14.1284 C   0  0  0  0  0  0  0  0  0  0  0  0
   82.5633  150.6282   12.7011 O   0  0  0  0  0  0  0  0  0  0  0  0
   82.1113  149.5109   14.4628 C   0  0  0  0  0  0  0  0  0  0  0  0
   81.5663  149.6289   13.0308 C   0  0  0  0  0  0  0  0  0  0  0  0
   81.1499  149.3873   15.7201 C   0  0  0  0  0  0  0  0  0  0  0  0
   81.5440  149.8898   16.9738 C   0  0  0  0  0  0  0  0  0  0  0  0
   79.8855  148.7771   15.6834 C   0  0  0  0  0  0  0  0  0  0  0  0
   80.7287  149.7962   18.1133 C   0  0  0  0  0  0  0  0  0  0  0  0
   79.0532  148.7039   16.8124 C   0  0  0  0  0  0  0  0  0  0  0  0
   79.4452  149.2324   18.0474 C   0  0  0  0  0  0  0  0  0  0  0  0
   78.5368  149.2072   19.1587 N   0  0  0  0  0  0  0  0  0  0  0  0
   77.7050  150.2885   19.4503 C   0  0  0  0  0  0  0  0  0  0  0  0
   78.3480  147.9693   19.9077 C   0  0  0  0  0  0  0  0  0  0  0  0
   77.6294  151.3396   18.8187 O   0  0  0  0  0  0  0  0  0  0  0  0
   76.8967  150.1261   20.5499 N   0  0  0  0  0  0  0  0  0  0  0  0
   78.2004  148.2564   21.3875 C   0  0  0  0  0  0  0  0  0  0  0  0
   77.1102  149.2641   21.5888 C   0  0  0  0  0  0  0  0  0  0  0  0
   76.4974  149.3706   22.6476 O   0  0  0  0  0  0  0  0  0  0  0  0
   76.0866  150.6840   20.5934 H   0  0  0  0  0  0  0  0  0  0  0  0
   81.2614  150.2644   19.2909 O   0  0  0  0  0  0  0  0  0  0  0  0
   82.6725  150.4458   19.1432 C   0  0  0  0  0  0  0  0  0  0  0  0
   85.1533  154.2238   15.3792 C   0  0  0  0  0  0  0  0  0  0  0  0
   85.0910  159.2462   13.9030 Cl  0  0  0  0  0  0  0  0  0  0  0  0
   84.9771  157.5657   13.5437 C   0  0  0  0  0  0  0  0  0  0  0  0
   85.1092  156.6122   14.5536 C   0  0  0  0  0  0  0  0  0  0  0  0
   84.7542  157.1623   12.2283 C   0  0  0  0  0  0  0  0  0  0  0  0
   85.3317  157.0065   15.8181 F   0  0  0  0  0  0  0  0  0  0  0  0
   85.0146  155.2429   14.2720 C   0  0  0  0  0  0  0  0  0  0  0  0
   84.6687  155.8030   11.9274 C   0  0  0  0  0  0  0  0  0  0  0  0
   84.8008  154.8499   12.9412 C   0  0  0  0  0  0  0  0  0  0  0  0
 29 28  1  0
 29 30  2  0
 29 31  5  0
 30 32  1  0
 30 33  5  0
 31 34  2  0
 33 35  2  0
 33 27  1  0
 34 35  5  0
 27  1  1  0
  1  2  1  0
  1  3  1  0
  2  4  1  0
  3  5  1  0
  6  5  1  0
  6  4  1  0
  6  7  1  0
  6  8  1  0
  7  9  1  0
  8 10  1  0
  8  9  1  0
 10 11  2  0
 10 12  5  0
 11 13  5  0
 12 14  2  0
 13 25  1  0
 13 15  2  0
 25 26  1  0
 15 14  5  0
 15 16  1  0
 16 17  1  0
 16 18  1  0
 17 19  2  0
 17 20  1  0
 18 21  1  0
 20 22  1  0
 21 22  1  0
 22 23  2  0
 20 24  1  0
M  END
> <ID>
EDEL-CRBN-0012

> <Stereoisomer>
original

> <MW>
487.17

> <HBD>
1

> <HBA>
5

> <RotBonds>
5

> <cLogP>
4.08

> <minimizedAffinity>
-9.21636

> <CNNscore>
0.2057074755

> <CNNaffinity>
5.9376564026

> <CNN_VS>
1.2214202881

> <CNNaffinity_variance>
1.7537416220

> <Compound_Name>
EDEL-CRBN-0012

> <Pose_Rank>
5
$$$$
EDEL-CRBN-0013_ent


 37 41  0  0  0  0  0  0  0  0999 V2000
   84.1042  154.3495   13.7313 C   0  0  0  0  0  0  0  0  0  0  0  0
   84.8657  153.3597   13.0428 C   0  0  0  0  0  0  0  0  0  0  0  0
   82.9310  153.9782   14.4128 C   0  0  0  0  0  0  0  0  0  0  0  0
   84.4778  152.0121   13.0436 C   0  0  0  0  0  0  0  0  0  0  0  0
   82.5739  152.6436   14.4211 C   0  0  0  0  0  0  0  0  0  0  0  0
   83.3407  151.6729   13.7461 C   0  0  0  0  0  0  0  0  0  0  0  0
   81.4394  151.9268   15.1166 C   0  0  0  0  0  0  0  0  0  0  0  0
   82.7020  150.3272   13.9947 C   0  0  0  0  0  0  0  0  0  0  0  0
   81.3352  150.7440   14.2715 N   0  0  0  0  0  0  0  0  0  0  0  0
   81.8901  151.4270   16.5301 C   0  0  0  0  0  0  0  0  0  0  0  0
   83.2606  149.7041   15.3175 C   0  0  0  0  0  0  0  0  0  0  0  0
   80.3016  149.8504   14.2883 C   0  0  0  0  0  0  0  0  0  0  0  0
   83.0805  150.5096   16.5790 N   0  0  0  0  0  0  0  0  0  0  0  0
   80.3804  148.7223   13.8219 O   0  0  0  0  0  0  0  0  0  0  0  0
   84.1159  156.0975   11.4618 O   0  0  0  0  0  0  0  0  0  0  0  0
   84.4390  156.4916   12.5805 C   0  0  0  0  0  0  0  0  0  0  0  0
   84.5189  155.7174   13.7387 N   0  0  0  0  0  0  0  0  0  0  0  0
   84.8138  157.8070   12.7366 N   0  0  0  0  0  0  0  0  0  0  0  0
   85.3098  156.2220   14.8493 C   0  0  0  0  0  0  0  0  0  0  0  0
   85.0241  158.4734   13.9127 C   0  0  0  0  0  0  0  0  0  0  0  0
   84.9165  157.6497   15.1623 C   0  0  0  0  0  0  0  0  0  0  0  0
   85.2268  159.6844   13.9379 O   0  0  0  0  0  0  0  0  0  0  0  0
   84.9451  158.3256   11.9102 H   0  0  0  0  0  0  0  0  0  0  0  0
   85.9109  153.7849   12.2532 O   0  0  0  0  0  0  0  0  0  0  0  0
   86.9775  152.8417   12.1649 C   0  0  0  0  0  0  0  0  0  0  0  0
   79.2015  150.3759   14.8834 O   0  0  0  0  0  0  0  0  0  0  0  0
   78.0324  149.5572   15.1414 C   0  0  0  0  0  0  0  0  0  0  0  0
   77.5097  149.1793   13.7469 C   0  0  0  0  0  0  0  0  0  0  0  0
   76.9454  150.3545   15.8707 C   0  0  0  0  0  0  0  0  0  0  0  0
   78.4034  148.2722   15.8894 C   0  0  0  0  0  0  0  0  0  0  0  0
   84.2991  151.2408   16.9723 C   0  0  0  0  0  0  0  0  0  0  0  0
   85.5900  150.5304   16.6167 C   0  0  0  0  0  0  0  0  0  0  0  0
   86.5683  151.1868   15.8543 C   0  0  0  0  0  0  0  0  0  0  0  0
   85.8484  149.2296   17.0737 C   0  0  0  0  0  0  0  0  0  0  0  0
   87.7692  150.5477   15.5411 C   0  0  0  0  0  0  0  0  0  0  0  0
   87.0489  148.5918   16.7583 C   0  0  0  0  0  0  0  0  0  0  0  0
   88.0081  149.2504   15.9913 C   0  0  0  0  0  0  0  0  0  0  0  0
 15 16  2  0
 16 17  1  0
 16 18  1  0
 17 19  1  0
 18 20  1  0
  1 17  1  0
  1  2  2  0
  1  3  5  0
 19 21  1  0
 20 22  2  0
 20 21  1  0
  2 24  1  0
  2  4  5  0
 24 25  1  0
  5  3  2  0
  5  7  1  0
  5  6  5  0
  6  4  2  0
  6  8  1  0
  7  9  1  0
  7 10  1  0
  8 11  1  0
  8  9  1  0
  9 12  1  0
 10 13  1  0
 11 13  1  0
 12 14  2  0
 12 26  1  0
 13 31  1  0
 26 27  1  0
 31 32  1  0
 27 28  1  0
 27 29  1  0
 27 30  1  0
 32 33  2  0
 32 34  5  0
 33 35  5  0
 34 36  2  0
 35 37  2  0
 36 37  5  0
 18 23  1  0
M  END
> <ID>
EDEL-CRBN-0013_ent

> <Stereoisomer>
enantiomer

> <MW>
492.24

> <HBD>
1

> <HBA>
6

> <RotBonds>
4

> <cLogP>
3.99

> <minimizedAffinity>
-9.71276

> <CNNscore>
0.8723109961

> <CNNaffinity>
7.0751376152

> <CNN_VS>
6.1717205048

> <CNNaffinity_variance>
0.1427398324

> <Compound_Name>
EDEL-CRBN-0013_ent

> <Pose_Rank>
1
$$$$
EDEL-CRBN-0013_ent


 37 41  0  0  0  0  0  0  0  0999 V2000
   84.2194  154.3719   13.6473 C   0  0  0  0  0  0  0  0  0  0  0  0
   85.0548  153.4041   13.0155 C   0  0  0  0  0  0  0  0  0  0  0  0
   83.0050  153.9696   14.2323 C   0  0  0  0  0  0  0  0  0  0  0  0
   84.6988  152.0483   12.9785 C   0  0  0  0  0  0  0  0  0  0  0  0
   82.6788  152.6274   14.2054 C   0  0  0  0  0  0  0  0  0  0  0  0
   83.5180  151.6789   13.5876 C   0  0  0  0  0  0  0  0  0  0  0  0
   81.5098  151.8806   14.8057 C   0  0  0  0  0  0  0  0  0  0  0  0
   82.8926  150.3176   13.7780 C   0  0  0  0  0  0  0  0  0  0  0  0
   81.4991  150.7018   13.9486 N   0  0  0  0  0  0  0  0  0  0  0  0
   81.8593  151.3809   16.2475 C   0  0  0  0  0  0  0  0  0  0  0  0
   83.3596  149.6976   15.1372 C   0  0  0  0  0  0  0  0  0  0  0  0
   80.4880  149.7854   13.8793 C   0  0  0  0  0  0  0  0  0  0  0  0
   83.0627  150.4899   16.3849 N   0  0  0  0  0  0  0  0  0  0  0  0
   80.6288  148.6627   13.4145 O   0  0  0  0  0  0  0  0  0  0  0  0
   84.2550  156.1668   11.4151 O   0  0  0  0  0  0  0  0  0  0  0  0
   84.5362  156.5447   12.5505 C   0  0  0  0  0  0  0  0  0  0  0  0
   84.6009  155.7485   13.6946 N   0  0  0  0  0  0  0  0  0  0  0  0
   84.8749  157.8649   12.7442 N   0  0  0  0  0  0  0  0  0  0  0  0
   85.3472  156.2480   14.8379 C   0  0  0  0  0  0  0  0  0  0  0  0
   85.0352  158.5112   13.9393 C   0  0  0  0  0  0  0  0  0  0  0  0
   84.9112  157.6592   15.1682 C   0  0  0  0  0  0  0  0  0  0  0  0
   85.2082  159.7258   13.9950 O   0  0  0  0  0  0  0  0  0  0  0  0
   85.0177  158.4037   11.9327 H   0  0  0  0  0  0  0  0  0  0  0  0
   86.1489  153.8581   12.3129 O   0  0  0  0  0  0  0  0  0  0  0  0
   87.0381  152.8178   11.9101 C   0  0  0  0  0  0  0  0  0  0  0  0
   79.3328  150.2820   14.3888 O   0  0  0  0  0  0  0  0  0  0  0  0
   78.1779  149.4270   14.5852 C   0  0  0  0  0  0  0  0  0  0  0  0
   78.7061  148.2491   15.4183 C   0  0  0  0  0  0  0  0  0  0  0  0
   77.6542  148.8851   13.2506 C   0  0  0  0  0  0  0  0  0  0  0  0
   77.0835  150.1406   15.3860 C   0  0  0  0  0  0  0  0  0  0  0  0
   84.2297  151.2452   16.8768 C   0  0  0  0  0  0  0  0  0  0  0  0
   85.5583  150.5532   16.6452 C   0  0  0  0  0  0  0  0  0  0  0  0
   85.7644  149.2480   17.1174 C   0  0  0  0  0  0  0  0  0  0  0  0
   86.5844  151.1819   15.9243 C   0  0  0  0  0  0  0  0  0  0  0  0
   86.9771  148.5952   16.8892 C   0  0  0  0  0  0  0  0  0  0  0  0
   87.7965  150.5283   15.6984 C   0  0  0  0  0  0  0  0  0  0  0  0
   87.9929  149.2360   16.1819 C   0  0  0  0  0  0  0  0  0  0  0  0
 15 16  2  0
 16 17  1  0
 16 18  1  0
 17 19  1  0
 18 20  1  0
  1 17  1  0
  1  2  2  0
  1  3  5  0
 19 21  1  0
 20 22  2  0
 20 21  1  0
  2 24  1  0
  2  4  5  0
 24 25  1  0
  5  3  2  0
  5  7  1  0
  5  6  5  0
  6  4  2  0
  6  8  1  0
  7  9  1  0
  7 10  1  0
  8 11  1  0
  8  9  1  0
  9 12  1  0
 10 13  1  0
 11 13  1  0
 12 14  2  0
 12 26  1  0
 13 31  1  0
 26 27  1  0
 31 32  1  0
 27 28  1  0
 27 29  1  0
 27 30  1  0
 32 33  2  0
 32 34  5  0
 33 35  5  0
 34 36  2  0
 35 37  2  0
 36 37  5  0
 18 23  1  0
M  END
> <ID>
EDEL-CRBN-0013_ent

> <Stereoisomer>
enantiomer

> <MW>
492.24

> <HBD>
1

> <HBA>
6

> <RotBonds>
4

> <cLogP>
3.99

> <minimizedAffinity>
-9.65899

> <CNNscore>
0.8115817904

> <CNNaffinity>
7.0231304169

> <CNN_VS>
5.6998448372

> <CNNaffinity_variance>
0.1908044666

> <Compound_Name>
EDEL-CRBN-0013_ent

> <Pose_Rank>
2
$$$$
EDEL-CRBN-0013_ent


 37 41  0  0  0  0  0  0  0  0999 V2000
   85.2151  153.4788   13.7675 C   0  0  0  0  0  0  0  0  0  0  0  0
   83.9626  152.8075   13.6480 C   0  0  0  0  0  0  0  0  0  0  0  0
   86.3903  152.7323   13.9691 C   0  0  0  0  0  0  0  0  0  0  0  0
   83.8773  151.4092   13.7105 C   0  0  0  0  0  0  0  0  0  0  0  0
   86.2918  151.3548   14.0077 C   0  0  0  0  0  0  0  0  0  0  0  0
   85.0496  150.7024   13.8773 C   0  0  0  0  0  0  0  0  0  0  0  0
   87.3572  150.2892   14.1251 C   0  0  0  0  0  0  0  0  0  0  0  0
   85.3045  149.2145   13.9180 C   0  0  0  0  0  0  0  0  0  0  0  0
   86.5576  149.1934   14.6582 N   0  0  0  0  0  0  0  0  0  0  0  0
   87.8421  149.8387   12.7064 C   0  0  0  0  0  0  0  0  0  0  0  0
   85.6210  148.6846   12.4795 C   0  0  0  0  0  0  0  0  0  0  0  0
   87.0568  148.0390   15.1921 C   0  0  0  0  0  0  0  0  0  0  0  0
   86.7950  149.3067   11.7674 N   0  0  0  0  0  0  0  0  0  0  0  0
   86.3935  147.0206   15.3309 O   0  0  0  0  0  0  0  0  0  0  0  0
   86.2595  154.9624   11.5508 O   0  0  0  0  0  0  0  0  0  0  0  0
   85.7791  155.5240   12.5332 C   0  0  0  0  0  0  0  0  0  0  0  0
   85.2925  154.9036   13.6844 N   0  0  0  0  0  0  0  0  0  0  0  0
   85.7463  156.9000   12.5593 N   0  0  0  0  0  0  0  0  0  0  0  0
   85.1644  155.7014   14.8930 C   0  0  0  0  0  0  0  0  0  0  0  0
   85.0947  157.6951   13.4620 C   0  0  0  0  0  0  0  0  0  0  0  0
   84.4156  156.9824   14.5944 C   0  0  0  0  0  0  0  0  0  0  0  0
   85.0231  158.9120   13.3126 O   0  0  0  0  0  0  0  0  0  0  0  0
   86.2473  157.3633   11.8497 H   0  0  0  0  0  0  0  0  0  0  0  0
   82.8202  153.5760   13.6180 O   0  0  0  0  0  0  0  0  0  0  0  0
   81.8780  153.2348   14.6334 C   0  0  0  0  0  0  0  0  0  0  0  0
   88.3619  148.1756   15.5364 O   0  0  0  0  0  0  0  0  0  0  0  0
   88.7513  148.3522   16.9223 C   0  0  0  0  0  0  0  0  0  0  0  0
   89.8858  147.3386   17.1373 C   0  0  0  0  0  0  0  0  0  0  0  0
   87.5996  148.0047   17.8719 C   0  0  0  0  0  0  0  0  0  0  0  0
   89.2999  149.7608   17.1739 C   0  0  0  0  0  0  0  0  0  0  0  0
   86.3939  150.3298   10.7842 C   0  0  0  0  0  0  0  0  0  0  0  0
   87.5559  151.0585   10.1390 C   0  0  0  0  0  0  0  0  0  0  0  0
   88.1989  150.5076    9.0200 C   0  0  0  0  0  0  0  0  0  0  0  0
   87.9810  152.3069   10.6172 C   0  0  0  0  0  0  0  0  0  0  0  0
   89.2555  151.1827    8.4063 C   0  0  0  0  0  0  0  0  0  0  0  0
   89.0385  152.9795   10.0033 C   0  0  0  0  0  0  0  0  0  0  0  0
   89.6760  152.4167    8.8992 C   0  0  0  0  0  0  0  0  0  0  0  0
 15 16  2  0
 16 17  1  0
 16 18  1  0
 17 19  1  0
 18 20  1  0
  1 17  1  0
  1  2  2  0
  1  3  5  0
 19 21  1  0
 20 22  2  0
 20 21  1  0
  2 24  1  0
  2  4  5  0
 24 25  1  0
  5  3  2  0
  5  7  1  0
  5  6  5  0
  6  4  2  0
  6  8  1  0
  7  9  1  0
  7 10  1  0
  8 11  1  0
  8  9  1  0
  9 12  1  0
 10 13  1  0
 11 13  1  0
 12 14  2  0
 12 26  1  0
 13 31  1  0
 26 27  1  0
 31 32  1  0
 27 28  1  0
 27 29  1  0
 27 30  1  0
 32 33  2  0
 32 34  5  0
 33 35  5  0
 34 36  2  0
 35 37  2  0
 36 37  5  0
 18 23  1  0
M  END
> <ID>
EDEL-CRBN-0013_ent

> <Stereoisomer>
enantiomer

> <MW>
492.24

> <HBD>
1

> <HBA>
6

> <RotBonds>
4

> <cLogP>
3.99

> <minimizedAffinity>
-7.34570

> <CNNscore>
0.6620368958

> <CNNaffinity>
6.2321739197

> <CNN_VS>
4.1259288788

> <CNNaffinity_variance>
0.2406608015

> <Compound_Name>
EDEL-CRBN-0013_ent

> <Pose_Rank>
3
$$$$
EDEL-CRBN-0013_ent


 37 41  0  0  0  0  0  0  0  0999 V2000
   84.4915  153.6239   13.4706 C   0  0  0  0  0  0  0  0  0  0  0  0
   85.4810  152.6461   13.1569 C   0  0  0  0  0  0  0  0  0  0  0  0
   83.1547  153.2283   13.6586 C   0  0  0  0  0  0  0  0  0  0  0  0
   85.1525  151.2873   13.0473 C   0  0  0  0  0  0  0  0  0  0  0  0
   82.8514  151.8836   13.5674 C   0  0  0  0  0  0  0  0  0  0  0  0
   83.8402  150.9253   13.2678 C   0  0  0  0  0  0  0  0  0  0  0  0
   81.5526  151.1443   13.7933 C   0  0  0  0  0  0  0  0  0  0  0  0
   83.1848  149.5650   13.2902 C   0  0  0  0  0  0  0  0  0  0  0  0
   81.8081  149.9436   13.0077 N   0  0  0  0  0  0  0  0  0  0  0  0
   81.4345  150.6847   15.2851 C   0  0  0  0  0  0  0  0  0  0  0  0
   83.2040  148.9839   14.7435 C   0  0  0  0  0  0  0  0  0  0  0  0
   80.8678  149.0185   12.6513 C   0  0  0  0  0  0  0  0  0  0  0  0
   82.5339  149.8062   15.8147 N   0  0  0  0  0  0  0  0  0  0  0  0
   81.1451  147.8851   12.2839 O   0  0  0  0  0  0  0  0  0  0  0  0
   85.0055  155.4172   11.2967 O   0  0  0  0  0  0  0  0  0  0  0  0
   85.0247  155.7987   12.4652 C   0  0  0  0  0  0  0  0  0  0  0  0
   84.8411  155.0040   13.5974 N   0  0  0  0  0  0  0  0  0  0  0  0
   85.3005  157.1221   12.7254 N   0  0  0  0  0  0  0  0  0  0  0  0
   85.3109  155.5112   14.8763 C   0  0  0  0  0  0  0  0  0  0  0  0
   85.1862  157.7708   13.9245 C   0  0  0  0  0  0  0  0  0  0  0  0
   84.8003  156.9187   15.0977 C   0  0  0  0  0  0  0  0  0  0  0  0
   85.3320  158.9870   14.0137 O   0  0  0  0  0  0  0  0  0  0  0  0
   85.6149  157.6615   11.9642 H   0  0  0  0  0  0  0  0  0  0  0  0
   86.7402  153.0895   12.8184 O   0  0  0  0  0  0  0  0  0  0  0  0
   87.2781  152.4473   11.6637 C   0  0  0  0  0  0  0  0  0  0  0  0
   79.6120  149.5199   12.7618 O   0  0  0  0  0  0  0  0  0  0  0  0
   78.6404  148.9050   13.6458 C   0  0  0  0  0  0  0  0  0  0  0  0
   77.6444  148.2121   12.7033 C   0  0  0  0  0  0  0  0  0  0  0  0
   77.8865  149.9599   14.4629 C   0  0  0  0  0  0  0  0  0  0  0  0
   79.2901  147.8418   14.5380 C   0  0  0  0  0  0  0  0  0  0  0  0
   83.4904  150.5823   16.6254 C   0  0  0  0  0  0  0  0  0  0  0  0
   83.7174  150.0264   18.0171 C   0  0  0  0  0  0  0  0  0  0  0  0
   82.9894  150.5320   19.1050 C   0  0  0  0  0  0  0  0  0  0  0  0
   84.6210  148.9762   18.2371 C   0  0  0  0  0  0  0  0  0  0  0  0
   83.1764  150.0106   20.3864 C   0  0  0  0  0  0  0  0  0  0  0  0
   84.8076  148.4572   19.5191 C   0  0  0  0  0  0  0  0  0  0  0  0
   84.0863  148.9753   20.5931 C   0  0  0  0  0  0  0  0  0  0  0  0
 15 16  2  0
 16 17  1  0
 16 18  1  0
 17 19  1  0
 18 20  1  0
  1 17  1  0
  1  2  2  0
  1  3  5  0
 19 21  1  0
 20 22  2  0
 20 21  1  0
  2 24  1  0
  2  4  5  0
 24 25  1  0
  5  3  2  0
  5  7  1  0
  5  6  5  0
  6  4  2  0
  6  8  1  0
  7  9  1  0
  7 10  1  0
  8 11  1  0
  8  9  1  0
  9 12  1  0
 10 13  1  0
 11 13  1  0
 12 14  2  0
 12 26  1  0
 13 31  1  0
 26 27  1  0
 31 32  1  0
 27 28  1  0
 27 29  1  0
 27 30  1  0
 32 33  2  0
 32 34  5  0
 33 35  5  0
 34 36  2  0
 35 37  2  0
 36 37  5  0
 18 23  1  0
M  END
> <ID>
EDEL-CRBN-0013_ent

> <Stereoisomer>
enantiomer

> <MW>
492.24

> <HBD>
1

> <HBA>
6

> <RotBonds>
4

> <cLogP>
3.99

> <minimizedAffinity>
-8.20446

> <CNNscore>
0.3663338125

> <CNNaffinity>
6.0024533272

> <CNN_VS>
2.1989016533

> <CNNaffinity_variance>
0.6180274487

> <Compound_Name>
EDEL-CRBN-0013_ent

> <Pose_Rank>
4
$$$$
EDEL-CRBN-0013_ent


 37 41  0  0  0  0  0  0  0  0999 V2000
   83.3340  149.4935   19.0594 C   0  0  0  0  0  0  0  0  0  0  0  0
   84.0272  148.5385   18.2587 C   0  0  0  0  0  0  0  0  0  0  0  0
   83.1536  150.8045   18.5822 C   0  0  0  0  0  0  0  0  0  0  0  0
   84.5219  148.8742   16.9902 C   0  0  0  0  0  0  0  0  0  0  0  0
   83.6288  151.1133   17.3223 C   0  0  0  0  0  0  0  0  0  0  0  0
   84.3026  150.1576   16.5358 C   0  0  0  0  0  0  0  0  0  0  0  0
   83.5228  152.3821   16.5079 C   0  0  0  0  0  0  0  0  0  0  0  0
   84.6422  150.8055   15.2146 C   0  0  0  0  0  0  0  0  0  0  0  0
   84.6627  152.2040   15.6174 N   0  0  0  0  0  0  0  0  0  0  0  0
   82.2433  152.3509   15.6065 C   0  0  0  0  0  0  0  0  0  0  0  0
   83.4497  150.6413   14.2141 C   0  0  0  0  0  0  0  0  0  0  0  0
   85.1988  153.1736   14.8178 C   0  0  0  0  0  0  0  0  0  0  0  0
   82.1182  151.2030   14.6433 N   0  0  0  0  0  0  0  0  0  0  0  0
   85.9242  152.9325   13.8628 O   0  0  0  0  0  0  0  0  0  0  0  0
   80.5843  148.9588   19.6586 O   0  0  0  0  0  0  0  0  0  0  0  0
   81.4627  148.8509   20.5119 C   0  0  0  0  0  0  0  0  0  0  0  0
   82.8184  149.1351   20.3434 N   0  0  0  0  0  0  0  0  0  0  0  0
   81.1064  148.4627   21.7837 N   0  0  0  0  0  0  0  0  0  0  0  0
   83.6249  149.3652   21.5309 C   0  0  0  0  0  0  0  0  0  0  0  0
   81.9440  148.1101   22.8063 C   0  0  0  0  0  0  0  0  0  0  0  0
   83.4123  148.2478   22.5294 C   0  0  0  0  0  0  0  0  0  0  0  0
   81.5132  147.6516   23.8610 O   0  0  0  0  0  0  0  0  0  0  0  0
   80.1419  148.4358   21.9790 H   0  0  0  0  0  0  0  0  0  0  0  0
   84.3280  147.3198   18.8253 O   0  0  0  0  0  0  0  0  0  0  0  0
   84.3638  146.2482   17.8843 C   0  0  0  0  0  0  0  0  0  0  0  0
   84.8207  154.4130   15.2197 O   0  0  0  0  0  0  0  0  0  0  0  0
   84.6853  155.4960   14.2647 C   0  0  0  0  0  0  0  0  0  0  0  0
   83.2214  155.4244   13.8039 C   0  0  0  0  0  0  0  0  0  0  0  0
   85.5914  155.2803   13.0475 C   0  0  0  0  0  0  0  0  0  0  0  0
   84.9239  156.8578   14.9257 C   0  0  0  0  0  0  0  0  0  0  0  0
   81.2002  150.1720   15.1616 C   0  0  0  0  0  0  0  0  0  0  0  0
   80.1379  149.7345   14.1729 C   0  0  0  0  0  0  0  0  0  0  0  0
   80.5097  149.1632   12.9463 C   0  0  0  0  0  0  0  0  0  0  0  0
   78.7739  149.8523   14.4787 C   0  0  0  0  0  0  0  0  0  0  0  0
   79.5375  148.7374   12.0394 C   0  0  0  0  0  0  0  0  0  0  0  0
   77.8035  149.4274   13.5702 C   0  0  0  0  0  0  0  0  0  0  0  0
   78.1856  148.8714   12.3507 C   0  0  0  0  0  0  0  0  0  0  0  0
 15 16  2  0
 16 17  1  0
 16 18  1  0
 17 19  1  0
 18 20  1  0
  1 17  1  0
  1  2  2  0
  1  3  5  0
 19 21  1  0
 20 22  2  0
 20 21  1  0
  2 24  1  0
  2  4  5  0
 24 25  1  0
  5  3  2  0
  5  7  1  0
  5  6  5  0
  6  4  2  0
  6  8  1  0
  7  9  1  0
  7 10  1  0
  8 11  1  0
  8  9  1  0
  9 12  1  0
 10 13  1  0
 11 13  1  0
 12 14  2  0
 12 26  1  0
 13 31  1  0
 26 27  1  0
 31 32  1  0
 27 28  1  0
 27 29  1  0
 27 30  1  0
 32 33  2  0
 32 34  5  0
 33 35  5  0
 34 36  2  0
 35 37  2  0
 36 37  5  0
 18 23  1  0
M  END
> <ID>
EDEL-CRBN-0013_ent

> <Stereoisomer>
enantiomer

> <MW>
492.24

> <HBD>
1

> <HBA>
6

> <RotBonds>
4

> <cLogP>
3.99

> <minimizedAffinity>
-8.26914

> <CNNscore>
0.2295794338

> <CNNaffinity>
4.7891230583

> <CNN_VS>
1.0994842052

> <CNNaffinity_variance>
1.6467204094

> <Compound_Name>
EDEL-CRBN-0013_ent

> <Pose_Rank>
5
$$$$
EDEL-CRBN-0013


 37 41  0  0  0  0  0  0  0  0999 V2000
   84.8805  154.3830   14.0171 C   0  0  0  0  0  0  0  0  0  0  0  0
   85.5926  153.5126   13.1423 C   0  0  0  0  0  0  0  0  0  0  0  0
   84.1184  153.8055   15.0492 C   0  0  0  0  0  0  0  0  0  0  0  0
   85.4994  152.1153   13.2320 C   0  0  0  0  0  0  0  0  0  0  0  0
   84.0596  152.4256   15.1519 C   0  0  0  0  0  0  0  0  0  0  0  0
   84.7316  151.5903   14.2470 C   0  0  0  0  0  0  0  0  0  0  0  0
   83.3026  151.5450   16.1213 C   0  0  0  0  0  0  0  0  0  0  0  0
   84.4139  150.1589   14.6128 C   0  0  0  0  0  0  0  0  0  0  0  0
   84.1027  150.3275   16.0304 N   0  0  0  0  0  0  0  0  0  0  0  0
   81.8889  151.2299   15.5196 C   0  0  0  0  0  0  0  0  0  0  0  0
   83.0960  149.7363   13.8789 C   0  0  0  0  0  0  0  0  0  0  0  0
   83.8988  149.2930   16.9033 C   0  0  0  0  0  0  0  0  0  0  0  0
   81.8381  150.0336   14.6216 N   0  0  0  0  0  0  0  0  0  0  0  0
   83.3209  149.4179   17.9747 O   0  0  0  0  0  0  0  0  0  0  0  0
   86.2530  155.8777   11.9619 O   0  0  0  0  0  0  0  0  0  0  0  0
   85.5889  156.4360   12.8315 C   0  0  0  0  0  0  0  0  0  0  0  0
   84.8842  155.8124   13.8620 N   0  0  0  0  0  0  0  0  0  0  0  0
   85.5059  157.8077   12.8114 N   0  0  0  0  0  0  0  0  0  0  0  0
   84.0051  156.6317   14.6892 C   0  0  0  0  0  0  0  0  0  0  0  0
   85.2102  158.6122   13.8759 C   0  0  0  0  0  0  0  0  0  0  0  0
   84.6983  157.9146   15.0989 C   0  0  0  0  0  0  0  0  0  0  0  0
   85.4330  159.8194   13.8503 O   0  0  0  0  0  0  0  0  0  0  0  0
   85.6754  158.2524   11.9496 H   0  0  0  0  0  0  0  0  0  0  0  0
   86.4331  154.0032   12.1679 O   0  0  0  0  0  0  0  0  0  0  0  0
   87.3056  152.9616   11.7192 C   0  0  0  0  0  0  0  0  0  0  0  0
   84.4187  148.1325   16.4268 O   0  0  0  0  0  0  0  0  0  0  0  0
   85.4371  147.4175   17.1699 C   0  0  0  0  0  0  0  0  0  0  0  0
   86.7337  147.6637   16.3829 C   0  0  0  0  0  0  0  0  0  0  0  0
   85.1559  145.9104   17.1867 C   0  0  0  0  0  0  0  0  0  0  0  0
   85.6066  147.9881   18.5818 C   0  0  0  0  0  0  0  0  0  0  0  0
   80.6611  150.0063   13.7510 C   0  0  0  0  0  0  0  0  0  0  0  0
   79.3507  149.9472   14.5063 C   0  0  0  0  0  0  0  0  0  0  0  0
   78.1677  149.5699   13.8549 C   0  0  0  0  0  0  0  0  0  0  0  0
   79.3031  150.2448   15.8770 C   0  0  0  0  0  0  0  0  0  0  0  0
   76.9630  149.5016   14.5576 C   0  0  0  0  0  0  0  0  0  0  0  0
   78.0979  150.1779   16.5772 C   0  0  0  0  0  0  0  0  0  0  0  0
   76.9285  149.8060   15.9174 C   0  0  0  0  0  0  0  0  0  0  0  0
 15 16  2  0
 16 17  1  0
 16 18  1  0
 17 19  1  0
 18 20  1  0
  1 17  1  0
  1  2  2  0
  1  3  5  0
 19 21  1  0
 20 22  2  0
 20 21  1  0
  2 24  1  0
  2  4  5  0
 24 25  1  0
  5  3  2  0
  5  7  1  0
  5  6  5  0
  6  4  2  0
  6  8  1  0
  7  9  1  0
  7 10  1  0
  8 11  1  0
  8  9  1  0
  9 12  1  0
 10 13  1  0
 11 13  1  0
 12 14  2  0
 12 26  1  0
 13 31  1  0
 26 27  1  0
 31 32  1  0
 27 28  1  0
 27 29  1  0
 27 30  1  0
 32 33  2  0
 32 34  5  0
 33 35  5  0
 34 36  2  0
 35 37  2  0
 36 37  5  0
 18 23  1  0
M  END
> <ID>
EDEL-CRBN-0013

> <Stereoisomer>
original

> <MW>
492.24

> <HBD>
1

> <HBA>
6

> <RotBonds>
4

> <cLogP>
3.99

> <minimizedAffinity>
-8.84591

> <CNNscore>
0.8051082492

> <CNNaffinity>
7.3772778511

> <CNN_VS>
5.9395074844

> <CNNaffinity_variance>
0.0731441304

> <Compound_Name>
EDEL-CRBN-0013

> <Pose_Rank>
1
$$$$
EDEL-CRBN-0013


 37 41  0  0  0  0  0  0  0  0999 V2000
   84.7808  154.0967   13.1974 C   0  0  0  0  0  0  0  0  0  0  0  0
   83.6758  153.2240   13.4150 C   0  0  0  0  0  0  0  0  0  0  0  0
   86.0010  153.5298   12.7861 C   0  0  0  0  0  0  0  0  0  0  0  0
   83.7861  151.8294   13.3047 C   0  0  0  0  0  0  0  0  0  0  0  0
   86.0917  152.1549   12.6460 C   0  0  0  0  0  0  0  0  0  0  0  0
   85.0013  151.3138   12.9139 C   0  0  0  0  0  0  0  0  0  0  0  0
   87.2664  151.2829   12.2615 C   0  0  0  0  0  0  0  0  0  0  0  0
   85.4560  149.8865   12.7139 C   0  0  0  0  0  0  0  0  0  0  0  0
   86.5548  150.1045   11.7758 N   0  0  0  0  0  0  0  0  0  0  0  0
   88.0362  150.8691   13.5638 C   0  0  0  0  0  0  0  0  0  0  0  0
   86.0687  149.3643   14.0578 C   0  0  0  0  0  0  0  0  0  0  0  0
   87.2263  149.1026   11.1288 C   0  0  0  0  0  0  0  0  0  0  0  0
   87.5249  149.6316   14.2324 N   0  0  0  0  0  0  0  0  0  0  0  0
   88.3315  149.2475   10.6236 O   0  0  0  0  0  0  0  0  0  0  0  0
   84.7974  156.1447   11.1609 O   0  0  0  0  0  0  0  0  0  0  0  0
   84.7254  156.4226   12.3552 C   0  0  0  0  0  0  0  0  0  0  0  0
   84.7037  155.5158   13.4156 N   0  0  0  0  0  0  0  0  0  0  0  0
   84.6504  157.7469   12.7151 N   0  0  0  0  0  0  0  0  0  0  0  0
   84.4299  156.0276   14.7540 C   0  0  0  0  0  0  0  0  0  0  0  0
   84.9940  158.2721   13.9292 C   0  0  0  0  0  0  0  0  0  0  0  0
   85.2391  157.2794   15.0240 C   0  0  0  0  0  0  0  0  0  0  0  0
   85.1704  159.4778   14.0810 O   0  0  0  0  0  0  0  0  0  0  0  0
   84.3179  158.3761   12.0348 H   0  0  0  0  0  0  0  0  0  0  0  0
   82.4261  153.7109   13.7276 O   0  0  0  0  0  0  0  0  0  0  0  0
   81.8783  152.9606   14.8159 C   0  0  0  0  0  0  0  0  0  0  0  0
   86.5098  147.9490   11.1225 O   0  0  0  0  0  0  0  0  0  0  0  0
   87.1194  146.6969   11.5240 C   0  0  0  0  0  0  0  0  0  0  0  0
   87.5545  146.0390   10.2053 C   0  0  0  0  0  0  0  0  0  0  0  0
   86.1015  145.7806   12.2131 C   0  0  0  0  0  0  0  0  0  0  0  0
   88.3633  146.9295   12.3878 C   0  0  0  0  0  0  0  0  0  0  0  0
   87.9480  149.5044   15.6284 C   0  0  0  0  0  0  0  0  0  0  0  0
   86.8197  149.1499   16.5730 C   0  0  0  0  0  0  0  0  0  0  0  0
   86.8972  148.0058   17.3800 C   0  0  0  0  0  0  0  0  0  0  0  0
   85.6886  149.9744   16.6748 C   0  0  0  0  0  0  0  0  0  0  0  0
   85.8615  147.6893   18.2615 C   0  0  0  0  0  0  0  0  0  0  0  0
   84.6537  149.6556   17.5549 C   0  0  0  0  0  0  0  0  0  0  0  0
   84.7407  148.5134   18.3482 C   0  0  0  0  0  0  0  0  0  0  0  0
 15 16  2  0
 16 17  1  0
 16 18  1  0
 17 19  1  0
 18 20  1  0
  1 17  1  0
  1  2  2  0
  1  3  5  0
 19 21  1  0
 20 22  2  0
 20 21  1  0
  2 24  1  0
  2  4  5  0
 24 25  1  0
  5  3  2  0
  5  7  1  0
  5  6  5  0
  6  4  2  0
  6  8  1  0
  7  9  1  0
  7 10  1  0
  8 11  1  0
  8  9  1  0
  9 12  1  0
 10 13  1  0
 11 13  1  0
 12 14  2  0
 12 26  1  0
 13 31  1  0
 26 27  1  0
 31 32  1  0
 27 28  1  0
 27 29  1  0
 27 30  1  0
 32 33  2  0
 32 34  5  0
 33 35  5  0
 34 36  2  0
 35 37  2  0
 36 37  5  0
 18 23  1  0
M  END
> <ID>
EDEL-CRBN-0013

> <Stereoisomer>
original

> <MW>
492.24

> <HBD>
1

> <HBA>
6

> <RotBonds>
4

> <cLogP>
3.99

> <minimizedAffinity>
-7.16420

> <CNNscore>
0.7500156164

> <CNNaffinity>
6.7915973663

> <CNN_VS>
5.0938038826

> <CNNaffinity_variance>
0.1017560065

> <Compound_Name>
EDEL-CRBN-0013

> <Pose_Rank>
2
$$$$
EDEL-CRBN-0013


 37 41  0  0  0  0  0  0  0  0999 V2000
   85.2422  154.2674   13.4108 C   0  0  0  0  0  0  0  0  0  0  0  0
   84.5492  153.3123   14.2093 C   0  0  0  0  0  0  0  0  0  0  0  0
   86.2062  153.7951   12.5014 C   0  0  0  0  0  0  0  0  0  0  0  0
   84.8468  151.9416   14.1696 C   0  0  0  0  0  0  0  0  0  0  0  0
   86.4693  152.4365   12.4439 C   0  0  0  0  0  0  0  0  0  0  0  0
   85.8068  151.5221   13.2764 C   0  0  0  0  0  0  0  0  0  0  0  0
   87.4622  151.6639   11.6041 C   0  0  0  0  0  0  0  0  0  0  0  0
   86.3658  150.1470   12.9929 C   0  0  0  0  0  0  0  0  0  0  0  0
   86.8343  150.3463   11.6233 N   0  0  0  0  0  0  0  0  0  0  0  0
   88.8145  151.5566   12.3914 C   0  0  0  0  0  0  0  0  0  0  0  0
   87.6216  149.9209   13.9017 C   0  0  0  0  0  0  0  0  0  0  0  0
   87.2930  149.3439   10.8119 C   0  0  0  0  0  0  0  0  0  0  0  0
   88.9126  150.3869   13.3199 N   0  0  0  0  0  0  0  0  0  0  0  0
   87.9838  149.5405    9.8211 O   0  0  0  0  0  0  0  0  0  0  0  0
   85.3207  156.1928   11.2594 O   0  0  0  0  0  0  0  0  0  0  0  0
   85.0868  156.5283   12.4177 C   0  0  0  0  0  0  0  0  0  0  0  0
   85.0194  155.6833   13.5261 N   0  0  0  0  0  0  0  0  0  0  0  0
   84.8577  157.8579   12.6799 N   0  0  0  0  0  0  0  0  0  0  0  0
   84.5492  156.2406   14.7896 C   0  0  0  0  0  0  0  0  0  0  0  0
   85.0118  158.4787   13.8876 C   0  0  0  0  0  0  0  0  0  0  0  0
   85.2117  157.5746   15.0654 C   0  0  0  0  0  0  0  0  0  0  0  0
   85.0658  159.7020   13.9791 O   0  0  0  0  0  0  0  0  0  0  0  0
   84.5542  158.4152   11.9272 H   0  0  0  0  0  0  0  0  0  0  0  0
   83.5279  153.6871   15.0537 O   0  0  0  0  0  0  0  0  0  0  0  0
   82.3078  153.0691   14.6333 C   0  0  0  0  0  0  0  0  0  0  0  0
   86.8815  148.1255   11.2480 O   0  0  0  0  0  0  0  0  0  0  0  0
   87.7941  146.9997   11.2687 C   0  0  0  0  0  0  0  0  0  0  0  0
   87.3018  146.1249   12.4320 C   0  0  0  0  0  0  0  0  0  0  0  0
   89.2269  147.4531   11.5722 C   0  0  0  0  0  0  0  0  0  0  0  0
   87.7093  146.1844    9.9741 C   0  0  0  0  0  0  0  0  0  0  0  0
   89.9572  150.5333   14.3355 C   0  0  0  0  0  0  0  0  0  0  0  0
   91.3453  150.7029   13.7562 C   0  0  0  0  0  0  0  0  0  0  0  0
   92.1114  151.8376   14.0590 C   0  0  0  0  0  0  0  0  0  0  0  0
   91.8978  149.7150   12.9266 C   0  0  0  0  0  0  0  0  0  0  0  0
   93.3975  151.9843   13.5353 C   0  0  0  0  0  0  0  0  0  0  0  0
   93.1825  149.8641   12.4026 C   0  0  0  0  0  0  0  0  0  0  0  0
   93.9319  150.9985   12.7074 C   0  0  0  0  0  0  0  0  0  0  0  0
 15 16  2  0
 16 17  1  0
 16 18  1  0
 17 19  1  0
 18 20  1  0
  1 17  1  0
  1  2  2  0
  1  3  5  0
 19 21  1  0
 20 22  2  0
 20 21  1  0
  2 24  1  0
  2  4  5  0
 24 25  1  0
  5  3  2  0
  5  7  1  0
  5  6  5  0
  6  4  2  0
  6  8  1  0
  7  9  1  0
  7 10  1  0
  8 11  1  0
  8  9  1  0
  9 12  1  0
 10 13  1  0
 11 13  1  0
 12 14  2  0
 12 26  1  0
 13 31  1  0
 26 27  1  0
 31 32  1  0
 27 28  1  0
 27 29  1  0
 27 30  1  0
 32 33  2  0
 32 34  5  0
 33 35  5  0
 34 36  2  0
 35 37  2  0
 36 37  5  0
 18 23  1  0
M  END
> <ID>
EDEL-CRBN-0013

> <Stereoisomer>
original

> <MW>
492.24

> <HBD>
1

> <HBA>
6

> <RotBonds>
4

> <cLogP>
3.99

> <minimizedAffinity>
-7.51990

> <CNNscore>
0.6860426068

> <CNNaffinity>
6.8245201111

> <CNN_VS>
4.6819114685

> <CNNaffinity_variance>
0.0506519489

> <Compound_Name>
EDEL-CRBN-0013

> <Pose_Rank>
3
$$$$
EDEL-CRBN-0013


 37 41  0  0  0  0  0  0  0  0999 V2000
   85.5841  153.9017   13.5341 C   0  0  0  0  0  0  0  0  0  0  0  0
   85.2961  153.0825   14.6637 C   0  0  0  0  0  0  0  0  0  0  0  0
   86.2057  153.3024   12.4232 C   0  0  0  0  0  0  0  0  0  0  0  0
   85.6748  151.7329   14.7299 C   0  0  0  0  0  0  0  0  0  0  0  0
   86.5449  151.9610   12.4835 C   0  0  0  0  0  0  0  0  0  0  0  0
   86.2939  151.1885   13.6274 C   0  0  0  0  0  0  0  0  0  0  0  0
   87.2429  151.0788   11.4723 C   0  0  0  0  0  0  0  0  0  0  0  0
   86.8317  149.7987   13.3760 C   0  0  0  0  0  0  0  0  0  0  0  0
   86.7738  149.7697   11.9164 N   0  0  0  0  0  0  0  0  0  0  0  0
   88.7888  151.1411   11.7291 C   0  0  0  0  0  0  0  0  0  0  0  0
   88.3400  149.7627   13.7976 C   0  0  0  0  0  0  0  0  0  0  0  0
   87.0024  148.6535   11.1578 C   0  0  0  0  0  0  0  0  0  0  0  0
   89.3027  150.1519   12.7278 N   0  0  0  0  0  0  0  0  0  0  0  0
   87.2846  148.6924    9.9676 O   0  0  0  0  0  0  0  0  0  0  0  0
   86.0854  155.7027   11.3325 O   0  0  0  0  0  0  0  0  0  0  0  0
   85.5870  156.0930   12.3851 C   0  0  0  0  0  0  0  0  0  0  0  0
   85.2979  155.3104   13.5038 N   0  0  0  0  0  0  0  0  0  0  0  0
   85.2642  157.4239   12.5019 N   0  0  0  0  0  0  0  0  0  0  0  0
   84.5389  155.9176   14.5916 C   0  0  0  0  0  0  0  0  0  0  0  0
   85.1238  158.1188   13.6703 C   0  0  0  0  0  0  0  0  0  0  0  0
   85.0813  157.2933   14.9198 C   0  0  0  0  0  0  0  0  0  0  0  0
   85.1184  159.3465   13.6910 O   0  0  0  0  0  0  0  0  0  0  0  0
   85.1208  157.9233   11.6657 H   0  0  0  0  0  0  0  0  0  0  0  0
   84.6065  153.5731   15.7502 O   0  0  0  0  0  0  0  0  0  0  0  0
   83.7144  152.5694   16.2442 C   0  0  0  0  0  0  0  0  0  0  0  0
   86.8726  147.5192   11.8931 O   0  0  0  0  0  0  0  0  0  0  0  0
   87.6522  146.3390   11.5769 C   0  0  0  0  0  0  0  0  0  0  0  0
   89.1136  146.7991   11.6927 C   0  0  0  0  0  0  0  0  0  0  0  0
   87.3993  145.8769   10.1370 C   0  0  0  0  0  0  0  0  0  0  0  0
   87.4109  145.2178   12.5930 C   0  0  0  0  0  0  0  0  0  0  0  0
   90.6200  150.4961   13.2665 C   0  0  0  0  0  0  0  0  0  0  0  0
   90.5990  150.8481   14.7385 C   0  0  0  0  0  0  0  0  0  0  0  0
   89.6833  150.2354   15.6060 C   0  0  0  0  0  0  0  0  0  0  0  0
   91.5126  151.7750   15.2637 C   0  0  0  0  0  0  0  0  0  0  0  0
   89.6763  150.5509   16.9662 C   0  0  0  0  0  0  0  0  0  0  0  0
   91.5028  152.0904   16.6229 C   0  0  0  0  0  0  0  0  0  0  0  0
   90.5850  151.4780   17.4737 C   0  0  0  0  0  0  0  0  0  0  0  0
 15 16  2  0
 16 17  1  0
 16 18  1  0
 17 19  1  0
 18 20  1  0
  1 17  1  0
  1  2  2  0
  1  3  5  0
 19 21  1  0
 20 22  2  0
 20 21  1  0
  2 24  1  0
  2  4  5  0
 24 25  1  0
  5  3  2  0
  5  7  1  0
  5  6  5  0
  6  4  2  0
  6  8  1  0
  7  9  1  0
  7 10  1  0
  8 11  1  0
  8  9  1  0
  9 12  1  0
 10 13  1  0
 11 13  1  0
 12 14  2  0
 12 26  1  0
 13 31  1  0
 26 27  1  0
 31 32  1  0
 27 28  1  0
 27 29  1  0
 27 30  1  0
 32 33  2  0
 32 34  5  0
 33 35  5  0
 34 36  2  0
 35 37  2  0
 36 37  5  0
 18 23  1  0
M  END
> <ID>
EDEL-CRBN-0013

> <Stereoisomer>
original

> <MW>
492.24

> <HBD>
1

> <HBA>
6

> <RotBonds>
4

> <cLogP>
3.99

> <minimizedAffinity>
-8.57576

> <CNNscore>
0.5632383823

> <CNNaffinity>
6.5622591972

> <CNN_VS>
3.6961162090

> <CNNaffinity_variance>
0.1695771813

> <Compound_Name>
EDEL-CRBN-0013

> <Pose_Rank>
4
$$$$
EDEL-CRBN-0013


 37 41  0  0  0  0  0  0  0  0999 V2000
   85.7889  153.7510   12.6048 C   0  0  0  0  0  0  0  0  0  0  0  0
   85.2114  152.4488   12.6322 C   0  0  0  0  0  0  0  0  0  0  0  0
   87.0012  153.9229   11.9119 C   0  0  0  0  0  0  0  0  0  0  0  0
   85.8430  151.3340   12.0600 C   0  0  0  0  0  0  0  0  0  0  0  0
   87.6007  152.8235   11.3202 C   0  0  0  0  0  0  0  0  0  0  0  0
   87.0351  151.5424   11.4037 C   0  0  0  0  0  0  0  0  0  0  0  0
   88.9013  152.7072   10.5567 C   0  0  0  0  0  0  0  0  0  0  0  0
   87.9640  150.5784   10.7025 C   0  0  0  0  0  0  0  0  0  0  0  0
   88.6307  151.4986    9.7841 N   0  0  0  0  0  0  0  0  0  0  0  0
   90.0531  152.3758   11.5684 C   0  0  0  0  0  0  0  0  0  0  0  0
   89.0299  150.0725   11.7332 C   0  0  0  0  0  0  0  0  0  0  0  0
   89.4767  151.1088    8.7812 C   0  0  0  0  0  0  0  0  0  0  0  0
   90.2530  150.9178   11.8409 N   0  0  0  0  0  0  0  0  0  0  0  0
   90.2795  151.8609    8.2449 O   0  0  0  0  0  0  0  0  0  0  0  0
   84.4156  155.9701   11.3674 O   0  0  0  0  0  0  0  0  0  0  0  0
   84.5634  155.9004   12.5848 C   0  0  0  0  0  0  0  0  0  0  0  0
   85.2020  154.8748   13.2831 N   0  0  0  0  0  0  0  0  0  0  0  0
   84.0553  156.9119   13.3643 N   0  0  0  0  0  0  0  0  0  0  0  0
   85.1175  154.8767   14.7395 C   0  0  0  0  0  0  0  0  0  0  0  0
   84.4699  157.2438   14.6236 C   0  0  0  0  0  0  0  0  0  0  0  0
   85.3855  156.2625   15.2892 C   0  0  0  0  0  0  0  0  0  0  0  0
   84.1730  158.3199   15.1350 O   0  0  0  0  0  0  0  0  0  0  0  0
   83.3243  157.4475   12.9796 H   0  0  0  0  0  0  0  0  0  0  0  0
   83.9820  152.2198   13.2091 O   0  0  0  0  0  0  0  0  0  0  0  0
   83.3014  151.1858   12.4915 C   0  0  0  0  0  0  0  0  0  0  0  0
   89.3036  149.7989    8.4676 O   0  0  0  0  0  0  0  0  0  0  0  0
   88.5866  149.4134    7.2685 C   0  0  0  0  0  0  0  0  0  0  0  0
   89.6861  149.0083    6.2746 C   0  0  0  0  0  0  0  0  0  0  0  0
   87.8111  150.5984    6.6811 C   0  0  0  0  0  0  0  0  0  0  0  0
   87.6838  148.2010    7.5195 C   0  0  0  0  0  0  0  0  0  0  0  0
   91.0046  150.6508   13.0689 C   0  0  0  0  0  0  0  0  0  0  0  0
   90.1429  150.6274   14.3131 C   0  0  0  0  0  0  0  0  0  0  0  0
   90.7139  150.8116   15.5805 C   0  0  0  0  0  0  0  0  0  0  0  0
   88.7546  150.4461   14.2162 C   0  0  0  0  0  0  0  0  0  0  0  0
   89.9144  150.8046   16.7253 C   0  0  0  0  0  0  0  0  0  0  0  0
   87.9574  150.4375   15.3615 C   0  0  0  0  0  0  0  0  0  0  0  0
   88.5375  150.6171   16.6155 C   0  0  0  0  0  0  0  0  0  0  0  0
 15 16  2  0
 16 17  1  0
 16 18  1  0
 17 19  1  0
 18 20  1  0
  1 17  1  0
  1  2  2  0
  1  3  5  0
 19 21  1  0
 20 22  2  0
 20 21  1  0
  2 24  1  0
  2  4  5  0
 24 25  1  0
  5  3  2  0
  5  7  1  0
  5  6  5  0
  6  4  2  0
  6  8  1  0
  7  9  1  0
  7 10  1  0
  8 11  1  0
  8  9  1  0
  9 12  1  0
 10 13  1  0
 11 13  1  0
 12 14  2  0
 12 26  1  0
 13 31  1  0
 26 27  1  0
 31 32  1  0
 27 28  1  0
 27 29  1  0
 27 30  1  0
 32 33  2  0
 32 34  5  0
 33 35  5  0
 34 36  2  0
 35 37  2  0
 36 37  5  0
 18 23  1  0
M  END
> <ID>
EDEL-CRBN-0013

> <Stereoisomer>
original

> <MW>
492.24

> <HBD>
1

> <HBA>
6

> <RotBonds>
4

> <cLogP>
3.99

> <minimizedAffinity>
-7.76097

> <CNNscore>
0.4788179100

> <CNNaffinity>
6.2458610535

> <CNN_VS>
2.9906301498

> <CNNaffinity_variance>
0.3237019479

> <Compound_Name>
EDEL-CRBN-0013

> <Pose_Rank>
5
$$$$
EDEL-CRBN-0014_ent


 37 41  0  0  0  0  0  0  0  0999 V2000
   83.9230  154.8624   14.0147 C   0  0  0  0  0  0  0  0  0  0  0  0
   84.7857  153.7642   13.8162 C   0  0  0  0  0  0  0  0  0  0  0  0
   82.5438  154.6178   14.2452 C   0  0  0  0  0  0  0  0  0  0  0  0
   84.2683  152.4881   13.9264 C   0  0  0  0  0  0  0  0  0  0  0  0
   82.0241  153.3191   14.3375 C   0  0  0  0  0  0  0  0  0  0  0  0
   82.8998  152.2671   14.1841 C   0  0  0  0  0  0  0  0  0  0  0  0
   84.9472  151.1418   13.8417 C   0  0  0  0  0  0  0  0  0  0  0  0
   82.6853  150.7726   14.2732 C   0  0  0  0  0  0  0  0  0  0  0  0
   83.8079  150.3087   13.4615 N   0  0  0  0  0  0  0  0  0  0  0  0
   85.3872  150.6705   15.2690 C   0  0  0  0  0  0  0  0  0  0  0  0
   82.9562  150.2665   15.7299 C   0  0  0  0  0  0  0  0  0  0  0  0
   83.9711  149.0345   12.9981 C   0  0  0  0  0  0  0  0  0  0  0  0
   84.2781  150.6937   16.2824 N   0  0  0  0  0  0  0  0  0  0  0  0
   85.0436  148.5866   12.6173 O   0  0  0  0  0  0  0  0  0  0  0  0
   84.3096  156.4312   11.6360 O   0  0  0  0  0  0  0  0  0  0  0  0
   84.5229  156.8873   12.7551 C   0  0  0  0  0  0  0  0  0  0  0  0
   84.4068  156.2093   13.9712 N   0  0  0  0  0  0  0  0  0  0  0  0
   84.9637  158.1883   12.8581 N   0  0  0  0  0  0  0  0  0  0  0  0
   85.0988  156.7614   15.1255 C   0  0  0  0  0  0  0  0  0  0  0  0
   85.0725  158.9408   13.9948 C   0  0  0  0  0  0  0  0  0  0  0  0
   84.7693  158.2306   15.2805 C   0  0  0  0  0  0  0  0  0  0  0  0
   85.3362  160.1393   13.9528 O   0  0  0  0  0  0  0  0  0  0  0  0
   85.2309  158.6262   12.0178 H   0  0  0  0  0  0  0  0  0  0  0  0
   86.1079  153.8932   13.4944 O   0  0  0  0  0  0  0  0  0  0  0  0
   86.3012  153.7278   12.0907 C   0  0  0  0  0  0  0  0  0  0  0  0
   82.8036  148.3433   13.0276 O   0  0  0  0  0  0  0  0  0  0  0  0
   82.7165  147.0562   13.6903 C   0  0  0  0  0  0  0  0  0  0  0  0
   82.8945  145.9024   12.6979 C   0  0  0  0  0  0  0  0  0  0  0  0
   81.2863  147.0056   14.2499 C   0  0  0  0  0  0  0  0  0  0  0  0
   83.7020  146.9666   14.8608 C   0  0  0  0  0  0  0  0  0  0  0  0
   84.6141  149.9613   17.5080 C   0  0  0  0  0  0  0  0  0  0  0  0
   83.4385  149.7449   18.4376 C   0  0  0  0  0  0  0  0  0  0  0  0
   83.6356  149.3388   19.7666 C   0  0  0  0  0  0  0  0  0  0  0  0
   82.1301  149.9873   17.9941 C   0  0  0  0  0  0  0  0  0  0  0  0
   82.5497  149.1576   20.6240 C   0  0  0  0  0  0  0  0  0  0  0  0
   81.0447  149.8102   18.8548 C   0  0  0  0  0  0  0  0  0  0  0  0
   81.2547  149.3939   20.1681 C   0  0  0  0  0  0  0  0  0  0  0  0
 15 16  2  0
 16 17  1  0
 16 18  1  0
 17 19  1  0
 18 20  1  0
  1 17  1  0
  1  2  2  0
  1  3  5  0
 19 21  1  0
 20 22  2  0
 20 21  1  0
  2 24  1  0
  2  4  5  0
  3  5  2  0
 24 25  1  0
  4  6  2  0
  4  7  1  0
  5  6  5  0
  6  8  1  0
  7  9  1  0
  7 10  1  0
  8 11  1  0
  8  9  1  0
  9 12  1  0
 10 13  1  0
 11 13  1  0
 12 14  2  0
 12 26  1  0
 13 31  1  0
 26 27  1  0
 31 32  1  0
 27 28  1  0
 27 29  1  0
 27 30  1  0
 32 33  2  0
 32 34  5  0
 33 35  5  0
 34 36  2  0
 35 37  2  0
 36 37  5  0
 18 23  1  0
M  END
> <ID>
EDEL-CRBN-0014_ent

> <Stereoisomer>
enantiomer

> <MW>
492.24

> <HBD>
1

> <HBA>
6

> <RotBonds>
4

> <cLogP>
3.99

> <minimizedAffinity>
-8.73680

> <CNNscore>
0.8841939569

> <CNNaffinity>
6.9701366425

> <CNN_VS>
6.1629528999

> <CNNaffinity_variance>
0.1928734779

> <Compound_Name>
EDEL-CRBN-0014_ent

> <Pose_Rank>
1
$$$$
EDEL-CRBN-0014_ent


 37 41  0  0  0  0  0  0  0  0999 V2000
   85.4546  152.9619   13.4001 C   0  0  0  0  0  0  0  0  0  0  0  0
   85.4425  152.2078   14.5920 C   0  0  0  0  0  0  0  0  0  0  0  0
   85.4847  152.2780   12.1565 C   0  0  0  0  0  0  0  0  0  0  0  0
   85.3867  150.8304   14.5030 C   0  0  0  0  0  0  0  0  0  0  0  0
   85.4460  150.8790   12.0759 C   0  0  0  0  0  0  0  0  0  0  0  0
   85.3890  150.1715   13.2564 C   0  0  0  0  0  0  0  0  0  0  0  0
   85.2892  149.7790   15.5826 C   0  0  0  0  0  0  0  0  0  0  0  0
   85.2875  148.6861   13.5223 C   0  0  0  0  0  0  0  0  0  0  0  0
   85.8503  148.6330   14.8695 N   0  0  0  0  0  0  0  0  0  0  0  0
   83.7875  149.4360   15.8655 C   0  0  0  0  0  0  0  0  0  0  0  0
   83.7881  148.2547   13.6542 C   0  0  0  0  0  0  0  0  0  0  0  0
   86.2261  147.4934   15.5215 C   0  0  0  0  0  0  0  0  0  0  0  0
   83.0079  149.0711   14.6339 N   0  0  0  0  0  0  0  0  0  0  0  0
   86.3767  147.4272   16.7334 O   0  0  0  0  0  0  0  0  0  0  0  0
   86.6900  154.6714   11.4457 O   0  0  0  0  0  0  0  0  0  0  0  0
   86.0602  155.1237   12.3969 C   0  0  0  0  0  0  0  0  0  0  0  0
   85.4541  154.3935   13.4223 N   0  0  0  0  0  0  0  0  0  0  0  0
   85.9545  156.4915   12.5203 N   0  0  0  0  0  0  0  0  0  0  0  0
   85.1370  155.0925   14.6581 C   0  0  0  0  0  0  0  0  0  0  0  0
   85.1494  157.1882   13.3786 C   0  0  0  0  0  0  0  0  0  0  0  0
   84.3705  156.3631   14.3594 C   0  0  0  0  0  0  0  0  0  0  0  0
   85.0251  158.4073   13.3011 O   0  0  0  0  0  0  0  0  0  0  0  0
   86.5233  157.0288   11.9227 H   0  0  0  0  0  0  0  0  0  0  0  0
   85.5085  152.7664   15.8379 O   0  0  0  0  0  0  0  0  0  0  0  0
   84.2467  152.6737   16.4969 C   0  0  0  0  0  0  0  0  0  0  0  0
   86.3962  146.4612   14.6571 O   0  0  0  0  0  0  0  0  0  0  0  0
   85.6766  145.2145   14.8347 C   0  0  0  0  0  0  0  0  0  0  0  0
   85.1532  144.6752   13.4994 C   0  0  0  0  0  0  0  0  0  0  0  0
   84.4756  145.5841   15.7191 C   0  0  0  0  0  0  0  0  0  0  0  0
   86.5306  144.1816   15.5783 C   0  0  0  0  0  0  0  0  0  0  0  0
   81.7143  148.4531   14.9438 C   0  0  0  0  0  0  0  0  0  0  0  0
   80.8700  148.1482   13.7243 C   0  0  0  0  0  0  0  0  0  0  0  0
   80.5998  146.8234   13.3475 C   0  0  0  0  0  0  0  0  0  0  0  0
   80.3087  149.1905   12.9720 C   0  0  0  0  0  0  0  0  0  0  0  0
   79.8068  146.5481   12.2328 C   0  0  0  0  0  0  0  0  0  0  0  0
   79.5114  148.9133   11.8595 C   0  0  0  0  0  0  0  0  0  0  0  0
   79.2624  147.5930   11.4894 C   0  0  0  0  0  0  0  0  0  0  0  0
 15 16  2  0
 16 17  1  0
 16 18  1  0
 17 19  1  0
 18 20  1  0
  1 17  1  0
  1  2  2  0
  1  3  5  0
 19 21  1  0
 20 22  2  0
 20 21  1  0
  2 24  1  0
  2  4  5  0
  3  5  2  0
 24 25  1  0
  4  6  2  0
  4  7  1  0
  5  6  5  0
  6  8  1  0
  7  9  1  0
  7 10  1  0
  8 11  1  0
  8  9  1  0
  9 12  1  0
 10 13  1  0
 11 13  1  0
 12 14  2  0
 12 26  1  0
 13 31  1  0
 26 27  1  0
 31 32  1  0
 27 28  1  0
 27 29  1  0
 27 30  1  0
 32 33  2  0
 32 34  5  0
 33 35  5  0
 34 36  2  0
 35 37  2  0
 36 37  5  0
 18 23  1  0
M  END
> <ID>
EDEL-CRBN-0014_ent

> <Stereoisomer>
enantiomer

> <MW>
492.24

> <HBD>
1

> <HBA>
6

> <RotBonds>
4

> <cLogP>
3.99

> <minimizedAffinity>
-6.57047

> <CNNscore>
0.2678148746

> <CNNaffinity>
5.5630393028

> <CNN_VS>
1.4898647070

> <CNNaffinity_variance>
0.3358011544

> <Compound_Name>
EDEL-CRBN-0014_ent

> <Pose_Rank>
2
$$$$
EDEL-CRBN-0014_ent


 37 41  0  0  0  0  0  0  0  0999 V2000
   85.6204  152.9578   13.4450 C   0  0  0  0  0  0  0  0  0  0  0  0
   85.3683  152.2020   14.6090 C   0  0  0  0  0  0  0  0  0  0  0  0
   85.9895  152.2794   12.2539 C   0  0  0  0  0  0  0  0  0  0  0  0
   85.4191  150.8240   14.5271 C   0  0  0  0  0  0  0  0  0  0  0  0
   86.0562  150.8809   12.1846 C   0  0  0  0  0  0  0  0  0  0  0  0
   85.7605  150.1689   13.3261 C   0  0  0  0  0  0  0  0  0  0  0  0
   85.1292  149.7665   15.5655 C   0  0  0  0  0  0  0  0  0  0  0  0
   85.6883  148.6796   13.5793 C   0  0  0  0  0  0  0  0  0  0  0  0
   85.9135  148.6589   15.0226 N   0  0  0  0  0  0  0  0  0  0  0  0
   83.6271  149.3307   15.4846 C   0  0  0  0  0  0  0  0  0  0  0  0
   84.2301  148.1559   13.3535 C   0  0  0  0  0  0  0  0  0  0  0  0
   86.1901  147.5435   15.7604 C   0  0  0  0  0  0  0  0  0  0  0  0
   83.1895  148.9205   14.1069 N   0  0  0  0  0  0  0  0  0  0  0  0
   86.0490  147.4845   16.9739 O   0  0  0  0  0  0  0  0  0  0  0  0
   86.5807  154.7061   11.3738 O   0  0  0  0  0  0  0  0  0  0  0  0
   86.0008  155.1348   12.3668 C   0  0  0  0  0  0  0  0  0  0  0  0
   85.5279  154.3866   13.4478 N   0  0  0  0  0  0  0  0  0  0  0  0
   85.8159  156.4951   12.4799 N   0  0  0  0  0  0  0  0  0  0  0  0
   85.2656  155.0868   14.6956 C   0  0  0  0  0  0  0  0  0  0  0  0
   85.0381  157.1545   13.3912 C   0  0  0  0  0  0  0  0  0  0  0  0
   84.3961  156.2997   14.4429 C   0  0  0  0  0  0  0  0  0  0  0  0
   84.8284  158.3615   13.3075 O   0  0  0  0  0  0  0  0  0  0  0  0
   86.2985  157.0564   11.8309 H   0  0  0  0  0  0  0  0  0  0  0  0
   85.0994  152.7613   15.8270 O   0  0  0  0  0  0  0  0  0  0  0  0
   83.7024  152.7005   16.1097 C   0  0  0  0  0  0  0  0  0  0  0  0
   86.6249  146.5254   14.9755 O   0  0  0  0  0  0  0  0  0  0  0  0
   86.1828  145.1639   15.2087 C   0  0  0  0  0  0  0  0  0  0  0  0
   86.4800  144.2649   14.0039 C   0  0  0  0  0  0  0  0  0  0  0  0
   84.6592  145.2751   15.3737 C   0  0  0  0  0  0  0  0  0  0  0  0
   86.7746  144.6026   16.5063 C   0  0  0  0  0  0  0  0  0  0  0  0
   81.8992  148.2230   14.1057 C   0  0  0  0  0  0  0  0  0  0  0  0
   80.7873  148.9845   14.7963 C   0  0  0  0  0  0  0  0  0  0  0  0
   79.8423  149.7105   14.0547 C   0  0  0  0  0  0  0  0  0  0  0  0
   80.6604  148.9427   16.1925 C   0  0  0  0  0  0  0  0  0  0  0  0
   78.8095  150.3963   14.6952 C   0  0  0  0  0  0  0  0  0  0  0  0
   79.6235  149.6257   16.8317 C   0  0  0  0  0  0  0  0  0  0  0  0
   78.7000  150.3532   16.0833 C   0  0  0  0  0  0  0  0  0  0  0  0
 15 16  2  0
 16 17  1  0
 16 18  1  0
 17 19  1  0
 18 20  1  0
  1 17  1  0
  1  2  2  0
  1  3  5  0
 19 21  1  0
 20 22  2  0
 20 21  1  0
  2 24  1  0
  2  4  5  0
  3  5  2  0
 24 25  1  0
  4  6  2  0
  4  7  1  0
  5  6  5  0
  6  8  1  0
  7  9  1  0
  7 10  1  0
  8 11  1  0
  8  9  1  0
  9 12  1  0
 10 13  1  0
 11 13  1  0
 12 14  2  0
 12 26  1  0
 13 31  1  0
 26 27  1  0
 31 32  1  0
 27 28  1  0
 27 29  1  0
 27 30  1  0
 32 33  2  0
 32 34  5  0
 33 35  5  0
 34 36  2  0
 35 37  2  0
 36 37  5  0
 18 23  1  0
M  END
> <ID>
EDEL-CRBN-0014_ent

> <Stereoisomer>
enantiomer

> <MW>
492.24

> <HBD>
1

> <HBA>
6

> <RotBonds>
4

> <cLogP>
3.99

> <minimizedAffinity>
-6.68207

> <CNNscore>
0.2357571274

> <CNNaffinity>
5.5623412132

> <CNN_VS>
1.3113615513

> <CNNaffinity_variance>
0.2708122432

> <Compound_Name>
EDEL-CRBN-0014_ent

> <Pose_Rank>
3
$$$$
EDEL-CRBN-0014_ent


 37 41  0  0  0  0  0  0  0  0999 V2000
   85.3669  153.4971   13.0396 C   0  0  0  0  0  0  0  0  0  0  0  0
   86.5020  153.0972   12.3040 C   0  0  0  0  0  0  0  0  0  0  0  0
   84.4352  152.5091   13.4533 C   0  0  0  0  0  0  0  0  0  0  0  0
   86.7020  151.7494   12.0764 C   0  0  0  0  0  0  0  0  0  0  0  0
   84.6372  151.1448   13.2022 C   0  0  0  0  0  0  0  0  0  0  0  0
   85.7778  150.7817   12.5208 C   0  0  0  0  0  0  0  0  0  0  0  0
   87.8408  151.0257   11.3984 C   0  0  0  0  0  0  0  0  0  0  0  0
   86.3171  149.4218   12.1366 C   0  0  0  0  0  0  0  0  0  0  0  0
   87.1571  149.7962   11.0014 N   0  0  0  0  0  0  0  0  0  0  0  0
   88.9211  150.6136   12.4547 C   0  0  0  0  0  0  0  0  0  0  0  0
   87.2859  148.8845   13.2431 C   0  0  0  0  0  0  0  0  0  0  0  0
   87.7079  148.9229   10.1077 C   0  0  0  0  0  0  0  0  0  0  0  0
   88.3650  149.8474   13.6216 N   0  0  0  0  0  0  0  0  0  0  0  0
   88.6525  149.2040    9.3834 O   0  0  0  0  0  0  0  0  0  0  0  0
   85.3300  154.6228   15.6854 O   0  0  0  0  0  0  0  0  0  0  0  0
   85.1702  155.3144   14.6843 C   0  0  0  0  0  0  0  0  0  0  0  0
   85.1309  154.8725   13.3595 N   0  0  0  0  0  0  0  0  0  0  0  0
   84.9642  156.6664   14.8494 N   0  0  0  0  0  0  0  0  0  0  0  0
   84.5161  155.7445   12.3706 C   0  0  0  0  0  0  0  0  0  0  0  0
   84.9593  157.6303   13.8794 C   0  0  0  0  0  0  0  0  0  0  0  0
   85.0963  157.1391   12.4690 C   0  0  0  0  0  0  0  0  0  0  0  0
   84.9133  158.8255   14.1572 O   0  0  0  0  0  0  0  0  0  0  0  0
   84.8021  156.9736   15.7706 H   0  0  0  0  0  0  0  0  0  0  0  0
   87.4077  153.9762   11.7790 O   0  0  0  0  0  0  0  0  0  0  0  0
   87.7224  153.6277   10.4318 C   0  0  0  0  0  0  0  0  0  0  0  0
   87.0817  147.7194   10.1406 O   0  0  0  0  0  0  0  0  0  0  0  0
   87.5478  146.6146    9.3247 C   0  0  0  0  0  0  0  0  0  0  0  0
   87.4519  146.9424    7.8310 C   0  0  0  0  0  0  0  0  0  0  0  0
   86.5764  145.4660    9.6381 C   0  0  0  0  0  0  0  0  0  0  0  0
   88.9613  146.1826    9.7302 C   0  0  0  0  0  0  0  0  0  0  0  0
   89.4083  149.2019   14.4254 C   0  0  0  0  0  0  0  0  0  0  0  0
   90.0336  150.1083   15.4648 C   0  0  0  0  0  0  0  0  0  0  0  0
   91.2373  150.7814   15.2039 C   0  0  0  0  0  0  0  0  0  0  0  0
   89.3953  150.3217   16.6954 C   0  0  0  0  0  0  0  0  0  0  0  0
   91.8002  151.6291   16.1588 C   0  0  0  0  0  0  0  0  0  0  0  0
   89.9574  151.1740   17.6482 C   0  0  0  0  0  0  0  0  0  0  0  0
   91.1600  151.8256   17.3803 C   0  0  0  0  0  0  0  0  0  0  0  0
 15 16  2  0
 16 17  1  0
 16 18  1  0
 17 19  1  0
 18 20  1  0
  1 17  1  0
  1  2  2  0
  1  3  5  0
 19 21  1  0
 20 22  2  0
 20 21  1  0
  2 24  1  0
  2  4  5  0
  3  5  2  0
 24 25  1  0
  4  6  2  0
  4  7  1  0
  5  6  5  0
  6  8  1  0
  7  9  1  0
  7 10  1  0
  8 11  1  0
  8  9  1  0
  9 12  1  0
 10 13  1  0
 11 13  1  0
 12 14  2  0
 12 26  1  0
 13 31  1  0
 26 27  1  0
 31 32  1  0
 27 28  1  0
 27 29  1  0
 27 30  1  0
 32 33  2  0
 32 34  5  0
 33 35  5  0
 34 36  2  0
 35 37  2  0
 36 37  5  0
 18 23  1  0
M  END
> <ID>
EDEL-CRBN-0014_ent

> <Stereoisomer>
enantiomer

> <MW>
492.24

> <HBD>
1

> <HBA>
6

> <RotBonds>
4

> <cLogP>
3.99

> <minimizedAffinity>
-7.53733

> <CNNscore>
0.2298125625

> <CNNaffinity>
4.9358344078

> <CNN_VS>
1.1343168020

> <CNNaffinity_variance>
1.3060506582

> <Compound_Name>
EDEL-CRBN-0014_ent

> <Pose_Rank>
4
$$$$
EDEL-CRBN-0014_ent


 37 41  0  0  0  0  0  0  0  0999 V2000
   83.8582  152.2348   15.8359 C   0  0  0  0  0  0  0  0  0  0  0  0
   84.0548  150.9863   15.2096 C   0  0  0  0  0  0  0  0  0  0  0  0
   83.5571  152.2660   17.2228 C   0  0  0  0  0  0  0  0  0  0  0  0
   84.0190  149.8439   15.9854 C   0  0  0  0  0  0  0  0  0  0  0  0
   83.5050  151.0998   17.9990 C   0  0  0  0  0  0  0  0  0  0  0  0
   83.7460  149.8996   17.3676 C   0  0  0  0  0  0  0  0  0  0  0  0
   84.2623  148.3992   15.6190 C   0  0  0  0  0  0  0  0  0  0  0  0
   83.8162  148.4881   17.9064 C   0  0  0  0  0  0  0  0  0  0  0  0
   83.5160  147.7391   16.6886 N   0  0  0  0  0  0  0  0  0  0  0  0
   85.7698  148.0354   15.8373 C   0  0  0  0  0  0  0  0  0  0  0  0
   85.2882  148.1235   18.2961 C   0  0  0  0  0  0  0  0  0  0  0  0
   83.2097  146.4092   16.6375 C   0  0  0  0  0  0  0  0  0  0  0  0
   86.2821  148.3761   17.2082 N   0  0  0  0  0  0  0  0  0  0  0  0
   83.2875  145.7370   15.6187 O   0  0  0  0  0  0  0  0  0  0  0  0
   81.7317  153.4165   14.3029 O   0  0  0  0  0  0  0  0  0  0  0  0
   82.8273  153.9577   14.4163 C   0  0  0  0  0  0  0  0  0  0  0  0
   83.9395  153.4603   15.1001 N   0  0  0  0  0  0  0  0  0  0  0  0
   83.0301  155.1634   13.7818 N   0  0  0  0  0  0  0  0  0  0  0  0
   85.2434  154.0150   14.7707 C   0  0  0  0  0  0  0  0  0  0  0  0
   84.0893  156.0147   13.9350 C   0  0  0  0  0  0  0  0  0  0  0  0
   85.1971  155.5271   14.8207 C   0  0  0  0  0  0  0  0  0  0  0  0
   84.0959  157.1342   13.4307 O   0  0  0  0  0  0  0  0  0  0  0  0
   82.3332  155.4442   13.1456 H   0  0  0  0  0  0  0  0  0  0  0  0
   84.2554  150.8410   13.8652 O   0  0  0  0  0  0  0  0  0  0  0  0
   85.6500  150.8071   13.5667 C   0  0  0  0  0  0  0  0  0  0  0  0
   82.8244  145.9425   17.8521 O   0  0  0  0  0  0  0  0  0  0  0  0
   83.4548  144.7737   18.4352 C   0  0  0  0  0  0  0  0  0  0  0  0
   82.6454  143.5030   18.1554 C   0  0  0  0  0  0  0  0  0  0  0  0
   83.4404  145.0412   19.9482 C   0  0  0  0  0  0  0  0  0  0  0  0
   84.9113  144.6416   17.9768 C   0  0  0  0  0  0  0  0  0  0  0  0
   87.5759  147.7509   17.5019 C   0  0  0  0  0  0  0  0  0  0  0  0
   88.6985  148.7400   17.7357 C   0  0  0  0  0  0  0  0  0  0  0  0
   89.5928  148.5758   18.8049 C   0  0  0  0  0  0  0  0  0  0  0  0
   88.8870  149.8185   16.8591 C   0  0  0  0  0  0  0  0  0  0  0  0
   90.6360  149.4807   19.0056 C   0  0  0  0  0  0  0  0  0  0  0  0
   89.9343  150.7205   17.0584 C   0  0  0  0  0  0  0  0  0  0  0  0
   90.8068  150.5523   18.1321 C   0  0  0  0  0  0  0  0  0  0  0  0
 15 16  2  0
 16 17  1  0
 16 18  1  0
 17 19  1  0
 18 20  1  0
  1 17  1  0
  1  2  2  0
  1  3  5  0
 19 21  1  0
 20 22  2  0
 20 21  1  0
  2 24  1  0
  2  4  5  0
  3  5  2  0
 24 25  1  0
  4  6  2  0
  4  7  1  0
  5  6  5  0
  6  8  1  0
  7  9  1  0
  7 10  1  0
  8 11  1  0
  8  9  1  0
  9 12  1  0
 10 13  1  0
 11 13  1  0
 12 14  2  0
 12 26  1  0
 13 31  1  0
 26 27  1  0
 31 32  1  0
 27 28  1  0
 27 29  1  0
 27 30  1  0
 32 33  2  0
 32 34  5  0
 33 35  5  0
 34 36  2  0
 35 37  2  0
 36 37  5  0
 18 23  1  0
M  END
> <ID>
EDEL-CRBN-0014_ent

> <Stereoisomer>
enantiomer

> <MW>
492.24

> <HBD>
1

> <HBA>
6

> <RotBonds>
4

> <cLogP>
3.99

> <minimizedAffinity>
-6.02854

> <CNNscore>
0.1884094477

> <CNNaffinity>
5.4800515175

> <CNN_VS>
1.0324934721

> <CNNaffinity_variance>
0.1961715221

> <Compound_Name>
EDEL-CRBN-0014_ent

> <Pose_Rank>
5
$$$$
EDEL-CRBN-0014


 37 41  0  0  0  0  0  0  0  0999 V2000
   85.3749  153.9858   13.3064 C   0  0  0  0  0  0  0  0  0  0  0  0
   84.8363  153.0365   14.2028 C   0  0  0  0  0  0  0  0  0  0  0  0
   86.2553  153.5290   12.2912 C   0  0  0  0  0  0  0  0  0  0  0  0
   85.2393  151.7172   14.1032 C   0  0  0  0  0  0  0  0  0  0  0  0
   86.6407  152.1856   12.1797 C   0  0  0  0  0  0  0  0  0  0  0  0
   86.1324  151.2958   13.0984 C   0  0  0  0  0  0  0  0  0  0  0  0
   84.9064  150.5157   14.9552 C   0  0  0  0  0  0  0  0  0  0  0  0
   86.3867  149.8181   13.2947 C   0  0  0  0  0  0  0  0  0  0  0  0
   85.1629  149.4431   13.9950 N   0  0  0  0  0  0  0  0  0  0  0  0
   85.9690  150.3517   16.0933 C   0  0  0  0  0  0  0  0  0  0  0  0
   87.5614  149.6012   14.3084 C   0  0  0  0  0  0  0  0  0  0  0  0
   84.8003  148.1366   14.1600 C   0  0  0  0  0  0  0  0  0  0  0  0
   87.3853  150.3362   15.6059 N   0  0  0  0  0  0  0  0  0  0  0  0
   85.3092  147.2130   13.5401 O   0  0  0  0  0  0  0  0  0  0  0  0
   85.4552  155.9217   11.1631 O   0  0  0  0  0  0  0  0  0  0  0  0
   85.1893  156.2457   12.3177 C   0  0  0  0  0  0  0  0  0  0  0  0
   85.1059  155.3927   13.4175 N   0  0  0  0  0  0  0  0  0  0  0  0
   84.9340  157.5699   12.5844 N   0  0  0  0  0  0  0  0  0  0  0  0
   84.5922  155.9306   14.6726 C   0  0  0  0  0  0  0  0  0  0  0  0
   85.0476  158.1820   13.8015 C   0  0  0  0  0  0  0  0  0  0  0  0
   85.2291  157.2706   14.9773 C   0  0  0  0  0  0  0  0  0  0  0  0
   85.0801  159.4053   13.9044 O   0  0  0  0  0  0  0  0  0  0  0  0
   84.6423  158.1295   11.8287 H   0  0  0  0  0  0  0  0  0  0  0  0
   83.9118  153.3537   15.1618 O   0  0  0  0  0  0  0  0  0  0  0  0
   82.6038  152.9956   14.7036 C   0  0  0  0  0  0  0  0  0  0  0  0
   83.8283  148.0062   15.0974 O   0  0  0  0  0  0  0  0  0  0  0  0
   82.4348  147.8845   14.7145 C   0  0  0  0  0  0  0  0  0  0  0  0
   82.0362  146.4664   15.1512 C   0  0  0  0  0  0  0  0  0  0  0  0
   82.2652  147.9934   13.1951 C   0  0  0  0  0  0  0  0  0  0  0  0
   81.5582  148.8923   15.4655 C   0  0  0  0  0  0  0  0  0  0  0  0
   88.3049  149.8695   16.6487 C   0  0  0  0  0  0  0  0  0  0  0  0
   89.5817  150.6786   16.7258 C   0  0  0  0  0  0  0  0  0  0  0  0
   89.9650  151.2893   17.9297 C   0  0  0  0  0  0  0  0  0  0  0  0
   90.4078  150.8202   15.6019 C   0  0  0  0  0  0  0  0  0  0  0  0
   91.1456  152.0292   18.0063 C   0  0  0  0  0  0  0  0  0  0  0  0
   91.5892  151.5603   15.6805 C   0  0  0  0  0  0  0  0  0  0  0  0
   91.9575  152.1639   16.8818 C   0  0  0  0  0  0  0  0  0  0  0  0
 15 16  2  0
 16 17  1  0
 16 18  1  0
 17 19  1  0
 18 20  1  0
  1 17  1  0
  1  2  2  0
  1  3  5  0
 19 21  1  0
 20 22  2  0
 20 21  1  0
  2 24  1  0
  2  4  5  0
  3  5  2  0
 24 25  1  0
  4  6  2  0
  4  7  1  0
  5  6  5  0
  6  8  1  0
  7  9  1  0
  7 10  1  0
  8 11  1  0
  8  9  1  0
  9 12  1  0
 10 13  1  0
 11 13  1  0
 12 14  2  0
 12 26  1  0
 13 31  1  0
 26 27  1  0
 31 32  1  0
 27 28  1  0
 27 29  1  0
 27 30  1  0
 32 33  2  0
 32 34  5  0
 33 35  5  0
 34 36  2  0
 35 37  2  0
 36 37  5  0
 18 23  1  0
M  END
> <ID>
EDEL-CRBN-0014

> <Stereoisomer>
original

> <MW>
492.24

> <HBD>
1

> <HBA>
6

> <RotBonds>
4

> <cLogP>
3.99

> <minimizedAffinity>
-8.47006

> <CNNscore>
0.6648172736

> <CNNaffinity>
6.6238293648

> <CNN_VS>
4.4036359787

> <CNNaffinity_variance>
0.1652669460

> <Compound_Name>
EDEL-CRBN-0014

> <Pose_Rank>
1
$$$$
EDEL-CRBN-0014


 37 41  0  0  0  0  0  0  0  0999 V2000
   84.3867  153.8774   13.2362 C   0  0  0  0  0  0  0  0  0  0  0  0
   83.4177  153.0794   13.8833 C   0  0  0  0  0  0  0  0  0  0  0  0
   85.3811  153.2298   12.4576 C   0  0  0  0  0  0  0  0  0  0  0  0
   83.5148  151.7027   13.7930 C   0  0  0  0  0  0  0  0  0  0  0  0
   85.4595  151.8341   12.3494 C   0  0  0  0  0  0  0  0  0  0  0  0
   84.5264  151.0861   13.0304 C   0  0  0  0  0  0  0  0  0  0  0  0
   82.6913  150.6103   14.4324 C   0  0  0  0  0  0  0  0  0  0  0  0
   84.3667  149.5892   13.1733 C   0  0  0  0  0  0  0  0  0  0  0  0
   82.9454  149.5173   13.4949 N   0  0  0  0  0  0  0  0  0  0  0  0
   83.3321  150.1803   15.7947 C   0  0  0  0  0  0  0  0  0  0  0  0
   85.1341  149.0818   14.4415 C   0  0  0  0  0  0  0  0  0  0  0  0
   82.2585  148.3373   13.4579 C   0  0  0  0  0  0  0  0  0  0  0  0
   84.7839  149.8244   15.6988 N   0  0  0  0  0  0  0  0  0  0  0  0
   82.6893  147.3237   12.9255 O   0  0  0  0  0  0  0  0  0  0  0  0
   84.5261  155.8124   11.0951 O   0  0  0  0  0  0  0  0  0  0  0  0
   84.5154  156.1532   12.2752 C   0  0  0  0  0  0  0  0  0  0  0  0
   84.4318  155.3063   13.3796 N   0  0  0  0  0  0  0  0  0  0  0  0
   84.5810  157.4942   12.5706 N   0  0  0  0  0  0  0  0  0  0  0  0
   84.2410  155.9040   14.6967 C   0  0  0  0  0  0  0  0  0  0  0  0
   85.0057  158.0383   13.7506 C   0  0  0  0  0  0  0  0  0  0  0  0
   85.1780  157.0785   14.8887 C   0  0  0  0  0  0  0  0  0  0  0  0
   85.3033  159.2264   13.8394 O   0  0  0  0  0  0  0  0  0  0  0  0
   84.2957  158.1210   11.8670 H   0  0  0  0  0  0  0  0  0  0  0  0
   82.3652  153.6030   14.5856 O   0  0  0  0  0  0  0  0  0  0  0  0
   81.5389  152.5409   15.0737 C   0  0  0  0  0  0  0  0  0  0  0  0
   81.0638  148.4387   14.0926 O   0  0  0  0  0  0  0  0  0  0  0  0
   79.8180  148.2969   13.3637 C   0  0  0  0  0  0  0  0  0  0  0  0
   80.1183  148.8690   11.9697 C   0  0  0  0  0  0  0  0  0  0  0  0
   78.7026  149.1308   14.0038 C   0  0  0  0  0  0  0  0  0  0  0  0
   79.4221  146.8243   13.2135 C   0  0  0  0  0  0  0  0  0  0  0  0
   85.2472  149.1368   16.9085 C   0  0  0  0  0  0  0  0  0  0  0  0
   84.3617  149.3811   18.1114 C   0  0  0  0  0  0  0  0  0  0  0  0
   83.6341  150.5754   18.2280 C   0  0  0  0  0  0  0  0  0  0  0  0
   84.2435  148.4152   19.1207 C   0  0  0  0  0  0  0  0  0  0  0  0
   82.8106  150.8004   19.3318 C   0  0  0  0  0  0  0  0  0  0  0  0
   83.4184  148.6417   20.2241 C   0  0  0  0  0  0  0  0  0  0  0  0
   82.7027  149.8332   20.3291 C   0  0  0  0  0  0  0  0  0  0  0  0
 15 16  2  0
 16 17  1  0
 16 18  1  0
 17 19  1  0
 18 20  1  0
  1 17  1  0
  1  2  2  0
  1  3  5  0
 19 21  1  0
 20 22  2  0
 20 21  1  0
  2 24  1  0
  2  4  5  0
  3  5  2  0
 24 25  1  0
  4  6  2  0
  4  7  1  0
  5  6  5  0
  6  8  1  0
  7  9  1  0
  7 10  1  0
  8 11  1  0
  8  9  1  0
  9 12  1  0
 10 13  1  0
 11 13  1  0
 12 14  2  0
 12 26  1  0
 13 31  1  0
 26 27  1  0
 31 32  1  0
 27 28  1  0
 27 29  1  0
 27 30  1  0
 32 33  2  0
 32 34  5  0
 33 35  5  0
 34 36  2  0
 35 37  2  0
 36 37  5  0
 18 23  1  0
M  END
> <ID>
EDEL-CRBN-0014

> <Stereoisomer>
original

> <MW>
492.24

> <HBD>
1

> <HBA>
6

> <RotBonds>
4

> <cLogP>
3.99

> <minimizedAffinity>
-8.31815

> <CNNscore>
0.5288452506

> <CNNaffinity>
6.3883290291

> <CNN_VS>
3.3784375191

> <CNNaffinity_variance>
0.4799714088

> <Compound_Name>
EDEL-CRBN-0014

> <Pose_Rank>
2
$$$$
EDEL-CRBN-0014


 37 41  0  0  0  0  0  0  0  0999 V2000
   84.8939  152.9542   13.2324 C   0  0  0  0  0  0  0  0  0  0  0  0
   84.5510  152.3150   14.4442 C   0  0  0  0  0  0  0  0  0  0  0  0
   85.2391  152.1447   12.1188 C   0  0  0  0  0  0  0  0  0  0  0  0
   84.6326  150.9365   14.5210 C   0  0  0  0  0  0  0  0  0  0  0  0
   85.2958  150.7460   12.1956 C   0  0  0  0  0  0  0  0  0  0  0  0
   84.9999  150.1591   13.4048 C   0  0  0  0  0  0  0  0  0  0  0  0
   84.4133  149.9971   15.6828 C   0  0  0  0  0  0  0  0  0  0  0  0
   85.0241  148.7103   13.8372 C   0  0  0  0  0  0  0  0  0  0  0  0
   84.0937  148.7671   14.9596 N   0  0  0  0  0  0  0  0  0  0  0  0
   85.7667  149.7331   16.4245 C   0  0  0  0  0  0  0  0  0  0  0  0
   86.4242  148.3490   14.4404 C   0  0  0  0  0  0  0  0  0  0  0  0
   83.5765  147.6354   15.5230 C   0  0  0  0  0  0  0  0  0  0  0  0
   86.8766  149.2846   15.5242 N   0  0  0  0  0  0  0  0  0  0  0  0
   83.6393  146.5324   14.9978 O   0  0  0  0  0  0  0  0  0  0  0  0
   86.8766  154.4604   11.7666 O   0  0  0  0  0  0  0  0  0  0  0  0
   85.9692  155.0136   12.3828 C   0  0  0  0  0  0  0  0  0  0  0  0
   84.9552  154.3838   13.1033 N   0  0  0  0  0  0  0  0  0  0  0  0
   85.9132  156.3871   12.3734 N   0  0  0  0  0  0  0  0  0  0  0  0
   83.8578  155.2001   13.6109 C   0  0  0  0  0  0  0  0  0  0  0  0
   85.2882  157.1732   13.3009 C   0  0  0  0  0  0  0  0  0  0  0  0
   84.3893  156.4590   14.2643 C   0  0  0  0  0  0  0  0  0  0  0  0
   85.5193  158.3764   13.3831 O   0  0  0  0  0  0  0  0  0  0  0  0
   86.3651  156.8474   11.6297 H   0  0  0  0  0  0  0  0  0  0  0  0
   84.1186  152.9941   15.5519 O   0  0  0  0  0  0  0  0  0  0  0  0
   85.2216  153.2214   16.4356 C   0  0  0  0  0  0  0  0  0  0  0  0
   83.0083  147.8958   16.7271 O   0  0  0  0  0  0  0  0  0  0  0  0
   83.4915  147.2531   17.9341 C   0  0  0  0  0  0  0  0  0  0  0  0
   82.4202  146.2038   18.2687 C   0  0  0  0  0  0  0  0  0  0  0  0
   83.5795  148.2489   19.0959 C   0  0  0  0  0  0  0  0  0  0  0  0
   84.8221  146.5334   17.6905 C   0  0  0  0  0  0  0  0  0  0  0  0
   88.0075  148.7542   16.2926 C   0  0  0  0  0  0  0  0  0  0  0  0
   89.3419  149.3269   15.8653 C   0  0  0  0  0  0  0  0  0  0  0  0
   90.5386  148.7908   16.3650 C   0  0  0  0  0  0  0  0  0  0  0  0
   89.4050  150.3915   14.9552 C   0  0  0  0  0  0  0  0  0  0  0  0
   91.7707  149.3111   15.9670 C   0  0  0  0  0  0  0  0  0  0  0  0
   90.6387  150.9104   14.5575 C   0  0  0  0  0  0  0  0  0  0  0  0
   91.8202  150.3703   15.0630 C   0  0  0  0  0  0  0  0  0  0  0  0
 15 16  2  0
 16 17  1  0
 16 18  1  0
 17 19  1  0
 18 20  1  0
  1 17  1  0
  1  2  2  0
  1  3  5  0
 19 21  1  0
 20 22  2  0
 20 21  1  0
  2 24  1  0
  2  4  5  0
  3  5  2  0
 24 25  1  0
  4  6  2  0
  4  7  1  0
  5  6  5  0
  6  8  1  0
  7  9  1  0
  7 10  1  0
  8 11  1  0
  8  9  1  0
  9 12  1  0
 10 13  1  0
 11 13  1  0
 12 14  2  0
 12 26  1  0
 13 31  1  0
 26 27  1  0
 31 32  1  0
 27 28  1  0
 27 29  1  0
 27 30  1  0
 32 33  2  0
 32 34  5  0
 33 35  5  0
 34 36  2  0
 35 37  2  0
 36 37  5  0
 18 23  1  0
M  END
> <ID>
EDEL-CRBN-0014

> <Stereoisomer>
original

> <MW>
492.24

> <HBD>
1

> <HBA>
6

> <RotBonds>
4

> <cLogP>
3.99

> <minimizedAffinity>
-5.88552

> <CNNscore>
0.2943381071

> <CNNaffinity>
5.8339133263

> <CNN_VS>
1.7171430588

> <CNNaffinity_variance>
0.4168354273

> <Compound_Name>
EDEL-CRBN-0014

> <Pose_Rank>
3
$$$$
EDEL-CRBN-0014


 37 41  0  0  0  0  0  0  0  0999 V2000
   85.0402  153.1087   13.2151 C   0  0  0  0  0  0  0  0  0  0  0  0
   84.2163  152.3219   14.0499 C   0  0  0  0  0  0  0  0  0  0  0  0
   85.8138  152.4530   12.2220 C   0  0  0  0  0  0  0  0  0  0  0  0
   84.2476  150.9457   13.9171 C   0  0  0  0  0  0  0  0  0  0  0  0
   85.8222  151.0587   12.0756 C   0  0  0  0  0  0  0  0  0  0  0  0
   85.0426  150.3202   12.9364 C   0  0  0  0  0  0  0  0  0  0  0  0
   83.5546  149.8610   14.7068 C   0  0  0  0  0  0  0  0  0  0  0  0
   84.8722  148.8252   13.0863 C   0  0  0  0  0  0  0  0  0  0  0  0
   83.5577  148.7838   13.7180 N   0  0  0  0  0  0  0  0  0  0  0  0
   84.4708  149.3824   15.8827 C   0  0  0  0  0  0  0  0  0  0  0  0
   85.8881  148.2679   14.1409 C   0  0  0  0  0  0  0  0  0  0  0  0
   82.8433  147.6239   13.8166 C   0  0  0  0  0  0  0  0  0  0  0  0
   85.8523  148.9900   15.4569 N   0  0  0  0  0  0  0  0  0  0  0  0
   83.1117  146.6118   13.1841 O   0  0  0  0  0  0  0  0  0  0  0  0
   85.3612  154.5444   15.7019 O   0  0  0  0  0  0  0  0  0  0  0  0
   85.2961  155.1270   14.6224 C   0  0  0  0  0  0  0  0  0  0  0  0
   85.1610  154.5321   13.3686 N   0  0  0  0  0  0  0  0  0  0  0  0
   85.3703  156.4997   14.6131 N   0  0  0  0  0  0  0  0  0  0  0  0
   85.2922  155.3752   12.1853 C   0  0  0  0  0  0  0  0  0  0  0  0
   84.9011  157.3241   13.6288 C   0  0  0  0  0  0  0  0  0  0  0  0
   84.4958  156.6529   12.3515 C   0  0  0  0  0  0  0  0  0  0  0  0
   84.7479  158.5277   13.8184 O   0  0  0  0  0  0  0  0  0  0  0  0
   85.8014  156.9288   15.3872 H   0  0  0  0  0  0  0  0  0  0  0  0
   83.3651  152.8570   14.9796 O   0  0  0  0  0  0  0  0  0  0  0  0
   82.1232  153.1959   14.3533 C   0  0  0  0  0  0  0  0  0  0  0  0
   81.8251  147.7423   14.7052 O   0  0  0  0  0  0  0  0  0  0  0  0
   80.4554  147.8954   14.2537 C   0  0  0  0  0  0  0  0  0  0  0  0
   79.8881  149.0319   15.1180 C   0  0  0  0  0  0  0  0  0  0  0  0
   79.6386  146.6259   14.5186 C   0  0  0  0  0  0  0  0  0  0  0  0
   80.3955  148.3223   12.7832 C   0  0  0  0  0  0  0  0  0  0  0  0
   86.5532  148.2622   16.5198 C   0  0  0  0  0  0  0  0  0  0  0  0
   87.8931  148.8690   16.8768 C   0  0  0  0  0  0  0  0  0  0  0  0
   88.7750  148.1918   17.7329 C   0  0  0  0  0  0  0  0  0  0  0  0
   88.2802  150.1089   16.3491 C   0  0  0  0  0  0  0  0  0  0  0  0
   90.0143  148.7448   18.0577 C   0  0  0  0  0  0  0  0  0  0  0  0
   89.5210  150.6604   16.6746 C   0  0  0  0  0  0  0  0  0  0  0  0
   90.3870  149.9785   17.5279 C   0  0  0  0  0  0  0  0  0  0  0  0
 15 16  2  0
 16 17  1  0
 16 18  1  0
 17 19  1  0
 18 20  1  0
  1 17  1  0
  1  2  2  0
  1  3  5  0
 19 21  1  0
 20 22  2  0
 20 21  1  0
  2 24  1  0
  2  4  5  0
  3  5  2  0
 24 25  1  0
  4  6  2  0
  4  7  1  0
  5  6  5  0
  6  8  1  0
  7  9  1  0
  7 10  1  0
  8 11  1  0
  8  9  1  0
  9 12  1  0
 10 13  1  0
 11 13  1  0
 12 14  2  0
 12 26  1  0
 13 31  1  0
 26 27  1  0
 31 32  1  0
 27 28  1  0
 27 29  1  0
 27 30  1  0
 32 33  2  0
 32 34  5  0
 33 35  5  0
 34 36  2  0
 35 37  2  0
 36 37  5  0
 18 23  1  0
M  END
> <ID>
EDEL-CRBN-0014

> <Stereoisomer>
original

> <MW>
492.24

> <HBD>
1

> <HBA>
6

> <RotBonds>
4

> <cLogP>
3.99

> <minimizedAffinity>
-7.13084

> <CNNscore>
0.2336563468

> <CNNaffinity>
4.8631973267

> <CNN_VS>
1.1363168955

> <CNNaffinity_variance>
1.4219231606

> <Compound_Name>
EDEL-CRBN-0014

> <Pose_Rank>
4
$$$$
EDEL-CRBN-0014


 37 41  0  0  0  0  0  0  0  0999 V2000
   84.4521  153.0247   13.1852 C   0  0  0  0  0  0  0  0  0  0  0  0
   83.2589  152.4744   13.7030 C   0  0  0  0  0  0  0  0  0  0  0  0
   85.3882  152.1489   12.5760 C   0  0  0  0  0  0  0  0  0  0  0  0
   83.0800  151.1036   13.6613 C   0  0  0  0  0  0  0  0  0  0  0  0
   85.1899  150.7624   12.5144 C   0  0  0  0  0  0  0  0  0  0  0  0
   84.0371  150.2556   13.0698 C   0  0  0  0  0  0  0  0  0  0  0  0
   81.9679  150.2356   14.1999 C   0  0  0  0  0  0  0  0  0  0  0  0
   83.5526  148.8315   13.2241 C   0  0  0  0  0  0  0  0  0  0  0  0
   82.1168  149.0650   13.3364 N   0  0  0  0  0  0  0  0  0  0  0  0
   82.3116  149.7592   15.6512 C   0  0  0  0  0  0  0  0  0  0  0  0
   84.0157  148.2488   14.6028 C   0  0  0  0  0  0  0  0  0  0  0  0
   81.2120  148.0475   13.2281 C   0  0  0  0  0  0  0  0  0  0  0  0
   83.6571  149.1131   15.7770 N   0  0  0  0  0  0  0  0  0  0  0  0
   81.4926  146.9408   12.7891 O   0  0  0  0  0  0  0  0  0  0  0  0
   85.2277  154.4156   15.5960 O   0  0  0  0  0  0  0  0  0  0  0  0
   85.1201  154.9976   14.5196 C   0  0  0  0  0  0  0  0  0  0  0  0
   84.7721  154.4207   13.2989 N   0  0  0  0  0  0  0  0  0  0  0  0
   85.3697  156.3488   14.4775 N   0  0  0  0  0  0  0  0  0  0  0  0
   84.8801  155.2350   12.0933 C   0  0  0  0  0  0  0  0  0  0  0  0
   84.9056  157.2237   13.5353 C   0  0  0  0  0  0  0  0  0  0  0  0
   84.2789  156.6063   12.3219 C   0  0  0  0  0  0  0  0  0  0  0  0
   84.9311  158.4377   13.7185 O   0  0  0  0  0  0  0  0  0  0  0  0
   85.9353  156.7209   15.1923 H   0  0  0  0  0  0  0  0  0  0  0  0
   82.2512  153.2365   14.2312 O   0  0  0  0  0  0  0  0  0  0  0  0
   82.1943  153.0405   15.6480 C   0  0  0  0  0  0  0  0  0  0  0  0
   79.9884  148.4217   13.6789 O   0  0  0  0  0  0  0  0  0  0  0  0
   78.8119  148.2858   12.8419 C   0  0  0  0  0  0  0  0  0  0  0  0
   79.1806  149.0075   11.5365 C   0  0  0  0  0  0  0  0  0  0  0  0
   77.6026  148.9916   13.4654 C   0  0  0  0  0  0  0  0  0  0  0  0
   78.5192  146.8160   12.5225 C   0  0  0  0  0  0  0  0  0  0  0  0
   83.7965  148.4124   17.0577 C   0  0  0  0  0  0  0  0  0  0  0  0
   85.2375  148.1887   17.4633 C   0  0  0  0  0  0  0  0  0  0  0  0
   86.2695  148.9173   16.8523 C   0  0  0  0  0  0  0  0  0  0  0  0
   85.5635  147.2615   18.4631 C   0  0  0  0  0  0  0  0  0  0  0  0
   87.5983  148.7193   17.2295 C   0  0  0  0  0  0  0  0  0  0  0  0
   86.8936  147.0652   18.8398 C   0  0  0  0  0  0  0  0  0  0  0  0
   87.9097  147.7937   18.2235 C   0  0  0  0  0  0  0  0  0  0  0  0
 15 16  2  0
 16 17  1  0
 16 18  1  0
 17 19  1  0
 18 20  1  0
  1 17  1  0
  1  2  2  0
  1  3  5  0
 19 21  1  0
 20 22  2  0
 20 21  1  0
  2 24  1  0
  2  4  5  0
  3  5  2  0
 24 25  1  0
  4  6  2  0
  4  7  1  0
  5  6  5  0
  6  8  1  0
  7  9  1  0
  7 10  1  0
  8 11  1  0
  8  9  1  0
  9 12  1  0
 10 13  1  0
 11 13  1  0
 12 14  2  0
 12 26  1  0
 13 31  1  0
 26 27  1  0
 31 32  1  0
 27 28  1  0
 27 29  1  0
 27 30  1  0
 32 33  2  0
 32 34  5  0
 33 35  5  0
 34 36  2  0
 35 37  2  0
 36 37  5  0
 18 23  1  0
M  END
> <ID>
EDEL-CRBN-0014

> <Stereoisomer>
original

> <MW>
492.24

> <HBD>
1

> <HBA>
6

> <RotBonds>
4

> <cLogP>
3.99

> <minimizedAffinity>
-7.52869

> <CNNscore>
0.2285783738

> <CNNaffinity>
4.6873869896

> <CNN_VS>
1.0714353323

> <CNNaffinity_variance>
1.6906833649

> <Compound_Name>
EDEL-CRBN-0014

> <Pose_Rank>
5
$$$$
EDEL-CRBN-0015_ent


 37 41  0  0  0  0  0  0  0  0999 V2000
   84.5731  151.2082   13.0735 C   0  0  0  0  0  0  0  0  0  0  0  0
   85.6656  151.9193   12.5306 C   0  0  0  0  0  0  0  0  0  0  0  0
   83.5998  151.9761   13.7397 C   0  0  0  0  0  0  0  0  0  0  0  0
   85.7941  153.3124   12.6403 C   0  0  0  0  0  0  0  0  0  0  0  0
   83.7105  153.3659   13.8781 C   0  0  0  0  0  0  0  0  0  0  0  0
   84.8040  154.0485   13.3214 C   0  0  0  0  0  0  0  0  0  0  0  0
   87.6320  147.5929   14.9348 N   0  0  0  0  0  0  0  0  0  0  0  0
   87.1495  147.5037   13.5474 C   0  0  0  0  0  0  0  0  0  0  0  0
   86.6680  148.2367   15.8438 C   0  0  0  0  0  0  0  0  0  0  0  0
   85.6289  147.3743   13.4867 C   0  0  0  0  0  0  0  0  0  0  0  0
   85.8242  149.3032   15.1508 C   0  0  0  0  0  0  0  0  0  0  0  0
   84.9954  148.6672   14.0282 C   0  0  0  0  0  0  0  0  0  0  0  0
   83.6407  148.3837   14.5022 O   0  0  0  0  0  0  0  0  0  0  0  0
   84.4109  149.6235   12.9325 C   0  0  0  0  0  0  0  0  0  0  0  0
   83.0687  148.9729   13.3119 C   0  0  0  0  0  0  0  0  0  0  0  0
   88.9704  148.1941   15.0360 C   0  0  0  0  0  0  0  0  0  0  0  0
   90.4156  151.7002   18.6445 Cl  0  0  0  0  0  0  0  0  0  0  0  0
   90.0538  150.0861   18.1644 C   0  0  0  0  0  0  0  0  0  0  0  0
   89.6811  149.8005   16.8509 C   0  0  0  0  0  0  0  0  0  0  0  0
   90.1427  149.0592   19.1042 C   0  0  0  0  0  0  0  0  0  0  0  0
   89.6147  150.7896   15.9451 F   0  0  0  0  0  0  0  0  0  0  0  0
   89.3912  148.4882   16.4566 C   0  0  0  0  0  0  0  0  0  0  0  0
   89.8598  147.7461   18.7255 C   0  0  0  0  0  0  0  0  0  0  0  0
   89.4862  147.4614   17.4098 C   0  0  0  0  0  0  0  0  0  0  0  0
   84.9259  155.4660   13.4348 N   0  0  0  0  0  0  0  0  0  0  0  0
   84.8132  156.2989   12.3284 C   0  0  0  0  0  0  0  0  0  0  0  0
   85.5025  156.0013   14.6589 C   0  0  0  0  0  0  0  0  0  0  0  0
   84.4121  155.9731   11.2131 O   0  0  0  0  0  0  0  0  0  0  0  0
   85.1040  157.6209   12.5749 N   0  0  0  0  0  0  0  0  0  0  0  0
   84.8629  157.3312   14.9881 C   0  0  0  0  0  0  0  0  0  0  0  0
   84.9701  158.2354   13.7907 C   0  0  0  0  0  0  0  0  0  0  0  0
   84.8640  159.4564   13.8806 O   0  0  0  0  0  0  0  0  0  0  0  0
   85.4322  158.1642   11.8223 H   0  0  0  0  0  0  0  0  0  0  0  0
   86.8565  154.0270   12.1396 O   0  0  0  0  0  0  0  0  0  0  0  0
   87.7439  153.3585   11.2524 C   0  0  0  0  0  0  0  0  0  0  0  0
   82.6758  154.0907   14.4205 O   0  0  0  0  0  0  0  0  0  0  0  0
   81.6820  153.2616   15.0239 C   0  0  0  0  0  0  0  0  0  0  0  0
 18 17  1  0
 18 19  2  0
 18 20  5  0
 19 21  1  0
 19 22  5  0
 20 23  2  0
 22 24  2  0
 22 16  1  0
 23 24  5  0
 16  7  1  0
  7  8  1  0
  7  9  1  0
  8 10  1  0
  9 11  1  0
 12 11  1  0
 12 10  1  0
 12 13  1  0
 12 14  1  0
 13 15  1  0
 14  1  1  0
 14 15  1  0
  1  2  2  0
  1  3  5  0
  2  4  5  0
  3  5  2  0
  4 34  1  0
  4  6  2  0
  5 36  1  0
  5  6  5  0
 34 35  1  0
  6 25  1  0
 36 37  1  0
 25 26  1  0
 25 27  1  0
 26 28  2  0
 26 29  1  0
 27 30  1  0
 29 31  1  0
 30 31  1  0
 31 32  2  0
 29 33  1  0
M  END
> <ID>
EDEL-CRBN-0015_ent

> <Stereoisomer>
enantiomer

> <MW>
517.18

> <HBD>
1

> <HBA>
6

> <RotBonds>
6

> <cLogP>
4.09

> <minimizedAffinity>
-7.68612

> <CNNscore>
0.7952077389

> <CNNaffinity>
6.7457432747

> <CNN_VS>
5.3642673492

> <CNNaffinity_variance>
0.3262837231

> <Compound_Name>
EDEL-CRBN-0015_ent

> <Pose_Rank>
1
$$$$
EDEL-CRBN-0015_ent


 37 41  0  0  0  0  0  0  0  0999 V2000
   84.3233  151.0581   14.0174 C   0  0  0  0  0  0  0  0  0  0  0  0
   85.4466  151.6121   13.3656 C   0  0  0  0  0  0  0  0  0  0  0  0
   83.4075  151.9748   14.5668 C   0  0  0  0  0  0  0  0  0  0  0  0
   85.6583  152.9956   13.2626 C   0  0  0  0  0  0  0  0  0  0  0  0
   83.6016  153.3604   14.4929 C   0  0  0  0  0  0  0  0  0  0  0  0
   84.7242  153.8842   13.8316 C   0  0  0  0  0  0  0  0  0  0  0  0
   80.4544  148.6817   16.3143 N   0  0  0  0  0  0  0  0  0  0  0  0
   81.8323  148.2062   16.5168 C   0  0  0  0  0  0  0  0  0  0  0  0
   80.2315  149.2619   14.9788 C   0  0  0  0  0  0  0  0  0  0  0  0
   82.4610  147.7273   15.2100 C   0  0  0  0  0  0  0  0  0  0  0  0
   81.4746  149.9469   14.4176 C   0  0  0  0  0  0  0  0  0  0  0  0
   82.6076  148.9260   14.2573 C   0  0  0  0  0  0  0  0  0  0  0  0
   82.6605  148.4463   12.8762 O   0  0  0  0  0  0  0  0  0  0  0  0
   84.0662  149.4830   14.1187 C   0  0  0  0  0  0  0  0  0  0  0  0
   84.0933  148.6370   12.8333 C   0  0  0  0  0  0  0  0  0  0  0  0
   79.9962  149.5772   17.3873 C   0  0  0  0  0  0  0  0  0  0  0  0
   81.2604  147.8292   22.1569 Cl  0  0  0  0  0  0  0  0  0  0  0  0
   81.5580  148.8256   20.7837 C   0  0  0  0  0  0  0  0  0  0  0  0
   80.6930  148.8071   19.6896 C   0  0  0  0  0  0  0  0  0  0  0  0
   82.6751  149.6610   20.7769 C   0  0  0  0  0  0  0  0  0  0  0  0
   79.6088  148.0150   19.7084 F   0  0  0  0  0  0  0  0  0  0  0  0
   80.9299  149.6199   18.5739 C   0  0  0  0  0  0  0  0  0  0  0  0
   82.9227  150.4788   19.6735 C   0  0  0  0  0  0  0  0  0  0  0  0
   82.0558  150.4591   18.5781 C   0  0  0  0  0  0  0  0  0  0  0  0
   84.9307  155.2927   13.7286 N   0  0  0  0  0  0  0  0  0  0  0  0
   84.9518  155.9390   12.4989 C   0  0  0  0  0  0  0  0  0  0  0  0
   85.4530  155.9886   14.8949 C   0  0  0  0  0  0  0  0  0  0  0  0
   84.6101  155.4579   11.4206 O   0  0  0  0  0  0  0  0  0  0  0  0
   85.3108  157.2661   12.5555 N   0  0  0  0  0  0  0  0  0  0  0  0
   84.8807  157.3866   14.9568 C   0  0  0  0  0  0  0  0  0  0  0  0
   85.1317  158.0767   13.6440 C   0  0  0  0  0  0  0  0  0  0  0  0
   85.1001  159.2999   13.5306 O   0  0  0  0  0  0  0  0  0  0  0  0
   85.7265  157.6612   11.7554 H   0  0  0  0  0  0  0  0  0  0  0  0
   86.7525  153.5613   12.6521 O   0  0  0  0  0  0  0  0  0  0  0  0
   87.2970  152.8944   11.5206 C   0  0  0  0  0  0  0  0  0  0  0  0
   82.6200  154.2196   14.9268 O   0  0  0  0  0  0  0  0  0  0  0  0
   81.8234  154.7283   13.8564 C   0  0  0  0  0  0  0  0  0  0  0  0
 18 17  1  0
 18 19  2  0
 18 20  5  0
 19 21  1  0
 19 22  5  0
 20 23  2  0
 22 24  2  0
 22 16  1  0
 23 24  5  0
 16  7  1  0
  7  8  1  0
  7  9  1  0
  8 10  1  0
  9 11  1  0
 12 11  1  0
 12 10  1  0
 12 13  1  0
 12 14  1  0
 13 15  1  0
 14  1  1  0
 14 15  1  0
  1  2  2  0
  1  3  5  0
  2  4  5  0
  3  5  2  0
  4 34  1  0
  4  6  2  0
  5 36  1  0
  5  6  5  0
 34 35  1  0
  6 25  1  0
 36 37  1  0
 25 26  1  0
 25 27  1  0
 26 28  2  0
 26 29  1  0
 27 30  1  0
 29 31  1  0
 30 31  1  0
 31 32  2  0
 29 33  1  0
M  END
> <ID>
EDEL-CRBN-0015_ent

> <Stereoisomer>
enantiomer

> <MW>
517.18

> <HBD>
1

> <HBA>
6

> <RotBonds>
6

> <cLogP>
4.09

> <minimizedAffinity>
-7.34563

> <CNNscore>
0.4677719772

> <CNNaffinity>
6.1978144646

> <CNN_VS>
2.8991639614

> <CNNaffinity_variance>
0.8166047931

> <Compound_Name>
EDEL-CRBN-0015_ent

> <Pose_Rank>
2
$$$$
EDEL-CRBN-0015_ent


 37 41  0  0  0  0  0  0  0  0999 V2000
   87.9605  152.6353   11.2233 C   0  0  0  0  0  0  0  0  0  0  0  0
   87.0752  153.7174   11.4205 C   0  0  0  0  0  0  0  0  0  0  0  0
   87.7789  151.5213   12.0641 C   0  0  0  0  0  0  0  0  0  0  0  0
   86.0662  153.7044   12.3959 C   0  0  0  0  0  0  0  0  0  0  0  0
   86.7905  151.4873   13.0565 C   0  0  0  0  0  0  0  0  0  0  0  0
   85.9185  152.5749   13.2255 C   0  0  0  0  0  0  0  0  0  0  0  0
   89.2966  148.8059    8.1505 N   0  0  0  0  0  0  0  0  0  0  0  0
   90.3340  149.5972    8.8312 C   0  0  0  0  0  0  0  0  0  0  0  0
   88.0946  149.5898    7.8175 C   0  0  0  0  0  0  0  0  0  0  0  0
   90.3049  151.0602    8.3936 C   0  0  0  0  0  0  0  0  0  0  0  0
   87.8134  150.6980    8.8286 C   0  0  0  0  0  0  0  0  0  0  0  0
   88.9801  151.6928    8.8529 C   0  0  0  0  0  0  0  0  0  0  0  0
   88.6740  152.8477    8.0086 O   0  0  0  0  0  0  0  0  0  0  0  0
   89.0978  152.6363   10.0991 C   0  0  0  0  0  0  0  0  0  0  0  0
   89.1063  153.7582    9.0455 C   0  0  0  0  0  0  0  0  0  0  0  0
   88.9641  147.5649    8.8661 C   0  0  0  0  0  0  0  0  0  0  0  0
   92.7578  146.0531   12.1410 Cl  0  0  0  0  0  0  0  0  0  0  0  0
   91.2603  146.8428   11.8234 C   0  0  0  0  0  0  0  0  0  0  0  0
   90.7342  146.8790   10.5321 C   0  0  0  0  0  0  0  0  0  0  0  0
   90.5705  147.4448   12.8758 C   0  0  0  0  0  0  0  0  0  0  0  0
   91.3926  146.2822    9.5254 F   0  0  0  0  0  0  0  0  0  0  0  0
   89.5144  147.5161   10.2720 C   0  0  0  0  0  0  0  0  0  0  0  0
   89.3524  148.0809   12.6327 C   0  0  0  0  0  0  0  0  0  0  0  0
   88.8267  148.1168   11.3389 C   0  0  0  0  0  0  0  0  0  0  0  0
   84.8929  152.5526   14.2179 N   0  0  0  0  0  0  0  0  0  0  0  0
   83.5662  152.3018   13.8905 C   0  0  0  0  0  0  0  0  0  0  0  0
   85.1968  153.1261   15.5202 C   0  0  0  0  0  0  0  0  0  0  0  0
   83.1517  151.8856   12.8107 O   0  0  0  0  0  0  0  0  0  0  0  0
   82.6794  152.4636   14.9300 N   0  0  0  0  0  0  0  0  0  0  0  0
   84.4594  152.3667   16.5997 C   0  0  0  0  0  0  0  0  0  0  0  0
   82.9960  152.3226   16.2543 C   0  0  0  0  0  0  0  0  0  0  0  0
   82.1310  152.0934   17.0965 O   0  0  0  0  0  0  0  0  0  0  0  0
   81.7499  152.6976   14.7051 H   0  0  0  0  0  0  0  0  0  0  0  0
   85.2046  154.7513   12.6230 O   0  0  0  0  0  0  0  0  0  0  0  0
   85.7350  156.0692   12.5641 C   0  0  0  0  0  0  0  0  0  0  0  0
   86.5635  150.3319   13.7662 O   0  0  0  0  0  0  0  0  0  0  0  0
   87.4386  150.1947   14.8862 C   0  0  0  0  0  0  0  0  0  0  0  0
 18 17  1  0
 18 19  2  0
 18 20  5  0
 19 21  1  0
 19 22  5  0
 20 23  2  0
 22 24  2  0
 22 16  1  0
 23 24  5  0
 16  7  1  0
  7  8  1  0
  7  9  1  0
  8 10  1  0
  9 11  1  0
 12 11  1  0
 12 10  1  0
 12 13  1  0
 12 14  1  0
 13 15  1  0
 14  1  1  0
 14 15  1  0
  1  2  2  0
  1  3  5  0
  2  4  5  0
  3  5  2  0
  4 34  1  0
  4  6  2  0
  5 36  1  0
  5  6  5  0
 34 35  1  0
  6 25  1  0
 36 37  1  0
 25 26  1  0
 25 27  1  0
 26 28  2  0
 26 29  1  0
 27 30  1  0
 29 31  1  0
 30 31  1  0
 31 32  2  0
 29 33  1  0
M  END
> <ID>
EDEL-CRBN-0015_ent

> <Stereoisomer>
enantiomer

> <MW>
517.18

> <HBD>
1

> <HBA>
6

> <RotBonds>
6

> <cLogP>
4.09

> <minimizedAffinity>
-5.91965

> <CNNscore>
0.1892850250

> <CNNaffinity>
5.0076718330

> <CNN_VS>
0.9478772879

> <CNNaffinity_variance>
0.8655489087

> <Compound_Name>
EDEL-CRBN-0015_ent

> <Pose_Rank>
3
$$$$
EDEL-CRBN-0015_ent


 37 41  0  0  0  0  0  0  0  0999 V2000
   80.6934  149.4477   17.2608 C   0  0  0  0  0  0  0  0  0  0  0  0
   79.7394  149.8817   16.3145 C   0  0  0  0  0  0  0  0  0  0  0  0
   80.2474  149.3433   18.5915 C   0  0  0  0  0  0  0  0  0  0  0  0
   78.4169  150.1986   16.6609 C   0  0  0  0  0  0  0  0  0  0  0  0
   78.9377  149.6684   18.9684 C   0  0  0  0  0  0  0  0  0  0  0  0
   78.0072  150.0900   18.0049 C   0  0  0  0  0  0  0  0  0  0  0  0
   84.2297  152.4632   15.1887 N   0  0  0  0  0  0  0  0  0  0  0  0
   84.0217  151.1053   14.6607 C   0  0  0  0  0  0  0  0  0  0  0  0
   83.9746  152.5680   16.6357 C   0  0  0  0  0  0  0  0  0  0  0  0
   84.3305  150.0392   15.7097 C   0  0  0  0  0  0  0  0  0  0  0  0
   82.8866  151.6106   17.1145 C   0  0  0  0  0  0  0  0  0  0  0  0
   83.3159  150.1607   16.8594 C   0  0  0  0  0  0  0  0  0  0  0  0
   83.8880  149.5841   18.0762 O   0  0  0  0  0  0  0  0  0  0  0  0
   82.1955  149.0645   16.8679 C   0  0  0  0  0  0  0  0  0  0  0  0
   83.0930  148.3865   17.9183 C   0  0  0  0  0  0  0  0  0  0  0  0
   83.5036  153.4896   14.4256 C   0  0  0  0  0  0  0  0  0  0  0  0
   85.0006  158.4086   13.4434 Cl  0  0  0  0  0  0  0  0  0  0  0  0
   85.1450  156.7085   13.2073 C   0  0  0  0  0  0  0  0  0  0  0  0
   84.3000  155.8225   13.8757 C   0  0  0  0  0  0  0  0  0  0  0  0
   86.1160  156.2219   12.3321 C   0  0  0  0  0  0  0  0  0  0  0  0
   83.3546  156.2965   14.7031 F   0  0  0  0  0  0  0  0  0  0  0  0
   84.4120  154.4400   13.6818 C   0  0  0  0  0  0  0  0  0  0  0  0
   86.2377  154.8470   12.1263 C   0  0  0  0  0  0  0  0  0  0  0  0
   85.3911  153.9606   12.7967 C   0  0  0  0  0  0  0  0  0  0  0  0
   76.6631  150.4077   18.3649 N   0  0  0  0  0  0  0  0  0  0  0  0
   76.3549  151.5413   19.1067 C   0  0  0  0  0  0  0  0  0  0  0  0
   75.6612  149.3602   18.2372 C   0  0  0  0  0  0  0  0  0  0  0  0
   77.1164  152.4729   19.3581 O   0  0  0  0  0  0  0  0  0  0  0  0
   75.0393  151.6278   19.5004 N   0  0  0  0  0  0  0  0  0  0  0  0
   74.3302  149.9674   17.8555 C   0  0  0  0  0  0  0  0  0  0  0  0
   73.9878  151.0531   18.8387 C   0  0  0  0  0  0  0  0  0  0  0  0
   72.8390  151.4631   18.9877 O   0  0  0  0  0  0  0  0  0  0  0  0
   74.8399  152.1402   20.3170 H   0  0  0  0  0  0  0  0  0  0  0  0
   77.4741  150.6427   15.7644 O   0  0  0  0  0  0  0  0  0  0  0  0
   77.0525  149.7426   14.7476 C   0  0  0  0  0  0  0  0  0  0  0  0
   78.5084  149.4280   20.2521 O   0  0  0  0  0  0  0  0  0  0  0  0
   78.2000  148.0524   20.4793 C   0  0  0  0  0  0  0  0  0  0  0  0
 18 17  1  0
 18 19  2  0
 18 20  5  0
 19 21  1  0
 19 22  5  0
 20 23  2  0
 22 24  2  0
 22 16  1  0
 23 24  5  0
 16  7  1  0
  7  8  1  0
  7  9  1  0
  8 10  1  0
  9 11  1  0
 12 11  1  0
 12 10  1  0
 12 13  1  0
 12 14  1  0
 13 15  1  0
 14  1  1  0
 14 15  1  0
  1  2  2  0
  1  3  5  0
  2  4  5  0
  3  5  2  0
  4 34  1  0
  4  6  2  0
  5 36  1  0
  5  6  5  0
 34 35  1  0
  6 25  1  0
 36 37  1  0
 25 26  1  0
 25 27  1  0
 26 28  2  0
 26 29  1  0
 27 30  1  0
 29 31  1  0
 30 31  1  0
 31 32  2  0
 29 33  1  0
M  END
> <ID>
EDEL-CRBN-0015_ent

> <Stereoisomer>
enantiomer

> <MW>
517.18

> <HBD>
1

> <HBA>
6

> <RotBonds>
6

> <cLogP>
4.09

> <minimizedAffinity>
-7.68617

> <CNNscore>
0.1649368852

> <CNNaffinity>
5.2632274628

> <CNN_VS>
0.8681003451

> <CNNaffinity_variance>
1.6442607641

> <Compound_Name>
EDEL-CRBN-0015_ent

> <Pose_Rank>
4
$$$$
EDEL-CRBN-0015_ent


 37 41  0  0  0  0  0  0  0  0999 V2000
   88.6439  149.8211   16.0982 C   0  0  0  0  0  0  0  0  0  0  0  0
   89.6191  149.2436   15.2561 C   0  0  0  0  0  0  0  0  0  0  0  0
   89.1045  150.7855   17.0139 C   0  0  0  0  0  0  0  0  0  0  0  0
   90.9765  149.5951   15.3145 C   0  0  0  0  0  0  0  0  0  0  0  0
   90.4559  151.1441   17.1051 C   0  0  0  0  0  0  0  0  0  0  0  0
   91.4034  150.5592   16.2496 C   0  0  0  0  0  0  0  0  0  0  0  0
   84.7423  152.8873   14.9725 N   0  0  0  0  0  0  0  0  0  0  0  0
   84.6447  151.9637   16.1141 C   0  0  0  0  0  0  0  0  0  0  0  0
   85.5659  152.3616   13.8701 C   0  0  0  0  0  0  0  0  0  0  0  0
   84.7285  150.5055   15.6681 C   0  0  0  0  0  0  0  0  0  0  0  0
   86.7005  151.4641   14.3566 C   0  0  0  0  0  0  0  0  0  0  0  0
   86.1263  150.2415   15.0827 C   0  0  0  0  0  0  0  0  0  0  0  0
   86.0643  149.0986   14.1715 O   0  0  0  0  0  0  0  0  0  0  0  0
   87.0928  149.4400   16.0209 C   0  0  0  0  0  0  0  0  0  0  0  0
   86.6609  148.2351   15.1662 C   0  0  0  0  0  0  0  0  0  0  0  0
   85.1528  154.2429   15.3686 C   0  0  0  0  0  0  0  0  0  0  0  0
   85.1545  159.2707   13.9114 Cl  0  0  0  0  0  0  0  0  0  0  0  0
   84.9454  157.5963   13.5655 C   0  0  0  0  0  0  0  0  0  0  0  0
   85.1185  156.6362   14.5625 C   0  0  0  0  0  0  0  0  0  0  0  0
   84.5936  157.2059   12.2734 C   0  0  0  0  0  0  0  0  0  0  0  0
   85.4391  157.0181   15.8093 F   0  0  0  0  0  0  0  0  0  0  0  0
   84.9442  155.2746   14.2852 C   0  0  0  0  0  0  0  0  0  0  0  0
   84.4136  155.8529   11.9826 C   0  0  0  0  0  0  0  0  0  0  0  0
   84.5876  154.8923   12.9819 C   0  0  0  0  0  0  0  0  0  0  0  0
   92.7816  150.9244   16.3133 N   0  0  0  0  0  0  0  0  0  0  0  0
   93.3745  151.7096   15.3324 C   0  0  0  0  0  0  0  0  0  0  0  0
   93.6361  150.1894   17.2338 C   0  0  0  0  0  0  0  0  0  0  0  0
   92.7887  152.3302   14.4477 O   0  0  0  0  0  0  0  0  0  0  0  0
   94.7379  151.8477   15.4559 N   0  0  0  0  0  0  0  0  0  0  0  0
   94.7062  151.1057   17.7827 C   0  0  0  0  0  0  0  0  0  0  0  0
   95.4273  151.7584   16.6352 C   0  0  0  0  0  0  0  0  0  0  0  0
   96.5427  152.2582   16.7619 O   0  0  0  0  0  0  0  0  0  0  0  0
   95.2551  152.0235   14.6368 H   0  0  0  0  0  0  0  0  0  0  0  0
   91.9495  149.0344   14.5215 O   0  0  0  0  0  0  0  0  0  0  0  0
   92.2965  147.6764   14.7609 C   0  0  0  0  0  0  0  0  0  0  0  0
   90.8418  152.1815   17.9205 O   0  0  0  0  0  0  0  0  0  0  0  0
   90.3811  152.0251   19.2630 C   0  0  0  0  0  0  0  0  0  0  0  0
 18 17  1  0
 18 19  2  0
 18 20  5  0
 19 21  1  0
 19 22  5  0
 20 23  2  0
 22 24  2  0
 22 16  1  0
 23 24  5  0
 16  7  1  0
  7  8  1  0
  7  9  1  0
  8 10  1  0
  9 11  1  0
 12 11  1  0
 12 10  1  0
 12 13  1  0
 12 14  1  0
 13 15  1  0
 14  1  1  0
 14 15  1  0
  1  2  2  0
  1  3  5  0
  2  4  5  0
  3  5  2  0
  4 34  1  0
  4  6  2  0
  5 36  1  0
  5  6  5  0
 34 35  1  0
  6 25  1  0
 36 37  1  0
 25 26  1  0
 25 27  1  0
 26 28  2  0
 26 29  1  0
 27 30  1  0
 29 31  1  0
 30 31  1  0
 31 32  2  0
 29 33  1  0
M  END
> <ID>
EDEL-CRBN-0015_ent

> <Stereoisomer>
enantiomer

> <MW>
517.18

> <HBD>
1

> <HBA>
6

> <RotBonds>
6

> <cLogP>
4.09

> <minimizedAffinity>
-8.02821

> <CNNscore>
0.1554733217

> <CNNaffinity>
5.7777009010

> <CNN_VS>
0.8982783556

> <CNNaffinity_variance>
1.0931673050

> <Compound_Name>
EDEL-CRBN-0015_ent

> <Pose_Rank>
5
$$$$
EDEL-CRBN-0015


 37 41  0  0  0  0  0  0  0  0999 V2000
   84.6933  151.1360   13.2522 C   0  0  0  0  0  0  0  0  0  0  0  0
   85.8064  151.8369   12.7358 C   0  0  0  0  0  0  0  0  0  0  0  0
   83.6910  151.9189   13.8514 C   0  0  0  0  0  0  0  0  0  0  0  0
   85.9196  153.2341   12.7913 C   0  0  0  0  0  0  0  0  0  0  0  0
   83.7861  153.3155   13.9365 C   0  0  0  0  0  0  0  0  0  0  0  0
   84.8949  153.9868   13.3964 C   0  0  0  0  0  0  0  0  0  0  0  0
   84.2510  148.5417   17.3199 N   0  0  0  0  0  0  0  0  0  0  0  0
   84.9950  149.6465   16.6913 C   0  0  0  0  0  0  0  0  0  0  0  0
   83.8329  147.5014   16.3616 C   0  0  0  0  0  0  0  0  0  0  0  0
   85.8169  149.1715   15.4967 C   0  0  0  0  0  0  0  0  0  0  0  0
   83.5850  148.0424   14.9568 C   0  0  0  0  0  0  0  0  0  0  0  0
   84.8701  148.6638   14.4001 C   0  0  0  0  0  0  0  0  0  0  0  0
   85.5849  147.6987   13.5577 O   0  0  0  0  0  0  0  0  0  0  0  0
   84.6214  149.5527   13.1349 C   0  0  0  0  0  0  0  0  0  0  0  0
   85.7638  148.7157   12.5369 C   0  0  0  0  0  0  0  0  0  0  0  0
   83.1375  149.0679   18.1284 C   0  0  0  0  0  0  0  0  0  0  0  0
   86.2880  147.7121   22.0775 Cl  0  0  0  0  0  0  0  0  0  0  0  0
   84.7973  148.3372   21.4824 C   0  0  0  0  0  0  0  0  0  0  0  0
   84.5762  148.4588   20.1099 C   0  0  0  0  0  0  0  0  0  0  0  0
   83.8069  148.7195   22.3864 C   0  0  0  0  0  0  0  0  0  0  0  0
   85.5289  148.0796   19.2423 F   0  0  0  0  0  0  0  0  0  0  0  0
   83.3706  148.9716   19.6184 C   0  0  0  0  0  0  0  0  0  0  0  0
   82.5938  149.2198   21.9124 C   0  0  0  0  0  0  0  0  0  0  0  0
   82.3749  149.3401   20.5378 C   0  0  0  0  0  0  0  0  0  0  0  0
   85.0001  155.4087   13.4561 N   0  0  0  0  0  0  0  0  0  0  0  0
   84.9395  156.1922   12.3103 C   0  0  0  0  0  0  0  0  0  0  0  0
   85.5175  155.9982   14.6815 C   0  0  0  0  0  0  0  0  0  0  0  0
   84.5931  155.8158   11.1926 O   0  0  0  0  0  0  0  0  0  0  0  0
   85.2155  157.5250   12.5122 N   0  0  0  0  0  0  0  0  0  0  0  0
   84.8624  157.3396   14.9218 C   0  0  0  0  0  0  0  0  0  0  0  0
   85.0249  158.1914   13.6926 C   0  0  0  0  0  0  0  0  0  0  0  0
   84.9137  159.4147   13.7245 O   0  0  0  0  0  0  0  0  0  0  0  0
   85.5764  158.0365   11.7524 H   0  0  0  0  0  0  0  0  0  0  0  0
   86.9956  153.9370   12.3045 O   0  0  0  0  0  0  0  0  0  0  0  0
   87.8194  153.2989   11.3369 C   0  0  0  0  0  0  0  0  0  0  0  0
   82.7254  154.0536   14.4065 O   0  0  0  0  0  0  0  0  0  0  0  0
   81.7287  153.2476   15.0358 C   0  0  0  0  0  0  0  0  0  0  0  0
 18 17  1  0
 18 19  2  0
 18 20  5  0
 19 21  1  0
 19 22  5  0
 20 23  2  0
 22 24  2  0
 22 16  1  0
 23 24  5  0
 16  7  1  0
  7  8  1  0
  7  9  1  0
  8 10  1  0
  9 11  1  0
 12 11  1  0
 12 10  1  0
 12 13  1  0
 12 14  1  0
 13 15  1  0
 14  1  1  0
 14 15  1  0
  1  2  2  0
  1  3  5  0
  2  4  5  0
  3  5  2  0
  4 34  1  0
  4  6  2  0
  5 36  1  0
  5  6  5  0
 34 35  1  0
  6 25  1  0
 36 37  1  0
 25 26  1  0
 25 27  1  0
 26 28  2  0
 26 29  1  0
 27 30  1  0
 29 31  1  0
 30 31  1  0
 31 32  2  0
 29 33  1  0
M  END
> <ID>
EDEL-CRBN-0015

> <Stereoisomer>
original

> <MW>
517.18

> <HBD>
1

> <HBA>
6

> <RotBonds>
6

> <cLogP>
4.09

> <minimizedAffinity>
-8.21368

> <CNNscore>
0.7422246933

> <CNNaffinity>
6.2853775024

> <CNN_VS>
4.6651625633

> <CNNaffinity_variance>
0.9611489773

> <Compound_Name>
EDEL-CRBN-0015

> <Pose_Rank>
1
$$$$
EDEL-CRBN-0015


 37 41  0  0  0  0  0  0  0  0999 V2000
   84.1635  151.0884   13.1182 C   0  0  0  0  0  0  0  0  0  0  0  0
   85.3379  151.7046   12.6306 C   0  0  0  0  0  0  0  0  0  0  0  0
   83.2231  151.9392   13.7254 C   0  0  0  0  0  0  0  0  0  0  0  0
   85.5676  153.0856   12.7207 C   0  0  0  0  0  0  0  0  0  0  0  0
   83.4343  153.3205   13.8449 C   0  0  0  0  0  0  0  0  0  0  0  0
   84.6023  153.9080   13.3328 C   0  0  0  0  0  0  0  0  0  0  0  0
   80.0318  149.1300   14.7201 N   0  0  0  0  0  0  0  0  0  0  0  0
   81.1216  150.0561   15.0723 C   0  0  0  0  0  0  0  0  0  0  0  0
   80.4686  148.0184   13.8547 C   0  0  0  0  0  0  0  0  0  0  0  0
   82.4655  149.3406   15.1729 C   0  0  0  0  0  0  0  0  0  0  0  0
   81.6385  148.3867   12.9472 C   0  0  0  0  0  0  0  0  0  0  0  0
   82.8510  148.7899   13.7927 C   0  0  0  0  0  0  0  0  0  0  0  0
   83.7584  147.6505   13.9666 O   0  0  0  0  0  0  0  0  0  0  0  0
   83.9601  149.5200   12.9622 C   0  0  0  0  0  0  0  0  0  0  0  0
   84.8906  148.4955   13.6314 C   0  0  0  0  0  0  0  0  0  0  0  0
   78.8830  149.8738   14.1747 C   0  0  0  0  0  0  0  0  0  0  0  0
   76.3478  151.0335   18.6004 Cl  0  0  0  0  0  0  0  0  0  0  0  0
   76.4251  150.2584   17.0641 C   0  0  0  0  0  0  0  0  0  0  0  0
   77.5628  150.3784   16.2651 C   0  0  0  0  0  0  0  0  0  0  0  0
   75.3384  149.5036   16.6240 C   0  0  0  0  0  0  0  0  0  0  0  0
   78.6114  151.0980   16.6974 F   0  0  0  0  0  0  0  0  0  0  0  0
   77.6310  149.7574   15.0130 C   0  0  0  0  0  0  0  0  0  0  0  0
   75.3959  148.8665   15.3841 C   0  0  0  0  0  0  0  0  0  0  0  0
   76.5363  148.9879   14.5863 C   0  0  0  0  0  0  0  0  0  0  0  0
   84.8260  155.3142   13.4276 N   0  0  0  0  0  0  0  0  0  0  0  0
   84.8128  156.1312   12.3038 C   0  0  0  0  0  0  0  0  0  0  0  0
   85.4096  155.8252   14.6586 C   0  0  0  0  0  0  0  0  0  0  0  0
   84.4190  155.8155   11.1831 O   0  0  0  0  0  0  0  0  0  0  0  0
   85.2015  157.4306   12.5355 N   0  0  0  0  0  0  0  0  0  0  0  0
   84.8717  157.2090   14.9454 C   0  0  0  0  0  0  0  0  0  0  0  0
   85.0852  158.0778   13.7360 C   0  0  0  0  0  0  0  0  0  0  0  0
   85.0763  159.3048   13.8018 O   0  0  0  0  0  0  0  0  0  0  0  0
   85.5917  157.9313   11.7830 H   0  0  0  0  0  0  0  0  0  0  0  0
   86.7050  153.7061   12.2622 O   0  0  0  0  0  0  0  0  0  0  0  0
   87.7046  152.8938   11.6600 C   0  0  0  0  0  0  0  0  0  0  0  0
   82.4336  154.1344   14.3212 O   0  0  0  0  0  0  0  0  0  0  0  0
   81.4961  153.4342   15.1397 C   0  0  0  0  0  0  0  0  0  0  0  0
 18 17  1  0
 18 19  2  0
 18 20  5  0
 19 21  1  0
 19 22  5  0
 20 23  2  0
 22 24  2  0
 22 16  1  0
 23 24  5  0
 16  7  1  0
  7  8  1  0
  7  9  1  0
  8 10  1  0
  9 11  1  0
 12 11  1  0
 12 10  1  0
 12 13  1  0
 12 14  1  0
 13 15  1  0
 14  1  1  0
 14 15  1  0
  1  2  2  0
  1  3  5  0
  2  4  5  0
  3  5  2  0
  4 34  1  0
  4  6  2  0
  5 36  1  0
  5  6  5  0
 34 35  1  0
  6 25  1  0
 36 37  1  0
 25 26  1  0
 25 27  1  0
 26 28  2  0
 26 29  1  0
 27 30  1  0
 29 31  1  0
 30 31  1  0
 31 32  2  0
 29 33  1  0
M  END
> <ID>
EDEL-CRBN-0015

> <Stereoisomer>
original

> <MW>
517.18

> <HBD>
1

> <HBA>
6

> <RotBonds>
6

> <cLogP>
4.09

> <minimizedAffinity>
-8.68332

> <CNNscore>
0.7110204101

> <CNNaffinity>
6.6376113892

> <CNN_VS>
4.7194771767

> <CNNaffinity_variance>
0.3095975518

> <Compound_Name>
EDEL-CRBN-0015

> <Pose_Rank>
2
$$$$
EDEL-CRBN-0015


 37 41  0  0  0  0  0  0  0  0999 V2000
   84.1334  151.1537   13.1407 C   0  0  0  0  0  0  0  0  0  0  0  0
   85.3023  151.7659   12.6349 C   0  0  0  0  0  0  0  0  0  0  0  0
   83.2076  152.0071   13.7665 C   0  0  0  0  0  0  0  0  0  0  0  0
   85.5401  153.1454   12.7252 C   0  0  0  0  0  0  0  0  0  0  0  0
   83.4275  153.3870   13.8865 C   0  0  0  0  0  0  0  0  0  0  0  0
   84.5894  153.9705   13.3562 C   0  0  0  0  0  0  0  0  0  0  0  0
   80.0202  149.2102   14.8070 N   0  0  0  0  0  0  0  0  0  0  0  0
   81.1203  150.1299   15.1433 C   0  0  0  0  0  0  0  0  0  0  0  0
   80.4368  148.0992   13.9310 C   0  0  0  0  0  0  0  0  0  0  0  0
   82.4623  149.4078   15.2189 C   0  0  0  0  0  0  0  0  0  0  0  0
   81.5928  148.4646   13.0048 C   0  0  0  0  0  0  0  0  0  0  0  0
   82.8215  148.8595   13.8307 C   0  0  0  0  0  0  0  0  0  0  0  0
   83.7262  147.7152   13.9857 O   0  0  0  0  0  0  0  0  0  0  0  0
   83.9198  149.5868   12.9836 C   0  0  0  0  0  0  0  0  0  0  0  0
   84.8566  148.5558   13.6338 C   0  0  0  0  0  0  0  0  0  0  0  0
   78.8658  149.9611   14.2834 C   0  0  0  0  0  0  0  0  0  0  0  0
   76.8519  147.9792    9.8817 Cl  0  0  0  0  0  0  0  0  0  0  0  0
   76.8480  148.1623   11.5944 C   0  0  0  0  0  0  0  0  0  0  0  0
   77.8179  148.9410   12.2271 C   0  0  0  0  0  0  0  0  0  0  0  0
   75.8617  147.5265   12.3476 C   0  0  0  0  0  0  0  0  0  0  0  0
   78.7600  149.5602   11.4970 F   0  0  0  0  0  0  0  0  0  0  0  0
   77.8256  149.0896   13.6185 C   0  0  0  0  0  0  0  0  0  0  0  0
   75.8470  147.6757   13.7347 C   0  0  0  0  0  0  0  0  0  0  0  0
   76.8189  148.4562   14.3655 C   0  0  0  0  0  0  0  0  0  0  0  0
   84.8214  155.3753   13.4514 N   0  0  0  0  0  0  0  0  0  0  0  0
   84.8216  156.1913   12.3268 C   0  0  0  0  0  0  0  0  0  0  0  0
   85.3993  155.8838   14.6861 C   0  0  0  0  0  0  0  0  0  0  0  0
   84.4339  155.8771   11.2035 O   0  0  0  0  0  0  0  0  0  0  0  0
   85.2170  157.4884   12.5601 N   0  0  0  0  0  0  0  0  0  0  0  0
   84.8683  157.2712   14.9677 C   0  0  0  0  0  0  0  0  0  0  0  0
   85.0962  158.1375   13.7592 C   0  0  0  0  0  0  0  0  0  0  0  0
   85.0947  159.3646   13.8238 O   0  0  0  0  0  0  0  0  0  0  0  0
   85.6158  157.9859   11.8100 H   0  0  0  0  0  0  0  0  0  0  0  0
   86.6724  153.7620   12.2492 O   0  0  0  0  0  0  0  0  0  0  0  0
   87.6917  152.9383   11.6976 C   0  0  0  0  0  0  0  0  0  0  0  0
   82.4390  154.2042   14.3823 O   0  0  0  0  0  0  0  0  0  0  0  0
   81.4379  153.4842   15.1023 C   0  0  0  0  0  0  0  0  0  0  0  0
 18 17  1  0
 18 19  2  0
 18 20  5  0
 19 21  1  0
 19 22  5  0
 20 23  2  0
 22 24  2  0
 22 16  1  0
 23 24  5  0
 16  7  1  0
  7  8  1  0
  7  9  1  0
  8 10  1  0
  9 11  1  0
 12 11  1  0
 12 10  1  0
 12 13  1  0
 12 14  1  0
 13 15  1  0
 14  1  1  0
 14 15  1  0
  1  2  2  0
  1  3  5  0
  2  4  5  0
  3  5  2  0
  4 34  1  0
  4  6  2  0
  5 36  1  0
  5  6  5  0
 34 35  1  0
  6 25  1  0
 36 37  1  0
 25 26  1  0
 25 27  1  0
 26 28  2  0
 26 29  1  0
 27 30  1  0
 29 31  1  0
 30 31  1  0
 31 32  2  0
 29 33  1  0
M  END
> <ID>
EDEL-CRBN-0015

> <Stereoisomer>
original

> <MW>
517.18

> <HBD>
1

> <HBA>
6

> <RotBonds>
6

> <cLogP>
4.09

> <minimizedAffinity>
-8.70367

> <CNNscore>
0.7064982057

> <CNNaffinity>
6.4507384300

> <CNN_VS>
4.5574350357

> <CNNaffinity_variance>
0.5610345006

> <Compound_Name>
EDEL-CRBN-0015

> <Pose_Rank>
3
$$$$
EDEL-CRBN-0015


 37 41  0  0  0  0  0  0  0  0999 V2000
   84.3926  151.0995   13.0109 C   0  0  0  0  0  0  0  0  0  0  0  0
   83.4058  151.9351   13.5810 C   0  0  0  0  0  0  0  0  0  0  0  0
   85.5605  151.7386   12.5589 C   0  0  0  0  0  0  0  0  0  0  0  0
   83.5662  153.3223   13.7142 C   0  0  0  0  0  0  0  0  0  0  0  0
   85.7403  153.1255   12.6633 C   0  0  0  0  0  0  0  0  0  0  0  0
   84.7506  153.9283   13.2529 C   0  0  0  0  0  0  0  0  0  0  0  0
   80.2789  149.2807   14.8113 N   0  0  0  0  0  0  0  0  0  0  0  0
   81.3986  150.1938   15.0972 C   0  0  0  0  0  0  0  0  0  0  0  0
   80.6634  148.1335   13.9677 C   0  0  0  0  0  0  0  0  0  0  0  0
   82.7304  149.4533   15.1757 C   0  0  0  0  0  0  0  0  0  0  0  0
   81.8090  148.4483   13.0104 C   0  0  0  0  0  0  0  0  0  0  0  0
   83.0574  148.8517   13.8017 C   0  0  0  0  0  0  0  0  0  0  0  0
   83.9470  147.6992   13.9816 O   0  0  0  0  0  0  0  0  0  0  0  0
   84.1523  149.5317   12.9119 C   0  0  0  0  0  0  0  0  0  0  0  0
   85.0840  148.5090   13.5820 C   0  0  0  0  0  0  0  0  0  0  0  0
   79.1275  150.0314   14.2810 C   0  0  0  0  0  0  0  0  0  0  0  0
   76.6527  151.1139   18.7601 Cl  0  0  0  0  0  0  0  0  0  0  0  0
   76.7037  150.3774   17.2039 C   0  0  0  0  0  0  0  0  0  0  0  0
   77.8352  150.5014   16.3967 C   0  0  0  0  0  0  0  0  0  0  0  0
   75.6019  149.6498   16.7556 C   0  0  0  0  0  0  0  0  0  0  0  0
   78.8985  151.1944   16.8366 F   0  0  0  0  0  0  0  0  0  0  0  0
   77.8822  149.9116   15.1287 C   0  0  0  0  0  0  0  0  0  0  0  0
   75.6379  149.0439   15.4994 C   0  0  0  0  0  0  0  0  0  0  0  0
   76.7722  149.1692   14.6936 C   0  0  0  0  0  0  0  0  0  0  0  0
   84.9238  155.3385   13.3857 N   0  0  0  0  0  0  0  0  0  0  0  0
   84.9141  156.1808   12.2807 C   0  0  0  0  0  0  0  0  0  0  0  0
   85.4553  155.8397   14.6440 C   0  0  0  0  0  0  0  0  0  0  0  0
   84.5625  155.8785   11.1423 O   0  0  0  0  0  0  0  0  0  0  0  0
   85.2520  157.4866   12.5525 N   0  0  0  0  0  0  0  0  0  0  0  0
   84.8631  157.1977   14.9464 C   0  0  0  0  0  0  0  0  0  0  0  0
   85.0806  158.1012   13.7635 C   0  0  0  0  0  0  0  0  0  0  0  0
   85.0283  159.3254   13.8566 O   0  0  0  0  0  0  0  0  0  0  0  0
   85.6457  158.0175   11.8229 H   0  0  0  0  0  0  0  0  0  0  0  0
   82.6178  154.1561   14.2565 O   0  0  0  0  0  0  0  0  0  0  0  0
   81.5718  153.5629   15.0154 C   0  0  0  0  0  0  0  0  0  0  0  0
   86.9491  153.6928   12.3350 O   0  0  0  0  0  0  0  0  0  0  0  0
   87.7011  152.8965   11.4188 C   0  0  0  0  0  0  0  0  0  0  0  0
 18 17  1  0
 18 19  2  0
 18 20  5  0
 19 21  1  0
 19 22  5  0
 20 23  2  0
 22 24  2  0
 22 16  1  0
 23 24  5  0
 16  7  1  0
  7  8  1  0
  7  9  1  0
  8 10  1  0
  9 11  1  0
 12 11  1  0
 12 10  1  0
 12 13  1  0
 12 14  1  0
 13 15  1  0
 14  1  1  0
 14 15  1  0
  1  2  2  0
  1  3  5  0
  2  4  5  0
  3  5  2  0
  4 34  1  0
  4  6  2  0
  5 36  1  0
  5  6  5  0
 34 35  1  0
  6 25  1  0
 36 37  1  0
 25 26  1  0
 25 27  1  0
 26 28  2  0
 26 29  1  0
 27 30  1  0
 29 31  1  0
 30 31  1  0
 31 32  2  0
 29 33  1  0
M  END
> <ID>
EDEL-CRBN-0015

> <Stereoisomer>
original

> <MW>
517.18

> <HBD>
1

> <HBA>
6

> <RotBonds>
6

> <cLogP>
4.09

> <minimizedAffinity>
-8.48983

> <CNNscore>
0.6889567375

> <CNNaffinity>
6.5663146973

> <CNN_VS>
4.5239067078

> <CNNaffinity_variance>
0.3567512929

> <Compound_Name>
EDEL-CRBN-0015

> <Pose_Rank>
4
$$$$
EDEL-CRBN-0015


 37 41  0  0  0  0  0  0  0  0999 V2000
   84.2800  151.1478   13.1874 C   0  0  0  0  0  0  0  0  0  0  0  0
   83.3820  151.9932   13.8772 C   0  0  0  0  0  0  0  0  0  0  0  0
   85.3832  151.7762   12.5833 C   0  0  0  0  0  0  0  0  0  0  0  0
   83.5680  153.3798   13.9810 C   0  0  0  0  0  0  0  0  0  0  0  0
   85.5847  153.1621   12.6561 C   0  0  0  0  0  0  0  0  0  0  0  0
   84.6861  153.9748   13.3658 C   0  0  0  0  0  0  0  0  0  0  0  0
   80.0892  149.4460   14.9233 N   0  0  0  0  0  0  0  0  0  0  0  0
   81.2146  150.3508   15.2135 C   0  0  0  0  0  0  0  0  0  0  0  0
   80.4793  148.2681   14.1260 C   0  0  0  0  0  0  0  0  0  0  0  0
   82.5319  149.5933   15.3524 C   0  0  0  0  0  0  0  0  0  0  0  0
   81.6562  148.5364   13.1928 C   0  0  0  0  0  0  0  0  0  0  0  0
   82.8880  148.9453   14.0070 C   0  0  0  0  0  0  0  0  0  0  0  0
   83.7539  147.7857   14.2469 O   0  0  0  0  0  0  0  0  0  0  0  0
   84.0180  149.5815   13.1288 C   0  0  0  0  0  0  0  0  0  0  0  0
   84.9144  148.5660   13.8559 C   0  0  0  0  0  0  0  0  0  0  0  0
   78.9651  150.1972   14.3379 C   0  0  0  0  0  0  0  0  0  0  0  0
   77.0542  148.0042    9.9907 Cl  0  0  0  0  0  0  0  0  0  0  0  0
   76.9908  148.2965   11.6870 C   0  0  0  0  0  0  0  0  0  0  0  0
   77.9622  149.0822   12.3086 C   0  0  0  0  0  0  0  0  0  0  0  0
   75.9547  147.7424   12.4378 C   0  0  0  0  0  0  0  0  0  0  0  0
   78.9528  149.6227   11.5800 F   0  0  0  0  0  0  0  0  0  0  0  0
   77.9215  149.3191   13.6871 C   0  0  0  0  0  0  0  0  0  0  0  0
   75.8918  147.9804   13.8111 C   0  0  0  0  0  0  0  0  0  0  0  0
   76.8653  148.7677   14.4308 C   0  0  0  0  0  0  0  0  0  0  0  0
   84.8849  155.3842   13.4675 N   0  0  0  0  0  0  0  0  0  0  0  0
   84.8653  156.2053   12.3467 C   0  0  0  0  0  0  0  0  0  0  0  0
   85.4511  155.9005   14.7044 C   0  0  0  0  0  0  0  0  0  0  0  0
   84.4847  155.8872   11.2221 O   0  0  0  0  0  0  0  0  0  0  0  0
   85.2300  157.5103   12.5860 N   0  0  0  0  0  0  0  0  0  0  0  0
   84.8876  157.2737   14.9926 C   0  0  0  0  0  0  0  0  0  0  0  0
   85.0944  158.1507   13.7881 C   0  0  0  0  0  0  0  0  0  0  0  0
   85.0639  159.3771   13.8584 O   0  0  0  0  0  0  0  0  0  0  0  0
   85.6167  158.0205   11.8381 H   0  0  0  0  0  0  0  0  0  0  0  0
   82.7044  154.2230   14.6383 O   0  0  0  0  0  0  0  0  0  0  0  0
   81.7600  154.9432   13.8565 C   0  0  0  0  0  0  0  0  0  0  0  0
   86.7441  153.7189   12.1698 O   0  0  0  0  0  0  0  0  0  0  0  0
   87.7112  152.7380   11.7933 C   0  0  0  0  0  0  0  0  0  0  0  0
 18 17  1  0
 18 19  2  0
 18 20  5  0
 19 21  1  0
 19 22  5  0
 20 23  2  0
 22 24  2  0
 22 16  1  0
 23 24  5  0
 16  7  1  0
  7  8  1  0
  7  9  1  0
  8 10  1  0
  9 11  1  0
 12 11  1  0
 12 10  1  0
 12 13  1  0
 12 14  1  0
 13 15  1  0
 14  1  1  0
 14 15  1  0
  1  2  2  0
  1  3  5  0
  2  4  5  0
  3  5  2  0
  4 34  1  0
  4  6  2  0
  5 36  1  0
  5  6  5  0
 34 35  1  0
  6 25  1  0
 36 37  1  0
 25 26  1  0
 25 27  1  0
 26 28  2  0
 26 29  1  0
 27 30  1  0
 29 31  1  0
 30 31  1  0
 31 32  2  0
 29 33  1  0
M  END
> <ID>
EDEL-CRBN-0015

> <Stereoisomer>
original

> <MW>
517.18

> <HBD>
1

> <HBA>
6

> <RotBonds>
6

> <cLogP>
4.09

> <minimizedAffinity>
-8.55696

> <CNNscore>
0.6698291302

> <CNNaffinity>
6.3490052223

> <CNN_VS>
4.2527484894

> <CNNaffinity_variance>
0.7528032660

> <Compound_Name>
EDEL-CRBN-0015

> <Pose_Rank>
5
$$$$
EDEL-CRBN-0016_ent


 39 43  0  0  0  0  0  0  0  0999 V2000
   85.2411  153.8864   13.3399 C   0  0  0  0  0  0  0  0  0  0  0  0
   86.3530  153.2967   12.7042 C   0  0  0  0  0  0  0  0  0  0  0  0
   84.2065  153.0554   13.8547 C   0  0  0  0  0  0  0  0  0  0  0  0
   86.3746  151.9258   12.5487 C   0  0  0  0  0  0  0  0  0  0  0  0
   84.2547  151.6597   13.7162 C   0  0  0  0  0  0  0  0  0  0  0  0
   85.3408  151.1151   13.0619 C   0  0  0  0  0  0  0  0  0  0  0  0
   87.4050  151.0176   11.9200 C   0  0  0  0  0  0  0  0  0  0  0  0
   85.6993  149.6745   12.7731 C   0  0  0  0  0  0  0  0  0  0  0  0
   86.5694  149.8593   11.6140 N   0  0  0  0  0  0  0  0  0  0  0  0
   88.4367  150.5405   12.9968 C   0  0  0  0  0  0  0  0  0  0  0  0
   86.6035  149.1043   13.9186 C   0  0  0  0  0  0  0  0  0  0  0  0
   87.0016  148.8583   10.7908 C   0  0  0  0  0  0  0  0  0  0  0  0
   87.8006  149.9566   14.2219 N   0  0  0  0  0  0  0  0  0  0  0  0
   87.9807  148.9597   10.0646 O   0  0  0  0  0  0  0  0  0  0  0  0
   84.7887  155.6852   11.1396 O   0  0  0  0  0  0  0  0  0  0  0  0
   85.0777  156.0880   12.2645 C   0  0  0  0  0  0  0  0  0  0  0  0
   85.1499  155.3094   13.4124 N   0  0  0  0  0  0  0  0  0  0  0  0
   85.2552  157.4359   12.4700 N   0  0  0  0  0  0  0  0  0  0  0  0
   85.5838  155.9303   14.6569 C   0  0  0  0  0  0  0  0  0  0  0  0
   84.9983  158.0924   13.6428 C   0  0  0  0  0  0  0  0  0  0  0  0
   84.8497  157.2352   14.8690 C   0  0  0  0  0  0  0  0  0  0  0  0
   84.8148  159.3072   13.6671 O   0  0  0  0  0  0  0  0  0  0  0  0
   85.5932  157.9698   11.7151 H   0  0  0  0  0  0  0  0  0  0  0  0
   87.4104  154.0175   12.2188 O   0  0  0  0  0  0  0  0  0  0  0  0
   87.6037  153.7476   10.8276 C   0  0  0  0  0  0  0  0  0  0  0  0
   83.0749  153.6539   14.3628 O   0  0  0  0  0  0  0  0  0  0  0  0
   82.1221  152.7023   14.8380 C   0  0  0  0  0  0  0  0  0  0  0  0
   86.2220  147.7538   10.9011 O   0  0  0  0  0  0  0  0  0  0  0  0
   86.8083  146.4451   11.1170 C   0  0  0  0  0  0  0  0  0  0  0  0
   88.1028  146.5449   11.9313 C   0  0  0  0  0  0  0  0  0  0  0  0
   87.0161  145.7000    9.7943 C   0  0  0  0  0  0  0  0  0  0  0  0
   85.7637  145.6856   11.9492 C   0  0  0  0  0  0  0  0  0  0  0  0
   88.7878  149.2699   15.0613 C   0  0  0  0  0  0  0  0  0  0  0  0
   89.6920  150.2204   15.8167 C   0  0  0  0  0  0  0  0  0  0  0  0
   90.8579  150.7230   15.2217 C   0  0  0  0  0  0  0  0  0  0  0  0
   89.3667  150.6279   17.1199 C   0  0  0  0  0  0  0  0  0  0  0  0
   91.6831  151.6079   15.9186 C   0  0  0  0  0  0  0  0  0  0  0  0
   90.1933  151.5114   17.8149 C   0  0  0  0  0  0  0  0  0  0  0  0
   91.3510  152.0011   17.2140 C   0  0  0  0  0  0  0  0  0  0  0  0
 15 16  2  0
 16 17  1  0
 16 18  1  0
 17 19  1  0
 18 20  1  0
  1 17  1  0
  1  2  2  0
  1  3  5  0
 19 21  1  0
 20 22  2  0
 20 21  1  0
  2 24  1  0
  2  4  5  0
  3 26  1  0
  3  5  2  0
 24 25  1  0
  4  6  2  0
  4  7  1  0
 26 27  1  0
  5  6  5  0
  6  8  1  0
  7  9  1  0
  7 10  1  0
  8 11  1  0
  8  9  1  0
  9 12  1  0
 10 13  1  0
 11 13  1  0
 12 14  2  0
 12 28  1  0
 13 33  1  0
 28 29  1  0
 33 34  1  0
 29 30  1  0
 29 31  1  0
 29 32  1  0
 34 35  2  0
 34 36  5  0
 35 37  5  0
 36 38  2  0
 37 39  2  0
 38 39  5  0
 18 23  1  0
M  END
> <ID>
EDEL-CRBN-0016_ent

> <Stereoisomer>
enantiomer

> <MW>
522.25

> <HBD>
1

> <HBA>
7

> <RotBonds>
5

> <cLogP>
4.0

> <minimizedAffinity>
-7.08491

> <CNNscore>
0.6468017101

> <CNNaffinity>
5.9995422363

> <CNN_VS>
3.8805141449

> <CNNaffinity_variance>
0.8845388889

> <Compound_Name>
EDEL-CRBN-0016_ent

> <Pose_Rank>
1
$$$$
EDEL-CRBN-0016_ent


 39 43  0  0  0  0  0  0  0  0999 V2000
   84.7299  153.7187   13.7143 C   0  0  0  0  0  0  0  0  0  0  0  0
   83.7017  153.1488   14.4929 C   0  0  0  0  0  0  0  0  0  0  0  0
   85.6472  152.8684   13.0349 C   0  0  0  0  0  0  0  0  0  0  0  0
   83.6528  151.7757   14.6194 C   0  0  0  0  0  0  0  0  0  0  0  0
   85.5687  151.4717   13.1480 C   0  0  0  0  0  0  0  0  0  0  0  0
   84.5703  150.9457   13.9423 C   0  0  0  0  0  0  0  0  0  0  0  0
   82.6925  150.8851   15.3721 C   0  0  0  0  0  0  0  0  0  0  0  0
   84.2053  149.5103   14.2485 C   0  0  0  0  0  0  0  0  0  0  0  0
   83.5208  149.6919   15.5265 N   0  0  0  0  0  0  0  0  0  0  0  0
   81.4980  150.4719   14.4480 C   0  0  0  0  0  0  0  0  0  0  0  0
   83.1234  149.0018   13.2356 C   0  0  0  0  0  0  0  0  0  0  0  0
   83.1769  148.6836   16.3817 C   0  0  0  0  0  0  0  0  0  0  0  0
   81.9269  149.9010   13.1301 N   0  0  0  0  0  0  0  0  0  0  0  0
   82.3185  148.7974   17.2458 O   0  0  0  0  0  0  0  0  0  0  0  0
   84.5152  155.3685   11.3663 O   0  0  0  0  0  0  0  0  0  0  0  0
   84.8866  155.8173   12.4487 C   0  0  0  0  0  0  0  0  0  0  0  0
   84.8616  155.1394   13.6608 N   0  0  0  0  0  0  0  0  0  0  0  0
   85.2747  157.1336   12.5323 N   0  0  0  0  0  0  0  0  0  0  0  0
   85.4123  155.7905   14.8419 C   0  0  0  0  0  0  0  0  0  0  0  0
   85.1471  157.9213   13.6439 C   0  0  0  0  0  0  0  0  0  0  0  0
   84.8934  157.2074   14.9426 C   0  0  0  0  0  0  0  0  0  0  0  0
   85.1543  159.1473   13.5616 O   0  0  0  0  0  0  0  0  0  0  0  0
   85.6753  157.5409   11.7305 H   0  0  0  0  0  0  0  0  0  0  0  0
   82.7535  153.8906   15.1441 O   0  0  0  0  0  0  0  0  0  0  0  0
   81.8417  154.4710   14.2074 C   0  0  0  0  0  0  0  0  0  0  0  0
   86.7138  153.4429   12.3798 O   0  0  0  0  0  0  0  0  0  0  0  0
   87.4069  152.5125   11.5473 C   0  0  0  0  0  0  0  0  0  0  0  0
   83.8911  147.5574   16.1337 O   0  0  0  0  0  0  0  0  0  0  0  0
   85.0519  147.2185   16.9343 C   0  0  0  0  0  0  0  0  0  0  0  0
   85.3062  148.2734   18.0166 C   0  0  0  0  0  0  0  0  0  0  0  0
   86.2866  146.9833   16.0579 C   0  0  0  0  0  0  0  0  0  0  0  0
   84.6767  145.8953   17.6190 C   0  0  0  0  0  0  0  0  0  0  0  0
   80.8034  149.2705   12.4296 C   0  0  0  0  0  0  0  0  0  0  0  0
   79.6819  148.8527   13.3566 C   0  0  0  0  0  0  0  0  0  0  0  0
   79.8469  147.7747   14.2379 C   0  0  0  0  0  0  0  0  0  0  0  0
   78.4643  149.5509   13.3609 C   0  0  0  0  0  0  0  0  0  0  0  0
   78.8134  147.3998   15.0987 C   0  0  0  0  0  0  0  0  0  0  0  0
   77.4324  149.1740   14.2211 C   0  0  0  0  0  0  0  0  0  0  0  0
   77.6074  148.0987   15.0897 C   0  0  0  0  0  0  0  0  0  0  0  0
 15 16  2  0
 16 17  1  0
 16 18  1  0
 17 19  1  0
 18 20  1  0
  1 17  1  0
  1  2  2  0
  1  3  5  0
 19 21  1  0
 20 22  2  0
 20 21  1  0
  2 24  1  0
  2  4  5  0
  3 26  1  0
  3  5  2  0
 24 25  1  0
  4  6  2  0
  4  7  1  0
 26 27  1  0
  5  6  5  0
  6  8  1  0
  7  9  1  0
  7 10  1  0
  8 11  1  0
  8  9  1  0
  9 12  1  0
 10 13  1  0
 11 13  1  0
 12 14  2  0
 12 28  1  0
 13 33  1  0
 28 29  1  0
 33 34  1  0
 29 30  1  0
 29 31  1  0
 29 32  1  0
 34 35  2  0
 34 36  5  0
 35 37  5  0
 36 38  2  0
 37 39  2  0
 38 39  5  0
 18 23  1  0
M  END
> <ID>
EDEL-CRBN-0016_ent

> <Stereoisomer>
enantiomer

> <MW>
522.25

> <HBD>
1

> <HBA>
7

> <RotBonds>
5

> <cLogP>
4.0

> <minimizedAffinity>
-6.96088

> <CNNscore>
0.4565431178

> <CNNaffinity>
6.1004276276

> <CNN_VS>
2.7851083279

> <CNNaffinity_variance>
0.5746801496

> <Compound_Name>
EDEL-CRBN-0016_ent

> <Pose_Rank>
2
$$$$
EDEL-CRBN-0016_ent


 39 43  0  0  0  0  0  0  0  0999 V2000
   85.5776  153.0180   12.8098 C   0  0  0  0  0  0  0  0  0  0  0  0
   86.8130  152.6143   12.2632 C   0  0  0  0  0  0  0  0  0  0  0  0
   84.5376  152.0601   12.9733 C   0  0  0  0  0  0  0  0  0  0  0  0
   86.9555  151.3065   11.8471 C   0  0  0  0  0  0  0  0  0  0  0  0
   84.7053  150.7254   12.5730 C   0  0  0  0  0  0  0  0  0  0  0  0
   85.9150  150.3688   12.0130 C   0  0  0  0  0  0  0  0  0  0  0  0
   88.1321  150.5868   11.2312 C   0  0  0  0  0  0  0  0  0  0  0  0
   86.4148  149.0330   11.5100 C   0  0  0  0  0  0  0  0  0  0  0  0
   87.4378  149.4850   10.5698 N   0  0  0  0  0  0  0  0  0  0  0  0
   89.0169  149.9385   12.3485 C   0  0  0  0  0  0  0  0  0  0  0  0
   87.1700  148.2747   12.6544 C   0  0  0  0  0  0  0  0  0  0  0  0
   88.0614  148.6917    9.6488 C   0  0  0  0  0  0  0  0  0  0  0  0
   88.2426  149.0916   13.3128 N   0  0  0  0  0  0  0  0  0  0  0  0
   89.1311  148.9774    9.1286 O   0  0  0  0  0  0  0  0  0  0  0  0
   85.3549  154.1170   15.4601 O   0  0  0  0  0  0  0  0  0  0  0  0
   85.1345  154.7877   14.4538 C   0  0  0  0  0  0  0  0  0  0  0  0
   85.3757  154.3913   13.1446 N   0  0  0  0  0  0  0  0  0  0  0  0
   84.7052  156.0864   14.5931 N   0  0  0  0  0  0  0  0  0  0  0  0
   84.9844  155.2791   12.0578 C   0  0  0  0  0  0  0  0  0  0  0  0
   84.9666  157.0992   13.7109 C   0  0  0  0  0  0  0  0  0  0  0  0
   85.4485  156.6889   12.3471 C   0  0  0  0  0  0  0  0  0  0  0  0
   84.8920  158.2775   14.0516 O   0  0  0  0  0  0  0  0  0  0  0  0
   84.1683  156.3045   15.3890 H   0  0  0  0  0  0  0  0  0  0  0  0
   87.8789  153.4594   12.1104 O   0  0  0  0  0  0  0  0  0  0  0  0
   88.1221  153.7127   10.7239 C   0  0  0  0  0  0  0  0  0  0  0  0
   83.3016  152.4977   13.3950 O   0  0  0  0  0  0  0  0  0  0  0  0
   82.8162  151.7598   14.5170 C   0  0  0  0  0  0  0  0  0  0  0  0
   87.3544  147.5591    9.4096 O   0  0  0  0  0  0  0  0  0  0  0  0
   87.4528  146.8730    8.1357 C   0  0  0  0  0  0  0  0  0  0  0  0
   88.8445  146.2613    7.9414 C   0  0  0  0  0  0  0  0  0  0  0  0
   87.0601  147.7915    6.9738 C   0  0  0  0  0  0  0  0  0  0  0  0
   86.4261  145.7339    8.2295 C   0  0  0  0  0  0  0  0  0  0  0  0
   89.1350  148.2854   14.1521 C   0  0  0  0  0  0  0  0  0  0  0  0
   88.4782  147.8019   15.4274 C   0  0  0  0  0  0  0  0  0  0  0  0
   88.0300  146.4785   15.5435 C   0  0  0  0  0  0  0  0  0  0  0  0
   88.3244  148.6676   16.5215 C   0  0  0  0  0  0  0  0  0  0  0  0
   87.4345  146.0341   16.7257 C   0  0  0  0  0  0  0  0  0  0  0  0
   87.7282  148.2219   17.7016 C   0  0  0  0  0  0  0  0  0  0  0  0
   87.2836  146.9053   17.8033 C   0  0  0  0  0  0  0  0  0  0  0  0
 15 16  2  0
 16 17  1  0
 16 18  1  0
 17 19  1  0
 18 20  1  0
  1 17  1  0
  1  2  2  0
  1  3  5  0
 19 21  1  0
 20 22  2  0
 20 21  1  0
  2 24  1  0
  2  4  5  0
  3 26  1  0
  3  5  2  0
 24 25  1  0
  4  6  2  0
  4  7  1  0
 26 27  1  0
  5  6  5  0
  6  8  1  0
  7  9  1  0
  7 10  1  0
  8 11  1  0
  8  9  1  0
  9 12  1  0
 10 13  1  0
 11 13  1  0
 12 14  2  0
 12 28  1  0
 13 33  1  0
 28 29  1  0
 33 34  1  0
 29 30  1  0
 29 31  1  0
 29 32  1  0
 34 35  2  0
 34 36  5  0
 35 37  5  0
 36 38  2  0
 37 39  2  0
 38 39  5  0
 18 23  1  0
M  END
> <ID>
EDEL-CRBN-0016_ent

> <Stereoisomer>
enantiomer

> <MW>
522.25

> <HBD>
1

> <HBA>
7

> <RotBonds>
5

> <cLogP>
4.0

> <minimizedAffinity>
-5.88452

> <CNNscore>
0.2466056347

> <CNNaffinity>
4.6870570183

> <CNN_VS>
1.1558547020

> <CNNaffinity_variance>
1.4433261156

> <Compound_Name>
EDEL-CRBN-0016_ent

> <Pose_Rank>
3
$$$$
EDEL-CRBN-0016_ent


 39 43  0  0  0  0  0  0  0  0999 V2000
   87.0359  148.2651   15.3510 C   0  0  0  0  0  0  0  0  0  0  0  0
   85.9921  148.8469   14.6026 C   0  0  0  0  0  0  0  0  0  0  0  0
   87.7145  149.0445   16.3298 C   0  0  0  0  0  0  0  0  0  0  0  0
   85.6987  150.1801   14.8036 C   0  0  0  0  0  0  0  0  0  0  0  0
   87.3866  150.3919   16.5455 C   0  0  0  0  0  0  0  0  0  0  0  0
   86.3816  150.9407   15.7755 C   0  0  0  0  0  0  0  0  0  0  0  0
   84.6591  151.0714   14.1660 C   0  0  0  0  0  0  0  0  0  0  0  0
   85.7832  152.3296   15.7767 C   0  0  0  0  0  0  0  0  0  0  0  0
   85.2601  152.3795   14.4134 N   0  0  0  0  0  0  0  0  0  0  0  0
   83.3317  151.0360   14.9955 C   0  0  0  0  0  0  0  0  0  0  0  0
   84.5402  152.3798   16.7294 C   0  0  0  0  0  0  0  0  0  0  0  0
   84.8107  153.5074   13.7870 C   0  0  0  0  0  0  0  0  0  0  0  0
   83.5283  151.3061   16.4567 N   0  0  0  0  0  0  0  0  0  0  0  0
   84.0683  153.4869   12.8150 O   0  0  0  0  0  0  0  0  0  0  0  0
   86.2173  145.9215   16.8065 O   0  0  0  0  0  0  0  0  0  0  0  0
   87.0873  145.8814   15.9390 C   0  0  0  0  0  0  0  0  0  0  0  0
   87.4255  146.9187   15.0793 N   0  0  0  0  0  0  0  0  0  0  0  0
   87.7393  144.6956   15.6962 N   0  0  0  0  0  0  0  0  0  0  0  0
   88.5373  146.7326   14.1565 C   0  0  0  0  0  0  0  0  0  0  0  0
   88.2494  144.3130   14.4854 C   0  0  0  0  0  0  0  0  0  0  0  0
   88.4132  145.3976   13.4571 C   0  0  0  0  0  0  0  0  0  0  0  0
   88.4763  143.1321   14.2329 O   0  0  0  0  0  0  0  0  0  0  0  0
   87.8476  144.0737   16.4517 H   0  0  0  0  0  0  0  0  0  0  0  0
   85.2604  148.1587   13.6728 O   0  0  0  0  0  0  0  0  0  0  0  0
   84.1478  147.5082   14.2929 C   0  0  0  0  0  0  0  0  0  0  0  0
   88.8077  148.4964   16.9635 O   0  0  0  0  0  0  0  0  0  0  0  0
   89.6713  149.4900   17.5168 C   0  0  0  0  0  0  0  0  0  0  0  0
   85.2771  154.6292   14.3902 O   0  0  0  0  0  0  0  0  0  0  0  0
   84.8920  155.9453   13.9182 C   0  0  0  0  0  0  0  0  0  0  0  0
   85.6049  156.2948   12.6073 C   0  0  0  0  0  0  0  0  0  0  0  0
   85.1120  157.0125   14.9955 C   0  0  0  0  0  0  0  0  0  0  0  0
   83.3852  155.8313   13.6407 C   0  0  0  0  0  0  0  0  0  0  0  0
   82.2494  151.5468   17.1326 C   0  0  0  0  0  0  0  0  0  0  0  0
   82.0311  150.6498   18.3323 C   0  0  0  0  0  0  0  0  0  0  0  0
   80.8202  149.9634   18.5009 C   0  0  0  0  0  0  0  0  0  0  0  0
   83.0463  150.4770   19.2861 C   0  0  0  0  0  0  0  0  0  0  0  0
   80.6275  149.1286   19.6036 C   0  0  0  0  0  0  0  0  0  0  0  0
   82.8513  149.6432   20.3878 C   0  0  0  0  0  0  0  0  0  0  0  0
   81.6421  148.9693   20.5460 C   0  0  0  0  0  0  0  0  0  0  0  0
 15 16  2  0
 16 17  1  0
 16 18  1  0
 17 19  1  0
 18 20  1  0
  1 17  1  0
  1  2  2  0
  1  3  5  0
 19 21  1  0
 20 22  2  0
 20 21  1  0
  2 24  1  0
  2  4  5  0
  3 26  1  0
  3  5  2  0
 24 25  1  0
  4  6  2  0
  4  7  1  0
 26 27  1  0
  5  6  5  0
  6  8  1  0
  7  9  1  0
  7 10  1  0
  8 11  1  0
  8  9  1  0
  9 12  1  0
 10 13  1  0
 11 13  1  0
 12 14  2  0
 12 28  1  0
 13 33  1  0
 28 29  1  0
 33 34  1  0
 29 30  1  0
 29 31  1  0
 29 32  1  0
 34 35  2  0
 34 36  5  0
 35 37  5  0
 36 38  2  0
 37 39  2  0
 38 39  5  0
 18 23  1  0
M  END
> <ID>
EDEL-CRBN-0016_ent

> <Stereoisomer>
enantiomer

> <MW>
522.25

> <HBD>
1

> <HBA>
7

> <RotBonds>
5

> <cLogP>
4.0

> <minimizedAffinity>
-6.48369

> <CNNscore>
0.2402726859

> <CNNaffinity>
5.1522521973

> <CNN_VS>
1.2379454374

> <CNNaffinity_variance>
1.0694457293

> <Compound_Name>
EDEL-CRBN-0016_ent

> <Pose_Rank>
4
$$$$
EDEL-CRBN-0016_ent


 39 43  0  0  0  0  0  0  0  0999 V2000
   85.4749  153.1921   12.7586 C   0  0  0  0  0  0  0  0  0  0  0  0
   86.6882  152.8750   12.1140 C   0  0  0  0  0  0  0  0  0  0  0  0
   84.5063  152.1707   12.9698 C   0  0  0  0  0  0  0  0  0  0  0  0
   86.8745  151.5878   11.6529 C   0  0  0  0  0  0  0  0  0  0  0  0
   84.7205  150.8580   12.5220 C   0  0  0  0  0  0  0  0  0  0  0  0
   85.9044  150.5867   11.8672 C   0  0  0  0  0  0  0  0  0  0  0  0
   88.0423  150.9535   10.9348 C   0  0  0  0  0  0  0  0  0  0  0  0
   86.4419  149.2948   11.2932 C   0  0  0  0  0  0  0  0  0  0  0  0
   87.3658  149.8282   10.2948 N   0  0  0  0  0  0  0  0  0  0  0  0
   89.0421  150.3329   11.9676 C   0  0  0  0  0  0  0  0  0  0  0  0
   87.3210  148.5561   12.3593 C   0  0  0  0  0  0  0  0  0  0  0  0
   87.9648  149.0947    9.3101 C   0  0  0  0  0  0  0  0  0  0  0  0
   88.3903  149.4195   12.9613 N   0  0  0  0  0  0  0  0  0  0  0  0
   88.9753  149.4553    8.7226 O   0  0  0  0  0  0  0  0  0  0  0  0
   85.4839  154.2348   15.4407 O   0  0  0  0  0  0  0  0  0  0  0  0
   85.1041  154.9026   14.4811 C   0  0  0  0  0  0  0  0  0  0  0  0
   85.2198  154.5428   13.1445 N   0  0  0  0  0  0  0  0  0  0  0  0
   84.6061  156.1658   14.6971 N   0  0  0  0  0  0  0  0  0  0  0  0
   84.6466  155.4163   12.1292 C   0  0  0  0  0  0  0  0  0  0  0  0
   84.6948  157.2069   13.8136 C   0  0  0  0  0  0  0  0  0  0  0  0
   85.0437  156.8510   12.3951 C   0  0  0  0  0  0  0  0  0  0  0  0
   84.5797  158.3721   14.1866 O   0  0  0  0  0  0  0  0  0  0  0  0
   84.1506  156.3342   15.5535 H   0  0  0  0  0  0  0  0  0  0  0  0
   87.6898  153.7849   11.9084 O   0  0  0  0  0  0  0  0  0  0  0  0
   88.1466  153.7291   10.5541 C   0  0  0  0  0  0  0  0  0  0  0  0
   83.2815  152.5246   13.4909 O   0  0  0  0  0  0  0  0  0  0  0  0
   82.7185  151.4960   14.3057 C   0  0  0  0  0  0  0  0  0  0  0  0
   87.3082  147.9282    9.0912 O   0  0  0  0  0  0  0  0  0  0  0  0
   88.0295  146.6748    8.9833 C   0  0  0  0  0  0  0  0  0  0  0  0
   88.6291  146.4988    7.5838 C   0  0  0  0  0  0  0  0  0  0  0  0
   87.1501  145.4866    9.3865 C   0  0  0  0  0  0  0  0  0  0  0  0
   89.1783  146.8010    9.9957 C   0  0  0  0  0  0  0  0  0  0  0  0
   89.3864  148.6483   13.7120 C   0  0  0  0  0  0  0  0  0  0  0  0
   89.7322  149.2647   15.0507 C   0  0  0  0  0  0  0  0  0  0  0  0
   88.8200  149.2222   16.1145 C   0  0  0  0  0  0  0  0  0  0  0  0
   90.9809  149.8730   15.2530 C   0  0  0  0  0  0  0  0  0  0  0  0
   89.1477  149.7826   17.3507 C   0  0  0  0  0  0  0  0  0  0  0  0
   91.3061  150.4335   16.4887 C   0  0  0  0  0  0  0  0  0  0  0  0
   90.3894  150.3880   17.5371 C   0  0  0  0  0  0  0  0  0  0  0  0
 15 16  2  0
 16 17  1  0
 16 18  1  0
 17 19  1  0
 18 20  1  0
  1 17  1  0
  1  2  2  0
  1  3  5  0
 19 21  1  0
 20 22  2  0
 20 21  1  0
  2 24  1  0
  2  4  5  0
  3 26  1  0
  3  5  2  0
 24 25  1  0
  4  6  2  0
  4  7  1  0
 26 27  1  0
  5  6  5  0
  6  8  1  0
  7  9  1  0
  7 10  1  0
  8 11  1  0
  8  9  1  0
  9 12  1  0
 10 13  1  0
 11 13  1  0
 12 14  2  0
 12 28  1  0
 13 33  1  0
 28 29  1  0
 33 34  1  0
 29 30  1  0
 29 31  1  0
 29 32  1  0
 34 35  2  0
 34 36  5  0
 35 37  5  0
 36 38  2  0
 37 39  2  0
 38 39  5  0
 18 23  1  0
M  END
> <ID>
EDEL-CRBN-0016_ent

> <Stereoisomer>
enantiomer

> <MW>
522.25

> <HBD>
1

> <HBA>
7

> <RotBonds>
5

> <cLogP>
4.0

> <minimizedAffinity>
-6.41331

> <CNNscore>
0.2369828969

> <CNNaffinity>
4.7826442719

> <CNN_VS>
1.1334048510

> <CNNaffinity_variance>
1.5389763117

> <Compound_Name>
EDEL-CRBN-0016_ent

> <Pose_Rank>
5
$$$$
EDEL-CRBN-0016


 39 43  0  0  0  0  0  0  0  0999 V2000
   84.7514  153.9843   13.2628 C   0  0  0  0  0  0  0  0  0  0  0  0
   83.7161  153.1961   13.8089 C   0  0  0  0  0  0  0  0  0  0  0  0
   85.8118  153.3298   12.5750 C   0  0  0  0  0  0  0  0  0  0  0  0
   83.7887  151.8215   13.6848 C   0  0  0  0  0  0  0  0  0  0  0  0
   85.8533  151.9376   12.4104 C   0  0  0  0  0  0  0  0  0  0  0  0
   84.8421  151.1985   12.9834 C   0  0  0  0  0  0  0  0  0  0  0  0
   82.8870  150.7359   14.2235 C   0  0  0  0  0  0  0  0  0  0  0  0
   84.6265  149.7039   13.0611 C   0  0  0  0  0  0  0  0  0  0  0  0
   83.1809  149.6689   13.2691 N   0  0  0  0  0  0  0  0  0  0  0  0
   83.4104  150.2453   15.6159 C   0  0  0  0  0  0  0  0  0  0  0  0
   85.2732  149.1282   14.3657 C   0  0  0  0  0  0  0  0  0  0  0  0
   82.3987  148.5533   13.1742 C   0  0  0  0  0  0  0  0  0  0  0  0
   84.8597  149.8473   15.6099 N   0  0  0  0  0  0  0  0  0  0  0  0
   81.2808  148.4698   13.6631 O   0  0  0  0  0  0  0  0  0  0  0  0
   84.4446  155.8311   11.1041 O   0  0  0  0  0  0  0  0  0  0  0  0
   84.5973  156.2155   12.2599 C   0  0  0  0  0  0  0  0  0  0  0  0
   84.7095  155.4092   13.3894 N   0  0  0  0  0  0  0  0  0  0  0  0
   84.6315  157.5683   12.5114 N   0  0  0  0  0  0  0  0  0  0  0  0
   84.4837  156.0110   14.6935 C   0  0  0  0  0  0  0  0  0  0  0  0
   85.0246  158.1792   13.6709 C   0  0  0  0  0  0  0  0  0  0  0  0
   85.3144  157.2694   14.8300 C   0  0  0  0  0  0  0  0  0  0  0  0
   85.1963  159.3939   13.7311 O   0  0  0  0  0  0  0  0  0  0  0  0
   84.3422  158.1593   11.7791 H   0  0  0  0  0  0  0  0  0  0  0  0
   82.6305  153.7336   14.4446 O   0  0  0  0  0  0  0  0  0  0  0  0
   81.7828  152.7007   14.9459 C   0  0  0  0  0  0  0  0  0  0  0  0
   86.8681  154.0450   12.0551 O   0  0  0  0  0  0  0  0  0  0  0  0
   87.7819  153.1495   11.4144 C   0  0  0  0  0  0  0  0  0  0  0  0
   83.0251  147.5661   12.4857 O   0  0  0  0  0  0  0  0  0  0  0  0
   83.1953  146.2469   13.0638 C   0  0  0  0  0  0  0  0  0  0  0  0
   82.1443  145.2647   12.5358 C   0  0  0  0  0  0  0  0  0  0  0  0
   83.2076  146.3092   14.5951 C   0  0  0  0  0  0  0  0  0  0  0  0
   84.5804  145.7891   12.5814 C   0  0  0  0  0  0  0  0  0  0  0  0
   85.2489  149.1084   16.8160 C   0  0  0  0  0  0  0  0  0  0  0  0
   84.3417  149.3503   18.0041 C   0  0  0  0  0  0  0  0  0  0  0  0
   84.1841  148.3629   18.9878 C   0  0  0  0  0  0  0  0  0  0  0  0
   83.6758  150.5753   18.1655 C   0  0  0  0  0  0  0  0  0  0  0  0
   83.3655  148.5897   20.0962 C   0  0  0  0  0  0  0  0  0  0  0  0
   82.8543  150.7986   19.2712 C   0  0  0  0  0  0  0  0  0  0  0  0
   82.6998  149.8060   20.2364 C   0  0  0  0  0  0  0  0  0  0  0  0
 15 16  2  0
 16 17  1  0
 16 18  1  0
 17 19  1  0
 18 20  1  0
  1 17  1  0
  1  2  2  0
  1  3  5  0
 19 21  1  0
 20 22  2  0
 20 21  1  0
  2 24  1  0
  2  4  5  0
  3 26  1  0
  3  5  2  0
 24 25  1  0
  4  6  2  0
  4  7  1  0
 26 27  1  0
  5  6  5  0
  6  8  1  0
  7  9  1  0
  7 10  1  0
  8 11  1  0
  8  9  1  0
  9 12  1  0
 10 13  1  0
 11 13  1  0
 12 14  2  0
 12 28  1  0
 13 33  1  0
 28 29  1  0
 33 34  1  0
 29 30  1  0
 29 31  1  0
 29 32  1  0
 34 35  2  0
 34 36  5  0
 35 37  5  0
 36 38  2  0
 37 39  2  0
 38 39  5  0
 18 23  1  0
M  END
> <ID>
EDEL-CRBN-0016

> <Stereoisomer>
original

> <MW>
522.25

> <HBD>
1

> <HBA>
7

> <RotBonds>
5

> <cLogP>
4.0

> <minimizedAffinity>
-8.30065

> <CNNscore>
0.7572116852

> <CNNaffinity>
6.2036767006

> <CNN_VS>
4.6974964142

> <CNNaffinity_variance>
0.7517269254

> <Compound_Name>
EDEL-CRBN-0016

> <Pose_Rank>
1
$$$$
EDEL-CRBN-0016


 39 43  0  0  0  0  0  0  0  0999 V2000
   85.2463  153.9505   13.2885 C   0  0  0  0  0  0  0  0  0  0  0  0
   84.5031  153.0338   14.0621 C   0  0  0  0  0  0  0  0  0  0  0  0
   86.1894  153.4406   12.3522 C   0  0  0  0  0  0  0  0  0  0  0  0
   84.7428  151.6816   13.9055 C   0  0  0  0  0  0  0  0  0  0  0  0
   86.3919  152.0657   12.1639 C   0  0  0  0  0  0  0  0  0  0  0  0
   85.6712  151.2015   12.9582 C   0  0  0  0  0  0  0  0  0  0  0  0
   84.1692  150.4897   14.6351 C   0  0  0  0  0  0  0  0  0  0  0  0
   85.7017  149.6936   13.0667 C   0  0  0  0  0  0  0  0  0  0  0  0
   84.3723  149.4547   13.6236 N   0  0  0  0  0  0  0  0  0  0  0  0
   85.0840  150.1124   15.8492 C   0  0  0  0  0  0  0  0  0  0  0  0
   86.7256  149.2479   14.1643 C   0  0  0  0  0  0  0  0  0  0  0  0
   83.7622  148.2358   13.7091 C   0  0  0  0  0  0  0  0  0  0  0  0
   86.5296  149.9281   15.4814 N   0  0  0  0  0  0  0  0  0  0  0  0
   82.8229  148.0028   14.4570 O   0  0  0  0  0  0  0  0  0  0  0  0
   84.5891  155.7630   11.1795 O   0  0  0  0  0  0  0  0  0  0  0  0
   84.7538  156.1529   12.3319 C   0  0  0  0  0  0  0  0  0  0  0  0
   85.0294  155.3570   13.4406 N   0  0  0  0  0  0  0  0  0  0  0  0
   84.6282  157.4964   12.6035 N   0  0  0  0  0  0  0  0  0  0  0  0
   84.7995  155.9123   14.7644 C   0  0  0  0  0  0  0  0  0  0  0  0
   85.0023  158.1417   13.7505 C   0  0  0  0  0  0  0  0  0  0  0  0
   85.4685  157.2658   14.8777 C   0  0  0  0  0  0  0  0  0  0  0  0
   85.0201  159.3677   13.8215 O   0  0  0  0  0  0  0  0  0  0  0  0
   84.2264  158.0522   11.8972 H   0  0  0  0  0  0  0  0  0  0  0  0
   83.5402  153.4230   14.9525 O   0  0  0  0  0  0  0  0  0  0  0  0
   82.2426  153.2980   14.3718 C   0  0  0  0  0  0  0  0  0  0  0  0
   86.9698  154.2890   11.5980 O   0  0  0  0  0  0  0  0  0  0  0  0
   88.0386  153.5492   10.9996 C   0  0  0  0  0  0  0  0  0  0  0  0
   84.3377  147.3339   12.8746 O   0  0  0  0  0  0  0  0  0  0  0  0
   84.7703  146.0382   13.3618 C   0  0  0  0  0  0  0  0  0  0  0  0
   83.6855  144.9745   13.1622 C   0  0  0  0  0  0  0  0  0  0  0  0
   85.2352  146.1203   14.8200 C   0  0  0  0  0  0  0  0  0  0  0  0
   85.9779  145.6781   12.4827 C   0  0  0  0  0  0  0  0  0  0  0  0
   87.3063  149.2814   16.5447 C   0  0  0  0  0  0  0  0  0  0  0  0
   88.7327  149.7785   16.6526 C   0  0  0  0  0  0  0  0  0  0  0  0
   89.3125  150.5015   15.5999 C   0  0  0  0  0  0  0  0  0  0  0  0
   89.4856  149.5623   17.8173 C   0  0  0  0  0  0  0  0  0  0  0  0
   90.6202  150.9805   15.7035 C   0  0  0  0  0  0  0  0  0  0  0  0
   90.7939  150.0373   17.9174 C   0  0  0  0  0  0  0  0  0  0  0  0
   91.3606  150.7467   16.8608 C   0  0  0  0  0  0  0  0  0  0  0  0
 15 16  2  0
 16 17  1  0
 16 18  1  0
 17 19  1  0
 18 20  1  0
  1 17  1  0
  1  2  2  0
  1  3  5  0
 19 21  1  0
 20 22  2  0
 20 21  1  0
  2 24  1  0
  2  4  5  0
  3 26  1  0
  3  5  2  0
 24 25  1  0
  4  6  2  0
  4  7  1  0
 26 27  1  0
  5  6  5  0
  6  8  1  0
  7  9  1  0
  7 10  1  0
  8 11  1  0
  8  9  1  0
  9 12  1  0
 10 13  1  0
 11 13  1  0
 12 14  2  0
 12 28  1  0
 13 33  1  0
 28 29  1  0
 33 34  1  0
 29 30  1  0
 29 31  1  0
 29 32  1  0
 34 35  2  0
 34 36  5  0
 35 37  5  0
 36 38  2  0
 37 39  2  0
 38 39  5  0
 18 23  1  0
M  END
> <ID>
EDEL-CRBN-0016

> <Stereoisomer>
original

> <MW>
522.25

> <HBD>
1

> <HBA>
7

> <RotBonds>
5

> <cLogP>
4.0

> <minimizedAffinity>
-7.26924

> <CNNscore>
0.6753346920

> <CNNaffinity>
6.0206446648

> <CNN_VS>
4.0659503937

> <CNNaffinity_variance>
0.7831640244

> <Compound_Name>
EDEL-CRBN-0016

> <Pose_Rank>
2
$$$$
EDEL-CRBN-0016


 39 43  0  0  0  0  0  0  0  0999 V2000
   84.4077  153.0638   13.2838 C   0  0  0  0  0  0  0  0  0  0  0  0
   83.2883  152.5191   13.9482 C   0  0  0  0  0  0  0  0  0  0  0  0
   85.2392  152.1906   12.5274 C   0  0  0  0  0  0  0  0  0  0  0  0
   83.0624  151.1580   13.8671 C   0  0  0  0  0  0  0  0  0  0  0  0
   84.9755  150.8182   12.4095 C   0  0  0  0  0  0  0  0  0  0  0  0
   83.8923  150.3168   13.0968 C   0  0  0  0  0  0  0  0  0  0  0  0
   82.0107  150.2943   14.5229 C   0  0  0  0  0  0  0  0  0  0  0  0
   83.3800  148.9020   13.2467 C   0  0  0  0  0  0  0  0  0  0  0  0
   81.9850  149.1742   13.5846 N   0  0  0  0  0  0  0  0  0  0  0  0
   82.5511  149.7275   15.8794 C   0  0  0  0  0  0  0  0  0  0  0  0
   84.0146  148.2247   14.5078 C   0  0  0  0  0  0  0  0  0  0  0  0
   80.9833  148.2460   13.6000 C   0  0  0  0  0  0  0  0  0  0  0  0
   83.8792  149.0344   15.7576 N   0  0  0  0  0  0  0  0  0  0  0  0
   79.9240  148.4066   14.1899 O   0  0  0  0  0  0  0  0  0  0  0  0
   85.2954  154.4528   15.6178 O   0  0  0  0  0  0  0  0  0  0  0  0
   85.0643  155.0457   14.5679 C   0  0  0  0  0  0  0  0  0  0  0  0
   84.6742  154.4678   13.3628 N   0  0  0  0  0  0  0  0  0  0  0  0
   85.2284  156.4116   14.5260 N   0  0  0  0  0  0  0  0  0  0  0  0
   84.8310  155.2419   12.1422 C   0  0  0  0  0  0  0  0  0  0  0  0
   84.8002  157.2612   13.5425 C   0  0  0  0  0  0  0  0  0  0  0  0
   84.2153  156.6135   12.3205 C   0  0  0  0  0  0  0  0  0  0  0  0
   84.8308  158.4803   13.6883 O   0  0  0  0  0  0  0  0  0  0  0  0
   85.7045  156.8210   15.2843 H   0  0  0  0  0  0  0  0  0  0  0  0
   82.4031  153.2824   14.6591 O   0  0  0  0  0  0  0  0  0  0  0  0
   81.3138  152.4845   15.1212 C   0  0  0  0  0  0  0  0  0  0  0  0
   86.3664  152.6601   11.8898 O   0  0  0  0  0  0  0  0  0  0  0  0
   87.5239  152.0145   12.4291 C   0  0  0  0  0  0  0  0  0  0  0  0
   81.3232  147.1384   12.8937 O   0  0  0  0  0  0  0  0  0  0  0  0
   80.4355  146.5985   11.8818 C   0  0  0  0  0  0  0  0  0  0  0  0
   81.2204  145.9359   10.7447 C   0  0  0  0  0  0  0  0  0  0  0  0
   79.4662  147.6678   11.3659 C   0  0  0  0  0  0  0  0  0  0  0  0
   79.6264  145.5171   12.6145 C   0  0  0  0  0  0  0  0  0  0  0  0
   84.2198  148.2499   16.9495 C   0  0  0  0  0  0  0  0  0  0  0  0
   83.4203  148.6236   18.1801 C   0  0  0  0  0  0  0  0  0  0  0  0
   82.4553  147.7438   18.6921 C   0  0  0  0  0  0  0  0  0  0  0  0
   83.6552  149.8327   18.8531 C   0  0  0  0  0  0  0  0  0  0  0  0
   81.7307  148.0747   19.8391 C   0  0  0  0  0  0  0  0  0  0  0  0
   82.9268  150.1641   19.9963 C   0  0  0  0  0  0  0  0  0  0  0  0
   81.9652  149.2849   20.4893 C   0  0  0  0  0  0  0  0  0  0  0  0
 15 16  2  0
 16 17  1  0
 16 18  1  0
 17 19  1  0
 18 20  1  0
  1 17  1  0
  1  2  2  0
  1  3  5  0
 19 21  1  0
 20 22  2  0
 20 21  1  0
  2 24  1  0
  2  4  5  0
  3 26  1  0
  3  5  2  0
 24 25  1  0
  4  6  2  0
  4  7  1  0
 26 27  1  0
  5  6  5  0
  6  8  1  0
  7  9  1  0
  7 10  1  0
  8 11  1  0
  8  9  1  0
  9 12  1  0
 10 13  1  0
 11 13  1  0
 12 14  2  0
 12 28  1  0
 13 33  1  0
 28 29  1  0
 33 34  1  0
 29 30  1  0
 29 31  1  0
 29 32  1  0
 34 35  2  0
 34 36  5  0
 35 37  5  0
 36 38  2  0
 37 39  2  0
 38 39  5  0
 18 23  1  0
M  END
> <ID>
EDEL-CRBN-0016

> <Stereoisomer>
original

> <MW>
522.25

> <HBD>
1

> <HBA>
7

> <RotBonds>
5

> <cLogP>
4.0

> <minimizedAffinity>
-7.79015

> <CNNscore>
0.2687677443

> <CNNaffinity>
4.7580528259

> <CNN_VS>
1.2788110971

> <CNNaffinity_variance>
2.1842243671

> <Compound_Name>
EDEL-CRBN-0016

> <Pose_Rank>
3
$$$$
EDEL-CRBN-0016


 39 43  0  0  0  0  0  0  0  0999 V2000
   84.4610  153.0443   13.2560 C   0  0  0  0  0  0  0  0  0  0  0  0
   83.2636  152.4833   13.7488 C   0  0  0  0  0  0  0  0  0  0  0  0
   85.4142  152.1811   12.6459 C   0  0  0  0  0  0  0  0  0  0  0  0
   83.0780  151.1172   13.6508 C   0  0  0  0  0  0  0  0  0  0  0  0
   85.1970  150.8026   12.5058 C   0  0  0  0  0  0  0  0  0  0  0  0
   84.0311  150.2858   13.0261 C   0  0  0  0  0  0  0  0  0  0  0  0
   81.9547  150.2386   14.1491 C   0  0  0  0  0  0  0  0  0  0  0  0
   83.5282  148.8625   13.1134 C   0  0  0  0  0  0  0  0  0  0  0  0
   82.0932  149.1096   13.2315 N   0  0  0  0  0  0  0  0  0  0  0  0
   82.2923  149.6952   15.5789 C   0  0  0  0  0  0  0  0  0  0  0  0
   83.9754  148.2097   14.4646 C   0  0  0  0  0  0  0  0  0  0  0  0
   81.1182  148.1615   13.1054 C   0  0  0  0  0  0  0  0  0  0  0  0
   83.6360  149.0280   15.6693 N   0  0  0  0  0  0  0  0  0  0  0  0
   79.9785  148.3062   13.5250 O   0  0  0  0  0  0  0  0  0  0  0  0
   85.2830  154.4246   15.6191 O   0  0  0  0  0  0  0  0  0  0  0  0
   85.0465  155.0255   14.5751 C   0  0  0  0  0  0  0  0  0  0  0  0
   84.6862  154.4540   13.3577 N   0  0  0  0  0  0  0  0  0  0  0  0
   85.1718  156.3961   14.5541 N   0  0  0  0  0  0  0  0  0  0  0  0
   84.8341  155.2497   12.1499 C   0  0  0  0  0  0  0  0  0  0  0  0
   84.7302  157.2470   13.5778 C   0  0  0  0  0  0  0  0  0  0  0  0
   84.1774  156.6005   12.3403 C   0  0  0  0  0  0  0  0  0  0  0  0
   84.7242  158.4643   13.7410 O   0  0  0  0  0  0  0  0  0  0  0  0
   85.6276  156.8079   15.3233 H   0  0  0  0  0  0  0  0  0  0  0  0
   82.2663  153.2350   14.3072 O   0  0  0  0  0  0  0  0  0  0  0  0
   82.1683  152.9749   15.7070 C   0  0  0  0  0  0  0  0  0  0  0  0
   86.6165  152.6673   12.1818 O   0  0  0  0  0  0  0  0  0  0  0  0
   87.4330  151.5787   11.7393 C   0  0  0  0  0  0  0  0  0  0  0  0
   81.5823  147.0546   12.4727 O   0  0  0  0  0  0  0  0  0  0  0  0
   80.6948  146.2176   11.6883 C   0  0  0  0  0  0  0  0  0  0  0  0
   79.6418  147.0534   10.9531 C   0  0  0  0  0  0  0  0  0  0  0  0
   80.0604  145.1205   12.5503 C   0  0  0  0  0  0  0  0  0  0  0  0
   81.6092  145.5543   10.6467 C   0  0  0  0  0  0  0  0  0  0  0  0
   83.8052  148.2615   16.9086 C   0  0  0  0  0  0  0  0  0  0  0  0
   85.2461  148.1232   17.3535 C   0  0  0  0  0  0  0  0  0  0  0  0
   86.2641  148.8174   16.6835 C   0  0  0  0  0  0  0  0  0  0  0  0
   85.5856  147.3345   18.4638 C   0  0  0  0  0  0  0  0  0  0  0  0
   87.5916  148.7099   17.1035 C   0  0  0  0  0  0  0  0  0  0  0  0
   86.9132  147.2242   18.8793 C   0  0  0  0  0  0  0  0  0  0  0  0
   87.9157  147.9123   18.1994 C   0  0  0  0  0  0  0  0  0  0  0  0
 15 16  2  0
 16 17  1  0
 16 18  1  0
 17 19  1  0
 18 20  1  0
  1 17  1  0
  1  2  2  0
  1  3  5  0
 19 21  1  0
 20 22  2  0
 20 21  1  0
  2 24  1  0
  2  4  5  0
  3 26  1  0
  3  5  2  0
 24 25  1  0
  4  6  2  0
  4  7  1  0
 26 27  1  0
  5  6  5  0
  6  8  1  0
  7  9  1  0
  7 10  1  0
  8 11  1  0
  8  9  1  0
  9 12  1  0
 10 13  1  0
 11 13  1  0
 12 14  2  0
 12 28  1  0
 13 33  1  0
 28 29  1  0
 33 34  1  0
 29 30  1  0
 29 31  1  0
 29 32  1  0
 34 35  2  0
 34 36  5  0
 35 37  5  0
 36 38  2  0
 37 39  2  0
 38 39  5  0
 18 23  1  0
M  END
> <ID>
EDEL-CRBN-0016

> <Stereoisomer>
original

> <MW>
522.25

> <HBD>
1

> <HBA>
7

> <RotBonds>
5

> <cLogP>
4.0

> <minimizedAffinity>
-7.27824

> <CNNscore>
0.2438155711

> <CNNaffinity>
4.6515622139

> <CNN_VS>
1.1341233253

> <CNNaffinity_variance>
1.8557597399

> <Compound_Name>
EDEL-CRBN-0016

> <Pose_Rank>
4
$$$$
EDEL-CRBN-0016


 39 43  0  0  0  0  0  0  0  0999 V2000
   84.2881  151.9044   14.7429 C   0  0  0  0  0  0  0  0  0  0  0  0
   84.4441  150.8790   13.7862 C   0  0  0  0  0  0  0  0  0  0  0  0
   84.2074  151.5437   16.1174 C   0  0  0  0  0  0  0  0  0  0  0  0
   84.4783  149.5659   14.2163 C   0  0  0  0  0  0  0  0  0  0  0  0
   84.2924  150.2124   16.5503 C   0  0  0  0  0  0  0  0  0  0  0  0
   84.4133  149.2361   15.5863 C   0  0  0  0  0  0  0  0  0  0  0  0
   84.5565  148.2760   13.4340 C   0  0  0  0  0  0  0  0  0  0  0  0
   84.4525  147.7288   15.6994 C   0  0  0  0  0  0  0  0  0  0  0  0
   85.1361  147.4007   14.4507 N   0  0  0  0  0  0  0  0  0  0  0  0
   83.1152  147.7337   13.1477 C   0  0  0  0  0  0  0  0  0  0  0  0
   83.0079  147.1367   15.5794 C   0  0  0  0  0  0  0  0  0  0  0  0
   85.6550  146.1773   14.1353 C   0  0  0  0  0  0  0  0  0  0  0  0
   82.2590  147.6167   14.3774 N   0  0  0  0  0  0  0  0  0  0  0  0
   85.9178  145.8304   12.9923 O   0  0  0  0  0  0  0  0  0  0  0  0
   81.9010  153.4282   14.3621 O   0  0  0  0  0  0  0  0  0  0  0  0
   83.0090  153.9039   14.1314 C   0  0  0  0  0  0  0  0  0  0  0  0
   84.2346  153.2721   14.3245 N   0  0  0  0  0  0  0  0  0  0  0  0
   83.0937  155.1975   13.6687 N   0  0  0  0  0  0  0  0  0  0  0  0
   85.4332  154.0926   14.3860 C   0  0  0  0  0  0  0  0  0  0  0  0
   84.1959  155.8099   13.1374 C   0  0  0  0  0  0  0  0  0  0  0  0
   85.4771  155.0289   13.1971 C   0  0  0  0  0  0  0  0  0  0  0  0
   84.1189  156.9032   12.5830 O   0  0  0  0  0  0  0  0  0  0  0  0
   82.2740  155.7397   13.7261 H   0  0  0  0  0  0  0  0  0  0  0  0
   84.5797  151.1268   12.4476 O   0  0  0  0  0  0  0  0  0  0  0  0
   85.9589  151.2298   12.0956 C   0  0  0  0  0  0  0  0  0  0  0  0
   84.0167  152.4990   17.0914 O   0  0  0  0  0  0  0  0  0  0  0  0
   83.2567  151.9393   18.1669 C   0  0  0  0  0  0  0  0  0  0  0  0
   85.8251  145.4110   15.2421 O   0  0  0  0  0  0  0  0  0  0  0  0
   87.1469  145.1812   15.7932 C   0  0  0  0  0  0  0  0  0  0  0  0
   88.1162  146.3041   15.4094 C   0  0  0  0  0  0  0  0  0  0  0  0
   87.6805  143.7997   15.3984 C   0  0  0  0  0  0  0  0  0  0  0  0
   86.9412  145.2097   17.3156 C   0  0  0  0  0  0  0  0  0  0  0  0
   81.0431  146.8287   14.1478 C   0  0  0  0  0  0  0  0  0  0  0  0
   79.9882  147.5497   13.3351 C   0  0  0  0  0  0  0  0  0  0  0  0
   79.2861  148.6317   13.8862 C   0  0  0  0  0  0  0  0  0  0  0  0
   79.7215  147.1784   12.0081 C   0  0  0  0  0  0  0  0  0  0  0  0
   78.3276  149.3132   13.1333 C   0  0  0  0  0  0  0  0  0  0  0  0
   78.7599  147.8574   11.2585 C   0  0  0  0  0  0  0  0  0  0  0  0
   78.0637  148.9249   11.8211 C   0  0  0  0  0  0  0  0  0  0  0  0
 15 16  2  0
 16 17  1  0
 16 18  1  0
 17 19  1  0
 18 20  1  0
  1 17  1  0
  1  2  2  0
  1  3  5  0
 19 21  1  0
 20 22  2  0
 20 21  1  0
  2 24  1  0
  2  4  5  0
  3 26  1  0
  3  5  2  0
 24 25  1  0
  4  6  2  0
  4  7  1  0
 26 27  1  0
  5  6  5  0
  6  8  1  0
  7  9  1  0
  7 10  1  0
  8 11  1  0
  8  9  1  0
  9 12  1  0
 10 13  1  0
 11 13  1  0
 12 14  2  0
 12 28  1  0
 13 33  1  0
 28 29  1  0
 33 34  1  0
 29 30  1  0
 29 31  1  0
 29 32  1  0
 34 35  2  0
 34 36  5  0
 35 37  5  0
 36 38  2  0
 37 39  2  0
 38 39  5  0
 18 23  1  0
M  END
> <ID>
EDEL-CRBN-0016

> <Stereoisomer>
original

> <MW>
522.25

> <HBD>
1

> <HBA>
7

> <RotBonds>
5

> <cLogP>
4.0

> <minimizedAffinity>
-5.78045

> <CNNscore>
0.2382465154

> <CNNaffinity>
5.3211345673

> <CNN_VS>
1.2677417994

> <CNNaffinity_variance>
0.6001778245

> <Compound_Name>
EDEL-CRBN-0016

> <Pose_Rank>
5
$$$$
