clean_pose_5
 OpenBabel09072615103D

 59 63  0  0  0  0  0  0  0  0999 V2000
   -6.2339   40.9904   44.8085 C   0  0  0  0  0  0  0  0  0  0  0  0
   -6.1350   39.7623   45.3647 N   0  0  0  0  0  0  0  0  0  0  0  0
   -5.2000   41.7967   44.4856 N   0  0  0  0  0  0  0  0  0  0  0  0
   -4.9171   39.2064   45.5933 C   0  0  0  0  0  0  0  0  0  0  0  0
   -4.0202   41.2334   44.7688 C   0  0  0  0  0  0  0  0  0  0  0  0
   -3.7853   39.9855   45.3085 C   0  0  0  0  0  0  0  0  0  0  0  0
   -2.7826   41.7703   44.5657 N   0  0  0  0  0  0  0  0  0  0  0  0
   -2.4282   39.7553   45.4404 N   0  0  0  0  0  0  0  0  0  0  0  0
   -1.8589   40.8497   44.9813 C   0  0  0  0  0  0  0  0  0  0  0  0
   -7.4947   41.5014   44.4596 N   0  0  0  0  0  0  0  0  0  0  0  0
   -6.9723   45.1017   43.6769 C   0  0  0  0  0  0  0  0  0  0  0  0
   -8.2329   45.4625   43.1645 C   0  0  0  0  0  0  0  0  0  0  0  0
   -6.7698   43.7981   44.1541 C   0  0  0  0  0  0  0  0  0  0  0  0
   -9.2282   44.4784   43.0611 C   0  0  0  0  0  0  0  0  0  0  0  0
   -8.5388   46.8495   42.6713 C   0  0  0  0  0  0  0  0  0  0  0  0
   -7.7662   42.8194   44.0577 C   0  0  0  0  0  0  0  0  0  0  0  0
   -8.9871   43.1692   43.4815 C   0  0  0  0  0  0  0  0  0  0  0  0
   -4.6476   45.3203   41.9416 O   0  0  0  0  0  0  0  0  0  0  0  0
   -4.8151   46.0641   42.9077 C   0  0  0  0  0  0  0  0  0  0  0  0
   -3.8808   47.0176   43.2520 N   0  0  0  0  0  0  0  0  0  0  0  0
   -5.9325   46.0598   43.7136 N   0  0  0  0  0  0  0  0  0  0  0  0
   -3.8525   47.8423   44.4518 C   0  0  0  0  0  0  0  0  0  0  0  0
   -2.6598   47.1742   42.4805 C   0  0  0  0  0  0  0  0  0  0  0  0
   -2.4240   48.3644   44.5248 C   0  0  0  0  0  0  0  0  0  0  0  0
   -2.0031   48.4168   43.0617 C   0  0  0  0  0  0  0  0  0  0  0  0
   -4.7997   37.9014   46.0952 N   0  0  0  0  0  0  0  0  0  0  0  0
   -3.9433   37.7764   47.2767 C   0  0  0  0  0  0  0  0  0  0  0  0
   -2.9486   36.6084   47.1979 C   0  0  0  0  0  0  0  0  0  0  0  0
   -3.5180   35.2774   47.5538 C   0  0  0  0  0  0  0  0  0  0  0  0
   -4.7718   35.1688   48.1151 N   0  0  0  0  0  0  0  0  0  0  0  0
   -2.9691   34.0247   47.3770 C   0  0  0  0  0  0  0  0  0  0  0  0
   -4.9557   33.8832   48.3142 C   0  0  0  0  0  0  0  0  0  0  0  0
   -3.8885   33.1482   47.8844 N   0  0  0  0  0  0  0  0  0  0  0  0
   -2.5800   42.6999   44.1711 H   0  0  0  0  0  0  0  0  0  0  0  0
   -0.7709   41.0058   44.9369 H   0  0  0  0  0  0  0  0  0  0  0  0
   -8.2921   40.8509   44.5023 H   0  0  0  0  0  0  0  0  0  0  0  0
   -5.8052   43.5388   44.6149 H   0  0  0  0  0  0  0  0  0  0  0  0
  -10.2110   44.7421   42.6434 H   0  0  0  0  0  0  0  0  0  0  0  0
   -8.6867   47.5200   43.5307 H   0  0  0  0  0  0  0  0  0  0  0  0
   -7.6997   47.2151   42.0612 H   0  0  0  0  0  0  0  0  0  0  0  0
   -9.4538   46.8282   42.0612 H   0  0  0  0  0  0  0  0  0  0  0  0
   -9.7686   42.4052   43.3569 H   0  0  0  0  0  0  0  0  0  0  0  0
   -6.0181   46.8205   44.4028 H   0  0  0  0  0  0  0  0  0  0  0  0
   -4.5665   48.6748   44.3678 H   0  0  0  0  0  0  0  0  0  0  0  0
   -4.1374   47.2787   45.3525 H   0  0  0  0  0  0  0  0  0  0  0  0
   -2.0077   46.2966   42.6011 H   0  0  0  0  0  0  0  0  0  0  0  0
   -2.8540   47.2677   41.4018 H   0  0  0  0  0  0  0  0  0  0  0  0
   -2.3915   49.3645   44.9816 H   0  0  0  0  0  0  0  0  0  0  0  0
   -1.7646   47.7379   45.1434 H   0  0  0  0  0  0  0  0  0  0  0  0
   -0.9086   48.3706   42.9619 H   0  0  0  0  0  0  0  0  0  0  0  0
   -2.3015   49.3462   42.5545 H   0  0  0  0  0  0  0  0  0  0  0  0
   -5.2776   37.0957   45.6669 H   0  0  0  0  0  0  0  0  0  0  0  0
   -3.3738   38.7103   47.3931 H   0  0  0  0  0  0  0  0  0  0  0  0
   -4.6044   37.5783   48.1333 H   0  0  0  0  0  0  0  0  0  0  0  0
   -2.5668   36.5529   46.1678 H   0  0  0  0  0  0  0  0  0  0  0  0
   -2.1647   36.8185   47.9405 H   0  0  0  0  0  0  0  0  0  0  0  0
   -1.9969   33.7816   46.9235 H   0  0  0  0  0  0  0  0  0  0  0  0
   -5.8587   33.4520   48.7711 H   0  0  0  0  0  0  0  0  0  0  0  0
   -3.7933   32.1238   47.9332 H   0  0  0  0  0  0  0  0  0  0  0  0
  1  2  2  0  0  0  0
  1  3  1  0  0  0  0
  2  4  1  0  0  0  0
  3  5  2  0  0  0  0
  4 26  1  0  0  0  0
  4  6  2  0  0  0  0
  5  7  1  0  0  0  0
  5  6  1  0  0  0  0
  6  8  1  0  0  0  0
  7  9  1  0  0  0  0
  7 34  1  0  0  0  0
  8  9  2  0  0  0  0
  9 35  1  0  0  0  0
 10  1  1  0  0  0  0
 10 36  1  0  0  0  0
 11 12  2  0  0  0  0
 11 13  1  0  0  0  0
 12 14  1  0  0  0  0
 12 15  1  0  0  0  0
 13 16  2  0  0  0  0
 13 37  1  0  0  0  0
 14 17  2  0  0  0  0
 14 38  1  0  0  0  0
 15 39  1  0  0  0  0
 15 40  1  0  0  0  0
 15 41  1  0  0  0  0
 16 10  1  0  0  0  0
 16 17  1  0  0  0  0
 17 42  1  0  0  0  0
 18 19  2  0  0  0  0
 19 20  1  0  0  0  0
 19 21  1  0  0  0  0
 20 22  1  0  0  0  0
 20 23  1  0  0  0  0
 21 11  1  0  0  0  0
 21 43  1  0  0  0  0
 22 24  1  0  0  0  0
 22 44  1  0  0  0  0
 22 45  1  0  0  0  0
 23 25  1  0  0  0  0
 23 46  1  0  0  0  0
 23 47  1  0  0  0  0
 24 25  1  0  0  0  0
 24 48  1  0  0  0  0
 24 49  1  0  0  0  0
 25 50  1  0  0  0  0
 25 51  1  0  0  0  0
 26 27  1  0  0  0  0
 26 52  1  0  0  0  0
 27 28  1  0  0  0  0
 27 53  1  0  0  0  0
 27 54  1  0  0  0  0
 28 29  1  0  0  0  0
 28 55  1  0  0  0  0
 28 56  1  0  0  0  0
 29 30  1  0  0  0  0
 29 31  2  0  0  0  0
 30 32  2  0  0  0  0
 31 33  1  0  0  0  0
 31 57  1  0  0  0  0
 32 33  1  0  0  0  0
 32 58  1  0  0  0  0
 33 59  1  0  0  0  0
M  END
