clean_pose_2
 OpenBabel09072615073D

 59 63  0  0  0  0  0  0  0  0999 V2000
   -7.0304   41.1871   44.4266 C   0  0  0  0  0  0  0  0  0  0  0  0
   -6.2529   42.2163   44.8312 N   0  0  0  0  0  0  0  0  0  0  0  0
   -8.2139   41.2959   43.7855 N   0  0  0  0  0  0  0  0  0  0  0  0
   -6.6061   43.4974   44.5506 C   0  0  0  0  0  0  0  0  0  0  0  0
   -8.5491   42.5728   43.5693 C   0  0  0  0  0  0  0  0  0  0  0  0
   -7.8353   43.7045   43.9063 C   0  0  0  0  0  0  0  0  0  0  0  0
   -9.6717   43.0343   42.9465 N   0  0  0  0  0  0  0  0  0  0  0  0
   -8.5048   44.8453   43.5029 N   0  0  0  0  0  0  0  0  0  0  0  0
   -9.6025   44.4012   42.9282 C   0  0  0  0  0  0  0  0  0  0  0  0
   -6.5929   39.8651   44.6095 N   0  0  0  0  0  0  0  0  0  0  0  0
   -3.1584   39.9235   46.0405 C   0  0  0  0  0  0  0  0  0  0  0  0
   -3.1672   38.7628   46.8370 C   0  0  0  0  0  0  0  0  0  0  0  0
   -4.2853   40.2364   45.2658 C   0  0  0  0  0  0  0  0  0  0  0  0
   -4.3415   37.9970   46.9040 C   0  0  0  0  0  0  0  0  0  0  0  0
   -1.9846   38.3398   47.6636 C   0  0  0  0  0  0  0  0  0  0  0  0
   -5.4534   39.4671   45.3275 C   0  0  0  0  0  0  0  0  0  0  0  0
   -5.4757   38.3603   46.1756 C   0  0  0  0  0  0  0  0  0  0  0  0
   -0.8400   39.7722   44.2897 O   0  0  0  0  0  0  0  0  0  0  0  0
   -0.9088   40.5797   45.2158 C   0  0  0  0  0  0  0  0  0  0  0  0
    0.1358   41.4311   45.5070 N   0  0  0  0  0  0  0  0  0  0  0  0
   -2.0114   40.7509   46.0240 N   0  0  0  0  0  0  0  0  0  0  0  0
    0.2732   42.3075   46.6618 C   0  0  0  0  0  0  0  0  0  0  0  0
    1.3597   41.4003   44.7249 C   0  0  0  0  0  0  0  0  0  0  0  0
    1.7545   42.6579   46.7032 C   0  0  0  0  0  0  0  0  0  0  0  0
    2.1653   42.5837   45.2383 C   0  0  0  0  0  0  0  0  0  0  0  0
   -5.7697   44.5705   44.8935 N   0  0  0  0  0  0  0  0  0  0  0  0
   -5.3919   45.4328   43.7715 C   0  0  0  0  0  0  0  0  0  0  0  0
   -4.0772   45.0216   43.0918 C   0  0  0  0  0  0  0  0  0  0  0  0
   -3.4288   46.0940   42.2843 C   0  0  0  0  0  0  0  0  0  0  0  0
   -2.1898   46.5901   42.6276 N   0  0  0  0  0  0  0  0  0  0  0  0
   -3.8831   46.7093   41.1368 C   0  0  0  0  0  0  0  0  0  0  0  0
   -1.9237   47.5154   41.7335 C   0  0  0  0  0  0  0  0  0  0  0  0
   -2.9223   47.6262   40.8092 N   0  0  0  0  0  0  0  0  0  0  0  0
  -10.4333   42.4585   42.5601 H   0  0  0  0  0  0  0  0  0  0  0  0
  -10.3722   45.0509   42.4861 H   0  0  0  0  0  0  0  0  0  0  0  0
   -7.1588   39.1203   44.1782 H   0  0  0  0  0  0  0  0  0  0  0  0
   -4.2503   41.1067   44.5940 H   0  0  0  0  0  0  0  0  0  0  0  0
   -4.3685   37.0990   47.5386 H   0  0  0  0  0  0  0  0  0  0  0  0
   -2.2330   38.4287   48.7315 H   0  0  0  0  0  0  0  0  0  0  0  0
   -1.7303   37.2950   47.4320 H   0  0  0  0  0  0  0  0  0  0  0  0
   -1.1253   38.9863   47.4320 H   0  0  0  0  0  0  0  0  0  0  0  0
   -6.3970   37.7671   46.2717 H   0  0  0  0  0  0  0  0  0  0  0  0
   -1.9994   41.5510   46.6726 H   0  0  0  0  0  0  0  0  0  0  0  0
   -0.3370   43.2141   46.5362 H   0  0  0  0  0  0  0  0  0  0  0  0
   -0.0688   41.8295   47.5916 H   0  0  0  0  0  0  0  0  0  0  0  0
    1.9034   40.4583   44.8895 H   0  0  0  0  0  0  0  0  0  0  0  0
    1.1683   41.4604   43.6434 H   0  0  0  0  0  0  0  0  0  0  0  0
    1.9104   43.6693   47.1068 H   0  0  0  0  0  0  0  0  0  0  0  0
    2.3400   41.9898   47.3519 H   0  0  0  0  0  0  0  0  0  0  0  0
    3.2455   42.4017   45.1380 H   0  0  0  0  0  0  0  0  0  0  0  0
    1.9753   43.5146   44.6839 H   0  0  0  0  0  0  0  0  0  0  0  0
   -5.4472   44.7384   45.8572 H   0  0  0  0  0  0  0  0  0  0  0  0
   -6.1959   45.3990   43.0215 H   0  0  0  0  0  0  0  0  0  0  0  0
   -5.2405   46.4431   44.1794 H   0  0  0  0  0  0  0  0  0  0  0  0
   -3.3708   44.7081   43.8745 H   0  0  0  0  0  0  0  0  0  0  0  0
   -4.3314   44.2151   42.3883 H   0  0  0  0  0  0  0  0  0  0  0  0
   -4.8205   46.5057   40.5984 H   0  0  0  0  0  0  0  0  0  0  0  0
   -1.0086   48.1258   41.7301 H   0  0  0  0  0  0  0  0  0  0  0  0
   -2.9476   48.2791   40.0129 H   0  0  0  0  0  0  0  0  0  0  0  0
  1  2  2  0  0  0  0
  1  3  1  0  0  0  0
  2  4  1  0  0  0  0
  3  5  2  0  0  0  0
  4 26  1  0  0  0  0
  4  6  2  0  0  0  0
  5  7  1  0  0  0  0
  5  6  1  0  0  0  0
  6  8  1  0  0  0  0
  7  9  1  0  0  0  0
  7 34  1  0  0  0  0
  8  9  2  0  0  0  0
  9 35  1  0  0  0  0
 10  1  1  0  0  0  0
 10 36  1  0  0  0  0
 11 12  2  0  0  0  0
 11 13  1  0  0  0  0
 12 14  1  0  0  0  0
 12 15  1  0  0  0  0
 13 16  2  0  0  0  0
 13 37  1  0  0  0  0
 14 17  2  0  0  0  0
 14 38  1  0  0  0  0
 15 39  1  0  0  0  0
 15 40  1  0  0  0  0
 15 41  1  0  0  0  0
 16 10  1  0  0  0  0
 16 17  1  0  0  0  0
 17 42  1  0  0  0  0
 18 19  2  0  0  0  0
 19 20  1  0  0  0  0
 19 21  1  0  0  0  0
 20 22  1  0  0  0  0
 20 23  1  0  0  0  0
 21 11  1  0  0  0  0
 21 43  1  0  0  0  0
 22 24  1  0  0  0  0
 22 44  1  0  0  0  0
 22 45  1  0  0  0  0
 23 25  1  0  0  0  0
 23 46  1  0  0  0  0
 23 47  1  0  0  0  0
 24 25  1  0  0  0  0
 24 48  1  0  0  0  0
 24 49  1  0  0  0  0
 25 50  1  0  0  0  0
 25 51  1  0  0  0  0
 26 27  1  0  0  0  0
 26 52  1  0  0  0  0
 27 28  1  0  0  0  0
 27 53  1  0  0  0  0
 27 54  1  0  0  0  0
 28 29  1  0  0  0  0
 28 55  1  0  0  0  0
 28 56  1  0  0  0  0
 29 30  1  0  0  0  0
 29 31  2  0  0  0  0
 30 32  2  0  0  0  0
 31 33  1  0  0  0  0
 31 57  1  0  0  0  0
 32 33  1  0  0  0  0
 32 58  1  0  0  0  0
 33 59  1  0  0  0  0
M  END
