EL2003A-A2U1_pose3
     RDKit          3D

 38 42  0  0  0  0  0  0  0  0999 V2000
   -6.2969   40.5124   45.0998 C   0  0  0  0  0  0  0  0  0  0  0  0
   -5.4512   41.5629   45.1924 N   0  0  0  0  0  0  0  0  0  0  0  0
   -7.5431   40.5452   44.5808 N   0  0  0  0  0  0  0  0  0  0  0  0
   -5.8005   42.7742   44.6872 C   0  0  0  0  0  0  0  0  0  0  0  0
   -7.8673   41.7648   44.1371 C   0  0  0  0  0  0  0  0  0  0  0  0
   -7.0899   42.9047   44.1491 C   0  0  0  0  0  0  0  0  0  0  0  0
   -9.0416   42.1429   43.5548 N   0  0  0  0  0  0  0  0  0  0  0  0
   -7.7711   43.9693   43.5881 N   0  0  0  0  0  0  0  0  0  0  0  0
   -8.9391   43.4713   43.2411 C   0  0  0  0  0  0  0  0  0  0  0  0
   -9.8295   41.5375   43.3844 H   0  0  0  0  0  0  0  0  0  0  0  0
   -5.8762   39.2367   45.5097 N   0  0  0  0  0  0  0  0  0  0  0  0
   -6.3851   38.5767   44.9373 H   0  0  0  0  0  0  0  0  0  0  0  0
   -2.3322   39.5151   46.6095 C   0  0  0  0  0  0  0  0  0  0  0  0
   -1.9276   38.1668   46.5943 C   0  0  0  0  0  0  0  0  0  0  0  0
   -3.6281   39.8506   46.1897 C   0  0  0  0  0  0  0  0  0  0  0  0
   -2.8655   37.1829   46.2448 C   0  0  0  0  0  0  0  0  0  0  0  0
   -0.5440   37.7328   46.9915 C   0  0  0  0  0  0  0  0  0  0  0  0
   -4.5602   38.8686   45.8337 C   0  0  0  0  0  0  0  0  0  0  0  0
   -4.1707   37.5308   45.8922 C   0  0  0  0  0  0  0  0  0  0  0  0
   -1.6826   40.3312   49.3252 O   0  0  0  0  0  0  0  0  0  0  0  0
   -1.2169   40.9045   48.3407 C   0  0  0  0  0  0  0  0  0  0  0  0
   -0.3936   42.0027   48.4703 N   0  0  0  0  0  0  0  0  0  0  0  0
   -1.4245   40.5123   47.0364 N   0  0  0  0  0  0  0  0  0  0  0  0
    0.0874   42.8830   47.4147 C   0  0  0  0  0  0  0  0  0  0  0  0
   -0.0488   42.5222   49.7824 C   0  0  0  0  0  0  0  0  0  0  0  0
    0.5620   44.1326   48.1439 C   0  0  0  0  0  0  0  0  0  0  0  0
    0.9932   43.5939   49.5019 C   0  0  0  0  0  0  0  0  0  0  0  0
   -0.6603   40.7245   46.4165 H   0  0  0  0  0  0  0  0  0  0  0  0
   -4.9023   43.8520   44.7042 N   0  0  0  0  0  0  0  0  0  0  0  0
   -5.0113   44.3390   45.5940 H   0  0  0  0  0  0  0  0  0  0  0  0
   -4.9762   44.7270   43.5320 C   0  0  0  0  0  0  0  0  0  0  0  0
   -3.6793   44.7689   42.7097 C   0  0  0  0  0  0  0  0  0  0  0  0
   -3.3489   46.1025   42.1310 C   0  0  0  0  0  0  0  0  0  0  0  0
   -2.1579   46.7293   42.4270 N   0  0  0  0  0  0  0  0  0  0  0  0
   -4.0820   46.8713   41.2517 C   0  0  0  0  0  0  0  0  0  0  0  0
   -2.1925   47.8706   41.7770 C   0  0  0  0  0  0  0  0  0  0  0  0
   -3.3412   48.0036   41.0512 N   0  0  0  0  0  0  0  0  0  0  0  0
   -3.6020   48.8072   40.4848 H   0  0  0  0  0  0  0  0  0  0  0  0
 20 21  2  0
 21 22  1  0
 21 23  1  0
 22 24  1  0
 22 25  1  0
 23 13  1  0
 24 26  1  0
 25 27  1  0
 13 14  2  0
 13 15  1  0
 14 16  1  0
 14 17  1  0
 15 18  2  0
 16 19  2  0
 18 11  1  0
 11  1  1  0
  1  2  2  0
  1  3  1  0
  2  4  1  0
  3  5  2  0
  4 29  1  0
  4  6  2  0
  5  7  1  0
 29 31  1  0
  6  8  1  0
  7  9  1  0
 31 32  1  0
 32 33  1  0
 33 34  1  0
 33 35  2  0
 34 36  2  0
 35 37  1  0
 26 27  1  0
 18 19  1  0
  5  6  1  0
  8  9  2  0
 36 37  1  0
 23 28  1  0
 11 12  1  0
 29 30  1  0
  7 10  1  0
 37 38  1  0
M  END
>  <MMFF94_energy_kcal_mol>  (1) 
-80.5413

>  <pIC50 PDK>  (1) 
7.6

>  <Note>  (1) 
No stereocenters; single enantiomer (achiral molecule)

>  <minimizedAffinity>  (1) 
-8.35252

>  <CNNscore>  (1) 
0.8996303082

>  <CNNaffinity>  (1) 
7.3750529289

>  <CNN_VS>  (1) 
6.6348209381

>  <CNNaffinity_variance>  (1) 
0.2313739508

$$$$
