EL2003A-A2U1


 38 42  0  0  0  0  0  0  0  0999 V2000
   -7.0304   41.1871   44.4266 C   0  0  0  0  0  0  0  0  0  0  0  0
   -6.2529   42.2163   44.8312 N   0  0  0  0  0  0  0  0  0  0  0  0
   -8.2139   41.2959   43.7855 N   0  0  0  0  0  0  0  0  0  0  0  0
   -6.6061   43.4974   44.5506 C   0  0  0  0  0  0  0  0  0  0  0  0
   -8.5491   42.5728   43.5693 C   0  0  0  0  0  0  0  0  0  0  0  0
   -7.8353   43.7045   43.9063 C   0  0  0  0  0  0  0  0  0  0  0  0
   -9.6717   43.0343   42.9465 N   0  0  0  0  0  0  0  0  0  0  0  0
   -8.5048   44.8453   43.5029 N   0  0  0  0  0  0  0  0  0  0  0  0
   -9.6025   44.4012   42.9282 C   0  0  0  0  0  0  0  0  0  0  0  0
  -10.4055   42.4579   42.5649 H   0  0  0  0  0  0  0  0  0  0  0  0
   -6.5929   39.8651   44.6095 N   0  0  0  0  0  0  0  0  0  0  0  0
   -6.7356   39.3980   43.7243 H   0  0  0  0  0  0  0  0  0  0  0  0
   -3.1584   39.9235   46.0405 C   0  0  0  0  0  0  0  0  0  0  0  0
   -3.1672   38.7628   46.8370 C   0  0  0  0  0  0  0  0  0  0  0  0
   -4.2853   40.2364   45.2658 C   0  0  0  0  0  0  0  0  0  0  0  0
   -4.3415   37.9970   46.9040 C   0  0  0  0  0  0  0  0  0  0  0  0
   -1.9846   38.3398   47.6636 C   0  0  0  0  0  0  0  0  0  0  0  0
   -5.4534   39.4671   45.3275 C   0  0  0  0  0  0  0  0  0  0  0  0
   -5.4757   38.3603   46.1756 C   0  0  0  0  0  0  0  0  0  0  0  0
   -0.8400   39.7722   44.2897 O   0  0  0  0  0  0  0  0  0  0  0  0
   -0.9088   40.5797   45.2158 C   0  0  0  0  0  0  0  0  0  0  0  0
    0.1358   41.4311   45.5070 N   0  0  0  0  0  0  0  0  0  0  0  0
   -2.0114   40.7509   46.0240 N   0  0  0  0  0  0  0  0  0  0  0  0
    0.2732   42.3075   46.6618 C   0  0  0  0  0  0  0  0  0  0  0  0
    1.3597   41.4003   44.7249 C   0  0  0  0  0  0  0  0  0  0  0  0
    1.7545   42.6579   46.7032 C   0  0  0  0  0  0  0  0  0  0  0  0
    2.1653   42.5837   45.2383 C   0  0  0  0  0  0  0  0  0  0  0  0
   -2.1242   41.6885   46.3725 H   0  0  0  0  0  0  0  0  0  0  0  0
   -5.7697   44.5705   44.8935 N   0  0  0  0  0  0  0  0  0  0  0  0
   -6.1992   45.0679   45.6738 H   0  0  0  0  0  0  0  0  0  0  0  0
   -5.3919   45.4328   43.7715 C   0  0  0  0  0  0  0  0  0  0  0  0
   -4.0772   45.0216   43.0918 C   0  0  0  0  0  0  0  0  0  0  0  0
   -3.4288   46.0940   42.2843 C   0  0  0  0  0  0  0  0  0  0  0  0
   -2.1898   46.5901   42.6276 N   0  0  0  0  0  0  0  0  0  0  0  0
   -3.8831   46.7093   41.1368 C   0  0  0  0  0  0  0  0  0  0  0  0
   -1.9237   47.5154   41.7335 C   0  0  0  0  0  0  0  0  0  0  0  0
   -2.9223   47.6262   40.8092 N   0  0  0  0  0  0  0  0  0  0  0  0
   -2.9510   48.2850   40.0346 H   0  0  0  0  0  0  0  0  0  0  0  0
 20 21  2  0
 21 22  1  0
 21 23  1  0
 22 24  1  0
 22 25  1  0
 23 13  1  0
 24 26  1  0
 25 27  1  0
 13 14  2  0
 13 15  1  0
 14 16  1  0
 14 17  1  0
 15 18  2  0
 16 19  2  0
 18 11  1  0
 11  1  1  0
  1  2  2  0
  1  3  1  0
  2  4  1  0
  3  5  2  0
  4 29  1  0
  4  6  2  0
  5  7  1  0
 29 31  1  0
  6  8  1  0
  7  9  1  0
 31 32  1  0
 32 33  1  0
 33 34  1  0
 33 35  2  0
 34 36  2  0
 35 37  1  0
 26 27  1  0
 18 19  1  0
  5  6  1  0
  8  9  2  0
 36 37  1  0
 23 28  1  0
 11 12  1  0
 29 30  1  0
  7 10  1  0
 37 38  1  0
M  END
>  <Molecule_Name>
EL2003A-A2U1

>  <Pose_Rank>
2

>  <pIC50_PDK1>
7.6

>  <GNINA_Affinity_kcal_mol>
-9.7599

>  <CNN_Score>
0.9423

>  <CNN_Affinity>
7.7118

>  <MMGBSA_dG_kcal_mol>
-61.665

>  <MMGBSA_VdW>
-58.044

>  <MMGBSA_Elec>
-3.665

>  <MMGBSA_PolarSolv>
6.378

>  <MMGBSA_NonPolarSolv>
-6.335

$$$$
EL2003A


 37 41  0  0  0  0  0  0  0  0999 V2000
   -7.1166   41.4528   44.4448 C   0  0  0  0  0  0  0  0  0  0  0  0
   -6.3172   42.5186   44.6851 N   0  0  0  0  0  0  0  0  0  0  0  0
   -8.3138   41.5050   43.8252 N   0  0  0  0  0  0  0  0  0  0  0  0
   -6.6819   43.7633   44.2825 C   0  0  0  0  0  0  0  0  0  0  0  0
   -8.6464   42.7466   43.4575 C   0  0  0  0  0  0  0  0  0  0  0  0
   -7.9196   43.9039   43.6413 C   0  0  0  0  0  0  0  0  0  0  0  0
   -9.7872   43.1410   42.8212 N   0  0  0  0  0  0  0  0  0  0  0  0
   -8.5910   44.9943   43.1271 N   0  0  0  0  0  0  0  0  0  0  0  0
   -9.7114   44.4970   42.6445 C   0  0  0  0  0  0  0  0  0  0  0  0
  -10.5414   42.5319   42.5415 H   0  0  0  0  0  0  0  0  0  0  0  0
   -6.7542   40.1800   44.8805 N   0  0  0  0  0  0  0  0  0  0  0  0
   -7.5229   39.5394   44.7397 H   0  0  0  0  0  0  0  0  0  0  0  0
   -3.1940   39.9183   45.8921 C   0  0  0  0  0  0  0  0  0  0  0  0
   -4.4105   40.4090   45.4048 C   0  0  0  0  0  0  0  0  0  0  0  0
   -3.1487   38.6194   46.4055 C   0  0  0  0  0  0  0  0  0  0  0  0
   -5.5881   39.6375   45.4352 C   0  0  0  0  0  0  0  0  0  0  0  0
   -4.3012   37.8381   46.4440 C   0  0  0  0  0  0  0  0  0  0  0  0
   -5.5091   38.3486   45.9655 C   0  0  0  0  0  0  0  0  0  0  0  0
   -0.7722   39.5616   44.2316 O   0  0  0  0  0  0  0  0  0  0  0  0
   -0.8673   40.4162   45.1088 C   0  0  0  0  0  0  0  0  0  0  0  0
    0.1945   41.2537   45.3965 N   0  0  0  0  0  0  0  0  0  0  0  0
   -1.9858   40.6462   45.8771 N   0  0  0  0  0  0  0  0  0  0  0  0
    1.4307   41.1570   44.6391 C   0  0  0  0  0  0  0  0  0  0  0  0
    0.3215   42.2137   46.4836 C   0  0  0  0  0  0  0  0  0  0  0  0
    2.2397   42.3679   45.0778 C   0  0  0  0  0  0  0  0  0  0  0  0
    1.8049   42.5547   46.5250 C   0  0  0  0  0  0  0  0  0  0  0  0
   -1.9816   41.4981   46.4121 H   0  0  0  0  0  0  0  0  0  0  0  0
   -5.8636   44.8621   44.5806 N   0  0  0  0  0  0  0  0  0  0  0  0
   -6.1574   45.2408   45.4836 H   0  0  0  0  0  0  0  0  0  0  0  0
   -5.8282   45.8891   43.5326 C   0  0  0  0  0  0  0  0  0  0  0  0
   -4.8715   47.0240   43.9312 C   0  0  0  0  0  0  0  0  0  0  0  0
   -5.2126   48.3423   43.3179 C   0  0  0  0  0  0  0  0  0  0  0  0
   -4.9701   49.5485   43.9311 N   0  0  0  0  0  0  0  0  0  0  0  0
   -5.8026   48.6785   42.1186 C   0  0  0  0  0  0  0  0  0  0  0  0
   -5.3906   50.5345   43.0866 C   0  0  0  0  0  0  0  0  0  0  0  0
   -5.9015   50.0393   41.9823 N   0  0  0  0  0  0  0  0  0  0  0  0
   -4.5047   49.6761   44.8242 H   0  0  0  0  0  0  0  0  0  0  0  0
 19 20  2  0
 20 21  1  0
 20 22  1  0
 21 23  1  0
 21 24  1  0
 22 13  1  0
 23 25  1  0
 24 26  1  0
 13 14  2  0
 13 15  1  0
 14 16  1  0
 15 17  2  0
 16 11  1  0
 16 18  2  0
 11  1  1  0
  1  2  2  0
  1  3  1  0
  2  4  1  0
  3  5  2  0
  4 28  1  0
  4  6  2  0
  5  7  1  0
 28 30  1  0
  6  8  1  0
  7  9  1  0
 30 31  1  0
 31 32  1  0
 32 33  1  0
 32 34  2  0
 33 35  1  0
 34 36  1  0
 25 26  1  0
 17 18  1  0
  5  6  1  0
  8  9  2  0
 35 36  2  0
 22 27  1  0
 11 12  1  0
 28 29  1  0
  7 10  1  0
 33 37  1  0
M  END
>  <Molecule_Name>
EL2003A

>  <Pose_Rank>
2

>  <pIC50_PDK1>
7.5

>  <GNINA_Affinity_kcal_mol>
-9.8001

>  <CNN_Score>
0.9703

>  <CNN_Affinity>
7.6332

>  <MMGBSA_dG_kcal_mol>
-61.835

>  <MMGBSA_VdW>
-58.363

>  <MMGBSA_Elec>
-2.574

>  <MMGBSA_PolarSolv>
5.609

>  <MMGBSA_NonPolarSolv>
-6.507

$$$$
EL2003A-A4U1


 41 45  0  0  0  0  0  0  0  0999 V2000
   -6.6317   40.3190   44.8644 N   0  0  0  0  0  0  0  0  0  0  0  0
   -7.4580   39.7522   44.7347 H   0  0  0  0  0  0  0  0  0  0  0  0
   -6.8649   41.5923   44.3463 C   0  0  0  0  0  0  0  0  0  0  0  0
   -5.8474   42.4619   44.1579 N   0  0  0  0  0  0  0  0  0  0  0  0
   -8.1644   41.8499   44.0915 N   0  0  0  0  0  0  0  0  0  0  0  0
   -6.0755   43.7072   43.6613 C   0  0  0  0  0  0  0  0  0  0  0  0
   -8.3550   43.0830   43.6124 C   0  0  0  0  0  0  0  0  0  0  0  0
   -7.4045   44.0536   43.3731 C   0  0  0  0  0  0  0  0  0  0  0  0
   -9.5434   43.6513   43.2575 N   0  0  0  0  0  0  0  0  0  0  0  0
   -7.9964   45.2110   42.9029 N   0  0  0  0  0  0  0  0  0  0  0  0
   -9.2805   44.9274   42.8377 C   0  0  0  0  0  0  0  0  0  0  0  0
  -10.4437   43.1987   43.3042 H   0  0  0  0  0  0  0  0  0  0  0  0
   -5.0237   44.6026   43.4541 N   0  0  0  0  0  0  0  0  0  0  0  0
   -4.8338   44.6992   42.4571 H   0  0  0  0  0  0  0  0  0  0  0  0
   -5.0946   45.8746   44.1739 C   0  0  0  0  0  0  0  0  0  0  0  0
   -4.7792   47.0919   43.2965 C   0  0  0  0  0  0  0  0  0  0  0  0
   -4.9622   48.3848   44.0145 C   0  0  0  0  0  0  0  0  0  0  0  0
   -4.4520   48.5655   45.2798 N   0  0  0  0  0  0  0  0  0  0  0  0
   -5.6019   49.5310   43.5917 C   0  0  0  0  0  0  0  0  0  0  0  0
   -4.7723   49.7934   45.6158 C   0  0  0  0  0  0  0  0  0  0  0  0
   -5.4690   50.4186   44.6221 N   0  0  0  0  0  0  0  0  0  0  0  0
   -5.8173   51.3668   44.6477 H   0  0  0  0  0  0  0  0  0  0  0  0
   -3.1823   38.5260   46.5528 C   0  0  0  0  0  0  0  0  0  0  0  0
   -3.1147   39.8065   45.9728 C   0  0  0  0  0  0  0  0  0  0  0  0
   -4.4153   37.8462   46.5628 C   0  0  0  0  0  0  0  0  0  0  0  0
   -4.2890   40.3622   45.4360 C   0  0  0  0  0  0  0  0  0  0  0  0
   -5.5646   38.4199   46.0158 C   0  0  0  0  0  0  0  0  0  0  0  0
   -5.5261   39.6894   45.4474 C   0  0  0  0  0  0  0  0  0  0  0  0
   -1.8823   40.5056   45.9608 N   0  0  0  0  0  0  0  0  0  0  0  0
   -0.8238   40.3764   45.0882 C   0  0  0  0  0  0  0  0  0  0  0  0
   -0.7437   39.5493   44.1846 O   0  0  0  0  0  0  0  0  0  0  0  0
    0.1990   41.2799   45.3107 N   0  0  0  0  0  0  0  0  0  0  0  0
    1.4047   41.2354   44.5002 C   0  0  0  0  0  0  0  0  0  0  0  0
    0.2346   42.4043   46.2368 C   0  0  0  0  0  0  0  0  0  0  0  0
    2.3684   42.1812   45.2003 C   0  0  0  0  0  0  0  0  0  0  0  0
    1.4374   43.2276   45.7971 C   0  0  0  0  0  0  0  0  0  0  0  0
   -1.7030   41.1178   46.7438 H   0  0  0  0  0  0  0  0  0  0  0  0
   -1.2803   38.6156   47.9972 F   0  0  0  0  0  0  0  0  0  0  0  0
   -2.0037   37.8141   47.1658 C   0  0  0  0  0  0  0  0  0  0  0  0
   -1.1039   37.3302   46.2574 F   0  0  0  0  0  0  0  0  0  0  0  0
   -2.3737   36.7387   47.9159 F   0  0  0  0  0  0  0  0  0  0  0  0
 38 39  1  0
 39 40  1  0
 39 41  1  0
 39 23  1  0
 23 24  2  0
 23 25  1  0
 24 29  1  0
 24 26  1  0
 25 27  2  0
 29 30  1  0
 26 28  2  0
 30 31  2  0
 30 32  1  0
 28  1  1  0
 32 33  1  0
 32 34  1  0
  1  3  1  0
 33 35  1  0
 34 36  1  0
  3  4  2  0
  3  5  1  0
  4  6  1  0
  5  7  2  0
  6 13  1  0
  6  8  2  0
  7  9  1  0
 13 15  1  0
  8 10  1  0
  9 11  1  0
 15 16  1  0
 16 17  1  0
 17 18  1  0
 17 19  2  0
 18 20  2  0
 19 21  1  0
 27 28  1  0
 35 36  1  0
  7  8  1  0
 10 11  2  0
 20 21  1  0
 29 37  1  0
  1  2  1  0
 13 14  1  0
  9 12  1  0
 21 22  1  0
M  END
>  <Molecule_Name>
EL2003A-A4U1

>  <Pose_Rank>
1

>  <pIC50_PDK1>
7.5

>  <GNINA_Affinity_kcal_mol>
-9.3146

>  <CNN_Score>
0.9549

>  <CNN_Affinity>
8.0316

>  <MMGBSA_dG_kcal_mol>
-64.741

>  <MMGBSA_VdW>
-61.437

>  <MMGBSA_Elec>
-4.200

>  <MMGBSA_PolarSolv>
7.878

>  <MMGBSA_NonPolarSolv>
-6.982

$$$$
BX912


 34 37  0  0  0  0  0  0  0  0999 V2000
   -8.7442   45.2244   43.1458 Br  0  0  0  0  0  0  0  0  0  0  0  0
   -8.0393   43.5517   43.6642 C   0  0  0  0  0  0  0  0  0  0  0  0
   -6.7351   43.3713   44.1007 C   0  0  0  0  0  0  0  0  0  0  0  0
   -8.8177   42.4209   43.5914 C   0  0  0  0  0  0  0  0  0  0  0  0
   -6.2906   42.1518   44.4697 N   0  0  0  0  0  0  0  0  0  0  0  0
   -8.3831   41.1924   43.9338 N   0  0  0  0  0  0  0  0  0  0  0  0
   -7.1290   41.1035   44.3953 C   0  0  0  0  0  0  0  0  0  0  0  0
   -5.8745   44.4794   44.2303 N   0  0  0  0  0  0  0  0  0  0  0  0
   -6.2364   45.1311   44.9226 H   0  0  0  0  0  0  0  0  0  0  0  0
   -5.4701   45.1392   42.9850 C   0  0  0  0  0  0  0  0  0  0  0  0
   -3.9457   45.0930   42.7765 C   0  0  0  0  0  0  0  0  0  0  0  0
   -3.4154   46.3559   42.1988 C   0  0  0  0  0  0  0  0  0  0  0  0
   -2.0686   46.5988   42.0772 N   0  0  0  0  0  0  0  0  0  0  0  0
   -4.0214   47.4810   41.6858 C   0  0  0  0  0  0  0  0  0  0  0  0
   -1.9227   47.8359   41.5188 C   0  0  0  0  0  0  0  0  0  0  0  0
   -3.0859   48.3936   41.2704 N   0  0  0  0  0  0  0  0  0  0  0  0
   -1.3190   45.9878   42.3825 H   0  0  0  0  0  0  0  0  0  0  0  0
   -6.6996   39.8264   44.7415 N   0  0  0  0  0  0  0  0  0  0  0  0
   -7.4979   39.2068   44.8065 H   0  0  0  0  0  0  0  0  0  0  0  0
   -5.5382   39.3700   45.3831 C   0  0  0  0  0  0  0  0  0  0  0  0
   -4.3819   40.1682   45.3166 C   0  0  0  0  0  0  0  0  0  0  0  0
   -5.4949   38.2109   46.1634 C   0  0  0  0  0  0  0  0  0  0  0  0
   -3.2063   39.8150   45.9875 C   0  0  0  0  0  0  0  0  0  0  0  0
   -4.3314   37.8473   46.8420 C   0  0  0  0  0  0  0  0  0  0  0  0
   -3.1935   38.6473   46.7558 C   0  0  0  0  0  0  0  0  0  0  0  0
   -2.0240   40.5834   45.9656 N   0  0  0  0  0  0  0  0  0  0  0  0
   -0.8742   40.3459   45.2469 C   0  0  0  0  0  0  0  0  0  0  0  0
   -0.6636   39.3521   44.5566 O   0  0  0  0  0  0  0  0  0  0  0  0
    0.0763   41.3427   45.3608 N   0  0  0  0  0  0  0  0  0  0  0  0
   -0.0500   42.6459   45.9976 C   0  0  0  0  0  0  0  0  0  0  0  0
    1.3582   41.2132   44.6886 C   0  0  0  0  0  0  0  0  0  0  0  0
    1.1436   43.4416   45.4872 C   0  0  0  0  0  0  0  0  0  0  0  0
    2.1896   42.3648   45.2328 C   0  0  0  0  0  0  0  0  0  0  0  0
   -1.9698   41.3282   46.6400 H   0  0  0  0  0  0  0  0  0  0  0  0
  1  2  1  0
  2  3  2  0
  2  4  1  0
  3  5  1  0
  3  8  1  0
  4  6  2  0
  5  7  2  0
  8 10  1  0
  7 18  1  0
 10 11  1  0
 18 20  1  0
 11 12  1  0
 20 21  2  0
 20 22  1  0
 12 13  1  0
 12 14  2  0
 21 23  1  0
 22 24  2  0
 13 15  1  0
 14 16  1  0
 23 26  1  0
 23 25  2  0
 26 27  1  0
 27 28  2  0
 27 29  1  0
 29 30  1  0
 29 31  1  0
 30 32  1  0
 31 33  1  0
  6  7  1  0
 24 25  1  0
 15 16  2  0
 32 33  1  0
  8  9  1  0
 18 19  1  0
 13 17  1  0
 26 34  1  0
M  END
>  <Molecule_Name>
BX912

>  <Pose_Rank>
2

>  <pIC50_PDK1>
6.0

>  <GNINA_Affinity_kcal_mol>
-8.9076

>  <CNN_Score>
0.9054

>  <CNN_Affinity>
7.5617

>  <MMGBSA_dG_kcal_mol>
-60.328

>  <MMGBSA_VdW>
-57.289

>  <MMGBSA_Elec>
-2.944

>  <MMGBSA_PolarSolv>
6.028

>  <MMGBSA_NonPolarSolv>
-6.123

$$$$
EL5001A


 30 32  0  0  0  0  0  0  0  0999 V2000
   -5.3211   39.6727   45.4087 Br  0  0  0  0  0  0  0  0  0  0  0  0
   -6.4005   41.0618   44.7230 C   0  0  0  0  0  0  0  0  0  0  0  0
   -5.9285   42.3347   44.4382 C   0  0  0  0  0  0  0  0  0  0  0  0
   -7.7318   40.8365   44.4639 C   0  0  0  0  0  0  0  0  0  0  0  0
   -6.7539   43.2903   43.9604 N   0  0  0  0  0  0  0  0  0  0  0  0
   -8.5663   41.7720   43.9703 N   0  0  0  0  0  0  0  0  0  0  0  0
   -8.0385   42.9784   43.7420 C   0  0  0  0  0  0  0  0  0  0  0  0
   -4.5923   42.6680   44.7240 N   0  0  0  0  0  0  0  0  0  0  0  0
   -4.0615   41.8140   44.9415 H   0  0  0  0  0  0  0  0  0  0  0  0
   -3.8937   43.4267   43.6842 C   0  0  0  0  0  0  0  0  0  0  0  0
   -3.9379   44.9274   44.0001 C   0  0  0  0  0  0  0  0  0  0  0  0
   -3.5179   45.7778   42.8452 C   0  0  0  0  0  0  0  0  0  0  0  0
   -2.3592   46.5255   42.8990 N   0  0  0  0  0  0  0  0  0  0  0  0
   -4.1476   45.9685   41.6337 C   0  0  0  0  0  0  0  0  0  0  0  0
   -2.2916   47.1537   41.7483 C   0  0  0  0  0  0  0  0  0  0  0  0
   -3.3542   46.8463   40.9480 N   0  0  0  0  0  0  0  0  0  0  0  0
   -3.5205   47.2093   40.0194 H   0  0  0  0  0  0  0  0  0  0  0  0
   -8.9214   43.9290   43.2516 N   0  0  0  0  0  0  0  0  0  0  0  0
   -9.6842   43.4028   42.8370 H   0  0  0  0  0  0  0  0  0  0  0  0
   -8.3320   44.9339   42.3656 C   0  0  0  0  0  0  0  0  0  0  0  0
   -8.6317   46.3612   42.8538 C   0  0  0  0  0  0  0  0  0  0  0  0
   -7.4192   47.0795   43.2152 N   0  0  0  0  0  0  0  0  0  0  0  0
   -7.0122   48.1566   42.4737 C   0  0  0  0  0  0  0  0  0  0  0  0
   -7.5662   48.4848   41.4275 O   0  0  0  0  0  0  0  0  0  0  0  0
   -5.9230   48.8215   42.9779 N   0  0  0  0  0  0  0  0  0  0  0  0
   -5.1260   48.4672   44.1425 C   0  0  0  0  0  0  0  0  0  0  0  0
   -5.3362   49.9381   42.2590 C   0  0  0  0  0  0  0  0  0  0  0  0
   -4.1435   49.6199   44.2951 C   0  0  0  0  0  0  0  0  0  0  0  0
   -3.9469   50.0922   42.8610 C   0  0  0  0  0  0  0  0  0  0  0  0
   -7.3129   47.1893   44.2123 H   0  0  0  0  0  0  0  0  0  0  0  0
  1  2  1  0
  2  3  2  0
  2  4  1  0
  3  5  1  0
  3  8  1  0
  4  6  2  0
  5  7  2  0
  8 10  1  0
  7 18  1  0
 10 11  1  0
 18 20  1  0
 11 12  1  0
 20 21  1  0
 12 13  1  0
 12 14  2  0
 21 22  1  0
 13 15  2  0
 14 16  1  0
 22 23  1  0
 23 24  2  0
 23 25  1  0
 25 26  1  0
 25 27  1  0
 26 28  1  0
 27 29  1  0
  6  7  1  0
 15 16  1  0
 28 29  1  0
  8  9  1  0
 18 19  1  0
 22 30  1  0
 16 17  1  0
M  END
>  <Molecule_Name>
EL5001A

>  <Pose_Rank>
1

>  <pIC50_PDK1>
6.5

>  <GNINA_Affinity_kcal_mol>
-7.7303

>  <CNN_Score>
0.9245

>  <CNN_Affinity>
7.5344

>  <MMGBSA_dG_kcal_mol>
-54.420

>  <MMGBSA_VdW>
-51.665

>  <MMGBSA_Elec>
-1.529

>  <MMGBSA_PolarSolv>
4.894

>  <MMGBSA_NonPolarSolv>
-6.120

$$$$
EL5003A


 33 36  0  0  0  0  0  0  0  0999 V2000
   -4.8303   38.5280   45.9961 Br  0  0  0  0  0  0  0  0  0  0  0  0
   -4.3923   40.1873   45.2093 C   0  0  0  0  0  0  0  0  0  0  0  0
   -5.3365   41.1041   44.7717 C   0  0  0  0  0  0  0  0  0  0  0  0
   -3.0743   40.5427   45.0357 C   0  0  0  0  0  0  0  0  0  0  0  0
   -4.9566   42.2735   44.2227 N   0  0  0  0  0  0  0  0  0  0  0  0
   -2.6789   41.7106   44.4928 N   0  0  0  0  0  0  0  0  0  0  0  0
   -3.6513   42.5501   44.1239 C   0  0  0  0  0  0  0  0  0  0  0  0
   -6.7119   40.8028   44.8650 N   0  0  0  0  0  0  0  0  0  0  0  0
   -6.9851   40.8191   45.8447 H   0  0  0  0  0  0  0  0  0  0  0  0
   -7.6060   41.6153   44.0239 C   0  0  0  0  0  0  0  0  0  0  0  0
   -7.7141   43.0504   44.5567 C   0  0  0  0  0  0  0  0  0  0  0  0
   -8.3397   43.9904   43.5877 C   0  0  0  0  0  0  0  0  0  0  0  0
   -9.3401   43.5820   42.7346 N   0  0  0  0  0  0  0  0  0  0  0  0
   -8.0458   45.3190   43.3735 C   0  0  0  0  0  0  0  0  0  0  0  0
   -9.6633   44.6501   42.0394 C   0  0  0  0  0  0  0  0  0  0  0  0
   -8.9067   45.7302   42.3936 N   0  0  0  0  0  0  0  0  0  0  0  0
   -8.9872   46.6751   42.0238 H   0  0  0  0  0  0  0  0  0  0  0  0
   -3.3548   43.8067   43.6268 N   0  0  0  0  0  0  0  0  0  0  0  0
   -2.4751   44.0750   44.0588 H   0  0  0  0  0  0  0  0  0  0  0  0
   -4.4275   44.7897   43.6236 C   0  0  0  0  0  0  0  0  0  0  0  0
   -3.9358   46.1797   44.0268 C   0  0  0  0  0  0  0  0  0  0  0  0
   -4.9184   44.9957   42.1836 C   0  0  0  0  0  0  0  0  0  0  0  0
   -3.2555   46.6901   42.7619 C   0  0  0  0  0  0  0  0  0  0  0  0
   -4.1411   46.1895   41.6200 C   0  0  0  0  0  0  0  0  0  0  0  0
   -3.0751   48.1269   42.7552 N   0  0  0  0  0  0  0  0  0  0  0  0
   -4.1519   48.9740   42.8078 C   0  0  0  0  0  0  0  0  0  0  0  0
   -5.3145   48.5767   42.7561 O   0  0  0  0  0  0  0  0  0  0  0  0
   -3.8303   50.3041   42.8896 N   0  0  0  0  0  0  0  0  0  0  0  0
   -2.5119   50.9123   42.7833 C   0  0  0  0  0  0  0  0  0  0  0  0
   -4.8691   51.3169   42.9586 C   0  0  0  0  0  0  0  0  0  0  0  0
   -2.7890   52.3901   42.5431 C   0  0  0  0  0  0  0  0  0  0  0  0
   -4.1201   52.6080   43.2504 C   0  0  0  0  0  0  0  0  0  0  0  0
   -2.2293   48.4804   43.1742 H   0  0  0  0  0  0  0  0  0  0  0  0
  1  2  1  0
  2  3  2  0
  2  4  1  0
  3  5  1  0
  3  8  1  0
  4  6  2  0
  5  7  2  0
  8 10  1  0
  7 18  1  0
 10 11  1  0
 20 18  1  0
 11 12  1  0
 20 21  1  0
 20 22  1  0
 12 13  1  0
 12 14  2  0
 21 23  1  0
 22 24  1  0
 13 15  2  0
 14 16  1  0
 23 25  1  0
 25 26  1  0
 26 27  2  0
 26 28  1  0
 28 29  1  0
 28 30  1  0
 29 31  1  0
 30 32  1  0
  6  7  1  0
 23 24  1  0
 15 16  1  0
 31 32  1  0
  8  9  1  0
 18 19  1  0
 16 17  1  0
 25 33  1  0
M  END
>  <Molecule_Name>
EL5003A

>  <Pose_Rank>
3

>  <pIC50_PDK1>
6.8

>  <GNINA_Affinity_kcal_mol>
-8.1076

>  <CNN_Score>
0.4980

>  <CNN_Affinity>
7.4018

>  <MMGBSA_dG_kcal_mol>
-57.187

>  <MMGBSA_VdW>
-54.403

>  <MMGBSA_Elec>
-1.366

>  <MMGBSA_PolarSolv>
5.158

>  <MMGBSA_NonPolarSolv>
-6.576

$$$$
