CTX-1020912
OCL MolfileCreator  2D

  0  0  0  0  0  0              0 V3000
M  V30 BEGIN CTAB
M  V30 COUNTS 37 42 0 0 0
M  V30 BEGIN ATOM
M  V30 1 S 7.8987 0.9945 0.0 0
M  V30 2 C 7.7942 0.0 0.0 0
M  V30 3 C 8.8769 1.2024 0.0 0
M  V30 4 C 6.9282 -0.5 0.0 0
M  V30 5 C 8.7077 -0.4067 0.0 0
M  V30 6 C 9.3769 0.3364 0.0 0
M  V30 7 C 9.3769 2.0684 0.0 0
M  V30 8 C 6.0621 0.0 0.0 0
M  V30 9 C 6.9282 -1.4999 0.0 0
M  V30 10 C 8.9156 -1.3848 0.0 0
M  V30 11 C 10.3769 0.3364 0.0 0
M  V30 12 C 10.3769 2.0684 0.0 0
M  V30 13 C 5.1961 -0.5 0.0 0
M  V30 14 C 6.0621 -1.9999 0.0 0
M  V30 15 C 10.8769 1.2024 0.0 0
M  V30 16 N 4.3301 0.0 0.0 0
M  V30 17 C 5.1961 -1.4999 0.0 0
M  V30 18 C 3.4641 -0.5 0.0 0
M  V30 19 C 4.3301 -2.0 0.0 0
M  V30 20 C 2.598 0.0 0.0 0
M  V30 21 C 3.4641 -1.4999 0.0 0
M  V30 22 O 2.598 1.0 0.0 0
M  V30 23 N 1.732 -0.5 0.0 0
M  V30 24 C 0.866 0.0 0.0 0
M  V30 25 C 0.0 -0.5 0.0 0
M  V30 26 C -0.866 0.0 0.0 0
M  V30 27 C 0.0 -1.4999 0.0 0
M  V30 28 C -1.732 -0.4999 0.0 0
M  V30 29 C -0.866 -1.9999 0.0 0
M  V30 30 C -1.732 -1.4999 0.0 0
M  V30 31 N -2.598 -1.9999 0.0 0
M  V30 32 C -3.4641 -1.4999 0.0 0
M  V30 33 C -2.598 -2.9999 0.0 0
M  V30 34 C -4.3301 -1.9999 0.0 0
M  V30 35 C -3.4641 -3.4999 0.0 0
M  V30 36 N -4.3301 -2.9999 0.0 0
M  V30 37 C -5.1961 -3.4999 0.0 0
M  V30 END ATOM
M  V30 BEGIN BOND
M  V30 1 1 1 2
M  V30 2 1 1 3
M  V30 3 1 2 4
M  V30 4 2 2 5
M  V30 5 2 3 6
M  V30 6 1 3 7
M  V30 7 2 4 8
M  V30 8 1 4 9
M  V30 9 1 5 10
M  V30 10 1 6 11
M  V30 11 2 7 12
M  V30 12 1 8 13
M  V30 13 2 9 14
M  V30 14 2 11 15
M  V30 15 1 13 16
M  V30 16 2 13 17
M  V30 17 2 16 18
M  V30 18 1 17 19
M  V30 19 1 18 20
M  V30 20 1 18 21
M  V30 21 2 20 22
M  V30 22 1 20 23
M  V30 23 1 23 24
M  V30 24 1 24 25
M  V30 25 2 25 26
M  V30 26 1 25 27
M  V30 27 1 26 28
M  V30 28 2 27 29
M  V30 29 2 28 30
M  V30 30 1 30 31
M  V30 31 1 31 32
M  V30 32 1 31 33
M  V30 33 1 32 34
M  V30 34 1 33 35
M  V30 35 1 34 36
M  V30 36 1 36 37
M  V30 37 1 5 6
M  V30 38 1 12 15
M  V30 39 1 14 17
M  V30 40 2 19 21
M  V30 41 1 29 30
M  V30 42 1 35 36
M  V30 END BOND
M  V30 END CTAB
M  END
>  <Molecule Name>
CTX-1020912

>  <SMILES>
CN1CCN(CC1)C1=CC=C(CNC(=O)C2=NC3=CC(=CC=C3C=C2)C2=C(C)C3=CC=CC=C3S2)C=C1

>  <Batch Name>
CTX-1020912-1

>  <Batch Created Date>
2022-01-20

>  <Batch ID>
CTX-1020912-1

>  <External ID>
P841-0314

>  <Stereochemistry>
Achiral

>  <Amount 1>
5.5

>  <Unit 1>
mg

>  <CRO 1>
Pharmaron

>  <CRO 1 Total Amount>
3.8

>  <CRO 1 Unit>
mg

>  <Pharmaron Solubility (PBS, pH 7.4): Aqueous Solubility - Batch Mean (uM)>
0.0037

>  <Pharmaron Solubility (PBS, pH 7.4): Aqueous Solubility - Batch Mean (uM) Standard Deviation (±)>


>  <Pharmaron Solubility (PBS, pH 7.4): Aqueous Solubility - Batch Mean (uM) Count>
1.0

>  <log P>
6.3

>  <log D>
5.67

>  <Pharmaron Caliper Assay (CDK2/CCNE1): Minimum measured (%)>
84.1

>  <Pharmaron Caliper Assay (CDK2/CCNE1): IC50 - Batch Mean (uM)>
47.6

>  <Pharmaron ADPGLO (CDK2/E1-25C): Minimum measured (%)>
93.2

>  <Pharmaron ADPGLO (CDK2/E1-25C): IC50 - Batch Mean (uM)>
100

>  <Pharmaron ADPGLO (CDK2/E1-37C): Minimum measured (%)>
93.2

>  <Pharmaron ADPGLO (CDK2/E1-37C): IC50 - Batch Mean (uM)>
100

>  <IncuCyte Kuramochi RB-WT: IC50 - Batch Mean (uM)>
4.19

>  <IncuCyte Kuramochi RB-KO: IC50 - Batch Mean (uM)>
5.41

>  <DSF (npCDK2/CCNE1): dTm D - Batch Mean [Concentration: 100]>


>  <DSF (npCDK2/CCNE1): dTm D - Batch Mean [Concentration: 20.0]>
-0.302

>  <DSF (pCDK2/CCNE1): dTm D - Batch Mean [Concentration: 100]>


>  <DSF (pCDK2/CCNE1): dTm D - Batch Mean [Concentration: 20.0]>
-0.243

>  <RLM: t1/2 - Batch Mean (Min)>


>  <RLM: Cl int - Batch Mean (uL/min/mg protein)>


>  <RLM: ER (Hepatic extraction ratio) - Batch Mean>


>  <HLM: t1/2 - Batch Mean (Min)>


>  <HLM: Cl int - Batch Mean (uL/min/mg protein)>


>  <HLM: ER (Hepatic extraction ratio) - Batch Mean>


>  <MDCK-WT 4% BSA: Papp (A-B) - Batch Mean (10-6, cm/s)>


>  <MDCK-WT 4% BSA: Papp (B-A) - Batch Mean (10-6, cm/s)>


>  <MDCK-WT 4% BSA: Efflux Ratio - Batch Mean>


>  <MDCK-WT 4% BSA: ~Net A_B - Batch Mean (10-6, cm/s)>


>  <pIC50>
4.322393

>  <Selection_1>
Y

>  <Selection_N>
N

>  <Serie>
Other

>  <Selection_T>
N

>  <Train_Vs_Test>


$$$$
CTX-1020903
OCL MolfileCreator  2D

  0  0  0  0  0  0              0 V3000
M  V30 BEGIN CTAB
M  V30 COUNTS 39 44 0 0 0
M  V30 BEGIN ATOM
M  V30 1 O 8.0467 -0.8364 0.0 0
M  V30 2 C 7.5467 -1.7024 0.0 0
M  V30 3 N 6.5467 -1.7024 0.0 0
M  V30 4 C 8.0467 -2.5684 0.0 0
M  V30 5 C 6.0467 -0.8364 0.0 0
M  V30 6 C 6.0467 -2.5684 0.0 0
M  V30 7 O 7.64 -3.482 0.0 0
M  V30 8 C 9.0412 -2.6729 0.0 0
M  V30 9 C 5.0467 -0.8364 0.0 0
M  V30 10 C 5.0467 -2.5684 0.0 0
M  V30 11 C 8.3831 -4.1511 0.0 0
M  V30 12 C 9.2492 -3.6511 0.0 0
M  V30 13 C 9.7104 -1.9298 0.0 0
M  V30 14 N 4.3776 -0.0932 0.0 0
M  V30 15 C 4.5467 -1.7024 0.0 0
M  V30 16 C 8.3831 -5.1511 0.0 0
M  V30 17 C 10.1152 -4.1511 0.0 0
M  V30 18 C 3.4641 -0.5 0.0 0
M  V30 19 N 3.5686 -1.4945 0.0 0
M  V30 20 C 9.2492 -5.6511 0.0 0
M  V30 21 C 10.1152 -5.1511 0.0 0
M  V30 22 C 2.598 0.0 0.0 0
M  V30 23 C 2.8254 -2.1636 0.0 0
M  V30 24 O 2.598 1.0 0.0 0
M  V30 25 N 1.732 -0.5 0.0 0
M  V30 26 C 0.866 0.0 0.0 0
M  V30 27 C 0.0 -0.5 0.0 0
M  V30 28 C -0.866 0.0 0.0 0
M  V30 29 C 0.0 -1.4999 0.0 0
M  V30 30 C -1.732 -0.4999 0.0 0
M  V30 31 C -0.866 -1.9999 0.0 0
M  V30 32 C -1.732 -1.4999 0.0 0
M  V30 33 N -2.598 -1.9999 0.0 0
M  V30 34 C -3.4641 -1.4999 0.0 0
M  V30 35 C -2.598 -2.9999 0.0 0
M  V30 36 C -4.3301 -1.9999 0.0 0
M  V30 37 C -3.4641 -3.4999 0.0 0
M  V30 38 N -4.3301 -2.9999 0.0 0
M  V30 39 C -5.1961 -3.4999 0.0 0
M  V30 END ATOM
M  V30 BEGIN BOND
M  V30 1 2 1 2
M  V30 2 1 2 3
M  V30 3 1 2 4
M  V30 4 1 3 5
M  V30 5 1 3 6
M  V30 6 1 4 7
M  V30 7 2 4 8
M  V30 8 1 5 9
M  V30 9 1 6 10
M  V30 10 1 7 11
M  V30 11 1 8 12
M  V30 12 1 8 13
M  V30 13 1 9 14
M  V30 14 2 9 15
M  V30 15 1 11 16
M  V30 16 1 12 17
M  V30 17 2 14 18
M  V30 18 1 15 19
M  V30 19 2 16 20
M  V30 20 2 17 21
M  V30 21 1 18 22
M  V30 22 1 19 23
M  V30 23 2 22 24
M  V30 24 1 22 25
M  V30 25 1 25 26
M  V30 26 1 26 27
M  V30 27 2 27 28
M  V30 28 1 27 29
M  V30 29 1 28 30
M  V30 30 2 29 31
M  V30 31 2 30 32
M  V30 32 1 32 33
M  V30 33 1 33 34
M  V30 34 1 33 35
M  V30 35 1 34 36
M  V30 36 1 35 37
M  V30 37 1 36 38
M  V30 38 1 38 39
M  V30 39 1 10 15
M  V30 40 2 11 12
M  V30 41 1 18 19
M  V30 42 1 20 21
M  V30 43 1 31 32
M  V30 44 1 37 38
M  V30 END BOND
M  V30 END CTAB
M  END
>  <Molecule Name>
CTX-1020903

>  <SMILES>
CN1C2=C(CN(CC2)C(=O)C2=C(C)C3=CC=CC=C3O2)N=C1C(=O)NCC1=CC=C(C=C1)N1CCN(C)CC1

>  <Batch Name>
CTX-1020903-1

>  <Batch Created Date>
2022-01-20

>  <Batch ID>
CTX-1020903-1

>  <External ID>
P841-0275

>  <Stereochemistry>
Achiral

>  <Amount 1>
9.1

>  <Unit 1>
mg

>  <CRO 1>
Pharmaron

>  <CRO 1 Total Amount>
16.5

>  <CRO 1 Unit>
mg

>  <Pharmaron Solubility (PBS, pH 7.4): Aqueous Solubility - Batch Mean (uM)>
52.8358

>  <Pharmaron Solubility (PBS, pH 7.4): Aqueous Solubility - Batch Mean (uM) Standard Deviation (±)>


>  <Pharmaron Solubility (PBS, pH 7.4): Aqueous Solubility - Batch Mean (uM) Count>
1.0

>  <log P>
2.64

>  <log D>
2.0

>  <Pharmaron Caliper Assay (CDK2/CCNE1): Minimum measured (%)>
17.4

>  <Pharmaron Caliper Assay (CDK2/CCNE1): IC50 - Batch Mean (uM)>
0.275

>  <Pharmaron ADPGLO (CDK2/E1-25C): Minimum measured (%)>
30.6

>  <Pharmaron ADPGLO (CDK2/E1-25C): IC50 - Batch Mean (uM)>
2.67

>  <Pharmaron ADPGLO (CDK2/E1-37C): Minimum measured (%)>
71.8

>  <Pharmaron ADPGLO (CDK2/E1-37C): IC50 - Batch Mean (uM)>
16.8

>  <IncuCyte Kuramochi RB-WT: IC50 - Batch Mean (uM)>
7.7

>  <IncuCyte Kuramochi RB-KO: IC50 - Batch Mean (uM)>
7.41

>  <DSF (npCDK2/CCNE1): dTm D - Batch Mean [Concentration: 100]>


>  <DSF (npCDK2/CCNE1): dTm D - Batch Mean [Concentration: 20.0]>
3.807

>  <DSF (pCDK2/CCNE1): dTm D - Batch Mean [Concentration: 100]>


>  <DSF (pCDK2/CCNE1): dTm D - Batch Mean [Concentration: 20.0]>
2.451

>  <RLM: t1/2 - Batch Mean (Min)>


>  <RLM: Cl int - Batch Mean (uL/min/mg protein)>


>  <RLM: ER (Hepatic extraction ratio) - Batch Mean>


>  <HLM: t1/2 - Batch Mean (Min)>


>  <HLM: Cl int - Batch Mean (uL/min/mg protein)>


>  <HLM: ER (Hepatic extraction ratio) - Batch Mean>


>  <MDCK-WT 4% BSA: Papp (A-B) - Batch Mean (10-6, cm/s)>


>  <MDCK-WT 4% BSA: Papp (B-A) - Batch Mean (10-6, cm/s)>


>  <MDCK-WT 4% BSA: Efflux Ratio - Batch Mean>


>  <MDCK-WT 4% BSA: ~Net A_B - Batch Mean (10-6, cm/s)>


>  <pIC50>
6.560667

>  <Selection_1>
Y

>  <Selection_N>
N

>  <Serie>
Other

>  <Selection_T>
N

>  <Train_Vs_Test>


$$$$
CTX-1020902
OCL MolfileCreator  2D

  0  0  0  0  0  0              0 V3000
M  V30 BEGIN CTAB
M  V30 COUNTS 38 43 0 0 0
M  V30 BEGIN ATOM
M  V30 1 O 7.7942 1.0 0.0 0
M  V30 2 C 7.7942 0.0 0.0 0
M  V30 3 N 6.9282 -0.5 0.0 0
M  V30 4 C 8.6602 -0.5 0.0 0
M  V30 5 C 6.0621 0.0 0.0 0
M  V30 6 C 6.9282 -1.4999 0.0 0
M  V30 7 O 8.7647 -1.4945 0.0 0
M  V30 8 C 9.5737 -0.0932 0.0 0
M  V30 9 C 5.1961 -0.5 0.0 0
M  V30 10 C 6.0621 -1.9999 0.0 0
M  V30 11 C 9.7429 -1.7024 0.0 0
M  V30 12 C 10.2429 -0.8364 0.0 0
M  V30 13 C 9.7817 0.8848 0.0 0
M  V30 14 N 4.3301 0.0 0.0 0
M  V30 15 C 5.1961 -1.4999 0.0 0
M  V30 16 C 10.2429 -2.5684 0.0 0
M  V30 17 C 11.2429 -0.8364 0.0 0
M  V30 18 C 3.4641 -0.5 0.0 0
M  V30 19 C 4.3301 -2.0 0.0 0
M  V30 20 C 11.2429 -2.5684 0.0 0
M  V30 21 C 11.7429 -1.7024 0.0 0
M  V30 22 C 3.4641 -1.4999 0.0 0
M  V30 23 C 2.598 0.0 0.0 0
M  V30 24 N 1.732 -0.5 0.0 0
M  V30 25 C 0.866 0.0 0.0 0
M  V30 26 C 0.0 -0.5 0.0 0
M  V30 27 C -0.866 0.0 0.0 0
M  V30 28 C 0.0 -1.4999 0.0 0
M  V30 29 C -1.732 -0.4999 0.0 0
M  V30 30 C -0.866 -1.9999 0.0 0
M  V30 31 C -1.732 -1.4999 0.0 0
M  V30 32 N -2.598 -1.9999 0.0 0
M  V30 33 C -3.4641 -1.4999 0.0 0
M  V30 34 C -2.598 -2.9999 0.0 0
M  V30 35 C -4.3301 -1.9999 0.0 0
M  V30 36 C -3.4641 -3.4999 0.0 0
M  V30 37 N -4.3301 -2.9999 0.0 0
M  V30 38 C -5.1961 -3.4999 0.0 0
M  V30 END ATOM
M  V30 BEGIN BOND
M  V30 1 2 1 2
M  V30 2 1 2 3
M  V30 3 1 2 4
M  V30 4 1 3 5
M  V30 5 1 3 6
M  V30 6 1 4 7
M  V30 7 2 4 8
M  V30 8 1 5 9
M  V30 9 1 6 10
M  V30 10 1 7 11
M  V30 11 1 8 12
M  V30 12 1 8 13
M  V30 13 2 9 14
M  V30 14 1 9 15
M  V30 15 1 11 16
M  V30 16 1 12 17
M  V30 17 1 14 18
M  V30 18 2 15 19
M  V30 19 2 16 20
M  V30 20 2 17 21
M  V30 21 2 18 22
M  V30 22 1 18 23
M  V30 23 1 23 24
M  V30 24 1 24 25
M  V30 25 1 25 26
M  V30 26 2 26 27
M  V30 27 1 26 28
M  V30 28 1 27 29
M  V30 29 2 28 30
M  V30 30 2 29 31
M  V30 31 1 31 32
M  V30 32 1 32 33
M  V30 33 1 32 34
M  V30 34 1 33 35
M  V30 35 1 34 36
M  V30 36 1 35 37
M  V30 37 1 37 38
M  V30 38 1 10 15
M  V30 39 2 11 12
M  V30 40 1 19 22
M  V30 41 1 20 21
M  V30 42 1 30 31
M  V30 43 1 36 37
M  V30 END BOND
M  V30 END CTAB
M  END
>  <Molecule Name>
CTX-1020902

>  <SMILES>
CN1CCN(CC1)C1=CC=C(CNCC2=CC=C3CCN(CC3=N2)C(=O)C2=C(C)C3=CC=CC=C3O2)C=C1

>  <Batch Name>
CTX-1020902-1

>  <Batch Created Date>
2022-01-20

>  <Batch ID>
CTX-1020902-1

>  <External ID>
P841-0274

>  <Stereochemistry>
Achiral

>  <Amount 1>
2.8

>  <Unit 1>
mg

>  <CRO 1>
Pharmaron

>  <CRO 1 Total Amount>
2.1

>  <CRO 1 Unit>
mg

>  <Pharmaron Solubility (PBS, pH 7.4): Aqueous Solubility - Batch Mean (uM)>
239.5833

>  <Pharmaron Solubility (PBS, pH 7.4): Aqueous Solubility - Batch Mean (uM) Standard Deviation (±)>


>  <Pharmaron Solubility (PBS, pH 7.4): Aqueous Solubility - Batch Mean (uM) Count>
1.0

>  <log P>
3.81

>  <log D>
2.67

>  <Pharmaron Caliper Assay (CDK2/CCNE1): Minimum measured (%)>
76.3

>  <Pharmaron Caliper Assay (CDK2/CCNE1): IC50 - Batch Mean (uM)>
45.6

>  <Pharmaron ADPGLO (CDK2/E1-25C): Minimum measured (%)>
94.3

>  <Pharmaron ADPGLO (CDK2/E1-25C): IC50 - Batch Mean (uM)>
100

>  <Pharmaron ADPGLO (CDK2/E1-37C): Minimum measured (%)>
98.0

>  <Pharmaron ADPGLO (CDK2/E1-37C): IC50 - Batch Mean (uM)>
100

>  <IncuCyte Kuramochi RB-WT: IC50 - Batch Mean (uM)>
5.57

>  <IncuCyte Kuramochi RB-KO: IC50 - Batch Mean (uM)>
5.79

>  <DSF (npCDK2/CCNE1): dTm D - Batch Mean [Concentration: 100]>


>  <DSF (npCDK2/CCNE1): dTm D - Batch Mean [Concentration: 20.0]>
-0.034

>  <DSF (pCDK2/CCNE1): dTm D - Batch Mean [Concentration: 100]>


>  <DSF (pCDK2/CCNE1): dTm D - Batch Mean [Concentration: 20.0]>
-0.021

>  <RLM: t1/2 - Batch Mean (Min)>
2.1

>  <RLM: Cl int - Batch Mean (uL/min/mg protein)>
659.88

>  <RLM: ER (Hepatic extraction ratio) - Batch Mean>
0.9590000000000001

>  <HLM: t1/2 - Batch Mean (Min)>
9.86

>  <HLM: Cl int - Batch Mean (uL/min/mg protein)>
141.27

>  <HLM: ER (Hepatic extraction ratio) - Batch Mean>
0.873

>  <MDCK-WT 4% BSA: Papp (A-B) - Batch Mean (10-6, cm/s)>


>  <MDCK-WT 4% BSA: Papp (B-A) - Batch Mean (10-6, cm/s)>


>  <MDCK-WT 4% BSA: Efflux Ratio - Batch Mean>


>  <MDCK-WT 4% BSA: ~Net A_B - Batch Mean (10-6, cm/s)>


>  <pIC50>
4.341035

>  <Selection_1>
Y

>  <Selection_N>


>  <Serie>
Naphthyridine

>  <Selection_T>
N

>  <Train_Vs_Test>


$$$$
CTX-1020882
OCL MolfileCreator  2D

  0  0  0  0  0  0              0 V3000
M  V30 BEGIN CTAB
M  V30 COUNTS 39 44 0 0 0
M  V30 BEGIN ATOM
M  V30 1 S 6.5664 -0.1398 0.0 0
M  V30 2 C 5.1961 -0.75 0.0 0
M  V30 3 C 7.5701 -1.2546 0.0 0
M  V30 4 C 3.8971 0.0 0.0 0
M  V30 5 C 5.3529 -2.2417 0.0 0
M  V30 6 C 6.8201 -2.5536 0.0 0
M  V30 7 C 9.0701 -1.2546 0.0 0
M  V30 8 O 3.8971 1.5 0.0 0
M  V30 9 N 2.598 -0.75 0.0 0
M  V30 10 C 7.5701 -3.8526 0.0 0
M  V30 11 C 9.8201 -2.5536 0.0 0
M  V30 12 C 1.299 0.0 0.0 0
M  V30 13 N 9.0701 -3.8526 0.0 0
M  V30 14 C 0.0 -0.75 0.0 0
M  V30 15 C 9.8201 -5.1517 0.0 0
M  V30 16 C -1.299 0.0 0.0 0
M  V30 17 C 0.0 -2.2499 0.0 0
M  V30 18 O 9.0701 -6.4507 0.0 0
M  V30 19 C 11.3201 -5.1517 0.0 0
M  V30 20 C -2.598 -0.7499 0.0 0
M  V30 21 C -1.299 -2.9999 0.0 0
M  V30 22 O 12.2018 -6.3652 0.0 0
M  V30 23 C 12.2018 -3.9382 0.0 0
M  V30 24 C -2.598 -2.2499 0.0 0
M  V30 25 C 13.6284 -5.9017 0.0 0
M  V30 26 C 13.6284 -4.4017 0.0 0
M  V30 27 C 11.7383 -2.5116 0.0 0
M  V30 28 N -3.8971 -2.9999 0.0 0
M  V30 29 C 14.9274 -6.6517 0.0 0
M  V30 30 C 14.9274 -3.6517 0.0 0
M  V30 31 C -5.1961 -2.2499 0.0 0
M  V30 32 C -3.8971 -4.4999 0.0 0
M  V30 33 O 14.9274 -8.1517 0.0 0
M  V30 34 C 16.2265 -5.9017 0.0 0
M  V30 35 C 16.2265 -4.4017 0.0 0
M  V30 36 C -6.4951 -2.9999 0.0 0
M  V30 37 C -5.1961 -5.2499 0.0 0
M  V30 38 N -6.4951 -4.4999 0.0 0
M  V30 39 C -7.7942 -5.2499 0.0 0
M  V30 END ATOM
M  V30 BEGIN BOND
M  V30 1 1 1 2
M  V30 2 1 1 3
M  V30 3 1 2 4
M  V30 4 2 2 5
M  V30 5 2 3 6
M  V30 6 1 3 7
M  V30 7 2 4 8
M  V30 8 1 4 9
M  V30 9 1 6 10
M  V30 10 1 7 11
M  V30 11 1 9 12
M  V30 12 1 10 13
M  V30 13 1 12 14
M  V30 14 1 13 15
M  V30 15 2 14 16
M  V30 16 1 14 17
M  V30 17 2 15 18
M  V30 18 1 15 19
M  V30 19 1 16 20
M  V30 20 2 17 21
M  V30 21 1 19 22
M  V30 22 2 19 23
M  V30 23 2 20 24
M  V30 24 1 22 25
M  V30 25 1 23 26
M  V30 26 1 23 27
M  V30 27 1 24 28
M  V30 28 1 25 29
M  V30 29 1 26 30
M  V30 30 1 28 31
M  V30 31 1 28 32
M  V30 32 1 29 33
M  V30 33 2 29 34
M  V30 34 2 30 35
M  V30 35 1 31 36
M  V30 36 1 32 37
M  V30 37 1 36 38
M  V30 38 1 38 39
M  V30 39 1 5 6
M  V30 40 1 11 13
M  V30 41 1 21 24
M  V30 42 2 25 26
M  V30 43 1 34 35
M  V30 44 1 37 38
M  V30 END BOND
M  V30 END CTAB
M  END
>  <Molecule Name>
CTX-1020882

>  <SMILES>
CN1CCN(CC1)C1=CC=C(CNC(=O)C2=CC3=C(CCN(C3)C(=O)C3=C(C)C4=CC=CC(O)=C4O3)S2)C=C1

>  <Batch Name>
CTX-1020882-1

>  <Batch Created Date>
2022-01-13

>  <Batch ID>
CTX-1020882-1

>  <External ID>
CD-44-2-D

>  <Stereochemistry>
Achiral

>  <Amount 1>
7.2

>  <Unit 1>
mg

>  <CRO 1>
Pharmaron

>  <CRO 1 Total Amount>
35.5

>  <CRO 1 Unit>
mg

>  <Pharmaron Solubility (PBS, pH 7.4): Aqueous Solubility - Batch Mean (uM)>
7.6644

>  <Pharmaron Solubility (PBS, pH 7.4): Aqueous Solubility - Batch Mean (uM) Standard Deviation (±)>


>  <Pharmaron Solubility (PBS, pH 7.4): Aqueous Solubility - Batch Mean (uM) Count>
1.0

>  <log P>
3.51

>  <log D>
3.38

>  <Pharmaron Caliper Assay (CDK2/CCNE1): Minimum measured (%)>
30.0

>  <Pharmaron Caliper Assay (CDK2/CCNE1): IC50 - Batch Mean (uM)>
4.72

>  <Pharmaron ADPGLO (CDK2/E1-25C): Minimum measured (%)>
71.5

>  <Pharmaron ADPGLO (CDK2/E1-25C): IC50 - Batch Mean (uM)>
5.03

>  <Pharmaron ADPGLO (CDK2/E1-37C): Minimum measured (%)>
101.0

>  <Pharmaron ADPGLO (CDK2/E1-37C): IC50 - Batch Mean (uM)>
100

>  <IncuCyte Kuramochi RB-WT: IC50 - Batch Mean (uM)>
8.68

>  <IncuCyte Kuramochi RB-KO: IC50 - Batch Mean (uM)>
11.0

>  <DSF (npCDK2/CCNE1): dTm D - Batch Mean [Concentration: 100]>


>  <DSF (npCDK2/CCNE1): dTm D - Batch Mean [Concentration: 20.0]>
1.117

>  <DSF (pCDK2/CCNE1): dTm D - Batch Mean [Concentration: 100]>


>  <DSF (pCDK2/CCNE1): dTm D - Batch Mean [Concentration: 20.0]>
0.517

>  <RLM: t1/2 - Batch Mean (Min)>


>  <RLM: Cl int - Batch Mean (uL/min/mg protein)>


>  <RLM: ER (Hepatic extraction ratio) - Batch Mean>


>  <HLM: t1/2 - Batch Mean (Min)>


>  <HLM: Cl int - Batch Mean (uL/min/mg protein)>


>  <HLM: ER (Hepatic extraction ratio) - Batch Mean>


>  <MDCK-WT 4% BSA: Papp (A-B) - Batch Mean (10-6, cm/s)>


>  <MDCK-WT 4% BSA: Papp (B-A) - Batch Mean (10-6, cm/s)>


>  <MDCK-WT 4% BSA: Efflux Ratio - Batch Mean>


>  <MDCK-WT 4% BSA: ~Net A_B - Batch Mean (10-6, cm/s)>


>  <pIC50>
5.326058

>  <Selection_1>
Y

>  <Selection_N>
N

>  <Serie>
Tetrahydrothienopyridine

>  <Selection_T>


>  <Train_Vs_Test>


$$$$
CTX-1020845
OCL MolfileCreator  2D

  0  0  0  0  0  0              0 V3000
M  V30 BEGIN CTAB
M  V30 COUNTS 38 43 0 0 0
M  V30 BEGIN ATOM
M  V30 1 Cl 11.1474 -8.1329 0.0 0
M  V30 2 C 9.6802 -7.821 0.0 0
M  V30 3 C 9.0701 -6.4507 0.0 0
M  V30 4 C 8.5655 -8.8247 0.0 0
M  V30 5 S 7.5783 -6.6075 0.0 0
M  V30 6 C 9.8201 -5.1517 0.0 0
M  V30 7 C 7.2665 -8.0747 0.0 0
M  V30 8 C 8.5655 -10.3247 0.0 0
M  V30 9 O 11.3201 -5.1517 0.0 0
M  V30 10 N 9.0701 -3.8526 0.0 0
M  V30 11 C 5.9674 -8.8247 0.0 0
M  V30 12 N 7.2665 -11.0747 0.0 0
M  V30 13 C 7.5701 -3.8526 0.0 0
M  V30 14 C 9.8201 -2.5536 0.0 0
M  V30 15 C 5.9674 -10.3247 0.0 0
M  V30 16 C 6.8201 -2.5536 0.0 0
M  V30 17 C 9.0701 -1.2546 0.0 0
M  V30 18 C 7.5701 -1.2546 0.0 0
M  V30 19 C 5.3529 -2.2417 0.0 0
M  V30 20 S 6.5664 -0.1398 0.0 0
M  V30 21 C 5.1961 -0.75 0.0 0
M  V30 22 C 3.8971 0.0 0.0 0
M  V30 23 O 3.8971 1.5 0.0 0
M  V30 24 N 2.598 -0.75 0.0 0
M  V30 25 C 1.299 0.0 0.0 0
M  V30 26 C 0.0 -0.75 0.0 0
M  V30 27 C -1.299 0.0 0.0 0
M  V30 28 C 0.0 -2.2499 0.0 0
M  V30 29 C -2.598 -0.7499 0.0 0
M  V30 30 C -1.299 -2.9999 0.0 0
M  V30 31 C -2.598 -2.2499 0.0 0
M  V30 32 N -3.8971 -2.9999 0.0 0
M  V30 33 C -5.1961 -2.2499 0.0 0
M  V30 34 C -3.8971 -4.4999 0.0 0
M  V30 35 C -6.4951 -2.9999 0.0 0
M  V30 36 C -5.1961 -5.2499 0.0 0
M  V30 37 N -6.4951 -4.4999 0.0 0
M  V30 38 C -7.7942 -5.2499 0.0 0
M  V30 END ATOM
M  V30 BEGIN BOND
M  V30 1 1 1 2
M  V30 2 2 2 3
M  V30 3 1 2 4
M  V30 4 1 3 5
M  V30 5 1 3 6
M  V30 6 2 4 7
M  V30 7 1 4 8
M  V30 8 2 6 9
M  V30 9 1 6 10
M  V30 10 1 7 11
M  V30 11 2 8 12
M  V30 12 1 10 13
M  V30 13 1 10 14
M  V30 14 2 11 15
M  V30 15 1 13 16
M  V30 16 1 14 17
M  V30 17 2 16 18
M  V30 18 1 16 19
M  V30 19 1 18 20
M  V30 20 2 19 21
M  V30 21 1 21 22
M  V30 22 2 22 23
M  V30 23 1 22 24
M  V30 24 1 24 25
M  V30 25 1 25 26
M  V30 26 2 26 27
M  V30 27 1 26 28
M  V30 28 1 27 29
M  V30 29 2 28 30
M  V30 30 2 29 31
M  V30 31 1 31 32
M  V30 32 1 32 33
M  V30 33 1 32 34
M  V30 34 1 33 35
M  V30 35 1 34 36
M  V30 36 1 35 37
M  V30 37 1 37 38
M  V30 38 1 5 7
M  V30 39 1 12 15
M  V30 40 1 17 18
M  V30 41 1 20 21
M  V30 42 1 30 31
M  V30 43 1 36 37
M  V30 END BOND
M  V30 END CTAB
M  END
>  <Molecule Name>
CTX-1020845

>  <SMILES>
CN1CCN(CC1)C1=CC=C(CNC(=O)C2=CC3=C(CCN(C3)C(=O)C3=C(Cl)C4=CN=CC=C4S3)S2)C=C1

>  <Batch Name>
CTX-1020845-1

>  <Batch Created Date>
2022-01-06

>  <Batch ID>
CTX-1020845-1

>  <External ID>
CD-44-2-L

>  <Stereochemistry>
Achiral

>  <Amount 1>
4.0

>  <Unit 1>
mg

>  <CRO 1>
Pharmaron

>  <CRO 1 Total Amount>
18.8

>  <CRO 1 Unit>
mg

>  <Pharmaron Solubility (PBS, pH 7.4): Aqueous Solubility - Batch Mean (uM)>
107.46

>  <Pharmaron Solubility (PBS, pH 7.4): Aqueous Solubility - Batch Mean (uM) Standard Deviation (±)>


>  <Pharmaron Solubility (PBS, pH 7.4): Aqueous Solubility - Batch Mean (uM) Count>
1.0

>  <log P>
4.23

>  <log D>
3.6

>  <Pharmaron Caliper Assay (CDK2/CCNE1): Minimum measured (%)>
37.0

>  <Pharmaron Caliper Assay (CDK2/CCNE1): IC50 - Batch Mean (uM)>
85.4

>  <Pharmaron ADPGLO (CDK2/E1-25C): Minimum measured (%)>
61.1

>  <Pharmaron ADPGLO (CDK2/E1-25C): IC50 - Batch Mean (uM)>
100

>  <Pharmaron ADPGLO (CDK2/E1-37C): Minimum measured (%)>
89.8

>  <Pharmaron ADPGLO (CDK2/E1-37C): IC50 - Batch Mean (uM)>
100

>  <IncuCyte Kuramochi RB-WT: IC50 - Batch Mean (uM)>
7.94

>  <IncuCyte Kuramochi RB-KO: IC50 - Batch Mean (uM)>
9.53

>  <DSF (npCDK2/CCNE1): dTm D - Batch Mean [Concentration: 100]>


>  <DSF (npCDK2/CCNE1): dTm D - Batch Mean [Concentration: 20.0]>
0.635

>  <DSF (pCDK2/CCNE1): dTm D - Batch Mean [Concentration: 100]>


>  <DSF (pCDK2/CCNE1): dTm D - Batch Mean [Concentration: 20.0]>
0.267

>  <RLM: t1/2 - Batch Mean (Min)>


>  <RLM: Cl int - Batch Mean (uL/min/mg protein)>


>  <RLM: ER (Hepatic extraction ratio) - Batch Mean>


>  <HLM: t1/2 - Batch Mean (Min)>


>  <HLM: Cl int - Batch Mean (uL/min/mg protein)>


>  <HLM: ER (Hepatic extraction ratio) - Batch Mean>


>  <MDCK-WT 4% BSA: Papp (A-B) - Batch Mean (10-6, cm/s)>


>  <MDCK-WT 4% BSA: Papp (B-A) - Batch Mean (10-6, cm/s)>


>  <MDCK-WT 4% BSA: Efflux Ratio - Batch Mean>


>  <MDCK-WT 4% BSA: ~Net A_B - Batch Mean (10-6, cm/s)>


>  <pIC50>
4.068542

>  <Selection_1>
Y

>  <Selection_N>
N

>  <Serie>
Tetrahydrothienopyridine

>  <Selection_T>
Y

>  <Train_Vs_Test>


$$$$
CTX-1020842
OCL MolfileCreator  2D

  0  0  0  0  0  0              0 V3000
M  V30 BEGIN CTAB
M  V30 COUNTS 39 44 0 0 0
M  V30 BEGIN ATOM
M  V30 1 S 6.5664 -0.1398 0.0 0
M  V30 2 C 5.1961 -0.75 0.0 0
M  V30 3 C 7.5701 -1.2546 0.0 0
M  V30 4 C 3.8971 0.0 0.0 0
M  V30 5 C 5.3529 -2.2417 0.0 0
M  V30 6 C 6.8201 -2.5536 0.0 0
M  V30 7 C 9.0701 -1.2546 0.0 0
M  V30 8 O 3.8971 1.5 0.0 0
M  V30 9 N 2.598 -0.75 0.0 0
M  V30 10 C 7.5701 -3.8526 0.0 0
M  V30 11 C 9.8201 -2.5536 0.0 0
M  V30 12 C 1.299 0.0 0.0 0
M  V30 13 N 9.0701 -3.8526 0.0 0
M  V30 14 C 0.0 -0.75 0.0 0
M  V30 15 C 9.8201 -5.1517 0.0 0
M  V30 16 C -1.299 0.0 0.0 0
M  V30 17 C 0.0 -2.2499 0.0 0
M  V30 18 O 9.0701 -6.4507 0.0 0
M  V30 19 C 11.3201 -5.1517 0.0 0
M  V30 20 C -2.598 -0.7499 0.0 0
M  V30 21 C -1.299 -2.9999 0.0 0
M  V30 22 O 12.2018 -6.3652 0.0 0
M  V30 23 C 12.2018 -3.9382 0.0 0
M  V30 24 C -2.598 -2.2499 0.0 0
M  V30 25 C 13.6284 -5.9017 0.0 0
M  V30 26 O 11.7383 -2.5116 0.0 0
M  V30 27 C 13.6284 -4.4017 0.0 0
M  V30 28 N -3.8971 -2.9999 0.0 0
M  V30 29 C 14.9274 -6.6517 0.0 0
M  V30 30 C 12.742 -1.3968 0.0 0
M  V30 31 C 14.9274 -3.6517 0.0 0
M  V30 32 C -5.1961 -2.2499 0.0 0
M  V30 33 C -3.8971 -4.4999 0.0 0
M  V30 34 C 16.2265 -5.9017 0.0 0
M  V30 35 C 16.2265 -4.4017 0.0 0
M  V30 36 C -6.4951 -2.9999 0.0 0
M  V30 37 C -5.1961 -5.2499 0.0 0
M  V30 38 N -6.4951 -4.4999 0.0 0
M  V30 39 C -7.7942 -5.2499 0.0 0
M  V30 END ATOM
M  V30 BEGIN BOND
M  V30 1 1 1 2
M  V30 2 1 1 3
M  V30 3 1 2 4
M  V30 4 2 2 5
M  V30 5 2 3 6
M  V30 6 1 3 7
M  V30 7 2 4 8
M  V30 8 1 4 9
M  V30 9 1 6 10
M  V30 10 1 7 11
M  V30 11 1 9 12
M  V30 12 1 10 13
M  V30 13 1 12 14
M  V30 14 1 13 15
M  V30 15 2 14 16
M  V30 16 1 14 17
M  V30 17 2 15 18
M  V30 18 1 15 19
M  V30 19 1 16 20
M  V30 20 2 17 21
M  V30 21 1 19 22
M  V30 22 2 19 23
M  V30 23 2 20 24
M  V30 24 1 22 25
M  V30 25 1 23 26
M  V30 26 1 23 27
M  V30 27 1 24 28
M  V30 28 1 25 29
M  V30 29 1 26 30
M  V30 30 1 27 31
M  V30 31 1 28 32
M  V30 32 1 28 33
M  V30 33 2 29 34
M  V30 34 2 31 35
M  V30 35 1 32 36
M  V30 36 1 33 37
M  V30 37 1 36 38
M  V30 38 1 38 39
M  V30 39 1 5 6
M  V30 40 1 11 13
M  V30 41 1 21 24
M  V30 42 2 25 27
M  V30 43 1 34 35
M  V30 44 1 37 38
M  V30 END BOND
M  V30 END CTAB
M  END
>  <Molecule Name>
CTX-1020842

>  <SMILES>
COC1=C(OC2=CC=CC=C12)C(=O)N1CCC2=C(C1)C=C(S2)C(=O)NCC1=CC=C(C=C1)N1CCN(C)CC1

>  <Batch Name>
CTX-1020842-1

>  <Batch Created Date>
2022-01-06

>  <Batch ID>
CTX-1020842-1

>  <External ID>
CD-44-2-B

>  <Stereochemistry>
Achiral

>  <Amount 1>
1.3

>  <Unit 1>
mg

>  <CRO 1>
Pharmaron

>  <CRO 1 Total Amount>
9.7

>  <CRO 1 Unit>
mg

>  <Pharmaron Solubility (PBS, pH 7.4): Aqueous Solubility - Batch Mean (uM)>
16.61

>  <Pharmaron Solubility (PBS, pH 7.4): Aqueous Solubility - Batch Mean (uM) Standard Deviation (±)>


>  <Pharmaron Solubility (PBS, pH 7.4): Aqueous Solubility - Batch Mean (uM) Count>
1.0

>  <log P>
3.76

>  <log D>
3.12

>  <Pharmaron Caliper Assay (CDK2/CCNE1): Minimum measured (%)>
38.4

>  <Pharmaron Caliper Assay (CDK2/CCNE1): IC50 - Batch Mean (uM)>
6.02

>  <Pharmaron ADPGLO (CDK2/E1-25C): Minimum measured (%)>
33.3

>  <Pharmaron ADPGLO (CDK2/E1-25C): IC50 - Batch Mean (uM)>
30.9

>  <Pharmaron ADPGLO (CDK2/E1-37C): Minimum measured (%)>
96.7

>  <Pharmaron ADPGLO (CDK2/E1-37C): IC50 - Batch Mean (uM)>
100

>  <IncuCyte Kuramochi RB-WT: IC50 - Batch Mean (uM)>
7.44

>  <IncuCyte Kuramochi RB-KO: IC50 - Batch Mean (uM)>
5.37

>  <DSF (npCDK2/CCNE1): dTm D - Batch Mean [Concentration: 100]>


>  <DSF (npCDK2/CCNE1): dTm D - Batch Mean [Concentration: 20.0]>
2.238

>  <DSF (pCDK2/CCNE1): dTm D - Batch Mean [Concentration: 100]>


>  <DSF (pCDK2/CCNE1): dTm D - Batch Mean [Concentration: 20.0]>
1.186

>  <RLM: t1/2 - Batch Mean (Min)>


>  <RLM: Cl int - Batch Mean (uL/min/mg protein)>


>  <RLM: ER (Hepatic extraction ratio) - Batch Mean>


>  <HLM: t1/2 - Batch Mean (Min)>


>  <HLM: Cl int - Batch Mean (uL/min/mg protein)>


>  <HLM: ER (Hepatic extraction ratio) - Batch Mean>


>  <MDCK-WT 4% BSA: Papp (A-B) - Batch Mean (10-6, cm/s)>


>  <MDCK-WT 4% BSA: Papp (B-A) - Batch Mean (10-6, cm/s)>


>  <MDCK-WT 4% BSA: Efflux Ratio - Batch Mean>


>  <MDCK-WT 4% BSA: ~Net A_B - Batch Mean (10-6, cm/s)>


>  <pIC50>
5.220404

>  <Selection_1>
Y

>  <Selection_N>
N

>  <Serie>
Tetrahydrothienopyridine

>  <Selection_T>


>  <Train_Vs_Test>


$$$$
CTX-1020838
OCL MolfileCreator  2D

  0  0  0  0  0  0              0 V3000
M  V30 BEGIN CTAB
M  V30 COUNTS 40 45 0 0 0
M  V30 BEGIN ATOM
M  V30 1 Cl 9.7817 0.8848 0.0 0
M  V30 2 C 9.5737 -0.0932 0.0 0
M  V30 3 C 8.6602 -0.5 0.0 0
M  V30 4 C 10.2429 -0.8364 0.0 0
M  V30 5 O 8.7647 -1.4945 0.0 0
M  V30 6 C 7.7942 0.0 0.0 0
M  V30 7 C 9.7429 -1.7024 0.0 0
M  V30 8 C 11.2429 -0.8364 0.0 0
M  V30 9 O 7.7942 0.9999 0.0 0
M  V30 10 N 6.9282 -0.5 0.0 0
M  V30 11 C 10.2429 -2.5684 0.0 0
M  V30 12 C 11.7429 -1.7024 0.0 0
M  V30 13 C 6.0621 0.0 0.0 0
M  V30 14 C 6.9282 -1.4999 0.0 0
M  V30 15 F 9.7429 -3.4344 0.0 0
M  V30 16 C 11.2429 -2.5684 0.0 0
M  V30 17 C 5.1961 -0.5 0.0 0
M  V30 18 C 6.0621 -1.9999 0.0 0
M  V30 19 N 4.3301 0.0 0.0 0
M  V30 20 C 5.1961 -1.4999 0.0 0
M  V30 21 C 3.4641 -0.5 0.0 0
M  V30 22 C 4.3301 -2.0 0.0 0
M  V30 23 C 2.598 0.0 0.0 0
M  V30 24 C 3.4641 -1.4999 0.0 0
M  V30 25 O 2.598 1.0 0.0 0
M  V30 26 N 1.732 -0.5 0.0 0
M  V30 27 C 0.866 0.0 0.0 0
M  V30 28 C 0.0 -0.5 0.0 0
M  V30 29 C -0.866 0.0 0.0 0
M  V30 30 C 0.0 -1.4999 0.0 0
M  V30 31 C -1.732 -0.4999 0.0 0
M  V30 32 C -0.866 -1.9999 0.0 0
M  V30 33 C -1.732 -1.4999 0.0 0
M  V30 34 N -2.598 -1.9999 0.0 0
M  V30 35 C -3.4641 -1.4999 0.0 0
M  V30 36 C -2.598 -2.9999 0.0 0
M  V30 37 C -4.3301 -1.9999 0.0 0
M  V30 38 C -3.4641 -3.4999 0.0 0
M  V30 39 N -4.3301 -2.9999 0.0 0
M  V30 40 C -5.1961 -3.4999 0.0 0
M  V30 END ATOM
M  V30 BEGIN BOND
M  V30 1 1 1 2
M  V30 2 2 2 3
M  V30 3 1 2 4
M  V30 4 1 3 5
M  V30 5 1 3 6
M  V30 6 2 4 7
M  V30 7 1 4 8
M  V30 8 2 6 9
M  V30 9 1 6 10
M  V30 10 1 7 11
M  V30 11 2 8 12
M  V30 12 1 10 13
M  V30 13 1 10 14
M  V30 14 1 11 15
M  V30 15 2 11 16
M  V30 16 1 13 17
M  V30 17 1 14 18
M  V30 18 2 17 19
M  V30 19 1 17 20
M  V30 20 1 19 21
M  V30 21 2 20 22
M  V30 22 1 21 23
M  V30 23 2 21 24
M  V30 24 2 23 25
M  V30 25 1 23 26
M  V30 26 1 26 27
M  V30 27 1 27 28
M  V30 28 2 28 29
M  V30 29 1 28 30
M  V30 30 1 29 31
M  V30 31 2 30 32
M  V30 32 2 31 33
M  V30 33 1 33 34
M  V30 34 1 34 35
M  V30 35 1 34 36
M  V30 36 1 35 37
M  V30 37 1 36 38
M  V30 38 1 37 39
M  V30 39 1 39 40
M  V30 40 1 5 7
M  V30 41 1 12 16
M  V30 42 1 18 20
M  V30 43 1 22 24
M  V30 44 1 32 33
M  V30 45 1 38 39
M  V30 END BOND
M  V30 END CTAB
M  END
>  <Molecule Name>
CTX-1020838

>  <SMILES>
CN1CCN(CC1)C1=CC=C(CNC(=O)C2=CC=C3CCN(CC3=N2)C(=O)C2=C(Cl)C3=C(O2)C(F)=CC=C3)C=C1

>  <Batch Name>
CTX-1020838-1

>  <Batch Created Date>
2022-01-06

>  <Batch ID>
CTX-1020838-1

>  <External ID>
CD-42-P

>  <Stereochemistry>
Achiral

>  <Amount 1>
6.2

>  <Unit 1>
mg

>  <CRO 1>
Pharmaron

>  <CRO 1 Total Amount>
20.9

>  <CRO 1 Unit>
mg

>  <Pharmaron Solubility (PBS, pH 7.4): Aqueous Solubility - Batch Mean (uM)>
134.72

>  <Pharmaron Solubility (PBS, pH 7.4): Aqueous Solubility - Batch Mean (uM) Standard Deviation (±)>


>  <Pharmaron Solubility (PBS, pH 7.4): Aqueous Solubility - Batch Mean (uM) Count>
1.0

>  <log P>
3.87

>  <log D>
3.23

>  <Pharmaron Caliper Assay (CDK2/CCNE1): Minimum measured (%)>
23.5

>  <Pharmaron Caliper Assay (CDK2/CCNE1): IC50 - Batch Mean (uM)>
6.19

>  <Pharmaron ADPGLO (CDK2/E1-25C): Minimum measured (%)>
32.3

>  <Pharmaron ADPGLO (CDK2/E1-25C): IC50 - Batch Mean (uM)>
7.79

>  <Pharmaron ADPGLO (CDK2/E1-37C): Minimum measured (%)>
88.1

>  <Pharmaron ADPGLO (CDK2/E1-37C): IC50 - Batch Mean (uM)>
100

>  <IncuCyte Kuramochi RB-WT: IC50 - Batch Mean (uM)>
6.97

>  <IncuCyte Kuramochi RB-KO: IC50 - Batch Mean (uM)>
6.95

>  <DSF (npCDK2/CCNE1): dTm D - Batch Mean [Concentration: 100]>


>  <DSF (npCDK2/CCNE1): dTm D - Batch Mean [Concentration: 20.0]>
1.57

>  <DSF (pCDK2/CCNE1): dTm D - Batch Mean [Concentration: 100]>


>  <DSF (pCDK2/CCNE1): dTm D - Batch Mean [Concentration: 20.0]>
0.46799999999999997

>  <RLM: t1/2 - Batch Mean (Min)>


>  <RLM: Cl int - Batch Mean (uL/min/mg protein)>


>  <RLM: ER (Hepatic extraction ratio) - Batch Mean>


>  <HLM: t1/2 - Batch Mean (Min)>


>  <HLM: Cl int - Batch Mean (uL/min/mg protein)>


>  <HLM: ER (Hepatic extraction ratio) - Batch Mean>


>  <MDCK-WT 4% BSA: Papp (A-B) - Batch Mean (10-6, cm/s)>


>  <MDCK-WT 4% BSA: Papp (B-A) - Batch Mean (10-6, cm/s)>


>  <MDCK-WT 4% BSA: Efflux Ratio - Batch Mean>


>  <MDCK-WT 4% BSA: ~Net A_B - Batch Mean (10-6, cm/s)>


>  <pIC50>
5.208309

>  <Selection_1>
Y

>  <Selection_N>


>  <Serie>
Naphthyridine

>  <Selection_T>
N

>  <Train_Vs_Test>


$$$$
CTX-1020818
OCL MolfileCreator  2D

  0  0  0  0  0  0              0 V3000
M  V30 BEGIN CTAB
M  V30 COUNTS 30 35 0 0 0
M  V30 BEGIN ATOM
M  V30 1 S 4.3776 -0.0932 0.0 0
M  V30 2 C 3.4641 -0.5 0.0 0
M  V30 3 C 5.0467 -0.8364 0.0 0
M  V30 4 C 2.598 0.0 0.0 0
M  V30 5 C 3.5686 -1.4945 0.0 0
M  V30 6 C 4.5467 -1.7024 0.0 0
M  V30 7 C 6.0467 -0.8364 0.0 0
M  V30 8 O 2.598 1.0 0.0 0
M  V30 9 N 1.732 -0.5 0.0 0
M  V30 10 C 5.0467 -2.5684 0.0 0
M  V30 11 C 6.5467 -1.7024 0.0 0
M  V30 12 C 0.866 0.0 0.0 0
M  V30 13 N 6.0467 -2.5684 0.0 0
M  V30 14 C 0.0 -0.5 0.0 0
M  V30 15 C 6.5467 -3.4344 0.0 0
M  V30 16 C -0.927 -0.1251 0.0 0
M  V30 17 C -0.4007 -1.366 0.0 0
M  V30 18 C -0.1908 -1.861 0.0 0
M  V30 19 O 6.0467 -4.3005 0.0 0
M  V30 20 C 7.5467 -3.4344 0.0 0
M  V30 21 C -1.3019 -1.0521 0.0 0
M  V30 22 O 8.1345 -4.2435 0.0 0
M  V30 23 C 8.1345 -2.6254 0.0 0
M  V30 24 C 9.0856 -3.9344 0.0 0
M  V30 25 C 9.0856 -2.9344 0.0 0
M  V30 26 C 7.8255 -1.6744 0.0 0
M  V30 27 C 9.9516 -4.4344 0.0 0
M  V30 28 C 9.9516 -2.4344 0.0 0
M  V30 29 C 10.8176 -3.9344 0.0 0
M  V30 30 C 10.8176 -2.9344 0.0 0
M  V30 END ATOM
M  V30 BEGIN BOND
M  V30 1 1 1 2
M  V30 2 1 1 3
M  V30 3 1 2 4
M  V30 4 2 2 5
M  V30 5 2 3 6
M  V30 6 1 3 7
M  V30 7 2 4 8
M  V30 8 1 4 9
M  V30 9 1 6 10
M  V30 10 1 7 11
M  V30 11 1 9 12
M  V30 12 1 10 13
M  V30 13 1 12 14
M  V30 14 1 13 15
M  V30 15 1 14 16
M  V30 16 1 14 17
M  V30 17 1 14 18
M  V30 18 2 15 19
M  V30 19 1 15 20
M  V30 20 1 16 21
M  V30 21 1 20 22
M  V30 22 2 20 23
M  V30 23 1 22 24
M  V30 24 1 23 25
M  V30 25 1 23 26
M  V30 26 1 24 27
M  V30 27 1 25 28
M  V30 28 2 27 29
M  V30 29 2 28 30
M  V30 30 1 5 6
M  V30 31 1 11 13
M  V30 32 1 17 21
M  V30 33 1 18 21
M  V30 34 2 24 25
M  V30 35 1 29 30
M  V30 END BOND
M  V30 END CTAB
M  END
>  <Molecule Name>
CTX-1020818

>  <SMILES>
CC1=C(OC2=C1C=CC=C2)C(=O)N1CCC2=C(C1)C=C(S2)C(=O)NCC12CC(C1)C2

>  <Batch Name>
CTX-1020818-1

>  <Batch Created Date>
2021-12-30

>  <Batch ID>
CTX-1020818-1

>  <External ID>
CD-44-L

>  <Stereochemistry>
Achiral

>  <Amount 1>
4.1

>  <Unit 1>
mg

>  <CRO 1>
Pharmaron

>  <CRO 1 Total Amount>
30.3

>  <CRO 1 Unit>
mg

>  <Pharmaron Solubility (PBS, pH 7.4): Aqueous Solubility - Batch Mean (uM)>
0.0335

>  <Pharmaron Solubility (PBS, pH 7.4): Aqueous Solubility - Batch Mean (uM) Standard Deviation (±)>


>  <Pharmaron Solubility (PBS, pH 7.4): Aqueous Solubility - Batch Mean (uM) Count>
1.0

>  <log P>
3.73

>  <log D>
3.73

>  <Pharmaron Caliper Assay (CDK2/CCNE1): Minimum measured (%)>
85.3

>  <Pharmaron Caliper Assay (CDK2/CCNE1): IC50 - Batch Mean (uM)>
30.9

>  <Pharmaron ADPGLO (CDK2/E1-25C): Minimum measured (%)>
94.5

>  <Pharmaron ADPGLO (CDK2/E1-25C): IC50 - Batch Mean (uM)>
100

>  <Pharmaron ADPGLO (CDK2/E1-37C): Minimum measured (%)>
97.0

>  <Pharmaron ADPGLO (CDK2/E1-37C): IC50 - Batch Mean (uM)>
100

>  <IncuCyte Kuramochi RB-WT: IC50 - Batch Mean (uM)>
20.0

>  <IncuCyte Kuramochi RB-KO: IC50 - Batch Mean (uM)>
15.5

>  <DSF (npCDK2/CCNE1): dTm D - Batch Mean [Concentration: 100]>


>  <DSF (npCDK2/CCNE1): dTm D - Batch Mean [Concentration: 20.0]>
0.33399999999999996

>  <DSF (pCDK2/CCNE1): dTm D - Batch Mean [Concentration: 100]>


>  <DSF (pCDK2/CCNE1): dTm D - Batch Mean [Concentration: 20.0]>
-0.11699999999999999

>  <RLM: t1/2 - Batch Mean (Min)>


>  <RLM: Cl int - Batch Mean (uL/min/mg protein)>


>  <RLM: ER (Hepatic extraction ratio) - Batch Mean>


>  <HLM: t1/2 - Batch Mean (Min)>


>  <HLM: Cl int - Batch Mean (uL/min/mg protein)>


>  <HLM: ER (Hepatic extraction ratio) - Batch Mean>


>  <MDCK-WT 4% BSA: Papp (A-B) - Batch Mean (10-6, cm/s)>


>  <MDCK-WT 4% BSA: Papp (B-A) - Batch Mean (10-6, cm/s)>


>  <MDCK-WT 4% BSA: Efflux Ratio - Batch Mean>


>  <MDCK-WT 4% BSA: ~Net A_B - Batch Mean (10-6, cm/s)>


>  <pIC50>
4.510042

>  <Selection_1>
Y

>  <Selection_N>
N

>  <Serie>
Tetrahydrothienopyridine

>  <Selection_T>


>  <Train_Vs_Test>


$$$$
CTX-1020817
OCL MolfileCreator  2D

  0  0  0  0  0  0              0 V3000
M  V30 BEGIN CTAB
M  V30 COUNTS 38 43 0 0 0
M  V30 BEGIN ATOM
M  V30 1 Cl 11.1474 -8.1329 0.0 0
M  V30 2 C 9.6802 -7.821 0.0 0
M  V30 3 C 9.0701 -6.4507 0.0 0
M  V30 4 C 8.5655 -8.8247 0.0 0
M  V30 5 S 7.5783 -6.6075 0.0 0
M  V30 6 C 9.8201 -5.1517 0.0 0
M  V30 7 C 7.2665 -8.0747 0.0 0
M  V30 8 C 8.5655 -10.3247 0.0 0
M  V30 9 O 11.3201 -5.1517 0.0 0
M  V30 10 N 9.0701 -3.8526 0.0 0
M  V30 11 C 5.9674 -8.8247 0.0 0
M  V30 12 C 7.2665 -11.0747 0.0 0
M  V30 13 C 7.5701 -3.8526 0.0 0
M  V30 14 C 9.8201 -2.5536 0.0 0
M  V30 15 N 5.9674 -10.3247 0.0 0
M  V30 16 C 6.8201 -2.5536 0.0 0
M  V30 17 C 9.0701 -1.2546 0.0 0
M  V30 18 C 7.5701 -1.2546 0.0 0
M  V30 19 C 5.3529 -2.2417 0.0 0
M  V30 20 S 6.5664 -0.1398 0.0 0
M  V30 21 C 5.1961 -0.75 0.0 0
M  V30 22 C 3.8971 0.0 0.0 0
M  V30 23 O 3.8971 1.5 0.0 0
M  V30 24 N 2.598 -0.75 0.0 0
M  V30 25 C 1.299 0.0 0.0 0
M  V30 26 C 0.0 -0.75 0.0 0
M  V30 27 C -1.299 0.0 0.0 0
M  V30 28 C 0.0 -2.2499 0.0 0
M  V30 29 C -2.598 -0.7499 0.0 0
M  V30 30 C -1.299 -2.9999 0.0 0
M  V30 31 C -2.598 -2.2499 0.0 0
M  V30 32 N -3.8971 -2.9999 0.0 0
M  V30 33 C -5.1961 -2.2499 0.0 0
M  V30 34 C -3.8971 -4.4999 0.0 0
M  V30 35 C -6.4951 -2.9999 0.0 0
M  V30 36 C -5.1961 -5.2499 0.0 0
M  V30 37 N -6.4951 -4.4999 0.0 0
M  V30 38 C -7.7942 -5.2499 0.0 0
M  V30 END ATOM
M  V30 BEGIN BOND
M  V30 1 1 1 2
M  V30 2 2 2 3
M  V30 3 1 2 4
M  V30 4 1 3 5
M  V30 5 1 3 6
M  V30 6 2 4 7
M  V30 7 1 4 8
M  V30 8 2 6 9
M  V30 9 1 6 10
M  V30 10 1 7 11
M  V30 11 2 8 12
M  V30 12 1 10 13
M  V30 13 1 10 14
M  V30 14 2 11 15
M  V30 15 1 13 16
M  V30 16 1 14 17
M  V30 17 2 16 18
M  V30 18 1 16 19
M  V30 19 1 18 20
M  V30 20 2 19 21
M  V30 21 1 21 22
M  V30 22 2 22 23
M  V30 23 1 22 24
M  V30 24 1 24 25
M  V30 25 1 25 26
M  V30 26 2 26 27
M  V30 27 1 26 28
M  V30 28 1 27 29
M  V30 29 2 28 30
M  V30 30 2 29 31
M  V30 31 1 31 32
M  V30 32 1 32 33
M  V30 33 1 32 34
M  V30 34 1 33 35
M  V30 35 1 34 36
M  V30 36 1 35 37
M  V30 37 1 37 38
M  V30 38 1 5 7
M  V30 39 1 12 15
M  V30 40 1 17 18
M  V30 41 1 20 21
M  V30 42 1 30 31
M  V30 43 1 36 37
M  V30 END BOND
M  V30 END CTAB
M  END
>  <Molecule Name>
CTX-1020817

>  <SMILES>
CN1CCN(CC1)C1=CC=C(CNC(=O)C2=CC3=C(CCN(C3)C(=O)C3=C(Cl)C4=CC=NC=C4S3)S2)C=C1

>  <Batch Name>
CTX-1020817-1

>  <Batch Created Date>
2021-12-30

>  <Batch ID>
CTX-1020817-1

>  <External ID>
CD-44-2-J

>  <Stereochemistry>
Achiral

>  <Amount 1>
9.1

>  <Unit 1>
mg

>  <CRO 1>
Pharmaron

>  <CRO 1 Total Amount>
34.5

>  <CRO 1 Unit>
mg

>  <Pharmaron Solubility (PBS, pH 7.4): Aqueous Solubility - Batch Mean (uM)>
9.6667

>  <Pharmaron Solubility (PBS, pH 7.4): Aqueous Solubility - Batch Mean (uM) Standard Deviation (±)>


>  <Pharmaron Solubility (PBS, pH 7.4): Aqueous Solubility - Batch Mean (uM) Count>
1.0

>  <log P>
4.23

>  <log D>
3.6

>  <Pharmaron Caliper Assay (CDK2/CCNE1): Minimum measured (%)>
15.7

>  <Pharmaron Caliper Assay (CDK2/CCNE1): IC50 - Batch Mean (uM)>
8.46

>  <Pharmaron ADPGLO (CDK2/E1-25C): Minimum measured (%)>
30.9

>  <Pharmaron ADPGLO (CDK2/E1-25C): IC50 - Batch Mean (uM)>
17.2

>  <Pharmaron ADPGLO (CDK2/E1-37C): Minimum measured (%)>
55.5

>  <Pharmaron ADPGLO (CDK2/E1-37C): IC50 - Batch Mean (uM)>
37.5

>  <IncuCyte Kuramochi RB-WT: IC50 - Batch Mean (uM)>
12.6

>  <IncuCyte Kuramochi RB-KO: IC50 - Batch Mean (uM)>
8.69

>  <DSF (npCDK2/CCNE1): dTm D - Batch Mean [Concentration: 100]>


>  <DSF (npCDK2/CCNE1): dTm D - Batch Mean [Concentration: 20.0]>
0.835

>  <DSF (pCDK2/CCNE1): dTm D - Batch Mean [Concentration: 100]>


>  <DSF (pCDK2/CCNE1): dTm D - Batch Mean [Concentration: 20.0]>
0.5329999999999999

>  <RLM: t1/2 - Batch Mean (Min)>


>  <RLM: Cl int - Batch Mean (uL/min/mg protein)>


>  <RLM: ER (Hepatic extraction ratio) - Batch Mean>


>  <HLM: t1/2 - Batch Mean (Min)>


>  <HLM: Cl int - Batch Mean (uL/min/mg protein)>


>  <HLM: ER (Hepatic extraction ratio) - Batch Mean>


>  <MDCK-WT 4% BSA: Papp (A-B) - Batch Mean (10-6, cm/s)>


>  <MDCK-WT 4% BSA: Papp (B-A) - Batch Mean (10-6, cm/s)>


>  <MDCK-WT 4% BSA: Efflux Ratio - Batch Mean>


>  <MDCK-WT 4% BSA: ~Net A_B - Batch Mean (10-6, cm/s)>


>  <pIC50>
5.07263

>  <Selection_1>
Y

>  <Selection_N>
N

>  <Serie>
Tetrahydrothienopyridine

>  <Selection_T>


>  <Train_Vs_Test>


$$$$
CTX-1020816
OCL MolfileCreator  2D

  0  0  0  0  0  0              0 V3000
M  V30 BEGIN CTAB
M  V30 COUNTS 40 45 0 0 0
M  V30 BEGIN ATOM
M  V30 1 S 6.5664 -0.1398 0.0 0
M  V30 2 C 5.1961 -0.75 0.0 0
M  V30 3 C 7.5701 -1.2546 0.0 0
M  V30 4 C 3.8971 0.0 0.0 0
M  V30 5 C 5.3529 -2.2417 0.0 0
M  V30 6 C 6.8201 -2.5536 0.0 0
M  V30 7 C 9.0701 -1.2546 0.0 0
M  V30 8 O 3.8971 1.5 0.0 0
M  V30 9 N 2.598 -0.75 0.0 0
M  V30 10 C 7.5701 -3.8526 0.0 0
M  V30 11 C 9.8201 -2.5536 0.0 0
M  V30 12 C 1.299 0.0 0.0 0
M  V30 13 N 9.0701 -3.8526 0.0 0
M  V30 14 C 0.0 -0.75 0.0 0
M  V30 15 C 9.8201 -5.1517 0.0 0
M  V30 16 C -1.299 0.0 0.0 0
M  V30 17 C 0.0 -2.2499 0.0 0
M  V30 18 O 9.0701 -6.4507 0.0 0
M  V30 19 C 11.3201 -5.1517 0.0 0
M  V30 20 C -2.598 -0.7499 0.0 0
M  V30 21 C -1.299 -2.9999 0.0 0
M  V30 22 O 12.2018 -6.3652 0.0 0
M  V30 23 C 12.2018 -3.9382 0.0 0
M  V30 24 C -2.598 -2.2499 0.0 0
M  V30 25 C 13.6284 -5.9017 0.0 0
M  V30 26 C 13.6284 -4.4017 0.0 0
M  V30 27 C 11.7383 -2.5116 0.0 0
M  V30 28 N -3.8971 -2.9999 0.0 0
M  V30 29 C 14.9274 -6.6517 0.0 0
M  V30 30 C 14.9274 -3.6517 0.0 0
M  V30 31 C -5.1961 -2.2499 0.0 0
M  V30 32 C -3.8971 -4.4999 0.0 0
M  V30 33 C 14.9274 -8.1517 0.0 0
M  V30 34 C 16.2265 -5.9017 0.0 0
M  V30 35 C 16.2265 -4.4017 0.0 0
M  V30 36 C -6.4951 -2.9999 0.0 0
M  V30 37 C -5.1961 -5.2499 0.0 0
M  V30 38 N 14.9274 -9.6517 0.0 0
M  V30 39 N -6.4951 -4.4999 0.0 0
M  V30 40 C -7.7942 -5.2499 0.0 0
M  V30 END ATOM
M  V30 BEGIN BOND
M  V30 1 1 1 2
M  V30 2 1 1 3
M  V30 3 1 2 4
M  V30 4 2 2 5
M  V30 5 2 3 6
M  V30 6 1 3 7
M  V30 7 2 4 8
M  V30 8 1 4 9
M  V30 9 1 6 10
M  V30 10 1 7 11
M  V30 11 1 9 12
M  V30 12 1 10 13
M  V30 13 1 12 14
M  V30 14 1 13 15
M  V30 15 2 14 16
M  V30 16 1 14 17
M  V30 17 2 15 18
M  V30 18 1 15 19
M  V30 19 1 16 20
M  V30 20 2 17 21
M  V30 21 1 19 22
M  V30 22 2 19 23
M  V30 23 2 20 24
M  V30 24 1 22 25
M  V30 25 1 23 26
M  V30 26 1 23 27
M  V30 27 1 24 28
M  V30 28 1 25 29
M  V30 29 1 26 30
M  V30 30 1 28 31
M  V30 31 1 28 32
M  V30 32 1 29 33
M  V30 33 2 29 34
M  V30 34 2 30 35
M  V30 35 1 31 36
M  V30 36 1 32 37
M  V30 37 3 33 38
M  V30 38 1 36 39
M  V30 39 1 39 40
M  V30 40 1 5 6
M  V30 41 1 11 13
M  V30 42 1 21 24
M  V30 43 2 25 26
M  V30 44 1 34 35
M  V30 45 1 37 39
M  V30 END BOND
M  V30 END CTAB
M  END
>  <Molecule Name>
CTX-1020816

>  <SMILES>
CN1CCN(CC1)C1=CC=C(CNC(=O)C2=CC3=C(CCN(C3)C(=O)C3=C(C)C4=CC=CC(C#N)=C4O3)S2)C=C1

>  <Batch Name>
CTX-1020816-1

>  <Batch Created Date>
2021-12-30

>  <Batch ID>
CTX-1020816-1

>  <External ID>
CD-44-2-G-5

>  <Stereochemistry>
Achiral

>  <Amount 1>
2.0

>  <Unit 1>
mg

>  <CRO 1>
Pharmaron

>  <CRO 1 Total Amount>
16.9

>  <CRO 1 Unit>
mg

>  <Pharmaron Solubility (PBS, pH 7.4): Aqueous Solubility - Batch Mean (uM)>
4.5678

>  <Pharmaron Solubility (PBS, pH 7.4): Aqueous Solubility - Batch Mean (uM) Standard Deviation (±)>


>  <Pharmaron Solubility (PBS, pH 7.4): Aqueous Solubility - Batch Mean (uM) Count>
1.0

>  <log P>
4.28

>  <log D>
3.65

>  <Pharmaron Caliper Assay (CDK2/CCNE1): Minimum measured (%)>
27.1

>  <Pharmaron Caliper Assay (CDK2/CCNE1): IC50 - Batch Mean (uM)>
8.98

>  <Pharmaron ADPGLO (CDK2/E1-25C): Minimum measured (%)>
58.7

>  <Pharmaron ADPGLO (CDK2/E1-25C): IC50 - Batch Mean (uM)>
9.95

>  <Pharmaron ADPGLO (CDK2/E1-37C): Minimum measured (%)>
108.0

>  <Pharmaron ADPGLO (CDK2/E1-37C): IC50 - Batch Mean (uM)>
100

>  <IncuCyte Kuramochi RB-WT: IC50 - Batch Mean (uM)>
10.8

>  <IncuCyte Kuramochi RB-KO: IC50 - Batch Mean (uM)>
7.9

>  <DSF (npCDK2/CCNE1): dTm D - Batch Mean [Concentration: 100]>


>  <DSF (npCDK2/CCNE1): dTm D - Batch Mean [Concentration: 20.0]>
1.77

>  <DSF (pCDK2/CCNE1): dTm D - Batch Mean [Concentration: 100]>


>  <DSF (pCDK2/CCNE1): dTm D - Batch Mean [Concentration: 20.0]>
0.9

>  <RLM: t1/2 - Batch Mean (Min)>


>  <RLM: Cl int - Batch Mean (uL/min/mg protein)>


>  <RLM: ER (Hepatic extraction ratio) - Batch Mean>


>  <HLM: t1/2 - Batch Mean (Min)>


>  <HLM: Cl int - Batch Mean (uL/min/mg protein)>


>  <HLM: ER (Hepatic extraction ratio) - Batch Mean>


>  <MDCK-WT 4% BSA: Papp (A-B) - Batch Mean (10-6, cm/s)>


>  <MDCK-WT 4% BSA: Papp (B-A) - Batch Mean (10-6, cm/s)>


>  <MDCK-WT 4% BSA: Efflux Ratio - Batch Mean>


>  <MDCK-WT 4% BSA: ~Net A_B - Batch Mean (10-6, cm/s)>


>  <pIC50>
5.046724

>  <Selection_1>
Y

>  <Selection_N>
N

>  <Serie>
Tetrahydrothienopyridine

>  <Selection_T>


>  <Train_Vs_Test>


$$$$
CTX-1020811
OCL MolfileCreator  2D

  0  0  0  0  0  0              0 V3000
M  V30 BEGIN CTAB
M  V30 COUNTS 40 45 0 0 0
M  V30 BEGIN ATOM
M  V30 1 O 5.1961 -0.75 0.0 0
M  V30 2 C 3.8971 0.0 0.0 0
M  V30 3 N 2.598 -0.75 0.0 0
M  V30 4 C 3.8971 1.5 0.0 0
M  V30 5 C 1.299 0.0 0.0 0
M  V30 6 N 5.1961 2.25 0.0 0
M  V30 7 C 2.598 2.25 0.0 0
M  V30 8 C 0.0 -0.75 0.0 0
M  V30 9 C 5.1961 3.75 0.0 0
M  V30 10 C 2.598 3.75 0.0 0
M  V30 11 C -1.299 0.0 0.0 0
M  V30 12 C 0.0 -2.2499 0.0 0
M  V30 13 C 3.8971 4.5 0.0 0
M  V30 14 C 6.4951 4.5 0.0 0
M  V30 15 C -2.598 -0.7499 0.0 0
M  V30 16 C -1.299 -2.9999 0.0 0
M  V30 17 C 3.8971 6.0 0.0 0
M  V30 18 N 6.4951 6.0 0.0 0
M  V30 19 C -2.598 -2.2499 0.0 0
M  V30 20 C 5.1961 6.75 0.0 0
M  V30 21 C 7.7942 6.75 0.0 0
M  V30 22 N -3.8971 -2.9999 0.0 0
M  V30 23 O 7.7942 8.2499 0.0 0
M  V30 24 C 9.0932 5.9999 0.0 0
M  V30 25 C -5.1961 -2.2499 0.0 0
M  V30 26 C -3.8971 -4.4999 0.0 0
M  V30 27 O 10.4635 6.6101 0.0 0
M  V30 28 C 9.25 4.5082 0.0 0
M  V30 29 C -6.4951 -2.9999 0.0 0
M  V30 30 C -5.1961 -5.2499 0.0 0
M  V30 31 C 11.4672 5.4953 0.0 0
M  V30 32 C 10.7172 4.1963 0.0 0
M  V30 33 C 8.1353 3.5045 0.0 0
M  V30 34 N -6.4951 -4.4999 0.0 0
M  V30 35 C 12.9672 5.4953 0.0 0
M  V30 36 C 11.4672 2.8973 0.0 0
M  V30 37 C 8.4472 2.0372 0.0 0
M  V30 38 C -7.7942 -5.2499 0.0 0
M  V30 39 C 13.7172 4.1963 0.0 0
M  V30 40 C 12.9672 2.8973 0.0 0
M  V30 END ATOM
M  V30 BEGIN BOND
M  V30 1 2 1 2
M  V30 2 1 2 3
M  V30 3 1 2 4
M  V30 4 1 3 5
M  V30 5 2 4 6
M  V30 6 1 4 7
M  V30 7 1 5 8
M  V30 8 1 6 9
M  V30 9 2 7 10
M  V30 10 2 8 11
M  V30 11 1 8 12
M  V30 12 2 9 13
M  V30 13 1 9 14
M  V30 14 1 11 15
M  V30 15 2 12 16
M  V30 16 1 13 17
M  V30 17 1 14 18
M  V30 18 2 15 19
M  V30 19 1 17 20
M  V30 20 1 18 21
M  V30 21 1 19 22
M  V30 22 2 21 23
M  V30 23 1 21 24
M  V30 24 1 22 25
M  V30 25 1 22 26
M  V30 26 1 24 27
M  V30 27 2 24 28
M  V30 28 1 25 29
M  V30 29 1 26 30
M  V30 30 1 27 31
M  V30 31 1 28 32
M  V30 32 1 28 33
M  V30 33 1 29 34
M  V30 34 1 31 35
M  V30 35 1 32 36
M  V30 36 1 33 37
M  V30 37 1 34 38
M  V30 38 2 35 39
M  V30 39 2 36 40
M  V30 40 1 10 13
M  V30 41 1 16 19
M  V30 42 1 18 20
M  V30 43 1 30 34
M  V30 44 2 31 32
M  V30 45 1 39 40
M  V30 END BOND
M  V30 END CTAB
M  END
>  <Molecule Name>
CTX-1020811

>  <SMILES>
CCC1=C(OC2=C1C=CC=C2)C(=O)N1CCC2=C(C1)N=C(C=C2)C(=O)NCC1=CC=C(C=C1)N1CCN(C)CC1

>  <Batch Name>
CTX-1020811-1

>  <Batch Created Date>
2021-12-30

>  <Batch ID>
CTX-1020811-1

>  <External ID>
CD-42-R

>  <Stereochemistry>
Achiral

>  <Amount 1>
4.3

>  <Unit 1>
mg

>  <CRO 1>
Pharmaron

>  <CRO 1 Total Amount>
19.3

>  <CRO 1 Unit>
mg

>  <Pharmaron Solubility (PBS, pH 7.4): Aqueous Solubility - Batch Mean (uM)>
72.0524

>  <Pharmaron Solubility (PBS, pH 7.4): Aqueous Solubility - Batch Mean (uM) Standard Deviation (±)>


>  <Pharmaron Solubility (PBS, pH 7.4): Aqueous Solubility - Batch Mean (uM) Count>
1.0

>  <log P>
4.08

>  <log D>
3.44

>  <Pharmaron Caliper Assay (CDK2/CCNE1): Minimum measured (%)>
41.0

>  <Pharmaron Caliper Assay (CDK2/CCNE1): IC50 - Batch Mean (uM)>
12.4

>  <Pharmaron ADPGLO (CDK2/E1-25C): Minimum measured (%)>
48.9

>  <Pharmaron ADPGLO (CDK2/E1-25C): IC50 - Batch Mean (uM)>
100

>  <Pharmaron ADPGLO (CDK2/E1-37C): Minimum measured (%)>
102.0

>  <Pharmaron ADPGLO (CDK2/E1-37C): IC50 - Batch Mean (uM)>
100

>  <IncuCyte Kuramochi RB-WT: IC50 - Batch Mean (uM)>
8.82

>  <IncuCyte Kuramochi RB-KO: IC50 - Batch Mean (uM)>
7.03

>  <DSF (npCDK2/CCNE1): dTm D - Batch Mean [Concentration: 100]>


>  <DSF (npCDK2/CCNE1): dTm D - Batch Mean [Concentration: 20.0]>
0.46799999999999997

>  <DSF (pCDK2/CCNE1): dTm D - Batch Mean [Concentration: 100]>


>  <DSF (pCDK2/CCNE1): dTm D - Batch Mean [Concentration: 20.0]>
0.141

>  <RLM: t1/2 - Batch Mean (Min)>


>  <RLM: Cl int - Batch Mean (uL/min/mg protein)>


>  <RLM: ER (Hepatic extraction ratio) - Batch Mean>


>  <HLM: t1/2 - Batch Mean (Min)>


>  <HLM: Cl int - Batch Mean (uL/min/mg protein)>


>  <HLM: ER (Hepatic extraction ratio) - Batch Mean>


>  <MDCK-WT 4% BSA: Papp (A-B) - Batch Mean (10-6, cm/s)>


>  <MDCK-WT 4% BSA: Papp (B-A) - Batch Mean (10-6, cm/s)>


>  <MDCK-WT 4% BSA: Efflux Ratio - Batch Mean>


>  <MDCK-WT 4% BSA: ~Net A_B - Batch Mean (10-6, cm/s)>


>  <pIC50>
4.906578

>  <Selection_1>
Y

>  <Selection_N>


>  <Serie>
Naphthyridine

>  <Selection_T>
N

>  <Train_Vs_Test>


$$$$
CTX-1020810
OCL MolfileCreator  2D

  0  0  0  0  0  0              0 V3000
M  V30 BEGIN CTAB
M  V30 COUNTS 40 45 0 0 0
M  V30 BEGIN ATOM
M  V30 1 S 8.7647 -1.4945 0.0 0
M  V30 2 C 9.7429 -1.7024 0.0 0
M  V30 3 C 8.6602 -0.5 0.0 0
M  V30 4 C 10.2429 -2.5684 0.0 0
M  V30 5 C 10.2429 -0.8364 0.0 0
M  V30 6 C 9.5737 -0.0932 0.0 0
M  V30 7 C 7.7942 0.0 0.0 0
M  V30 8 F 9.7429 -3.4344 0.0 0
M  V30 9 C 11.2429 -2.5684 0.0 0
M  V30 10 C 11.2429 -0.8364 0.0 0
M  V30 11 C 9.7817 0.8848 0.0 0
M  V30 12 O 7.7942 0.9999 0.0 0
M  V30 13 N 6.9282 -0.5 0.0 0
M  V30 14 C 11.7429 -1.7024 0.0 0
M  V30 15 C 6.0621 0.0 0.0 0
M  V30 16 C 6.9282 -1.4999 0.0 0
M  V30 17 C 5.1961 -0.5 0.0 0
M  V30 18 C 6.0621 -1.9999 0.0 0
M  V30 19 N 4.3301 0.0 0.0 0
M  V30 20 C 5.1961 -1.4999 0.0 0
M  V30 21 C 3.4641 -0.5 0.0 0
M  V30 22 C 4.3301 -2.0 0.0 0
M  V30 23 C 2.598 0.0 0.0 0
M  V30 24 C 3.4641 -1.4999 0.0 0
M  V30 25 O 2.598 1.0 0.0 0
M  V30 26 N 1.732 -0.5 0.0 0
M  V30 27 C 0.866 0.0 0.0 0
M  V30 28 C 0.0 -0.5 0.0 0
M  V30 29 C -0.866 0.0 0.0 0
M  V30 30 C 0.0 -1.4999 0.0 0
M  V30 31 C -1.732 -0.4999 0.0 0
M  V30 32 C -0.866 -1.9999 0.0 0
M  V30 33 C -1.732 -1.4999 0.0 0
M  V30 34 N -2.598 -1.9999 0.0 0
M  V30 35 C -3.4641 -1.4999 0.0 0
M  V30 36 C -2.598 -2.9999 0.0 0
M  V30 37 C -4.3301 -1.9999 0.0 0
M  V30 38 C -3.4641 -3.4999 0.0 0
M  V30 39 N -4.3301 -2.9999 0.0 0
M  V30 40 C -5.1961 -3.4999 0.0 0
M  V30 END ATOM
M  V30 BEGIN BOND
M  V30 1 1 1 2
M  V30 2 1 1 3
M  V30 3 2 2 4
M  V30 4 1 2 5
M  V30 5 2 3 6
M  V30 6 1 3 7
M  V30 7 1 4 8
M  V30 8 1 4 9
M  V30 9 2 5 10
M  V30 10 1 6 11
M  V30 11 2 7 12
M  V30 12 1 7 13
M  V30 13 2 9 14
M  V30 14 1 13 15
M  V30 15 1 13 16
M  V30 16 1 15 17
M  V30 17 1 16 18
M  V30 18 2 17 19
M  V30 19 1 17 20
M  V30 20 1 19 21
M  V30 21 2 20 22
M  V30 22 1 21 23
M  V30 23 2 21 24
M  V30 24 2 23 25
M  V30 25 1 23 26
M  V30 26 1 26 27
M  V30 27 1 27 28
M  V30 28 2 28 29
M  V30 29 1 28 30
M  V30 30 1 29 31
M  V30 31 2 30 32
M  V30 32 2 31 33
M  V30 33 1 33 34
M  V30 34 1 34 35
M  V30 35 1 34 36
M  V30 36 1 35 37
M  V30 37 1 36 38
M  V30 38 1 37 39
M  V30 39 1 39 40
M  V30 40 1 5 6
M  V30 41 1 10 14
M  V30 42 1 18 20
M  V30 43 1 22 24
M  V30 44 1 32 33
M  V30 45 1 38 39
M  V30 END BOND
M  V30 END CTAB
M  END
>  <Molecule Name>
CTX-1020810

>  <SMILES>
CN1CCN(CC1)C1=CC=C(CNC(=O)C2=CC=C3CCN(CC3=N2)C(=O)C2=C(C)C3=C(S2)C(F)=CC=C3)C=C1

>  <Batch Name>
CTX-1020810-1

>  <Batch Created Date>
2021-12-30

>  <Batch ID>
CTX-1020810-1

>  <External ID>
CD-42-Q

>  <Stereochemistry>
Achiral

>  <Amount 1>
13.8

>  <Unit 1>
mg

>  <CRO 1>
Pharmaron

>  <CRO 1 Total Amount>
32.5

>  <CRO 1 Unit>
mg

>  <Pharmaron Solubility (PBS, pH 7.4): Aqueous Solubility - Batch Mean (uM)>
158.8983

>  <Pharmaron Solubility (PBS, pH 7.4): Aqueous Solubility - Batch Mean (uM) Standard Deviation (±)>


>  <Pharmaron Solubility (PBS, pH 7.4): Aqueous Solubility - Batch Mean (uM) Count>
1.0

>  <log P>
4.7

>  <log D>
4.07

>  <Pharmaron Caliper Assay (CDK2/CCNE1): Minimum measured (%)>
14.1

>  <Pharmaron Caliper Assay (CDK2/CCNE1): IC50 - Batch Mean (uM)>
0.684

>  <Pharmaron ADPGLO (CDK2/E1-25C): Minimum measured (%)>
22.7

>  <Pharmaron ADPGLO (CDK2/E1-25C): IC50 - Batch Mean (uM)>
0.66

>  <Pharmaron ADPGLO (CDK2/E1-37C): Minimum measured (%)>
82.8

>  <Pharmaron ADPGLO (CDK2/E1-37C): IC50 - Batch Mean (uM)>
20.9

>  <IncuCyte Kuramochi RB-WT: IC50 - Batch Mean (uM)>
3.93

>  <IncuCyte Kuramochi RB-KO: IC50 - Batch Mean (uM)>
3.87

>  <DSF (npCDK2/CCNE1): dTm D - Batch Mean [Concentration: 100]>


>  <DSF (npCDK2/CCNE1): dTm D - Batch Mean [Concentration: 20.0]>
3.34

>  <DSF (pCDK2/CCNE1): dTm D - Batch Mean [Concentration: 100]>


>  <DSF (pCDK2/CCNE1): dTm D - Batch Mean [Concentration: 20.0]>
1.8

>  <RLM: t1/2 - Batch Mean (Min)>


>  <RLM: Cl int - Batch Mean (uL/min/mg protein)>


>  <RLM: ER (Hepatic extraction ratio) - Batch Mean>


>  <HLM: t1/2 - Batch Mean (Min)>


>  <HLM: Cl int - Batch Mean (uL/min/mg protein)>


>  <HLM: ER (Hepatic extraction ratio) - Batch Mean>


>  <MDCK-WT 4% BSA: Papp (A-B) - Batch Mean (10-6, cm/s)>


>  <MDCK-WT 4% BSA: Papp (B-A) - Batch Mean (10-6, cm/s)>


>  <MDCK-WT 4% BSA: Efflux Ratio - Batch Mean>


>  <MDCK-WT 4% BSA: ~Net A_B - Batch Mean (10-6, cm/s)>


>  <pIC50>
6.164944

>  <Selection_1>
Y

>  <Selection_N>


>  <Serie>
Naphthyridine

>  <Selection_T>
N

>  <Train_Vs_Test>


$$$$
CTX-1020800
OCL MolfileCreator  2D

  0  0  0  0  0  0              0 V3000
M  V30 BEGIN CTAB
M  V30 COUNTS 38 43 0 0 0
M  V30 BEGIN ATOM
M  V30 1 O 7.5467 -3.4344 0.0 0
M  V30 2 C 6.5467 -3.4344 0.0 0
M  V30 3 N 6.0467 -2.5684 0.0 0
M  V30 4 C 6.0467 -4.3005 0.0 0
M  V30 5 C 5.0467 -2.5684 0.0 0
M  V30 6 C 6.5467 -1.7024 0.0 0
M  V30 7 O 5.0522 -4.405 0.0 0
M  V30 8 C 6.4535 -5.214 0.0 0
M  V30 9 C 4.5467 -1.7024 0.0 0
M  V30 10 C 6.0467 -0.8364 0.0 0
M  V30 11 C 4.8443 -5.3831 0.0 0
M  V30 12 C 5.7103 -5.8831 0.0 0
M  V30 13 C 7.4316 -5.4219 0.0 0
M  V30 14 C 5.0467 -0.8364 0.0 0
M  V30 15 C 3.5686 -1.4945 0.0 0
M  V30 16 C 3.9783 -5.8831 0.0 0
M  V30 17 C 5.7103 -6.8831 0.0 0
M  V30 18 N 4.3776 -0.0932 0.0 0
M  V30 19 C 3.4641 -0.5 0.0 0
M  V30 20 C 3.9783 -6.8831 0.0 0
M  V30 21 C 4.8443 -7.3831 0.0 0
M  V30 22 C 2.598 0.0 0.0 0
M  V30 23 O 2.598 1.0 0.0 0
M  V30 24 N 1.732 -0.5 0.0 0
M  V30 25 C 0.866 0.0 0.0 0
M  V30 26 C 0.0 -0.5 0.0 0
M  V30 27 C -0.866 0.0 0.0 0
M  V30 28 C 0.0 -1.4999 0.0 0
M  V30 29 C -1.732 -0.4999 0.0 0
M  V30 30 C -0.866 -1.9999 0.0 0
M  V30 31 C -1.732 -1.4999 0.0 0
M  V30 32 N -2.598 -1.9999 0.0 0
M  V30 33 C -3.4641 -1.4999 0.0 0
M  V30 34 C -2.598 -2.9999 0.0 0
M  V30 35 C -4.3301 -1.9999 0.0 0
M  V30 36 C -3.4641 -3.4999 0.0 0
M  V30 37 N -4.3301 -2.9999 0.0 0
M  V30 38 C -5.1961 -3.4999 0.0 0
M  V30 END ATOM
M  V30 BEGIN BOND
M  V30 1 2 1 2
M  V30 2 1 2 3
M  V30 3 1 2 4
M  V30 4 1 3 5
M  V30 5 1 3 6
M  V30 6 1 4 7
M  V30 7 2 4 8
M  V30 8 1 5 9
M  V30 9 1 6 10
M  V30 10 1 7 11
M  V30 11 1 8 12
M  V30 12 1 8 13
M  V30 13 2 9 14
M  V30 14 1 9 15
M  V30 15 1 11 16
M  V30 16 1 12 17
M  V30 17 1 14 18
M  V30 18 2 15 19
M  V30 19 2 16 20
M  V30 20 2 17 21
M  V30 21 1 19 22
M  V30 22 2 22 23
M  V30 23 1 22 24
M  V30 24 1 24 25
M  V30 25 1 25 26
M  V30 26 2 26 27
M  V30 27 1 26 28
M  V30 28 1 27 29
M  V30 29 2 28 30
M  V30 30 2 29 31
M  V30 31 1 31 32
M  V30 32 1 32 33
M  V30 33 1 32 34
M  V30 34 1 33 35
M  V30 35 1 34 36
M  V30 36 1 35 37
M  V30 37 1 37 38
M  V30 38 1 10 14
M  V30 39 2 11 12
M  V30 40 1 18 19
M  V30 41 1 20 21
M  V30 42 1 30 31
M  V30 43 1 36 37
M  V30 END BOND
M  V30 END CTAB
M  END
>  <Molecule Name>
CTX-1020800

>  <SMILES>
CN1CCN(CC1)C1=CC=C(CNC(=O)C2=CC3=C(CCN(C3)C(=O)C3=C(C)C4=C(O3)C=CC=C4)N2)C=C1

>  <Batch Name>
CTX-1020800-1

>  <Batch Created Date>
2021-12-24

>  <Batch ID>
CTX-1020800-1

>  <External ID>
CD-44-Q

>  <Stereochemistry>
Achiral

>  <Amount 1>
2.6

>  <Unit 1>
mg

>  <CRO 1>
Pharmaron

>  <CRO 1 Total Amount>
16.1

>  <CRO 1 Unit>
mg

>  <Pharmaron Solubility (PBS, pH 7.4): Aqueous Solubility - Batch Mean (uM)>


>  <Pharmaron Solubility (PBS, pH 7.4): Aqueous Solubility - Batch Mean (uM) Standard Deviation (±)>


>  <Pharmaron Solubility (PBS, pH 7.4): Aqueous Solubility - Batch Mean (uM) Count>


>  <log P>
3.07

>  <log D>
2.44

>  <Pharmaron Caliper Assay (CDK2/CCNE1): Minimum measured (%)>
22.8

>  <Pharmaron Caliper Assay (CDK2/CCNE1): IC50 - Batch Mean (uM)>
1.17

>  <Pharmaron ADPGLO (CDK2/E1-25C): Minimum measured (%)>
41.9

>  <Pharmaron ADPGLO (CDK2/E1-25C): IC50 - Batch Mean (uM)>
1.67

>  <Pharmaron ADPGLO (CDK2/E1-37C): Minimum measured (%)>
105.0

>  <Pharmaron ADPGLO (CDK2/E1-37C): IC50 - Batch Mean (uM)>
10.0

>  <IncuCyte Kuramochi RB-WT: IC50 - Batch Mean (uM)>
9.85

>  <IncuCyte Kuramochi RB-KO: IC50 - Batch Mean (uM)>
10.6

>  <DSF (npCDK2/CCNE1): dTm D - Batch Mean [Concentration: 100]>


>  <DSF (npCDK2/CCNE1): dTm D - Batch Mean [Concentration: 20.0]>
1.9969999999999999

>  <DSF (pCDK2/CCNE1): dTm D - Batch Mean [Concentration: 100]>


>  <DSF (pCDK2/CCNE1): dTm D - Batch Mean [Concentration: 20.0]>
0.917

>  <RLM: t1/2 - Batch Mean (Min)>


>  <RLM: Cl int - Batch Mean (uL/min/mg protein)>


>  <RLM: ER (Hepatic extraction ratio) - Batch Mean>


>  <HLM: t1/2 - Batch Mean (Min)>


>  <HLM: Cl int - Batch Mean (uL/min/mg protein)>


>  <HLM: ER (Hepatic extraction ratio) - Batch Mean>


>  <MDCK-WT 4% BSA: Papp (A-B) - Batch Mean (10-6, cm/s)>


>  <MDCK-WT 4% BSA: Papp (B-A) - Batch Mean (10-6, cm/s)>


>  <MDCK-WT 4% BSA: Efflux Ratio - Batch Mean>


>  <MDCK-WT 4% BSA: ~Net A_B - Batch Mean (10-6, cm/s)>


>  <pIC50>
5.931814

>  <Selection_1>
Y

>  <Selection_N>
N

>  <Serie>
Other

>  <Selection_T>
N

>  <Train_Vs_Test>


$$$$
CTX-1020799
OCL MolfileCreator  2D

  0  0  0  0  0  0              0 V3000
M  V30 BEGIN CTAB
M  V30 COUNTS 39 45 0 0 0
M  V30 BEGIN ATOM
M  V30 1 Cl 7.4316 -5.4219 0.0 0
M  V30 2 C 6.4535 -5.214 0.0 0
M  V30 3 C 6.0467 -4.3005 0.0 0
M  V30 4 C 5.7103 -5.8831 0.0 0
M  V30 5 S 5.0522 -4.405 0.0 0
M  V30 6 C 6.5467 -3.4344 0.0 0
M  V30 7 C 4.8443 -5.3831 0.0 0
M  V30 8 C 5.7103 -6.8831 0.0 0
M  V30 9 O 7.5467 -3.4344 0.0 0
M  V30 10 N 6.0467 -2.5684 0.0 0
M  V30 11 C 3.9783 -5.8831 0.0 0
M  V30 12 C 4.8443 -7.3831 0.0 0
M  V30 13 C 5.0467 -2.5684 0.0 0
M  V30 14 C 6.5467 -1.7024 0.0 0
M  V30 15 C 3.9783 -6.8831 0.0 0
M  V30 16 C 4.5467 -1.7024 0.0 0
M  V30 17 C 6.0467 -0.8364 0.0 0
M  V30 18 C 5.0467 -0.8364 0.0 0
M  V30 19 C 3.5686 -1.4945 0.0 0
M  V30 20 S 4.3776 -0.0932 0.0 0
M  V30 21 C 3.4641 -0.5 0.0 0
M  V30 22 C 2.598 0.0 0.0 0
M  V30 23 O 2.598 1.0 0.0 0
M  V30 24 N 1.732 -0.5 0.0 0
M  V30 25 C 0.866 0.0 0.0 0
M  V30 26 C 0.0 -0.5 0.0 0
M  V30 27 C -0.866 0.0 0.0 0
M  V30 28 C 0.0 -1.4999 0.0 0
M  V30 29 C -1.732 -0.4999 0.0 0
M  V30 30 C -0.866 -1.9999 0.0 0
M  V30 31 C -1.732 -1.4999 0.0 0
M  V30 32 N -2.598 -1.9999 0.0 0
M  V30 33 C -3.564 -1.7411 0.0 0
M  V30 34 C -2.8568 -2.9659 0.0 0
M  V30 35 C -3.8228 -2.7071 0.0 0
M  V30 36 C -4.7887 -2.4482 0.0 0
M  V30 37 C -4.0816 -3.673 0.0 0
M  V30 38 N -5.0475 -3.4142 0.0 0
M  V30 39 C -5.9135 -3.9142 0.0 0
M  V30 END ATOM
M  V30 BEGIN BOND
M  V30 1 1 1 2
M  V30 2 2 2 3
M  V30 3 1 2 4
M  V30 4 1 3 5
M  V30 5 1 3 6
M  V30 6 2 4 7
M  V30 7 1 4 8
M  V30 8 2 6 9
M  V30 9 1 6 10
M  V30 10 1 7 11
M  V30 11 2 8 12
M  V30 12 1 10 13
M  V30 13 1 10 14
M  V30 14 2 11 15
M  V30 15 1 13 16
M  V30 16 1 14 17
M  V30 17 2 16 18
M  V30 18 1 16 19
M  V30 19 1 18 20
M  V30 20 2 19 21
M  V30 21 1 21 22
M  V30 22 2 22 23
M  V30 23 1 22 24
M  V30 24 1 24 25
M  V30 25 1 25 26
M  V30 26 2 26 27
M  V30 27 1 26 28
M  V30 28 1 27 29
M  V30 29 2 28 30
M  V30 30 2 29 31
M  V30 31 1 31 32
M  V30 32 1 32 33
M  V30 33 1 32 34
M  V30 34 1 33 35
M  V30 35 1 35 36
M  V30 36 1 35 37
M  V30 37 1 36 38
M  V30 38 1 38 39
M  V30 39 1 5 7
M  V30 40 1 12 15
M  V30 41 1 17 18
M  V30 42 1 20 21
M  V30 43 1 30 31
M  V30 44 1 34 35
M  V30 45 1 37 38
M  V30 END BOND
M  V30 END CTAB
M  END
>  <Molecule Name>
CTX-1020799

>  <SMILES>
CN1CC2(C1)CN(C2)C1=CC=C(CNC(=O)C2=CC3=C(CCN(C3)C(=O)C3=C(Cl)C4=CC=CC=C4S3)S2)C=C1

>  <Batch Name>
CTX-1020799-1

>  <Batch Created Date>
2021-12-24

>  <Batch ID>
CTX-1020799-1

>  <External ID>
CD-44-2-N

>  <Stereochemistry>
Achiral

>  <Amount 1>
20.6

>  <Unit 1>
mg

>  <CRO 1>
Pharmaron

>  <CRO 1 Total Amount>
29.2

>  <CRO 1 Unit>
mg

>  <Pharmaron Solubility (PBS, pH 7.4): Aqueous Solubility - Batch Mean (uM)>


>  <Pharmaron Solubility (PBS, pH 7.4): Aqueous Solubility - Batch Mean (uM) Standard Deviation (±)>


>  <Pharmaron Solubility (PBS, pH 7.4): Aqueous Solubility - Batch Mean (uM) Count>


>  <log P>
5.13

>  <log D>
4.59

>  <Pharmaron Caliper Assay (CDK2/CCNE1): Minimum measured (%)>
47.7

>  <Pharmaron Caliper Assay (CDK2/CCNE1): IC50 - Batch Mean (uM)>
7.88

>  <Pharmaron ADPGLO (CDK2/E1-25C): Minimum measured (%)>
84.9

>  <Pharmaron ADPGLO (CDK2/E1-25C): IC50 - Batch Mean (uM)>
9.52

>  <Pharmaron ADPGLO (CDK2/E1-37C): Minimum measured (%)>
112.0

>  <Pharmaron ADPGLO (CDK2/E1-37C): IC50 - Batch Mean (uM)>
10.0

>  <IncuCyte Kuramochi RB-WT: IC50 - Batch Mean (uM)>
2.51

>  <IncuCyte Kuramochi RB-KO: IC50 - Batch Mean (uM)>
2.45

>  <DSF (npCDK2/CCNE1): dTm D - Batch Mean [Concentration: 100]>


>  <DSF (npCDK2/CCNE1): dTm D - Batch Mean [Concentration: 20.0]>
1.429

>  <DSF (pCDK2/CCNE1): dTm D - Batch Mean [Concentration: 100]>


>  <DSF (pCDK2/CCNE1): dTm D - Batch Mean [Concentration: 20.0]>
0.5

>  <RLM: t1/2 - Batch Mean (Min)>


>  <RLM: Cl int - Batch Mean (uL/min/mg protein)>


>  <RLM: ER (Hepatic extraction ratio) - Batch Mean>


>  <HLM: t1/2 - Batch Mean (Min)>


>  <HLM: Cl int - Batch Mean (uL/min/mg protein)>


>  <HLM: ER (Hepatic extraction ratio) - Batch Mean>


>  <MDCK-WT 4% BSA: Papp (A-B) - Batch Mean (10-6, cm/s)>


>  <MDCK-WT 4% BSA: Papp (B-A) - Batch Mean (10-6, cm/s)>


>  <MDCK-WT 4% BSA: Efflux Ratio - Batch Mean>


>  <MDCK-WT 4% BSA: ~Net A_B - Batch Mean (10-6, cm/s)>


>  <pIC50>
5.103474

>  <Selection_1>
Y

>  <Selection_N>
N

>  <Serie>
Tetrahydrothienopyridine

>  <Selection_T>


>  <Train_Vs_Test>


$$$$
CTX-1020795
OCL MolfileCreator  2D

  0  0  0  0  0  0              0 V3000
M  V30 BEGIN CTAB
M  V30 COUNTS 40 45 0 0 0
M  V30 BEGIN ATOM
M  V30 1 Cl 11.7429 0.0296 0.0 0
M  V30 2 C 11.2429 -0.8364 0.0 0
M  V30 3 C 10.2429 -0.8364 0.0 0
M  V30 4 C 11.7429 -1.7024 0.0 0
M  V30 5 O 9.5737 -0.0932 0.0 0
M  V30 6 C 9.7429 -1.7024 0.0 0
M  V30 7 C 11.2429 -2.5684 0.0 0
M  V30 8 C 8.6602 -0.5 0.0 0
M  V30 9 C 8.7647 -1.4945 0.0 0
M  V30 10 C 10.2429 -2.5684 0.0 0
M  V30 11 C 7.7942 0.0 0.0 0
M  V30 12 C 8.0216 -2.1636 0.0 0
M  V30 13 O 7.7942 0.9999 0.0 0
M  V30 14 N 6.9282 -0.5 0.0 0
M  V30 15 C 6.0621 0.0 0.0 0
M  V30 16 C 6.9282 -1.4999 0.0 0
M  V30 17 C 5.1961 -0.5 0.0 0
M  V30 18 C 6.0621 -1.9999 0.0 0
M  V30 19 N 4.3301 0.0 0.0 0
M  V30 20 C 5.1961 -1.4999 0.0 0
M  V30 21 C 3.4641 -0.5 0.0 0
M  V30 22 C 4.3301 -2.0 0.0 0
M  V30 23 C 2.598 0.0 0.0 0
M  V30 24 C 3.4641 -1.4999 0.0 0
M  V30 25 O 2.598 1.0 0.0 0
M  V30 26 N 1.732 -0.5 0.0 0
M  V30 27 C 0.866 0.0 0.0 0
M  V30 28 C 0.0 -0.5 0.0 0
M  V30 29 C -0.866 0.0 0.0 0
M  V30 30 C 0.0 -1.4999 0.0 0
M  V30 31 C -1.732 -0.4999 0.0 0
M  V30 32 C -0.866 -1.9999 0.0 0
M  V30 33 C -1.732 -1.4999 0.0 0
M  V30 34 N -2.598 -1.9999 0.0 0
M  V30 35 C -3.4641 -1.4999 0.0 0
M  V30 36 C -2.598 -2.9999 0.0 0
M  V30 37 C -4.3301 -1.9999 0.0 0
M  V30 38 C -3.4641 -3.4999 0.0 0
M  V30 39 N -4.3301 -2.9999 0.0 0
M  V30 40 C -5.1961 -3.4999 0.0 0
M  V30 END ATOM
M  V30 BEGIN BOND
M  V30 1 1 1 2
M  V30 2 2 2 3
M  V30 3 1 2 4
M  V30 4 1 3 5
M  V30 5 1 3 6
M  V30 6 2 4 7
M  V30 7 1 5 8
M  V30 8 1 6 9
M  V30 9 2 6 10
M  V30 10 1 8 11
M  V30 11 1 9 12
M  V30 12 2 11 13
M  V30 13 1 11 14
M  V30 14 1 14 15
M  V30 15 1 14 16
M  V30 16 1 15 17
M  V30 17 1 16 18
M  V30 18 2 17 19
M  V30 19 1 17 20
M  V30 20 1 19 21
M  V30 21 2 20 22
M  V30 22 1 21 23
M  V30 23 2 21 24
M  V30 24 2 23 25
M  V30 25 1 23 26
M  V30 26 1 26 27
M  V30 27 1 27 28
M  V30 28 2 28 29
M  V30 29 1 28 30
M  V30 30 1 29 31
M  V30 31 2 30 32
M  V30 32 2 31 33
M  V30 33 1 33 34
M  V30 34 1 34 35
M  V30 35 1 34 36
M  V30 36 1 35 37
M  V30 37 1 36 38
M  V30 38 1 37 39
M  V30 39 1 39 40
M  V30 40 1 7 10
M  V30 41 2 8 9
M  V30 42 1 18 20
M  V30 43 1 22 24
M  V30 44 1 32 33
M  V30 45 1 38 39
M  V30 END BOND
M  V30 END CTAB
M  END
>  <Molecule Name>
CTX-1020795

>  <SMILES>
CN1CCN(CC1)C1=CC=C(CNC(=O)C2=CC=C3CCN(CC3=N2)C(=O)C2=C(C)C3=C(O2)C(Cl)=CC=C3)C=C1

>  <Batch Name>
CTX-1020795-1

>  <Batch Created Date>
2021-12-24

>  <Batch ID>
CTX-1020795-1

>  <External ID>
CD-42-O

>  <Stereochemistry>
Achiral

>  <Amount 1>
2.3

>  <Unit 1>
mg

>  <CRO 1>
Pharmaron

>  <CRO 1 Total Amount>
13.3

>  <CRO 1 Unit>
mg

>  <Pharmaron Solubility (PBS, pH 7.4): Aqueous Solubility - Batch Mean (uM)>


>  <Pharmaron Solubility (PBS, pH 7.4): Aqueous Solubility - Batch Mean (uM) Standard Deviation (±)>


>  <Pharmaron Solubility (PBS, pH 7.4): Aqueous Solubility - Batch Mean (uM) Count>


>  <log P>
4.24

>  <log D>
3.6

>  <Pharmaron Caliper Assay (CDK2/CCNE1): Minimum measured (%)>
30.0

>  <Pharmaron Caliper Assay (CDK2/CCNE1): IC50 - Batch Mean (uM)>
18.7

>  <Pharmaron ADPGLO (CDK2/E1-25C): Minimum measured (%)>
81.4

>  <Pharmaron ADPGLO (CDK2/E1-25C): IC50 - Batch Mean (uM)>
10.0

>  <Pharmaron ADPGLO (CDK2/E1-37C): Minimum measured (%)>
110.0

>  <Pharmaron ADPGLO (CDK2/E1-37C): IC50 - Batch Mean (uM)>
10.0

>  <IncuCyte Kuramochi RB-WT: IC50 - Batch Mean (uM)>
8.78

>  <IncuCyte Kuramochi RB-KO: IC50 - Batch Mean (uM)>
6.74

>  <DSF (npCDK2/CCNE1): dTm D - Batch Mean [Concentration: 100]>


>  <DSF (npCDK2/CCNE1): dTm D - Batch Mean [Concentration: 20.0]>
0.828

>  <DSF (pCDK2/CCNE1): dTm D - Batch Mean [Concentration: 100]>


>  <DSF (pCDK2/CCNE1): dTm D - Batch Mean [Concentration: 20.0]>
0.21600000000000003

>  <RLM: t1/2 - Batch Mean (Min)>


>  <RLM: Cl int - Batch Mean (uL/min/mg protein)>


>  <RLM: ER (Hepatic extraction ratio) - Batch Mean>


>  <HLM: t1/2 - Batch Mean (Min)>


>  <HLM: Cl int - Batch Mean (uL/min/mg protein)>


>  <HLM: ER (Hepatic extraction ratio) - Batch Mean>


>  <MDCK-WT 4% BSA: Papp (A-B) - Batch Mean (10-6, cm/s)>


>  <MDCK-WT 4% BSA: Papp (B-A) - Batch Mean (10-6, cm/s)>


>  <MDCK-WT 4% BSA: Efflux Ratio - Batch Mean>


>  <MDCK-WT 4% BSA: ~Net A_B - Batch Mean (10-6, cm/s)>


>  <pIC50>
4.728158

>  <Selection_1>
Y

>  <Selection_N>


>  <Serie>
Naphthyridine

>  <Selection_T>
N

>  <Train_Vs_Test>


$$$$
CTX-1020772
OCL MolfileCreator  2D

  0  0  0  0  0  0              0 V3000
M  V30 BEGIN CTAB
M  V30 COUNTS 30 34 0 0 0
M  V30 BEGIN ATOM
M  V30 1 S 6.5664 -0.1398 0.0 0
M  V30 2 C 5.1961 -0.75 0.0 0
M  V30 3 C 7.5701 -1.2546 0.0 0
M  V30 4 C 3.8971 0.0 0.0 0
M  V30 5 C 5.3529 -2.2417 0.0 0
M  V30 6 C 6.8201 -2.5536 0.0 0
M  V30 7 C 9.0701 -1.2546 0.0 0
M  V30 8 O 3.8971 1.5 0.0 0
M  V30 9 N 2.598 -0.75 0.0 0
M  V30 10 C 7.5701 -3.8526 0.0 0
M  V30 11 C 9.8201 -2.5536 0.0 0
M  V30 12 C 1.299 0.0 0.0 0
M  V30 13 N 9.0701 -3.8526 0.0 0
M  V30 14 C 0.0 -0.75 0.0 0
M  V30 15 C 9.8201 -5.1517 0.0 0
M  V30 16 O -1.3703 -0.1398 0.0 0
M  V30 17 C -0.1567 -2.2417 0.0 0
M  V30 18 O 9.0701 -6.4507 0.0 0
M  V30 19 C 11.3201 -5.1517 0.0 0
M  V30 20 C -2.374 -1.2546 0.0 0
M  V30 21 N -1.624 -2.5536 0.0 0
M  V30 22 O 12.2018 -6.3652 0.0 0
M  V30 23 C 12.2018 -3.9382 0.0 0
M  V30 24 C 13.6284 -5.9017 0.0 0
M  V30 25 C 13.6284 -4.4017 0.0 0
M  V30 26 C 11.7383 -2.5116 0.0 0
M  V30 27 C 14.9274 -6.6517 0.0 0
M  V30 28 C 14.9274 -3.6517 0.0 0
M  V30 29 C 16.2265 -5.9017 0.0 0
M  V30 30 C 16.2265 -4.4017 0.0 0
M  V30 END ATOM
M  V30 BEGIN BOND
M  V30 1 1 1 2
M  V30 2 1 1 3
M  V30 3 1 2 4
M  V30 4 2 2 5
M  V30 5 2 3 6
M  V30 6 1 3 7
M  V30 7 2 4 8
M  V30 8 1 4 9
M  V30 9 1 6 10
M  V30 10 1 7 11
M  V30 11 1 9 12
M  V30 12 1 10 13
M  V30 13 1 12 14
M  V30 14 1 13 15
M  V30 15 1 14 16
M  V30 16 2 14 17
M  V30 17 2 15 18
M  V30 18 1 15 19
M  V30 19 1 16 20
M  V30 20 1 17 21
M  V30 21 1 19 22
M  V30 22 2 19 23
M  V30 23 1 22 24
M  V30 24 1 23 25
M  V30 25 1 23 26
M  V30 26 1 24 27
M  V30 27 1 25 28
M  V30 28 2 27 29
M  V30 29 2 28 30
M  V30 30 1 5 6
M  V30 31 1 11 13
M  V30 32 2 20 21
M  V30 33 2 24 25
M  V30 34 1 29 30
M  V30 END BOND
M  V30 END CTAB
M  END
>  <Molecule Name>
CTX-1020772

>  <SMILES>
CC1=C(OC2=C1C=CC=C2)C(=O)N1CCC2=C(C1)C=C(S2)C(=O)NCC1=CN=CO1

>  <Batch Name>
CTX-1020772-1

>  <Batch Created Date>
2021-12-16

>  <Batch ID>
CTX-1020772-1

>  <External ID>
P841-0353

>  <Stereochemistry>
Achiral

>  <Amount 1>
4.0

>  <Unit 1>
mg

>  <CRO 1>
Pharmaron

>  <CRO 1 Total Amount>
14.8

>  <CRO 1 Unit>
mg

>  <Pharmaron Solubility (PBS, pH 7.4): Aqueous Solubility - Batch Mean (uM)>
7.5673

>  <Pharmaron Solubility (PBS, pH 7.4): Aqueous Solubility - Batch Mean (uM) Standard Deviation (±)>


>  <Pharmaron Solubility (PBS, pH 7.4): Aqueous Solubility - Batch Mean (uM) Count>
1.0

>  <log P>
2.33

>  <log D>
2.33

>  <Pharmaron Caliper Assay (CDK2/CCNE1): Minimum measured (%)>
56.6

>  <Pharmaron Caliper Assay (CDK2/CCNE1): IC50 - Batch Mean (uM)>
11.0

>  <Pharmaron ADPGLO (CDK2/E1-25C): Minimum measured (%)>


>  <Pharmaron ADPGLO (CDK2/E1-25C): IC50 - Batch Mean (uM)>


>  <Pharmaron ADPGLO (CDK2/E1-37C): Minimum measured (%)>


>  <Pharmaron ADPGLO (CDK2/E1-37C): IC50 - Batch Mean (uM)>


>  <IncuCyte Kuramochi RB-WT: IC50 - Batch Mean (uM)>
20.0

>  <IncuCyte Kuramochi RB-KO: IC50 - Batch Mean (uM)>
20.0

>  <DSF (npCDK2/CCNE1): dTm D - Batch Mean [Concentration: 100]>


>  <DSF (npCDK2/CCNE1): dTm D - Batch Mean [Concentration: 20.0]>
0.7879999999999999

>  <DSF (pCDK2/CCNE1): dTm D - Batch Mean [Concentration: 100]>


>  <DSF (pCDK2/CCNE1): dTm D - Batch Mean [Concentration: 20.0]>


>  <RLM: t1/2 - Batch Mean (Min)>


>  <RLM: Cl int - Batch Mean (uL/min/mg protein)>


>  <RLM: ER (Hepatic extraction ratio) - Batch Mean>


>  <HLM: t1/2 - Batch Mean (Min)>


>  <HLM: Cl int - Batch Mean (uL/min/mg protein)>


>  <HLM: ER (Hepatic extraction ratio) - Batch Mean>


>  <MDCK-WT 4% BSA: Papp (A-B) - Batch Mean (10-6, cm/s)>


>  <MDCK-WT 4% BSA: Papp (B-A) - Batch Mean (10-6, cm/s)>


>  <MDCK-WT 4% BSA: Efflux Ratio - Batch Mean>


>  <MDCK-WT 4% BSA: ~Net A_B - Batch Mean (10-6, cm/s)>


>  <pIC50>
4.958607

>  <Selection_1>
Y

>  <Selection_N>
N

>  <Serie>
Tetrahydrothienopyridine

>  <Selection_T>


>  <Train_Vs_Test>


$$$$
CTX-1020771
OCL MolfileCreator  2D

  0  0  0  0  0  0              0 V3000
M  V30 BEGIN CTAB
M  V30 COUNTS 31 35 0 0 0
M  V30 BEGIN ATOM
M  V30 1 S 6.5664 -0.1398 0.0 0
M  V30 2 C 5.1961 -0.75 0.0 0
M  V30 3 C 7.5701 -1.2546 0.0 0
M  V30 4 C 3.8971 0.0 0.0 0
M  V30 5 C 5.3529 -2.2417 0.0 0
M  V30 6 C 6.8201 -2.5536 0.0 0
M  V30 7 C 9.0701 -1.2546 0.0 0
M  V30 8 O 3.8971 1.5 0.0 0
M  V30 9 N 2.598 -0.75 0.0 0
M  V30 10 C 7.5701 -3.8526 0.0 0
M  V30 11 C 9.8201 -2.5536 0.0 0
M  V30 12 C 1.299 0.0 0.0 0
M  V30 13 N 9.0701 -3.8526 0.0 0
M  V30 14 C 0.0 -0.75 0.0 0
M  V30 15 C 9.8201 -5.1517 0.0 0
M  V30 16 N -1.3703 -0.1398 0.0 0
M  V30 17 C -0.1567 -2.2417 0.0 0
M  V30 18 O 9.0701 -6.4507 0.0 0
M  V30 19 C 11.3201 -5.1517 0.0 0
M  V30 20 C -2.374 -1.2546 0.0 0
M  V30 21 N -1.624 -2.5536 0.0 0
M  V30 22 O 12.2018 -6.3652 0.0 0
M  V30 23 C 12.2018 -3.9382 0.0 0
M  V30 24 C -2.2341 -3.9239 0.0 0
M  V30 25 C 13.6284 -5.9017 0.0 0
M  V30 26 C 13.6284 -4.4017 0.0 0
M  V30 27 C 11.7383 -2.5116 0.0 0
M  V30 28 C 14.9274 -6.6517 0.0 0
M  V30 29 C 14.9274 -3.6517 0.0 0
M  V30 30 C 16.2265 -5.9017 0.0 0
M  V30 31 C 16.2265 -4.4017 0.0 0
M  V30 END ATOM
M  V30 BEGIN BOND
M  V30 1 1 1 2
M  V30 2 1 1 3
M  V30 3 1 2 4
M  V30 4 2 2 5
M  V30 5 2 3 6
M  V30 6 1 3 7
M  V30 7 2 4 8
M  V30 8 1 4 9
M  V30 9 1 6 10
M  V30 10 1 7 11
M  V30 11 1 9 12
M  V30 12 1 10 13
M  V30 13 1 12 14
M  V30 14 1 13 15
M  V30 15 1 14 16
M  V30 16 2 14 17
M  V30 17 2 15 18
M  V30 18 1 15 19
M  V30 19 2 16 20
M  V30 20 1 17 21
M  V30 21 1 19 22
M  V30 22 2 19 23
M  V30 23 1 21 24
M  V30 24 1 22 25
M  V30 25 1 23 26
M  V30 26 1 23 27
M  V30 27 1 25 28
M  V30 28 1 26 29
M  V30 29 2 28 30
M  V30 30 2 29 31
M  V30 31 1 5 6
M  V30 32 1 11 13
M  V30 33 1 20 21
M  V30 34 2 25 26
M  V30 35 1 30 31
M  V30 END BOND
M  V30 END CTAB
M  END
>  <Molecule Name>
CTX-1020771

>  <SMILES>
CN1C=NC(CNC(=O)C2=CC3=C(CCN(C3)C(=O)C3=C(C)C4=C(O3)C=CC=C4)S2)=C1

>  <Batch Name>
CTX-1020771-1

>  <Batch Created Date>
2021-12-16

>  <Batch ID>
CTX-1020771-1

>  <External ID>
P841-0352

>  <Stereochemistry>
Achiral

>  <Amount 1>
4.5

>  <Unit 1>
mg

>  <CRO 1>
Pharmaron

>  <CRO 1 Total Amount>
20.05

>  <CRO 1 Unit>
mg

>  <Pharmaron Solubility (PBS, pH 7.4): Aqueous Solubility - Batch Mean (uM)>
29.6438

>  <Pharmaron Solubility (PBS, pH 7.4): Aqueous Solubility - Batch Mean (uM) Standard Deviation (±)>


>  <Pharmaron Solubility (PBS, pH 7.4): Aqueous Solubility - Batch Mean (uM) Count>
1.0

>  <log P>
2.66

>  <log D>
2.65

>  <Pharmaron Caliper Assay (CDK2/CCNE1): Minimum measured (%)>
36.1

>  <Pharmaron Caliper Assay (CDK2/CCNE1): IC50 - Batch Mean (uM)>
11.2

>  <Pharmaron ADPGLO (CDK2/E1-25C): Minimum measured (%)>


>  <Pharmaron ADPGLO (CDK2/E1-25C): IC50 - Batch Mean (uM)>


>  <Pharmaron ADPGLO (CDK2/E1-37C): Minimum measured (%)>


>  <Pharmaron ADPGLO (CDK2/E1-37C): IC50 - Batch Mean (uM)>


>  <IncuCyte Kuramochi RB-WT: IC50 - Batch Mean (uM)>
20.0

>  <IncuCyte Kuramochi RB-KO: IC50 - Batch Mean (uM)>
20.0

>  <DSF (npCDK2/CCNE1): dTm D - Batch Mean [Concentration: 100]>


>  <DSF (npCDK2/CCNE1): dTm D - Batch Mean [Concentration: 20.0]>
1.256

>  <DSF (pCDK2/CCNE1): dTm D - Batch Mean [Concentration: 100]>


>  <DSF (pCDK2/CCNE1): dTm D - Batch Mean [Concentration: 20.0]>


>  <RLM: t1/2 - Batch Mean (Min)>


>  <RLM: Cl int - Batch Mean (uL/min/mg protein)>


>  <RLM: ER (Hepatic extraction ratio) - Batch Mean>


>  <HLM: t1/2 - Batch Mean (Min)>


>  <HLM: Cl int - Batch Mean (uL/min/mg protein)>


>  <HLM: ER (Hepatic extraction ratio) - Batch Mean>


>  <MDCK-WT 4% BSA: Papp (A-B) - Batch Mean (10-6, cm/s)>


>  <MDCK-WT 4% BSA: Papp (B-A) - Batch Mean (10-6, cm/s)>


>  <MDCK-WT 4% BSA: Efflux Ratio - Batch Mean>


>  <MDCK-WT 4% BSA: ~Net A_B - Batch Mean (10-6, cm/s)>


>  <pIC50>
4.950782

>  <Selection_1>
Y

>  <Selection_N>
N

>  <Serie>
Tetrahydrothienopyridine

>  <Selection_T>


>  <Train_Vs_Test>


$$$$
CTX-1020770
OCL MolfileCreator  2D

  0  0  0  0  0  0              0 V3000
M  V30 BEGIN CTAB
M  V30 COUNTS 30 34 0 0 0
M  V30 BEGIN ATOM
M  V30 1 S 6.5664 -0.1398 0.0 0
M  V30 2 C 5.1961 -0.75 0.0 0
M  V30 3 C 7.5701 -1.2546 0.0 0
M  V30 4 C 3.8971 0.0 0.0 0
M  V30 5 C 5.3529 -2.2417 0.0 0
M  V30 6 C 6.8201 -2.5536 0.0 0
M  V30 7 C 9.0701 -1.2546 0.0 0
M  V30 8 O 3.8971 1.5 0.0 0
M  V30 9 N 2.598 -0.75 0.0 0
M  V30 10 C 7.5701 -3.8526 0.0 0
M  V30 11 C 9.8201 -2.5536 0.0 0
M  V30 12 C 1.299 0.0 0.0 0
M  V30 13 N 9.0701 -3.8526 0.0 0
M  V30 14 C 0.0 -0.75 0.0 0
M  V30 15 C 9.8201 -5.1517 0.0 0
M  V30 16 N -1.3703 -0.1398 0.0 0
M  V30 17 C -0.1567 -2.2417 0.0 0
M  V30 18 O 9.0701 -6.4507 0.0 0
M  V30 19 C 11.3201 -5.1517 0.0 0
M  V30 20 C -2.374 -1.2546 0.0 0
M  V30 21 S -1.624 -2.5536 0.0 0
M  V30 22 O 12.2018 -6.3652 0.0 0
M  V30 23 C 12.2018 -3.9382 0.0 0
M  V30 24 C 13.6284 -5.9017 0.0 0
M  V30 25 C 13.6284 -4.4017 0.0 0
M  V30 26 C 11.7383 -2.5116 0.0 0
M  V30 27 C 14.9274 -6.6517 0.0 0
M  V30 28 C 14.9274 -3.6517 0.0 0
M  V30 29 C 16.2265 -5.9017 0.0 0
M  V30 30 C 16.2265 -4.4017 0.0 0
M  V30 END ATOM
M  V30 BEGIN BOND
M  V30 1 1 1 2
M  V30 2 1 1 3
M  V30 3 1 2 4
M  V30 4 2 2 5
M  V30 5 2 3 6
M  V30 6 1 3 7
M  V30 7 2 4 8
M  V30 8 1 4 9
M  V30 9 1 6 10
M  V30 10 1 7 11
M  V30 11 1 9 12
M  V30 12 1 10 13
M  V30 13 1 12 14
M  V30 14 1 13 15
M  V30 15 1 14 16
M  V30 16 2 14 17
M  V30 17 2 15 18
M  V30 18 1 15 19
M  V30 19 2 16 20
M  V30 20 1 17 21
M  V30 21 1 19 22
M  V30 22 2 19 23
M  V30 23 1 22 24
M  V30 24 1 23 25
M  V30 25 1 23 26
M  V30 26 1 24 27
M  V30 27 1 25 28
M  V30 28 2 27 29
M  V30 29 2 28 30
M  V30 30 1 5 6
M  V30 31 1 11 13
M  V30 32 1 20 21
M  V30 33 2 24 25
M  V30 34 1 29 30
M  V30 END BOND
M  V30 END CTAB
M  END
>  <Molecule Name>
CTX-1020770

>  <SMILES>
CC1=C(OC2=C1C=CC=C2)C(=O)N1CCC2=C(C1)C=C(S2)C(=O)NCC1=CSC=N1

>  <Batch Name>
CTX-1020770-1

>  <Batch Created Date>
2021-12-16

>  <Batch ID>
CTX-1020770-1

>  <External ID>
P841-0351

>  <Stereochemistry>
Achiral

>  <Amount 1>
2.45

>  <Unit 1>
mg

>  <CRO 1>
Pharmaron

>  <CRO 1 Total Amount>
11.65

>  <CRO 1 Unit>
mg

>  <Pharmaron Solubility (PBS, pH 7.4): Aqueous Solubility - Batch Mean (uM)>
2.8527

>  <Pharmaron Solubility (PBS, pH 7.4): Aqueous Solubility - Batch Mean (uM) Standard Deviation (±)>


>  <Pharmaron Solubility (PBS, pH 7.4): Aqueous Solubility - Batch Mean (uM) Count>
1.0

>  <log P>
3.21

>  <log D>
3.21

>  <Pharmaron Caliper Assay (CDK2/CCNE1): Minimum measured (%)>
46.0

>  <Pharmaron Caliper Assay (CDK2/CCNE1): IC50 - Batch Mean (uM)>
28.3

>  <Pharmaron ADPGLO (CDK2/E1-25C): Minimum measured (%)>


>  <Pharmaron ADPGLO (CDK2/E1-25C): IC50 - Batch Mean (uM)>


>  <Pharmaron ADPGLO (CDK2/E1-37C): Minimum measured (%)>


>  <Pharmaron ADPGLO (CDK2/E1-37C): IC50 - Batch Mean (uM)>


>  <IncuCyte Kuramochi RB-WT: IC50 - Batch Mean (uM)>
20.0

>  <IncuCyte Kuramochi RB-KO: IC50 - Batch Mean (uM)>
20.0

>  <DSF (npCDK2/CCNE1): dTm D - Batch Mean [Concentration: 100]>


>  <DSF (npCDK2/CCNE1): dTm D - Batch Mean [Concentration: 20.0]>
1.055

>  <DSF (pCDK2/CCNE1): dTm D - Batch Mean [Concentration: 100]>


>  <DSF (pCDK2/CCNE1): dTm D - Batch Mean [Concentration: 20.0]>


>  <RLM: t1/2 - Batch Mean (Min)>


>  <RLM: Cl int - Batch Mean (uL/min/mg protein)>


>  <RLM: ER (Hepatic extraction ratio) - Batch Mean>


>  <HLM: t1/2 - Batch Mean (Min)>


>  <HLM: Cl int - Batch Mean (uL/min/mg protein)>


>  <HLM: ER (Hepatic extraction ratio) - Batch Mean>


>  <MDCK-WT 4% BSA: Papp (A-B) - Batch Mean (10-6, cm/s)>


>  <MDCK-WT 4% BSA: Papp (B-A) - Batch Mean (10-6, cm/s)>


>  <MDCK-WT 4% BSA: Efflux Ratio - Batch Mean>


>  <MDCK-WT 4% BSA: ~Net A_B - Batch Mean (10-6, cm/s)>


>  <pIC50>
4.548214

>  <Selection_1>
Y

>  <Selection_N>
N

>  <Serie>
Tetrahydrothienopyridine

>  <Selection_T>


>  <Train_Vs_Test>


$$$$
CTX-1020769
OCL MolfileCreator  2D

  0  0  0  0  0  0              0 V3000
M  V30 BEGIN CTAB
M  V30 COUNTS 32 36 0 0 0
M  V30 BEGIN ATOM
M  V30 1 O 5.1961 -0.75 0.0 0
M  V30 2 C 3.8971 0.0 0.0 0
M  V30 3 N 2.598 -0.75 0.0 0
M  V30 4 C 3.8971 1.5 0.0 0
M  V30 5 C 1.299 0.0 0.0 0
M  V30 6 N 5.1961 2.25 0.0 0
M  V30 7 C 2.598 2.25 0.0 0
M  V30 8 C 0.0 -0.75 0.0 0
M  V30 9 C 5.1961 3.75 0.0 0
M  V30 10 C 2.598 3.75 0.0 0
M  V30 11 N -1.3703 -0.1398 0.0 0
M  V30 12 C -0.1567 -2.2417 0.0 0
M  V30 13 C 3.8971 4.5 0.0 0
M  V30 14 C 6.4951 4.5 0.0 0
M  V30 15 C -2.374 -1.2546 0.0 0
M  V30 16 N -1.624 -2.5536 0.0 0
M  V30 17 C 3.8971 6.0 0.0 0
M  V30 18 N 6.4951 6.0 0.0 0
M  V30 19 C -2.2341 -3.9239 0.0 0
M  V30 20 C 5.1961 6.75 0.0 0
M  V30 21 C 7.7942 6.75 0.0 0
M  V30 22 O 9.0932 6.0 0.0 0
M  V30 23 C 7.7942 8.25 0.0 0
M  V30 24 O 9.0077 9.1316 0.0 0
M  V30 25 C 6.5807 9.1316 0.0 0
M  V30 26 C 8.5442 10.5582 0.0 0
M  V30 27 C 7.0442 10.5582 0.0 0
M  V30 28 C 5.1541 8.6681 0.0 0
M  V30 29 C 9.2942 11.8573 0.0 0
M  V30 30 C 6.2942 11.8573 0.0 0
M  V30 31 C 8.5442 13.1563 0.0 0
M  V30 32 C 7.0442 13.1563 0.0 0
M  V30 END ATOM
M  V30 BEGIN BOND
M  V30 1 2 1 2
M  V30 2 1 2 3
M  V30 3 1 2 4
M  V30 4 1 3 5
M  V30 5 2 4 6
M  V30 6 1 4 7
M  V30 7 1 5 8
M  V30 8 1 6 9
M  V30 9 2 7 10
M  V30 10 1 8 11
M  V30 11 2 8 12
M  V30 12 2 9 13
M  V30 13 1 9 14
M  V30 14 2 11 15
M  V30 15 1 12 16
M  V30 16 1 13 17
M  V30 17 1 14 18
M  V30 18 1 16 19
M  V30 19 1 17 20
M  V30 20 1 18 21
M  V30 21 2 21 22
M  V30 22 1 21 23
M  V30 23 1 23 24
M  V30 24 2 23 25
M  V30 25 1 24 26
M  V30 26 1 25 27
M  V30 27 1 25 28
M  V30 28 1 26 29
M  V30 29 1 27 30
M  V30 30 2 29 31
M  V30 31 2 30 32
M  V30 32 1 10 13
M  V30 33 1 15 16
M  V30 34 1 18 20
M  V30 35 2 26 27
M  V30 36 1 31 32
M  V30 END BOND
M  V30 END CTAB
M  END
>  <Molecule Name>
CTX-1020769

>  <SMILES>
CN1C=NC(CNC(=O)C2=NC3=C(CCN(C3)C(=O)C3=C(C)C4=C(O3)C=CC=C4)C=C2)=C1

>  <Batch Name>
CTX-1020769-1

>  <Batch Created Date>
2021-12-16

>  <Batch ID>
CTX-1020769-1

>  <External ID>
P841-0364

>  <Stereochemistry>
Achiral

>  <Amount 1>
5.95

>  <Unit 1>
mg

>  <CRO 1>
Pharmaron

>  <CRO 1 Total Amount>
29.85

>  <CRO 1 Unit>
mg

>  <Pharmaron Solubility (PBS, pH 7.4): Aqueous Solubility - Batch Mean (uM)>
303.4483

>  <Pharmaron Solubility (PBS, pH 7.4): Aqueous Solubility - Batch Mean (uM) Standard Deviation (±)>


>  <Pharmaron Solubility (PBS, pH 7.4): Aqueous Solubility - Batch Mean (uM) Count>
1.0

>  <log P>
1.86

>  <log D>
1.85

>  <Pharmaron Caliper Assay (CDK2/CCNE1): Minimum measured (%)>
83.9

>  <Pharmaron Caliper Assay (CDK2/CCNE1): IC50 - Batch Mean (uM)>
45.1

>  <Pharmaron ADPGLO (CDK2/E1-25C): Minimum measured (%)>


>  <Pharmaron ADPGLO (CDK2/E1-25C): IC50 - Batch Mean (uM)>


>  <Pharmaron ADPGLO (CDK2/E1-37C): Minimum measured (%)>


>  <Pharmaron ADPGLO (CDK2/E1-37C): IC50 - Batch Mean (uM)>


>  <IncuCyte Kuramochi RB-WT: IC50 - Batch Mean (uM)>
20.0

>  <IncuCyte Kuramochi RB-KO: IC50 - Batch Mean (uM)>
20.0

>  <DSF (npCDK2/CCNE1): dTm D - Batch Mean [Concentration: 100]>


>  <DSF (npCDK2/CCNE1): dTm D - Batch Mean [Concentration: 20.0]>
-0.046

>  <DSF (pCDK2/CCNE1): dTm D - Batch Mean [Concentration: 100]>


>  <DSF (pCDK2/CCNE1): dTm D - Batch Mean [Concentration: 20.0]>


>  <RLM: t1/2 - Batch Mean (Min)>


>  <RLM: Cl int - Batch Mean (uL/min/mg protein)>


>  <RLM: ER (Hepatic extraction ratio) - Batch Mean>


>  <HLM: t1/2 - Batch Mean (Min)>


>  <HLM: Cl int - Batch Mean (uL/min/mg protein)>


>  <HLM: ER (Hepatic extraction ratio) - Batch Mean>


>  <MDCK-WT 4% BSA: Papp (A-B) - Batch Mean (10-6, cm/s)>


>  <MDCK-WT 4% BSA: Papp (B-A) - Batch Mean (10-6, cm/s)>


>  <MDCK-WT 4% BSA: Efflux Ratio - Batch Mean>


>  <MDCK-WT 4% BSA: ~Net A_B - Batch Mean (10-6, cm/s)>


>  <pIC50>
4.345823

>  <Selection_1>
Y

>  <Selection_N>


>  <Serie>
Naphthyridine

>  <Selection_T>
N

>  <Train_Vs_Test>


$$$$
CTX-1020767
OCL MolfileCreator  2D

  0  0  0  0  0  0              0 V3000
M  V30 BEGIN CTAB
M  V30 COUNTS 31 35 0 0 0
M  V30 BEGIN ATOM
M  V30 1 O 5.1961 -0.75 0.0 0
M  V30 2 C 3.8971 0.0 0.0 0
M  V30 3 N 2.598 -0.75 0.0 0
M  V30 4 C 3.8971 1.5 0.0 0
M  V30 5 C 1.299 0.0 0.0 0
M  V30 6 N 5.1961 2.25 0.0 0
M  V30 7 C 2.598 2.25 0.0 0
M  V30 8 C 0.0 -0.75 0.0 0
M  V30 9 C 5.1961 3.75 0.0 0
M  V30 10 C 2.598 3.75 0.0 0
M  V30 11 N -1.3703 -0.1398 0.0 0
M  V30 12 C -0.1567 -2.2417 0.0 0
M  V30 13 C 3.8971 4.5 0.0 0
M  V30 14 C 6.4951 4.5 0.0 0
M  V30 15 C -2.374 -1.2546 0.0 0
M  V30 16 N -1.624 -2.5536 0.0 0
M  V30 17 C 3.8971 6.0 0.0 0
M  V30 18 N 6.4951 6.0 0.0 0
M  V30 19 C 5.1961 6.75 0.0 0
M  V30 20 C 7.7942 6.75 0.0 0
M  V30 21 O 9.0932 6.0 0.0 0
M  V30 22 C 7.7942 8.25 0.0 0
M  V30 23 O 9.0077 9.1316 0.0 0
M  V30 24 C 6.5807 9.1316 0.0 0
M  V30 25 C 8.5442 10.5582 0.0 0
M  V30 26 C 7.0442 10.5582 0.0 0
M  V30 27 C 5.1541 8.6681 0.0 0
M  V30 28 C 9.2942 11.8573 0.0 0
M  V30 29 C 6.2942 11.8573 0.0 0
M  V30 30 C 8.5442 13.1563 0.0 0
M  V30 31 C 7.0442 13.1563 0.0 0
M  V30 END ATOM
M  V30 BEGIN BOND
M  V30 1 2 1 2
M  V30 2 1 2 3
M  V30 3 1 2 4
M  V30 4 1 3 5
M  V30 5 2 4 6
M  V30 6 1 4 7
M  V30 7 1 5 8
M  V30 8 1 6 9
M  V30 9 2 7 10
M  V30 10 1 8 11
M  V30 11 2 8 12
M  V30 12 2 9 13
M  V30 13 1 9 14
M  V30 14 2 11 15
M  V30 15 1 12 16
M  V30 16 1 13 17
M  V30 17 1 14 18
M  V30 18 1 17 19
M  V30 19 1 18 20
M  V30 20 2 20 21
M  V30 21 1 20 22
M  V30 22 1 22 23
M  V30 23 2 22 24
M  V30 24 1 23 25
M  V30 25 1 24 26
M  V30 26 1 24 27
M  V30 27 1 25 28
M  V30 28 1 26 29
M  V30 29 2 28 30
M  V30 30 2 29 31
M  V30 31 1 10 13
M  V30 32 1 15 16
M  V30 33 1 18 19
M  V30 34 2 25 26
M  V30 35 1 30 31
M  V30 END BOND
M  V30 END CTAB
M  END
>  <Molecule Name>
CTX-1020767

>  <SMILES>
CC1=C(OC2=C1C=CC=C2)C(=O)N1CCC2=C(C1)N=C(C=C2)C(=O)NCC1=CNC=N1

>  <Batch Name>
CTX-1020767-1

>  <Batch Created Date>
2021-12-16

>  <Batch ID>
CTX-1020767-1

>  <External ID>
P841-0365

>  <Stereochemistry>
Achiral

>  <Amount 1>
3.95

>  <Unit 1>
mg

>  <CRO 1>
Pharmaron

>  <CRO 1 Total Amount>
24.15

>  <CRO 1 Unit>
mg

>  <Pharmaron Solubility (PBS, pH 7.4): Aqueous Solubility - Batch Mean (uM)>
101.3274

>  <Pharmaron Solubility (PBS, pH 7.4): Aqueous Solubility - Batch Mean (uM) Standard Deviation (±)>


>  <Pharmaron Solubility (PBS, pH 7.4): Aqueous Solubility - Batch Mean (uM) Count>
1.0

>  <log P>
1.48

>  <log D>
1.43

>  <Pharmaron Caliper Assay (CDK2/CCNE1): Minimum measured (%)>
66.7

>  <Pharmaron Caliper Assay (CDK2/CCNE1): IC50 - Batch Mean (uM)>
89.0

>  <Pharmaron ADPGLO (CDK2/E1-25C): Minimum measured (%)>


>  <Pharmaron ADPGLO (CDK2/E1-25C): IC50 - Batch Mean (uM)>


>  <Pharmaron ADPGLO (CDK2/E1-37C): Minimum measured (%)>


>  <Pharmaron ADPGLO (CDK2/E1-37C): IC50 - Batch Mean (uM)>


>  <IncuCyte Kuramochi RB-WT: IC50 - Batch Mean (uM)>
20.0

>  <IncuCyte Kuramochi RB-KO: IC50 - Batch Mean (uM)>
20.0

>  <DSF (npCDK2/CCNE1): dTm D - Batch Mean [Concentration: 100]>


>  <DSF (npCDK2/CCNE1): dTm D - Batch Mean [Concentration: 20.0]>
0.054000000000000006

>  <DSF (pCDK2/CCNE1): dTm D - Batch Mean [Concentration: 100]>


>  <DSF (pCDK2/CCNE1): dTm D - Batch Mean [Concentration: 20.0]>


>  <RLM: t1/2 - Batch Mean (Min)>


>  <RLM: Cl int - Batch Mean (uL/min/mg protein)>


>  <RLM: ER (Hepatic extraction ratio) - Batch Mean>


>  <HLM: t1/2 - Batch Mean (Min)>


>  <HLM: Cl int - Batch Mean (uL/min/mg protein)>


>  <HLM: ER (Hepatic extraction ratio) - Batch Mean>


>  <MDCK-WT 4% BSA: Papp (A-B) - Batch Mean (10-6, cm/s)>


>  <MDCK-WT 4% BSA: Papp (B-A) - Batch Mean (10-6, cm/s)>


>  <MDCK-WT 4% BSA: Efflux Ratio - Batch Mean>


>  <MDCK-WT 4% BSA: ~Net A_B - Batch Mean (10-6, cm/s)>


>  <pIC50>
4.05061

>  <Selection_1>
Y

>  <Selection_N>
Y

>  <Serie>
Naphthyridine

>  <Selection_T>
N

>  <Train_Vs_Test>


$$$$
CTX-1020766
OCL MolfileCreator  2D

  0  0  0  0  0  0              0 V3000
M  V30 BEGIN CTAB
M  V30 COUNTS 31 35 0 0 0
M  V30 BEGIN ATOM
M  V30 1 S 4.5467 -1.7024 0.0 0
M  V30 2 C 5.0467 -0.8364 0.0 0
M  V30 3 C 3.5686 -1.4945 0.0 0
M  V30 4 N 4.3776 -0.0932 0.0 0
M  V30 5 C 3.4641 -0.5 0.0 0
M  V30 6 C 2.598 0.0 0.0 0
M  V30 7 N 1.732 -0.5 0.0 0
M  V30 8 C 0.866 0.0 0.0 0
M  V30 9 O 0.866 1.0 0.0 0
M  V30 10 C 0.0 -0.5 0.0 0
M  V30 11 N -0.866 0.0 0.0 0
M  V30 12 C 0.0 -1.4999 0.0 0
M  V30 13 C -1.732 -0.4999 0.0 0
M  V30 14 C -0.866 -1.9999 0.0 0
M  V30 15 C -1.732 -1.4999 0.0 0
M  V30 16 C -2.598 0.0 0.0 0
M  V30 17 C -2.598 -1.9999 0.0 0
M  V30 18 N -3.4641 -0.4999 0.0 0
M  V30 19 C -3.4641 -1.4999 0.0 0
M  V30 20 C -4.3301 0.0 0.0 0
M  V30 21 O -4.3301 1.0 0.0 0
M  V30 22 C -5.1961 -0.4999 0.0 0
M  V30 23 O -6.1096 -0.0932 0.0 0
M  V30 24 C -5.3006 -1.4945 0.0 0
M  V30 25 C -6.7788 -0.8364 0.0 0
M  V30 26 C -6.2788 -1.7024 0.0 0
M  V30 27 C -4.5575 -2.1636 0.0 0
M  V30 28 C -7.7788 -0.8364 0.0 0
M  V30 29 C -6.7788 -2.5684 0.0 0
M  V30 30 C -8.2788 -1.7024 0.0 0
M  V30 31 C -7.7788 -2.5684 0.0 0
M  V30 END ATOM
M  V30 BEGIN BOND
M  V30 1 1 1 2
M  V30 2 1 1 3
M  V30 3 2 2 4
M  V30 4 2 3 5
M  V30 5 1 5 6
M  V30 6 1 6 7
M  V30 7 1 7 8
M  V30 8 2 8 9
M  V30 9 1 8 10
M  V30 10 2 10 11
M  V30 11 1 10 12
M  V30 12 1 11 13
M  V30 13 2 12 14
M  V30 14 2 13 15
M  V30 15 1 13 16
M  V30 16 1 15 17
M  V30 17 1 16 18
M  V30 18 1 17 19
M  V30 19 1 18 20
M  V30 20 2 20 21
M  V30 21 1 20 22
M  V30 22 1 22 23
M  V30 23 2 22 24
M  V30 24 1 23 25
M  V30 25 1 24 26
M  V30 26 1 24 27
M  V30 27 1 25 28
M  V30 28 1 26 29
M  V30 29 2 28 30
M  V30 30 2 29 31
M  V30 31 1 4 5
M  V30 32 1 14 15
M  V30 33 1 18 19
M  V30 34 2 25 26
M  V30 35 1 30 31
M  V30 END BOND
M  V30 END CTAB
M  END
>  <Molecule Name>
CTX-1020766

>  <SMILES>
CC1=C(OC2=C1C=CC=C2)C(=O)N1CCC2=C(C1)N=C(C=C2)C(=O)NCC1=CSC=N1

>  <Batch Name>
CTX-1020766-1

>  <Batch Created Date>
2021-12-16

>  <Batch ID>
CTX-1020766-1

>  <External ID>
P841-0371

>  <Stereochemistry>
Achiral

>  <Amount 1>
0.0

>  <Unit 1>
mg

>  <CRO 1>
Pharmaron

>  <CRO 1 Total Amount>
0.0

>  <CRO 1 Unit>
mg

>  <Pharmaron Solubility (PBS, pH 7.4): Aqueous Solubility - Batch Mean (uM)>


>  <Pharmaron Solubility (PBS, pH 7.4): Aqueous Solubility - Batch Mean (uM) Standard Deviation (±)>


>  <Pharmaron Solubility (PBS, pH 7.4): Aqueous Solubility - Batch Mean (uM) Count>


>  <log P>
2.42

>  <log D>
2.42

>  <Pharmaron Caliper Assay (CDK2/CCNE1): Minimum measured (%)>
67.9

>  <Pharmaron Caliper Assay (CDK2/CCNE1): IC50 - Batch Mean (uM)>
40.0

>  <Pharmaron ADPGLO (CDK2/E1-25C): Minimum measured (%)>


>  <Pharmaron ADPGLO (CDK2/E1-25C): IC50 - Batch Mean (uM)>


>  <Pharmaron ADPGLO (CDK2/E1-37C): Minimum measured (%)>


>  <Pharmaron ADPGLO (CDK2/E1-37C): IC50 - Batch Mean (uM)>


>  <IncuCyte Kuramochi RB-WT: IC50 - Batch Mean (uM)>


>  <IncuCyte Kuramochi RB-KO: IC50 - Batch Mean (uM)>


>  <DSF (npCDK2/CCNE1): dTm D - Batch Mean [Concentration: 100]>


>  <DSF (npCDK2/CCNE1): dTm D - Batch Mean [Concentration: 20.0]>


>  <DSF (pCDK2/CCNE1): dTm D - Batch Mean [Concentration: 100]>


>  <DSF (pCDK2/CCNE1): dTm D - Batch Mean [Concentration: 20.0]>


>  <RLM: t1/2 - Batch Mean (Min)>


>  <RLM: Cl int - Batch Mean (uL/min/mg protein)>


>  <RLM: ER (Hepatic extraction ratio) - Batch Mean>


>  <HLM: t1/2 - Batch Mean (Min)>


>  <HLM: Cl int - Batch Mean (uL/min/mg protein)>


>  <HLM: ER (Hepatic extraction ratio) - Batch Mean>


>  <MDCK-WT 4% BSA: Papp (A-B) - Batch Mean (10-6, cm/s)>


>  <MDCK-WT 4% BSA: Papp (B-A) - Batch Mean (10-6, cm/s)>


>  <MDCK-WT 4% BSA: Efflux Ratio - Batch Mean>


>  <MDCK-WT 4% BSA: ~Net A_B - Batch Mean (10-6, cm/s)>


>  <pIC50>
4.39794

>  <Selection_1>
Y

>  <Selection_N>


>  <Serie>
Naphthyridine

>  <Selection_T>
N

>  <Train_Vs_Test>


$$$$
CTX-1020759
OCL MolfileCreator  2D

  0  0  0  0  0  0              0 V3000
M  V30 BEGIN CTAB
M  V30 COUNTS 41 46 0 0 0
M  V30 BEGIN ATOM
M  V30 1 O 3.4641 -0.5 0.0 0
M  V30 2 C 2.598 0.0 0.0 0
M  V30 3 N 1.732 -0.5 0.0 0
M  V30 4 C 2.598 1.0 0.0 0
M  V30 5 C 0.866 0.0 0.0 0
M  V30 6 N 3.4641 1.5 0.0 0
M  V30 7 C 1.732 1.5 0.0 0
M  V30 8 C 0.0 -0.5 0.0 0
M  V30 9 C 3.4641 2.5 0.0 0
M  V30 10 C 1.732 2.5 0.0 0
M  V30 11 C -0.866 0.0 0.0 0
M  V30 12 C 0.0 -1.4999 0.0 0
M  V30 13 C 2.598 2.9999 0.0 0
M  V30 14 C 4.3301 3.0 0.0 0
M  V30 15 C -1.732 -0.4999 0.0 0
M  V30 16 C -0.866 -1.9999 0.0 0
M  V30 17 C 2.598 4.0 0.0 0
M  V30 18 N 4.3301 4.0 0.0 0
M  V30 19 C -1.732 -1.4999 0.0 0
M  V30 20 C 3.4641 4.5 0.0 0
M  V30 21 C 5.1961 4.5 0.0 0
M  V30 22 N -2.598 -1.9999 0.0 0
M  V30 23 O 6.0621 4.0 0.0 0
M  V30 24 C 5.1961 5.5 0.0 0
M  V30 25 C -3.4641 -1.4999 0.0 0
M  V30 26 C -2.598 -2.9999 0.0 0
M  V30 27 N 6.0051 6.0877 0.0 0
M  V30 28 C 4.3871 6.0877 0.0 0
M  V30 29 C -4.3301 -1.9999 0.0 0
M  V30 30 C -3.4641 -3.4999 0.0 0
M  V30 31 C 5.6961 7.0388 0.0 0
M  V30 32 C 6.9562 5.7787 0.0 0
M  V30 33 C 4.6961 7.0388 0.0 0
M  V30 34 N -4.3301 -2.9999 0.0 0
M  V30 35 C 6.1961 7.9048 0.0 0
M  V30 36 C 7.1641 4.8006 0.0 0
M  V30 37 C 4.1961 7.9048 0.0 0
M  V30 38 C -5.1961 -3.4999 0.0 0
M  V30 39 C 5.6961 8.7708 0.0 0
M  V30 40 O 8.1151 4.4916 0.0 0
M  V30 41 C 4.6961 8.7708 0.0 0
M  V30 END ATOM
M  V30 BEGIN BOND
M  V30 1 2 1 2
M  V30 2 1 2 3
M  V30 3 1 2 4
M  V30 4 1 3 5
M  V30 5 2 4 6
M  V30 6 1 4 7
M  V30 7 1 5 8
M  V30 8 1 6 9
M  V30 9 2 7 10
M  V30 10 2 8 11
M  V30 11 1 8 12
M  V30 12 2 9 13
M  V30 13 1 9 14
M  V30 14 1 11 15
M  V30 15 2 12 16
M  V30 16 1 13 17
M  V30 17 1 14 18
M  V30 18 2 15 19
M  V30 19 1 17 20
M  V30 20 1 18 21
M  V30 21 1 19 22
M  V30 22 2 21 23
M  V30 23 1 21 24
M  V30 24 1 22 25
M  V30 25 1 22 26
M  V30 26 1 24 27
M  V30 27 2 24 28
M  V30 28 1 25 29
M  V30 29 1 26 30
M  V30 30 1 27 31
M  V30 31 1 27 32
M  V30 32 1 28 33
M  V30 33 1 29 34
M  V30 34 1 31 35
M  V30 35 1 32 36
M  V30 36 1 33 37
M  V30 37 1 34 38
M  V30 38 2 35 39
M  V30 39 1 36 40
M  V30 40 2 37 41
M  V30 41 1 10 13
M  V30 42 1 16 19
M  V30 43 1 18 20
M  V30 44 1 30 34
M  V30 45 2 31 33
M  V30 46 1 39 41
M  V30 END BOND
M  V30 END CTAB
M  END
>  <Molecule Name>
CTX-1020759

>  <SMILES>
CN1CCN(CC1)C1=CC=C(CNC(=O)C2=NC3=C(CCN(C3)C(=O)C3=CC4=C(C=CC=C4)N3CCO)C=C2)C=C1

>  <Batch Name>
CTX-1020759-1

>  <Batch Created Date>
2021-12-16

>  <Batch ID>
CTX-1020759-1

>  <External ID>
P841-0381

>  <Stereochemistry>
Achiral

>  <Amount 1>
5.05

>  <Unit 1>
mg

>  <CRO 1>
Pharmaron

>  <CRO 1 Total Amount>
20.45

>  <CRO 1 Unit>
mg

>  <Pharmaron Solubility (PBS, pH 7.4): Aqueous Solubility - Batch Mean (uM)>
308.3799

>  <Pharmaron Solubility (PBS, pH 7.4): Aqueous Solubility - Batch Mean (uM) Standard Deviation (±)>


>  <Pharmaron Solubility (PBS, pH 7.4): Aqueous Solubility - Batch Mean (uM) Count>
1.0

>  <log P>
2.59

>  <log D>
1.96

>  <Pharmaron Caliper Assay (CDK2/CCNE1): Minimum measured (%)>
29.5

>  <Pharmaron Caliper Assay (CDK2/CCNE1): IC50 - Batch Mean (uM)>
44.2

>  <Pharmaron ADPGLO (CDK2/E1-25C): Minimum measured (%)>


>  <Pharmaron ADPGLO (CDK2/E1-25C): IC50 - Batch Mean (uM)>


>  <Pharmaron ADPGLO (CDK2/E1-37C): Minimum measured (%)>


>  <Pharmaron ADPGLO (CDK2/E1-37C): IC50 - Batch Mean (uM)>


>  <IncuCyte Kuramochi RB-WT: IC50 - Batch Mean (uM)>
20.0

>  <IncuCyte Kuramochi RB-KO: IC50 - Batch Mean (uM)>
20.0

>  <DSF (npCDK2/CCNE1): dTm D - Batch Mean [Concentration: 100]>


>  <DSF (npCDK2/CCNE1): dTm D - Batch Mean [Concentration: 20.0]>
0.45399999999999996

>  <DSF (pCDK2/CCNE1): dTm D - Batch Mean [Concentration: 100]>


>  <DSF (pCDK2/CCNE1): dTm D - Batch Mean [Concentration: 20.0]>


>  <RLM: t1/2 - Batch Mean (Min)>


>  <RLM: Cl int - Batch Mean (uL/min/mg protein)>


>  <RLM: ER (Hepatic extraction ratio) - Batch Mean>


>  <HLM: t1/2 - Batch Mean (Min)>


>  <HLM: Cl int - Batch Mean (uL/min/mg protein)>


>  <HLM: ER (Hepatic extraction ratio) - Batch Mean>


>  <MDCK-WT 4% BSA: Papp (A-B) - Batch Mean (10-6, cm/s)>


>  <MDCK-WT 4% BSA: Papp (B-A) - Batch Mean (10-6, cm/s)>


>  <MDCK-WT 4% BSA: Efflux Ratio - Batch Mean>


>  <MDCK-WT 4% BSA: ~Net A_B - Batch Mean (10-6, cm/s)>


>  <pIC50>
4.354578

>  <Selection_1>
Y

>  <Selection_N>


>  <Serie>
Naphthyridine

>  <Selection_T>
N

>  <Train_Vs_Test>


$$$$
CTX-1020755
OCL MolfileCreator  2D

  0  0  0  0  0  0              0 V3000
M  V30 BEGIN CTAB
M  V30 COUNTS 39 44 0 0 0
M  V30 BEGIN ATOM
M  V30 1 O 5.1961 -0.75 0.0 0
M  V30 2 C 3.8971 0.0 0.0 0
M  V30 3 N 2.598 -0.75 0.0 0
M  V30 4 C 3.8971 1.5 0.0 0
M  V30 5 C 1.299 0.0 0.0 0
M  V30 6 N 5.1961 2.25 0.0 0
M  V30 7 C 2.598 2.25 0.0 0
M  V30 8 C 0.0 -0.75 0.0 0
M  V30 9 C 5.1961 3.75 0.0 0
M  V30 10 C 2.598 3.75 0.0 0
M  V30 11 C -1.299 0.0 0.0 0
M  V30 12 C 0.0 -2.2499 0.0 0
M  V30 13 C 3.8971 4.5 0.0 0
M  V30 14 C 6.4951 4.5 0.0 0
M  V30 15 C -2.598 -0.7499 0.0 0
M  V30 16 C -1.299 -2.9999 0.0 0
M  V30 17 C 3.8971 6.0 0.0 0
M  V30 18 N 6.4951 6.0 0.0 0
M  V30 19 C -2.598 -2.2499 0.0 0
M  V30 20 C 5.1961 6.75 0.0 0
M  V30 21 C 7.7942 6.75 0.0 0
M  V30 22 N -3.8971 -2.9999 0.0 0
M  V30 23 O 9.0932 6.0 0.0 0
M  V30 24 C 7.7942 8.25 0.0 0
M  V30 25 C -5.1961 -2.2499 0.0 0
M  V30 26 C -3.8971 -4.4999 0.0 0
M  V30 27 O 9.0077 9.1316 0.0 0
M  V30 28 C 6.5807 9.1316 0.0 0
M  V30 29 C -6.4951 -2.9999 0.0 0
M  V30 30 C -5.1961 -5.2499 0.0 0
M  V30 31 C 8.5442 10.5582 0.0 0
M  V30 32 C 7.0442 10.5582 0.0 0
M  V30 33 C 5.1541 8.6681 0.0 0
M  V30 34 N -6.4951 -4.4999 0.0 0
M  V30 35 C 9.2942 11.8573 0.0 0
M  V30 36 C 6.2942 11.8573 0.0 0
M  V30 37 C -7.7942 -5.2499 0.0 0
M  V30 38 C 8.5442 13.1563 0.0 0
M  V30 39 C 7.0442 13.1563 0.0 0
M  V30 END ATOM
M  V30 BEGIN BOND
M  V30 1 2 1 2
M  V30 2 1 2 3
M  V30 3 1 2 4
M  V30 4 1 3 5
M  V30 5 2 4 6
M  V30 6 1 4 7
M  V30 7 1 5 8
M  V30 8 1 6 9
M  V30 9 2 7 10
M  V30 10 2 8 11
M  V30 11 1 8 12
M  V30 12 2 9 13
M  V30 13 1 9 14
M  V30 14 1 11 15
M  V30 15 2 12 16
M  V30 16 1 13 17
M  V30 17 1 14 18
M  V30 18 2 15 19
M  V30 19 1 17 20
M  V30 20 1 18 21
M  V30 21 1 19 22
M  V30 22 2 21 23
M  V30 23 1 21 24
M  V30 24 1 22 25
M  V30 25 1 22 26
M  V30 26 1 24 27
M  V30 27 2 24 28
M  V30 28 1 25 29
M  V30 29 1 26 30
M  V30 30 1 27 31
M  V30 31 1 28 32
M  V30 32 1 28 33
M  V30 33 1 29 34
M  V30 34 1 31 35
M  V30 35 1 32 36
M  V30 36 1 34 37
M  V30 37 1 35 38
M  V30 38 1 36 39
M  V30 39 1 10 13
M  V30 40 1 16 19
M  V30 41 1 18 20
M  V30 42 1 30 34
M  V30 43 2 31 32
M  V30 44 1 38 39
M  V30 END BOND
M  V30 END CTAB
M  END
>  <Molecule Name>
CTX-1020755

>  <SMILES>
CN1CCN(CC1)C1=CC=C(CNC(=O)C2=NC3=C(CCN(C3)C(=O)C3=C(C)C4=C(CCCC4)O3)C=C2)C=C1

>  <Batch Name>
CTX-1020755-1

>  <Batch Created Date>
2021-12-16

>  <Batch ID>
CTX-1020755-1

>  <External ID>
P841-0382

>  <Stereochemistry>
Achiral

>  <Amount 1>
5.65

>  <Unit 1>
mg

>  <CRO 1>
Pharmaron

>  <CRO 1 Total Amount>
14.2

>  <CRO 1 Unit>
mg

>  <Pharmaron Solubility (PBS, pH 7.4): Aqueous Solubility - Batch Mean (uM)>
11.2077

>  <Pharmaron Solubility (PBS, pH 7.4): Aqueous Solubility - Batch Mean (uM) Standard Deviation (±)>


>  <Pharmaron Solubility (PBS, pH 7.4): Aqueous Solubility - Batch Mean (uM) Count>
1.0

>  <log P>
3.83

>  <log D>
3.2

>  <Pharmaron Caliper Assay (CDK2/CCNE1): Minimum measured (%)>
52.8

>  <Pharmaron Caliper Assay (CDK2/CCNE1): IC50 - Batch Mean (uM)>
10.7

>  <Pharmaron ADPGLO (CDK2/E1-25C): Minimum measured (%)>


>  <Pharmaron ADPGLO (CDK2/E1-25C): IC50 - Batch Mean (uM)>


>  <Pharmaron ADPGLO (CDK2/E1-37C): Minimum measured (%)>


>  <Pharmaron ADPGLO (CDK2/E1-37C): IC50 - Batch Mean (uM)>


>  <IncuCyte Kuramochi RB-WT: IC50 - Batch Mean (uM)>
9.01

>  <IncuCyte Kuramochi RB-KO: IC50 - Batch Mean (uM)>
9.76

>  <DSF (npCDK2/CCNE1): dTm D - Batch Mean [Concentration: 100]>


>  <DSF (npCDK2/CCNE1): dTm D - Batch Mean [Concentration: 20.0]>
0.742

>  <DSF (pCDK2/CCNE1): dTm D - Batch Mean [Concentration: 100]>


>  <DSF (pCDK2/CCNE1): dTm D - Batch Mean [Concentration: 20.0]>


>  <RLM: t1/2 - Batch Mean (Min)>


>  <RLM: Cl int - Batch Mean (uL/min/mg protein)>


>  <RLM: ER (Hepatic extraction ratio) - Batch Mean>


>  <HLM: t1/2 - Batch Mean (Min)>


>  <HLM: Cl int - Batch Mean (uL/min/mg protein)>


>  <HLM: ER (Hepatic extraction ratio) - Batch Mean>


>  <MDCK-WT 4% BSA: Papp (A-B) - Batch Mean (10-6, cm/s)>


>  <MDCK-WT 4% BSA: Papp (B-A) - Batch Mean (10-6, cm/s)>


>  <MDCK-WT 4% BSA: Efflux Ratio - Batch Mean>


>  <MDCK-WT 4% BSA: ~Net A_B - Batch Mean (10-6, cm/s)>


>  <pIC50>
4.970616

>  <Selection_1>
Y

>  <Selection_N>


>  <Serie>
Naphthyridine

>  <Selection_T>
N

>  <Train_Vs_Test>


$$$$
CTX-1020754
OCL MolfileCreator  2D

  0  0  0  0  0  0              0 V3000
M  V30 BEGIN CTAB
M  V30 COUNTS 31 35 0 0 0
M  V30 BEGIN ATOM
M  V30 1 O 5.1961 -0.75 0.0 0
M  V30 2 C 3.8971 0.0 0.0 0
M  V30 3 N 2.598 -0.75 0.0 0
M  V30 4 C 3.8971 1.5 0.0 0
M  V30 5 C 1.299 0.0 0.0 0
M  V30 6 N 5.1961 2.25 0.0 0
M  V30 7 C 2.598 2.25 0.0 0
M  V30 8 C 0.0 -0.75 0.0 0
M  V30 9 C 5.1961 3.75 0.0 0
M  V30 10 C 2.598 3.75 0.0 0
M  V30 11 O -1.3703 -0.1398 0.0 0
M  V30 12 C -0.1567 -2.2417 0.0 0
M  V30 13 C 3.8971 4.5 0.0 0
M  V30 14 C 6.4951 4.5 0.0 0
M  V30 15 C -2.374 -1.2546 0.0 0
M  V30 16 N -1.624 -2.5536 0.0 0
M  V30 17 C 3.8971 6.0 0.0 0
M  V30 18 N 6.4951 6.0 0.0 0
M  V30 19 C 5.1961 6.75 0.0 0
M  V30 20 C 7.7942 6.75 0.0 0
M  V30 21 O 9.0932 6.0 0.0 0
M  V30 22 C 7.7942 8.25 0.0 0
M  V30 23 O 9.0077 9.1316 0.0 0
M  V30 24 C 6.5807 9.1316 0.0 0
M  V30 25 C 8.5442 10.5582 0.0 0
M  V30 26 C 7.0442 10.5582 0.0 0
M  V30 27 C 5.1541 8.6681 0.0 0
M  V30 28 C 9.2942 11.8573 0.0 0
M  V30 29 C 6.2942 11.8573 0.0 0
M  V30 30 C 8.5442 13.1563 0.0 0
M  V30 31 C 7.0442 13.1563 0.0 0
M  V30 END ATOM
M  V30 BEGIN BOND
M  V30 1 2 1 2
M  V30 2 1 2 3
M  V30 3 1 2 4
M  V30 4 1 3 5
M  V30 5 2 4 6
M  V30 6 1 4 7
M  V30 7 1 5 8
M  V30 8 1 6 9
M  V30 9 2 7 10
M  V30 10 1 8 11
M  V30 11 2 8 12
M  V30 12 2 9 13
M  V30 13 1 9 14
M  V30 14 1 11 15
M  V30 15 1 12 16
M  V30 16 1 13 17
M  V30 17 1 14 18
M  V30 18 1 17 19
M  V30 19 1 18 20
M  V30 20 2 20 21
M  V30 21 1 20 22
M  V30 22 1 22 23
M  V30 23 2 22 24
M  V30 24 1 23 25
M  V30 25 1 24 26
M  V30 26 1 24 27
M  V30 27 1 25 28
M  V30 28 1 26 29
M  V30 29 2 28 30
M  V30 30 2 29 31
M  V30 31 1 10 13
M  V30 32 2 15 16
M  V30 33 1 18 19
M  V30 34 2 25 26
M  V30 35 1 30 31
M  V30 END BOND
M  V30 END CTAB
M  END
>  <Molecule Name>
CTX-1020754

>  <SMILES>
CC1=C(OC2=C1C=CC=C2)C(=O)N1CCC2=C(C1)N=C(C=C2)C(=O)NCC1=CN=CO1

>  <Batch Name>
CTX-1020754-1

>  <Batch Created Date>
2021-12-16

>  <Batch ID>
CTX-1020754-1

>  <External ID>
P841-0363

>  <Stereochemistry>
Achiral

>  <Amount 1>
4.45

>  <Unit 1>
mg

>  <CRO 1>
Pharmaron

>  <CRO 1 Total Amount>
21.85

>  <CRO 1 Unit>
mg

>  <Pharmaron Solubility (PBS, pH 7.4): Aqueous Solubility - Batch Mean (uM)>
4.7938

>  <Pharmaron Solubility (PBS, pH 7.4): Aqueous Solubility - Batch Mean (uM) Standard Deviation (±)>


>  <Pharmaron Solubility (PBS, pH 7.4): Aqueous Solubility - Batch Mean (uM) Count>
1.0

>  <log P>
1.54

>  <log D>
1.54

>  <Pharmaron Caliper Assay (CDK2/CCNE1): Minimum measured (%)>
69.5

>  <Pharmaron Caliper Assay (CDK2/CCNE1): IC50 - Batch Mean (uM)>
48.9

>  <Pharmaron ADPGLO (CDK2/E1-25C): Minimum measured (%)>


>  <Pharmaron ADPGLO (CDK2/E1-25C): IC50 - Batch Mean (uM)>


>  <Pharmaron ADPGLO (CDK2/E1-37C): Minimum measured (%)>


>  <Pharmaron ADPGLO (CDK2/E1-37C): IC50 - Batch Mean (uM)>


>  <IncuCyte Kuramochi RB-WT: IC50 - Batch Mean (uM)>
20.0

>  <IncuCyte Kuramochi RB-KO: IC50 - Batch Mean (uM)>
20.0

>  <DSF (npCDK2/CCNE1): dTm D - Batch Mean [Concentration: 100]>


>  <DSF (npCDK2/CCNE1): dTm D - Batch Mean [Concentration: 20.0]>
0.04

>  <DSF (pCDK2/CCNE1): dTm D - Batch Mean [Concentration: 100]>


>  <DSF (pCDK2/CCNE1): dTm D - Batch Mean [Concentration: 20.0]>


>  <RLM: t1/2 - Batch Mean (Min)>


>  <RLM: Cl int - Batch Mean (uL/min/mg protein)>


>  <RLM: ER (Hepatic extraction ratio) - Batch Mean>


>  <HLM: t1/2 - Batch Mean (Min)>


>  <HLM: Cl int - Batch Mean (uL/min/mg protein)>


>  <HLM: ER (Hepatic extraction ratio) - Batch Mean>


>  <MDCK-WT 4% BSA: Papp (A-B) - Batch Mean (10-6, cm/s)>


>  <MDCK-WT 4% BSA: Papp (B-A) - Batch Mean (10-6, cm/s)>


>  <MDCK-WT 4% BSA: Efflux Ratio - Batch Mean>


>  <MDCK-WT 4% BSA: ~Net A_B - Batch Mean (10-6, cm/s)>


>  <pIC50>
4.310691

>  <Selection_1>
Y

>  <Selection_N>


>  <Serie>
Naphthyridine

>  <Selection_T>
N

>  <Train_Vs_Test>


$$$$
CTX-1020753
OCL MolfileCreator  2D

  0  0  0  0  0  0              0 V3000
M  V30 BEGIN CTAB
M  V30 COUNTS 40 45 0 0 0
M  V30 BEGIN ATOM
M  V30 1 Cl 9.7817 0.8848 0.0 0
M  V30 2 C 9.5737 -0.0932 0.0 0
M  V30 3 C 8.6602 -0.5 0.0 0
M  V30 4 C 10.2429 -0.8364 0.0 0
M  V30 5 N 8.7647 -1.4945 0.0 0
M  V30 6 C 7.7942 0.0 0.0 0
M  V30 7 C 9.7429 -1.7024 0.0 0
M  V30 8 C 11.2429 -0.8364 0.0 0
M  V30 9 C 8.0216 -2.1636 0.0 0
M  V30 10 O 7.7942 0.9999 0.0 0
M  V30 11 N 6.9282 -0.5 0.0 0
M  V30 12 C 10.2429 -2.5684 0.0 0
M  V30 13 C 11.7429 -1.7024 0.0 0
M  V30 14 C 6.0621 0.0 0.0 0
M  V30 15 C 6.9282 -1.4999 0.0 0
M  V30 16 C 11.2429 -2.5684 0.0 0
M  V30 17 C 5.1961 -0.5 0.0 0
M  V30 18 C 6.0621 -1.9999 0.0 0
M  V30 19 N 4.3301 0.0 0.0 0
M  V30 20 C 5.1961 -1.4999 0.0 0
M  V30 21 C 3.4641 -0.5 0.0 0
M  V30 22 C 4.3301 -2.0 0.0 0
M  V30 23 C 2.598 0.0 0.0 0
M  V30 24 C 3.4641 -1.4999 0.0 0
M  V30 25 O 2.598 1.0 0.0 0
M  V30 26 N 1.732 -0.5 0.0 0
M  V30 27 C 0.866 0.0 0.0 0
M  V30 28 C 0.0 -0.5 0.0 0
M  V30 29 C -0.866 0.0 0.0 0
M  V30 30 C 0.0 -1.4999 0.0 0
M  V30 31 C -1.732 -0.4999 0.0 0
M  V30 32 C -0.866 -1.9999 0.0 0
M  V30 33 C -1.732 -1.4999 0.0 0
M  V30 34 N -2.598 -1.9999 0.0 0
M  V30 35 C -3.4641 -1.4999 0.0 0
M  V30 36 C -2.598 -2.9999 0.0 0
M  V30 37 C -4.3301 -1.9999 0.0 0
M  V30 38 C -3.4641 -3.4999 0.0 0
M  V30 39 N -4.3301 -2.9999 0.0 0
M  V30 40 C -5.1961 -3.4999 0.0 0
M  V30 END ATOM
M  V30 BEGIN BOND
M  V30 1 1 1 2
M  V30 2 2 2 3
M  V30 3 1 2 4
M  V30 4 1 3 5
M  V30 5 1 3 6
M  V30 6 2 4 7
M  V30 7 1 4 8
M  V30 8 1 5 9
M  V30 9 2 6 10
M  V30 10 1 6 11
M  V30 11 1 7 12
M  V30 12 2 8 13
M  V30 13 1 11 14
M  V30 14 1 11 15
M  V30 15 2 12 16
M  V30 16 1 14 17
M  V30 17 1 15 18
M  V30 18 2 17 19
M  V30 19 1 17 20
M  V30 20 1 19 21
M  V30 21 2 20 22
M  V30 22 1 21 23
M  V30 23 2 21 24
M  V30 24 2 23 25
M  V30 25 1 23 26
M  V30 26 1 26 27
M  V30 27 1 27 28
M  V30 28 2 28 29
M  V30 29 1 28 30
M  V30 30 1 29 31
M  V30 31 2 30 32
M  V30 32 2 31 33
M  V30 33 1 33 34
M  V30 34 1 34 35
M  V30 35 1 34 36
M  V30 36 1 35 37
M  V30 37 1 36 38
M  V30 38 1 37 39
M  V30 39 1 39 40
M  V30 40 1 5 7
M  V30 41 1 13 16
M  V30 42 1 18 20
M  V30 43 1 22 24
M  V30 44 1 32 33
M  V30 45 1 38 39
M  V30 END BOND
M  V30 END CTAB
M  END
>  <Molecule Name>
CTX-1020753

>  <SMILES>
CN1C2=C(C=CC=C2)C(Cl)=C1C(=O)N1CCC2=CC=C(N=C2C1)C(=O)NCC1=CC=C(C=C1)N1CCN(C)CC1

>  <Batch Name>
CTX-1020753-1

>  <Batch Created Date>
2021-12-16

>  <Batch ID>
CTX-1020753-1

>  <External ID>
P841-0369

>  <Stereochemistry>
Achiral

>  <Amount 1>
5.1

>  <Unit 1>
mg

>  <CRO 1>
Pharmaron

>  <CRO 1 Total Amount>
26.75

>  <CRO 1 Unit>
mg

>  <Pharmaron Solubility (PBS, pH 7.4): Aqueous Solubility - Batch Mean (uM)>
8.9921

>  <Pharmaron Solubility (PBS, pH 7.4): Aqueous Solubility - Batch Mean (uM) Standard Deviation (±)>


>  <Pharmaron Solubility (PBS, pH 7.4): Aqueous Solubility - Batch Mean (uM) Count>
1.0

>  <log P>
3.89

>  <log D>
3.25

>  <Pharmaron Caliper Assay (CDK2/CCNE1): Minimum measured (%)>
23.6

>  <Pharmaron Caliper Assay (CDK2/CCNE1): IC50 - Batch Mean (uM)>
3.4

>  <Pharmaron ADPGLO (CDK2/E1-25C): Minimum measured (%)>


>  <Pharmaron ADPGLO (CDK2/E1-25C): IC50 - Batch Mean (uM)>


>  <Pharmaron ADPGLO (CDK2/E1-37C): Minimum measured (%)>


>  <Pharmaron ADPGLO (CDK2/E1-37C): IC50 - Batch Mean (uM)>


>  <IncuCyte Kuramochi RB-WT: IC50 - Batch Mean (uM)>
8.69

>  <IncuCyte Kuramochi RB-KO: IC50 - Batch Mean (uM)>
8.63

>  <DSF (npCDK2/CCNE1): dTm D - Batch Mean [Concentration: 100]>


>  <DSF (npCDK2/CCNE1): dTm D - Batch Mean [Concentration: 20.0]>
1.31

>  <DSF (pCDK2/CCNE1): dTm D - Batch Mean [Concentration: 100]>


>  <DSF (pCDK2/CCNE1): dTm D - Batch Mean [Concentration: 20.0]>


>  <RLM: t1/2 - Batch Mean (Min)>


>  <RLM: Cl int - Batch Mean (uL/min/mg protein)>


>  <RLM: ER (Hepatic extraction ratio) - Batch Mean>


>  <HLM: t1/2 - Batch Mean (Min)>


>  <HLM: Cl int - Batch Mean (uL/min/mg protein)>


>  <HLM: ER (Hepatic extraction ratio) - Batch Mean>


>  <MDCK-WT 4% BSA: Papp (A-B) - Batch Mean (10-6, cm/s)>


>  <MDCK-WT 4% BSA: Papp (B-A) - Batch Mean (10-6, cm/s)>


>  <MDCK-WT 4% BSA: Efflux Ratio - Batch Mean>


>  <MDCK-WT 4% BSA: ~Net A_B - Batch Mean (10-6, cm/s)>


>  <pIC50>
5.468521

>  <Selection_1>
Y

>  <Selection_N>


>  <Serie>
Naphthyridine

>  <Selection_T>
N

>  <Train_Vs_Test>


$$$$
CTX-1020752
OCL MolfileCreator  2D

  0  0  0  0  0  0              0 V3000
M  V30 BEGIN CTAB
M  V30 COUNTS 40 45 0 0 0
M  V30 BEGIN ATOM
M  V30 1 O 5.1961 -0.75 0.0 0
M  V30 2 C 3.8971 0.0 0.0 0
M  V30 3 N 2.598 -0.75 0.0 0
M  V30 4 C 3.8971 1.5 0.0 0
M  V30 5 C 1.299 0.0 0.0 0
M  V30 6 N 5.1961 2.25 0.0 0
M  V30 7 C 2.598 2.25 0.0 0
M  V30 8 C 0.0 -0.75 0.0 0
M  V30 9 C 5.1961 3.75 0.0 0
M  V30 10 C 2.598 3.75 0.0 0
M  V30 11 C -1.299 0.0 0.0 0
M  V30 12 C 0.0 -2.2499 0.0 0
M  V30 13 C 3.8971 4.5 0.0 0
M  V30 14 C 6.4951 4.5 0.0 0
M  V30 15 C -2.598 -0.7499 0.0 0
M  V30 16 C -1.299 -2.9999 0.0 0
M  V30 17 C 3.8971 6.0 0.0 0
M  V30 18 N 6.4951 6.0 0.0 0
M  V30 19 C -2.598 -2.2499 0.0 0
M  V30 20 C 5.1961 6.75 0.0 0
M  V30 21 C 7.7942 6.75 0.0 0
M  V30 22 N -3.8971 -2.9999 0.0 0
M  V30 23 O 9.0932 6.0 0.0 0
M  V30 24 C 7.7942 8.25 0.0 0
M  V30 25 C -5.1961 -2.2499 0.0 0
M  V30 26 C -3.8971 -4.4999 0.0 0
M  V30 27 N 9.0077 9.1316 0.0 0
M  V30 28 C 6.5807 9.1316 0.0 0
M  V30 29 C -6.4951 -2.9999 0.0 0
M  V30 30 C -5.1961 -5.2499 0.0 0
M  V30 31 C 8.5442 10.5582 0.0 0
M  V30 32 C 10.4343 8.6681 0.0 0
M  V30 33 C 7.0442 10.5582 0.0 0
M  V30 34 C 5.1541 8.6681 0.0 0
M  V30 35 N -6.4951 -4.4999 0.0 0
M  V30 36 C 9.2942 11.8573 0.0 0
M  V30 37 C 6.2942 11.8573 0.0 0
M  V30 38 C -7.7942 -5.2499 0.0 0
M  V30 39 C 8.5442 13.1563 0.0 0
M  V30 40 C 7.0442 13.1563 0.0 0
M  V30 END ATOM
M  V30 BEGIN BOND
M  V30 1 2 1 2
M  V30 2 1 2 3
M  V30 3 1 2 4
M  V30 4 1 3 5
M  V30 5 2 4 6
M  V30 6 1 4 7
M  V30 7 1 5 8
M  V30 8 1 6 9
M  V30 9 2 7 10
M  V30 10 2 8 11
M  V30 11 1 8 12
M  V30 12 2 9 13
M  V30 13 1 9 14
M  V30 14 1 11 15
M  V30 15 2 12 16
M  V30 16 1 13 17
M  V30 17 1 14 18
M  V30 18 2 15 19
M  V30 19 1 17 20
M  V30 20 1 18 21
M  V30 21 1 19 22
M  V30 22 2 21 23
M  V30 23 1 21 24
M  V30 24 1 22 25
M  V30 25 1 22 26
M  V30 26 1 24 27
M  V30 27 2 24 28
M  V30 28 1 25 29
M  V30 29 1 26 30
M  V30 30 1 27 31
M  V30 31 1 27 32
M  V30 32 1 28 33
M  V30 33 1 28 34
M  V30 34 1 29 35
M  V30 35 1 31 36
M  V30 36 1 33 37
M  V30 37 1 35 38
M  V30 38 2 36 39
M  V30 39 2 37 40
M  V30 40 1 10 13
M  V30 41 1 16 19
M  V30 42 1 18 20
M  V30 43 1 30 35
M  V30 44 2 31 33
M  V30 45 1 39 40
M  V30 END BOND
M  V30 END CTAB
M  END
>  <Molecule Name>
CTX-1020752

>  <SMILES>
CN1C2=C(C=CC=C2)C(C)=C1C(=O)N1CCC2=C(C1)N=C(C=C2)C(=O)NCC1=CC=C(C=C1)N1CCN(C)CC1

>  <Batch Name>
CTX-1020752-1

>  <Batch Created Date>
2021-12-16

>  <Batch ID>
CTX-1020752-1

>  <External ID>
P841-0368

>  <Stereochemistry>
Achiral

>  <Amount 1>
4.6

>  <Unit 1>
mg

>  <CRO 1>
Pharmaron

>  <CRO 1 Total Amount>
25.65

>  <CRO 1 Unit>
mg

>  <Pharmaron Solubility (PBS, pH 7.4): Aqueous Solubility - Batch Mean (uM)>
181.5126

>  <Pharmaron Solubility (PBS, pH 7.4): Aqueous Solubility - Batch Mean (uM) Standard Deviation (±)>


>  <Pharmaron Solubility (PBS, pH 7.4): Aqueous Solubility - Batch Mean (uM) Count>
1.0

>  <log P>
3.8

>  <log D>
3.16

>  <Pharmaron Caliper Assay (CDK2/CCNE1): Minimum measured (%)>
43.0

>  <Pharmaron Caliper Assay (CDK2/CCNE1): IC50 - Batch Mean (uM)>
87.0

>  <Pharmaron ADPGLO (CDK2/E1-25C): Minimum measured (%)>


>  <Pharmaron ADPGLO (CDK2/E1-25C): IC50 - Batch Mean (uM)>


>  <Pharmaron ADPGLO (CDK2/E1-37C): Minimum measured (%)>


>  <Pharmaron ADPGLO (CDK2/E1-37C): IC50 - Batch Mean (uM)>


>  <IncuCyte Kuramochi RB-WT: IC50 - Batch Mean (uM)>
11.1

>  <IncuCyte Kuramochi RB-KO: IC50 - Batch Mean (uM)>
9.67

>  <DSF (npCDK2/CCNE1): dTm D - Batch Mean [Concentration: 100]>


>  <DSF (npCDK2/CCNE1): dTm D - Batch Mean [Concentration: 20.0]>
0.408

>  <DSF (pCDK2/CCNE1): dTm D - Batch Mean [Concentration: 100]>


>  <DSF (pCDK2/CCNE1): dTm D - Batch Mean [Concentration: 20.0]>


>  <RLM: t1/2 - Batch Mean (Min)>


>  <RLM: Cl int - Batch Mean (uL/min/mg protein)>


>  <RLM: ER (Hepatic extraction ratio) - Batch Mean>


>  <HLM: t1/2 - Batch Mean (Min)>


>  <HLM: Cl int - Batch Mean (uL/min/mg protein)>


>  <HLM: ER (Hepatic extraction ratio) - Batch Mean>


>  <MDCK-WT 4% BSA: Papp (A-B) - Batch Mean (10-6, cm/s)>


>  <MDCK-WT 4% BSA: Papp (B-A) - Batch Mean (10-6, cm/s)>


>  <MDCK-WT 4% BSA: Efflux Ratio - Batch Mean>


>  <MDCK-WT 4% BSA: ~Net A_B - Batch Mean (10-6, cm/s)>


>  <pIC50>
4.060481

>  <Selection_1>
Y

>  <Selection_N>
Y

>  <Serie>
Naphthyridine

>  <Selection_T>
N

>  <Train_Vs_Test>


$$$$
CTX-1020751
OCL MolfileCreator  2D

  0  0  0  0  0  0              0 V3000
M  V30 BEGIN CTAB
M  V30 COUNTS 36 40 0 0 0
M  V30 BEGIN ATOM
M  V30 1 F 6.5621 -1.1339 0.0 0
M  V30 2 C 6.0621 -1.9999 0.0 0
M  V30 3 F 6.9282 -2.5 0.0 0
M  V30 4 F 5.5621 -2.866 0.0 0
M  V30 5 C 5.1961 -1.4999 0.0 0
M  V30 6 C 5.1961 -0.5 0.0 0
M  V30 7 C 4.3301 -1.9999 0.0 0
M  V30 8 C 4.3301 0.0 0.0 0
M  V30 9 C 3.4641 -1.5 0.0 0
M  V30 10 C 3.4641 -0.5 0.0 0
M  V30 11 C 2.598 0.0 0.0 0
M  V30 12 N 1.732 -0.5 0.0 0
M  V30 13 C 0.866 0.0 0.0 0
M  V30 14 O 0.866 1.0 0.0 0
M  V30 15 C 0.0 -0.5 0.0 0
M  V30 16 N -0.866 0.0 0.0 0
M  V30 17 C 0.0 -1.4999 0.0 0
M  V30 18 C -1.732 -0.4999 0.0 0
M  V30 19 C -0.866 -1.9999 0.0 0
M  V30 20 C -1.732 -1.4999 0.0 0
M  V30 21 C -2.598 0.0 0.0 0
M  V30 22 C -2.598 -1.9999 0.0 0
M  V30 23 N -3.4641 -0.4999 0.0 0
M  V30 24 C -3.4641 -1.4999 0.0 0
M  V30 25 C -4.3301 0.0 0.0 0
M  V30 26 O -4.3301 1.0 0.0 0
M  V30 27 C -5.1961 -0.4999 0.0 0
M  V30 28 O -6.1096 -0.0932 0.0 0
M  V30 29 C -5.3006 -1.4945 0.0 0
M  V30 30 C -6.7788 -0.8364 0.0 0
M  V30 31 C -6.2788 -1.7024 0.0 0
M  V30 32 C -4.5575 -2.1636 0.0 0
M  V30 33 C -7.7788 -0.8364 0.0 0
M  V30 34 C -6.7788 -2.5684 0.0 0
M  V30 35 C -8.2788 -1.7024 0.0 0
M  V30 36 C -7.7788 -2.5684 0.0 0
M  V30 END ATOM
M  V30 BEGIN BOND
M  V30 1 1 1 2
M  V30 2 1 2 3
M  V30 3 1 2 4
M  V30 4 1 2 5
M  V30 5 2 5 6
M  V30 6 1 5 7
M  V30 7 1 6 8
M  V30 8 2 7 9
M  V30 9 2 8 10
M  V30 10 1 10 11
M  V30 11 1 11 12
M  V30 12 1 12 13
M  V30 13 2 13 14
M  V30 14 1 13 15
M  V30 15 2 15 16
M  V30 16 1 15 17
M  V30 17 1 16 18
M  V30 18 2 17 19
M  V30 19 2 18 20
M  V30 20 1 18 21
M  V30 21 1 20 22
M  V30 22 1 21 23
M  V30 23 1 22 24
M  V30 24 1 23 25
M  V30 25 2 25 26
M  V30 26 1 25 27
M  V30 27 1 27 28
M  V30 28 2 27 29
M  V30 29 1 28 30
M  V30 30 1 29 31
M  V30 31 1 29 32
M  V30 32 1 30 33
M  V30 33 1 31 34
M  V30 34 2 33 35
M  V30 35 2 34 36
M  V30 36 1 9 10
M  V30 37 1 19 20
M  V30 38 1 23 24
M  V30 39 2 30 31
M  V30 40 1 35 36
M  V30 END BOND
M  V30 END CTAB
M  END
>  <Molecule Name>
CTX-1020751

>  <SMILES>
CC1=C(OC2=C1C=CC=C2)C(=O)N1CCC2=C(C1)N=C(C=C2)C(=O)NCC1=CC=C(C=C1)C(F)(F)F

>  <Batch Name>
CTX-1020751-1

>  <Batch Created Date>
2021-12-16

>  <Batch ID>
CTX-1020751-1

>  <External ID>
P841-0366

>  <Stereochemistry>
Achiral

>  <Amount 1>
4.55

>  <Unit 1>
mg

>  <CRO 1>
Pharmaron

>  <CRO 1 Total Amount>
21.6

>  <CRO 1 Unit>
mg

>  <Pharmaron Solubility (PBS, pH 7.4): Aqueous Solubility - Batch Mean (uM)>
0.0001

>  <Pharmaron Solubility (PBS, pH 7.4): Aqueous Solubility - Batch Mean (uM) Standard Deviation (±)>


>  <Pharmaron Solubility (PBS, pH 7.4): Aqueous Solubility - Batch Mean (uM) Count>
1.0

>  <log P>
4.55

>  <log D>
4.55

>  <Pharmaron Caliper Assay (CDK2/CCNE1): Minimum measured (%)>
84.9

>  <Pharmaron Caliper Assay (CDK2/CCNE1): IC50 - Batch Mean (uM)>
90.4

>  <Pharmaron ADPGLO (CDK2/E1-25C): Minimum measured (%)>


>  <Pharmaron ADPGLO (CDK2/E1-25C): IC50 - Batch Mean (uM)>


>  <Pharmaron ADPGLO (CDK2/E1-37C): Minimum measured (%)>


>  <Pharmaron ADPGLO (CDK2/E1-37C): IC50 - Batch Mean (uM)>


>  <IncuCyte Kuramochi RB-WT: IC50 - Batch Mean (uM)>
20.0

>  <IncuCyte Kuramochi RB-KO: IC50 - Batch Mean (uM)>
20.0

>  <DSF (npCDK2/CCNE1): dTm D - Batch Mean [Concentration: 100]>


>  <DSF (npCDK2/CCNE1): dTm D - Batch Mean [Concentration: 20.0]>
0.24

>  <DSF (pCDK2/CCNE1): dTm D - Batch Mean [Concentration: 100]>


>  <DSF (pCDK2/CCNE1): dTm D - Batch Mean [Concentration: 20.0]>


>  <RLM: t1/2 - Batch Mean (Min)>


>  <RLM: Cl int - Batch Mean (uL/min/mg protein)>


>  <RLM: ER (Hepatic extraction ratio) - Batch Mean>


>  <HLM: t1/2 - Batch Mean (Min)>


>  <HLM: Cl int - Batch Mean (uL/min/mg protein)>


>  <HLM: ER (Hepatic extraction ratio) - Batch Mean>


>  <MDCK-WT 4% BSA: Papp (A-B) - Batch Mean (10-6, cm/s)>


>  <MDCK-WT 4% BSA: Papp (B-A) - Batch Mean (10-6, cm/s)>


>  <MDCK-WT 4% BSA: Efflux Ratio - Batch Mean>


>  <MDCK-WT 4% BSA: ~Net A_B - Batch Mean (10-6, cm/s)>


>  <pIC50>
4.043832

>  <Selection_1>
Y

>  <Selection_N>
Y

>  <Serie>
Naphthyridine

>  <Selection_T>
N

>  <Train_Vs_Test>


$$$$
CTX-1020750
OCL MolfileCreator  2D

  0  0  0  0  0  0              0 V3000
M  V30 BEGIN CTAB
M  V30 COUNTS 34 38 0 0 0
M  V30 BEGIN ATOM
M  V30 1 O 5.1961 -0.75 0.0 0
M  V30 2 C 3.8971 0.0 0.0 0
M  V30 3 N 2.598 -0.75 0.0 0
M  V30 4 C 3.8971 1.5 0.0 0
M  V30 5 C 1.299 0.0 0.0 0
M  V30 6 N 5.1961 2.25 0.0 0
M  V30 7 C 2.598 2.25 0.0 0
M  V30 8 C 0.0 -0.75 0.0 0
M  V30 9 C 5.1961 3.75 0.0 0
M  V30 10 C 2.598 3.75 0.0 0
M  V30 11 C -1.299 0.0 0.0 0
M  V30 12 C 0.0 -2.25 0.0 0
M  V30 13 C 3.8971 4.5 0.0 0
M  V30 14 C 6.4951 4.5 0.0 0
M  V30 15 C -2.598 -0.7499 0.0 0
M  V30 16 C -1.299 -2.9999 0.0 0
M  V30 17 C 3.8971 6.0 0.0 0
M  V30 18 N 6.4951 6.0 0.0 0
M  V30 19 C -2.598 -2.2499 0.0 0
M  V30 20 C 5.1961 6.75 0.0 0
M  V30 21 C 7.7942 6.75 0.0 0
M  V30 22 O -3.8971 -2.9999 0.0 0
M  V30 23 O 9.0932 6.0 0.0 0
M  V30 24 C 7.7942 8.25 0.0 0
M  V30 25 C -3.8971 -4.4999 0.0 0
M  V30 26 O 9.0077 9.1316 0.0 0
M  V30 27 C 6.5807 9.1316 0.0 0
M  V30 28 C 8.5442 10.5582 0.0 0
M  V30 29 C 7.0442 10.5582 0.0 0
M  V30 30 C 5.1541 8.6681 0.0 0
M  V30 31 C 9.2942 11.8573 0.0 0
M  V30 32 C 6.2942 11.8573 0.0 0
M  V30 33 C 8.5442 13.1563 0.0 0
M  V30 34 C 7.0442 13.1563 0.0 0
M  V30 END ATOM
M  V30 BEGIN BOND
M  V30 1 2 1 2
M  V30 2 1 2 3
M  V30 3 1 2 4
M  V30 4 1 3 5
M  V30 5 2 4 6
M  V30 6 1 4 7
M  V30 7 1 5 8
M  V30 8 1 6 9
M  V30 9 2 7 10
M  V30 10 2 8 11
M  V30 11 1 8 12
M  V30 12 2 9 13
M  V30 13 1 9 14
M  V30 14 1 11 15
M  V30 15 2 12 16
M  V30 16 1 13 17
M  V30 17 1 14 18
M  V30 18 2 15 19
M  V30 19 1 17 20
M  V30 20 1 18 21
M  V30 21 1 19 22
M  V30 22 2 21 23
M  V30 23 1 21 24
M  V30 24 1 22 25
M  V30 25 1 24 26
M  V30 26 2 24 27
M  V30 27 1 26 28
M  V30 28 1 27 29
M  V30 29 1 27 30
M  V30 30 1 28 31
M  V30 31 1 29 32
M  V30 32 2 31 33
M  V30 33 2 32 34
M  V30 34 1 10 13
M  V30 35 1 16 19
M  V30 36 1 18 20
M  V30 37 2 28 29
M  V30 38 1 33 34
M  V30 END BOND
M  V30 END CTAB
M  END
>  <Molecule Name>
CTX-1020750

>  <SMILES>
COC1=CC=C(CNC(=O)C2=NC3=C(CCN(C3)C(=O)C3=C(C)C4=C(O3)C=CC=C4)C=C2)C=C1

>  <Batch Name>
CTX-1020750-1

>  <Batch Created Date>
2021-12-16

>  <Batch ID>
CTX-1020750-1

>  <External ID>
P841-0367

>  <Stereochemistry>
Achiral

>  <Amount 1>
5.0

>  <Unit 1>
mg

>  <CRO 1>
Pharmaron

>  <CRO 1 Total Amount>
13.85

>  <CRO 1 Unit>
mg

>  <Pharmaron Solubility (PBS, pH 7.4): Aqueous Solubility - Batch Mean (uM)>
0.0005

>  <Pharmaron Solubility (PBS, pH 7.4): Aqueous Solubility - Batch Mean (uM) Standard Deviation (±)>


>  <Pharmaron Solubility (PBS, pH 7.4): Aqueous Solubility - Batch Mean (uM) Count>
1.0

>  <log P>
3.52

>  <log D>
3.52

>  <Pharmaron Caliper Assay (CDK2/CCNE1): Minimum measured (%)>
66.2

>  <Pharmaron Caliper Assay (CDK2/CCNE1): IC50 - Batch Mean (uM)>
0.765

>  <Pharmaron ADPGLO (CDK2/E1-25C): Minimum measured (%)>


>  <Pharmaron ADPGLO (CDK2/E1-25C): IC50 - Batch Mean (uM)>


>  <Pharmaron ADPGLO (CDK2/E1-37C): Minimum measured (%)>


>  <Pharmaron ADPGLO (CDK2/E1-37C): IC50 - Batch Mean (uM)>


>  <IncuCyte Kuramochi RB-WT: IC50 - Batch Mean (uM)>
20.0

>  <IncuCyte Kuramochi RB-KO: IC50 - Batch Mean (uM)>
20.0

>  <DSF (npCDK2/CCNE1): dTm D - Batch Mean [Concentration: 100]>


>  <DSF (npCDK2/CCNE1): dTm D - Batch Mean [Concentration: 20.0]>
1.21

>  <DSF (pCDK2/CCNE1): dTm D - Batch Mean [Concentration: 100]>


>  <DSF (pCDK2/CCNE1): dTm D - Batch Mean [Concentration: 20.0]>


>  <RLM: t1/2 - Batch Mean (Min)>


>  <RLM: Cl int - Batch Mean (uL/min/mg protein)>


>  <RLM: ER (Hepatic extraction ratio) - Batch Mean>


>  <HLM: t1/2 - Batch Mean (Min)>


>  <HLM: Cl int - Batch Mean (uL/min/mg protein)>


>  <HLM: ER (Hepatic extraction ratio) - Batch Mean>


>  <MDCK-WT 4% BSA: Papp (A-B) - Batch Mean (10-6, cm/s)>


>  <MDCK-WT 4% BSA: Papp (B-A) - Batch Mean (10-6, cm/s)>


>  <MDCK-WT 4% BSA: Efflux Ratio - Batch Mean>


>  <MDCK-WT 4% BSA: ~Net A_B - Batch Mean (10-6, cm/s)>


>  <pIC50>
6.116339

>  <Selection_1>
Y

>  <Selection_N>


>  <Serie>
Naphthyridine

>  <Selection_T>
N

>  <Train_Vs_Test>


$$$$
CTX-1020749
OCL MolfileCreator  2D

  0  0  0  0  0  0              0 V3000
M  V30 BEGIN CTAB
M  V30 COUNTS 38 43 0 0 0
M  V30 BEGIN ATOM
M  V30 1 Cl 11.1474 -8.1329 0.0 0
M  V30 2 C 9.6802 -7.821 0.0 0
M  V30 3 C 9.0701 -6.4507 0.0 0
M  V30 4 C 8.5655 -8.8247 0.0 0
M  V30 5 O 7.5783 -6.6075 0.0 0
M  V30 6 C 9.8201 -5.1517 0.0 0
M  V30 7 C 7.2665 -8.0747 0.0 0
M  V30 8 C 8.5655 -10.3247 0.0 0
M  V30 9 O 11.3201 -5.1517 0.0 0
M  V30 10 N 9.0701 -3.8526 0.0 0
M  V30 11 C 5.9674 -8.8247 0.0 0
M  V30 12 C 7.2665 -11.0747 0.0 0
M  V30 13 C 7.5701 -3.8526 0.0 0
M  V30 14 C 9.8201 -2.5536 0.0 0
M  V30 15 C 5.9674 -10.3247 0.0 0
M  V30 16 C 6.8201 -2.5536 0.0 0
M  V30 17 C 9.0701 -1.2546 0.0 0
M  V30 18 C 7.5701 -1.2546 0.0 0
M  V30 19 C 5.3529 -2.2417 0.0 0
M  V30 20 S 6.5664 -0.1398 0.0 0
M  V30 21 C 5.1961 -0.75 0.0 0
M  V30 22 C 3.8971 0.0 0.0 0
M  V30 23 O 3.8971 1.5 0.0 0
M  V30 24 N 2.598 -0.75 0.0 0
M  V30 25 C 1.299 0.0 0.0 0
M  V30 26 C 0.0 -0.75 0.0 0
M  V30 27 C -1.299 0.0 0.0 0
M  V30 28 C 0.0 -2.2499 0.0 0
M  V30 29 C -2.598 -0.7499 0.0 0
M  V30 30 C -1.299 -2.9999 0.0 0
M  V30 31 C -2.598 -2.2499 0.0 0
M  V30 32 N -3.8971 -2.9999 0.0 0
M  V30 33 C -5.1961 -2.2499 0.0 0
M  V30 34 C -3.8971 -4.4999 0.0 0
M  V30 35 C -6.4951 -2.9999 0.0 0
M  V30 36 C -5.1961 -5.2499 0.0 0
M  V30 37 N -6.4951 -4.4999 0.0 0
M  V30 38 C -7.7942 -5.2499 0.0 0
M  V30 END ATOM
M  V30 BEGIN BOND
M  V30 1 1 1 2
M  V30 2 2 2 3
M  V30 3 1 2 4
M  V30 4 1 3 5
M  V30 5 1 3 6
M  V30 6 2 4 7
M  V30 7 1 4 8
M  V30 8 2 6 9
M  V30 9 1 6 10
M  V30 10 1 7 11
M  V30 11 2 8 12
M  V30 12 1 10 13
M  V30 13 1 10 14
M  V30 14 2 11 15
M  V30 15 1 13 16
M  V30 16 1 14 17
M  V30 17 2 16 18
M  V30 18 1 16 19
M  V30 19 1 18 20
M  V30 20 2 19 21
M  V30 21 1 21 22
M  V30 22 2 22 23
M  V30 23 1 22 24
M  V30 24 1 24 25
M  V30 25 1 25 26
M  V30 26 2 26 27
M  V30 27 1 26 28
M  V30 28 1 27 29
M  V30 29 2 28 30
M  V30 30 2 29 31
M  V30 31 1 31 32
M  V30 32 1 32 33
M  V30 33 1 32 34
M  V30 34 1 33 35
M  V30 35 1 34 36
M  V30 36 1 35 37
M  V30 37 1 37 38
M  V30 38 1 5 7
M  V30 39 1 12 15
M  V30 40 1 17 18
M  V30 41 1 20 21
M  V30 42 1 30 31
M  V30 43 1 36 37
M  V30 END BOND
M  V30 END CTAB
M  END
>  <Molecule Name>
CTX-1020749

>  <SMILES>
CN1CCN(CC1)C1=CC=C(CNC(=O)C2=CC3=C(CCN(C3)C(=O)C3=C(Cl)C4=C(O3)C=CC=C4)S2)C=C1

>  <Batch Name>
CTX-1020749-1

>  <Batch Created Date>
2021-12-16

>  <Batch ID>
CTX-1020749-1

>  <External ID>
P841-0370

>  <Stereochemistry>
Achiral

>  <Amount 1>
3.15

>  <Unit 1>
mg

>  <CRO 1>
Pharmaron

>  <CRO 1 Total Amount>
0.0

>  <CRO 1 Unit>
mg

>  <Pharmaron Solubility (PBS, pH 7.4): Aqueous Solubility - Batch Mean (uM)>


>  <Pharmaron Solubility (PBS, pH 7.4): Aqueous Solubility - Batch Mean (uM) Standard Deviation (±)>


>  <Pharmaron Solubility (PBS, pH 7.4): Aqueous Solubility - Batch Mean (uM) Count>


>  <log P>
4.52

>  <log D>
3.89

>  <Pharmaron Caliper Assay (CDK2/CCNE1): Minimum measured (%)>
22.5

>  <Pharmaron Caliper Assay (CDK2/CCNE1): IC50 - Batch Mean (uM)>
1.63

>  <Pharmaron ADPGLO (CDK2/E1-25C): Minimum measured (%)>


>  <Pharmaron ADPGLO (CDK2/E1-25C): IC50 - Batch Mean (uM)>


>  <Pharmaron ADPGLO (CDK2/E1-37C): Minimum measured (%)>


>  <Pharmaron ADPGLO (CDK2/E1-37C): IC50 - Batch Mean (uM)>


>  <IncuCyte Kuramochi RB-WT: IC50 - Batch Mean (uM)>
9.17

>  <IncuCyte Kuramochi RB-KO: IC50 - Batch Mean (uM)>
7.17

>  <DSF (npCDK2/CCNE1): dTm D - Batch Mean [Concentration: 100]>


>  <DSF (npCDK2/CCNE1): dTm D - Batch Mean [Concentration: 20.0]>
2.9139999999999997

>  <DSF (pCDK2/CCNE1): dTm D - Batch Mean [Concentration: 100]>


>  <DSF (pCDK2/CCNE1): dTm D - Batch Mean [Concentration: 20.0]>
1.286

>  <RLM: t1/2 - Batch Mean (Min)>


>  <RLM: Cl int - Batch Mean (uL/min/mg protein)>


>  <RLM: ER (Hepatic extraction ratio) - Batch Mean>


>  <HLM: t1/2 - Batch Mean (Min)>


>  <HLM: Cl int - Batch Mean (uL/min/mg protein)>


>  <HLM: ER (Hepatic extraction ratio) - Batch Mean>


>  <MDCK-WT 4% BSA: Papp (A-B) - Batch Mean (10-6, cm/s)>


>  <MDCK-WT 4% BSA: Papp (B-A) - Batch Mean (10-6, cm/s)>


>  <MDCK-WT 4% BSA: Efflux Ratio - Batch Mean>


>  <MDCK-WT 4% BSA: ~Net A_B - Batch Mean (10-6, cm/s)>


>  <pIC50>
5.787812

>  <Selection_1>
Y

>  <Selection_N>
N

>  <Serie>
Tetrahydrothienopyridine

>  <Selection_T>


>  <Train_Vs_Test>


$$$$
CTX-1020748
OCL MolfileCreator  2D

  0  0  0  0  0  0              0 V3000
M  V30 BEGIN CTAB
M  V30 COUNTS 39 44 0 0 0
M  V30 BEGIN ATOM
M  V30 1 Cl 7.4316 -5.4219 0.0 0
M  V30 2 C 6.4535 -5.214 0.0 0
M  V30 3 C 6.0467 -4.3005 0.0 0
M  V30 4 C 5.7103 -5.8831 0.0 0
M  V30 5 N 5.0522 -4.405 0.0 0
M  V30 6 C 6.5467 -3.4344 0.0 0
M  V30 7 C 4.8443 -5.3831 0.0 0
M  V30 8 C 5.7103 -6.8831 0.0 0
M  V30 9 C 4.3831 -3.6618 0.0 0
M  V30 10 O 7.5467 -3.4344 0.0 0
M  V30 11 N 6.0467 -2.5684 0.0 0
M  V30 12 C 3.9783 -5.8831 0.0 0
M  V30 13 C 4.8443 -7.3831 0.0 0
M  V30 14 C 5.0467 -2.5684 0.0 0
M  V30 15 C 6.5467 -1.7024 0.0 0
M  V30 16 C 3.9783 -6.8831 0.0 0
M  V30 17 C 4.5467 -1.7024 0.0 0
M  V30 18 C 6.0467 -0.8364 0.0 0
M  V30 19 C 5.0467 -0.8364 0.0 0
M  V30 20 C 3.5686 -1.4945 0.0 0
M  V30 21 S 4.3776 -0.0932 0.0 0
M  V30 22 C 3.4641 -0.5 0.0 0
M  V30 23 C 2.598 0.0 0.0 0
M  V30 24 O 2.598 1.0 0.0 0
M  V30 25 N 1.732 -0.5 0.0 0
M  V30 26 C 0.866 0.0 0.0 0
M  V30 27 C 0.0 -0.5 0.0 0
M  V30 28 C -0.866 0.0 0.0 0
M  V30 29 C 0.0 -1.4999 0.0 0
M  V30 30 C -1.732 -0.4999 0.0 0
M  V30 31 C -0.866 -1.9999 0.0 0
M  V30 32 C -1.732 -1.4999 0.0 0
M  V30 33 N -2.598 -1.9999 0.0 0
M  V30 34 C -3.4641 -1.4999 0.0 0
M  V30 35 C -2.598 -2.9999 0.0 0
M  V30 36 C -4.3301 -1.9999 0.0 0
M  V30 37 C -3.4641 -3.4999 0.0 0
M  V30 38 N -4.3301 -2.9999 0.0 0
M  V30 39 C -5.1961 -3.4999 0.0 0
M  V30 END ATOM
M  V30 BEGIN BOND
M  V30 1 1 1 2
M  V30 2 2 2 3
M  V30 3 1 2 4
M  V30 4 1 3 5
M  V30 5 1 3 6
M  V30 6 2 4 7
M  V30 7 1 4 8
M  V30 8 1 5 9
M  V30 9 2 6 10
M  V30 10 1 6 11
M  V30 11 1 7 12
M  V30 12 2 8 13
M  V30 13 1 11 14
M  V30 14 1 11 15
M  V30 15 2 12 16
M  V30 16 1 14 17
M  V30 17 1 15 18
M  V30 18 2 17 19
M  V30 19 1 17 20
M  V30 20 1 19 21
M  V30 21 2 20 22
M  V30 22 1 22 23
M  V30 23 2 23 24
M  V30 24 1 23 25
M  V30 25 1 25 26
M  V30 26 1 26 27
M  V30 27 2 27 28
M  V30 28 1 27 29
M  V30 29 1 28 30
M  V30 30 2 29 31
M  V30 31 2 30 32
M  V30 32 1 32 33
M  V30 33 1 33 34
M  V30 34 1 33 35
M  V30 35 1 34 36
M  V30 36 1 35 37
M  V30 37 1 36 38
M  V30 38 1 38 39
M  V30 39 1 5 7
M  V30 40 1 13 16
M  V30 41 1 18 19
M  V30 42 1 21 22
M  V30 43 1 31 32
M  V30 44 1 37 38
M  V30 END BOND
M  V30 END CTAB
M  END
>  <Molecule Name>
CTX-1020748

>  <SMILES>
CN1C2=C(C=CC=C2)C(Cl)=C1C(=O)N1CCC2=C(C1)C=C(S2)C(=O)NCC1=CC=C(C=C1)N1CCN(C)CC1

>  <Batch Name>
CTX-1020748-1

>  <Batch Created Date>
2021-12-16

>  <Batch ID>
CTX-1020748-1

>  <External ID>
P841-0362

>  <Stereochemistry>
Achiral

>  <Amount 1>
4.7

>  <Unit 1>
mg

>  <CRO 1>
Pharmaron

>  <CRO 1 Total Amount>
22.05

>  <CRO 1 Unit>
mg

>  <Pharmaron Solubility (PBS, pH 7.4): Aqueous Solubility - Batch Mean (uM)>
0.1867

>  <Pharmaron Solubility (PBS, pH 7.4): Aqueous Solubility - Batch Mean (uM) Standard Deviation (±)>


>  <Pharmaron Solubility (PBS, pH 7.4): Aqueous Solubility - Batch Mean (uM) Count>
1.0

>  <log P>
4.68

>  <log D>
4.05

>  <Pharmaron Caliper Assay (CDK2/CCNE1): Minimum measured (%)>
56.6

>  <Pharmaron Caliper Assay (CDK2/CCNE1): IC50 - Batch Mean (uM)>
2.78

>  <Pharmaron ADPGLO (CDK2/E1-25C): Minimum measured (%)>


>  <Pharmaron ADPGLO (CDK2/E1-25C): IC50 - Batch Mean (uM)>


>  <Pharmaron ADPGLO (CDK2/E1-37C): Minimum measured (%)>


>  <Pharmaron ADPGLO (CDK2/E1-37C): IC50 - Batch Mean (uM)>


>  <IncuCyte Kuramochi RB-WT: IC50 - Batch Mean (uM)>
9.28

>  <IncuCyte Kuramochi RB-KO: IC50 - Batch Mean (uM)>
8.69

>  <DSF (npCDK2/CCNE1): dTm D - Batch Mean [Concentration: 100]>


>  <DSF (npCDK2/CCNE1): dTm D - Batch Mean [Concentration: 20.0]>
1.143

>  <DSF (pCDK2/CCNE1): dTm D - Batch Mean [Concentration: 100]>


>  <DSF (pCDK2/CCNE1): dTm D - Batch Mean [Concentration: 20.0]>


>  <RLM: t1/2 - Batch Mean (Min)>


>  <RLM: Cl int - Batch Mean (uL/min/mg protein)>


>  <RLM: ER (Hepatic extraction ratio) - Batch Mean>


>  <HLM: t1/2 - Batch Mean (Min)>


>  <HLM: Cl int - Batch Mean (uL/min/mg protein)>


>  <HLM: ER (Hepatic extraction ratio) - Batch Mean>


>  <MDCK-WT 4% BSA: Papp (A-B) - Batch Mean (10-6, cm/s)>


>  <MDCK-WT 4% BSA: Papp (B-A) - Batch Mean (10-6, cm/s)>


>  <MDCK-WT 4% BSA: Efflux Ratio - Batch Mean>


>  <MDCK-WT 4% BSA: ~Net A_B - Batch Mean (10-6, cm/s)>


>  <pIC50>
5.555955

>  <Selection_1>
Y

>  <Selection_N>
N

>  <Serie>
Tetrahydrothienopyridine

>  <Selection_T>


>  <Train_Vs_Test>


$$$$
CTX-1020747
OCL MolfileCreator  2D

  0  0  0  0  0  0              0 V3000
M  V30 BEGIN CTAB
M  V30 COUNTS 39 44 0 0 0
M  V30 BEGIN ATOM
M  V30 1 S 6.5664 -0.1398 0.0 0
M  V30 2 C 5.1961 -0.75 0.0 0
M  V30 3 C 7.5701 -1.2546 0.0 0
M  V30 4 C 3.8971 0.0 0.0 0
M  V30 5 C 5.3529 -2.2417 0.0 0
M  V30 6 C 6.8201 -2.5536 0.0 0
M  V30 7 C 9.0701 -1.2546 0.0 0
M  V30 8 O 3.8971 1.5 0.0 0
M  V30 9 N 2.598 -0.75 0.0 0
M  V30 10 C 7.5701 -3.8526 0.0 0
M  V30 11 C 9.8201 -2.5536 0.0 0
M  V30 12 C 1.299 0.0 0.0 0
M  V30 13 N 9.0701 -3.8526 0.0 0
M  V30 14 C 0.0 -0.75 0.0 0
M  V30 15 C 9.8201 -5.1517 0.0 0
M  V30 16 C -1.299 0.0 0.0 0
M  V30 17 C 0.0 -2.2499 0.0 0
M  V30 18 O 9.0701 -6.4507 0.0 0
M  V30 19 C 11.3201 -5.1517 0.0 0
M  V30 20 C -2.598 -0.7499 0.0 0
M  V30 21 C -1.299 -2.9999 0.0 0
M  V30 22 O 12.2018 -6.3652 0.0 0
M  V30 23 C 12.2018 -3.9382 0.0 0
M  V30 24 C -2.598 -2.2499 0.0 0
M  V30 25 C 13.6284 -5.9017 0.0 0
M  V30 26 C 13.6284 -4.4017 0.0 0
M  V30 27 C 11.7383 -2.5116 0.0 0
M  V30 28 N -3.8971 -2.9999 0.0 0
M  V30 29 C 14.9274 -6.6517 0.0 0
M  V30 30 C 14.9274 -3.6517 0.0 0
M  V30 31 C -5.1961 -2.2499 0.0 0
M  V30 32 C -3.8971 -4.4999 0.0 0
M  V30 33 F 14.9274 -8.1517 0.0 0
M  V30 34 C 16.2265 -5.9017 0.0 0
M  V30 35 C 16.2265 -4.4017 0.0 0
M  V30 36 C -6.4951 -2.9999 0.0 0
M  V30 37 C -5.1961 -5.2499 0.0 0
M  V30 38 N -6.4951 -4.4999 0.0 0
M  V30 39 C -7.7942 -5.2499 0.0 0
M  V30 END ATOM
M  V30 BEGIN BOND
M  V30 1 1 1 2
M  V30 2 1 1 3
M  V30 3 1 2 4
M  V30 4 2 2 5
M  V30 5 2 3 6
M  V30 6 1 3 7
M  V30 7 2 4 8
M  V30 8 1 4 9
M  V30 9 1 6 10
M  V30 10 1 7 11
M  V30 11 1 9 12
M  V30 12 1 10 13
M  V30 13 1 12 14
M  V30 14 1 13 15
M  V30 15 2 14 16
M  V30 16 1 14 17
M  V30 17 2 15 18
M  V30 18 1 15 19
M  V30 19 1 16 20
M  V30 20 2 17 21
M  V30 21 1 19 22
M  V30 22 2 19 23
M  V30 23 2 20 24
M  V30 24 1 22 25
M  V30 25 1 23 26
M  V30 26 1 23 27
M  V30 27 1 24 28
M  V30 28 1 25 29
M  V30 29 1 26 30
M  V30 30 1 28 31
M  V30 31 1 28 32
M  V30 32 1 29 33
M  V30 33 2 29 34
M  V30 34 2 30 35
M  V30 35 1 31 36
M  V30 36 1 32 37
M  V30 37 1 36 38
M  V30 38 1 38 39
M  V30 39 1 5 6
M  V30 40 1 11 13
M  V30 41 1 21 24
M  V30 42 2 25 26
M  V30 43 1 34 35
M  V30 44 1 37 38
M  V30 END BOND
M  V30 END CTAB
M  END
>  <Molecule Name>
CTX-1020747

>  <SMILES>
CN1CCN(CC1)C1=CC=C(CNC(=O)C2=CC3=C(CCN(C3)C(=O)C3=C(C)C4=C(O3)C(F)=CC=C4)S2)C=C1

>  <Batch Name>
CTX-1020747-1

>  <Batch Created Date>
2021-12-16

>  <Batch ID>
CTX-1020747-1

>  <External ID>
P841-0361

>  <Stereochemistry>
Achiral

>  <Amount 1>
3.85

>  <Unit 1>
mg

>  <CRO 1>
Pharmaron

>  <CRO 1 Total Amount>
22.1

>  <CRO 1 Unit>
mg

>  <Pharmaron Solubility (PBS, pH 7.4): Aqueous Solubility - Batch Mean (uM)>
1.4216

>  <Pharmaron Solubility (PBS, pH 7.4): Aqueous Solubility - Batch Mean (uM) Standard Deviation (±)>


>  <Pharmaron Solubility (PBS, pH 7.4): Aqueous Solubility - Batch Mean (uM) Count>
1.0

>  <log P>
4.57

>  <log D>
3.94

>  <Pharmaron Caliper Assay (CDK2/CCNE1): Minimum measured (%)>
22.7

>  <Pharmaron Caliper Assay (CDK2/CCNE1): IC50 - Batch Mean (uM)>
0.611

>  <Pharmaron ADPGLO (CDK2/E1-25C): Minimum measured (%)>
28.6

>  <Pharmaron ADPGLO (CDK2/E1-25C): IC50 - Batch Mean (uM)>
0.77

>  <Pharmaron ADPGLO (CDK2/E1-37C): Minimum measured (%)>
86.1

>  <Pharmaron ADPGLO (CDK2/E1-37C): IC50 - Batch Mean (uM)>
100

>  <IncuCyte Kuramochi RB-WT: IC50 - Batch Mean (uM)>
6.9

>  <IncuCyte Kuramochi RB-KO: IC50 - Batch Mean (uM)>
8.0

>  <DSF (npCDK2/CCNE1): dTm D - Batch Mean [Concentration: 100]>


>  <DSF (npCDK2/CCNE1): dTm D - Batch Mean [Concentration: 20.0]>
4.3180000000000005

>  <DSF (pCDK2/CCNE1): dTm D - Batch Mean [Concentration: 100]>


>  <DSF (pCDK2/CCNE1): dTm D - Batch Mean [Concentration: 20.0]>
2.3209999999999997

>  <RLM: t1/2 - Batch Mean (Min)>


>  <RLM: Cl int - Batch Mean (uL/min/mg protein)>


>  <RLM: ER (Hepatic extraction ratio) - Batch Mean>


>  <HLM: t1/2 - Batch Mean (Min)>


>  <HLM: Cl int - Batch Mean (uL/min/mg protein)>


>  <HLM: ER (Hepatic extraction ratio) - Batch Mean>


>  <MDCK-WT 4% BSA: Papp (A-B) - Batch Mean (10-6, cm/s)>


>  <MDCK-WT 4% BSA: Papp (B-A) - Batch Mean (10-6, cm/s)>


>  <MDCK-WT 4% BSA: Efflux Ratio - Batch Mean>


>  <MDCK-WT 4% BSA: ~Net A_B - Batch Mean (10-6, cm/s)>


>  <pIC50>
6.213959

>  <Selection_1>
Y

>  <Selection_N>
N

>  <Serie>
Tetrahydrothienopyridine

>  <Selection_T>


>  <Train_Vs_Test>


$$$$
CTX-1020746
OCL MolfileCreator  2D

  0  0  0  0  0  0              0 V3000
M  V30 BEGIN CTAB
M  V30 COUNTS 38 43 0 0 0
M  V30 BEGIN ATOM
M  V30 1 O 8.0467 -0.8364 0.0 0
M  V30 2 C 7.5467 -1.7024 0.0 0
M  V30 3 N 6.5467 -1.7024 0.0 0
M  V30 4 C 8.0467 -2.5684 0.0 0
M  V30 5 C 6.0467 -0.8364 0.0 0
M  V30 6 C 6.0467 -2.5684 0.0 0
M  V30 7 O 7.64 -3.482 0.0 0
M  V30 8 C 9.0412 -2.6729 0.0 0
M  V30 9 C 5.0467 -0.8364 0.0 0
M  V30 10 C 5.0467 -2.5684 0.0 0
M  V30 11 C 8.3831 -4.1511 0.0 0
M  V30 12 C 9.2492 -3.6511 0.0 0
M  V30 13 C 9.7104 -1.9298 0.0 0
M  V30 14 N 4.3776 -0.0932 0.0 0
M  V30 15 C 4.5467 -1.7024 0.0 0
M  V30 16 C 8.3831 -5.1511 0.0 0
M  V30 17 C 10.1152 -4.1511 0.0 0
M  V30 18 C 3.4641 -0.5 0.0 0
M  V30 19 N 3.5686 -1.4945 0.0 0
M  V30 20 C 9.2492 -5.6511 0.0 0
M  V30 21 C 10.1152 -5.1511 0.0 0
M  V30 22 C 2.598 0.0 0.0 0
M  V30 23 O 2.598 1.0 0.0 0
M  V30 24 N 1.732 -0.5 0.0 0
M  V30 25 C 0.866 0.0 0.0 0
M  V30 26 C 0.0 -0.5 0.0 0
M  V30 27 C -0.866 0.0 0.0 0
M  V30 28 C 0.0 -1.4999 0.0 0
M  V30 29 C -1.732 -0.4999 0.0 0
M  V30 30 C -0.866 -1.9999 0.0 0
M  V30 31 C -1.732 -1.4999 0.0 0
M  V30 32 N -2.598 -1.9999 0.0 0
M  V30 33 C -3.4641 -1.4999 0.0 0
M  V30 34 C -2.598 -2.9999 0.0 0
M  V30 35 C -4.3301 -1.9999 0.0 0
M  V30 36 C -3.4641 -3.4999 0.0 0
M  V30 37 N -4.3301 -2.9999 0.0 0
M  V30 38 C -5.1961 -3.4999 0.0 0
M  V30 END ATOM
M  V30 BEGIN BOND
M  V30 1 2 1 2
M  V30 2 1 2 3
M  V30 3 1 2 4
M  V30 4 1 3 5
M  V30 5 1 3 6
M  V30 6 1 4 7
M  V30 7 2 4 8
M  V30 8 1 5 9
M  V30 9 1 6 10
M  V30 10 1 7 11
M  V30 11 1 8 12
M  V30 12 1 8 13
M  V30 13 1 9 14
M  V30 14 2 9 15
M  V30 15 1 11 16
M  V30 16 1 12 17
M  V30 17 1 14 18
M  V30 18 1 15 19
M  V30 19 2 16 20
M  V30 20 2 17 21
M  V30 21 1 18 22
M  V30 22 2 22 23
M  V30 23 1 22 24
M  V30 24 1 24 25
M  V30 25 1 25 26
M  V30 26 2 26 27
M  V30 27 1 26 28
M  V30 28 1 27 29
M  V30 29 2 28 30
M  V30 30 2 29 31
M  V30 31 1 31 32
M  V30 32 1 32 33
M  V30 33 1 32 34
M  V30 34 1 33 35
M  V30 35 1 34 36
M  V30 36 1 35 37
M  V30 37 1 37 38
M  V30 38 1 10 15
M  V30 39 2 11 12
M  V30 40 2 18 19
M  V30 41 1 20 21
M  V30 42 1 30 31
M  V30 43 1 36 37
M  V30 END BOND
M  V30 END CTAB
M  END
>  <Molecule Name>
CTX-1020746

>  <SMILES>
CN1CCN(CC1)C1=CC=C(CNC(=O)C2=NC3=C(CN(CC3)C(=O)C3=C(C)C4=C(O3)C=CC=C4)N2)C=C1

>  <Batch Name>
CTX-1020746-1

>  <Batch Created Date>
2021-12-16

>  <Batch ID>
CTX-1020746-1

>  <External ID>
P841-0291

>  <Stereochemistry>
Achiral

>  <Amount 1>
4.5

>  <Unit 1>
mg

>  <CRO 1>
Pharmaron

>  <CRO 1 Total Amount>
0.0

>  <CRO 1 Unit>
mg

>  <Pharmaron Solubility (PBS, pH 7.4): Aqueous Solubility - Batch Mean (uM)>


>  <Pharmaron Solubility (PBS, pH 7.4): Aqueous Solubility - Batch Mean (uM) Standard Deviation (±)>


>  <Pharmaron Solubility (PBS, pH 7.4): Aqueous Solubility - Batch Mean (uM) Count>


>  <log P>
2.59

>  <log D>
1.94

>  <Pharmaron Caliper Assay (CDK2/CCNE1): Minimum measured (%)>
23.2

>  <Pharmaron Caliper Assay (CDK2/CCNE1): IC50 - Batch Mean (uM)>
5.18

>  <Pharmaron ADPGLO (CDK2/E1-25C): Minimum measured (%)>


>  <Pharmaron ADPGLO (CDK2/E1-25C): IC50 - Batch Mean (uM)>


>  <Pharmaron ADPGLO (CDK2/E1-37C): Minimum measured (%)>


>  <Pharmaron ADPGLO (CDK2/E1-37C): IC50 - Batch Mean (uM)>


>  <IncuCyte Kuramochi RB-WT: IC50 - Batch Mean (uM)>
10.0

>  <IncuCyte Kuramochi RB-KO: IC50 - Batch Mean (uM)>
8.23

>  <DSF (npCDK2/CCNE1): dTm D - Batch Mean [Concentration: 100]>


>  <DSF (npCDK2/CCNE1): dTm D - Batch Mean [Concentration: 20.0]>
1.577

>  <DSF (pCDK2/CCNE1): dTm D - Batch Mean [Concentration: 100]>


>  <DSF (pCDK2/CCNE1): dTm D - Batch Mean [Concentration: 20.0]>


>  <RLM: t1/2 - Batch Mean (Min)>


>  <RLM: Cl int - Batch Mean (uL/min/mg protein)>


>  <RLM: ER (Hepatic extraction ratio) - Batch Mean>


>  <HLM: t1/2 - Batch Mean (Min)>


>  <HLM: Cl int - Batch Mean (uL/min/mg protein)>


>  <HLM: ER (Hepatic extraction ratio) - Batch Mean>


>  <MDCK-WT 4% BSA: Papp (A-B) - Batch Mean (10-6, cm/s)>


>  <MDCK-WT 4% BSA: Papp (B-A) - Batch Mean (10-6, cm/s)>


>  <MDCK-WT 4% BSA: Efflux Ratio - Batch Mean>


>  <MDCK-WT 4% BSA: ~Net A_B - Batch Mean (10-6, cm/s)>


>  <pIC50>
5.28567

>  <Selection_1>
Y

>  <Selection_N>
N

>  <Serie>
Other

>  <Selection_T>
N

>  <Train_Vs_Test>


$$$$
CTX-1020745
OCL MolfileCreator  2D

  0  0  0  0  0  0              0 V3000
M  V30 BEGIN CTAB
M  V30 COUNTS 39 44 0 0 0
M  V30 BEGIN ATOM
M  V30 1 S 6.5664 -0.1398 0.0 0
M  V30 2 C 5.1961 -0.75 0.0 0
M  V30 3 C 7.5701 -1.2546 0.0 0
M  V30 4 C 3.8971 0.0 0.0 0
M  V30 5 C 5.3529 -2.2417 0.0 0
M  V30 6 C 6.8201 -2.5536 0.0 0
M  V30 7 C 9.0701 -1.2546 0.0 0
M  V30 8 O 3.8971 1.5 0.0 0
M  V30 9 N 2.598 -0.75 0.0 0
M  V30 10 C 7.5701 -3.8526 0.0 0
M  V30 11 C 9.8201 -2.5536 0.0 0
M  V30 12 C 1.299 0.0 0.0 0
M  V30 13 N 9.0701 -3.8526 0.0 0
M  V30 14 C 0.0 -0.75 0.0 0
M  V30 15 C 9.8201 -5.1517 0.0 0
M  V30 16 C -1.299 0.0 0.0 0
M  V30 17 C 0.0 -2.2499 0.0 0
M  V30 18 O 9.0701 -6.4507 0.0 0
M  V30 19 C 11.3201 -5.1517 0.0 0
M  V30 20 C -2.598 -0.7499 0.0 0
M  V30 21 C -1.299 -2.9999 0.0 0
M  V30 22 N 12.2018 -6.3652 0.0 0
M  V30 23 C 12.2018 -3.9382 0.0 0
M  V30 24 C -2.598 -2.2499 0.0 0
M  V30 25 C 13.6284 -5.9017 0.0 0
M  V30 26 C 11.7383 -7.7918 0.0 0
M  V30 27 C 13.6284 -4.4017 0.0 0
M  V30 28 C 11.7383 -2.5116 0.0 0
M  V30 29 N -3.8971 -2.9999 0.0 0
M  V30 30 C 14.9274 -6.6517 0.0 0
M  V30 31 C 14.9274 -3.6517 0.0 0
M  V30 32 C -5.1961 -2.2499 0.0 0
M  V30 33 C -3.8971 -4.4999 0.0 0
M  V30 34 C 16.2265 -5.9017 0.0 0
M  V30 35 C 16.2265 -4.4017 0.0 0
M  V30 36 C -6.4951 -2.9999 0.0 0
M  V30 37 C -5.1961 -5.2499 0.0 0
M  V30 38 N -6.4951 -4.4999 0.0 0
M  V30 39 C -7.7942 -5.2499 0.0 0
M  V30 END ATOM
M  V30 BEGIN BOND
M  V30 1 1 1 2
M  V30 2 1 1 3
M  V30 3 1 2 4
M  V30 4 2 2 5
M  V30 5 2 3 6
M  V30 6 1 3 7
M  V30 7 2 4 8
M  V30 8 1 4 9
M  V30 9 1 6 10
M  V30 10 1 7 11
M  V30 11 1 9 12
M  V30 12 1 10 13
M  V30 13 1 12 14
M  V30 14 1 13 15
M  V30 15 2 14 16
M  V30 16 1 14 17
M  V30 17 2 15 18
M  V30 18 1 15 19
M  V30 19 1 16 20
M  V30 20 2 17 21
M  V30 21 1 19 22
M  V30 22 2 19 23
M  V30 23 2 20 24
M  V30 24 1 22 25
M  V30 25 1 22 26
M  V30 26 1 23 27
M  V30 27 1 23 28
M  V30 28 1 24 29
M  V30 29 1 25 30
M  V30 30 1 27 31
M  V30 31 1 29 32
M  V30 32 1 29 33
M  V30 33 2 30 34
M  V30 34 2 31 35
M  V30 35 1 32 36
M  V30 36 1 33 37
M  V30 37 1 36 38
M  V30 38 1 38 39
M  V30 39 1 5 6
M  V30 40 1 11 13
M  V30 41 1 21 24
M  V30 42 2 25 27
M  V30 43 1 34 35
M  V30 44 1 37 38
M  V30 END BOND
M  V30 END CTAB
M  END
>  <Molecule Name>
CTX-1020745

>  <SMILES>
CN1C2=C(C=CC=C2)C(C)=C1C(=O)N1CCC2=C(C1)C=C(S2)C(=O)NCC1=CC=C(C=C1)N1CCN(C)CC1

>  <Batch Name>
CTX-1020745-1

>  <Batch Created Date>
2021-12-16

>  <Batch ID>
CTX-1020745-1

>  <External ID>
P841-0360

>  <Stereochemistry>
Achiral

>  <Amount 1>
3.45

>  <Unit 1>
mg

>  <CRO 1>
Pharmaron

>  <CRO 1 Total Amount>
31.75

>  <CRO 1 Unit>
mg

>  <Pharmaron Solubility (PBS, pH 7.4): Aqueous Solubility - Batch Mean (uM)>
9.9095

>  <Pharmaron Solubility (PBS, pH 7.4): Aqueous Solubility - Batch Mean (uM) Standard Deviation (±)>


>  <Pharmaron Solubility (PBS, pH 7.4): Aqueous Solubility - Batch Mean (uM) Count>
1.0

>  <log P>
4.59

>  <log D>
3.96

>  <Pharmaron Caliper Assay (CDK2/CCNE1): Minimum measured (%)>
51.3

>  <Pharmaron Caliper Assay (CDK2/CCNE1): IC50 - Batch Mean (uM)>
30.4

>  <Pharmaron ADPGLO (CDK2/E1-25C): Minimum measured (%)>


>  <Pharmaron ADPGLO (CDK2/E1-25C): IC50 - Batch Mean (uM)>


>  <Pharmaron ADPGLO (CDK2/E1-37C): Minimum measured (%)>


>  <Pharmaron ADPGLO (CDK2/E1-37C): IC50 - Batch Mean (uM)>


>  <IncuCyte Kuramochi RB-WT: IC50 - Batch Mean (uM)>
8.12

>  <IncuCyte Kuramochi RB-KO: IC50 - Batch Mean (uM)>
7.47

>  <DSF (npCDK2/CCNE1): dTm D - Batch Mean [Concentration: 100]>


>  <DSF (npCDK2/CCNE1): dTm D - Batch Mean [Concentration: 20.0]>
0.27399999999999997

>  <DSF (pCDK2/CCNE1): dTm D - Batch Mean [Concentration: 100]>


>  <DSF (pCDK2/CCNE1): dTm D - Batch Mean [Concentration: 20.0]>


>  <RLM: t1/2 - Batch Mean (Min)>


>  <RLM: Cl int - Batch Mean (uL/min/mg protein)>


>  <RLM: ER (Hepatic extraction ratio) - Batch Mean>


>  <HLM: t1/2 - Batch Mean (Min)>


>  <HLM: Cl int - Batch Mean (uL/min/mg protein)>


>  <HLM: ER (Hepatic extraction ratio) - Batch Mean>


>  <MDCK-WT 4% BSA: Papp (A-B) - Batch Mean (10-6, cm/s)>


>  <MDCK-WT 4% BSA: Papp (B-A) - Batch Mean (10-6, cm/s)>


>  <MDCK-WT 4% BSA: Efflux Ratio - Batch Mean>


>  <MDCK-WT 4% BSA: ~Net A_B - Batch Mean (10-6, cm/s)>


>  <pIC50>
4.517126

>  <Selection_1>
Y

>  <Selection_N>
N

>  <Serie>
Tetrahydrothienopyridine

>  <Selection_T>


>  <Train_Vs_Test>


$$$$
CTX-1020744
OCL MolfileCreator  2D

  0  0  0  0  0  0              0 V3000
M  V30 BEGIN CTAB
M  V30 COUNTS 38 43 0 0 0
M  V30 BEGIN ATOM
M  V30 1 S 6.5664 -0.1398 0.0 0
M  V30 2 C 5.1961 -0.75 0.0 0
M  V30 3 C 7.5701 -1.2546 0.0 0
M  V30 4 C 3.8971 0.0 0.0 0
M  V30 5 C 5.3529 -2.2417 0.0 0
M  V30 6 C 6.8201 -2.5536 0.0 0
M  V30 7 C 9.0701 -1.2546 0.0 0
M  V30 8 O 3.8971 1.5 0.0 0
M  V30 9 N 2.598 -0.75 0.0 0
M  V30 10 C 7.5701 -3.8526 0.0 0
M  V30 11 C 9.8201 -2.5536 0.0 0
M  V30 12 C 1.299 0.0 0.0 0
M  V30 13 N 9.0701 -3.8526 0.0 0
M  V30 14 C 0.0 -0.75 0.0 0
M  V30 15 C 9.8201 -5.1517 0.0 0
M  V30 16 C -1.299 0.0 0.0 0
M  V30 17 C 0.0 -2.2499 0.0 0
M  V30 18 O 9.0701 -6.4507 0.0 0
M  V30 19 C 11.3201 -5.1517 0.0 0
M  V30 20 C -2.598 -0.7499 0.0 0
M  V30 21 C -1.299 -2.9999 0.0 0
M  V30 22 O 12.2018 -6.3652 0.0 0
M  V30 23 C 12.2018 -3.9382 0.0 0
M  V30 24 C -2.598 -2.2499 0.0 0
M  V30 25 C 13.6284 -5.9017 0.0 0
M  V30 26 C 13.6284 -4.4017 0.0 0
M  V30 27 C 11.7383 -2.5116 0.0 0
M  V30 28 N -3.8971 -2.9999 0.0 0
M  V30 29 C 14.9274 -6.6517 0.0 0
M  V30 30 N 14.9274 -3.6517 0.0 0
M  V30 31 C -5.1961 -2.2499 0.0 0
M  V30 32 C -3.8971 -4.4999 0.0 0
M  V30 33 C 16.2265 -5.9017 0.0 0
M  V30 34 C 16.2265 -4.4017 0.0 0
M  V30 35 C -6.4951 -2.9999 0.0 0
M  V30 36 C -5.1961 -5.2499 0.0 0
M  V30 37 N -6.4951 -4.4999 0.0 0
M  V30 38 C -7.7942 -5.2499 0.0 0
M  V30 END ATOM
M  V30 BEGIN BOND
M  V30 1 1 1 2
M  V30 2 1 1 3
M  V30 3 1 2 4
M  V30 4 2 2 5
M  V30 5 2 3 6
M  V30 6 1 3 7
M  V30 7 2 4 8
M  V30 8 1 4 9
M  V30 9 1 6 10
M  V30 10 1 7 11
M  V30 11 1 9 12
M  V30 12 1 10 13
M  V30 13 1 12 14
M  V30 14 1 13 15
M  V30 15 2 14 16
M  V30 16 1 14 17
M  V30 17 2 15 18
M  V30 18 1 15 19
M  V30 19 1 16 20
M  V30 20 2 17 21
M  V30 21 1 19 22
M  V30 22 2 19 23
M  V30 23 2 20 24
M  V30 24 1 22 25
M  V30 25 1 23 26
M  V30 26 1 23 27
M  V30 27 1 24 28
M  V30 28 1 25 29
M  V30 29 1 26 30
M  V30 30 1 28 31
M  V30 31 1 28 32
M  V30 32 2 29 33
M  V30 33 2 30 34
M  V30 34 1 31 35
M  V30 35 1 32 36
M  V30 36 1 35 37
M  V30 37 1 37 38
M  V30 38 1 5 6
M  V30 39 1 11 13
M  V30 40 1 21 24
M  V30 41 2 25 26
M  V30 42 1 33 34
M  V30 43 1 36 37
M  V30 END BOND
M  V30 END CTAB
M  END
>  <Molecule Name>
CTX-1020744

>  <SMILES>
CN1CCN(CC1)C1=CC=C(CNC(=O)C2=CC3=C(CCN(C3)C(=O)C3=C(C)C4=C(O3)C=CC=N4)S2)C=C1

>  <Batch Name>
CTX-1020744-1

>  <Batch Created Date>
2021-12-16

>  <Batch ID>
CTX-1020744-1

>  <External ID>
P841-0359

>  <Stereochemistry>
Achiral

>  <Amount 1>
4.05

>  <Unit 1>
mg

>  <CRO 1>
Pharmaron

>  <CRO 1 Total Amount>
26.95

>  <CRO 1 Unit>
mg

>  <Pharmaron Solubility (PBS, pH 7.4): Aqueous Solubility - Batch Mean (uM)>
138.1343

>  <Pharmaron Solubility (PBS, pH 7.4): Aqueous Solubility - Batch Mean (uM) Standard Deviation (±)>


>  <Pharmaron Solubility (PBS, pH 7.4): Aqueous Solubility - Batch Mean (uM) Count>
1.0

>  <log P>
3.6

>  <log D>
2.96

>  <Pharmaron Caliper Assay (CDK2/CCNE1): Minimum measured (%)>
47.6

>  <Pharmaron Caliper Assay (CDK2/CCNE1): IC50 - Batch Mean (uM)>
37.4

>  <Pharmaron ADPGLO (CDK2/E1-25C): Minimum measured (%)>


>  <Pharmaron ADPGLO (CDK2/E1-25C): IC50 - Batch Mean (uM)>


>  <Pharmaron ADPGLO (CDK2/E1-37C): Minimum measured (%)>


>  <Pharmaron ADPGLO (CDK2/E1-37C): IC50 - Batch Mean (uM)>


>  <IncuCyte Kuramochi RB-WT: IC50 - Batch Mean (uM)>
20.0

>  <IncuCyte Kuramochi RB-KO: IC50 - Batch Mean (uM)>
20.0

>  <DSF (npCDK2/CCNE1): dTm D - Batch Mean [Concentration: 100]>


>  <DSF (npCDK2/CCNE1): dTm D - Batch Mean [Concentration: 20.0]>
0.04

>  <DSF (pCDK2/CCNE1): dTm D - Batch Mean [Concentration: 100]>


>  <DSF (pCDK2/CCNE1): dTm D - Batch Mean [Concentration: 20.0]>


>  <RLM: t1/2 - Batch Mean (Min)>


>  <RLM: Cl int - Batch Mean (uL/min/mg protein)>


>  <RLM: ER (Hepatic extraction ratio) - Batch Mean>


>  <HLM: t1/2 - Batch Mean (Min)>


>  <HLM: Cl int - Batch Mean (uL/min/mg protein)>


>  <HLM: ER (Hepatic extraction ratio) - Batch Mean>


>  <MDCK-WT 4% BSA: Papp (A-B) - Batch Mean (10-6, cm/s)>


>  <MDCK-WT 4% BSA: Papp (B-A) - Batch Mean (10-6, cm/s)>


>  <MDCK-WT 4% BSA: Efflux Ratio - Batch Mean>


>  <MDCK-WT 4% BSA: ~Net A_B - Batch Mean (10-6, cm/s)>


>  <pIC50>
4.427128

>  <Selection_1>
Y

>  <Selection_N>
N

>  <Serie>
Tetrahydrothienopyridine

>  <Selection_T>


>  <Train_Vs_Test>


$$$$
CTX-1020743
OCL MolfileCreator  2D

  0  0  0  0  0  0              0 V3000
M  V30 BEGIN CTAB
M  V30 COUNTS 39 44 0 0 0
M  V30 BEGIN ATOM
M  V30 1 S 6.5664 -0.1398 0.0 0
M  V30 2 C 5.1961 -0.75 0.0 0
M  V30 3 C 7.5701 -1.2546 0.0 0
M  V30 4 C 3.8971 0.0 0.0 0
M  V30 5 C 5.3529 -2.2417 0.0 0
M  V30 6 C 6.8201 -2.5536 0.0 0
M  V30 7 C 9.0701 -1.2546 0.0 0
M  V30 8 O 3.8971 1.5 0.0 0
M  V30 9 N 2.598 -0.75 0.0 0
M  V30 10 C 7.5701 -3.8526 0.0 0
M  V30 11 C 9.8201 -2.5536 0.0 0
M  V30 12 C 1.299 0.0 0.0 0
M  V30 13 N 9.0701 -3.8526 0.0 0
M  V30 14 C 0.0 -0.75 0.0 0
M  V30 15 C 9.8201 -5.1517 0.0 0
M  V30 16 C -1.299 0.0 0.0 0
M  V30 17 C 0.0 -2.2499 0.0 0
M  V30 18 O 9.0701 -6.4507 0.0 0
M  V30 19 C 11.3201 -5.1517 0.0 0
M  V30 20 C -2.598 -0.7499 0.0 0
M  V30 21 C -1.299 -2.9999 0.0 0
M  V30 22 O 12.2018 -6.3652 0.0 0
M  V30 23 C 12.2018 -3.9382 0.0 0
M  V30 24 C -2.598 -2.2499 0.0 0
M  V30 25 C 13.6284 -5.9017 0.0 0
M  V30 26 C 13.6284 -4.4017 0.0 0
M  V30 27 C 11.7383 -2.5116 0.0 0
M  V30 28 N -3.8971 -2.9999 0.0 0
M  V30 29 C 14.9274 -6.6517 0.0 0
M  V30 30 C 14.9274 -3.6517 0.0 0
M  V30 31 C -5.1961 -2.2499 0.0 0
M  V30 32 C -3.8971 -4.4999 0.0 0
M  V30 33 C 16.2265 -5.9017 0.0 0
M  V30 34 C 16.2265 -4.4017 0.0 0
M  V30 35 C -6.4951 -2.9999 0.0 0
M  V30 36 C -5.1961 -5.2499 0.0 0
M  V30 37 C 17.5255 -6.6517 0.0 0
M  V30 38 N -6.4951 -4.4999 0.0 0
M  V30 39 C -7.7942 -5.2499 0.0 0
M  V30 END ATOM
M  V30 BEGIN BOND
M  V30 1 1 1 2
M  V30 2 1 1 3
M  V30 3 1 2 4
M  V30 4 2 2 5
M  V30 5 2 3 6
M  V30 6 1 3 7
M  V30 7 2 4 8
M  V30 8 1 4 9
M  V30 9 1 6 10
M  V30 10 1 7 11
M  V30 11 1 9 12
M  V30 12 1 10 13
M  V30 13 1 12 14
M  V30 14 1 13 15
M  V30 15 2 14 16
M  V30 16 1 14 17
M  V30 17 2 15 18
M  V30 18 1 15 19
M  V30 19 1 16 20
M  V30 20 2 17 21
M  V30 21 1 19 22
M  V30 22 2 19 23
M  V30 23 2 20 24
M  V30 24 1 22 25
M  V30 25 1 23 26
M  V30 26 1 23 27
M  V30 27 1 24 28
M  V30 28 1 25 29
M  V30 29 1 26 30
M  V30 30 1 28 31
M  V30 31 1 28 32
M  V30 32 2 29 33
M  V30 33 2 30 34
M  V30 34 1 31 35
M  V30 35 1 32 36
M  V30 36 1 33 37
M  V30 37 1 35 38
M  V30 38 1 38 39
M  V30 39 1 5 6
M  V30 40 1 11 13
M  V30 41 1 21 24
M  V30 42 2 25 26
M  V30 43 1 33 34
M  V30 44 1 36 38
M  V30 END BOND
M  V30 END CTAB
M  END
>  <Molecule Name>
CTX-1020743

>  <SMILES>
CN1CCN(CC1)C1=CC=C(CNC(=O)C2=CC3=C(CCN(C3)C(=O)C3=C(C)C4=C(O3)C=C(C)C=C4)S2)C=C1

>  <Batch Name>
CTX-1020743-1

>  <Batch Created Date>
2021-12-16

>  <Batch ID>
CTX-1020743-1

>  <External ID>
P841-0358

>  <Stereochemistry>
Achiral

>  <Amount 1>
4.25

>  <Unit 1>
mg

>  <CRO 1>
Pharmaron

>  <CRO 1 Total Amount>
22.1

>  <CRO 1 Unit>
mg

>  <Pharmaron Solubility (PBS, pH 7.4): Aqueous Solubility - Batch Mean (uM)>
0.0136

>  <Pharmaron Solubility (PBS, pH 7.4): Aqueous Solubility - Batch Mean (uM) Standard Deviation (±)>


>  <Pharmaron Solubility (PBS, pH 7.4): Aqueous Solubility - Batch Mean (uM) Count>
1.0

>  <log P>
4.94

>  <log D>
4.31

>  <Pharmaron Caliper Assay (CDK2/CCNE1): Minimum measured (%)>
18.2

>  <Pharmaron Caliper Assay (CDK2/CCNE1): IC50 - Batch Mean (uM)>
1.42

>  <Pharmaron ADPGLO (CDK2/E1-25C): Minimum measured (%)>
44.5

>  <Pharmaron ADPGLO (CDK2/E1-25C): IC50 - Batch Mean (uM)>
0.476

>  <Pharmaron ADPGLO (CDK2/E1-37C): Minimum measured (%)>
111.0

>  <Pharmaron ADPGLO (CDK2/E1-37C): IC50 - Batch Mean (uM)>
100

>  <IncuCyte Kuramochi RB-WT: IC50 - Batch Mean (uM)>
7.57

>  <IncuCyte Kuramochi RB-KO: IC50 - Batch Mean (uM)>
7.88

>  <DSF (npCDK2/CCNE1): dTm D - Batch Mean [Concentration: 100]>


>  <DSF (npCDK2/CCNE1): dTm D - Batch Mean [Concentration: 20.0]>
3.95

>  <DSF (pCDK2/CCNE1): dTm D - Batch Mean [Concentration: 100]>


>  <DSF (pCDK2/CCNE1): dTm D - Batch Mean [Concentration: 20.0]>
2.0540000000000003

>  <RLM: t1/2 - Batch Mean (Min)>


>  <RLM: Cl int - Batch Mean (uL/min/mg protein)>


>  <RLM: ER (Hepatic extraction ratio) - Batch Mean>


>  <HLM: t1/2 - Batch Mean (Min)>


>  <HLM: Cl int - Batch Mean (uL/min/mg protein)>


>  <HLM: ER (Hepatic extraction ratio) - Batch Mean>


>  <MDCK-WT 4% BSA: Papp (A-B) - Batch Mean (10-6, cm/s)>


>  <MDCK-WT 4% BSA: Papp (B-A) - Batch Mean (10-6, cm/s)>


>  <MDCK-WT 4% BSA: Efflux Ratio - Batch Mean>


>  <MDCK-WT 4% BSA: ~Net A_B - Batch Mean (10-6, cm/s)>


>  <pIC50>
5.847712

>  <Selection_1>
Y

>  <Selection_N>
N

>  <Serie>
Tetrahydrothienopyridine

>  <Selection_T>


>  <Train_Vs_Test>


$$$$
CTX-1020742
OCL MolfileCreator  2D

  0  0  0  0  0  0              0 V3000
M  V30 BEGIN CTAB
M  V30 COUNTS 38 43 0 0 0
M  V30 BEGIN ATOM
M  V30 1 S 9.6802 -7.821 0.0 0
M  V30 2 C 9.0701 -6.4507 0.0 0
M  V30 3 C 8.5655 -8.8247 0.0 0
M  V30 4 C 7.5783 -6.6075 0.0 0
M  V30 5 C 9.8201 -5.1517 0.0 0
M  V30 6 C 7.2665 -8.0747 0.0 0
M  V30 7 C 8.5655 -10.3247 0.0 0
M  V30 8 C 6.5746 -5.4928 0.0 0
M  V30 9 O 11.3201 -5.1517 0.0 0
M  V30 10 N 9.0701 -3.8526 0.0 0
M  V30 11 C 5.9674 -8.8247 0.0 0
M  V30 12 N 7.2665 -11.0747 0.0 0
M  V30 13 C 7.5701 -3.8526 0.0 0
M  V30 14 C 9.8201 -2.5536 0.0 0
M  V30 15 C 5.9674 -10.3247 0.0 0
M  V30 16 C 6.8201 -2.5536 0.0 0
M  V30 17 C 9.0701 -1.2546 0.0 0
M  V30 18 C 7.5701 -1.2546 0.0 0
M  V30 19 C 5.3529 -2.2417 0.0 0
M  V30 20 S 6.5664 -0.1398 0.0 0
M  V30 21 C 5.1961 -0.75 0.0 0
M  V30 22 C 3.8971 0.0 0.0 0
M  V30 23 O 3.8971 1.5 0.0 0
M  V30 24 N 2.598 -0.75 0.0 0
M  V30 25 C 1.299 0.0 0.0 0
M  V30 26 C 0.0 -0.75 0.0 0
M  V30 27 C -1.299 0.0 0.0 0
M  V30 28 C 0.0 -2.2499 0.0 0
M  V30 29 C -2.598 -0.7499 0.0 0
M  V30 30 C -1.299 -2.9999 0.0 0
M  V30 31 C -2.598 -2.2499 0.0 0
M  V30 32 N -3.8971 -2.9999 0.0 0
M  V30 33 C -5.1961 -2.2499 0.0 0
M  V30 34 C -3.8971 -4.4999 0.0 0
M  V30 35 C -6.4951 -2.9999 0.0 0
M  V30 36 C -5.1961 -5.2499 0.0 0
M  V30 37 N -6.4951 -4.4999 0.0 0
M  V30 38 C -7.7942 -5.2499 0.0 0
M  V30 END ATOM
M  V30 BEGIN BOND
M  V30 1 1 1 2
M  V30 2 1 1 3
M  V30 3 2 2 4
M  V30 4 1 2 5
M  V30 5 2 3 6
M  V30 6 1 3 7
M  V30 7 1 4 8
M  V30 8 2 5 9
M  V30 9 1 5 10
M  V30 10 1 6 11
M  V30 11 2 7 12
M  V30 12 1 10 13
M  V30 13 1 10 14
M  V30 14 2 11 15
M  V30 15 1 13 16
M  V30 16 1 14 17
M  V30 17 2 16 18
M  V30 18 1 16 19
M  V30 19 1 18 20
M  V30 20 2 19 21
M  V30 21 1 21 22
M  V30 22 2 22 23
M  V30 23 1 22 24
M  V30 24 1 24 25
M  V30 25 1 25 26
M  V30 26 2 26 27
M  V30 27 1 26 28
M  V30 28 1 27 29
M  V30 29 2 28 30
M  V30 30 2 29 31
M  V30 31 1 31 32
M  V30 32 1 32 33
M  V30 33 1 32 34
M  V30 34 1 33 35
M  V30 35 1 34 36
M  V30 36 1 35 37
M  V30 37 1 37 38
M  V30 38 1 4 6
M  V30 39 1 12 15
M  V30 40 1 17 18
M  V30 41 1 20 21
M  V30 42 1 30 31
M  V30 43 1 36 37
M  V30 END BOND
M  V30 END CTAB
M  END
>  <Molecule Name>
CTX-1020742

>  <SMILES>
CN1CCN(CC1)C1=CC=C(CNC(=O)C2=CC3=C(CCN(C3)C(=O)C3=C(C)C4=C(S3)C=NC=C4)S2)C=C1

>  <Batch Name>
CTX-1020742-1

>  <Batch Created Date>
2021-12-16

>  <Batch ID>
CTX-1020742-1

>  <External ID>
P841-0357

>  <Stereochemistry>
Achiral

>  <Amount 1>
5.1

>  <Unit 1>
mg

>  <CRO 1>
Pharmaron

>  <CRO 1 Total Amount>
39.3

>  <CRO 1 Unit>
mg

>  <Pharmaron Solubility (PBS, pH 7.4): Aqueous Solubility - Batch Mean (uM)>
130.015

>  <Pharmaron Solubility (PBS, pH 7.4): Aqueous Solubility - Batch Mean (uM) Standard Deviation (±)>


>  <Pharmaron Solubility (PBS, pH 7.4): Aqueous Solubility - Batch Mean (uM) Count>
1.0

>  <log P>
4.14

>  <log D>
3.51

>  <Pharmaron Caliper Assay (CDK2/CCNE1): Minimum measured (%)>
28.2

>  <Pharmaron Caliper Assay (CDK2/CCNE1): IC50 - Batch Mean (uM)>
11.1

>  <Pharmaron ADPGLO (CDK2/E1-25C): Minimum measured (%)>


>  <Pharmaron ADPGLO (CDK2/E1-25C): IC50 - Batch Mean (uM)>


>  <Pharmaron ADPGLO (CDK2/E1-37C): Minimum measured (%)>


>  <Pharmaron ADPGLO (CDK2/E1-37C): IC50 - Batch Mean (uM)>


>  <IncuCyte Kuramochi RB-WT: IC50 - Batch Mean (uM)>
20.0

>  <IncuCyte Kuramochi RB-KO: IC50 - Batch Mean (uM)>
20.0

>  <DSF (npCDK2/CCNE1): dTm D - Batch Mean [Concentration: 100]>


>  <DSF (npCDK2/CCNE1): dTm D - Batch Mean [Concentration: 20.0]>
0.775

>  <DSF (pCDK2/CCNE1): dTm D - Batch Mean [Concentration: 100]>


>  <DSF (pCDK2/CCNE1): dTm D - Batch Mean [Concentration: 20.0]>


>  <RLM: t1/2 - Batch Mean (Min)>


>  <RLM: Cl int - Batch Mean (uL/min/mg protein)>


>  <RLM: ER (Hepatic extraction ratio) - Batch Mean>


>  <HLM: t1/2 - Batch Mean (Min)>


>  <HLM: Cl int - Batch Mean (uL/min/mg protein)>


>  <HLM: ER (Hepatic extraction ratio) - Batch Mean>


>  <MDCK-WT 4% BSA: Papp (A-B) - Batch Mean (10-6, cm/s)>


>  <MDCK-WT 4% BSA: Papp (B-A) - Batch Mean (10-6, cm/s)>


>  <MDCK-WT 4% BSA: Efflux Ratio - Batch Mean>


>  <MDCK-WT 4% BSA: ~Net A_B - Batch Mean (10-6, cm/s)>


>  <pIC50>
4.954677

>  <Selection_1>
Y

>  <Selection_N>
N

>  <Serie>
Tetrahydrothienopyridine

>  <Selection_T>


>  <Train_Vs_Test>


$$$$
CTX-1020741
OCL MolfileCreator  2D

  0  0  0  0  0  0              0 V3000
M  V30 BEGIN CTAB
M  V30 COUNTS 33 37 0 0 0
M  V30 BEGIN ATOM
M  V30 1 S 6.5664 -0.1398 0.0 0
M  V30 2 C 5.1961 -0.75 0.0 0
M  V30 3 C 7.5701 -1.2546 0.0 0
M  V30 4 C 3.8971 0.0 0.0 0
M  V30 5 C 5.3529 -2.2417 0.0 0
M  V30 6 C 6.8201 -2.5536 0.0 0
M  V30 7 C 9.0701 -1.2546 0.0 0
M  V30 8 O 3.8971 1.5 0.0 0
M  V30 9 N 2.598 -0.75 0.0 0
M  V30 10 C 7.5701 -3.8526 0.0 0
M  V30 11 C 9.8201 -2.5536 0.0 0
M  V30 12 C 1.299 0.0 0.0 0
M  V30 13 N 9.0701 -3.8526 0.0 0
M  V30 14 C 0.0 -0.75 0.0 0
M  V30 15 C 9.8201 -5.1517 0.0 0
M  V30 16 C -1.299 0.0 0.0 0
M  V30 17 C 0.0 -2.25 0.0 0
M  V30 18 O 9.0701 -6.4507 0.0 0
M  V30 19 C 11.3201 -5.1517 0.0 0
M  V30 20 C -2.598 -0.7499 0.0 0
M  V30 21 C -1.299 -2.9999 0.0 0
M  V30 22 O 12.2018 -6.3652 0.0 0
M  V30 23 C 12.2018 -3.9382 0.0 0
M  V30 24 C -2.598 -2.2499 0.0 0
M  V30 25 C 13.6284 -5.9017 0.0 0
M  V30 26 C 13.6284 -4.4017 0.0 0
M  V30 27 C 11.7383 -2.5116 0.0 0
M  V30 28 O -3.8971 -2.9999 0.0 0
M  V30 29 C 14.9274 -6.6517 0.0 0
M  V30 30 C 14.9274 -3.6517 0.0 0
M  V30 31 C -3.8971 -4.4999 0.0 0
M  V30 32 C 16.2265 -5.9017 0.0 0
M  V30 33 C 16.2265 -4.4017 0.0 0
M  V30 END ATOM
M  V30 BEGIN BOND
M  V30 1 1 1 2
M  V30 2 1 1 3
M  V30 3 1 2 4
M  V30 4 2 2 5
M  V30 5 2 3 6
M  V30 6 1 3 7
M  V30 7 2 4 8
M  V30 8 1 4 9
M  V30 9 1 6 10
M  V30 10 1 7 11
M  V30 11 1 9 12
M  V30 12 1 10 13
M  V30 13 1 12 14
M  V30 14 1 13 15
M  V30 15 2 14 16
M  V30 16 1 14 17
M  V30 17 2 15 18
M  V30 18 1 15 19
M  V30 19 1 16 20
M  V30 20 2 17 21
M  V30 21 1 19 22
M  V30 22 2 19 23
M  V30 23 2 20 24
M  V30 24 1 22 25
M  V30 25 1 23 26
M  V30 26 1 23 27
M  V30 27 1 24 28
M  V30 28 1 25 29
M  V30 29 1 26 30
M  V30 30 1 28 31
M  V30 31 2 29 32
M  V30 32 2 30 33
M  V30 33 1 5 6
M  V30 34 1 11 13
M  V30 35 1 21 24
M  V30 36 2 25 26
M  V30 37 1 32 33
M  V30 END BOND
M  V30 END CTAB
M  END
>  <Molecule Name>
CTX-1020741

>  <SMILES>
COC1=CC=C(CNC(=O)C2=CC3=C(CCN(C3)C(=O)C3=C(C)C4=C(O3)C=CC=C4)S2)C=C1

>  <Batch Name>
CTX-1020741-1

>  <Batch Created Date>
2021-12-16

>  <Batch ID>
CTX-1020741-1

>  <External ID>
P841-0356

>  <Stereochemistry>
Achiral

>  <Amount 1>
4.55

>  <Unit 1>
mg

>  <CRO 1>
Pharmaron

>  <CRO 1 Total Amount>
19.75

>  <CRO 1 Unit>
mg

>  <Pharmaron Solubility (PBS, pH 7.4): Aqueous Solubility - Batch Mean (uM)>
0.0005

>  <Pharmaron Solubility (PBS, pH 7.4): Aqueous Solubility - Batch Mean (uM) Standard Deviation (±)>


>  <Pharmaron Solubility (PBS, pH 7.4): Aqueous Solubility - Batch Mean (uM) Count>
1.0

>  <log P>
4.31

>  <log D>
4.31

>  <Pharmaron Caliper Assay (CDK2/CCNE1): Minimum measured (%)>
40.2

>  <Pharmaron Caliper Assay (CDK2/CCNE1): IC50 - Batch Mean (uM)>
0.764

>  <Pharmaron ADPGLO (CDK2/E1-25C): Minimum measured (%)>
55.5

>  <Pharmaron ADPGLO (CDK2/E1-25C): IC50 - Batch Mean (uM)>
2.01

>  <Pharmaron ADPGLO (CDK2/E1-37C): Minimum measured (%)>
97.4

>  <Pharmaron ADPGLO (CDK2/E1-37C): IC50 - Batch Mean (uM)>
100

>  <IncuCyte Kuramochi RB-WT: IC50 - Batch Mean (uM)>
20.0

>  <IncuCyte Kuramochi RB-KO: IC50 - Batch Mean (uM)>
20.0

>  <DSF (npCDK2/CCNE1): dTm D - Batch Mean [Concentration: 100]>


>  <DSF (npCDK2/CCNE1): dTm D - Batch Mean [Concentration: 20.0]>
2.8139999999999996

>  <DSF (pCDK2/CCNE1): dTm D - Batch Mean [Concentration: 100]>


>  <DSF (pCDK2/CCNE1): dTm D - Batch Mean [Concentration: 20.0]>
0.578

>  <RLM: t1/2 - Batch Mean (Min)>


>  <RLM: Cl int - Batch Mean (uL/min/mg protein)>


>  <RLM: ER (Hepatic extraction ratio) - Batch Mean>


>  <HLM: t1/2 - Batch Mean (Min)>


>  <HLM: Cl int - Batch Mean (uL/min/mg protein)>


>  <HLM: ER (Hepatic extraction ratio) - Batch Mean>


>  <MDCK-WT 4% BSA: Papp (A-B) - Batch Mean (10-6, cm/s)>


>  <MDCK-WT 4% BSA: Papp (B-A) - Batch Mean (10-6, cm/s)>


>  <MDCK-WT 4% BSA: Efflux Ratio - Batch Mean>


>  <MDCK-WT 4% BSA: ~Net A_B - Batch Mean (10-6, cm/s)>


>  <pIC50>
6.116907

>  <Selection_1>
Y

>  <Selection_N>
N

>  <Serie>
Tetrahydrothienopyridine

>  <Selection_T>


>  <Train_Vs_Test>


$$$$
CTX-1020740
OCL MolfileCreator  2D

  0  0  0  0  0  0              0 V3000
M  V30 BEGIN CTAB
M  V30 COUNTS 35 39 0 0 0
M  V30 BEGIN ATOM
M  V30 1 S 6.5664 -0.1398 0.0 0
M  V30 2 C 5.1961 -0.75 0.0 0
M  V30 3 C 7.5701 -1.2546 0.0 0
M  V30 4 C 3.8971 0.0 0.0 0
M  V30 5 C 5.3529 -2.2417 0.0 0
M  V30 6 C 6.8201 -2.5536 0.0 0
M  V30 7 C 9.0701 -1.2546 0.0 0
M  V30 8 O 3.8971 1.5 0.0 0
M  V30 9 N 2.598 -0.75 0.0 0
M  V30 10 C 7.5701 -3.8526 0.0 0
M  V30 11 C 9.8201 -2.5536 0.0 0
M  V30 12 C 1.299 0.0 0.0 0
M  V30 13 N 9.0701 -3.8526 0.0 0
M  V30 14 C 0.0 -0.75 0.0 0
M  V30 15 C 9.8201 -5.1517 0.0 0
M  V30 16 C -1.299 0.0 0.0 0
M  V30 17 C 0.0 -2.25 0.0 0
M  V30 18 O 9.0701 -6.4507 0.0 0
M  V30 19 C 11.3201 -5.1517 0.0 0
M  V30 20 C -2.598 -0.7499 0.0 0
M  V30 21 C -1.299 -2.9999 0.0 0
M  V30 22 O 12.2018 -6.3652 0.0 0
M  V30 23 C 12.2018 -3.9382 0.0 0
M  V30 24 C -2.598 -2.2499 0.0 0
M  V30 25 C 13.6284 -5.9017 0.0 0
M  V30 26 C 13.6284 -4.4017 0.0 0
M  V30 27 C 11.7383 -2.5116 0.0 0
M  V30 28 C -3.8971 -2.9999 0.0 0
M  V30 29 C 14.9274 -6.6517 0.0 0
M  V30 30 C 14.9274 -3.6517 0.0 0
M  V30 31 F -3.1471 -4.299 0.0 0
M  V30 32 F -5.1961 -3.7499 0.0 0
M  V30 33 F -4.6471 -1.7009 0.0 0
M  V30 34 C 16.2265 -5.9017 0.0 0
M  V30 35 C 16.2265 -4.4017 0.0 0
M  V30 END ATOM
M  V30 BEGIN BOND
M  V30 1 1 1 2
M  V30 2 1 1 3
M  V30 3 1 2 4
M  V30 4 2 2 5
M  V30 5 2 3 6
M  V30 6 1 3 7
M  V30 7 2 4 8
M  V30 8 1 4 9
M  V30 9 1 6 10
M  V30 10 1 7 11
M  V30 11 1 9 12
M  V30 12 1 10 13
M  V30 13 1 12 14
M  V30 14 1 13 15
M  V30 15 2 14 16
M  V30 16 1 14 17
M  V30 17 2 15 18
M  V30 18 1 15 19
M  V30 19 1 16 20
M  V30 20 2 17 21
M  V30 21 1 19 22
M  V30 22 2 19 23
M  V30 23 2 20 24
M  V30 24 1 22 25
M  V30 25 1 23 26
M  V30 26 1 23 27
M  V30 27 1 24 28
M  V30 28 1 25 29
M  V30 29 1 26 30
M  V30 30 1 28 31
M  V30 31 1 28 32
M  V30 32 1 28 33
M  V30 33 2 29 34
M  V30 34 2 30 35
M  V30 35 1 5 6
M  V30 36 1 11 13
M  V30 37 1 21 24
M  V30 38 2 25 26
M  V30 39 1 34 35
M  V30 END BOND
M  V30 END CTAB
M  END
>  <Molecule Name>
CTX-1020740

>  <SMILES>
CC1=C(OC2=C1C=CC=C2)C(=O)N1CCC2=C(C1)C=C(S2)C(=O)NCC1=CC=C(C=C1)C(F)(F)F

>  <Batch Name>
CTX-1020740-1

>  <Batch Created Date>
2021-12-16

>  <Batch ID>
CTX-1020740-1

>  <External ID>
P841-0355

>  <Stereochemistry>
Achiral

>  <Amount 1>
3.95

>  <Unit 1>
mg

>  <CRO 1>
Pharmaron

>  <CRO 1 Total Amount>
16.75

>  <CRO 1 Unit>
mg

>  <Pharmaron Solubility (PBS, pH 7.4): Aqueous Solubility - Batch Mean (uM)>
0.0017

>  <Pharmaron Solubility (PBS, pH 7.4): Aqueous Solubility - Batch Mean (uM) Standard Deviation (±)>


>  <Pharmaron Solubility (PBS, pH 7.4): Aqueous Solubility - Batch Mean (uM) Count>
1.0

>  <log P>
5.35

>  <log D>
5.35

>  <Pharmaron Caliper Assay (CDK2/CCNE1): Minimum measured (%)>
73.5

>  <Pharmaron Caliper Assay (CDK2/CCNE1): IC50 - Batch Mean (uM)>
3.05

>  <Pharmaron ADPGLO (CDK2/E1-25C): Minimum measured (%)>


>  <Pharmaron ADPGLO (CDK2/E1-25C): IC50 - Batch Mean (uM)>


>  <Pharmaron ADPGLO (CDK2/E1-37C): Minimum measured (%)>


>  <Pharmaron ADPGLO (CDK2/E1-37C): IC50 - Batch Mean (uM)>


>  <IncuCyte Kuramochi RB-WT: IC50 - Batch Mean (uM)>
20.0

>  <IncuCyte Kuramochi RB-KO: IC50 - Batch Mean (uM)>
20.0

>  <DSF (npCDK2/CCNE1): dTm D - Batch Mean [Concentration: 100]>


>  <DSF (npCDK2/CCNE1): dTm D - Batch Mean [Concentration: 20.0]>
0.775

>  <DSF (pCDK2/CCNE1): dTm D - Batch Mean [Concentration: 100]>


>  <DSF (pCDK2/CCNE1): dTm D - Batch Mean [Concentration: 20.0]>


>  <RLM: t1/2 - Batch Mean (Min)>


>  <RLM: Cl int - Batch Mean (uL/min/mg protein)>


>  <RLM: ER (Hepatic extraction ratio) - Batch Mean>


>  <HLM: t1/2 - Batch Mean (Min)>


>  <HLM: Cl int - Batch Mean (uL/min/mg protein)>


>  <HLM: ER (Hepatic extraction ratio) - Batch Mean>


>  <MDCK-WT 4% BSA: Papp (A-B) - Batch Mean (10-6, cm/s)>


>  <MDCK-WT 4% BSA: Papp (B-A) - Batch Mean (10-6, cm/s)>


>  <MDCK-WT 4% BSA: Efflux Ratio - Batch Mean>


>  <MDCK-WT 4% BSA: ~Net A_B - Batch Mean (10-6, cm/s)>


>  <pIC50>
5.5157

>  <Selection_1>
Y

>  <Selection_N>
N

>  <Serie>
Tetrahydrothienopyridine

>  <Selection_T>


>  <Train_Vs_Test>


$$$$
CTX-1020739
OCL MolfileCreator  2D

  0  0  0  0  0  0              0 V3000
M  V30 BEGIN CTAB
M  V30 COUNTS 31 35 0 0 0
M  V30 BEGIN ATOM
M  V30 1 S 6.5664 -0.1398 0.0 0
M  V30 2 C 5.1961 -0.75 0.0 0
M  V30 3 C 7.5701 -1.2546 0.0 0
M  V30 4 C 3.8971 0.0 0.0 0
M  V30 5 C 5.3529 -2.2417 0.0 0
M  V30 6 C 6.8201 -2.5536 0.0 0
M  V30 7 C 9.0701 -1.2546 0.0 0
M  V30 8 O 3.8971 1.5 0.0 0
M  V30 9 N 2.598 -0.75 0.0 0
M  V30 10 C 7.5701 -3.8526 0.0 0
M  V30 11 C 9.8201 -2.5536 0.0 0
M  V30 12 C 1.299 0.0 0.0 0
M  V30 13 N 9.0701 -3.8526 0.0 0
M  V30 14 C 0.0 -0.75 0.0 0
M  V30 15 C 9.8201 -5.1517 0.0 0
M  V30 16 C -1.299 0.0 0.0 0
M  V30 17 C 0.0 -2.25 0.0 0
M  V30 18 O 9.0701 -6.4507 0.0 0
M  V30 19 C 11.3201 -5.1517 0.0 0
M  V30 20 C -2.598 -0.7499 0.0 0
M  V30 21 C -1.299 -2.9999 0.0 0
M  V30 22 O 12.2018 -6.3652 0.0 0
M  V30 23 C 12.2018 -3.9382 0.0 0
M  V30 24 N -2.598 -2.2499 0.0 0
M  V30 25 C 13.6284 -5.9017 0.0 0
M  V30 26 C 13.6284 -4.4017 0.0 0
M  V30 27 C 11.7383 -2.5116 0.0 0
M  V30 28 C 14.9274 -6.6517 0.0 0
M  V30 29 C 14.9274 -3.6517 0.0 0
M  V30 30 C 16.2265 -5.9017 0.0 0
M  V30 31 C 16.2265 -4.4017 0.0 0
M  V30 END ATOM
M  V30 BEGIN BOND
M  V30 1 1 1 2
M  V30 2 1 1 3
M  V30 3 1 2 4
M  V30 4 2 2 5
M  V30 5 2 3 6
M  V30 6 1 3 7
M  V30 7 2 4 8
M  V30 8 1 4 9
M  V30 9 1 6 10
M  V30 10 1 7 11
M  V30 11 1 9 12
M  V30 12 1 10 13
M  V30 13 1 12 14
M  V30 14 1 13 15
M  V30 15 2 14 16
M  V30 16 1 14 17
M  V30 17 2 15 18
M  V30 18 1 15 19
M  V30 19 1 16 20
M  V30 20 2 17 21
M  V30 21 1 19 22
M  V30 22 2 19 23
M  V30 23 2 20 24
M  V30 24 1 22 25
M  V30 25 1 23 26
M  V30 26 1 23 27
M  V30 27 1 25 28
M  V30 28 1 26 29
M  V30 29 2 28 30
M  V30 30 2 29 31
M  V30 31 1 5 6
M  V30 32 1 11 13
M  V30 33 1 21 24
M  V30 34 2 25 26
M  V30 35 1 30 31
M  V30 END BOND
M  V30 END CTAB
M  END
>  <Molecule Name>
CTX-1020739

>  <SMILES>
CC1=C(OC2=C1C=CC=C2)C(=O)N1CCC2=C(C1)C=C(S2)C(=O)NCC1=CC=NC=C1

>  <Batch Name>
CTX-1020739-1

>  <Batch Created Date>
2021-12-16

>  <Batch ID>
CTX-1020739-1

>  <External ID>
P841-0354

>  <Stereochemistry>
Achiral

>  <Amount 1>
3.85

>  <Unit 1>
mg

>  <CRO 1>
Pharmaron

>  <CRO 1 Total Amount>
27.55

>  <CRO 1 Unit>
mg

>  <Pharmaron Solubility (PBS, pH 7.4): Aqueous Solubility - Batch Mean (uM)>
13.2512

>  <Pharmaron Solubility (PBS, pH 7.4): Aqueous Solubility - Batch Mean (uM) Standard Deviation (±)>


>  <Pharmaron Solubility (PBS, pH 7.4): Aqueous Solubility - Batch Mean (uM) Count>
1.0

>  <log P>
3.25

>  <log D>
3.25

>  <Pharmaron Caliper Assay (CDK2/CCNE1): Minimum measured (%)>
39.8

>  <Pharmaron Caliper Assay (CDK2/CCNE1): IC50 - Batch Mean (uM)>
8.89

>  <Pharmaron ADPGLO (CDK2/E1-25C): Minimum measured (%)>
46.7

>  <Pharmaron ADPGLO (CDK2/E1-25C): IC50 - Batch Mean (uM)>
4.71

>  <Pharmaron ADPGLO (CDK2/E1-37C): Minimum measured (%)>
109.0

>  <Pharmaron ADPGLO (CDK2/E1-37C): IC50 - Batch Mean (uM)>
100

>  <IncuCyte Kuramochi RB-WT: IC50 - Batch Mean (uM)>
20.0

>  <IncuCyte Kuramochi RB-KO: IC50 - Batch Mean (uM)>
20.0

>  <DSF (npCDK2/CCNE1): dTm D - Batch Mean [Concentration: 100]>


>  <DSF (npCDK2/CCNE1): dTm D - Batch Mean [Concentration: 20.0]>
2.074

>  <DSF (pCDK2/CCNE1): dTm D - Batch Mean [Concentration: 100]>


>  <DSF (pCDK2/CCNE1): dTm D - Batch Mean [Concentration: 20.0]>
0.312

>  <RLM: t1/2 - Batch Mean (Min)>


>  <RLM: Cl int - Batch Mean (uL/min/mg protein)>


>  <RLM: ER (Hepatic extraction ratio) - Batch Mean>


>  <HLM: t1/2 - Batch Mean (Min)>


>  <HLM: Cl int - Batch Mean (uL/min/mg protein)>


>  <HLM: ER (Hepatic extraction ratio) - Batch Mean>


>  <MDCK-WT 4% BSA: Papp (A-B) - Batch Mean (10-6, cm/s)>


>  <MDCK-WT 4% BSA: Papp (B-A) - Batch Mean (10-6, cm/s)>


>  <MDCK-WT 4% BSA: Efflux Ratio - Batch Mean>


>  <MDCK-WT 4% BSA: ~Net A_B - Batch Mean (10-6, cm/s)>


>  <pIC50>
5.051098

>  <Selection_1>
Y

>  <Selection_N>
N

>  <Serie>
Tetrahydrothienopyridine

>  <Selection_T>


>  <Train_Vs_Test>


$$$$
CTX-1020735
OCL MolfileCreator  2D

  0  0  0  0  0  0              0 V3000
M  V30 BEGIN CTAB
M  V30 COUNTS 36 41 0 0 0
M  V30 BEGIN ATOM
M  V30 1 S 6.5664 -0.1398 0.0 0
M  V30 2 C 5.1961 -0.75 0.0 0
M  V30 3 C 7.5701 -1.2546 0.0 0
M  V30 4 C 3.8971 0.0 0.0 0
M  V30 5 C 5.3529 -2.2417 0.0 0
M  V30 6 C 6.8201 -2.5536 0.0 0
M  V30 7 C 9.0701 -1.2546 0.0 0
M  V30 8 O 3.8971 1.5 0.0 0
M  V30 9 N 2.598 -0.75 0.0 0
M  V30 10 C 7.5701 -3.8526 0.0 0
M  V30 11 C 9.8201 -2.5536 0.0 0
M  V30 12 C 1.299 0.0 0.0 0
M  V30 13 N 9.0701 -3.8526 0.0 0
M  V30 14 C 0.0 -0.75 0.0 0
M  V30 15 C 9.8201 -5.1517 0.0 0
M  V30 16 C -1.4488 -0.3617 0.0 0
M  V30 17 C -0.3882 -2.1988 0.0 0
M  V30 18 O 9.0701 -6.4507 0.0 0
M  V30 19 C 11.3201 -5.1517 0.0 0
M  V30 20 C -1.8371 -1.8106 0.0 0
M  V30 21 O 12.2018 -6.3652 0.0 0
M  V30 22 C 12.2018 -3.9382 0.0 0
M  V30 23 N -3.1361 -2.5606 0.0 0
M  V30 24 C 13.6284 -5.9017 0.0 0
M  V30 25 C 13.6284 -4.4017 0.0 0
M  V30 26 C 11.7383 -2.5116 0.0 0
M  V30 27 C -4.4351 -1.8106 0.0 0
M  V30 28 C -3.1361 -4.0606 0.0 0
M  V30 29 C 14.9274 -6.6517 0.0 0
M  V30 30 C 14.9274 -3.6517 0.0 0
M  V30 31 C -5.7342 -2.5606 0.0 0
M  V30 32 C -4.4351 -4.8106 0.0 0
M  V30 33 C 16.2265 -5.9017 0.0 0
M  V30 34 C 16.2265 -4.4017 0.0 0
M  V30 35 N -5.7342 -4.0606 0.0 0
M  V30 36 C -7.0332 -4.8106 0.0 0
M  V30 END ATOM
M  V30 BEGIN BOND
M  V30 1 1 1 2
M  V30 2 1 1 3
M  V30 3 1 2 4
M  V30 4 2 2 5
M  V30 5 2 3 6
M  V30 6 1 3 7
M  V30 7 2 4 8
M  V30 8 1 4 9
M  V30 9 1 6 10
M  V30 10 1 7 11
M  V30 11 1 9 12
M  V30 12 1 10 13
M  V30 13 1 12 14
M  V30 14 1 13 15
M  V30 15 1 14 16
M  V30 16 1 14 17
M  V30 17 2 15 18
M  V30 18 1 15 19
M  V30 19 1 16 20
M  V30 20 1 19 21
M  V30 21 2 19 22
M  V30 22 1 20 23
M  V30 23 1 21 24
M  V30 24 1 22 25
M  V30 25 1 22 26
M  V30 26 1 23 27
M  V30 27 1 23 28
M  V30 28 1 24 29
M  V30 29 1 25 30
M  V30 30 1 27 31
M  V30 31 1 28 32
M  V30 32 2 29 33
M  V30 33 2 30 34
M  V30 34 1 31 35
M  V30 35 1 35 36
M  V30 36 1 5 6
M  V30 37 1 11 13
M  V30 38 1 17 20
M  V30 39 2 24 25
M  V30 40 1 32 35
M  V30 41 1 33 34
M  V30 END BOND
M  V30 END CTAB
M  END
>  <Molecule Name>
CTX-1020735

>  <SMILES>
CN1CCN(CC1)C1CC(CNC(=O)C2=CC3=C(CCN(C3)C(=O)C3=C(C)C4=C(O3)C=CC=C4)S2)C1

>  <Batch Name>
CTX-1020735-1

>  <Batch Created Date>
2021-12-16

>  <Batch ID>
CTX-1020735-1

>  <External ID>
CD-44-M

>  <Stereochemistry>
Achiral

>  <Amount 1>
13.8

>  <Unit 1>
mg

>  <CRO 1>
Pharmaron

>  <CRO 1 Total Amount>
21.4

>  <CRO 1 Unit>
mg

>  <Pharmaron Solubility (PBS, pH 7.4): Aqueous Solubility - Batch Mean (uM)>
276.7241

>  <Pharmaron Solubility (PBS, pH 7.4): Aqueous Solubility - Batch Mean (uM) Standard Deviation (±)>


>  <Pharmaron Solubility (PBS, pH 7.4): Aqueous Solubility - Batch Mean (uM) Count>
1.0

>  <log P>
3.14

>  <log D>
2.19

>  <Pharmaron Caliper Assay (CDK2/CCNE1): Minimum measured (%)>
70.3

>  <Pharmaron Caliper Assay (CDK2/CCNE1): IC50 - Batch Mean (uM)>
41.6

>  <Pharmaron ADPGLO (CDK2/E1-25C): Minimum measured (%)>


>  <Pharmaron ADPGLO (CDK2/E1-25C): IC50 - Batch Mean (uM)>


>  <Pharmaron ADPGLO (CDK2/E1-37C): Minimum measured (%)>


>  <Pharmaron ADPGLO (CDK2/E1-37C): IC50 - Batch Mean (uM)>


>  <IncuCyte Kuramochi RB-WT: IC50 - Batch Mean (uM)>
13.0

>  <IncuCyte Kuramochi RB-KO: IC50 - Batch Mean (uM)>
10.8

>  <DSF (npCDK2/CCNE1): dTm D - Batch Mean [Concentration: 100]>


>  <DSF (npCDK2/CCNE1): dTm D - Batch Mean [Concentration: 20.0]>
-0.134

>  <DSF (pCDK2/CCNE1): dTm D - Batch Mean [Concentration: 100]>


>  <DSF (pCDK2/CCNE1): dTm D - Batch Mean [Concentration: 20.0]>


>  <RLM: t1/2 - Batch Mean (Min)>


>  <RLM: Cl int - Batch Mean (uL/min/mg protein)>


>  <RLM: ER (Hepatic extraction ratio) - Batch Mean>


>  <HLM: t1/2 - Batch Mean (Min)>


>  <HLM: Cl int - Batch Mean (uL/min/mg protein)>


>  <HLM: ER (Hepatic extraction ratio) - Batch Mean>


>  <MDCK-WT 4% BSA: Papp (A-B) - Batch Mean (10-6, cm/s)>


>  <MDCK-WT 4% BSA: Papp (B-A) - Batch Mean (10-6, cm/s)>


>  <MDCK-WT 4% BSA: Efflux Ratio - Batch Mean>


>  <MDCK-WT 4% BSA: ~Net A_B - Batch Mean (10-6, cm/s)>


>  <pIC50>
4.380907

>  <Selection_1>
Y

>  <Selection_N>
N

>  <Serie>
Tetrahydrothienopyridine

>  <Selection_T>


>  <Train_Vs_Test>


$$$$
CTX-1020734
OCL MolfileCreator  2D

  0  0  0  0  0  0              0 V3000
M  V30 BEGIN CTAB
M  V30 COUNTS 38 44 0 0 0
M  V30 BEGIN ATOM
M  V30 1 Cl 7.4316 -5.4219 0.0 0
M  V30 2 C 6.4535 -5.214 0.0 0
M  V30 3 C 6.0467 -4.3005 0.0 0
M  V30 4 C 5.7103 -5.8831 0.0 0
M  V30 5 S 5.0522 -4.405 0.0 0
M  V30 6 C 6.5467 -3.4344 0.0 0
M  V30 7 C 4.8443 -5.3831 0.0 0
M  V30 8 C 5.7103 -6.8831 0.0 0
M  V30 9 O 7.5467 -3.4344 0.0 0
M  V30 10 N 6.0467 -2.5684 0.0 0
M  V30 11 C 3.9783 -5.8831 0.0 0
M  V30 12 C 4.8443 -7.3831 0.0 0
M  V30 13 C 5.0467 -2.5684 0.0 0
M  V30 14 C 6.5467 -1.7024 0.0 0
M  V30 15 C 3.9783 -6.8831 0.0 0
M  V30 16 C 4.5467 -1.7024 0.0 0
M  V30 17 C 6.0467 -0.8364 0.0 0
M  V30 18 C 5.0467 -0.8364 0.0 0
M  V30 19 C 3.5686 -1.4945 0.0 0
M  V30 20 S 4.3776 -0.0932 0.0 0
M  V30 21 C 3.4641 -0.5 0.0 0
M  V30 22 C 2.598 0.0 0.0 0
M  V30 23 O 2.598 1.0 0.0 0
M  V30 24 N 1.732 -0.5 0.0 0
M  V30 25 C 0.866 0.0 0.0 0
M  V30 26 C 0.0 -0.5 0.0 0
M  V30 27 C -0.866 0.0 0.0 0
M  V30 28 C 0.0 -1.4999 0.0 0
M  V30 29 C -1.732 -0.4999 0.0 0
M  V30 30 C -0.866 -1.9999 0.0 0
M  V30 31 C -1.732 -1.4999 0.0 0
M  V30 32 N -2.598 -1.9999 0.0 0
M  V30 33 C -3.564 -1.7411 0.0 0
M  V30 34 C -2.8568 -2.9659 0.0 0
M  V30 35 C -3.8228 -2.7071 0.0 0
M  V30 36 C -4.7887 -2.4482 0.0 0
M  V30 37 C -4.0816 -3.673 0.0 0
M  V30 38 O -5.0475 -3.4142 0.0 0
M  V30 END ATOM
M  V30 BEGIN BOND
M  V30 1 1 1 2
M  V30 2 2 2 3
M  V30 3 1 2 4
M  V30 4 1 3 5
M  V30 5 1 3 6
M  V30 6 2 4 7
M  V30 7 1 4 8
M  V30 8 2 6 9
M  V30 9 1 6 10
M  V30 10 1 7 11
M  V30 11 2 8 12
M  V30 12 1 10 13
M  V30 13 1 10 14
M  V30 14 2 11 15
M  V30 15 1 13 16
M  V30 16 1 14 17
M  V30 17 2 16 18
M  V30 18 1 16 19
M  V30 19 1 18 20
M  V30 20 2 19 21
M  V30 21 1 21 22
M  V30 22 2 22 23
M  V30 23 1 22 24
M  V30 24 1 24 25
M  V30 25 1 25 26
M  V30 26 2 26 27
M  V30 27 1 26 28
M  V30 28 1 27 29
M  V30 29 2 28 30
M  V30 30 2 29 31
M  V30 31 1 31 32
M  V30 32 1 32 33
M  V30 33 1 32 34
M  V30 34 1 33 35
M  V30 35 1 35 36
M  V30 36 1 35 37
M  V30 37 1 36 38
M  V30 38 1 5 7
M  V30 39 1 12 15
M  V30 40 1 17 18
M  V30 41 1 20 21
M  V30 42 1 30 31
M  V30 43 1 34 35
M  V30 44 1 37 38
M  V30 END BOND
M  V30 END CTAB
M  END
>  <Molecule Name>
CTX-1020734

>  <SMILES>
ClC1=C(SC2=CC=CC=C12)C(=O)N1CCC2=C(C1)C=C(S2)C(=O)NCC1=CC=C(C=C1)N1CC2(COC2)C1

>  <Batch Name>
CTX-1020734-1

>  <Batch Created Date>
2021-12-16

>  <Batch ID>
CTX-1020734-1

>  <External ID>
CD-44-2-O

>  <Stereochemistry>
Achiral

>  <Amount 1>
6.5

>  <Unit 1>
mg

>  <CRO 1>
Pharmaron

>  <CRO 1 Total Amount>
22.1

>  <CRO 1 Unit>
mg

>  <Pharmaron Solubility (PBS, pH 7.4): Aqueous Solubility - Batch Mean (uM)>
0.0024

>  <Pharmaron Solubility (PBS, pH 7.4): Aqueous Solubility - Batch Mean (uM) Standard Deviation (±)>


>  <Pharmaron Solubility (PBS, pH 7.4): Aqueous Solubility - Batch Mean (uM) Count>
1.0

>  <log P>
5.06

>  <log D>
5.06

>  <Pharmaron Caliper Assay (CDK2/CCNE1): Minimum measured (%)>
59.3

>  <Pharmaron Caliper Assay (CDK2/CCNE1): IC50 - Batch Mean (uM)>
0.788

>  <Pharmaron ADPGLO (CDK2/E1-25C): Minimum measured (%)>


>  <Pharmaron ADPGLO (CDK2/E1-25C): IC50 - Batch Mean (uM)>


>  <Pharmaron ADPGLO (CDK2/E1-37C): Minimum measured (%)>


>  <Pharmaron ADPGLO (CDK2/E1-37C): IC50 - Batch Mean (uM)>


>  <IncuCyte Kuramochi RB-WT: IC50 - Batch Mean (uM)>
20.0

>  <IncuCyte Kuramochi RB-KO: IC50 - Batch Mean (uM)>
20.0

>  <DSF (npCDK2/CCNE1): dTm D - Batch Mean [Concentration: 100]>


>  <DSF (npCDK2/CCNE1): dTm D - Batch Mean [Concentration: 20.0]>
1.906

>  <DSF (pCDK2/CCNE1): dTm D - Batch Mean [Concentration: 100]>


>  <DSF (pCDK2/CCNE1): dTm D - Batch Mean [Concentration: 20.0]>


>  <RLM: t1/2 - Batch Mean (Min)>


>  <RLM: Cl int - Batch Mean (uL/min/mg protein)>


>  <RLM: ER (Hepatic extraction ratio) - Batch Mean>


>  <HLM: t1/2 - Batch Mean (Min)>


>  <HLM: Cl int - Batch Mean (uL/min/mg protein)>


>  <HLM: ER (Hepatic extraction ratio) - Batch Mean>


>  <MDCK-WT 4% BSA: Papp (A-B) - Batch Mean (10-6, cm/s)>


>  <MDCK-WT 4% BSA: Papp (B-A) - Batch Mean (10-6, cm/s)>


>  <MDCK-WT 4% BSA: Efflux Ratio - Batch Mean>


>  <MDCK-WT 4% BSA: ~Net A_B - Batch Mean (10-6, cm/s)>


>  <pIC50>
6.103474

>  <Selection_1>
Y

>  <Selection_N>
N

>  <Serie>
Tetrahydrothienopyridine

>  <Selection_T>


>  <Train_Vs_Test>


$$$$
CTX-1020733
OCL MolfileCreator  2D

  0  0  0  0  0  0              0 V3000
M  V30 BEGIN CTAB
M  V30 COUNTS 31 35 0 0 0
M  V30 BEGIN ATOM
M  V30 1 Cl 7.4316 -5.4219 0.0 0
M  V30 2 C 6.4535 -5.214 0.0 0
M  V30 3 C 6.0467 -4.3005 0.0 0
M  V30 4 C 5.7103 -5.8831 0.0 0
M  V30 5 S 5.0522 -4.405 0.0 0
M  V30 6 C 6.5467 -3.4344 0.0 0
M  V30 7 C 4.8443 -5.3831 0.0 0
M  V30 8 C 5.7103 -6.8831 0.0 0
M  V30 9 O 7.5467 -3.4344 0.0 0
M  V30 10 N 6.0467 -2.5684 0.0 0
M  V30 11 C 3.9783 -5.8831 0.0 0
M  V30 12 C 4.8443 -7.3831 0.0 0
M  V30 13 C 5.0467 -2.5684 0.0 0
M  V30 14 C 6.5467 -1.7024 0.0 0
M  V30 15 C 3.9783 -6.8831 0.0 0
M  V30 16 C 4.5467 -1.7024 0.0 0
M  V30 17 C 6.0467 -0.8364 0.0 0
M  V30 18 C 5.0467 -0.8364 0.0 0
M  V30 19 C 3.5686 -1.4945 0.0 0
M  V30 20 S 4.3776 -0.0932 0.0 0
M  V30 21 C 3.4641 -0.5 0.0 0
M  V30 22 C 2.598 0.0 0.0 0
M  V30 23 O 2.598 1.0 0.0 0
M  V30 24 N 1.732 -0.5 0.0 0
M  V30 25 C 0.866 0.0 0.0 0
M  V30 26 C 0.0 -0.5 0.0 0
M  V30 27 C -0.866 0.0 0.0 0
M  V30 28 C 0.0 -1.4999 0.0 0
M  V30 29 C -1.732 -0.4999 0.0 0
M  V30 30 C -0.866 -1.9999 0.0 0
M  V30 31 N -1.732 -1.4999 0.0 0
M  V30 END ATOM
M  V30 BEGIN BOND
M  V30 1 1 1 2
M  V30 2 2 2 3
M  V30 3 1 2 4
M  V30 4 1 3 5
M  V30 5 1 3 6
M  V30 6 2 4 7
M  V30 7 1 4 8
M  V30 8 2 6 9
M  V30 9 1 6 10
M  V30 10 1 7 11
M  V30 11 2 8 12
M  V30 12 1 10 13
M  V30 13 1 10 14
M  V30 14 2 11 15
M  V30 15 1 13 16
M  V30 16 1 14 17
M  V30 17 2 16 18
M  V30 18 1 16 19
M  V30 19 1 18 20
M  V30 20 2 19 21
M  V30 21 1 21 22
M  V30 22 2 22 23
M  V30 23 1 22 24
M  V30 24 1 24 25
M  V30 25 1 25 26
M  V30 26 2 26 27
M  V30 27 1 26 28
M  V30 28 1 27 29
M  V30 29 2 28 30
M  V30 30 2 29 31
M  V30 31 1 5 7
M  V30 32 1 12 15
M  V30 33 1 17 18
M  V30 34 1 20 21
M  V30 35 1 30 31
M  V30 END BOND
M  V30 END CTAB
M  END
>  <Molecule Name>
CTX-1020733

>  <SMILES>
ClC1=C(SC2=CC=CC=C12)C(=O)N1CCC2=C(C1)C=C(S2)C(=O)NCC1=CC=NC=C1

>  <Batch Name>
CTX-1020733-1

>  <Batch Created Date>
2021-12-16

>  <Batch ID>
CTX-1020733-1

>  <External ID>
CD-44-2-M

>  <Stereochemistry>
Achiral

>  <Amount 1>
2.7

>  <Unit 1>
mg

>  <CRO 1>
Pharmaron

>  <CRO 1 Total Amount>
18.1

>  <CRO 1 Unit>
mg

>  <Pharmaron Solubility (PBS, pH 7.4): Aqueous Solubility - Batch Mean (uM)>
0.408

>  <Pharmaron Solubility (PBS, pH 7.4): Aqueous Solubility - Batch Mean (uM) Standard Deviation (±)>


>  <Pharmaron Solubility (PBS, pH 7.4): Aqueous Solubility - Batch Mean (uM) Count>
1.0

>  <log P>
4.27

>  <log D>
4.27

>  <Pharmaron Caliper Assay (CDK2/CCNE1): Minimum measured (%)>
68.7

>  <Pharmaron Caliper Assay (CDK2/CCNE1): IC50 - Batch Mean (uM)>
5.36

>  <Pharmaron ADPGLO (CDK2/E1-25C): Minimum measured (%)>


>  <Pharmaron ADPGLO (CDK2/E1-25C): IC50 - Batch Mean (uM)>


>  <Pharmaron ADPGLO (CDK2/E1-37C): Minimum measured (%)>


>  <Pharmaron ADPGLO (CDK2/E1-37C): IC50 - Batch Mean (uM)>


>  <IncuCyte Kuramochi RB-WT: IC50 - Batch Mean (uM)>


>  <IncuCyte Kuramochi RB-KO: IC50 - Batch Mean (uM)>


>  <DSF (npCDK2/CCNE1): dTm D - Batch Mean [Concentration: 100]>


>  <DSF (npCDK2/CCNE1): dTm D - Batch Mean [Concentration: 20.0]>


>  <DSF (pCDK2/CCNE1): dTm D - Batch Mean [Concentration: 100]>


>  <DSF (pCDK2/CCNE1): dTm D - Batch Mean [Concentration: 20.0]>


>  <RLM: t1/2 - Batch Mean (Min)>


>  <RLM: Cl int - Batch Mean (uL/min/mg protein)>


>  <RLM: ER (Hepatic extraction ratio) - Batch Mean>


>  <HLM: t1/2 - Batch Mean (Min)>


>  <HLM: Cl int - Batch Mean (uL/min/mg protein)>


>  <HLM: ER (Hepatic extraction ratio) - Batch Mean>


>  <MDCK-WT 4% BSA: Papp (A-B) - Batch Mean (10-6, cm/s)>


>  <MDCK-WT 4% BSA: Papp (B-A) - Batch Mean (10-6, cm/s)>


>  <MDCK-WT 4% BSA: Efflux Ratio - Batch Mean>


>  <MDCK-WT 4% BSA: ~Net A_B - Batch Mean (10-6, cm/s)>


>  <pIC50>
5.270835

>  <Selection_1>
Y

>  <Selection_N>
N

>  <Serie>
Tetrahydrothienopyridine

>  <Selection_T>


>  <Train_Vs_Test>


$$$$
CTX-1020732
OCL MolfileCreator  2D

  0  0  0  0  0  0              0 V3000
M  V30 BEGIN CTAB
M  V30 COUNTS 38 43 0 0 0
M  V30 BEGIN ATOM
M  V30 1 Cl 11.1474 -8.1329 0.0 0
M  V30 2 C 9.6802 -7.821 0.0 0
M  V30 3 C 9.0701 -6.4507 0.0 0
M  V30 4 C 8.5655 -8.8247 0.0 0
M  V30 5 S 7.5783 -6.6075 0.0 0
M  V30 6 C 9.8201 -5.1517 0.0 0
M  V30 7 C 7.2665 -8.0747 0.0 0
M  V30 8 C 8.5655 -10.3247 0.0 0
M  V30 9 O 11.3201 -5.1517 0.0 0
M  V30 10 N 9.0701 -3.8526 0.0 0
M  V30 11 N 5.9674 -8.8247 0.0 0
M  V30 12 C 7.2665 -11.0747 0.0 0
M  V30 13 C 7.5701 -3.8526 0.0 0
M  V30 14 C 9.8201 -2.5536 0.0 0
M  V30 15 C 5.9674 -10.3247 0.0 0
M  V30 16 C 6.8201 -2.5536 0.0 0
M  V30 17 C 9.0701 -1.2546 0.0 0
M  V30 18 C 7.5701 -1.2546 0.0 0
M  V30 19 C 5.3529 -2.2417 0.0 0
M  V30 20 S 6.5664 -0.1398 0.0 0
M  V30 21 C 5.1961 -0.75 0.0 0
M  V30 22 C 3.8971 0.0 0.0 0
M  V30 23 O 3.8971 1.5 0.0 0
M  V30 24 N 2.598 -0.75 0.0 0
M  V30 25 C 1.299 0.0 0.0 0
M  V30 26 C 0.0 -0.75 0.0 0
M  V30 27 C -1.299 0.0 0.0 0
M  V30 28 C 0.0 -2.2499 0.0 0
M  V30 29 C -2.598 -0.7499 0.0 0
M  V30 30 C -1.299 -2.9999 0.0 0
M  V30 31 C -2.598 -2.2499 0.0 0
M  V30 32 N -3.8971 -2.9999 0.0 0
M  V30 33 C -5.1961 -2.2499 0.0 0
M  V30 34 C -3.8971 -4.4999 0.0 0
M  V30 35 C -6.4951 -2.9999 0.0 0
M  V30 36 C -5.1961 -5.2499 0.0 0
M  V30 37 N -6.4951 -4.4999 0.0 0
M  V30 38 C -7.7942 -5.2499 0.0 0
M  V30 END ATOM
M  V30 BEGIN BOND
M  V30 1 1 1 2
M  V30 2 2 2 3
M  V30 3 1 2 4
M  V30 4 1 3 5
M  V30 5 1 3 6
M  V30 6 2 4 7
M  V30 7 1 4 8
M  V30 8 2 6 9
M  V30 9 1 6 10
M  V30 10 1 7 11
M  V30 11 2 8 12
M  V30 12 1 10 13
M  V30 13 1 10 14
M  V30 14 2 11 15
M  V30 15 1 13 16
M  V30 16 1 14 17
M  V30 17 2 16 18
M  V30 18 1 16 19
M  V30 19 1 18 20
M  V30 20 2 19 21
M  V30 21 1 21 22
M  V30 22 2 22 23
M  V30 23 1 22 24
M  V30 24 1 24 25
M  V30 25 1 25 26
M  V30 26 2 26 27
M  V30 27 1 26 28
M  V30 28 1 27 29
M  V30 29 2 28 30
M  V30 30 2 29 31
M  V30 31 1 31 32
M  V30 32 1 32 33
M  V30 33 1 32 34
M  V30 34 1 33 35
M  V30 35 1 34 36
M  V30 36 1 35 37
M  V30 37 1 37 38
M  V30 38 1 5 7
M  V30 39 1 12 15
M  V30 40 1 17 18
M  V30 41 1 20 21
M  V30 42 1 30 31
M  V30 43 1 36 37
M  V30 END BOND
M  V30 END CTAB
M  END
>  <Molecule Name>
CTX-1020732

>  <SMILES>
CN1CCN(CC1)C1=CC=C(CNC(=O)C2=CC3=C(CCN(C3)C(=O)C3=C(Cl)C4=CC=CN=C4S3)S2)C=C1

>  <Batch Name>
CTX-1020732-1

>  <Batch Created Date>
2021-12-16

>  <Batch ID>
CTX-1020732-1

>  <External ID>
CD-44-2-I

>  <Stereochemistry>
Achiral

>  <Amount 1>
18.9

>  <Unit 1>
mg

>  <CRO 1>
Pharmaron

>  <CRO 1 Total Amount>
32.2

>  <CRO 1 Unit>
mg

>  <Pharmaron Solubility (PBS, pH 7.4): Aqueous Solubility - Batch Mean (uM)>
26.0789

>  <Pharmaron Solubility (PBS, pH 7.4): Aqueous Solubility - Batch Mean (uM) Standard Deviation (±)>


>  <Pharmaron Solubility (PBS, pH 7.4): Aqueous Solubility - Batch Mean (uM) Count>
1.0

>  <log P>
4.6

>  <log D>
3.96

>  <Pharmaron Caliper Assay (CDK2/CCNE1): Minimum measured (%)>
32.8

>  <Pharmaron Caliper Assay (CDK2/CCNE1): IC50 - Batch Mean (uM)>
9.29

>  <Pharmaron ADPGLO (CDK2/E1-25C): Minimum measured (%)>


>  <Pharmaron ADPGLO (CDK2/E1-25C): IC50 - Batch Mean (uM)>


>  <Pharmaron ADPGLO (CDK2/E1-37C): Minimum measured (%)>


>  <Pharmaron ADPGLO (CDK2/E1-37C): IC50 - Batch Mean (uM)>


>  <IncuCyte Kuramochi RB-WT: IC50 - Batch Mean (uM)>
8.08

>  <IncuCyte Kuramochi RB-KO: IC50 - Batch Mean (uM)>
11.6

>  <DSF (npCDK2/CCNE1): dTm D - Batch Mean [Concentration: 100]>


>  <DSF (npCDK2/CCNE1): dTm D - Batch Mean [Concentration: 20.0]>
1.07

>  <DSF (pCDK2/CCNE1): dTm D - Batch Mean [Concentration: 100]>


>  <DSF (pCDK2/CCNE1): dTm D - Batch Mean [Concentration: 20.0]>


>  <RLM: t1/2 - Batch Mean (Min)>


>  <RLM: Cl int - Batch Mean (uL/min/mg protein)>


>  <RLM: ER (Hepatic extraction ratio) - Batch Mean>


>  <HLM: t1/2 - Batch Mean (Min)>


>  <HLM: Cl int - Batch Mean (uL/min/mg protein)>


>  <HLM: ER (Hepatic extraction ratio) - Batch Mean>


>  <MDCK-WT 4% BSA: Papp (A-B) - Batch Mean (10-6, cm/s)>


>  <MDCK-WT 4% BSA: Papp (B-A) - Batch Mean (10-6, cm/s)>


>  <MDCK-WT 4% BSA: Efflux Ratio - Batch Mean>


>  <MDCK-WT 4% BSA: ~Net A_B - Batch Mean (10-6, cm/s)>


>  <pIC50>
5.031984

>  <Selection_1>
Y

>  <Selection_N>
N

>  <Serie>
Tetrahydrothienopyridine

>  <Selection_T>


>  <Train_Vs_Test>


$$$$
CTX-1020726
OCL MolfileCreator  2D

  0  0  0  0  0  0              0 V3000
M  V30 BEGIN CTAB
M  V30 COUNTS 34 39 0 0 0
M  V30 BEGIN ATOM
M  V30 1 O 3.8971 0.0 0.0 0
M  V30 2 C 2.598 -0.75 0.0 0
M  V30 3 N 1.299 0.0 0.0 0
M  V30 4 C 2.598 -2.25 0.0 0
M  V30 5 C 0.0 -0.75 0.0 0
M  V30 6 N 1.299 -3.0 0.0 0
M  V30 7 C 3.8971 -3.0 0.0 0
M  V30 8 C -1.3703 -0.1398 0.0 0
M  V30 9 C -0.1567 -2.2417 0.0 0
M  V30 10 C 1.299 -4.5 0.0 0
M  V30 11 C 3.8971 -4.5 0.0 0
M  V30 12 N -2.374 -1.2546 0.0 0
M  V30 13 C -1.8338 1.2866 0.0 0
M  V30 14 N -1.624 -2.5536 0.0 0
M  V30 15 C 2.598 -5.25 0.0 0
M  V30 16 C 0.0 -5.25 0.0 0
M  V30 17 C -3.8412 -0.9427 0.0 0
M  V30 18 C -3.301 1.5985 0.0 0
M  V30 19 C 2.598 -6.75 0.0 0
M  V30 20 N 0.0 -6.75 0.0 0
M  V30 21 C -4.3047 0.4838 0.0 0
M  V30 22 C 1.299 -7.5 0.0 0
M  V30 23 C -1.299 -7.5 0.0 0
M  V30 24 O -2.598 -6.75 0.0 0
M  V30 25 C -1.299 -9.0 0.0 0
M  V30 26 O -2.5125 -9.8816 0.0 0
M  V30 27 C -0.0855 -9.8816 0.0 0
M  V30 28 C -2.049 -11.3082 0.0 0
M  V30 29 C -0.549 -11.3082 0.0 0
M  V30 30 C 1.341 -9.4181 0.0 0
M  V30 31 C -2.799 -12.6073 0.0 0
M  V30 32 C 0.2009 -12.6073 0.0 0
M  V30 33 C -2.049 -13.9063 0.0 0
M  V30 34 C -0.549 -13.9063 0.0 0
M  V30 END ATOM
M  V30 BEGIN BOND
M  V30 1 2 1 2
M  V30 2 1 2 3
M  V30 3 1 2 4
M  V30 4 1 3 5
M  V30 5 2 4 6
M  V30 6 1 4 7
M  V30 7 2 5 8
M  V30 8 1 5 9
M  V30 9 1 6 10
M  V30 10 2 7 11
M  V30 11 1 8 12
M  V30 12 1 8 13
M  V30 13 2 9 14
M  V30 14 2 10 15
M  V30 15 1 10 16
M  V30 16 1 12 17
M  V30 17 2 13 18
M  V30 18 1 15 19
M  V30 19 1 16 20
M  V30 20 2 17 21
M  V30 21 1 19 22
M  V30 22 1 20 23
M  V30 23 2 23 24
M  V30 24 1 23 25
M  V30 25 1 25 26
M  V30 26 2 25 27
M  V30 27 1 26 28
M  V30 28 1 27 29
M  V30 29 1 27 30
M  V30 30 1 28 31
M  V30 31 1 29 32
M  V30 32 2 31 33
M  V30 33 2 32 34
M  V30 34 1 11 15
M  V30 35 1 12 14
M  V30 36 1 18 21
M  V30 37 1 20 22
M  V30 38 2 28 29
M  V30 39 1 33 34
M  V30 END BOND
M  V30 END CTAB
M  END
>  <Molecule Name>
CTX-1020726

>  <SMILES>
CC1=C(OC2=C1C=CC=C2)C(=O)N1CCC2=CC=C(N=C2C1)C(=O)NC1=C2C=CC=CN2N=C1

>  <Batch Name>
CTX-1020726-1

>  <Batch Created Date>
2021-12-16

>  <Batch ID>
CTX-1020726-1

>  <External ID>
CD-42-E

>  <Stereochemistry>
Achiral

>  <Amount 1>
3.3

>  <Unit 1>
mg

>  <CRO 1>
Pharmaron

>  <CRO 1 Total Amount>
17.6

>  <CRO 1 Unit>
mg

>  <Pharmaron Solubility (PBS, pH 7.4): Aqueous Solubility - Batch Mean (uM)>
0.0286

>  <Pharmaron Solubility (PBS, pH 7.4): Aqueous Solubility - Batch Mean (uM) Standard Deviation (±)>


>  <Pharmaron Solubility (PBS, pH 7.4): Aqueous Solubility - Batch Mean (uM) Count>
1.0

>  <log P>
3.5

>  <log D>
3.5

>  <Pharmaron Caliper Assay (CDK2/CCNE1): Minimum measured (%)>
73.5

>  <Pharmaron Caliper Assay (CDK2/CCNE1): IC50 - Batch Mean (uM)>
81.6

>  <Pharmaron ADPGLO (CDK2/E1-25C): Minimum measured (%)>


>  <Pharmaron ADPGLO (CDK2/E1-25C): IC50 - Batch Mean (uM)>


>  <Pharmaron ADPGLO (CDK2/E1-37C): Minimum measured (%)>


>  <Pharmaron ADPGLO (CDK2/E1-37C): IC50 - Batch Mean (uM)>


>  <IncuCyte Kuramochi RB-WT: IC50 - Batch Mean (uM)>
20.0

>  <IncuCyte Kuramochi RB-KO: IC50 - Batch Mean (uM)>
20.0

>  <DSF (npCDK2/CCNE1): dTm D - Batch Mean [Concentration: 100]>


>  <DSF (npCDK2/CCNE1): dTm D - Batch Mean [Concentration: 20.0]>
-0.033

>  <DSF (pCDK2/CCNE1): dTm D - Batch Mean [Concentration: 100]>


>  <DSF (pCDK2/CCNE1): dTm D - Batch Mean [Concentration: 20.0]>


>  <RLM: t1/2 - Batch Mean (Min)>


>  <RLM: Cl int - Batch Mean (uL/min/mg protein)>


>  <RLM: ER (Hepatic extraction ratio) - Batch Mean>


>  <HLM: t1/2 - Batch Mean (Min)>


>  <HLM: Cl int - Batch Mean (uL/min/mg protein)>


>  <HLM: ER (Hepatic extraction ratio) - Batch Mean>


>  <MDCK-WT 4% BSA: Papp (A-B) - Batch Mean (10-6, cm/s)>


>  <MDCK-WT 4% BSA: Papp (B-A) - Batch Mean (10-6, cm/s)>


>  <MDCK-WT 4% BSA: Efflux Ratio - Batch Mean>


>  <MDCK-WT 4% BSA: ~Net A_B - Batch Mean (10-6, cm/s)>


>  <pIC50>
4.08831

>  <Selection_1>
Y

>  <Selection_N>
Y

>  <Serie>
Naphthyridine

>  <Selection_T>
N

>  <Train_Vs_Test>


$$$$
CTX-1020699
OCL MolfileCreator  2D

  0  0  0  0  0  0              0 V3000
M  V30 BEGIN CTAB
M  V30 COUNTS 35 40 0 0 0
M  V30 BEGIN ATOM
M  V30 1 O 2.598 0.0 0.0 0
M  V30 2 C 1.732 -0.5 0.0 0
M  V30 3 N 0.866 0.0 0.0 0
M  V30 4 C 1.732 -1.5 0.0 0
M  V30 5 C 0.0 -0.5 0.0 0 CFG=2
M  V30 6 N 0.866 -2.0 0.0 0
M  V30 7 C 2.598 -2.0 0.0 0
M  V30 8 C -0.866 0.0 0.0 0
M  V30 9 C 0.0 -1.4999 0.0 0
M  V30 10 C 0.866 -3.0 0.0 0
M  V30 11 C 2.598 -2.9999 0.0 0
M  V30 12 C -1.732 -0.4999 0.0 0
M  V30 13 C -0.866 1.0 0.0 0
M  V30 14 C -0.866 -1.9999 0.0 0
M  V30 15 C 1.732 -3.5 0.0 0
M  V30 16 C 0.0 -3.5 0.0 0
M  V30 17 C -2.598 0.0 0.0 0
M  V30 18 C -1.732 -1.4999 0.0 0
M  V30 19 C -1.732 1.5 0.0 0
M  V30 20 C 1.732 -4.5 0.0 0
M  V30 21 N 0.0 -4.5 0.0 0
M  V30 22 C -2.598 1.0 0.0 0
M  V30 23 C 0.866 -5.0 0.0 0
M  V30 24 C -0.866 -5.0 0.0 0
M  V30 25 O -1.732 -4.5 0.0 0
M  V30 26 C -0.866 -6.0 0.0 0
M  V30 27 O -1.675 -6.5877 0.0 0
M  V30 28 C -0.057 -6.5877 0.0 0
M  V30 29 C -1.366 -7.5388 0.0 0
M  V30 30 C -0.366 -7.5388 0.0 0
M  V30 31 C 0.894 -6.2787 0.0 0
M  V30 32 C -1.866 -8.4048 0.0 0
M  V30 33 C 0.1339 -8.4048 0.0 0
M  V30 34 C -1.366 -9.2708 0.0 0
M  V30 35 C -0.366 -9.2708 0.0 0
M  V30 END ATOM
M  V30 BEGIN BOND
M  V30 1 2 1 2
M  V30 2 1 2 3
M  V30 3 1 2 4
M  V30 4 1 5 3 CFG=1
M  V30 5 2 4 6
M  V30 6 1 4 7
M  V30 7 1 5 8
M  V30 8 1 5 9
M  V30 9 1 6 10
M  V30 10 2 7 11
M  V30 11 2 8 12
M  V30 12 1 8 13
M  V30 13 1 9 14
M  V30 14 2 10 15
M  V30 15 1 10 16
M  V30 16 1 12 17
M  V30 17 1 12 18
M  V30 18 2 13 19
M  V30 19 1 15 20
M  V30 20 1 16 21
M  V30 21 2 17 22
M  V30 22 1 20 23
M  V30 23 1 21 24
M  V30 24 2 24 25
M  V30 25 1 24 26
M  V30 26 1 26 27
M  V30 27 2 26 28
M  V30 28 1 27 29
M  V30 29 1 28 30
M  V30 30 1 28 31
M  V30 31 1 29 32
M  V30 32 1 30 33
M  V30 33 2 32 34
M  V30 34 2 33 35
M  V30 35 1 11 15
M  V30 36 1 14 18
M  V30 37 1 19 22
M  V30 38 1 21 23
M  V30 39 2 29 30
M  V30 40 1 34 35
M  V30 END BOND
M  V30 BEGIN COLLECTION
M  V30 MDLV30/STERAC1 ATOMS=(1 5)
M  V30 END COLLECTION
M  V30 END CTAB
M  END
>  <Molecule Name>
CTX-1020699

>  <SMILES>
CC1=C(OC2=C1C=CC=C2)C(=O)N1CCC2=CC=C(N=C2C1)C(=O)NC1CCCC2=C1C=CC=C2

>  <Batch Name>
CTX-1020699-1

>  <Batch Created Date>
2021-12-09

>  <Batch ID>
CTX-1020699-1

>  <External ID>
CD-42-G

>  <Stereochemistry>
Racemic or presumed racemic

>  <Amount 1>
2.3

>  <Unit 1>
mg

>  <CRO 1>
Pharmaron

>  <CRO 1 Total Amount>
15.7

>  <CRO 1 Unit>
mg

>  <Pharmaron Solubility (PBS, pH 7.4): Aqueous Solubility - Batch Mean (uM)>
0.0006

>  <Pharmaron Solubility (PBS, pH 7.4): Aqueous Solubility - Batch Mean (uM) Standard Deviation (±)>


>  <Pharmaron Solubility (PBS, pH 7.4): Aqueous Solubility - Batch Mean (uM) Count>
1.0

>  <log P>
4.67

>  <log D>
4.67

>  <Pharmaron Caliper Assay (CDK2/CCNE1): Minimum measured (%)>
77.3

>  <Pharmaron Caliper Assay (CDK2/CCNE1): IC50 - Batch Mean (uM)>
19.0

>  <Pharmaron ADPGLO (CDK2/E1-25C): Minimum measured (%)>


>  <Pharmaron ADPGLO (CDK2/E1-25C): IC50 - Batch Mean (uM)>


>  <Pharmaron ADPGLO (CDK2/E1-37C): Minimum measured (%)>


>  <Pharmaron ADPGLO (CDK2/E1-37C): IC50 - Batch Mean (uM)>


>  <IncuCyte Kuramochi RB-WT: IC50 - Batch Mean (uM)>
20.0

>  <IncuCyte Kuramochi RB-KO: IC50 - Batch Mean (uM)>
20.0

>  <DSF (npCDK2/CCNE1): dTm D - Batch Mean [Concentration: 100]>


>  <DSF (npCDK2/CCNE1): dTm D - Batch Mean [Concentration: 20.0]>
-1.14

>  <DSF (pCDK2/CCNE1): dTm D - Batch Mean [Concentration: 100]>


>  <DSF (pCDK2/CCNE1): dTm D - Batch Mean [Concentration: 20.0]>
-0.207

>  <RLM: t1/2 - Batch Mean (Min)>


>  <RLM: Cl int - Batch Mean (uL/min/mg protein)>


>  <RLM: ER (Hepatic extraction ratio) - Batch Mean>


>  <HLM: t1/2 - Batch Mean (Min)>


>  <HLM: Cl int - Batch Mean (uL/min/mg protein)>


>  <HLM: ER (Hepatic extraction ratio) - Batch Mean>


>  <MDCK-WT 4% BSA: Papp (A-B) - Batch Mean (10-6, cm/s)>


>  <MDCK-WT 4% BSA: Papp (B-A) - Batch Mean (10-6, cm/s)>


>  <MDCK-WT 4% BSA: Efflux Ratio - Batch Mean>


>  <MDCK-WT 4% BSA: ~Net A_B - Batch Mean (10-6, cm/s)>


>  <pIC50>
4.721246

>  <Selection_1>
Y

>  <Selection_N>


>  <Serie>
Naphthyridine

>  <Selection_T>
N

>  <Train_Vs_Test>


$$$$
CTX-1020698
OCL MolfileCreator  2D

  0  0  0  0  0  0              0 V3000
M  V30 BEGIN CTAB
M  V30 COUNTS 38 43 0 0 0
M  V30 BEGIN ATOM
M  V30 1 O 5.1961 -0.75 0.0 0
M  V30 2 C 3.8971 0.0 0.0 0
M  V30 3 N 2.598 -0.75 0.0 0
M  V30 4 C 3.8971 1.5 0.0 0
M  V30 5 C 1.299 0.0 0.0 0
M  V30 6 N 5.1961 2.25 0.0 0
M  V30 7 C 2.598 2.25 0.0 0
M  V30 8 C 0.0 -0.75 0.0 0
M  V30 9 C 5.1961 3.75 0.0 0
M  V30 10 C 2.598 3.75 0.0 0
M  V30 11 C -1.299 0.0 0.0 0
M  V30 12 C 0.0 -2.2499 0.0 0
M  V30 13 C 3.8971 4.5 0.0 0
M  V30 14 C 6.4951 4.5 0.0 0
M  V30 15 C -2.598 -0.7499 0.0 0
M  V30 16 C -1.299 -2.9999 0.0 0
M  V30 17 C 3.8971 6.0 0.0 0
M  V30 18 N 6.4951 6.0 0.0 0
M  V30 19 C -2.598 -2.2499 0.0 0
M  V30 20 C 5.1961 6.75 0.0 0
M  V30 21 C 7.7942 6.75 0.0 0
M  V30 22 C -3.8971 -2.9999 0.0 0
M  V30 23 O 9.0932 6.0 0.0 0
M  V30 24 C 7.7942 8.25 0.0 0
M  V30 25 C -5.1961 -2.2499 0.0 0
M  V30 26 C -3.8971 -4.4999 0.0 0
M  V30 27 O 9.0077 9.1316 0.0 0
M  V30 28 C 6.5807 9.1316 0.0 0
M  V30 29 C -6.4951 -2.9999 0.0 0
M  V30 30 C -5.1961 -5.2499 0.0 0
M  V30 31 C 8.5442 10.5582 0.0 0
M  V30 32 C 7.0442 10.5582 0.0 0
M  V30 33 C 5.1541 8.6681 0.0 0
M  V30 34 N -6.4951 -4.4999 0.0 0
M  V30 35 C 9.2942 11.8573 0.0 0
M  V30 36 C 6.2942 11.8573 0.0 0
M  V30 37 C 8.5442 13.1563 0.0 0
M  V30 38 C 7.0442 13.1563 0.0 0
M  V30 END ATOM
M  V30 BEGIN BOND
M  V30 1 2 1 2
M  V30 2 1 2 3
M  V30 3 1 2 4
M  V30 4 1 3 5
M  V30 5 2 4 6
M  V30 6 1 4 7
M  V30 7 1 5 8
M  V30 8 1 6 9
M  V30 9 2 7 10
M  V30 10 2 8 11
M  V30 11 1 8 12
M  V30 12 2 9 13
M  V30 13 1 9 14
M  V30 14 1 11 15
M  V30 15 2 12 16
M  V30 16 1 13 17
M  V30 17 1 14 18
M  V30 18 2 15 19
M  V30 19 1 17 20
M  V30 20 1 18 21
M  V30 21 1 19 22
M  V30 22 2 21 23
M  V30 23 1 21 24
M  V30 24 2 22 25
M  V30 25 1 22 26
M  V30 26 1 24 27
M  V30 27 2 24 28
M  V30 28 1 25 29
M  V30 29 2 26 30
M  V30 30 1 27 31
M  V30 31 1 28 32
M  V30 32 1 28 33
M  V30 33 2 29 34
M  V30 34 1 31 35
M  V30 35 1 32 36
M  V30 36 2 35 37
M  V30 37 2 36 38
M  V30 38 1 10 13
M  V30 39 1 16 19
M  V30 40 1 18 20
M  V30 41 1 30 34
M  V30 42 2 31 32
M  V30 43 1 37 38
M  V30 END BOND
M  V30 END CTAB
M  END
>  <Molecule Name>
CTX-1020698

>  <SMILES>
CC1=C(OC2=C1C=CC=C2)C(=O)N1CCC2=CC=C(N=C2C1)C(=O)NCC1=CC=C(C=C1)C1=CC=NC=C1

>  <Batch Name>
CTX-1020698-1

>  <Batch Created Date>
2021-12-09

>  <Batch ID>
CTX-1020698-1

>  <External ID>
CD-42-D

>  <Stereochemistry>
Achiral

>  <Amount 1>
2.5

>  <Unit 1>
mg

>  <CRO 1>
Pharmaron

>  <CRO 1 Total Amount>
19.2

>  <CRO 1 Unit>
mg

>  <Pharmaron Solubility (PBS, pH 7.4): Aqueous Solubility - Batch Mean (uM)>


>  <Pharmaron Solubility (PBS, pH 7.4): Aqueous Solubility - Batch Mean (uM) Standard Deviation (±)>


>  <Pharmaron Solubility (PBS, pH 7.4): Aqueous Solubility - Batch Mean (uM) Count>


>  <log P>
4.11

>  <log D>
4.1

>  <Pharmaron Caliper Assay (CDK2/CCNE1): Minimum measured (%)>
39.5

>  <Pharmaron Caliper Assay (CDK2/CCNE1): IC50 - Batch Mean (uM)>
1.11

>  <Pharmaron ADPGLO (CDK2/E1-25C): Minimum measured (%)>


>  <Pharmaron ADPGLO (CDK2/E1-25C): IC50 - Batch Mean (uM)>


>  <Pharmaron ADPGLO (CDK2/E1-37C): Minimum measured (%)>


>  <Pharmaron ADPGLO (CDK2/E1-37C): IC50 - Batch Mean (uM)>


>  <IncuCyte Kuramochi RB-WT: IC50 - Batch Mean (uM)>
20.0

>  <IncuCyte Kuramochi RB-KO: IC50 - Batch Mean (uM)>
8.64

>  <DSF (npCDK2/CCNE1): dTm D - Batch Mean [Concentration: 100]>


>  <DSF (npCDK2/CCNE1): dTm D - Batch Mean [Concentration: 20.0]>
1.097

>  <DSF (pCDK2/CCNE1): dTm D - Batch Mean [Concentration: 100]>


>  <DSF (pCDK2/CCNE1): dTm D - Batch Mean [Concentration: 20.0]>
0.226

>  <RLM: t1/2 - Batch Mean (Min)>
24.7

>  <RLM: Cl int - Batch Mean (uL/min/mg protein)>
56.42

>  <RLM: ER (Hepatic extraction ratio) - Batch Mean>
0.669

>  <HLM: t1/2 - Batch Mean (Min)>
5.33

>  <HLM: Cl int - Batch Mean (uL/min/mg protein)>
259.89

>  <HLM: ER (Hepatic extraction ratio) - Batch Mean>
0.927

>  <MDCK-WT 4% BSA: Papp (A-B) - Batch Mean (10-6, cm/s)>


>  <MDCK-WT 4% BSA: Papp (B-A) - Batch Mean (10-6, cm/s)>


>  <MDCK-WT 4% BSA: Efflux Ratio - Batch Mean>


>  <MDCK-WT 4% BSA: ~Net A_B - Batch Mean (10-6, cm/s)>


>  <pIC50>
5.954677

>  <Selection_1>
Y

>  <Selection_N>


>  <Serie>
Naphthyridine

>  <Selection_T>
N

>  <Train_Vs_Test>


$$$$
CTX-1020697
OCL MolfileCreator  2D

  0  0  0  0  0  0              0 V3000
M  V30 BEGIN CTAB
M  V30 COUNTS 39 44 0 0 0
M  V30 BEGIN ATOM
M  V30 1 O 5.1961 -0.75 0.0 0
M  V30 2 C 3.8971 0.0 0.0 0
M  V30 3 N 2.598 -0.75 0.0 0
M  V30 4 C 3.8971 1.5 0.0 0
M  V30 5 C 1.299 0.0 0.0 0
M  V30 6 N 5.1961 2.25 0.0 0
M  V30 7 C 2.598 2.25 0.0 0
M  V30 8 C 0.0 -0.75 0.0 0
M  V30 9 C 5.1961 3.75 0.0 0
M  V30 10 C 2.598 3.75 0.0 0
M  V30 11 C -1.299 0.0 0.0 0
M  V30 12 C 0.0 -2.2499 0.0 0
M  V30 13 C 3.8971 4.5 0.0 0
M  V30 14 C 6.4951 4.5 0.0 0
M  V30 15 C -2.598 -0.7499 0.0 0
M  V30 16 C -1.299 -2.9999 0.0 0
M  V30 17 C 3.8971 6.0 0.0 0
M  V30 18 N 6.4951 6.0 0.0 0
M  V30 19 C -2.598 -2.2499 0.0 0
M  V30 20 C 5.1961 6.75 0.0 0
M  V30 21 C 7.7942 6.75 0.0 0
M  V30 22 C -3.8971 -2.9999 0.0 0
M  V30 23 O 9.0932 6.0 0.0 0
M  V30 24 C 7.7942 8.25 0.0 0
M  V30 25 C -5.1961 -2.2499 0.0 0
M  V30 26 C -3.8971 -4.4999 0.0 0
M  V30 27 O 9.0077 9.1316 0.0 0
M  V30 28 C 6.5807 9.1316 0.0 0
M  V30 29 C -6.4951 -2.9999 0.0 0
M  V30 30 C -5.1961 -5.2499 0.0 0
M  V30 31 C 8.5442 10.5582 0.0 0
M  V30 32 C 7.0442 10.5582 0.0 0
M  V30 33 C 5.1541 8.6681 0.0 0
M  V30 34 N -6.4951 -4.4999 0.0 0
M  V30 35 C 9.2942 11.8573 0.0 0
M  V30 36 C 6.2942 11.8573 0.0 0
M  V30 37 C -7.7942 -5.2499 0.0 0
M  V30 38 C 8.5442 13.1563 0.0 0
M  V30 39 C 7.0442 13.1563 0.0 0
M  V30 END ATOM
M  V30 BEGIN BOND
M  V30 1 2 1 2
M  V30 2 1 2 3
M  V30 3 1 2 4
M  V30 4 1 3 5
M  V30 5 2 4 6
M  V30 6 1 4 7
M  V30 7 1 5 8
M  V30 8 1 6 9
M  V30 9 2 7 10
M  V30 10 2 8 11
M  V30 11 1 8 12
M  V30 12 2 9 13
M  V30 13 1 9 14
M  V30 14 1 11 15
M  V30 15 2 12 16
M  V30 16 1 13 17
M  V30 17 1 14 18
M  V30 18 2 15 19
M  V30 19 1 17 20
M  V30 20 1 18 21
M  V30 21 1 19 22
M  V30 22 2 21 23
M  V30 23 1 21 24
M  V30 24 1 22 25
M  V30 25 1 22 26
M  V30 26 1 24 27
M  V30 27 2 24 28
M  V30 28 1 25 29
M  V30 29 1 26 30
M  V30 30 1 27 31
M  V30 31 1 28 32
M  V30 32 1 28 33
M  V30 33 1 29 34
M  V30 34 1 31 35
M  V30 35 1 32 36
M  V30 36 1 34 37
M  V30 37 2 35 38
M  V30 38 2 36 39
M  V30 39 1 10 13
M  V30 40 1 16 19
M  V30 41 1 18 20
M  V30 42 1 30 34
M  V30 43 2 31 32
M  V30 44 1 38 39
M  V30 END BOND
M  V30 END CTAB
M  END
>  <Molecule Name>
CTX-1020697

>  <SMILES>
CN1CCC(CC1)C1=CC=C(CNC(=O)C2=CC=C3CCN(CC3=N2)C(=O)C2=C(C)C3=C(O2)C=CC=C3)C=C1

>  <Batch Name>
CTX-1020697-1

>  <Batch Created Date>
2021-12-09

>  <Batch ID>
CTX-1020697-1

>  <External ID>
CD-42-C

>  <Stereochemistry>
Achiral

>  <Amount 1>
2.1

>  <Unit 1>
mg

>  <CRO 1>
Pharmaron

>  <CRO 1 Total Amount>
17.1

>  <CRO 1 Unit>
mg

>  <Pharmaron Solubility (PBS, pH 7.4): Aqueous Solubility - Batch Mean (uM)>


>  <Pharmaron Solubility (PBS, pH 7.4): Aqueous Solubility - Batch Mean (uM) Standard Deviation (±)>


>  <Pharmaron Solubility (PBS, pH 7.4): Aqueous Solubility - Batch Mean (uM) Count>


>  <log P>
4.16

>  <log D>
2.43

>  <Pharmaron Caliper Assay (CDK2/CCNE1): Minimum measured (%)>
18.2

>  <Pharmaron Caliper Assay (CDK2/CCNE1): IC50 - Batch Mean (uM)>
3.87

>  <Pharmaron ADPGLO (CDK2/E1-25C): Minimum measured (%)>


>  <Pharmaron ADPGLO (CDK2/E1-25C): IC50 - Batch Mean (uM)>


>  <Pharmaron ADPGLO (CDK2/E1-37C): Minimum measured (%)>


>  <Pharmaron ADPGLO (CDK2/E1-37C): IC50 - Batch Mean (uM)>


>  <IncuCyte Kuramochi RB-WT: IC50 - Batch Mean (uM)>
11.3

>  <IncuCyte Kuramochi RB-KO: IC50 - Batch Mean (uM)>
6.02

>  <DSF (npCDK2/CCNE1): dTm D - Batch Mean [Concentration: 100]>


>  <DSF (npCDK2/CCNE1): dTm D - Batch Mean [Concentration: 20.0]>
0.6629999999999999

>  <DSF (pCDK2/CCNE1): dTm D - Batch Mean [Concentration: 100]>


>  <DSF (pCDK2/CCNE1): dTm D - Batch Mean [Concentration: 20.0]>
0.16

>  <RLM: t1/2 - Batch Mean (Min)>
5.25

>  <RLM: Cl int - Batch Mean (uL/min/mg protein)>
264.05

>  <RLM: ER (Hepatic extraction ratio) - Batch Mean>
0.905

>  <HLM: t1/2 - Batch Mean (Min)>
38.67

>  <HLM: Cl int - Batch Mean (uL/min/mg protein)>
36.44

>  <HLM: ER (Hepatic extraction ratio) - Batch Mean>
0.638

>  <MDCK-WT 4% BSA: Papp (A-B) - Batch Mean (10-6, cm/s)>


>  <MDCK-WT 4% BSA: Papp (B-A) - Batch Mean (10-6, cm/s)>


>  <MDCK-WT 4% BSA: Efflux Ratio - Batch Mean>


>  <MDCK-WT 4% BSA: ~Net A_B - Batch Mean (10-6, cm/s)>


>  <pIC50>
5.412289

>  <Selection_1>
Y

>  <Selection_N>


>  <Serie>
Naphthyridine

>  <Selection_T>
N

>  <Train_Vs_Test>


$$$$
CTX-1020696
OCL MolfileCreator  2D

  0  0  0  0  0  0              0 V3000
M  V30 BEGIN CTAB
M  V30 COUNTS 38 43 0 0 0
M  V30 BEGIN ATOM
M  V30 1 O 5.1961 -0.75 0.0 0
M  V30 2 C 3.8971 0.0 0.0 0
M  V30 3 N 2.598 -0.75 0.0 0
M  V30 4 C 3.8971 1.5 0.0 0
M  V30 5 C 1.299 0.0 0.0 0
M  V30 6 N 5.1961 2.25 0.0 0
M  V30 7 C 2.598 2.25 0.0 0
M  V30 8 C 0.0 -0.75 0.0 0
M  V30 9 C 5.1961 3.75 0.0 0
M  V30 10 C 2.598 3.75 0.0 0
M  V30 11 C -1.299 0.0 0.0 0
M  V30 12 C 0.0 -2.2499 0.0 0
M  V30 13 C 3.8971 4.5 0.0 0
M  V30 14 C 6.4951 4.5 0.0 0
M  V30 15 C -2.598 -0.7499 0.0 0
M  V30 16 C -1.299 -2.9999 0.0 0
M  V30 17 C 3.8971 6.0 0.0 0
M  V30 18 N 6.4951 6.0 0.0 0
M  V30 19 C -2.598 -2.2499 0.0 0
M  V30 20 C 5.1961 6.75 0.0 0
M  V30 21 C 7.7942 6.75 0.0 0
M  V30 22 C -3.8971 -2.9999 0.0 0
M  V30 23 O 9.0932 6.0 0.0 0
M  V30 24 C 7.7942 8.25 0.0 0
M  V30 25 C -5.1961 -2.2499 0.0 0
M  V30 26 C -3.8971 -4.4999 0.0 0
M  V30 27 O 9.0077 9.1316 0.0 0
M  V30 28 C 6.5807 9.1316 0.0 0
M  V30 29 C -6.4951 -2.9999 0.0 0
M  V30 30 C -5.1961 -5.2499 0.0 0
M  V30 31 C 8.5442 10.5582 0.0 0
M  V30 32 C 7.0442 10.5582 0.0 0
M  V30 33 C 5.1541 8.6681 0.0 0
M  V30 34 O -6.4951 -4.4999 0.0 0
M  V30 35 C 9.2942 11.8573 0.0 0
M  V30 36 C 6.2942 11.8573 0.0 0
M  V30 37 C 8.5442 13.1563 0.0 0
M  V30 38 C 7.0442 13.1563 0.0 0
M  V30 END ATOM
M  V30 BEGIN BOND
M  V30 1 2 1 2
M  V30 2 1 2 3
M  V30 3 1 2 4
M  V30 4 1 3 5
M  V30 5 2 4 6
M  V30 6 1 4 7
M  V30 7 1 5 8
M  V30 8 1 6 9
M  V30 9 2 7 10
M  V30 10 2 8 11
M  V30 11 1 8 12
M  V30 12 2 9 13
M  V30 13 1 9 14
M  V30 14 1 11 15
M  V30 15 2 12 16
M  V30 16 1 13 17
M  V30 17 1 14 18
M  V30 18 2 15 19
M  V30 19 1 17 20
M  V30 20 1 18 21
M  V30 21 1 19 22
M  V30 22 2 21 23
M  V30 23 1 21 24
M  V30 24 1 22 25
M  V30 25 1 22 26
M  V30 26 1 24 27
M  V30 27 2 24 28
M  V30 28 1 25 29
M  V30 29 1 26 30
M  V30 30 1 27 31
M  V30 31 1 28 32
M  V30 32 1 28 33
M  V30 33 1 29 34
M  V30 34 1 31 35
M  V30 35 1 32 36
M  V30 36 2 35 37
M  V30 37 2 36 38
M  V30 38 1 10 13
M  V30 39 1 16 19
M  V30 40 1 18 20
M  V30 41 1 30 34
M  V30 42 2 31 32
M  V30 43 1 37 38
M  V30 END BOND
M  V30 END CTAB
M  END
>  <Molecule Name>
CTX-1020696

>  <SMILES>
CC1=C(OC2=C1C=CC=C2)C(=O)N1CCC2=CC=C(N=C2C1)C(=O)NCC1=CC=C(C=C1)C1CCOCC1

>  <Batch Name>
CTX-1020696-1

>  <Batch Created Date>
2021-12-09

>  <Batch ID>
CTX-1020696-1

>  <External ID>
CD-42-B

>  <Stereochemistry>
Achiral

>  <Amount 1>
2.3

>  <Unit 1>
mg

>  <CRO 1>
Pharmaron

>  <CRO 1 Total Amount>
20.5

>  <CRO 1 Unit>
mg

>  <Pharmaron Solubility (PBS, pH 7.4): Aqueous Solubility - Batch Mean (uM)>


>  <Pharmaron Solubility (PBS, pH 7.4): Aqueous Solubility - Batch Mean (uM) Standard Deviation (±)>


>  <Pharmaron Solubility (PBS, pH 7.4): Aqueous Solubility - Batch Mean (uM) Count>


>  <log P>
4.1

>  <log D>
4.1

>  <Pharmaron Caliper Assay (CDK2/CCNE1): Minimum measured (%)>
45.2

>  <Pharmaron Caliper Assay (CDK2/CCNE1): IC50 - Batch Mean (uM)>
1.32

>  <Pharmaron ADPGLO (CDK2/E1-25C): Minimum measured (%)>


>  <Pharmaron ADPGLO (CDK2/E1-25C): IC50 - Batch Mean (uM)>


>  <Pharmaron ADPGLO (CDK2/E1-37C): Minimum measured (%)>


>  <Pharmaron ADPGLO (CDK2/E1-37C): IC50 - Batch Mean (uM)>


>  <IncuCyte Kuramochi RB-WT: IC50 - Batch Mean (uM)>
20.0

>  <IncuCyte Kuramochi RB-KO: IC50 - Batch Mean (uM)>
20.0

>  <DSF (npCDK2/CCNE1): dTm D - Batch Mean [Concentration: 100]>


>  <DSF (npCDK2/CCNE1): dTm D - Batch Mean [Concentration: 20.0]>
1.431

>  <DSF (pCDK2/CCNE1): dTm D - Batch Mean [Concentration: 100]>


>  <DSF (pCDK2/CCNE1): dTm D - Batch Mean [Concentration: 20.0]>
0.226

>  <RLM: t1/2 - Batch Mean (Min)>
11.04

>  <RLM: Cl int - Batch Mean (uL/min/mg protein)>
125.5

>  <RLM: ER (Hepatic extraction ratio) - Batch Mean>
0.816

>  <HLM: t1/2 - Batch Mean (Min)>
3.22

>  <HLM: Cl int - Batch Mean (uL/min/mg protein)>
430.55

>  <HLM: ER (Hepatic extraction ratio) - Batch Mean>
0.955

>  <MDCK-WT 4% BSA: Papp (A-B) - Batch Mean (10-6, cm/s)>


>  <MDCK-WT 4% BSA: Papp (B-A) - Batch Mean (10-6, cm/s)>


>  <MDCK-WT 4% BSA: Efflux Ratio - Batch Mean>


>  <MDCK-WT 4% BSA: ~Net A_B - Batch Mean (10-6, cm/s)>


>  <pIC50>
5.879426

>  <Selection_1>
Y

>  <Selection_N>


>  <Serie>
Naphthyridine

>  <Selection_T>
N

>  <Train_Vs_Test>


$$$$
CTX-1020695
OCL MolfileCreator  2D

  0  0  0  0  0  0              0 V3000
M  V30 BEGIN CTAB
M  V30 COUNTS 36 41 0 0 0
M  V30 BEGIN ATOM
M  V30 1 O 5.1961 -0.75 0.0 0
M  V30 2 C 3.8971 0.0 0.0 0
M  V30 3 N 2.598 -0.75 0.0 0
M  V30 4 C 3.8971 1.5 0.0 0
M  V30 5 C 1.299 0.0 0.0 0
M  V30 6 N 5.1961 2.25 0.0 0
M  V30 7 C 2.598 2.25 0.0 0
M  V30 8 C 0.0 -0.75 0.0 0
M  V30 9 C 5.1961 3.75 0.0 0
M  V30 10 C 2.598 3.75 0.0 0
M  V30 11 C -1.299 0.0 0.0 0
M  V30 12 C 0.0 -2.25 0.0 0
M  V30 13 C 3.8971 4.5 0.0 0
M  V30 14 C 6.4951 4.5 0.0 0
M  V30 15 C -2.598 -0.7499 0.0 0
M  V30 16 C -1.299 -2.9999 0.0 0
M  V30 17 C 3.8971 6.0 0.0 0
M  V30 18 N 6.4951 6.0 0.0 0
M  V30 19 N -3.8971 0.0 0.0 0
M  V30 20 C -2.598 -2.2499 0.0 0
M  V30 21 C 5.1961 6.75 0.0 0
M  V30 22 C 7.7942 6.75 0.0 0
M  V30 23 C -5.1961 -0.7499 0.0 0
M  V30 24 C -3.8971 -2.9999 0.0 0
M  V30 25 O 9.0932 6.0 0.0 0
M  V30 26 C 7.7942 8.25 0.0 0
M  V30 27 C -5.1961 -2.2499 0.0 0
M  V30 28 O 9.0077 9.1316 0.0 0
M  V30 29 C 6.5807 9.1316 0.0 0
M  V30 30 C 8.5442 10.5582 0.0 0
M  V30 31 C 7.0442 10.5582 0.0 0
M  V30 32 C 5.1541 8.6681 0.0 0
M  V30 33 C 9.2942 11.8573 0.0 0
M  V30 34 C 6.2942 11.8573 0.0 0
M  V30 35 C 8.5442 13.1563 0.0 0
M  V30 36 C 7.0442 13.1563 0.0 0
M  V30 END ATOM
M  V30 BEGIN BOND
M  V30 1 2 1 2
M  V30 2 1 2 3
M  V30 3 1 2 4
M  V30 4 1 3 5
M  V30 5 2 4 6
M  V30 6 1 4 7
M  V30 7 1 5 8
M  V30 8 1 6 9
M  V30 9 2 7 10
M  V30 10 2 8 11
M  V30 11 1 8 12
M  V30 12 2 9 13
M  V30 13 1 9 14
M  V30 14 1 11 15
M  V30 15 2 12 16
M  V30 16 1 13 17
M  V30 17 1 14 18
M  V30 18 1 15 19
M  V30 19 2 15 20
M  V30 20 1 17 21
M  V30 21 1 18 22
M  V30 22 1 19 23
M  V30 23 1 20 24
M  V30 24 2 22 25
M  V30 25 1 22 26
M  V30 26 1 23 27
M  V30 27 1 26 28
M  V30 28 2 26 29
M  V30 29 1 28 30
M  V30 30 1 29 31
M  V30 31 1 29 32
M  V30 32 1 30 33
M  V30 33 1 31 34
M  V30 34 2 33 35
M  V30 35 2 34 36
M  V30 36 1 10 13
M  V30 37 1 16 20
M  V30 38 1 18 21
M  V30 39 1 24 27
M  V30 40 2 30 31
M  V30 41 1 35 36
M  V30 END BOND
M  V30 END CTAB
M  END
>  <Molecule Name>
CTX-1020695

>  <SMILES>
CC1=C(OC2=C1C=CC=C2)C(=O)N1CCC2=CC=C(N=C2C1)C(=O)NCC1=CC=C2CCCNC2=C1

>  <Batch Name>
CTX-1020695-1

>  <Batch Created Date>
2021-12-09

>  <Batch ID>
CTX-1020695-1

>  <External ID>
CD-42-A

>  <Stereochemistry>
Achiral

>  <Amount 1>
7.6

>  <Unit 1>
mg

>  <CRO 1>
Pharmaron

>  <CRO 1 Total Amount>
16.9

>  <CRO 1 Unit>
mg

>  <Pharmaron Solubility (PBS, pH 7.4): Aqueous Solubility - Batch Mean (uM)>


>  <Pharmaron Solubility (PBS, pH 7.4): Aqueous Solubility - Batch Mean (uM) Standard Deviation (±)>


>  <Pharmaron Solubility (PBS, pH 7.4): Aqueous Solubility - Batch Mean (uM) Count>


>  <log P>
3.63

>  <log D>
3.63

>  <Pharmaron Caliper Assay (CDK2/CCNE1): Minimum measured (%)>
63.4

>  <Pharmaron Caliper Assay (CDK2/CCNE1): IC50 - Batch Mean (uM)>
2.72

>  <Pharmaron ADPGLO (CDK2/E1-25C): Minimum measured (%)>


>  <Pharmaron ADPGLO (CDK2/E1-25C): IC50 - Batch Mean (uM)>


>  <Pharmaron ADPGLO (CDK2/E1-37C): Minimum measured (%)>


>  <Pharmaron ADPGLO (CDK2/E1-37C): IC50 - Batch Mean (uM)>


>  <IncuCyte Kuramochi RB-WT: IC50 - Batch Mean (uM)>
7.53

>  <IncuCyte Kuramochi RB-KO: IC50 - Batch Mean (uM)>
20.0

>  <DSF (npCDK2/CCNE1): dTm D - Batch Mean [Concentration: 100]>


>  <DSF (npCDK2/CCNE1): dTm D - Batch Mean [Concentration: 20.0]>
0.29600000000000004

>  <DSF (pCDK2/CCNE1): dTm D - Batch Mean [Concentration: 100]>


>  <DSF (pCDK2/CCNE1): dTm D - Batch Mean [Concentration: 20.0]>
0.16

>  <RLM: t1/2 - Batch Mean (Min)>


>  <RLM: Cl int - Batch Mean (uL/min/mg protein)>


>  <RLM: ER (Hepatic extraction ratio) - Batch Mean>


>  <HLM: t1/2 - Batch Mean (Min)>


>  <HLM: Cl int - Batch Mean (uL/min/mg protein)>


>  <HLM: ER (Hepatic extraction ratio) - Batch Mean>


>  <MDCK-WT 4% BSA: Papp (A-B) - Batch Mean (10-6, cm/s)>


>  <MDCK-WT 4% BSA: Papp (B-A) - Batch Mean (10-6, cm/s)>


>  <MDCK-WT 4% BSA: Efflux Ratio - Batch Mean>


>  <MDCK-WT 4% BSA: ~Net A_B - Batch Mean (10-6, cm/s)>


>  <pIC50>
5.565431

>  <Selection_1>
Y

>  <Selection_N>


>  <Serie>
Naphthyridine

>  <Selection_T>
N

>  <Train_Vs_Test>


$$$$
CTX-1020685
OCL MolfileCreator  2D

  0  0  0  0  0  0              0 V3000
M  V30 BEGIN CTAB
M  V30 COUNTS 38 43 0 0 0
M  V30 BEGIN ATOM
M  V30 1 O 5.1961 -0.75 0.0 0
M  V30 2 C 3.8971 0.0 0.0 0
M  V30 3 N 2.598 -0.75 0.0 0
M  V30 4 C 3.8971 1.5 0.0 0
M  V30 5 C 1.299 0.0 0.0 0
M  V30 6 N 5.1961 2.25 0.0 0
M  V30 7 C 2.598 2.25 0.0 0
M  V30 8 C 0.0 -0.75 0.0 0
M  V30 9 C 5.1961 3.75 0.0 0
M  V30 10 C 2.598 3.75 0.0 0
M  V30 11 C -1.299 0.0 0.0 0
M  V30 12 C 0.0 -2.2499 0.0 0
M  V30 13 C 3.8971 4.5 0.0 0
M  V30 14 C 6.4951 4.5 0.0 0
M  V30 15 C -2.598 -0.7499 0.0 0
M  V30 16 C -1.299 -2.9999 0.0 0
M  V30 17 C 3.8971 6.0 0.0 0
M  V30 18 N 6.4951 6.0 0.0 0
M  V30 19 C -2.598 -2.2499 0.0 0
M  V30 20 C 5.1961 6.75 0.0 0
M  V30 21 C 7.7942 6.75 0.0 0
M  V30 22 N -3.8971 -2.9999 0.0 0
M  V30 23 O 9.0932 6.0 0.0 0
M  V30 24 C 7.7942 8.25 0.0 0
M  V30 25 C -5.1961 -2.2499 0.0 0
M  V30 26 C -3.8971 -4.4999 0.0 0
M  V30 27 O 9.0077 9.1316 0.0 0
M  V30 28 C 6.5807 9.1316 0.0 0
M  V30 29 C -6.4951 -2.9999 0.0 0
M  V30 30 C -5.1961 -5.2499 0.0 0
M  V30 31 C 8.5442 10.5582 0.0 0
M  V30 32 C 7.0442 10.5582 0.0 0
M  V30 33 C 5.1541 8.6681 0.0 0
M  V30 34 N -6.4951 -4.4999 0.0 0
M  V30 35 C 9.2942 11.8573 0.0 0
M  V30 36 C 6.2942 11.8573 0.0 0
M  V30 37 C 8.5442 13.1563 0.0 0
M  V30 38 C 7.0442 13.1563 0.0 0
M  V30 END ATOM
M  V30 BEGIN BOND
M  V30 1 2 1 2
M  V30 2 1 2 3
M  V30 3 1 2 4
M  V30 4 1 3 5
M  V30 5 2 4 6
M  V30 6 1 4 7
M  V30 7 1 5 8
M  V30 8 1 6 9
M  V30 9 2 7 10
M  V30 10 2 8 11
M  V30 11 1 8 12
M  V30 12 2 9 13
M  V30 13 1 9 14
M  V30 14 1 11 15
M  V30 15 2 12 16
M  V30 16 1 13 17
M  V30 17 1 14 18
M  V30 18 2 15 19
M  V30 19 1 17 20
M  V30 20 1 18 21
M  V30 21 1 19 22
M  V30 22 2 21 23
M  V30 23 1 21 24
M  V30 24 1 22 25
M  V30 25 1 22 26
M  V30 26 1 24 27
M  V30 27 2 24 28
M  V30 28 1 25 29
M  V30 29 1 26 30
M  V30 30 1 27 31
M  V30 31 1 28 32
M  V30 32 1 28 33
M  V30 33 1 29 34
M  V30 34 1 31 35
M  V30 35 1 32 36
M  V30 36 2 35 37
M  V30 37 2 36 38
M  V30 38 1 10 13
M  V30 39 1 16 19
M  V30 40 1 18 20
M  V30 41 1 30 34
M  V30 42 2 31 32
M  V30 43 1 37 38
M  V30 END BOND
M  V30 END CTAB
M  END
>  <Molecule Name>
CTX-1020685

>  <SMILES>
CC1=C(OC2=C1C=CC=C2)C(=O)N1CCC2=CC=C(N=C2C1)C(=O)NCC1=CC=C(C=C1)N1CCNCC1

>  <Batch Name>
CTX-1020685-1

>  <Batch Created Date>
2021-12-03

>  <Batch ID>
CTX-1020685-1

>  <External ID>
CD-42-H

>  <Stereochemistry>
Achiral

>  <Amount 1>
4.9

>  <Unit 1>
mg

>  <CRO 1>
Pharmaron

>  <CRO 1 Total Amount>
16.4

>  <CRO 1 Unit>
mg

>  <Pharmaron Solubility (PBS, pH 7.4): Aqueous Solubility - Batch Mean (uM)>
313.2668

>  <Pharmaron Solubility (PBS, pH 7.4): Aqueous Solubility - Batch Mean (uM) Standard Deviation (±)>


>  <Pharmaron Solubility (PBS, pH 7.4): Aqueous Solubility - Batch Mean (uM) Count>
1.0

>  <log P>
3.25

>  <log D>
1.76

>  <Pharmaron Caliper Assay (CDK2/CCNE1): Minimum measured (%)>
38.3

>  <Pharmaron Caliper Assay (CDK2/CCNE1): IC50 - Batch Mean (uM)>
53.2

>  <Pharmaron ADPGLO (CDK2/E1-25C): Minimum measured (%)>


>  <Pharmaron ADPGLO (CDK2/E1-25C): IC50 - Batch Mean (uM)>


>  <Pharmaron ADPGLO (CDK2/E1-37C): Minimum measured (%)>


>  <Pharmaron ADPGLO (CDK2/E1-37C): IC50 - Batch Mean (uM)>


>  <IncuCyte Kuramochi RB-WT: IC50 - Batch Mean (uM)>
7.39

>  <IncuCyte Kuramochi RB-KO: IC50 - Batch Mean (uM)>
5.98

>  <DSF (npCDK2/CCNE1): dTm D - Batch Mean [Concentration: 100]>


>  <DSF (npCDK2/CCNE1): dTm D - Batch Mean [Concentration: 20.0]>
1.403

>  <DSF (pCDK2/CCNE1): dTm D - Batch Mean [Concentration: 100]>


>  <DSF (pCDK2/CCNE1): dTm D - Batch Mean [Concentration: 20.0]>
0.31

>  <RLM: t1/2 - Batch Mean (Min)>
18.44

>  <RLM: Cl int - Batch Mean (uL/min/mg protein)>
75.18

>  <RLM: ER (Hepatic extraction ratio) - Batch Mean>
0.73

>  <HLM: t1/2 - Batch Mean (Min)>
35.19

>  <HLM: Cl int - Batch Mean (uL/min/mg protein)>
39.39

>  <HLM: ER (Hepatic extraction ratio) - Batch Mean>
0.6579999999999999

>  <MDCK-WT 4% BSA: Papp (A-B) - Batch Mean (10-6, cm/s)>


>  <MDCK-WT 4% BSA: Papp (B-A) - Batch Mean (10-6, cm/s)>


>  <MDCK-WT 4% BSA: Efflux Ratio - Batch Mean>


>  <MDCK-WT 4% BSA: ~Net A_B - Batch Mean (10-6, cm/s)>


>  <pIC50>
4.274088

>  <Selection_1>
Y

>  <Selection_N>


>  <Serie>
Naphthyridine

>  <Selection_T>
N

>  <Train_Vs_Test>


$$$$
CTX-1020671
OCL MolfileCreator  2D

  0  0  0  0  0  0              0 V3000
M  V30 BEGIN CTAB
M  V30 COUNTS 30 34 0 0 0
M  V30 BEGIN ATOM
M  V30 1 S 6.5664 -0.1398 0.0 0
M  V30 2 C 5.1961 -0.75 0.0 0
M  V30 3 C 7.5701 -1.2546 0.0 0
M  V30 4 C 3.8971 0.0 0.0 0
M  V30 5 C 5.3529 -2.2417 0.0 0
M  V30 6 C 6.8201 -2.5536 0.0 0
M  V30 7 C 9.0701 -1.2546 0.0 0
M  V30 8 O 3.8971 1.5 0.0 0
M  V30 9 N 2.598 -0.75 0.0 0
M  V30 10 C 7.5701 -3.8526 0.0 0
M  V30 11 C 9.8201 -2.5536 0.0 0
M  V30 12 C 1.299 0.0 0.0 0
M  V30 13 N 9.0701 -3.8526 0.0 0
M  V30 14 C 0.0 -0.75 0.0 0
M  V30 15 C 9.8201 -5.1517 0.0 0
M  V30 16 C -1.299 0.0 0.0 0
M  V30 17 C 0.0 -2.25 0.0 0
M  V30 18 O 9.0701 -6.4507 0.0 0
M  V30 19 C 11.3201 -5.1517 0.0 0
M  V30 20 C -2.598 -0.7499 0.0 0
M  V30 21 C -1.299 -2.9999 0.0 0
M  V30 22 C 12.2018 -6.3652 0.0 0
M  V30 23 C 12.2018 -3.9382 0.0 0
M  V30 24 C -2.598 -2.2499 0.0 0
M  V30 25 N 13.6284 -5.9017 0.0 0
M  V30 26 C 11.8899 -7.8324 0.0 0
M  V30 27 N 13.6284 -4.4017 0.0 0
M  V30 28 C 14.7431 -6.9054 0.0 0
M  V30 29 N 13.0046 -8.8361 0.0 0
M  V30 30 C 14.4312 -8.3726 0.0 0
M  V30 END ATOM
M  V30 BEGIN BOND
M  V30 1 1 1 2
M  V30 2 1 1 3
M  V30 3 1 2 4
M  V30 4 2 2 5
M  V30 5 2 3 6
M  V30 6 1 3 7
M  V30 7 2 4 8
M  V30 8 1 4 9
M  V30 9 1 6 10
M  V30 10 1 7 11
M  V30 11 1 9 12
M  V30 12 1 10 13
M  V30 13 1 12 14
M  V30 14 1 13 15
M  V30 15 2 14 16
M  V30 16 1 14 17
M  V30 17 2 15 18
M  V30 18 1 15 19
M  V30 19 1 16 20
M  V30 20 2 17 21
M  V30 21 2 19 22
M  V30 22 1 19 23
M  V30 23 2 20 24
M  V30 24 1 22 25
M  V30 25 1 22 26
M  V30 26 2 23 27
M  V30 27 1 25 28
M  V30 28 2 26 29
M  V30 29 2 28 30
M  V30 30 1 5 6
M  V30 31 1 11 13
M  V30 32 1 21 24
M  V30 33 1 25 27
M  V30 34 1 29 30
M  V30 END BOND
M  V30 END CTAB
M  END
>  <Molecule Name>
CTX-1020671

>  <SMILES>
O=C(NCC1=CC=CC=C1)C1=CC2=C(CCN(C2)C(=O)C2=C3C=NC=CN3N=C2)S1

>  <Batch Name>
CTX-1020671-1

>  <Batch Created Date>
2021-12-03

>  <Batch ID>
CTX-1020671-1

>  <External ID>
610EDL218-3

>  <Stereochemistry>
Achiral

>  <Amount 1>
5.4

>  <Unit 1>
mg

>  <CRO 1>
Pharmaron

>  <CRO 1 Total Amount>
21.2

>  <CRO 1 Unit>
mg

>  <Pharmaron Solubility (PBS, pH 7.4): Aqueous Solubility - Batch Mean (uM)>
60.0

>  <Pharmaron Solubility (PBS, pH 7.4): Aqueous Solubility - Batch Mean (uM) Standard Deviation (±)>


>  <Pharmaron Solubility (PBS, pH 7.4): Aqueous Solubility - Batch Mean (uM) Count>
1.0

>  <log P>
2.19

>  <log D>
2.19

>  <Pharmaron Caliper Assay (CDK2/CCNE1): Minimum measured (%)>
8.18

>  <Pharmaron Caliper Assay (CDK2/CCNE1): IC50 - Batch Mean (uM)>
3.44

>  <Pharmaron ADPGLO (CDK2/E1-25C): Minimum measured (%)>


>  <Pharmaron ADPGLO (CDK2/E1-25C): IC50 - Batch Mean (uM)>


>  <Pharmaron ADPGLO (CDK2/E1-37C): Minimum measured (%)>


>  <Pharmaron ADPGLO (CDK2/E1-37C): IC50 - Batch Mean (uM)>


>  <IncuCyte Kuramochi RB-WT: IC50 - Batch Mean (uM)>
6.11

>  <IncuCyte Kuramochi RB-KO: IC50 - Batch Mean (uM)>
9.1

>  <DSF (npCDK2/CCNE1): dTm D - Batch Mean [Concentration: 100]>


>  <DSF (npCDK2/CCNE1): dTm D - Batch Mean [Concentration: 20.0]>
0.996

>  <DSF (pCDK2/CCNE1): dTm D - Batch Mean [Concentration: 100]>


>  <DSF (pCDK2/CCNE1): dTm D - Batch Mean [Concentration: 20.0]>
1.111

>  <RLM: t1/2 - Batch Mean (Min)>


>  <RLM: Cl int - Batch Mean (uL/min/mg protein)>


>  <RLM: ER (Hepatic extraction ratio) - Batch Mean>


>  <HLM: t1/2 - Batch Mean (Min)>


>  <HLM: Cl int - Batch Mean (uL/min/mg protein)>


>  <HLM: ER (Hepatic extraction ratio) - Batch Mean>


>  <MDCK-WT 4% BSA: Papp (A-B) - Batch Mean (10-6, cm/s)>


>  <MDCK-WT 4% BSA: Papp (B-A) - Batch Mean (10-6, cm/s)>


>  <MDCK-WT 4% BSA: Efflux Ratio - Batch Mean>


>  <MDCK-WT 4% BSA: ~Net A_B - Batch Mean (10-6, cm/s)>


>  <pIC50>
5.463442

>  <Selection_1>
Y

>  <Selection_N>
N

>  <Serie>
Tetrahydrothienopyridine

>  <Selection_T>


>  <Train_Vs_Test>


$$$$
CTX-1020670
OCL MolfileCreator  2D

  0  0  0  0  0  0              0 V3000
M  V30 BEGIN CTAB
M  V30 COUNTS 31 35 0 0 0
M  V30 BEGIN ATOM
M  V30 1 Cl 7.4316 -5.4219 0.0 0
M  V30 2 C 6.4535 -5.214 0.0 0
M  V30 3 C 6.0467 -4.3005 0.0 0
M  V30 4 C 5.7103 -5.8831 0.0 0
M  V30 5 S 5.0522 -4.405 0.0 0
M  V30 6 C 6.5467 -3.4344 0.0 0
M  V30 7 C 4.8443 -5.3831 0.0 0
M  V30 8 C 5.7103 -6.8831 0.0 0
M  V30 9 O 7.5467 -3.4344 0.0 0
M  V30 10 N 6.0467 -2.5684 0.0 0
M  V30 11 C 3.9783 -5.8831 0.0 0
M  V30 12 C 4.8443 -7.3831 0.0 0
M  V30 13 C 5.0467 -2.5684 0.0 0
M  V30 14 C 6.5467 -1.7024 0.0 0
M  V30 15 C 3.9783 -6.8831 0.0 0
M  V30 16 C 4.5467 -1.7024 0.0 0
M  V30 17 C 6.0467 -0.8364 0.0 0
M  V30 18 C 5.0467 -0.8364 0.0 0
M  V30 19 C 3.5686 -1.4945 0.0 0
M  V30 20 S 4.3776 -0.0932 0.0 0
M  V30 21 C 3.4641 -0.5 0.0 0
M  V30 22 C 2.598 0.0 0.0 0
M  V30 23 O 2.598 1.0 0.0 0
M  V30 24 N 1.732 -0.5 0.0 0
M  V30 25 C 0.866 0.0 0.0 0
M  V30 26 C 0.0 -0.5 0.0 0
M  V30 27 C -0.866 0.0 0.0 0
M  V30 28 C 0.0 -1.4999 0.0 0
M  V30 29 C -1.732 -0.4999 0.0 0
M  V30 30 C -0.866 -1.9999 0.0 0
M  V30 31 C -1.732 -1.4999 0.0 0
M  V30 END ATOM
M  V30 BEGIN BOND
M  V30 1 1 1 2
M  V30 2 2 2 3
M  V30 3 1 2 4
M  V30 4 1 3 5
M  V30 5 1 3 6
M  V30 6 2 4 7
M  V30 7 1 4 8
M  V30 8 2 6 9
M  V30 9 1 6 10
M  V30 10 1 7 11
M  V30 11 2 8 12
M  V30 12 1 10 13
M  V30 13 1 10 14
M  V30 14 2 11 15
M  V30 15 1 13 16
M  V30 16 1 14 17
M  V30 17 2 16 18
M  V30 18 1 16 19
M  V30 19 1 18 20
M  V30 20 2 19 21
M  V30 21 1 21 22
M  V30 22 2 22 23
M  V30 23 1 22 24
M  V30 24 1 24 25
M  V30 25 1 25 26
M  V30 26 2 26 27
M  V30 27 1 26 28
M  V30 28 1 27 29
M  V30 29 2 28 30
M  V30 30 2 29 31
M  V30 31 1 5 7
M  V30 32 1 12 15
M  V30 33 1 17 18
M  V30 34 1 20 21
M  V30 35 1 30 31
M  V30 END BOND
M  V30 END CTAB
M  END
>  <Molecule Name>
CTX-1020670

>  <SMILES>
ClC1=C(SC2=C1C=CC=C2)C(=O)N1CCC2=C(C1)C=C(S2)C(=O)NCC1=CC=CC=C1

>  <Batch Name>
CTX-1020670-1

>  <Batch Created Date>
2021-12-03

>  <Batch ID>
CTX-1020670-1

>  <External ID>
610EDL217-3

>  <Stereochemistry>
Achiral

>  <Amount 1>
6.9

>  <Unit 1>
mg

>  <CRO 1>
Pharmaron

>  <CRO 1 Total Amount>
35.5

>  <CRO 1 Unit>
mg

>  <Pharmaron Solubility (PBS, pH 7.4): Aqueous Solubility - Batch Mean (uM)>
0.0001

>  <Pharmaron Solubility (PBS, pH 7.4): Aqueous Solubility - Batch Mean (uM) Standard Deviation (±)>


>  <Pharmaron Solubility (PBS, pH 7.4): Aqueous Solubility - Batch Mean (uM) Count>
1.0

>  <log P>
5.49

>  <log D>
5.49

>  <Pharmaron Caliper Assay (CDK2/CCNE1): Minimum measured (%)>
73.0

>  <Pharmaron Caliper Assay (CDK2/CCNE1): IC50 - Batch Mean (uM)>
1.25

>  <Pharmaron ADPGLO (CDK2/E1-25C): Minimum measured (%)>


>  <Pharmaron ADPGLO (CDK2/E1-25C): IC50 - Batch Mean (uM)>


>  <Pharmaron ADPGLO (CDK2/E1-37C): Minimum measured (%)>


>  <Pharmaron ADPGLO (CDK2/E1-37C): IC50 - Batch Mean (uM)>


>  <IncuCyte Kuramochi RB-WT: IC50 - Batch Mean (uM)>
20.0

>  <IncuCyte Kuramochi RB-KO: IC50 - Batch Mean (uM)>
20.0

>  <DSF (npCDK2/CCNE1): dTm D - Batch Mean [Concentration: 100]>


>  <DSF (npCDK2/CCNE1): dTm D - Batch Mean [Concentration: 20.0]>
0.32899999999999996

>  <DSF (pCDK2/CCNE1): dTm D - Batch Mean [Concentration: 100]>


>  <DSF (pCDK2/CCNE1): dTm D - Batch Mean [Concentration: 20.0]>
0.14300000000000002

>  <RLM: t1/2 - Batch Mean (Min)>


>  <RLM: Cl int - Batch Mean (uL/min/mg protein)>


>  <RLM: ER (Hepatic extraction ratio) - Batch Mean>


>  <HLM: t1/2 - Batch Mean (Min)>


>  <HLM: Cl int - Batch Mean (uL/min/mg protein)>


>  <HLM: ER (Hepatic extraction ratio) - Batch Mean>


>  <MDCK-WT 4% BSA: Papp (A-B) - Batch Mean (10-6, cm/s)>


>  <MDCK-WT 4% BSA: Papp (B-A) - Batch Mean (10-6, cm/s)>


>  <MDCK-WT 4% BSA: Efflux Ratio - Batch Mean>


>  <MDCK-WT 4% BSA: ~Net A_B - Batch Mean (10-6, cm/s)>


>  <pIC50>
5.90309

>  <Selection_1>
Y

>  <Selection_N>
N

>  <Serie>
Tetrahydrothienopyridine

>  <Selection_T>


>  <Train_Vs_Test>


$$$$
CTX-1020669
OCL MolfileCreator  2D

  0  0  0  0  0  0              0 V3000
M  V30 BEGIN CTAB
M  V30 COUNTS 38 43 0 0 0
M  V30 BEGIN ATOM
M  V30 1 Cl 11.1474 -8.1329 0.0 0
M  V30 2 C 9.6802 -7.821 0.0 0
M  V30 3 C 9.0701 -6.4507 0.0 0
M  V30 4 C 8.5655 -8.8247 0.0 0
M  V30 5 S 7.5783 -6.6075 0.0 0
M  V30 6 C 9.8201 -5.1517 0.0 0
M  V30 7 C 7.2665 -8.0747 0.0 0
M  V30 8 C 8.5655 -10.3247 0.0 0
M  V30 9 O 11.3201 -5.1517 0.0 0
M  V30 10 N 9.0701 -3.8526 0.0 0
M  V30 11 C 5.9674 -8.8247 0.0 0
M  V30 12 C 7.2665 -11.0747 0.0 0
M  V30 13 C 7.5701 -3.8526 0.0 0
M  V30 14 C 9.8201 -2.5536 0.0 0
M  V30 15 C 5.9674 -10.3247 0.0 0
M  V30 16 C 6.8201 -2.5536 0.0 0
M  V30 17 C 9.0701 -1.2546 0.0 0
M  V30 18 C 7.5701 -1.2546 0.0 0
M  V30 19 C 5.3529 -2.2417 0.0 0
M  V30 20 S 6.5664 -0.1398 0.0 0
M  V30 21 C 5.1961 -0.75 0.0 0
M  V30 22 C 3.8971 0.0 0.0 0
M  V30 23 O 3.8971 1.5 0.0 0
M  V30 24 N 2.598 -0.75 0.0 0
M  V30 25 C 1.299 0.0 0.0 0
M  V30 26 C 0.0 -0.75 0.0 0
M  V30 27 C -1.299 0.0 0.0 0
M  V30 28 C 0.0 -2.2499 0.0 0
M  V30 29 C -2.598 -0.7499 0.0 0
M  V30 30 C -1.299 -2.9999 0.0 0
M  V30 31 C -2.598 -2.2499 0.0 0
M  V30 32 N -3.8971 -2.9999 0.0 0
M  V30 33 C -5.1961 -2.2499 0.0 0
M  V30 34 C -3.8971 -4.4999 0.0 0
M  V30 35 C -6.4951 -2.9999 0.0 0
M  V30 36 C -5.1961 -5.2499 0.0 0
M  V30 37 N -6.4951 -4.4999 0.0 0
M  V30 38 C -7.7942 -5.2499 0.0 0
M  V30 END ATOM
M  V30 BEGIN BOND
M  V30 1 1 1 2
M  V30 2 2 2 3
M  V30 3 1 2 4
M  V30 4 1 3 5
M  V30 5 1 3 6
M  V30 6 2 4 7
M  V30 7 1 4 8
M  V30 8 2 6 9
M  V30 9 1 6 10
M  V30 10 1 7 11
M  V30 11 2 8 12
M  V30 12 1 10 13
M  V30 13 1 10 14
M  V30 14 2 11 15
M  V30 15 1 13 16
M  V30 16 1 14 17
M  V30 17 2 16 18
M  V30 18 1 16 19
M  V30 19 1 18 20
M  V30 20 2 19 21
M  V30 21 1 21 22
M  V30 22 2 22 23
M  V30 23 1 22 24
M  V30 24 1 24 25
M  V30 25 1 25 26
M  V30 26 2 26 27
M  V30 27 1 26 28
M  V30 28 1 27 29
M  V30 29 2 28 30
M  V30 30 2 29 31
M  V30 31 1 31 32
M  V30 32 1 32 33
M  V30 33 1 32 34
M  V30 34 1 33 35
M  V30 35 1 34 36
M  V30 36 1 35 37
M  V30 37 1 37 38
M  V30 38 1 5 7
M  V30 39 1 12 15
M  V30 40 1 17 18
M  V30 41 1 20 21
M  V30 42 1 30 31
M  V30 43 1 36 37
M  V30 END BOND
M  V30 END CTAB
M  END
>  <Molecule Name>
CTX-1020669

>  <SMILES>
CN1CCN(CC1)C1=CC=C(CNC(=O)C2=CC3=C(CCN(C3)C(=O)C3=C(Cl)C4=C(S3)C=CC=C4)S2)C=C1

>  <Batch Name>
CTX-1020669-1

>  <Batch Created Date>
2021-12-03

>  <Batch ID>
CTX-1020669-1

>  <External ID>
610EDL216-4

>  <Stereochemistry>
Achiral

>  <Amount 1>
5.2

>  <Unit 1>
mg

>  <CRO 1>
Pharmaron

>  <CRO 1 Total Amount>
22.8

>  <CRO 1 Unit>
mg

>  <Pharmaron Solubility (PBS, pH 7.4): Aqueous Solubility - Batch Mean (uM)>
0.2684

>  <Pharmaron Solubility (PBS, pH 7.4): Aqueous Solubility - Batch Mean (uM) Standard Deviation (±)>


>  <Pharmaron Solubility (PBS, pH 7.4): Aqueous Solubility - Batch Mean (uM) Count>
1.0

>  <log P>
5.45

>  <log D>
4.81

>  <Pharmaron Caliper Assay (CDK2/CCNE1): Minimum measured (%)>
44.6

>  <Pharmaron Caliper Assay (CDK2/CCNE1): IC50 - Batch Mean (uM)>
2.03

>  <Pharmaron ADPGLO (CDK2/E1-25C): Minimum measured (%)>


>  <Pharmaron ADPGLO (CDK2/E1-25C): IC50 - Batch Mean (uM)>


>  <Pharmaron ADPGLO (CDK2/E1-37C): Minimum measured (%)>


>  <Pharmaron ADPGLO (CDK2/E1-37C): IC50 - Batch Mean (uM)>


>  <IncuCyte Kuramochi RB-WT: IC50 - Batch Mean (uM)>
5.49

>  <IncuCyte Kuramochi RB-KO: IC50 - Batch Mean (uM)>
4.58

>  <DSF (npCDK2/CCNE1): dTm D - Batch Mean [Concentration: 100]>


>  <DSF (npCDK2/CCNE1): dTm D - Batch Mean [Concentration: 20.0]>
1.57

>  <DSF (pCDK2/CCNE1): dTm D - Batch Mean [Concentration: 100]>


>  <DSF (pCDK2/CCNE1): dTm D - Batch Mean [Concentration: 20.0]>
0.7440000000000001

>  <RLM: t1/2 - Batch Mean (Min)>


>  <RLM: Cl int - Batch Mean (uL/min/mg protein)>


>  <RLM: ER (Hepatic extraction ratio) - Batch Mean>


>  <HLM: t1/2 - Batch Mean (Min)>
13.8

>  <HLM: Cl int - Batch Mean (uL/min/mg protein)>
100.41

>  <HLM: ER (Hepatic extraction ratio) - Batch Mean>
0.831

>  <MDCK-WT 4% BSA: Papp (A-B) - Batch Mean (10-6, cm/s)>
2.71

>  <MDCK-WT 4% BSA: Papp (B-A) - Batch Mean (10-6, cm/s)>
2.8

>  <MDCK-WT 4% BSA: Efflux Ratio - Batch Mean>
1.04

>  <MDCK-WT 4% BSA: ~Net A_B - Batch Mean (10-6, cm/s)>
2.7533

>  <pIC50>
5.692504

>  <Selection_1>
Y

>  <Selection_N>
N

>  <Serie>
Tetrahydrothienopyridine

>  <Selection_T>


>  <Train_Vs_Test>


$$$$
CTX-1020667
OCL MolfileCreator  2D

  0  0  0  0  0  0              0 V3000
M  V30 BEGIN CTAB
M  V30 COUNTS 38 43 0 0 0
M  V30 BEGIN ATOM
M  V30 1 S 6.5664 -0.1398 0.0 0
M  V30 2 C 5.1961 -0.75 0.0 0
M  V30 3 C 7.5701 -1.2546 0.0 0
M  V30 4 N 5.3529 -2.2417 0.0 0
M  V30 5 C 3.8971 0.0 0.0 0
M  V30 6 C 6.8201 -2.5536 0.0 0
M  V30 7 C 9.0701 -1.2546 0.0 0
M  V30 8 O 3.8971 1.5 0.0 0
M  V30 9 N 2.598 -0.75 0.0 0
M  V30 10 C 7.5701 -3.8526 0.0 0
M  V30 11 C 9.8201 -2.5536 0.0 0
M  V30 12 C 1.299 0.0 0.0 0
M  V30 13 N 9.0701 -3.8526 0.0 0
M  V30 14 C 0.0 -0.75 0.0 0
M  V30 15 C 9.8201 -5.1517 0.0 0
M  V30 16 C -1.299 0.0 0.0 0
M  V30 17 C 0.0 -2.2499 0.0 0
M  V30 18 O 9.0701 -6.4507 0.0 0
M  V30 19 C 11.3201 -5.1517 0.0 0
M  V30 20 C -2.598 -0.7499 0.0 0
M  V30 21 C -1.299 -2.9999 0.0 0
M  V30 22 O 12.2018 -6.3652 0.0 0
M  V30 23 C 12.2018 -3.9382 0.0 0
M  V30 24 C -2.598 -2.2499 0.0 0
M  V30 25 C 13.6284 -5.9017 0.0 0
M  V30 26 C 13.6284 -4.4017 0.0 0
M  V30 27 C 11.7383 -2.5116 0.0 0
M  V30 28 N -3.8971 -2.9999 0.0 0
M  V30 29 C 14.9274 -6.6517 0.0 0
M  V30 30 C 14.9274 -3.6517 0.0 0
M  V30 31 C -5.1961 -2.2499 0.0 0
M  V30 32 C -3.8971 -4.4999 0.0 0
M  V30 33 C 16.2265 -5.9017 0.0 0
M  V30 34 C 16.2265 -4.4017 0.0 0
M  V30 35 C -6.4951 -2.9999 0.0 0
M  V30 36 C -5.1961 -5.2499 0.0 0
M  V30 37 N -6.4951 -4.4999 0.0 0
M  V30 38 C -7.7942 -5.2499 0.0 0
M  V30 END ATOM
M  V30 BEGIN BOND
M  V30 1 1 1 2
M  V30 2 1 1 3
M  V30 3 2 2 4
M  V30 4 1 2 5
M  V30 5 2 3 6
M  V30 6 1 3 7
M  V30 7 2 5 8
M  V30 8 1 5 9
M  V30 9 1 6 10
M  V30 10 1 7 11
M  V30 11 1 9 12
M  V30 12 1 10 13
M  V30 13 1 12 14
M  V30 14 1 13 15
M  V30 15 2 14 16
M  V30 16 1 14 17
M  V30 17 2 15 18
M  V30 18 1 15 19
M  V30 19 1 16 20
M  V30 20 2 17 21
M  V30 21 1 19 22
M  V30 22 2 19 23
M  V30 23 2 20 24
M  V30 24 1 22 25
M  V30 25 1 23 26
M  V30 26 1 23 27
M  V30 27 1 24 28
M  V30 28 1 25 29
M  V30 29 1 26 30
M  V30 30 1 28 31
M  V30 31 1 28 32
M  V30 32 2 29 33
M  V30 33 2 30 34
M  V30 34 1 31 35
M  V30 35 1 32 36
M  V30 36 1 35 37
M  V30 37 1 37 38
M  V30 38 1 4 6
M  V30 39 1 11 13
M  V30 40 1 21 24
M  V30 41 2 25 26
M  V30 42 1 33 34
M  V30 43 1 36 37
M  V30 END BOND
M  V30 END CTAB
M  END
>  <Molecule Name>
CTX-1020667

>  <SMILES>
CN1CCN(CC1)C1=CC=C(CNC(=O)C2=NC3=C(CCN(C3)C(=O)C3=C(C)C4=C(O3)C=CC=C4)S2)C=C1

>  <Batch Name>
CTX-1020667-1

>  <Batch Created Date>
2021-12-03

>  <Batch ID>
CTX-1020667-1

>  <External ID>
610EDL180-C

>  <Stereochemistry>
Achiral

>  <Amount 1>
4.6

>  <Unit 1>
mg

>  <CRO 1>
Pharmaron

>  <CRO 1 Total Amount>
7.8

>  <CRO 1 Unit>
mg

>  <Pharmaron Solubility (PBS, pH 7.4): Aqueous Solubility - Batch Mean (uM)>
15.157

>  <Pharmaron Solubility (PBS, pH 7.4): Aqueous Solubility - Batch Mean (uM) Standard Deviation (±)>


>  <Pharmaron Solubility (PBS, pH 7.4): Aqueous Solubility - Batch Mean (uM) Count>
1.0

>  <log P>
3.63

>  <log D>
3.0

>  <Pharmaron Caliper Assay (CDK2/CCNE1): Minimum measured (%)>
27.5

>  <Pharmaron Caliper Assay (CDK2/CCNE1): IC50 - Batch Mean (uM)>
0.383

>  <Pharmaron ADPGLO (CDK2/E1-25C): Minimum measured (%)>
32.1

>  <Pharmaron ADPGLO (CDK2/E1-25C): IC50 - Batch Mean (uM)>
0.628

>  <Pharmaron ADPGLO (CDK2/E1-37C): Minimum measured (%)>
94.9

>  <Pharmaron ADPGLO (CDK2/E1-37C): IC50 - Batch Mean (uM)>
100

>  <IncuCyte Kuramochi RB-WT: IC50 - Batch Mean (uM)>
7.38

>  <IncuCyte Kuramochi RB-KO: IC50 - Batch Mean (uM)>
7.24

>  <DSF (npCDK2/CCNE1): dTm D - Batch Mean [Concentration: 100]>


>  <DSF (npCDK2/CCNE1): dTm D - Batch Mean [Concentration: 20.0]>
3.398

>  <DSF (pCDK2/CCNE1): dTm D - Batch Mean [Concentration: 100]>


>  <DSF (pCDK2/CCNE1): dTm D - Batch Mean [Concentration: 20.0]>
2.352

>  <RLM: t1/2 - Batch Mean (Min)>


>  <RLM: Cl int - Batch Mean (uL/min/mg protein)>


>  <RLM: ER (Hepatic extraction ratio) - Batch Mean>


>  <HLM: t1/2 - Batch Mean (Min)>
13.38

>  <HLM: Cl int - Batch Mean (uL/min/mg protein)>
103.68

>  <HLM: ER (Hepatic extraction ratio) - Batch Mean>
0.835

>  <MDCK-WT 4% BSA: Papp (A-B) - Batch Mean (10-6, cm/s)>


>  <MDCK-WT 4% BSA: Papp (B-A) - Batch Mean (10-6, cm/s)>


>  <MDCK-WT 4% BSA: Efflux Ratio - Batch Mean>


>  <MDCK-WT 4% BSA: ~Net A_B - Batch Mean (10-6, cm/s)>


>  <pIC50>
6.416801

>  <Selection_1>
Y

>  <Selection_N>
N

>  <Serie>
Other

>  <Selection_T>
N

>  <Train_Vs_Test>


$$$$
CTX-1020582
OCL MolfileCreator  2D

  0  0  0  0  0  0              0 V3000
M  V30 BEGIN CTAB
M  V30 COUNTS 39 44 0 0 0
M  V30 BEGIN ATOM
M  V30 1 S 9.5737 -0.0932 0.0 0
M  V30 2 C 8.6602 -0.5 0.0 0
M  V30 3 C 10.2429 -0.8364 0.0 0
M  V30 4 C 8.7647 -1.4945 0.0 0
M  V30 5 C 7.7942 0.0 0.0 0
M  V30 6 C 9.7429 -1.7024 0.0 0
M  V30 7 C 11.2429 -0.8364 0.0 0
M  V30 8 C 8.0216 -2.1636 0.0 0
M  V30 9 O 7.7942 0.9999 0.0 0
M  V30 10 N 6.9282 -0.5 0.0 0
M  V30 11 C 10.2429 -2.5684 0.0 0
M  V30 12 N 11.7429 -1.7024 0.0 0
M  V30 13 C 6.0621 0.0 0.0 0
M  V30 14 C 6.9282 -1.4999 0.0 0
M  V30 15 C 11.2429 -2.5684 0.0 0
M  V30 16 C 5.1961 -0.5 0.0 0
M  V30 17 C 6.0621 -1.9999 0.0 0
M  V30 18 N 4.3301 0.0 0.0 0
M  V30 19 C 5.1961 -1.4999 0.0 0
M  V30 20 C 3.4641 -0.5 0.0 0
M  V30 21 C 4.3301 -2.0 0.0 0
M  V30 22 C 2.598 0.0 0.0 0
M  V30 23 C 3.4641 -1.4999 0.0 0
M  V30 24 O 2.598 1.0 0.0 0
M  V30 25 N 1.732 -0.5 0.0 0
M  V30 26 C 0.866 0.0 0.0 0
M  V30 27 C 0.0 -0.5 0.0 0
M  V30 28 C -0.866 0.0 0.0 0
M  V30 29 C 0.0 -1.4999 0.0 0
M  V30 30 C -1.732 -0.4999 0.0 0
M  V30 31 C -0.866 -1.9999 0.0 0
M  V30 32 C -1.732 -1.4999 0.0 0
M  V30 33 N -2.598 -1.9999 0.0 0
M  V30 34 C -3.4641 -1.4999 0.0 0
M  V30 35 C -2.598 -2.9999 0.0 0
M  V30 36 C -4.3301 -1.9999 0.0 0
M  V30 37 C -3.4641 -3.4999 0.0 0
M  V30 38 N -4.3301 -2.9999 0.0 0
M  V30 39 C -5.1961 -3.4999 0.0 0
M  V30 END ATOM
M  V30 BEGIN BOND
M  V30 1 1 1 2
M  V30 2 1 1 3
M  V30 3 2 2 4
M  V30 4 1 2 5
M  V30 5 2 3 6
M  V30 6 1 3 7
M  V30 7 1 4 8
M  V30 8 2 5 9
M  V30 9 1 5 10
M  V30 10 1 6 11
M  V30 11 2 7 12
M  V30 12 1 10 13
M  V30 13 1 10 14
M  V30 14 2 11 15
M  V30 15 1 13 16
M  V30 16 1 14 17
M  V30 17 2 16 18
M  V30 18 1 16 19
M  V30 19 1 18 20
M  V30 20 2 19 21
M  V30 21 1 20 22
M  V30 22 2 20 23
M  V30 23 2 22 24
M  V30 24 1 22 25
M  V30 25 1 25 26
M  V30 26 1 26 27
M  V30 27 2 27 28
M  V30 28 1 27 29
M  V30 29 1 28 30
M  V30 30 2 29 31
M  V30 31 2 30 32
M  V30 32 1 32 33
M  V30 33 1 33 34
M  V30 34 1 33 35
M  V30 35 1 34 36
M  V30 36 1 35 37
M  V30 37 1 36 38
M  V30 38 1 38 39
M  V30 39 1 4 6
M  V30 40 1 12 15
M  V30 41 1 17 19
M  V30 42 1 21 23
M  V30 43 1 31 32
M  V30 44 1 37 38
M  V30 END BOND
M  V30 END CTAB
M  END
>  <Molecule Name>
CTX-1020582

>  <SMILES>
CN1CCN(CC1)C1=CC=C(CNC(=O)C2=CC=C3CCN(CC3=N2)C(=O)C2=C(C)C3=C(S2)C=NC=C3)C=C1

>  <Batch Name>
CTX-1020582-1

>  <Batch Created Date>
2021-11-18

>  <Batch ID>
CTX-1020582-1

>  <External ID>
P841-0239

>  <Stereochemistry>
Achiral

>  <Amount 1>
4.6

>  <Unit 1>
mg

>  <CRO 1>
Pharmaron

>  <CRO 1 Total Amount>
15.7

>  <CRO 1 Unit>
mg

>  <Pharmaron Solubility (PBS, pH 7.4): Aqueous Solubility - Batch Mean (uM)>
286.6525

>  <Pharmaron Solubility (PBS, pH 7.4): Aqueous Solubility - Batch Mean (uM) Standard Deviation (±)>


>  <Pharmaron Solubility (PBS, pH 7.4): Aqueous Solubility - Batch Mean (uM) Count>
1.0

>  <log P>
3.34

>  <log D>
2.71

>  <Pharmaron Caliper Assay (CDK2/CCNE1): Minimum measured (%)>
80.0

>  <Pharmaron Caliper Assay (CDK2/CCNE1): IC50 - Batch Mean (uM)>
2.2

>  <Pharmaron ADPGLO (CDK2/E1-25C): Minimum measured (%)>


>  <Pharmaron ADPGLO (CDK2/E1-25C): IC50 - Batch Mean (uM)>


>  <Pharmaron ADPGLO (CDK2/E1-37C): Minimum measured (%)>


>  <Pharmaron ADPGLO (CDK2/E1-37C): IC50 - Batch Mean (uM)>


>  <IncuCyte Kuramochi RB-WT: IC50 - Batch Mean (uM)>
8.4

>  <IncuCyte Kuramochi RB-KO: IC50 - Batch Mean (uM)>
8.12

>  <DSF (npCDK2/CCNE1): dTm D - Batch Mean [Concentration: 100]>


>  <DSF (npCDK2/CCNE1): dTm D - Batch Mean [Concentration: 20.0]>
0.534

>  <DSF (pCDK2/CCNE1): dTm D - Batch Mean [Concentration: 100]>


>  <DSF (pCDK2/CCNE1): dTm D - Batch Mean [Concentration: 20.0]>
0.179

>  <RLM: t1/2 - Batch Mean (Min)>


>  <RLM: Cl int - Batch Mean (uL/min/mg protein)>


>  <RLM: ER (Hepatic extraction ratio) - Batch Mean>


>  <HLM: t1/2 - Batch Mean (Min)>


>  <HLM: Cl int - Batch Mean (uL/min/mg protein)>


>  <HLM: ER (Hepatic extraction ratio) - Batch Mean>


>  <MDCK-WT 4% BSA: Papp (A-B) - Batch Mean (10-6, cm/s)>


>  <MDCK-WT 4% BSA: Papp (B-A) - Batch Mean (10-6, cm/s)>


>  <MDCK-WT 4% BSA: Efflux Ratio - Batch Mean>


>  <MDCK-WT 4% BSA: ~Net A_B - Batch Mean (10-6, cm/s)>


>  <pIC50>
5.657577

>  <Selection_1>
Y

>  <Selection_N>


>  <Serie>
Naphthyridine

>  <Selection_T>
N

>  <Train_Vs_Test>


$$$$
CTX-1020566
OCL MolfileCreator  2D

  0  0  0  0  0  0              0 V3000
M  V30 BEGIN CTAB
M  V30 COUNTS 33 37 0 0 0
M  V30 BEGIN ATOM
M  V30 1 O 5.1961 -0.75 0.0 0
M  V30 2 C 3.8971 0.0 0.0 0
M  V30 3 N 2.598 -0.75 0.0 0
M  V30 4 C 3.8971 1.5 0.0 0
M  V30 5 C 1.299 0.0 0.0 0
M  V30 6 N 5.1961 2.25 0.0 0
M  V30 7 C 2.598 2.25 0.0 0
M  V30 8 C 0.0 -0.75 0.0 0
M  V30 9 C 5.1961 3.75 0.0 0
M  V30 10 C 2.598 3.75 0.0 0
M  V30 11 C -1.299 0.0 0.0 0
M  V30 12 C 0.0 -2.25 0.0 0
M  V30 13 C 3.8971 4.5 0.0 0
M  V30 14 C 6.4951 4.5 0.0 0
M  V30 15 C -2.598 -0.7499 0.0 0
M  V30 16 C -1.299 -2.9999 0.0 0
M  V30 17 C 3.8971 6.0 0.0 0
M  V30 18 N 6.4951 6.0 0.0 0
M  V30 19 C -2.598 -2.2499 0.0 0
M  V30 20 C 5.1961 6.75 0.0 0
M  V30 21 C 7.7942 6.75 0.0 0
M  V30 22 O -3.8971 -2.9999 0.0 0
M  V30 23 O 9.0932 6.0 0.0 0
M  V30 24 C 7.7942 8.25 0.0 0
M  V30 25 O 9.0077 9.1316 0.0 0
M  V30 26 C 6.5807 9.1316 0.0 0
M  V30 27 C 8.5442 10.5582 0.0 0
M  V30 28 C 7.0442 10.5582 0.0 0
M  V30 29 C 5.1541 8.6681 0.0 0
M  V30 30 C 9.2942 11.8573 0.0 0
M  V30 31 C 6.2942 11.8573 0.0 0
M  V30 32 C 8.5442 13.1563 0.0 0
M  V30 33 C 7.0442 13.1563 0.0 0
M  V30 END ATOM
M  V30 BEGIN BOND
M  V30 1 2 1 2
M  V30 2 1 2 3
M  V30 3 1 2 4
M  V30 4 1 3 5
M  V30 5 2 4 6
M  V30 6 1 4 7
M  V30 7 1 5 8
M  V30 8 1 6 9
M  V30 9 2 7 10
M  V30 10 2 8 11
M  V30 11 1 8 12
M  V30 12 2 9 13
M  V30 13 1 9 14
M  V30 14 1 11 15
M  V30 15 2 12 16
M  V30 16 1 13 17
M  V30 17 1 14 18
M  V30 18 2 15 19
M  V30 19 1 17 20
M  V30 20 1 18 21
M  V30 21 1 19 22
M  V30 22 2 21 23
M  V30 23 1 21 24
M  V30 24 1 24 25
M  V30 25 2 24 26
M  V30 26 1 25 27
M  V30 27 1 26 28
M  V30 28 1 26 29
M  V30 29 1 27 30
M  V30 30 1 28 31
M  V30 31 2 30 32
M  V30 32 2 31 33
M  V30 33 1 10 13
M  V30 34 1 16 19
M  V30 35 1 18 20
M  V30 36 2 27 28
M  V30 37 1 32 33
M  V30 END BOND
M  V30 END CTAB
M  END
>  <Molecule Name>
CTX-1020566

>  <SMILES>
CC1=C(OC2=C1C=CC=C2)C(=O)N1CCC2=C(C1)N=C(C=C2)C(=O)NCC1=CC=C(O)C=C1

>  <Batch Name>
CTX-1020566-1

>  <Batch Created Date>
2021-11-18

>  <Batch ID>
CTX-1020566-1

>  <External ID>
P841-0232

>  <Stereochemistry>
Achiral

>  <Amount 1>
3.9

>  <Unit 1>
mg

>  <CRO 1>
Pharmaron

>  <CRO 1 Total Amount>
22.5

>  <CRO 1 Unit>
mg

>  <Pharmaron Solubility (PBS, pH 7.4): Aqueous Solubility - Batch Mean (uM)>
0.1229

>  <Pharmaron Solubility (PBS, pH 7.4): Aqueous Solubility - Batch Mean (uM) Standard Deviation (±)>


>  <Pharmaron Solubility (PBS, pH 7.4): Aqueous Solubility - Batch Mean (uM) Count>
1.0

>  <log P>
3.37

>  <log D>
3.37

>  <Pharmaron Caliper Assay (CDK2/CCNE1): Minimum measured (%)>
53.3

>  <Pharmaron Caliper Assay (CDK2/CCNE1): IC50 - Batch Mean (uM)>
3.88

>  <Pharmaron ADPGLO (CDK2/E1-25C): Minimum measured (%)>


>  <Pharmaron ADPGLO (CDK2/E1-25C): IC50 - Batch Mean (uM)>


>  <Pharmaron ADPGLO (CDK2/E1-37C): Minimum measured (%)>


>  <Pharmaron ADPGLO (CDK2/E1-37C): IC50 - Batch Mean (uM)>


>  <IncuCyte Kuramochi RB-WT: IC50 - Batch Mean (uM)>
12.9

>  <IncuCyte Kuramochi RB-KO: IC50 - Batch Mean (uM)>
12.2

>  <DSF (npCDK2/CCNE1): dTm D - Batch Mean [Concentration: 100]>


>  <DSF (npCDK2/CCNE1): dTm D - Batch Mean [Concentration: 20.0]>
1.537

>  <DSF (pCDK2/CCNE1): dTm D - Batch Mean [Concentration: 100]>


>  <DSF (pCDK2/CCNE1): dTm D - Batch Mean [Concentration: 20.0]>
0.451

>  <RLM: t1/2 - Batch Mean (Min)>


>  <RLM: Cl int - Batch Mean (uL/min/mg protein)>


>  <RLM: ER (Hepatic extraction ratio) - Batch Mean>


>  <HLM: t1/2 - Batch Mean (Min)>


>  <HLM: Cl int - Batch Mean (uL/min/mg protein)>


>  <HLM: ER (Hepatic extraction ratio) - Batch Mean>


>  <MDCK-WT 4% BSA: Papp (A-B) - Batch Mean (10-6, cm/s)>


>  <MDCK-WT 4% BSA: Papp (B-A) - Batch Mean (10-6, cm/s)>


>  <MDCK-WT 4% BSA: Efflux Ratio - Batch Mean>


>  <MDCK-WT 4% BSA: ~Net A_B - Batch Mean (10-6, cm/s)>


>  <pIC50>
5.411168

>  <Selection_1>
Y

>  <Selection_N>


>  <Serie>
Naphthyridine

>  <Selection_T>
N

>  <Train_Vs_Test>


$$$$
CTX-1020565
OCL MolfileCreator  2D

  0  0  0  0  0  0              0 V3000
M  V30 BEGIN CTAB
M  V30 COUNTS 38 43 0 0 0
M  V30 BEGIN ATOM
M  V30 1 O 5.1961 -0.75 0.0 0
M  V30 2 C 3.8971 0.0 0.0 0
M  V30 3 N 2.598 -0.75 0.0 0
M  V30 4 C 3.8971 1.5 0.0 0
M  V30 5 C 1.299 0.0 0.0 0
M  V30 6 N 5.1961 2.25 0.0 0
M  V30 7 C 2.598 2.25 0.0 0
M  V30 8 C 0.0 -0.75 0.0 0
M  V30 9 C 5.1961 3.75 0.0 0
M  V30 10 C 2.598 3.75 0.0 0
M  V30 11 C -1.299 0.0 0.0 0
M  V30 12 C 0.0 -2.2499 0.0 0
M  V30 13 C 3.8971 4.5 0.0 0
M  V30 14 C 6.4951 4.5 0.0 0
M  V30 15 C -2.598 -0.7499 0.0 0
M  V30 16 C -1.299 -2.9999 0.0 0
M  V30 17 C 3.8971 6.0 0.0 0
M  V30 18 N 6.4951 6.0 0.0 0
M  V30 19 C -2.598 -2.2499 0.0 0
M  V30 20 C 5.1961 6.75 0.0 0
M  V30 21 C 7.7942 6.75 0.0 0
M  V30 22 N -3.8971 -2.9999 0.0 0
M  V30 23 O 9.0932 6.0 0.0 0
M  V30 24 C 7.7942 8.25 0.0 0
M  V30 25 C -5.1961 -2.2499 0.0 0
M  V30 26 C -3.8971 -4.4999 0.0 0
M  V30 27 O 9.0077 9.1316 0.0 0
M  V30 28 C 6.5807 9.1316 0.0 0
M  V30 29 C -6.4951 -2.9999 0.0 0
M  V30 30 C -5.1961 -5.2499 0.0 0
M  V30 31 C 8.5442 10.5582 0.0 0
M  V30 32 C 7.0442 10.5582 0.0 0
M  V30 33 C 5.1541 8.6681 0.0 0
M  V30 34 O -6.4951 -4.4999 0.0 0
M  V30 35 C 9.2942 11.8573 0.0 0
M  V30 36 C 6.2942 11.8573 0.0 0
M  V30 37 C 8.5442 13.1563 0.0 0
M  V30 38 C 7.0442 13.1563 0.0 0
M  V30 END ATOM
M  V30 BEGIN BOND
M  V30 1 2 1 2
M  V30 2 1 2 3
M  V30 3 1 2 4
M  V30 4 1 3 5
M  V30 5 2 4 6
M  V30 6 1 4 7
M  V30 7 1 5 8
M  V30 8 1 6 9
M  V30 9 2 7 10
M  V30 10 2 8 11
M  V30 11 1 8 12
M  V30 12 2 9 13
M  V30 13 1 9 14
M  V30 14 1 11 15
M  V30 15 2 12 16
M  V30 16 1 13 17
M  V30 17 1 14 18
M  V30 18 2 15 19
M  V30 19 1 17 20
M  V30 20 1 18 21
M  V30 21 1 19 22
M  V30 22 2 21 23
M  V30 23 1 21 24
M  V30 24 1 22 25
M  V30 25 1 22 26
M  V30 26 1 24 27
M  V30 27 2 24 28
M  V30 28 1 25 29
M  V30 29 1 26 30
M  V30 30 1 27 31
M  V30 31 1 28 32
M  V30 32 1 28 33
M  V30 33 1 29 34
M  V30 34 1 31 35
M  V30 35 1 32 36
M  V30 36 2 35 37
M  V30 37 2 36 38
M  V30 38 1 10 13
M  V30 39 1 16 19
M  V30 40 1 18 20
M  V30 41 1 30 34
M  V30 42 2 31 32
M  V30 43 1 37 38
M  V30 END BOND
M  V30 END CTAB
M  END
>  <Molecule Name>
CTX-1020565

>  <SMILES>
CC1=C(OC2=C1C=CC=C2)C(=O)N1CCC2=C(C1)N=C(C=C2)C(=O)NCC1=CC=C(C=C1)N1CCOCC1

>  <Batch Name>
CTX-1020565-1

>  <Batch Created Date>
2021-11-18

>  <Batch ID>
CTX-1020565-1

>  <External ID>
P841-0233

>  <Stereochemistry>
Achiral

>  <Amount 1>
5.15

>  <Unit 1>
mg

>  <CRO 1>
Pharmaron

>  <CRO 1 Total Amount>
11.5

>  <CRO 1 Unit>
mg

>  <Pharmaron Solubility (PBS, pH 7.4): Aqueous Solubility - Batch Mean (uM)>
0.0028

>  <Pharmaron Solubility (PBS, pH 7.4): Aqueous Solubility - Batch Mean (uM) Standard Deviation (±)>


>  <Pharmaron Solubility (PBS, pH 7.4): Aqueous Solubility - Batch Mean (uM) Count>
1.0

>  <log P>
3.57

>  <log D>
3.57

>  <Pharmaron Caliper Assay (CDK2/CCNE1): Minimum measured (%)>
43.6

>  <Pharmaron Caliper Assay (CDK2/CCNE1): IC50 - Batch Mean (uM)>
1.55

>  <Pharmaron ADPGLO (CDK2/E1-25C): Minimum measured (%)>


>  <Pharmaron ADPGLO (CDK2/E1-25C): IC50 - Batch Mean (uM)>


>  <Pharmaron ADPGLO (CDK2/E1-37C): Minimum measured (%)>


>  <Pharmaron ADPGLO (CDK2/E1-37C): IC50 - Batch Mean (uM)>


>  <IncuCyte Kuramochi RB-WT: IC50 - Batch Mean (uM)>
20.0

>  <IncuCyte Kuramochi RB-KO: IC50 - Batch Mean (uM)>
20.0

>  <DSF (npCDK2/CCNE1): dTm D - Batch Mean [Concentration: 100]>


>  <DSF (npCDK2/CCNE1): dTm D - Batch Mean [Concentration: 20.0]>
1.6369999999999998

>  <DSF (pCDK2/CCNE1): dTm D - Batch Mean [Concentration: 100]>


>  <DSF (pCDK2/CCNE1): dTm D - Batch Mean [Concentration: 20.0]>
0.768

>  <RLM: t1/2 - Batch Mean (Min)>


>  <RLM: Cl int - Batch Mean (uL/min/mg protein)>


>  <RLM: ER (Hepatic extraction ratio) - Batch Mean>


>  <HLM: t1/2 - Batch Mean (Min)>


>  <HLM: Cl int - Batch Mean (uL/min/mg protein)>


>  <HLM: ER (Hepatic extraction ratio) - Batch Mean>


>  <MDCK-WT 4% BSA: Papp (A-B) - Batch Mean (10-6, cm/s)>


>  <MDCK-WT 4% BSA: Papp (B-A) - Batch Mean (10-6, cm/s)>


>  <MDCK-WT 4% BSA: Efflux Ratio - Batch Mean>


>  <MDCK-WT 4% BSA: ~Net A_B - Batch Mean (10-6, cm/s)>


>  <pIC50>
5.809668

>  <Selection_1>
Y

>  <Selection_N>


>  <Serie>
Naphthyridine

>  <Selection_T>
N

>  <Train_Vs_Test>


$$$$
CTX-1020562
OCL MolfileCreator  2D

  0  0  0  0  0  0              0 V3000
M  V30 BEGIN CTAB
M  V30 COUNTS 43 48 0 0 0
M  V30 BEGIN ATOM
M  V30 1 F 9.6602 -4.5 0.0 0
M  V30 2 C 8.6602 -4.5 0.0 0
M  V30 3 F 8.6602 -5.5 0.0 0
M  V30 4 F 7.6602 -4.5 0.0 0
M  V30 5 C 8.6602 -3.5 0.0 0
M  V30 6 N 7.7942 -3.0 0.0 0
M  V30 7 C 7.7942 -2.0 0.0 0
M  V30 8 C 6.9282 -3.4999 0.0 0
M  V30 9 C 6.9282 -1.4999 0.0 0
M  V30 10 C 6.0621 -2.9999 0.0 0
M  V30 11 N 6.0621 -2.0 0.0 0
M  V30 12 C 5.1961 -1.4999 0.0 0
M  V30 13 C 5.1961 -0.5 0.0 0
M  V30 14 C 4.3301 -1.9999 0.0 0
M  V30 15 C 4.3301 0.0 0.0 0
M  V30 16 C 3.4641 -1.5 0.0 0
M  V30 17 C 3.4641 -0.5 0.0 0
M  V30 18 C 2.598 0.0 0.0 0
M  V30 19 N 1.732 -0.5 0.0 0
M  V30 20 C 0.866 0.0 0.0 0
M  V30 21 O 0.866 1.0 0.0 0
M  V30 22 C 0.0 -0.5 0.0 0
M  V30 23 N -0.866 0.0 0.0 0
M  V30 24 C 0.0 -1.4999 0.0 0
M  V30 25 C -1.732 -0.4999 0.0 0
M  V30 26 C -0.866 -1.9999 0.0 0
M  V30 27 C -1.732 -1.4999 0.0 0
M  V30 28 C -2.598 0.0 0.0 0
M  V30 29 C -2.598 -1.9999 0.0 0
M  V30 30 N -3.4641 -0.4999 0.0 0
M  V30 31 C -3.4641 -1.4999 0.0 0
M  V30 32 C -4.3301 0.0 0.0 0
M  V30 33 O -4.3301 1.0 0.0 0
M  V30 34 C -5.1961 -0.4999 0.0 0
M  V30 35 O -6.1096 -0.0932 0.0 0
M  V30 36 C -5.3006 -1.4945 0.0 0
M  V30 37 C -6.7788 -0.8364 0.0 0
M  V30 38 C -6.2788 -1.7024 0.0 0
M  V30 39 C -4.5575 -2.1636 0.0 0
M  V30 40 C -7.7788 -0.8364 0.0 0
M  V30 41 C -6.7788 -2.5684 0.0 0
M  V30 42 C -8.2788 -1.7024 0.0 0
M  V30 43 C -7.7788 -2.5684 0.0 0
M  V30 END ATOM
M  V30 BEGIN BOND
M  V30 1 1 1 2
M  V30 2 1 2 3
M  V30 3 1 2 4
M  V30 4 1 2 5
M  V30 5 1 5 6
M  V30 6 1 6 7
M  V30 7 1 6 8
M  V30 8 1 7 9
M  V30 9 1 8 10
M  V30 10 1 9 11
M  V30 11 1 11 12
M  V30 12 2 12 13
M  V30 13 1 12 14
M  V30 14 1 13 15
M  V30 15 2 14 16
M  V30 16 2 15 17
M  V30 17 1 17 18
M  V30 18 1 18 19
M  V30 19 1 19 20
M  V30 20 2 20 21
M  V30 21 1 20 22
M  V30 22 2 22 23
M  V30 23 1 22 24
M  V30 24 1 23 25
M  V30 25 2 24 26
M  V30 26 2 25 27
M  V30 27 1 25 28
M  V30 28 1 27 29
M  V30 29 1 28 30
M  V30 30 1 29 31
M  V30 31 1 30 32
M  V30 32 2 32 33
M  V30 33 1 32 34
M  V30 34 1 34 35
M  V30 35 2 34 36
M  V30 36 1 35 37
M  V30 37 1 36 38
M  V30 38 1 36 39
M  V30 39 1 37 40
M  V30 40 1 38 41
M  V30 41 2 40 42
M  V30 42 2 41 43
M  V30 43 1 10 11
M  V30 44 1 16 17
M  V30 45 1 26 27
M  V30 46 1 30 31
M  V30 47 2 37 38
M  V30 48 1 42 43
M  V30 END BOND
M  V30 END CTAB
M  END
>  <Molecule Name>
CTX-1020562

>  <SMILES>
CC1=C(OC2=C1C=CC=C2)C(=O)N1CCC2=C(C1)N=C(C=C2)C(=O)NCC1=CC=C(C=C1)N1CCN(CC(F)(F)F)CC1

>  <Batch Name>
CTX-1020562-1

>  <Batch Created Date>
2021-11-18

>  <Batch ID>
CTX-1020562-1

>  <External ID>
P841-0237

>  <Stereochemistry>
Achiral

>  <Amount 1>
3.95

>  <Unit 1>
mg

>  <CRO 1>
Pharmaron

>  <CRO 1 Total Amount>
40.2

>  <CRO 1 Unit>
mg

>  <Pharmaron Solubility (PBS, pH 7.4): Aqueous Solubility - Batch Mean (uM)>
0.0001

>  <Pharmaron Solubility (PBS, pH 7.4): Aqueous Solubility - Batch Mean (uM) Standard Deviation (±)>


>  <Pharmaron Solubility (PBS, pH 7.4): Aqueous Solubility - Batch Mean (uM) Count>
1.0

>  <log P>
4.59

>  <log D>
4.59

>  <Pharmaron Caliper Assay (CDK2/CCNE1): Minimum measured (%)>
67.6

>  <Pharmaron Caliper Assay (CDK2/CCNE1): IC50 - Batch Mean (uM)>
2.17

>  <Pharmaron ADPGLO (CDK2/E1-25C): Minimum measured (%)>


>  <Pharmaron ADPGLO (CDK2/E1-25C): IC50 - Batch Mean (uM)>


>  <Pharmaron ADPGLO (CDK2/E1-37C): Minimum measured (%)>


>  <Pharmaron ADPGLO (CDK2/E1-37C): IC50 - Batch Mean (uM)>


>  <IncuCyte Kuramochi RB-WT: IC50 - Batch Mean (uM)>
20.0

>  <IncuCyte Kuramochi RB-KO: IC50 - Batch Mean (uM)>
20.0

>  <DSF (npCDK2/CCNE1): dTm D - Batch Mean [Concentration: 100]>


>  <DSF (npCDK2/CCNE1): dTm D - Batch Mean [Concentration: 20.0]>
0.434

>  <DSF (pCDK2/CCNE1): dTm D - Batch Mean [Concentration: 100]>


>  <DSF (pCDK2/CCNE1): dTm D - Batch Mean [Concentration: 20.0]>
0.207

>  <RLM: t1/2 - Batch Mean (Min)>


>  <RLM: Cl int - Batch Mean (uL/min/mg protein)>


>  <RLM: ER (Hepatic extraction ratio) - Batch Mean>


>  <HLM: t1/2 - Batch Mean (Min)>


>  <HLM: Cl int - Batch Mean (uL/min/mg protein)>


>  <HLM: ER (Hepatic extraction ratio) - Batch Mean>


>  <MDCK-WT 4% BSA: Papp (A-B) - Batch Mean (10-6, cm/s)>


>  <MDCK-WT 4% BSA: Papp (B-A) - Batch Mean (10-6, cm/s)>


>  <MDCK-WT 4% BSA: Efflux Ratio - Batch Mean>


>  <MDCK-WT 4% BSA: ~Net A_B - Batch Mean (10-6, cm/s)>


>  <pIC50>
5.66354

>  <Selection_1>
Y

>  <Selection_N>


>  <Serie>
Naphthyridine

>  <Selection_T>
N

>  <Train_Vs_Test>


$$$$
CTX-1020555
OCL MolfileCreator  2D

  0  0  0  0  0  0              0 V3000
M  V30 BEGIN CTAB
M  V30 COUNTS 38 43 0 0 0
M  V30 BEGIN ATOM
M  V30 1 Cl 3.2986 -7.9981 0.0 0
M  V30 2 C 4.7252 -7.5346 0.0 0
M  V30 3 C 5.8399 -8.5383 0.0 0
M  V30 4 C 5.037 -6.0673 0.0 0
M  V30 5 N 7.2665 -8.0747 0.0 0
M  V30 6 C 6.4636 -5.6038 0.0 0
M  V30 7 N 8.5655 -8.8247 0.0 0
M  V30 8 C 7.5783 -6.6075 0.0 0
M  V30 9 C 9.6802 -7.821 0.0 0
M  V30 10 C 9.0701 -6.4507 0.0 0
M  V30 11 C 9.8201 -5.1517 0.0 0
M  V30 12 O 11.3201 -5.1517 0.0 0
M  V30 13 N 9.0701 -3.8526 0.0 0
M  V30 14 C 7.5701 -3.8526 0.0 0
M  V30 15 C 9.8201 -2.5536 0.0 0
M  V30 16 C 6.8201 -2.5536 0.0 0
M  V30 17 C 9.0701 -1.2546 0.0 0
M  V30 18 C 7.5701 -1.2546 0.0 0
M  V30 19 C 5.3529 -2.2417 0.0 0
M  V30 20 S 6.5664 -0.1398 0.0 0
M  V30 21 C 5.1961 -0.75 0.0 0
M  V30 22 C 3.8971 0.0 0.0 0
M  V30 23 O 3.8971 1.5 0.0 0
M  V30 24 N 2.598 -0.75 0.0 0
M  V30 25 C 1.299 0.0 0.0 0
M  V30 26 C 0.0 -0.75 0.0 0
M  V30 27 C -1.299 0.0 0.0 0
M  V30 28 C 0.0 -2.2499 0.0 0
M  V30 29 C -2.598 -0.7499 0.0 0
M  V30 30 C -1.299 -2.9999 0.0 0
M  V30 31 C -2.598 -2.2499 0.0 0
M  V30 32 N -3.8971 -2.9999 0.0 0
M  V30 33 C -5.1961 -2.2499 0.0 0
M  V30 34 C -3.8971 -4.4999 0.0 0
M  V30 35 C -6.4951 -2.9999 0.0 0
M  V30 36 C -5.1961 -5.2499 0.0 0
M  V30 37 N -6.4951 -4.4999 0.0 0
M  V30 38 C -7.7942 -5.2499 0.0 0
M  V30 END ATOM
M  V30 BEGIN BOND
M  V30 1 1 1 2
M  V30 2 2 2 3
M  V30 3 1 2 4
M  V30 4 1 3 5
M  V30 5 2 4 6
M  V30 6 1 5 7
M  V30 7 1 5 8
M  V30 8 2 7 9
M  V30 9 2 8 10
M  V30 10 1 10 11
M  V30 11 2 11 12
M  V30 12 1 11 13
M  V30 13 1 13 14
M  V30 14 1 13 15
M  V30 15 1 14 16
M  V30 16 1 15 17
M  V30 17 2 16 18
M  V30 18 1 16 19
M  V30 19 1 18 20
M  V30 20 2 19 21
M  V30 21 1 21 22
M  V30 22 2 22 23
M  V30 23 1 22 24
M  V30 24 1 24 25
M  V30 25 1 25 26
M  V30 26 2 26 27
M  V30 27 1 26 28
M  V30 28 1 27 29
M  V30 29 2 28 30
M  V30 30 2 29 31
M  V30 31 1 31 32
M  V30 32 1 32 33
M  V30 33 1 32 34
M  V30 34 1 33 35
M  V30 35 1 34 36
M  V30 36 1 35 37
M  V30 37 1 37 38
M  V30 38 1 6 8
M  V30 39 1 9 10
M  V30 40 1 17 18
M  V30 41 1 20 21
M  V30 42 1 30 31
M  V30 43 1 36 37
M  V30 END BOND
M  V30 END CTAB
M  END
>  <Molecule Name>
CTX-1020555

>  <SMILES>
CN1CCN(CC1)C1=CC=C(CNC(=O)C2=CC3=C(CCN(C3)C(=O)C3=C4C=CC(Cl)=CN4N=C3)S2)C=C1

>  <Batch Name>
CTX-1020555-1

>  <Batch Created Date>
2021-11-18

>  <Batch ID>
CTX-1020555-1

>  <External ID>
CD-44-K

>  <Stereochemistry>
Achiral

>  <Amount 1>
2.5

>  <Unit 1>
mg

>  <CRO 1>
Pharmaron

>  <CRO 1 Total Amount>
12.2

>  <CRO 1 Unit>
mg

>  <Pharmaron Solubility (PBS, pH 7.4): Aqueous Solubility - Batch Mean (uM)>
118.75

>  <Pharmaron Solubility (PBS, pH 7.4): Aqueous Solubility - Batch Mean (uM) Standard Deviation (±)>


>  <Pharmaron Solubility (PBS, pH 7.4): Aqueous Solubility - Batch Mean (uM) Count>
1.0

>  <log P>
3.97

>  <log D>
3.34

>  <Pharmaron Caliper Assay (CDK2/CCNE1): Minimum measured (%)>
74.6

>  <Pharmaron Caliper Assay (CDK2/CCNE1): IC50 - Batch Mean (uM)>
6.46

>  <Pharmaron ADPGLO (CDK2/E1-25C): Minimum measured (%)>


>  <Pharmaron ADPGLO (CDK2/E1-25C): IC50 - Batch Mean (uM)>


>  <Pharmaron ADPGLO (CDK2/E1-37C): Minimum measured (%)>


>  <Pharmaron ADPGLO (CDK2/E1-37C): IC50 - Batch Mean (uM)>


>  <IncuCyte Kuramochi RB-WT: IC50 - Batch Mean (uM)>
7.34

>  <IncuCyte Kuramochi RB-KO: IC50 - Batch Mean (uM)>
20.0

>  <DSF (npCDK2/CCNE1): dTm D - Batch Mean [Concentration: 100]>


>  <DSF (npCDK2/CCNE1): dTm D - Batch Mean [Concentration: 20.0]>


>  <DSF (pCDK2/CCNE1): dTm D - Batch Mean [Concentration: 100]>


>  <DSF (pCDK2/CCNE1): dTm D - Batch Mean [Concentration: 20.0]>
0.741

>  <RLM: t1/2 - Batch Mean (Min)>


>  <RLM: Cl int - Batch Mean (uL/min/mg protein)>


>  <RLM: ER (Hepatic extraction ratio) - Batch Mean>


>  <HLM: t1/2 - Batch Mean (Min)>


>  <HLM: Cl int - Batch Mean (uL/min/mg protein)>


>  <HLM: ER (Hepatic extraction ratio) - Batch Mean>


>  <MDCK-WT 4% BSA: Papp (A-B) - Batch Mean (10-6, cm/s)>


>  <MDCK-WT 4% BSA: Papp (B-A) - Batch Mean (10-6, cm/s)>


>  <MDCK-WT 4% BSA: Efflux Ratio - Batch Mean>


>  <MDCK-WT 4% BSA: ~Net A_B - Batch Mean (10-6, cm/s)>


>  <pIC50>
5.189767

>  <Selection_1>
Y

>  <Selection_N>
N

>  <Serie>
Tetrahydrothienopyridine

>  <Selection_T>


>  <Train_Vs_Test>


$$$$
CTX-1020523
OCL MolfileCreator  2D

  0  0  0  0  0  0              0 V3000
M  V30 BEGIN CTAB
M  V30 COUNTS 39 44 0 0 0
M  V30 BEGIN ATOM
M  V30 1 O 5.1961 -0.75 0.0 0
M  V30 2 C 3.8971 0.0 0.0 0
M  V30 3 N 2.598 -0.75 0.0 0
M  V30 4 C 3.8971 1.5 0.0 0
M  V30 5 C 1.299 0.0 0.0 0
M  V30 6 N 5.1961 2.25 0.0 0
M  V30 7 N 2.598 2.25 0.0 0
M  V30 8 C 0.0 -0.75 0.0 0
M  V30 9 C 5.1961 3.75 0.0 0
M  V30 10 C 2.598 3.75 0.0 0
M  V30 11 C -1.299 0.0 0.0 0
M  V30 12 C 0.0 -2.2499 0.0 0
M  V30 13 C 3.8971 4.5 0.0 0
M  V30 14 C 6.4951 4.5 0.0 0
M  V30 15 C -2.598 -0.7499 0.0 0
M  V30 16 C -1.299 -2.9999 0.0 0
M  V30 17 C 3.8971 6.0 0.0 0
M  V30 18 N 6.4951 6.0 0.0 0
M  V30 19 C -2.598 -2.2499 0.0 0
M  V30 20 C 5.1961 6.75 0.0 0
M  V30 21 C 7.7942 6.75 0.0 0
M  V30 22 N -3.8971 -2.9999 0.0 0
M  V30 23 O 9.0932 6.0 0.0 0
M  V30 24 C 7.7942 8.25 0.0 0
M  V30 25 C -5.1961 -2.2499 0.0 0
M  V30 26 C -3.8971 -4.4999 0.0 0
M  V30 27 O 9.0077 9.1316 0.0 0
M  V30 28 C 6.5807 9.1316 0.0 0
M  V30 29 C -6.4951 -2.9999 0.0 0
M  V30 30 C -5.1961 -5.2499 0.0 0
M  V30 31 C 8.5442 10.5582 0.0 0
M  V30 32 C 7.0442 10.5582 0.0 0
M  V30 33 C 5.1541 8.6681 0.0 0
M  V30 34 N -6.4951 -4.4999 0.0 0
M  V30 35 C 9.2942 11.8573 0.0 0
M  V30 36 C 6.2942 11.8573 0.0 0
M  V30 37 C -7.7942 -5.2499 0.0 0
M  V30 38 C 8.5442 13.1563 0.0 0
M  V30 39 C 7.0442 13.1563 0.0 0
M  V30 END ATOM
M  V30 BEGIN BOND
M  V30 1 2 1 2
M  V30 2 1 2 3
M  V30 3 1 2 4
M  V30 4 1 3 5
M  V30 5 2 4 6
M  V30 6 1 4 7
M  V30 7 1 5 8
M  V30 8 1 6 9
M  V30 9 2 7 10
M  V30 10 2 8 11
M  V30 11 1 8 12
M  V30 12 2 9 13
M  V30 13 1 9 14
M  V30 14 1 11 15
M  V30 15 2 12 16
M  V30 16 1 13 17
M  V30 17 1 14 18
M  V30 18 2 15 19
M  V30 19 1 17 20
M  V30 20 1 18 21
M  V30 21 1 19 22
M  V30 22 2 21 23
M  V30 23 1 21 24
M  V30 24 1 22 25
M  V30 25 1 22 26
M  V30 26 1 24 27
M  V30 27 2 24 28
M  V30 28 1 25 29
M  V30 29 1 26 30
M  V30 30 1 27 31
M  V30 31 1 28 32
M  V30 32 1 28 33
M  V30 33 1 29 34
M  V30 34 1 31 35
M  V30 35 1 32 36
M  V30 36 1 34 37
M  V30 37 2 35 38
M  V30 38 2 36 39
M  V30 39 1 10 13
M  V30 40 1 16 19
M  V30 41 1 18 20
M  V30 42 1 30 34
M  V30 43 2 31 32
M  V30 44 1 38 39
M  V30 END BOND
M  V30 END CTAB
M  END
>  <Molecule Name>
CTX-1020523

>  <SMILES>
CN1CCN(CC1)C1=CC=C(CNC(=O)C2=NC=C3CCN(CC3=N2)C(=O)C2=C(C)C3=C(O2)C=CC=C3)C=C1

>  <Batch Name>
CTX-1020523-1

>  <Batch Created Date>
2021-11-04

>  <Batch ID>
CTX-1020523-1

>  <External ID>
610EDL081-B

>  <Stereochemistry>
Achiral

>  <Amount 1>
5.3

>  <Unit 1>
mg

>  <CRO 1>
Pharmaron

>  <CRO 1 Total Amount>
23.0

>  <CRO 1 Unit>
mg

>  <Pharmaron Solubility (PBS, pH 7.4): Aqueous Solubility - Batch Mean (uM)>
78.7748

>  <Pharmaron Solubility (PBS, pH 7.4): Aqueous Solubility - Batch Mean (uM) Standard Deviation (±)>


>  <Pharmaron Solubility (PBS, pH 7.4): Aqueous Solubility - Batch Mean (uM) Count>
1.0

>  <log P>
3.33

>  <log D>
2.69

>  <Pharmaron Caliper Assay (CDK2/CCNE1): Minimum measured (%)>
76.7

>  <Pharmaron Caliper Assay (CDK2/CCNE1): IC50 - Batch Mean (uM)>
6.52

>  <Pharmaron ADPGLO (CDK2/E1-25C): Minimum measured (%)>


>  <Pharmaron ADPGLO (CDK2/E1-25C): IC50 - Batch Mean (uM)>


>  <Pharmaron ADPGLO (CDK2/E1-37C): Minimum measured (%)>


>  <Pharmaron ADPGLO (CDK2/E1-37C): IC50 - Batch Mean (uM)>


>  <IncuCyte Kuramochi RB-WT: IC50 - Batch Mean (uM)>


>  <IncuCyte Kuramochi RB-KO: IC50 - Batch Mean (uM)>


>  <DSF (npCDK2/CCNE1): dTm D - Batch Mean [Concentration: 100]>


>  <DSF (npCDK2/CCNE1): dTm D - Batch Mean [Concentration: 20.0]>
0.765

>  <DSF (pCDK2/CCNE1): dTm D - Batch Mean [Concentration: 100]>


>  <DSF (pCDK2/CCNE1): dTm D - Batch Mean [Concentration: 20.0]>


>  <RLM: t1/2 - Batch Mean (Min)>


>  <RLM: Cl int - Batch Mean (uL/min/mg protein)>


>  <RLM: ER (Hepatic extraction ratio) - Batch Mean>


>  <HLM: t1/2 - Batch Mean (Min)>
36.62

>  <HLM: Cl int - Batch Mean (uL/min/mg protein)>
37.87

>  <HLM: ER (Hepatic extraction ratio) - Batch Mean>
0.65

>  <MDCK-WT 4% BSA: Papp (A-B) - Batch Mean (10-6, cm/s)>


>  <MDCK-WT 4% BSA: Papp (B-A) - Batch Mean (10-6, cm/s)>


>  <MDCK-WT 4% BSA: Efflux Ratio - Batch Mean>


>  <MDCK-WT 4% BSA: ~Net A_B - Batch Mean (10-6, cm/s)>


>  <pIC50>
5.185752

>  <Selection_1>
Y

>  <Selection_N>
N

>  <Serie>
Other

>  <Selection_T>
N

>  <Train_Vs_Test>


$$$$
CTX-1020521
OCL MolfileCreator  2D

  0  0  0  0  0  0              0 V3000
M  V30 BEGIN CTAB
M  V30 COUNTS 45 51 0 0 0
M  V30 BEGIN ATOM
M  V30 1 O 5.1961 -0.75 0.0 0
M  V30 2 C 3.8971 0.0 0.0 0
M  V30 3 N 2.598 -0.75 0.0 0
M  V30 4 C 3.8971 1.5 0.0 0
M  V30 5 C 1.299 0.0 0.0 0
M  V30 6 N 5.1961 2.25 0.0 0
M  V30 7 C 2.598 2.25 0.0 0
M  V30 8 C 0.0 -0.75 0.0 0
M  V30 9 C 5.1961 3.75 0.0 0
M  V30 10 C 2.598 3.75 0.0 0
M  V30 11 C -1.299 0.0 0.0 0
M  V30 12 C 0.0 -2.2499 0.0 0
M  V30 13 C 3.8971 4.5 0.0 0
M  V30 14 C 6.4951 4.5 0.0 0
M  V30 15 C 1.299 4.5 0.0 0
M  V30 16 C -2.598 -0.7499 0.0 0
M  V30 17 C -1.299 -2.9999 0.0 0
M  V30 18 C 3.8971 6.0 0.0 0
M  V30 19 N 6.4951 6.0 0.0 0
M  V30 20 C 1.1422 5.9917 0.0 0
M  V30 21 C -0.0712 3.8898 0.0 0
M  V30 22 C -2.598 -2.2499 0.0 0
M  V30 23 C 5.1961 6.75 0.0 0
M  V30 24 C 7.7942 6.75 0.0 0
M  V30 25 N -0.3249 6.3036 0.0 0
M  V30 26 N -1.0749 5.0046 0.0 0
M  V30 27 N -3.8971 -2.9999 0.0 0
M  V30 28 O 9.0932 6.0 0.0 0
M  V30 29 C 7.7942 8.25 0.0 0
M  V30 30 C -2.5667 4.8478 0.0 0
M  V30 31 C -5.1961 -2.2499 0.0 0
M  V30 32 C -3.8971 -4.4999 0.0 0
M  V30 33 O 9.0077 9.1316 0.0 0
M  V30 34 C 6.5807 9.1316 0.0 0
M  V30 35 C -6.4951 -2.9999 0.0 0
M  V30 36 C -5.1961 -5.2499 0.0 0
M  V30 37 C 8.5442 10.5582 0.0 0
M  V30 38 C 7.0442 10.5582 0.0 0
M  V30 39 C 5.1541 8.6681 0.0 0
M  V30 40 N -6.4951 -4.4999 0.0 0
M  V30 41 C 9.2942 11.8573 0.0 0
M  V30 42 C 6.2942 11.8573 0.0 0
M  V30 43 C -7.7942 -5.2499 0.0 0
M  V30 44 C 8.5442 13.1563 0.0 0
M  V30 45 C 7.0442 13.1563 0.0 0
M  V30 END ATOM
M  V30 BEGIN BOND
M  V30 1 2 1 2
M  V30 2 1 2 3
M  V30 3 1 2 4
M  V30 4 1 3 5
M  V30 5 2 4 6
M  V30 6 1 4 7
M  V30 7 1 5 8
M  V30 8 1 6 9
M  V30 9 2 7 10
M  V30 10 2 8 11
M  V30 11 1 8 12
M  V30 12 2 9 13
M  V30 13 1 9 14
M  V30 14 1 10 15
M  V30 15 1 11 16
M  V30 16 2 12 17
M  V30 17 1 13 18
M  V30 18 1 14 19
M  V30 19 1 15 20
M  V30 20 2 15 21
M  V30 21 2 16 22
M  V30 22 1 18 23
M  V30 23 1 19 24
M  V30 24 2 20 25
M  V30 25 1 21 26
M  V30 26 1 22 27
M  V30 27 2 24 28
M  V30 28 1 24 29
M  V30 29 1 26 30
M  V30 30 1 27 31
M  V30 31 1 27 32
M  V30 32 1 29 33
M  V30 33 2 29 34
M  V30 34 1 31 35
M  V30 35 1 32 36
M  V30 36 1 33 37
M  V30 37 1 34 38
M  V30 38 1 34 39
M  V30 39 1 35 40
M  V30 40 1 37 41
M  V30 41 1 38 42
M  V30 42 1 40 43
M  V30 43 2 41 44
M  V30 44 2 42 45
M  V30 45 1 10 13
M  V30 46 1 17 22
M  V30 47 1 19 23
M  V30 48 1 25 26
M  V30 49 1 36 40
M  V30 50 2 37 38
M  V30 51 1 44 45
M  V30 END BOND
M  V30 END CTAB
M  END
>  <Molecule Name>
CTX-1020521

>  <SMILES>
CN1C=C(C=N1)C1=C2CCN(CC2=NC(=C1)C(=O)NCC1=CC=C(C=C1)N1CCN(C)CC1)C(=O)C1=C(C)C2=C(O1)C=CC=C2

>  <Batch Name>
CTX-1020521-1

>  <Batch Created Date>
2021-11-04

>  <Batch ID>
CTX-1020521-1

>  <External ID>
610EDL131-3

>  <Stereochemistry>
Achiral

>  <Amount 1>
3.5

>  <Unit 1>
mg

>  <CRO 1>
Pharmaron

>  <CRO 1 Total Amount>
24.1

>  <CRO 1 Unit>
mg

>  <Pharmaron Solubility (PBS, pH 7.4): Aqueous Solubility - Batch Mean (uM)>
5.2039

>  <Pharmaron Solubility (PBS, pH 7.4): Aqueous Solubility - Batch Mean (uM) Standard Deviation (±)>


>  <Pharmaron Solubility (PBS, pH 7.4): Aqueous Solubility - Batch Mean (uM) Count>
1.0

>  <log P>
3.71

>  <log D>
3.07

>  <Pharmaron Caliper Assay (CDK2/CCNE1): Minimum measured (%)>
83.4

>  <Pharmaron Caliper Assay (CDK2/CCNE1): IC50 - Batch Mean (uM)>
5.43

>  <Pharmaron ADPGLO (CDK2/E1-25C): Minimum measured (%)>


>  <Pharmaron ADPGLO (CDK2/E1-25C): IC50 - Batch Mean (uM)>


>  <Pharmaron ADPGLO (CDK2/E1-37C): Minimum measured (%)>


>  <Pharmaron ADPGLO (CDK2/E1-37C): IC50 - Batch Mean (uM)>


>  <IncuCyte Kuramochi RB-WT: IC50 - Batch Mean (uM)>


>  <IncuCyte Kuramochi RB-KO: IC50 - Batch Mean (uM)>


>  <DSF (npCDK2/CCNE1): dTm D - Batch Mean [Concentration: 100]>


>  <DSF (npCDK2/CCNE1): dTm D - Batch Mean [Concentration: 20.0]>
0.397

>  <DSF (pCDK2/CCNE1): dTm D - Batch Mean [Concentration: 100]>


>  <DSF (pCDK2/CCNE1): dTm D - Batch Mean [Concentration: 20.0]>


>  <RLM: t1/2 - Batch Mean (Min)>


>  <RLM: Cl int - Batch Mean (uL/min/mg protein)>


>  <RLM: ER (Hepatic extraction ratio) - Batch Mean>


>  <HLM: t1/2 - Batch Mean (Min)>


>  <HLM: Cl int - Batch Mean (uL/min/mg protein)>


>  <HLM: ER (Hepatic extraction ratio) - Batch Mean>


>  <MDCK-WT 4% BSA: Papp (A-B) - Batch Mean (10-6, cm/s)>


>  <MDCK-WT 4% BSA: Papp (B-A) - Batch Mean (10-6, cm/s)>


>  <MDCK-WT 4% BSA: Efflux Ratio - Batch Mean>


>  <MDCK-WT 4% BSA: ~Net A_B - Batch Mean (10-6, cm/s)>


>  <pIC50>
5.2652

>  <Selection_1>
Y

>  <Selection_N>


>  <Serie>
Naphthyridine

>  <Selection_T>
N

>  <Train_Vs_Test>


$$$$
CTX-1020520
OCL MolfileCreator  2D

  0  0  0  0  0  0              0 V3000
M  V30 BEGIN CTAB
M  V30 COUNTS 44 50 0 0 0
M  V30 BEGIN ATOM
M  V30 1 O 5.1961 -0.75 0.0 0
M  V30 2 C 3.8971 0.0 0.0 0
M  V30 3 N 2.598 -0.75 0.0 0
M  V30 4 C 3.8971 1.5 0.0 0
M  V30 5 C 1.299 0.0 0.0 0
M  V30 6 N 5.1961 2.25 0.0 0
M  V30 7 C 2.598 2.25 0.0 0
M  V30 8 C 0.0 -0.75 0.0 0
M  V30 9 C 5.1961 3.75 0.0 0
M  V30 10 C 2.598 3.75 0.0 0
M  V30 11 C -1.299 0.0 0.0 0
M  V30 12 C 0.0 -2.2499 0.0 0
M  V30 13 C 3.8971 4.5 0.0 0
M  V30 14 C 6.4951 4.5 0.0 0
M  V30 15 N 1.299 4.5 0.0 0
M  V30 16 C -2.598 -0.7499 0.0 0
M  V30 17 C -1.299 -2.9999 0.0 0
M  V30 18 C 3.8971 6.0 0.0 0
M  V30 19 N 6.4951 6.0 0.0 0
M  V30 20 N 1.1422 5.9917 0.0 0
M  V30 21 C -0.0712 3.8898 0.0 0
M  V30 22 C -2.598 -2.2499 0.0 0
M  V30 23 C 5.1961 6.75 0.0 0
M  V30 24 C 7.7942 6.75 0.0 0
M  V30 25 C -0.3249 6.3036 0.0 0
M  V30 26 C -1.0749 5.0046 0.0 0
M  V30 27 N -3.8971 -2.9999 0.0 0
M  V30 28 O 9.0932 6.0 0.0 0
M  V30 29 C 7.7942 8.25 0.0 0
M  V30 30 C -5.1961 -2.2499 0.0 0
M  V30 31 C -3.8971 -4.4999 0.0 0
M  V30 32 O 9.0077 9.1316 0.0 0
M  V30 33 C 6.5807 9.1316 0.0 0
M  V30 34 C -6.4951 -2.9999 0.0 0
M  V30 35 C -5.1961 -5.2499 0.0 0
M  V30 36 C 8.5442 10.5582 0.0 0
M  V30 37 C 7.0442 10.5582 0.0 0
M  V30 38 C 5.1541 8.6681 0.0 0
M  V30 39 N -6.4951 -4.4999 0.0 0
M  V30 40 C 9.2942 11.8573 0.0 0
M  V30 41 C 6.2942 11.8573 0.0 0
M  V30 42 C -7.7942 -5.2499 0.0 0
M  V30 43 C 8.5442 13.1563 0.0 0
M  V30 44 C 7.0442 13.1563 0.0 0
M  V30 END ATOM
M  V30 BEGIN BOND
M  V30 1 2 1 2
M  V30 2 1 2 3
M  V30 3 1 2 4
M  V30 4 1 3 5
M  V30 5 2 4 6
M  V30 6 1 4 7
M  V30 7 1 5 8
M  V30 8 1 6 9
M  V30 9 2 7 10
M  V30 10 2 8 11
M  V30 11 1 8 12
M  V30 12 2 9 13
M  V30 13 1 9 14
M  V30 14 1 10 15
M  V30 15 1 11 16
M  V30 16 2 12 17
M  V30 17 1 13 18
M  V30 18 1 14 19
M  V30 19 1 15 20
M  V30 20 1 15 21
M  V30 21 2 16 22
M  V30 22 1 18 23
M  V30 23 1 19 24
M  V30 24 2 20 25
M  V30 25 2 21 26
M  V30 26 1 22 27
M  V30 27 2 24 28
M  V30 28 1 24 29
M  V30 29 1 27 30
M  V30 30 1 27 31
M  V30 31 1 29 32
M  V30 32 2 29 33
M  V30 33 1 30 34
M  V30 34 1 31 35
M  V30 35 1 32 36
M  V30 36 1 33 37
M  V30 37 1 33 38
M  V30 38 1 34 39
M  V30 39 1 36 40
M  V30 40 1 37 41
M  V30 41 1 39 42
M  V30 42 2 40 43
M  V30 43 2 41 44
M  V30 44 1 10 13
M  V30 45 1 17 22
M  V30 46 1 19 23
M  V30 47 1 25 26
M  V30 48 1 35 39
M  V30 49 2 36 37
M  V30 50 1 43 44
M  V30 END BOND
M  V30 END CTAB
M  END
>  <Molecule Name>
CTX-1020520

>  <SMILES>
CN1CCN(CC1)C1=CC=C(CNC(=O)C2=CC(N3C=CC=N3)=C3CCN(CC3=N2)C(=O)C2=C(C)C3=C(O2)C=CC=C3)C=C1

>  <Batch Name>
CTX-1020520-1

>  <Batch Created Date>
2021-11-04

>  <Batch ID>
CTX-1020520-1

>  <External ID>
610EDL127-2

>  <Stereochemistry>
Achiral

>  <Amount 1>
5.0

>  <Unit 1>
mg

>  <CRO 1>
Pharmaron

>  <CRO 1 Total Amount>
22.6

>  <CRO 1 Unit>
mg

>  <Pharmaron Solubility (PBS, pH 7.4): Aqueous Solubility - Batch Mean (uM)>
7.0256

>  <Pharmaron Solubility (PBS, pH 7.4): Aqueous Solubility - Batch Mean (uM) Standard Deviation (±)>


>  <Pharmaron Solubility (PBS, pH 7.4): Aqueous Solubility - Batch Mean (uM) Count>
1.0

>  <log P>
3.72

>  <log D>
3.08

>  <Pharmaron Caliper Assay (CDK2/CCNE1): Minimum measured (%)>
79.1

>  <Pharmaron Caliper Assay (CDK2/CCNE1): IC50 - Batch Mean (uM)>
2.93

>  <Pharmaron ADPGLO (CDK2/E1-25C): Minimum measured (%)>


>  <Pharmaron ADPGLO (CDK2/E1-25C): IC50 - Batch Mean (uM)>


>  <Pharmaron ADPGLO (CDK2/E1-37C): Minimum measured (%)>


>  <Pharmaron ADPGLO (CDK2/E1-37C): IC50 - Batch Mean (uM)>


>  <IncuCyte Kuramochi RB-WT: IC50 - Batch Mean (uM)>


>  <IncuCyte Kuramochi RB-KO: IC50 - Batch Mean (uM)>


>  <DSF (npCDK2/CCNE1): dTm D - Batch Mean [Concentration: 100]>


>  <DSF (npCDK2/CCNE1): dTm D - Batch Mean [Concentration: 20.0]>
0.564

>  <DSF (pCDK2/CCNE1): dTm D - Batch Mean [Concentration: 100]>


>  <DSF (pCDK2/CCNE1): dTm D - Batch Mean [Concentration: 20.0]>


>  <RLM: t1/2 - Batch Mean (Min)>


>  <RLM: Cl int - Batch Mean (uL/min/mg protein)>


>  <RLM: ER (Hepatic extraction ratio) - Batch Mean>


>  <HLM: t1/2 - Batch Mean (Min)>


>  <HLM: Cl int - Batch Mean (uL/min/mg protein)>


>  <HLM: ER (Hepatic extraction ratio) - Batch Mean>


>  <MDCK-WT 4% BSA: Papp (A-B) - Batch Mean (10-6, cm/s)>


>  <MDCK-WT 4% BSA: Papp (B-A) - Batch Mean (10-6, cm/s)>


>  <MDCK-WT 4% BSA: Efflux Ratio - Batch Mean>


>  <MDCK-WT 4% BSA: ~Net A_B - Batch Mean (10-6, cm/s)>


>  <pIC50>
5.533132

>  <Selection_1>
Y

>  <Selection_N>


>  <Serie>
Naphthyridine

>  <Selection_T>
N

>  <Train_Vs_Test>


$$$$
CTX-1020518
OCL MolfileCreator  2D

  0  0  0  0  0  0              0 V3000
M  V30 BEGIN CTAB
M  V30 COUNTS 34 38 0 0 0
M  V30 BEGIN ATOM
M  V30 1 S 6.5664 -0.1398 0.0 0
M  V30 2 C 5.1961 -0.75 0.0 0
M  V30 3 C 7.5701 -1.2546 0.0 0
M  V30 4 C 3.8971 0.0 0.0 0
M  V30 5 C 5.3529 -2.2417 0.0 0
M  V30 6 C 6.8201 -2.5536 0.0 0
M  V30 7 C 9.0701 -1.2546 0.0 0
M  V30 8 O 3.8971 1.5 0.0 0
M  V30 9 N 2.598 -0.75 0.0 0
M  V30 10 C 7.5701 -3.8526 0.0 0
M  V30 11 C 9.8201 -2.5536 0.0 0
M  V30 12 C 1.299 0.0 0.0 0
M  V30 13 N 9.0701 -3.8526 0.0 0
M  V30 14 C 0.0 -0.75 0.0 0
M  V30 15 C 9.8201 -5.1517 0.0 0
M  V30 16 C -1.299 0.0 0.0 0
M  V30 17 C 0.0 -2.25 0.0 0
M  V30 18 O 9.0701 -6.4507 0.0 0
M  V30 19 C 11.3201 -5.1517 0.0 0
M  V30 20 C -2.598 -0.7499 0.0 0
M  V30 21 C -1.299 -2.9999 0.0 0
M  V30 22 O 12.2018 -6.3652 0.0 0
M  V30 23 C 12.2018 -3.9382 0.0 0
M  V30 24 C -2.598 -2.2499 0.0 0
M  V30 25 C 13.6284 -5.9017 0.0 0
M  V30 26 C 13.6284 -4.4017 0.0 0
M  V30 27 C 11.7383 -2.5116 0.0 0
M  V30 28 N -3.8971 -2.9999 0.0 0
M  V30 29 C 14.9274 -6.6517 0.0 0
M  V30 30 C 14.9274 -3.6517 0.0 0
M  V30 31 C -5.1961 -2.2499 0.0 0
M  V30 32 C -3.8971 -4.4999 0.0 0
M  V30 33 C 16.2265 -5.9017 0.0 0
M  V30 34 C 16.2265 -4.4017 0.0 0
M  V30 END ATOM
M  V30 BEGIN BOND
M  V30 1 1 1 2
M  V30 2 1 1 3
M  V30 3 1 2 4
M  V30 4 2 2 5
M  V30 5 2 3 6
M  V30 6 1 3 7
M  V30 7 2 4 8
M  V30 8 1 4 9
M  V30 9 1 6 10
M  V30 10 1 7 11
M  V30 11 1 9 12
M  V30 12 1 10 13
M  V30 13 1 12 14
M  V30 14 1 13 15
M  V30 15 2 14 16
M  V30 16 1 14 17
M  V30 17 2 15 18
M  V30 18 1 15 19
M  V30 19 1 16 20
M  V30 20 2 17 21
M  V30 21 1 19 22
M  V30 22 2 19 23
M  V30 23 2 20 24
M  V30 24 1 22 25
M  V30 25 1 23 26
M  V30 26 1 23 27
M  V30 27 1 24 28
M  V30 28 1 25 29
M  V30 29 1 26 30
M  V30 30 1 28 31
M  V30 31 1 28 32
M  V30 32 2 29 33
M  V30 33 2 30 34
M  V30 34 1 5 6
M  V30 35 1 11 13
M  V30 36 1 21 24
M  V30 37 2 25 26
M  V30 38 1 33 34
M  V30 END BOND
M  V30 END CTAB
M  END
>  <Molecule Name>
CTX-1020518

>  <SMILES>
CN(C)C1=CC=C(CNC(=O)C2=CC3=C(CCN(C3)C(=O)C3=C(C)C4=C(O3)C=CC=C4)S2)C=C1

>  <Batch Name>
CTX-1020518-1

>  <Batch Created Date>
2021-11-04

>  <Batch ID>
CTX-1020518-1

>  <External ID>
610EDL099-C

>  <Stereochemistry>
Achiral

>  <Amount 1>
4.99

>  <Unit 1>
mg

>  <CRO 1>
Pharmaron

>  <CRO 1 Total Amount>
4.5

>  <CRO 1 Unit>
mg

>  <Pharmaron Solubility (PBS, pH 7.4): Aqueous Solubility - Batch Mean (uM)>
0.0073

>  <Pharmaron Solubility (PBS, pH 7.4): Aqueous Solubility - Batch Mean (uM) Standard Deviation (±)>


>  <Pharmaron Solubility (PBS, pH 7.4): Aqueous Solubility - Batch Mean (uM) Count>
1.0

>  <log P>
4.58

>  <log D>
4.58

>  <Pharmaron Caliper Assay (CDK2/CCNE1): Minimum measured (%)>
39.5

>  <Pharmaron Caliper Assay (CDK2/CCNE1): IC50 - Batch Mean (uM)>
0.626

>  <Pharmaron ADPGLO (CDK2/E1-25C): Minimum measured (%)>


>  <Pharmaron ADPGLO (CDK2/E1-25C): IC50 - Batch Mean (uM)>


>  <Pharmaron ADPGLO (CDK2/E1-37C): Minimum measured (%)>


>  <Pharmaron ADPGLO (CDK2/E1-37C): IC50 - Batch Mean (uM)>


>  <IncuCyte Kuramochi RB-WT: IC50 - Batch Mean (uM)>
20.0

>  <IncuCyte Kuramochi RB-KO: IC50 - Batch Mean (uM)>
20.0

>  <DSF (npCDK2/CCNE1): dTm D - Batch Mean [Concentration: 100]>


>  <DSF (npCDK2/CCNE1): dTm D - Batch Mean [Concentration: 20.0]>
2.835

>  <DSF (pCDK2/CCNE1): dTm D - Batch Mean [Concentration: 100]>


>  <DSF (pCDK2/CCNE1): dTm D - Batch Mean [Concentration: 20.0]>
1.4809999999999999

>  <RLM: t1/2 - Batch Mean (Min)>


>  <RLM: Cl int - Batch Mean (uL/min/mg protein)>


>  <RLM: ER (Hepatic extraction ratio) - Batch Mean>


>  <HLM: t1/2 - Batch Mean (Min)>


>  <HLM: Cl int - Batch Mean (uL/min/mg protein)>


>  <HLM: ER (Hepatic extraction ratio) - Batch Mean>


>  <MDCK-WT 4% BSA: Papp (A-B) - Batch Mean (10-6, cm/s)>


>  <MDCK-WT 4% BSA: Papp (B-A) - Batch Mean (10-6, cm/s)>


>  <MDCK-WT 4% BSA: Efflux Ratio - Batch Mean>


>  <MDCK-WT 4% BSA: ~Net A_B - Batch Mean (10-6, cm/s)>


>  <pIC50>
6.203426

>  <Selection_1>
Y

>  <Selection_N>
N

>  <Serie>
Tetrahydrothienopyridine

>  <Selection_T>


>  <Train_Vs_Test>


$$$$
CTX-1020517
OCL MolfileCreator  2D

  0  0  0  0  0  0              0 V3000
M  V30 BEGIN CTAB
M  V30 COUNTS 38 43 0 0 0
M  V30 BEGIN ATOM
M  V30 1 S 9.6802 -7.821 0.0 0
M  V30 2 C 9.0701 -6.4507 0.0 0
M  V30 3 C 8.5655 -8.8247 0.0 0
M  V30 4 C 7.5783 -6.6075 0.0 0
M  V30 5 C 9.8201 -5.1517 0.0 0
M  V30 6 C 7.2665 -8.0747 0.0 0
M  V30 7 C 8.5655 -10.3247 0.0 0
M  V30 8 C 6.5746 -5.4928 0.0 0
M  V30 9 O 11.3201 -5.1517 0.0 0
M  V30 10 N 9.0701 -3.8526 0.0 0
M  V30 11 C 5.9674 -8.8247 0.0 0
M  V30 12 C 7.2665 -11.0747 0.0 0
M  V30 13 C 7.5701 -3.8526 0.0 0
M  V30 14 C 9.8201 -2.5536 0.0 0
M  V30 15 C 5.9674 -10.3247 0.0 0
M  V30 16 C 6.8201 -2.5536 0.0 0
M  V30 17 C 9.0701 -1.2546 0.0 0
M  V30 18 C 7.5701 -1.2546 0.0 0
M  V30 19 C 5.3529 -2.2417 0.0 0
M  V30 20 S 6.5664 -0.1398 0.0 0
M  V30 21 C 5.1961 -0.75 0.0 0
M  V30 22 C 3.8971 0.0 0.0 0
M  V30 23 O 3.8971 1.5 0.0 0
M  V30 24 N 2.598 -0.75 0.0 0
M  V30 25 C 1.299 0.0 0.0 0
M  V30 26 C 0.0 -0.75 0.0 0
M  V30 27 C -1.299 0.0 0.0 0
M  V30 28 C 0.0 -2.2499 0.0 0
M  V30 29 C -2.598 -0.7499 0.0 0
M  V30 30 C -1.299 -2.9999 0.0 0
M  V30 31 C -2.598 -2.2499 0.0 0
M  V30 32 N -3.8971 -2.9999 0.0 0
M  V30 33 C -5.1961 -2.2499 0.0 0
M  V30 34 C -3.8971 -4.4999 0.0 0
M  V30 35 C -6.4951 -2.9999 0.0 0
M  V30 36 C -5.1961 -5.2499 0.0 0
M  V30 37 N -6.4951 -4.4999 0.0 0
M  V30 38 C -7.7942 -5.2499 0.0 0
M  V30 END ATOM
M  V30 BEGIN BOND
M  V30 1 1 1 2
M  V30 2 1 1 3
M  V30 3 2 2 4
M  V30 4 1 2 5
M  V30 5 2 3 6
M  V30 6 1 3 7
M  V30 7 1 4 8
M  V30 8 2 5 9
M  V30 9 1 5 10
M  V30 10 1 6 11
M  V30 11 2 7 12
M  V30 12 1 10 13
M  V30 13 1 10 14
M  V30 14 2 11 15
M  V30 15 1 13 16
M  V30 16 1 14 17
M  V30 17 2 16 18
M  V30 18 1 16 19
M  V30 19 1 18 20
M  V30 20 2 19 21
M  V30 21 1 21 22
M  V30 22 2 22 23
M  V30 23 1 22 24
M  V30 24 1 24 25
M  V30 25 1 25 26
M  V30 26 2 26 27
M  V30 27 1 26 28
M  V30 28 1 27 29
M  V30 29 2 28 30
M  V30 30 2 29 31
M  V30 31 1 31 32
M  V30 32 1 32 33
M  V30 33 1 32 34
M  V30 34 1 33 35
M  V30 35 1 34 36
M  V30 36 1 35 37
M  V30 37 1 37 38
M  V30 38 1 4 6
M  V30 39 1 12 15
M  V30 40 1 17 18
M  V30 41 1 20 21
M  V30 42 1 30 31
M  V30 43 1 36 37
M  V30 END BOND
M  V30 END CTAB
M  END
>  <Molecule Name>
CTX-1020517

>  <SMILES>
CN1CCN(CC1)C1=CC=C(CNC(=O)C2=CC3=C(CCN(C3)C(=O)C3=C(C)C4=C(S3)C=CC=C4)S2)C=C1

>  <Batch Name>
CTX-1020517-1

>  <Batch Created Date>
2021-11-04

>  <Batch ID>
CTX-1020517-1

>  <External ID>
610EDL074-B

>  <Stereochemistry>
Achiral

>  <Amount 1>
5.04

>  <Unit 1>
mg

>  <CRO 1>
Pharmaron

>  <CRO 1 Total Amount>
24.4

>  <CRO 1 Unit>
mg

>  <Pharmaron Solubility (PBS, pH 7.4): Aqueous Solubility - Batch Mean (uM)>
0.8627

>  <Pharmaron Solubility (PBS, pH 7.4): Aqueous Solubility - Batch Mean (uM) Standard Deviation (±)>


>  <Pharmaron Solubility (PBS, pH 7.4): Aqueous Solubility - Batch Mean (uM) Count>
1.0

>  <log P>
5.36

>  <log D>
4.72

>  <Pharmaron Caliper Assay (CDK2/CCNE1): Minimum measured (%)>
62.5

>  <Pharmaron Caliper Assay (CDK2/CCNE1): IC50 - Batch Mean (uM)>
2.88

>  <Pharmaron ADPGLO (CDK2/E1-25C): Minimum measured (%)>


>  <Pharmaron ADPGLO (CDK2/E1-25C): IC50 - Batch Mean (uM)>


>  <Pharmaron ADPGLO (CDK2/E1-37C): Minimum measured (%)>


>  <Pharmaron ADPGLO (CDK2/E1-37C): IC50 - Batch Mean (uM)>


>  <IncuCyte Kuramochi RB-WT: IC50 - Batch Mean (uM)>
5.81

>  <IncuCyte Kuramochi RB-KO: IC50 - Batch Mean (uM)>
5.92

>  <DSF (npCDK2/CCNE1): dTm D - Batch Mean [Concentration: 100]>


>  <DSF (npCDK2/CCNE1): dTm D - Batch Mean [Concentration: 20.0]>
2.1

>  <DSF (pCDK2/CCNE1): dTm D - Batch Mean [Concentration: 100]>


>  <DSF (pCDK2/CCNE1): dTm D - Batch Mean [Concentration: 20.0]>
1.815

>  <RLM: t1/2 - Batch Mean (Min)>


>  <RLM: Cl int - Batch Mean (uL/min/mg protein)>


>  <RLM: ER (Hepatic extraction ratio) - Batch Mean>


>  <HLM: t1/2 - Batch Mean (Min)>


>  <HLM: Cl int - Batch Mean (uL/min/mg protein)>


>  <HLM: ER (Hepatic extraction ratio) - Batch Mean>


>  <MDCK-WT 4% BSA: Papp (A-B) - Batch Mean (10-6, cm/s)>


>  <MDCK-WT 4% BSA: Papp (B-A) - Batch Mean (10-6, cm/s)>


>  <MDCK-WT 4% BSA: Efflux Ratio - Batch Mean>


>  <MDCK-WT 4% BSA: ~Net A_B - Batch Mean (10-6, cm/s)>


>  <pIC50>
5.540607

>  <Selection_1>
Y

>  <Selection_N>
N

>  <Serie>
Tetrahydrothienopyridine

>  <Selection_T>


>  <Train_Vs_Test>


$$$$
CTX-1020516
OCL MolfileCreator  2D

  0  0  0  0  0  0              0 V3000
M  V30 BEGIN CTAB
M  V30 COUNTS 31 35 0 0 0
M  V30 BEGIN ATOM
M  V30 1 S 6.5664 -0.1398 0.0 0
M  V30 2 C 5.1961 -0.75 0.0 0
M  V30 3 C 7.5701 -1.2546 0.0 0
M  V30 4 C 3.8971 0.0 0.0 0
M  V30 5 C 5.3529 -2.2417 0.0 0
M  V30 6 C 6.8201 -2.5536 0.0 0
M  V30 7 C 9.0701 -1.2546 0.0 0
M  V30 8 O 3.8971 1.5 0.0 0
M  V30 9 N 2.598 -0.75 0.0 0
M  V30 10 C 7.5701 -3.8526 0.0 0
M  V30 11 C 9.8201 -2.5536 0.0 0
M  V30 12 C 1.299 0.0 0.0 0
M  V30 13 N 9.0701 -3.8526 0.0 0
M  V30 14 C 0.0 -0.75 0.0 0
M  V30 15 C 9.8201 -5.1517 0.0 0
M  V30 16 C -1.299 0.0 0.0 0
M  V30 17 C 0.0 -2.25 0.0 0
M  V30 18 O 9.0701 -6.4507 0.0 0
M  V30 19 C 11.3201 -5.1517 0.0 0
M  V30 20 C -2.598 -0.7499 0.0 0
M  V30 21 C -1.299 -2.9999 0.0 0
M  V30 22 O 12.2018 -6.3652 0.0 0
M  V30 23 C 12.2018 -3.9382 0.0 0
M  V30 24 C -2.598 -2.2499 0.0 0
M  V30 25 C 13.6284 -5.9017 0.0 0
M  V30 26 C 13.6284 -4.4017 0.0 0
M  V30 27 C 11.7383 -2.5116 0.0 0
M  V30 28 C 14.9274 -6.6517 0.0 0
M  V30 29 C 14.9274 -3.6517 0.0 0
M  V30 30 C 16.2265 -5.9017 0.0 0
M  V30 31 C 16.2265 -4.4017 0.0 0
M  V30 END ATOM
M  V30 BEGIN BOND
M  V30 1 1 1 2
M  V30 2 1 1 3
M  V30 3 1 2 4
M  V30 4 2 2 5
M  V30 5 2 3 6
M  V30 6 1 3 7
M  V30 7 2 4 8
M  V30 8 1 4 9
M  V30 9 1 6 10
M  V30 10 1 7 11
M  V30 11 1 9 12
M  V30 12 1 10 13
M  V30 13 1 12 14
M  V30 14 1 13 15
M  V30 15 2 14 16
M  V30 16 1 14 17
M  V30 17 2 15 18
M  V30 18 1 15 19
M  V30 19 1 16 20
M  V30 20 2 17 21
M  V30 21 1 19 22
M  V30 22 2 19 23
M  V30 23 2 20 24
M  V30 24 1 22 25
M  V30 25 1 23 26
M  V30 26 1 23 27
M  V30 27 1 25 28
M  V30 28 1 26 29
M  V30 29 2 28 30
M  V30 30 2 29 31
M  V30 31 1 5 6
M  V30 32 1 11 13
M  V30 33 1 21 24
M  V30 34 2 25 26
M  V30 35 1 30 31
M  V30 END BOND
M  V30 END CTAB
M  END
>  <Molecule Name>
CTX-1020516

>  <SMILES>
CC1=C(OC2=C1C=CC=C2)C(=O)N1CCC2=C(C1)C=C(S2)C(=O)NCC1=CC=CC=C1

>  <Batch Name>
CTX-1020516-1

>  <Batch Created Date>
2021-11-04

>  <Batch ID>
CTX-1020516-1

>  <External ID>
610EDL073-C

>  <Stereochemistry>
Achiral

>  <Amount 1>
6.65

>  <Unit 1>
mg

>  <CRO 1>
Pharmaron

>  <CRO 1 Total Amount>
6.4

>  <CRO 1 Unit>
mg

>  <Pharmaron Solubility (PBS, pH 7.4): Aqueous Solubility - Batch Mean (uM)>
0.0048

>  <Pharmaron Solubility (PBS, pH 7.4): Aqueous Solubility - Batch Mean (uM) Standard Deviation (±)>


>  <Pharmaron Solubility (PBS, pH 7.4): Aqueous Solubility - Batch Mean (uM) Count>
1.0

>  <log P>
4.47

>  <log D>
4.47

>  <Pharmaron Caliper Assay (CDK2/CCNE1): Minimum measured (%)>
52.0

>  <Pharmaron Caliper Assay (CDK2/CCNE1): IC50 - Batch Mean (uM)>
0.75

>  <Pharmaron ADPGLO (CDK2/E1-25C): Minimum measured (%)>


>  <Pharmaron ADPGLO (CDK2/E1-25C): IC50 - Batch Mean (uM)>


>  <Pharmaron ADPGLO (CDK2/E1-37C): Minimum measured (%)>


>  <Pharmaron ADPGLO (CDK2/E1-37C): IC50 - Batch Mean (uM)>


>  <IncuCyte Kuramochi RB-WT: IC50 - Batch Mean (uM)>
20.0

>  <IncuCyte Kuramochi RB-KO: IC50 - Batch Mean (uM)>
20.0

>  <DSF (npCDK2/CCNE1): dTm D - Batch Mean [Concentration: 100]>


>  <DSF (npCDK2/CCNE1): dTm D - Batch Mean [Concentration: 20.0]>
2.501

>  <DSF (pCDK2/CCNE1): dTm D - Batch Mean [Concentration: 100]>


>  <DSF (pCDK2/CCNE1): dTm D - Batch Mean [Concentration: 20.0]>
1.147

>  <RLM: t1/2 - Batch Mean (Min)>


>  <RLM: Cl int - Batch Mean (uL/min/mg protein)>


>  <RLM: ER (Hepatic extraction ratio) - Batch Mean>


>  <HLM: t1/2 - Batch Mean (Min)>


>  <HLM: Cl int - Batch Mean (uL/min/mg protein)>


>  <HLM: ER (Hepatic extraction ratio) - Batch Mean>


>  <MDCK-WT 4% BSA: Papp (A-B) - Batch Mean (10-6, cm/s)>


>  <MDCK-WT 4% BSA: Papp (B-A) - Batch Mean (10-6, cm/s)>


>  <MDCK-WT 4% BSA: Efflux Ratio - Batch Mean>


>  <MDCK-WT 4% BSA: ~Net A_B - Batch Mean (10-6, cm/s)>


>  <pIC50>
6.124939

>  <Selection_1>
Y

>  <Selection_N>
N

>  <Serie>
Tetrahydrothienopyridine

>  <Selection_T>


>  <Train_Vs_Test>


$$$$
CTX-1020459
OCL MolfileCreator  2D

  0  0  0  0  0  0              0 V3000
M  V30 BEGIN CTAB
M  V30 COUNTS 40 45 0 0 0
M  V30 BEGIN ATOM
M  V30 1 Cl 11.7429 -3.4344 0.0 0
M  V30 2 C 11.2429 -2.5684 0.0 0
M  V30 3 C 10.2429 -2.5684 0.0 0
M  V30 4 C 11.7429 -1.7024 0.0 0
M  V30 5 C 9.7429 -1.7024 0.0 0
M  V30 6 C 11.2429 -0.8364 0.0 0
M  V30 7 C 10.2429 -0.8364 0.0 0
M  V30 8 C 8.7647 -1.4945 0.0 0
M  V30 9 O 9.5737 -0.0932 0.0 0
M  V30 10 C 8.6602 -0.5 0.0 0
M  V30 11 C 8.0216 -2.1636 0.0 0
M  V30 12 C 7.7942 0.0 0.0 0
M  V30 13 O 7.7942 0.9999 0.0 0
M  V30 14 N 6.9282 -0.5 0.0 0
M  V30 15 C 6.0621 0.0 0.0 0
M  V30 16 C 6.9282 -1.4999 0.0 0
M  V30 17 C 5.1961 -0.5 0.0 0
M  V30 18 C 6.0621 -1.9999 0.0 0
M  V30 19 N 4.3301 0.0 0.0 0
M  V30 20 C 5.1961 -1.4999 0.0 0
M  V30 21 C 3.4641 -0.5 0.0 0
M  V30 22 C 4.3301 -2.0 0.0 0
M  V30 23 C 2.598 0.0 0.0 0
M  V30 24 C 3.4641 -1.4999 0.0 0
M  V30 25 O 2.598 1.0 0.0 0
M  V30 26 N 1.732 -0.5 0.0 0
M  V30 27 C 0.866 0.0 0.0 0
M  V30 28 C 0.0 -0.5 0.0 0
M  V30 29 C -0.866 0.0 0.0 0
M  V30 30 C 0.0 -1.4999 0.0 0
M  V30 31 C -1.732 -0.4999 0.0 0
M  V30 32 C -0.866 -1.9999 0.0 0
M  V30 33 C -1.732 -1.4999 0.0 0
M  V30 34 N -2.598 -1.9999 0.0 0
M  V30 35 C -3.4641 -1.4999 0.0 0
M  V30 36 C -2.598 -2.9999 0.0 0
M  V30 37 C -4.3301 -1.9999 0.0 0
M  V30 38 C -3.4641 -3.4999 0.0 0
M  V30 39 N -4.3301 -2.9999 0.0 0
M  V30 40 C -5.1961 -3.4999 0.0 0
M  V30 END ATOM
M  V30 BEGIN BOND
M  V30 1 1 1 2
M  V30 2 2 2 3
M  V30 3 1 2 4
M  V30 4 1 3 5
M  V30 5 2 4 6
M  V30 6 2 5 7
M  V30 7 1 5 8
M  V30 8 1 7 9
M  V30 9 2 8 10
M  V30 10 1 8 11
M  V30 11 1 10 12
M  V30 12 2 12 13
M  V30 13 1 12 14
M  V30 14 1 14 15
M  V30 15 1 14 16
M  V30 16 1 15 17
M  V30 17 1 16 18
M  V30 18 2 17 19
M  V30 19 1 17 20
M  V30 20 1 19 21
M  V30 21 2 20 22
M  V30 22 1 21 23
M  V30 23 2 21 24
M  V30 24 2 23 25
M  V30 25 1 23 26
M  V30 26 1 26 27
M  V30 27 1 27 28
M  V30 28 2 28 29
M  V30 29 1 28 30
M  V30 30 1 29 31
M  V30 31 2 30 32
M  V30 32 2 31 33
M  V30 33 1 33 34
M  V30 34 1 34 35
M  V30 35 1 34 36
M  V30 36 1 35 37
M  V30 37 1 36 38
M  V30 38 1 37 39
M  V30 39 1 39 40
M  V30 40 1 6 7
M  V30 41 1 9 10
M  V30 42 1 18 20
M  V30 43 1 22 24
M  V30 44 1 32 33
M  V30 45 1 38 39
M  V30 END BOND
M  V30 END CTAB
M  END
>  <Molecule Name>
CTX-1020459

>  <SMILES>
CN1CCN(CC1)C1=CC=C(CNC(=O)C2=CC=C3CCN(CC3=N2)C(=O)C2=C(C)C3=C(O2)C=CC(Cl)=C3)C=C1

>  <Batch Name>
CTX-1020459-1

>  <Batch Created Date>
2021-10-21

>  <Batch ID>
CTX-1020459-1

>  <External ID>
P841-0208

>  <Stereochemistry>
Achiral

>  <Amount 1>
5.2

>  <Unit 1>
mg

>  <CRO 1>
Pharmaron

>  <CRO 1 Total Amount>
32.2

>  <CRO 1 Unit>
mg

>  <Pharmaron Solubility (PBS, pH 7.4): Aqueous Solubility - Batch Mean (uM)>
1.5634

>  <Pharmaron Solubility (PBS, pH 7.4): Aqueous Solubility - Batch Mean (uM) Standard Deviation (±)>


>  <Pharmaron Solubility (PBS, pH 7.4): Aqueous Solubility - Batch Mean (uM) Count>
1.0

>  <log P>
4.24

>  <log D>
3.6

>  <Pharmaron Caliper Assay (CDK2/CCNE1): Minimum measured (%)>
73.2

>  <Pharmaron Caliper Assay (CDK2/CCNE1): IC50 - Batch Mean (uM)>
1.82

>  <Pharmaron ADPGLO (CDK2/E1-25C): Minimum measured (%)>


>  <Pharmaron ADPGLO (CDK2/E1-25C): IC50 - Batch Mean (uM)>


>  <Pharmaron ADPGLO (CDK2/E1-37C): Minimum measured (%)>


>  <Pharmaron ADPGLO (CDK2/E1-37C): IC50 - Batch Mean (uM)>


>  <IncuCyte Kuramochi RB-WT: IC50 - Batch Mean (uM)>
3.76

>  <IncuCyte Kuramochi RB-KO: IC50 - Batch Mean (uM)>
4.13

>  <DSF (npCDK2/CCNE1): dTm D - Batch Mean [Concentration: 100]>


>  <DSF (npCDK2/CCNE1): dTm D - Batch Mean [Concentration: 20.0]>
0.341

>  <DSF (pCDK2/CCNE1): dTm D - Batch Mean [Concentration: 100]>


>  <DSF (pCDK2/CCNE1): dTm D - Batch Mean [Concentration: 20.0]>


>  <RLM: t1/2 - Batch Mean (Min)>


>  <RLM: Cl int - Batch Mean (uL/min/mg protein)>


>  <RLM: ER (Hepatic extraction ratio) - Batch Mean>


>  <HLM: t1/2 - Batch Mean (Min)>


>  <HLM: Cl int - Batch Mean (uL/min/mg protein)>


>  <HLM: ER (Hepatic extraction ratio) - Batch Mean>


>  <MDCK-WT 4% BSA: Papp (A-B) - Batch Mean (10-6, cm/s)>


>  <MDCK-WT 4% BSA: Papp (B-A) - Batch Mean (10-6, cm/s)>


>  <MDCK-WT 4% BSA: Efflux Ratio - Batch Mean>


>  <MDCK-WT 4% BSA: ~Net A_B - Batch Mean (10-6, cm/s)>


>  <pIC50>
5.739929

>  <Selection_1>
Y

>  <Selection_N>


>  <Serie>
Naphthyridine

>  <Selection_T>
N

>  <Train_Vs_Test>


$$$$
CTX-1020458
OCL MolfileCreator  2D

  0  0  0  0  0  0              0 V3000
M  V30 BEGIN CTAB
M  V30 COUNTS 40 45 0 0 0
M  V30 BEGIN ATOM
M  V30 1 O 5.1961 -0.75 0.0 0
M  V30 2 C 3.8971 0.0 0.0 0
M  V30 3 N 2.598 -0.75 0.0 0
M  V30 4 C 3.8971 1.5 0.0 0
M  V30 5 C 1.299 0.0 0.0 0
M  V30 6 N 5.1961 2.25 0.0 0
M  V30 7 C 2.598 2.25 0.0 0
M  V30 8 C 0.0 -0.75 0.0 0
M  V30 9 C 5.1961 3.75 0.0 0
M  V30 10 C 2.598 3.75 0.0 0
M  V30 11 C -1.299 0.0 0.0 0
M  V30 12 C 0.0 -2.2499 0.0 0
M  V30 13 C 3.8971 4.5 0.0 0
M  V30 14 C 6.4951 4.5 0.0 0
M  V30 15 C -2.598 -0.7499 0.0 0
M  V30 16 C -1.299 -2.9999 0.0 0
M  V30 17 C 3.8971 6.0 0.0 0
M  V30 18 N 6.4951 6.0 0.0 0
M  V30 19 C -2.598 -2.2499 0.0 0
M  V30 20 C 5.1961 6.75 0.0 0
M  V30 21 C 7.7942 6.75 0.0 0
M  V30 22 N -3.8971 -2.9999 0.0 0
M  V30 23 O 9.0932 6.0 0.0 0
M  V30 24 C 7.7942 8.25 0.0 0
M  V30 25 C -5.1961 -2.2499 0.0 0
M  V30 26 C -3.8971 -4.4999 0.0 0
M  V30 27 O 9.0077 9.1316 0.0 0
M  V30 28 C 6.5807 9.1316 0.0 0
M  V30 29 C -6.4951 -2.9999 0.0 0
M  V30 30 C -5.1961 -5.2499 0.0 0
M  V30 31 C 8.5442 10.5582 0.0 0
M  V30 32 C 7.0442 10.5582 0.0 0
M  V30 33 C 5.1541 8.6681 0.0 0
M  V30 34 N -6.4951 -4.4999 0.0 0
M  V30 35 C 9.2942 11.8573 0.0 0
M  V30 36 C 6.2942 11.8573 0.0 0
M  V30 37 C -7.7942 -5.2499 0.0 0
M  V30 38 C 8.5442 13.1563 0.0 0
M  V30 39 C 7.0442 13.1563 0.0 0
M  V30 40 C 9.2942 14.4553 0.0 0
M  V30 END ATOM
M  V30 BEGIN BOND
M  V30 1 2 1 2
M  V30 2 1 2 3
M  V30 3 1 2 4
M  V30 4 1 3 5
M  V30 5 2 4 6
M  V30 6 1 4 7
M  V30 7 1 5 8
M  V30 8 1 6 9
M  V30 9 2 7 10
M  V30 10 2 8 11
M  V30 11 1 8 12
M  V30 12 2 9 13
M  V30 13 1 9 14
M  V30 14 1 11 15
M  V30 15 2 12 16
M  V30 16 1 13 17
M  V30 17 1 14 18
M  V30 18 2 15 19
M  V30 19 1 17 20
M  V30 20 1 18 21
M  V30 21 1 19 22
M  V30 22 2 21 23
M  V30 23 1 21 24
M  V30 24 1 22 25
M  V30 25 1 22 26
M  V30 26 1 24 27
M  V30 27 2 24 28
M  V30 28 1 25 29
M  V30 29 1 26 30
M  V30 30 1 27 31
M  V30 31 1 28 32
M  V30 32 1 28 33
M  V30 33 1 29 34
M  V30 34 1 31 35
M  V30 35 1 32 36
M  V30 36 1 34 37
M  V30 37 2 35 38
M  V30 38 2 36 39
M  V30 39 1 38 40
M  V30 40 1 10 13
M  V30 41 1 16 19
M  V30 42 1 18 20
M  V30 43 1 30 34
M  V30 44 2 31 32
M  V30 45 1 38 39
M  V30 END BOND
M  V30 END CTAB
M  END
>  <Molecule Name>
CTX-1020458

>  <SMILES>
CN1CCN(CC1)C1=CC=C(CNC(=O)C2=NC3=C(CCN(C3)C(=O)C3=C(C)C4=C(O3)C=C(C)C=C4)C=C2)C=C1

>  <Batch Name>
CTX-1020458-1

>  <Batch Created Date>
2021-10-21

>  <Batch ID>
CTX-1020458-1

>  <External ID>
P841-0212

>  <Stereochemistry>
Achiral

>  <Amount 1>
4.6

>  <Unit 1>
mg

>  <CRO 1>
Pharmaron

>  <CRO 1 Total Amount>
28.0

>  <CRO 1 Unit>
mg

>  <Pharmaron Solubility (PBS, pH 7.4): Aqueous Solubility - Batch Mean (uM)>
2.0444

>  <Pharmaron Solubility (PBS, pH 7.4): Aqueous Solubility - Batch Mean (uM) Standard Deviation (±)>


>  <Pharmaron Solubility (PBS, pH 7.4): Aqueous Solubility - Batch Mean (uM) Count>
1.0

>  <log P>
4.15

>  <log D>
3.51

>  <Pharmaron Caliper Assay (CDK2/CCNE1): Minimum measured (%)>
64.0

>  <Pharmaron Caliper Assay (CDK2/CCNE1): IC50 - Batch Mean (uM)>
4.75

>  <Pharmaron ADPGLO (CDK2/E1-25C): Minimum measured (%)>


>  <Pharmaron ADPGLO (CDK2/E1-25C): IC50 - Batch Mean (uM)>


>  <Pharmaron ADPGLO (CDK2/E1-37C): Minimum measured (%)>


>  <Pharmaron ADPGLO (CDK2/E1-37C): IC50 - Batch Mean (uM)>


>  <IncuCyte Kuramochi RB-WT: IC50 - Batch Mean (uM)>
3.67

>  <IncuCyte Kuramochi RB-KO: IC50 - Batch Mean (uM)>
3.67

>  <DSF (npCDK2/CCNE1): dTm D - Batch Mean [Concentration: 100]>


>  <DSF (npCDK2/CCNE1): dTm D - Batch Mean [Concentration: 20.0]>
0.624

>  <DSF (pCDK2/CCNE1): dTm D - Batch Mean [Concentration: 100]>


>  <DSF (pCDK2/CCNE1): dTm D - Batch Mean [Concentration: 20.0]>


>  <RLM: t1/2 - Batch Mean (Min)>


>  <RLM: Cl int - Batch Mean (uL/min/mg protein)>


>  <RLM: ER (Hepatic extraction ratio) - Batch Mean>


>  <HLM: t1/2 - Batch Mean (Min)>


>  <HLM: Cl int - Batch Mean (uL/min/mg protein)>


>  <HLM: ER (Hepatic extraction ratio) - Batch Mean>


>  <MDCK-WT 4% BSA: Papp (A-B) - Batch Mean (10-6, cm/s)>


>  <MDCK-WT 4% BSA: Papp (B-A) - Batch Mean (10-6, cm/s)>


>  <MDCK-WT 4% BSA: Efflux Ratio - Batch Mean>


>  <MDCK-WT 4% BSA: ~Net A_B - Batch Mean (10-6, cm/s)>


>  <pIC50>
5.323306

>  <Selection_1>
Y

>  <Selection_N>


>  <Serie>
Naphthyridine

>  <Selection_T>
N

>  <Train_Vs_Test>


$$$$
CTX-1020456
OCL MolfileCreator  2D

  0  0  0  0  0  0              0 V3000
M  V30 BEGIN CTAB
M  V30 COUNTS 39 44 0 0 0
M  V30 BEGIN ATOM
M  V30 1 Cl 9.7817 0.8848 0.0 0
M  V30 2 C 9.5737 -0.0932 0.0 0
M  V30 3 C 8.6602 -0.5 0.0 0
M  V30 4 C 10.2429 -0.8364 0.0 0
M  V30 5 S 8.7647 -1.4945 0.0 0
M  V30 6 C 7.7942 0.0 0.0 0
M  V30 7 C 9.7429 -1.7024 0.0 0
M  V30 8 C 11.2429 -0.8364 0.0 0
M  V30 9 O 7.7942 0.9999 0.0 0
M  V30 10 N 6.9282 -0.5 0.0 0
M  V30 11 C 10.2429 -2.5684 0.0 0
M  V30 12 C 11.7429 -1.7024 0.0 0
M  V30 13 C 6.0621 0.0 0.0 0
M  V30 14 C 6.9282 -1.4999 0.0 0
M  V30 15 C 11.2429 -2.5684 0.0 0
M  V30 16 C 5.1961 -0.5 0.0 0
M  V30 17 C 6.0621 -1.9999 0.0 0
M  V30 18 N 4.3301 0.0 0.0 0
M  V30 19 C 5.1961 -1.4999 0.0 0
M  V30 20 C 3.4641 -0.5 0.0 0
M  V30 21 C 4.3301 -2.0 0.0 0
M  V30 22 C 2.598 0.0 0.0 0
M  V30 23 C 3.4641 -1.4999 0.0 0
M  V30 24 O 2.598 1.0 0.0 0
M  V30 25 N 1.732 -0.5 0.0 0
M  V30 26 C 0.866 0.0 0.0 0
M  V30 27 C 0.0 -0.5 0.0 0
M  V30 28 C -0.866 0.0 0.0 0
M  V30 29 C 0.0 -1.4999 0.0 0
M  V30 30 C -1.732 -0.4999 0.0 0
M  V30 31 C -0.866 -1.9999 0.0 0
M  V30 32 C -1.732 -1.4999 0.0 0
M  V30 33 N -2.598 -1.9999 0.0 0
M  V30 34 C -3.4641 -1.4999 0.0 0
M  V30 35 C -2.598 -2.9999 0.0 0
M  V30 36 C -4.3301 -1.9999 0.0 0
M  V30 37 C -3.4641 -3.4999 0.0 0
M  V30 38 N -4.3301 -2.9999 0.0 0
M  V30 39 C -5.1961 -3.4999 0.0 0
M  V30 END ATOM
M  V30 BEGIN BOND
M  V30 1 1 1 2
M  V30 2 2 2 3
M  V30 3 1 2 4
M  V30 4 1 3 5
M  V30 5 1 3 6
M  V30 6 2 4 7
M  V30 7 1 4 8
M  V30 8 2 6 9
M  V30 9 1 6 10
M  V30 10 1 7 11
M  V30 11 2 8 12
M  V30 12 1 10 13
M  V30 13 1 10 14
M  V30 14 2 11 15
M  V30 15 1 13 16
M  V30 16 1 14 17
M  V30 17 2 16 18
M  V30 18 1 16 19
M  V30 19 1 18 20
M  V30 20 2 19 21
M  V30 21 1 20 22
M  V30 22 2 20 23
M  V30 23 2 22 24
M  V30 24 1 22 25
M  V30 25 1 25 26
M  V30 26 1 26 27
M  V30 27 2 27 28
M  V30 28 1 27 29
M  V30 29 1 28 30
M  V30 30 2 29 31
M  V30 31 2 30 32
M  V30 32 1 32 33
M  V30 33 1 33 34
M  V30 34 1 33 35
M  V30 35 1 34 36
M  V30 36 1 35 37
M  V30 37 1 36 38
M  V30 38 1 38 39
M  V30 39 1 5 7
M  V30 40 1 12 15
M  V30 41 1 17 19
M  V30 42 1 21 23
M  V30 43 1 31 32
M  V30 44 1 37 38
M  V30 END BOND
M  V30 END CTAB
M  END
>  <Molecule Name>
CTX-1020456

>  <SMILES>
CN1CCN(CC1)C1=CC=C(CNC(=O)C2=CC=C3CCN(CC3=N2)C(=O)C2=C(Cl)C3=C(S2)C=CC=C3)C=C1

>  <Batch Name>
CTX-1020456-1

>  <Batch Created Date>
2021-10-21

>  <Batch ID>
CTX-1020456-1

>  <External ID>
P841-0209

>  <Stereochemistry>
Achiral

>  <Amount 1>
4.6

>  <Unit 1>
mg

>  <CRO 1>
Pharmaron

>  <CRO 1 Total Amount>
37.7

>  <CRO 1 Unit>
mg

>  <Pharmaron Solubility (PBS, pH 7.4): Aqueous Solubility - Batch Mean (uM)>
99.823

>  <Pharmaron Solubility (PBS, pH 7.4): Aqueous Solubility - Batch Mean (uM) Standard Deviation (±)>


>  <Pharmaron Solubility (PBS, pH 7.4): Aqueous Solubility - Batch Mean (uM) Count>
1.0

>  <log P>
4.65

>  <log D>
4.02

>  <Pharmaron Caliper Assay (CDK2/CCNE1): Minimum measured (%)>
31.9

>  <Pharmaron Caliper Assay (CDK2/CCNE1): IC50 - Batch Mean (uM)>
1.1

>  <Pharmaron ADPGLO (CDK2/E1-25C): Minimum measured (%)>
79.3

>  <Pharmaron ADPGLO (CDK2/E1-25C): IC50 - Batch Mean (uM)>
0.894

>  <Pharmaron ADPGLO (CDK2/E1-37C): Minimum measured (%)>
102.0

>  <Pharmaron ADPGLO (CDK2/E1-37C): IC50 - Batch Mean (uM)>
10.0

>  <IncuCyte Kuramochi RB-WT: IC50 - Batch Mean (uM)>
5.71

>  <IncuCyte Kuramochi RB-KO: IC50 - Batch Mean (uM)>
5.16

>  <DSF (npCDK2/CCNE1): dTm D - Batch Mean [Concentration: 100]>


>  <DSF (npCDK2/CCNE1): dTm D - Batch Mean [Concentration: 20.0]>
1.2890000000000001

>  <DSF (pCDK2/CCNE1): dTm D - Batch Mean [Concentration: 100]>


>  <DSF (pCDK2/CCNE1): dTm D - Batch Mean [Concentration: 20.0]>
0.779

>  <RLM: t1/2 - Batch Mean (Min)>


>  <RLM: Cl int - Batch Mean (uL/min/mg protein)>


>  <RLM: ER (Hepatic extraction ratio) - Batch Mean>


>  <HLM: t1/2 - Batch Mean (Min)>
6.37

>  <HLM: Cl int - Batch Mean (uL/min/mg protein)>
220.87

>  <HLM: ER (Hepatic extraction ratio) - Batch Mean>
0.914

>  <MDCK-WT 4% BSA: Papp (A-B) - Batch Mean (10-6, cm/s)>


>  <MDCK-WT 4% BSA: Papp (B-A) - Batch Mean (10-6, cm/s)>


>  <MDCK-WT 4% BSA: Efflux Ratio - Batch Mean>


>  <MDCK-WT 4% BSA: ~Net A_B - Batch Mean (10-6, cm/s)>


>  <pIC50>
5.958607

>  <Selection_1>
Y

>  <Selection_N>


>  <Serie>
Naphthyridine

>  <Selection_T>
N

>  <Train_Vs_Test>


$$$$
CTX-1020454
OCL MolfileCreator  2D

  0  0  0  0  0  0              0 V3000
M  V30 BEGIN CTAB
M  V30 COUNTS 40 45 0 0 0
M  V30 BEGIN ATOM
M  V30 1 F 11.7429 0.0296 0.0 0
M  V30 2 C 11.2429 -0.8364 0.0 0
M  V30 3 C 10.2429 -0.8364 0.0 0
M  V30 4 C 11.7429 -1.7024 0.0 0
M  V30 5 O 9.5737 -0.0932 0.0 0
M  V30 6 C 9.7429 -1.7024 0.0 0
M  V30 7 C 11.2429 -2.5684 0.0 0
M  V30 8 C 8.6602 -0.5 0.0 0
M  V30 9 C 8.7647 -1.4945 0.0 0
M  V30 10 C 10.2429 -2.5684 0.0 0
M  V30 11 C 7.7942 0.0 0.0 0
M  V30 12 C 8.0216 -2.1636 0.0 0
M  V30 13 O 7.7942 0.9999 0.0 0
M  V30 14 N 6.9282 -0.5 0.0 0
M  V30 15 C 6.0621 0.0 0.0 0
M  V30 16 C 6.9282 -1.4999 0.0 0
M  V30 17 C 5.1961 -0.5 0.0 0
M  V30 18 C 6.0621 -1.9999 0.0 0
M  V30 19 N 4.3301 0.0 0.0 0
M  V30 20 C 5.1961 -1.4999 0.0 0
M  V30 21 C 3.4641 -0.5 0.0 0
M  V30 22 C 4.3301 -2.0 0.0 0
M  V30 23 C 2.598 0.0 0.0 0
M  V30 24 C 3.4641 -1.4999 0.0 0
M  V30 25 O 2.598 1.0 0.0 0
M  V30 26 N 1.732 -0.5 0.0 0
M  V30 27 C 0.866 0.0 0.0 0
M  V30 28 C 0.0 -0.5 0.0 0
M  V30 29 C -0.866 0.0 0.0 0
M  V30 30 C 0.0 -1.4999 0.0 0
M  V30 31 C -1.732 -0.4999 0.0 0
M  V30 32 C -0.866 -1.9999 0.0 0
M  V30 33 C -1.732 -1.4999 0.0 0
M  V30 34 N -2.598 -1.9999 0.0 0
M  V30 35 C -3.4641 -1.4999 0.0 0
M  V30 36 C -2.598 -2.9999 0.0 0
M  V30 37 C -4.3301 -1.9999 0.0 0
M  V30 38 C -3.4641 -3.4999 0.0 0
M  V30 39 N -4.3301 -2.9999 0.0 0
M  V30 40 C -5.1961 -3.4999 0.0 0
M  V30 END ATOM
M  V30 BEGIN BOND
M  V30 1 1 1 2
M  V30 2 2 2 3
M  V30 3 1 2 4
M  V30 4 1 3 5
M  V30 5 1 3 6
M  V30 6 2 4 7
M  V30 7 1 5 8
M  V30 8 1 6 9
M  V30 9 2 6 10
M  V30 10 1 8 11
M  V30 11 1 9 12
M  V30 12 2 11 13
M  V30 13 1 11 14
M  V30 14 1 14 15
M  V30 15 1 14 16
M  V30 16 1 15 17
M  V30 17 1 16 18
M  V30 18 2 17 19
M  V30 19 1 17 20
M  V30 20 1 19 21
M  V30 21 2 20 22
M  V30 22 1 21 23
M  V30 23 2 21 24
M  V30 24 2 23 25
M  V30 25 1 23 26
M  V30 26 1 26 27
M  V30 27 1 27 28
M  V30 28 2 28 29
M  V30 29 1 28 30
M  V30 30 1 29 31
M  V30 31 2 30 32
M  V30 32 2 31 33
M  V30 33 1 33 34
M  V30 34 1 34 35
M  V30 35 1 34 36
M  V30 36 1 35 37
M  V30 37 1 36 38
M  V30 38 1 37 39
M  V30 39 1 39 40
M  V30 40 1 7 10
M  V30 41 2 8 9
M  V30 42 1 18 20
M  V30 43 1 22 24
M  V30 44 1 32 33
M  V30 45 1 38 39
M  V30 END BOND
M  V30 END CTAB
M  END
>  <Molecule Name>
CTX-1020454

>  <SMILES>
CN1CCN(CC1)C1=CC=C(CNC(=O)C2=CC=C3CCN(CC3=N2)C(=O)C2=C(C)C3=CC=CC(F)=C3O2)C=C1

>  <Batch Name>
CTX-1020454-1

>  <Batch Created Date>
2021-10-21

>  <Batch ID>
CTX-1020454-1

>  <External ID>
P841-0210

>  <Stereochemistry>
Achiral

>  <Amount 1>
4.9

>  <Unit 1>
mg

>  <CRO 1>
Pharmaron

>  <CRO 1 Total Amount>
34.7

>  <CRO 1 Unit>
mg

>  <Pharmaron Solubility (PBS, pH 7.4): Aqueous Solubility - Batch Mean (uM)>
3.2155

>  <Pharmaron Solubility (PBS, pH 7.4): Aqueous Solubility - Batch Mean (uM) Standard Deviation (±)>


>  <Pharmaron Solubility (PBS, pH 7.4): Aqueous Solubility - Batch Mean (uM) Count>
1.0

>  <log P>
3.77

>  <log D>
3.14

>  <Pharmaron Caliper Assay (CDK2/CCNE1): Minimum measured (%)>
38.9

>  <Pharmaron Caliper Assay (CDK2/CCNE1): IC50 - Batch Mean (uM)>
2.71

>  <Pharmaron ADPGLO (CDK2/E1-25C): Minimum measured (%)>
57.8

>  <Pharmaron ADPGLO (CDK2/E1-25C): IC50 - Batch Mean (uM)>
3.27

>  <Pharmaron ADPGLO (CDK2/E1-37C): Minimum measured (%)>
98.2

>  <Pharmaron ADPGLO (CDK2/E1-37C): IC50 - Batch Mean (uM)>
10.0

>  <IncuCyte Kuramochi RB-WT: IC50 - Batch Mean (uM)>
5.92

>  <IncuCyte Kuramochi RB-KO: IC50 - Batch Mean (uM)>
5.31

>  <DSF (npCDK2/CCNE1): dTm D - Batch Mean [Concentration: 100]>


>  <DSF (npCDK2/CCNE1): dTm D - Batch Mean [Concentration: 20.0]>
1.455

>  <DSF (pCDK2/CCNE1): dTm D - Batch Mean [Concentration: 100]>


>  <DSF (pCDK2/CCNE1): dTm D - Batch Mean [Concentration: 20.0]>


>  <RLM: t1/2 - Batch Mean (Min)>


>  <RLM: Cl int - Batch Mean (uL/min/mg protein)>


>  <RLM: ER (Hepatic extraction ratio) - Batch Mean>


>  <HLM: t1/2 - Batch Mean (Min)>


>  <HLM: Cl int - Batch Mean (uL/min/mg protein)>


>  <HLM: ER (Hepatic extraction ratio) - Batch Mean>


>  <MDCK-WT 4% BSA: Papp (A-B) - Batch Mean (10-6, cm/s)>


>  <MDCK-WT 4% BSA: Papp (B-A) - Batch Mean (10-6, cm/s)>


>  <MDCK-WT 4% BSA: Efflux Ratio - Batch Mean>


>  <MDCK-WT 4% BSA: ~Net A_B - Batch Mean (10-6, cm/s)>


>  <pIC50>
5.567031

>  <Selection_1>
Y

>  <Selection_N>


>  <Serie>
Naphthyridine

>  <Selection_T>
N

>  <Train_Vs_Test>


$$$$
CTX-1020453
OCL MolfileCreator  2D

  0  0  0  0  0  0              0 V3000
M  V30 BEGIN CTAB
M  V30 COUNTS 39 44 0 0 0
M  V30 BEGIN ATOM
M  V30 1 Cl 9.7817 0.8848 0.0 0
M  V30 2 C 9.5737 -0.0932 0.0 0
M  V30 3 C 8.6602 -0.5 0.0 0
M  V30 4 C 10.2429 -0.8364 0.0 0
M  V30 5 O 8.7647 -1.4945 0.0 0
M  V30 6 C 7.7942 0.0 0.0 0
M  V30 7 C 9.7429 -1.7024 0.0 0
M  V30 8 C 11.2429 -0.8364 0.0 0
M  V30 9 O 7.7942 0.9999 0.0 0
M  V30 10 N 6.9282 -0.5 0.0 0
M  V30 11 C 10.2429 -2.5684 0.0 0
M  V30 12 C 11.7429 -1.7024 0.0 0
M  V30 13 C 6.0621 0.0 0.0 0
M  V30 14 C 6.9282 -1.4999 0.0 0
M  V30 15 C 11.2429 -2.5684 0.0 0
M  V30 16 C 5.1961 -0.5 0.0 0
M  V30 17 C 6.0621 -1.9999 0.0 0
M  V30 18 N 4.3301 0.0 0.0 0
M  V30 19 C 5.1961 -1.4999 0.0 0
M  V30 20 C 3.4641 -0.5 0.0 0
M  V30 21 C 4.3301 -2.0 0.0 0
M  V30 22 C 2.598 0.0 0.0 0
M  V30 23 C 3.4641 -1.4999 0.0 0
M  V30 24 O 2.598 1.0 0.0 0
M  V30 25 N 1.732 -0.5 0.0 0
M  V30 26 C 0.866 0.0 0.0 0
M  V30 27 C 0.0 -0.5 0.0 0
M  V30 28 C -0.866 0.0 0.0 0
M  V30 29 C 0.0 -1.4999 0.0 0
M  V30 30 C -1.732 -0.4999 0.0 0
M  V30 31 C -0.866 -1.9999 0.0 0
M  V30 32 C -1.732 -1.4999 0.0 0
M  V30 33 N -2.598 -1.9999 0.0 0
M  V30 34 C -3.4641 -1.4999 0.0 0
M  V30 35 C -2.598 -2.9999 0.0 0
M  V30 36 C -4.3301 -1.9999 0.0 0
M  V30 37 C -3.4641 -3.4999 0.0 0
M  V30 38 N -4.3301 -2.9999 0.0 0
M  V30 39 C -5.1961 -3.4999 0.0 0
M  V30 END ATOM
M  V30 BEGIN BOND
M  V30 1 1 1 2
M  V30 2 2 2 3
M  V30 3 1 2 4
M  V30 4 1 3 5
M  V30 5 1 3 6
M  V30 6 2 4 7
M  V30 7 1 4 8
M  V30 8 2 6 9
M  V30 9 1 6 10
M  V30 10 1 7 11
M  V30 11 2 8 12
M  V30 12 1 10 13
M  V30 13 1 10 14
M  V30 14 2 11 15
M  V30 15 1 13 16
M  V30 16 1 14 17
M  V30 17 2 16 18
M  V30 18 1 16 19
M  V30 19 1 18 20
M  V30 20 2 19 21
M  V30 21 1 20 22
M  V30 22 2 20 23
M  V30 23 2 22 24
M  V30 24 1 22 25
M  V30 25 1 25 26
M  V30 26 1 26 27
M  V30 27 2 27 28
M  V30 28 1 27 29
M  V30 29 1 28 30
M  V30 30 2 29 31
M  V30 31 2 30 32
M  V30 32 1 32 33
M  V30 33 1 33 34
M  V30 34 1 33 35
M  V30 35 1 34 36
M  V30 36 1 35 37
M  V30 37 1 36 38
M  V30 38 1 38 39
M  V30 39 1 5 7
M  V30 40 1 12 15
M  V30 41 1 17 19
M  V30 42 1 21 23
M  V30 43 1 31 32
M  V30 44 1 37 38
M  V30 END BOND
M  V30 END CTAB
M  END
>  <Molecule Name>
CTX-1020453

>  <SMILES>
CN1CCN(CC1)C1=CC=C(CNC(=O)C2=CC=C3CCN(CC3=N2)C(=O)C2=C(Cl)C3=C(O2)C=CC=C3)C=C1

>  <Batch Name>
CTX-1020453-1

>  <Batch Created Date>
2021-10-21

>  <Batch ID>
CTX-1020453-1

>  <External ID>
P841-0206

>  <Stereochemistry>
Achiral

>  <Amount 1>
4.3

>  <Unit 1>
mg

>  <CRO 1>
Pharmaron

>  <CRO 1 Total Amount>
33.3

>  <CRO 1 Unit>
mg

>  <Pharmaron Solubility (PBS, pH 7.4): Aqueous Solubility - Batch Mean (uM)>
8.2603

>  <Pharmaron Solubility (PBS, pH 7.4): Aqueous Solubility - Batch Mean (uM) Standard Deviation (±)>


>  <Pharmaron Solubility (PBS, pH 7.4): Aqueous Solubility - Batch Mean (uM) Count>
1.0

>  <log P>
3.72

>  <log D>
3.09

>  <Pharmaron Caliper Assay (CDK2/CCNE1): Minimum measured (%)>
60.0

>  <Pharmaron Caliper Assay (CDK2/CCNE1): IC50 - Batch Mean (uM)>
1.73

>  <Pharmaron ADPGLO (CDK2/E1-25C): Minimum measured (%)>


>  <Pharmaron ADPGLO (CDK2/E1-25C): IC50 - Batch Mean (uM)>


>  <Pharmaron ADPGLO (CDK2/E1-37C): Minimum measured (%)>


>  <Pharmaron ADPGLO (CDK2/E1-37C): IC50 - Batch Mean (uM)>


>  <IncuCyte Kuramochi RB-WT: IC50 - Batch Mean (uM)>
5.97

>  <IncuCyte Kuramochi RB-KO: IC50 - Batch Mean (uM)>
5.37

>  <DSF (npCDK2/CCNE1): dTm D - Batch Mean [Concentration: 100]>


>  <DSF (npCDK2/CCNE1): dTm D - Batch Mean [Concentration: 20.0]>
0.941

>  <DSF (pCDK2/CCNE1): dTm D - Batch Mean [Concentration: 100]>


>  <DSF (pCDK2/CCNE1): dTm D - Batch Mean [Concentration: 20.0]>


>  <RLM: t1/2 - Batch Mean (Min)>


>  <RLM: Cl int - Batch Mean (uL/min/mg protein)>


>  <RLM: ER (Hepatic extraction ratio) - Batch Mean>


>  <HLM: t1/2 - Batch Mean (Min)>


>  <HLM: Cl int - Batch Mean (uL/min/mg protein)>


>  <HLM: ER (Hepatic extraction ratio) - Batch Mean>


>  <MDCK-WT 4% BSA: Papp (A-B) - Batch Mean (10-6, cm/s)>


>  <MDCK-WT 4% BSA: Papp (B-A) - Batch Mean (10-6, cm/s)>


>  <MDCK-WT 4% BSA: Efflux Ratio - Batch Mean>


>  <MDCK-WT 4% BSA: ~Net A_B - Batch Mean (10-6, cm/s)>


>  <pIC50>
5.761954

>  <Selection_1>
Y

>  <Selection_N>


>  <Serie>
Naphthyridine

>  <Selection_T>
N

>  <Train_Vs_Test>


$$$$
CTX-1020441
OCL MolfileCreator  2D

  0  0  0  0  0  0              0 V3000
M  V30 BEGIN CTAB
M  V30 COUNTS 40 45 0 0 0
M  V30 BEGIN ATOM
M  V30 1 Cl 4.3301 -2.9999 0.0 0
M  V30 2 C 4.3301 -1.9999 0.0 0
M  V30 3 C 5.1961 -1.5 0.0 0
M  V30 4 C 3.4641 -1.5 0.0 0
M  V30 5 C 5.1961 -0.5 0.0 0
M  V30 6 C 6.0621 -2.0 0.0 0
M  V30 7 C 3.4641 -0.5 0.0 0
M  V30 8 N 4.3301 0.0 0.0 0
M  V30 9 C 6.0621 0.0 0.0 0
M  V30 10 C 6.9282 -1.5 0.0 0
M  V30 11 C 2.598 0.0 0.0 0
M  V30 12 N 6.9282 -0.5 0.0 0
M  V30 13 O 2.598 1.0 0.0 0
M  V30 14 N 1.732 -0.5 0.0 0
M  V30 15 C 7.7942 0.0 0.0 0
M  V30 16 C 0.866 0.0 0.0 0
M  V30 17 O 8.6602 -0.5 0.0 0
M  V30 18 C 7.7942 0.9999 0.0 0
M  V30 19 C 0.0 -0.5 0.0 0
M  V30 20 O 8.6032 1.5877 0.0 0
M  V30 21 C 6.9852 1.5877 0.0 0
M  V30 22 C -0.866 0.0 0.0 0
M  V30 23 C 0.0 -1.4999 0.0 0
M  V30 24 C 8.2942 2.5388 0.0 0
M  V30 25 C 7.2942 2.5388 0.0 0
M  V30 26 C 6.0341 1.2787 0.0 0
M  V30 27 C -1.732 -0.4999 0.0 0
M  V30 28 C -0.866 -1.9999 0.0 0
M  V30 29 C 8.7942 3.4048 0.0 0
M  V30 30 C 6.7942 3.4048 0.0 0
M  V30 31 C -1.732 -1.4999 0.0 0
M  V30 32 C 8.2942 4.2708 0.0 0
M  V30 33 C 7.2942 4.2708 0.0 0
M  V30 34 N -2.598 -1.9999 0.0 0
M  V30 35 C -3.4641 -1.4999 0.0 0
M  V30 36 C -2.598 -2.9999 0.0 0
M  V30 37 C -4.3301 -1.9999 0.0 0
M  V30 38 C -3.4641 -3.4999 0.0 0
M  V30 39 N -4.3301 -2.9999 0.0 0
M  V30 40 C -5.1961 -3.4999 0.0 0
M  V30 END ATOM
M  V30 BEGIN BOND
M  V30 1 1 1 2
M  V30 2 2 2 3
M  V30 3 1 2 4
M  V30 4 1 3 5
M  V30 5 1 3 6
M  V30 6 2 4 7
M  V30 7 2 5 8
M  V30 8 1 5 9
M  V30 9 1 6 10
M  V30 10 1 7 11
M  V30 11 1 9 12
M  V30 12 2 11 13
M  V30 13 1 11 14
M  V30 14 1 12 15
M  V30 15 1 14 16
M  V30 16 2 15 17
M  V30 17 1 15 18
M  V30 18 1 16 19
M  V30 19 1 18 20
M  V30 20 2 18 21
M  V30 21 2 19 22
M  V30 22 1 19 23
M  V30 23 1 20 24
M  V30 24 1 21 25
M  V30 25 1 21 26
M  V30 26 1 22 27
M  V30 27 2 23 28
M  V30 28 1 24 29
M  V30 29 1 25 30
M  V30 30 2 27 31
M  V30 31 2 29 32
M  V30 32 2 30 33
M  V30 33 1 31 34
M  V30 34 1 34 35
M  V30 35 1 34 36
M  V30 36 1 35 37
M  V30 37 1 36 38
M  V30 38 1 37 39
M  V30 39 1 39 40
M  V30 40 1 7 8
M  V30 41 1 10 12
M  V30 42 2 24 25
M  V30 43 1 28 31
M  V30 44 1 32 33
M  V30 45 1 38 39
M  V30 END BOND
M  V30 END CTAB
M  END
>  <Molecule Name>
CTX-1020441

>  <SMILES>
CN1CCN(CC1)C1=CC=C(CNC(=O)C2=CC(Cl)=C3CCN(CC3=N2)C(=O)C2=C(C)C3=C(O2)C=CC=C3)C=C1

>  <Batch Name>
CTX-1020441-1

>  <Batch Created Date>
2021-10-21

>  <Batch ID>
CTX-1020441-1

>  <External ID>
610EDL060-A

>  <Stereochemistry>
Achiral

>  <Amount 1>
4.3

>  <Unit 1>
mg

>  <CRO 1>
Pharmaron

>  <CRO 1 Total Amount>
11.1

>  <CRO 1 Unit>
mg

>  <Pharmaron Solubility (PBS, pH 7.4): Aqueous Solubility - Batch Mean (uM)>
0.3716

>  <Pharmaron Solubility (PBS, pH 7.4): Aqueous Solubility - Batch Mean (uM) Standard Deviation (±)>


>  <Pharmaron Solubility (PBS, pH 7.4): Aqueous Solubility - Batch Mean (uM) Count>
1.0

>  <log P>
4.24

>  <log D>
3.6

>  <Pharmaron Caliper Assay (CDK2/CCNE1): Minimum measured (%)>
86.4

>  <Pharmaron Caliper Assay (CDK2/CCNE1): IC50 - Batch Mean (uM)>
6.99

>  <Pharmaron ADPGLO (CDK2/E1-25C): Minimum measured (%)>


>  <Pharmaron ADPGLO (CDK2/E1-25C): IC50 - Batch Mean (uM)>


>  <Pharmaron ADPGLO (CDK2/E1-37C): Minimum measured (%)>


>  <Pharmaron ADPGLO (CDK2/E1-37C): IC50 - Batch Mean (uM)>


>  <IncuCyte Kuramochi RB-WT: IC50 - Batch Mean (uM)>
4.35

>  <IncuCyte Kuramochi RB-KO: IC50 - Batch Mean (uM)>
4.43

>  <DSF (npCDK2/CCNE1): dTm D - Batch Mean [Concentration: 100]>


>  <DSF (npCDK2/CCNE1): dTm D - Batch Mean [Concentration: 20.0]>
-0.39299999999999996

>  <DSF (pCDK2/CCNE1): dTm D - Batch Mean [Concentration: 100]>


>  <DSF (pCDK2/CCNE1): dTm D - Batch Mean [Concentration: 20.0]>


>  <RLM: t1/2 - Batch Mean (Min)>


>  <RLM: Cl int - Batch Mean (uL/min/mg protein)>


>  <RLM: ER (Hepatic extraction ratio) - Batch Mean>


>  <HLM: t1/2 - Batch Mean (Min)>


>  <HLM: Cl int - Batch Mean (uL/min/mg protein)>


>  <HLM: ER (Hepatic extraction ratio) - Batch Mean>


>  <MDCK-WT 4% BSA: Papp (A-B) - Batch Mean (10-6, cm/s)>


>  <MDCK-WT 4% BSA: Papp (B-A) - Batch Mean (10-6, cm/s)>


>  <MDCK-WT 4% BSA: Efflux Ratio - Batch Mean>


>  <MDCK-WT 4% BSA: ~Net A_B - Batch Mean (10-6, cm/s)>


>  <pIC50>
5.155523

>  <Selection_1>
Y

>  <Selection_N>


>  <Serie>
Naphthyridine

>  <Selection_T>
N

>  <Train_Vs_Test>


$$$$
CTX-1020440
OCL MolfileCreator  2D

  0  0  0  0  0  0              0 V3000
M  V30 BEGIN CTAB
M  V30 COUNTS 37 42 0 0 0
M  V30 BEGIN ATOM
M  V30 1 S 4.3776 -0.0932 0.0 0
M  V30 2 C 3.4641 -0.5 0.0 0
M  V30 3 C 5.0467 -0.8364 0.0 0
M  V30 4 C 2.598 0.0 0.0 0
M  V30 5 C 3.5686 -1.4945 0.0 0
M  V30 6 C 4.5467 -1.7024 0.0 0
M  V30 7 C 6.0467 -0.8364 0.0 0
M  V30 8 O 2.598 1.0 0.0 0
M  V30 9 N 1.732 -0.5 0.0 0
M  V30 10 C 5.0467 -2.5684 0.0 0
M  V30 11 C 6.5467 -1.7024 0.0 0
M  V30 12 C 0.866 0.0 0.0 0
M  V30 13 N 6.0467 -2.5684 0.0 0
M  V30 14 C 0.0 -0.5 0.0 0
M  V30 15 C 6.5467 -3.4344 0.0 0
M  V30 16 C -0.866 0.0 0.0 0
M  V30 17 C 0.0 -1.4999 0.0 0
M  V30 18 O 6.0467 -4.3005 0.0 0
M  V30 19 C 7.5467 -3.4344 0.0 0
M  V30 20 C -1.732 -0.4999 0.0 0
M  V30 21 C -0.866 -1.9999 0.0 0
M  V30 22 C 8.1345 -4.2435 0.0 0
M  V30 23 C 8.1345 -2.6254 0.0 0
M  V30 24 C -1.732 -1.4999 0.0 0
M  V30 25 N 9.0856 -3.9344 0.0 0
M  V30 26 C 7.9266 -5.2216 0.0 0
M  V30 27 N 9.0856 -2.9344 0.0 0
M  V30 28 N -2.598 -1.9999 0.0 0
M  V30 29 C 9.8287 -4.6036 0.0 0
M  V30 30 N 8.6697 -5.8907 0.0 0
M  V30 31 C -3.4641 -1.4999 0.0 0
M  V30 32 C -2.598 -2.9999 0.0 0
M  V30 33 C 9.6208 -5.5817 0.0 0
M  V30 34 C -4.3301 -1.9999 0.0 0
M  V30 35 C -3.4641 -3.4999 0.0 0
M  V30 36 N -4.3301 -2.9999 0.0 0
M  V30 37 C -5.1961 -3.4999 0.0 0
M  V30 END ATOM
M  V30 BEGIN BOND
M  V30 1 1 1 2
M  V30 2 1 1 3
M  V30 3 1 2 4
M  V30 4 2 2 5
M  V30 5 2 3 6
M  V30 6 1 3 7
M  V30 7 2 4 8
M  V30 8 1 4 9
M  V30 9 1 6 10
M  V30 10 1 7 11
M  V30 11 1 9 12
M  V30 12 1 10 13
M  V30 13 1 12 14
M  V30 14 1 13 15
M  V30 15 2 14 16
M  V30 16 1 14 17
M  V30 17 2 15 18
M  V30 18 1 15 19
M  V30 19 1 16 20
M  V30 20 2 17 21
M  V30 21 2 19 22
M  V30 22 1 19 23
M  V30 23 2 20 24
M  V30 24 1 22 25
M  V30 25 1 22 26
M  V30 26 2 23 27
M  V30 27 1 24 28
M  V30 28 1 25 29
M  V30 29 2 26 30
M  V30 30 1 28 31
M  V30 31 1 28 32
M  V30 32 2 29 33
M  V30 33 1 31 34
M  V30 34 1 32 35
M  V30 35 1 34 36
M  V30 36 1 36 37
M  V30 37 1 5 6
M  V30 38 1 11 13
M  V30 39 1 21 24
M  V30 40 1 25 27
M  V30 41 1 30 33
M  V30 42 1 35 36
M  V30 END BOND
M  V30 END CTAB
M  END
>  <Molecule Name>
CTX-1020440

>  <SMILES>
CN1CCN(CC1)C1=CC=C(CNC(=O)C2=CC3=C(CCN(C3)C(=O)C3=C4C=NC=CN4N=C3)S2)C=C1

>  <Batch Name>
CTX-1020440-1

>  <Batch Created Date>
2021-10-21

>  <Batch ID>
CTX-1020440-1

>  <External ID>
610EDL021-E

>  <Stereochemistry>
Achiral

>  <Amount 1>
5.0

>  <Unit 1>
mg

>  <CRO 1>
Pharmaron

>  <CRO 1 Total Amount>
6.9

>  <CRO 1 Unit>
mg

>  <Pharmaron Solubility (PBS, pH 7.4): Aqueous Solubility - Batch Mean (uM)>
284.6668

>  <Pharmaron Solubility (PBS, pH 7.4): Aqueous Solubility - Batch Mean (uM) Standard Deviation (±)>
33.6543

>  <Pharmaron Solubility (PBS, pH 7.4): Aqueous Solubility - Batch Mean (uM) Count>
2.0

>  <log P>
2.15

>  <log D>
1.51

>  <Pharmaron Caliper Assay (CDK2/CCNE1): Minimum measured (%)>
8.56

>  <Pharmaron Caliper Assay (CDK2/CCNE1): IC50 - Batch Mean (uM)>
6.08

>  <Pharmaron ADPGLO (CDK2/E1-25C): Minimum measured (%)>


>  <Pharmaron ADPGLO (CDK2/E1-25C): IC50 - Batch Mean (uM)>


>  <Pharmaron ADPGLO (CDK2/E1-37C): Minimum measured (%)>


>  <Pharmaron ADPGLO (CDK2/E1-37C): IC50 - Batch Mean (uM)>


>  <IncuCyte Kuramochi RB-WT: IC50 - Batch Mean (uM)>
20.0

>  <IncuCyte Kuramochi RB-KO: IC50 - Batch Mean (uM)>
20.0

>  <DSF (npCDK2/CCNE1): dTm D - Batch Mean [Concentration: 100]>


>  <DSF (npCDK2/CCNE1): dTm D - Batch Mean [Concentration: 20.0]>
0.311

>  <DSF (pCDK2/CCNE1): dTm D - Batch Mean [Concentration: 100]>


>  <DSF (pCDK2/CCNE1): dTm D - Batch Mean [Concentration: 20.0]>


>  <RLM: t1/2 - Batch Mean (Min)>
20.34

>  <RLM: Cl int - Batch Mean (uL/min/mg protein)>
68.32

>  <RLM: ER (Hepatic extraction ratio) - Batch Mean>
0.71

>  <HLM: t1/2 - Batch Mean (Min)>
104.93

>  <HLM: Cl int - Batch Mean (uL/min/mg protein)>
13.24

>  <HLM: ER (Hepatic extraction ratio) - Batch Mean>
0.39299999999999996

>  <MDCK-WT 4% BSA: Papp (A-B) - Batch Mean (10-6, cm/s)>


>  <MDCK-WT 4% BSA: Papp (B-A) - Batch Mean (10-6, cm/s)>


>  <MDCK-WT 4% BSA: Efflux Ratio - Batch Mean>


>  <MDCK-WT 4% BSA: ~Net A_B - Batch Mean (10-6, cm/s)>


>  <pIC50>
5.216096

>  <Selection_1>
Y

>  <Selection_N>
N

>  <Serie>
Tetrahydrothienopyridine

>  <Selection_T>


>  <Train_Vs_Test>


$$$$
CTX-1019904
OCL MolfileCreator  2D

  0  0  0  0  0  0              0 V3000
M  V30 BEGIN CTAB
M  V30 COUNTS 41 46 0 0 0
M  V30 BEGIN ATOM
M  V30 1 O 5.1961 -0.75 0.0 0
M  V30 2 C 3.8971 0.0 0.0 0
M  V30 3 N 2.598 -0.75 0.0 0
M  V30 4 C 3.8971 1.5 0.0 0
M  V30 5 C 1.299 0.0 0.0 0
M  V30 6 N 5.1961 2.25 0.0 0
M  V30 7 C 2.598 2.25 0.0 0
M  V30 8 C 0.0 -0.75 0.0 0
M  V30 9 C 5.1961 3.75 0.0 0
M  V30 10 C 2.598 3.75 0.0 0
M  V30 11 N -1.299 0.0 0.0 0
M  V30 12 C 0.0 -2.2499 0.0 0
M  V30 13 C 3.8971 4.5 0.0 0
M  V30 14 C 6.4951 4.5 0.0 0
M  V30 15 C -2.598 -0.7499 0.0 0
M  V30 16 C -1.299 -2.9999 0.0 0
M  V30 17 C 3.8971 6.0 0.0 0
M  V30 18 N 6.4951 6.0 0.0 0
M  V30 19 C -2.598 -2.2499 0.0 0
M  V30 20 C 5.1961 6.75 0.0 0
M  V30 21 C 7.7942 6.75 0.0 0
M  V30 22 N -3.8971 -2.9999 0.0 0
M  V30 23 O 9.0932 6.0 0.0 0
M  V30 24 C 7.7942 8.25 0.0 0
M  V30 25 C -5.1961 -2.2499 0.0 0
M  V30 26 C -3.8971 -4.4999 0.0 0
M  V30 27 O 9.0077 9.1316 0.0 0
M  V30 28 C 6.5807 9.1316 0.0 0
M  V30 29 C -6.4951 -2.9999 0.0 0
M  V30 30 C -5.1961 -5.2499 0.0 0
M  V30 31 C 8.5442 10.5582 0.0 0
M  V30 32 C 7.0442 10.5582 0.0 0
M  V30 33 C 5.1541 8.6681 0.0 0
M  V30 34 N -6.4951 -4.4999 0.0 0
M  V30 35 C 9.2942 11.8573 0.0 0
M  V30 36 C 6.2942 11.8573 0.0 0
M  V30 37 C -7.7942 -5.2499 0.0 0
M  V30 38 O 10.7942 11.8573 0.0 0
M  V30 39 C 8.5442 13.1563 0.0 0
M  V30 40 C 7.0442 13.1563 0.0 0
M  V30 41 C 11.5442 13.1563 0.0 0
M  V30 END ATOM
M  V30 BEGIN BOND
M  V30 1 2 1 2
M  V30 2 1 2 3
M  V30 3 1 2 4
M  V30 4 1 3 5
M  V30 5 2 4 6
M  V30 6 1 4 7
M  V30 7 1 5 8
M  V30 8 1 6 9
M  V30 9 2 7 10
M  V30 10 2 8 11
M  V30 11 1 8 12
M  V30 12 2 9 13
M  V30 13 1 9 14
M  V30 14 1 11 15
M  V30 15 2 12 16
M  V30 16 1 13 17
M  V30 17 1 14 18
M  V30 18 2 15 19
M  V30 19 1 17 20
M  V30 20 1 18 21
M  V30 21 1 19 22
M  V30 22 2 21 23
M  V30 23 1 21 24
M  V30 24 1 22 25
M  V30 25 1 22 26
M  V30 26 1 24 27
M  V30 27 2 24 28
M  V30 28 1 25 29
M  V30 29 1 26 30
M  V30 30 1 27 31
M  V30 31 1 28 32
M  V30 32 1 28 33
M  V30 33 1 29 34
M  V30 34 1 31 35
M  V30 35 1 32 36
M  V30 36 1 34 37
M  V30 37 1 35 38
M  V30 38 2 35 39
M  V30 39 2 36 40
M  V30 40 1 38 41
M  V30 41 1 10 13
M  V30 42 1 16 19
M  V30 43 1 18 20
M  V30 44 1 30 34
M  V30 45 2 31 32
M  V30 46 1 39 40
M  V30 END BOND
M  V30 END CTAB
M  END
>  <Molecule Name>
CTX-1019904

>  <SMILES>
COC1=CC=CC2=C1OC(C(=O)N1CCC3=C(C1)N=C(C=C3)C(=O)NCC1=CC=C(C=N1)N1CCN(C)CC1)=C2C

>  <Batch Name>
CTX-1019904-1

>  <Batch Created Date>
2021-10-07

>  <Batch ID>
CTX-1019904-1

>  <External ID>
610EDL010-B

>  <Stereochemistry>
Achiral

>  <Amount 1>
3.4

>  <Unit 1>
mg

>  <CRO 1>
Pharmaron

>  <CRO 1 Total Amount>
16.4

>  <CRO 1 Unit>
mg

>  <Pharmaron Solubility (PBS, pH 7.4): Aqueous Solubility - Batch Mean (uM)>
211.991

>  <Pharmaron Solubility (PBS, pH 7.4): Aqueous Solubility - Batch Mean (uM) Standard Deviation (±)>


>  <Pharmaron Solubility (PBS, pH 7.4): Aqueous Solubility - Batch Mean (uM) Count>
1.0

>  <log P>
2.34

>  <log D>
1.93

>  <Pharmaron Caliper Assay (CDK2/CCNE1): Minimum measured (%)>
87.2

>  <Pharmaron Caliper Assay (CDK2/CCNE1): IC50 - Batch Mean (uM)>
8.45

>  <Pharmaron ADPGLO (CDK2/E1-25C): Minimum measured (%)>


>  <Pharmaron ADPGLO (CDK2/E1-25C): IC50 - Batch Mean (uM)>


>  <Pharmaron ADPGLO (CDK2/E1-37C): Minimum measured (%)>


>  <Pharmaron ADPGLO (CDK2/E1-37C): IC50 - Batch Mean (uM)>


>  <IncuCyte Kuramochi RB-WT: IC50 - Batch Mean (uM)>
16.0

>  <IncuCyte Kuramochi RB-KO: IC50 - Batch Mean (uM)>
18.5

>  <DSF (npCDK2/CCNE1): dTm D - Batch Mean [Concentration: 100]>


>  <DSF (npCDK2/CCNE1): dTm D - Batch Mean [Concentration: 20.0]>
0.09699999999999999

>  <DSF (pCDK2/CCNE1): dTm D - Batch Mean [Concentration: 100]>


>  <DSF (pCDK2/CCNE1): dTm D - Batch Mean [Concentration: 20.0]>


>  <RLM: t1/2 - Batch Mean (Min)>


>  <RLM: Cl int - Batch Mean (uL/min/mg protein)>


>  <RLM: ER (Hepatic extraction ratio) - Batch Mean>


>  <HLM: t1/2 - Batch Mean (Min)>


>  <HLM: Cl int - Batch Mean (uL/min/mg protein)>


>  <HLM: ER (Hepatic extraction ratio) - Batch Mean>


>  <MDCK-WT 4% BSA: Papp (A-B) - Batch Mean (10-6, cm/s)>


>  <MDCK-WT 4% BSA: Papp (B-A) - Batch Mean (10-6, cm/s)>


>  <MDCK-WT 4% BSA: Efflux Ratio - Batch Mean>


>  <MDCK-WT 4% BSA: ~Net A_B - Batch Mean (10-6, cm/s)>


>  <pIC50>
5.073143

>  <Selection_1>
Y

>  <Selection_N>


>  <Serie>
Naphthyridine

>  <Selection_T>
N

>  <Train_Vs_Test>


$$$$
CTX-1019813
OCL MolfileCreator  2D

  0  0  0  0  0  0              0 V3000
M  V30 BEGIN CTAB
M  V30 COUNTS 38 43 0 0 0
M  V30 BEGIN ATOM
M  V30 1 O 5.1961 -0.75 0.0 0
M  V30 2 C 3.8971 0.0 0.0 0
M  V30 3 N 2.598 -0.75 0.0 0
M  V30 4 C 3.8971 1.5 0.0 0
M  V30 5 C 1.299 0.0 0.0 0
M  V30 6 N 5.1961 2.25 0.0 0
M  V30 7 C 2.598 2.25 0.0 0
M  V30 8 C 0.0 -0.75 0.0 0
M  V30 9 C 5.1961 3.75 0.0 0
M  V30 10 C 2.598 3.75 0.0 0
M  V30 11 C -1.299 0.0 0.0 0
M  V30 12 C 0.0 -2.2499 0.0 0
M  V30 13 C 3.8971 4.5 0.0 0
M  V30 14 C 6.4951 4.5 0.0 0
M  V30 15 C -2.598 -0.7499 0.0 0
M  V30 16 C -1.299 -2.9999 0.0 0
M  V30 17 C 3.8971 6.0 0.0 0
M  V30 18 N 6.4951 6.0 0.0 0
M  V30 19 C -2.598 -2.2499 0.0 0
M  V30 20 C 5.1961 6.75 0.0 0
M  V30 21 C 7.7942 6.75 0.0 0
M  V30 22 N -3.8971 -2.9999 0.0 0
M  V30 23 O 9.0932 6.0 0.0 0
M  V30 24 C 7.7942 8.25 0.0 0
M  V30 25 C -5.1961 -2.2499 0.0 0
M  V30 26 C -3.8971 -4.4999 0.0 0
M  V30 27 C 9.0077 9.1316 0.0 0
M  V30 28 C 6.5807 9.1316 0.0 0
M  V30 29 C -6.4951 -2.9999 0.0 0
M  V30 30 C -5.1961 -5.2499 0.0 0
M  V30 31 C 8.5442 10.5582 0.0 0
M  V30 32 C 10.4749 8.8198 0.0 0
M  V30 33 O 7.0442 10.5582 0.0 0
M  V30 34 N -6.4951 -4.4999 0.0 0
M  V30 35 C 9.5479 11.6729 0.0 0
M  V30 36 C 11.4786 9.9345 0.0 0
M  V30 37 C -7.7942 -5.2499 0.0 0
M  V30 38 C 11.0151 11.3611 0.0 0
M  V30 END ATOM
M  V30 BEGIN BOND
M  V30 1 2 1 2
M  V30 2 1 2 3
M  V30 3 1 2 4
M  V30 4 1 3 5
M  V30 5 2 4 6
M  V30 6 1 4 7
M  V30 7 1 5 8
M  V30 8 1 6 9
M  V30 9 2 7 10
M  V30 10 2 8 11
M  V30 11 1 8 12
M  V30 12 2 9 13
M  V30 13 1 9 14
M  V30 14 1 11 15
M  V30 15 2 12 16
M  V30 16 1 13 17
M  V30 17 1 14 18
M  V30 18 2 15 19
M  V30 19 1 17 20
M  V30 20 1 18 21
M  V30 21 1 19 22
M  V30 22 2 21 23
M  V30 23 1 21 24
M  V30 24 1 22 25
M  V30 25 1 22 26
M  V30 26 1 24 27
M  V30 27 2 24 28
M  V30 28 1 25 29
M  V30 29 1 26 30
M  V30 30 2 27 31
M  V30 31 1 27 32
M  V30 32 1 28 33
M  V30 33 1 29 34
M  V30 34 1 31 35
M  V30 35 2 32 36
M  V30 36 1 34 37
M  V30 37 2 35 38
M  V30 38 1 10 13
M  V30 39 1 16 19
M  V30 40 1 18 20
M  V30 41 1 30 34
M  V30 42 1 31 33
M  V30 43 1 36 38
M  V30 END BOND
M  V30 END CTAB
M  END
>  <Molecule Name>
CTX-1019813

>  <SMILES>
CN1CCN(CC1)C1=CC=C(CNC(=O)C2=NC3=C(CCN(C3)C(=O)C3=COC4=C3C=CC=C4)C=C2)C=C1

>  <Batch Name>
CTX-1019813-1

>  <Batch Created Date>
2021-09-17

>  <Batch ID>
CTX-1019813-1

>  <External ID>
P841-0172

>  <Stereochemistry>
Achiral

>  <Amount 1>
4.3

>  <Unit 1>
mg

>  <CRO 1>
Pharmaron

>  <CRO 1 Total Amount>
19.4

>  <CRO 1 Unit>
mg

>  <Pharmaron Solubility (PBS, pH 7.4): Aqueous Solubility - Batch Mean (uM)>
128.57

>  <Pharmaron Solubility (PBS, pH 7.4): Aqueous Solubility - Batch Mean (uM) Standard Deviation (±)>


>  <Pharmaron Solubility (PBS, pH 7.4): Aqueous Solubility - Batch Mean (uM) Count>
1.0

>  <log P>
3.2

>  <log D>
2.57

>  <Pharmaron Caliper Assay (CDK2/CCNE1): Minimum measured (%)>
83.0

>  <Pharmaron Caliper Assay (CDK2/CCNE1): IC50 - Batch Mean (uM)>
6.42

>  <Pharmaron ADPGLO (CDK2/E1-25C): Minimum measured (%)>


>  <Pharmaron ADPGLO (CDK2/E1-25C): IC50 - Batch Mean (uM)>


>  <Pharmaron ADPGLO (CDK2/E1-37C): Minimum measured (%)>


>  <Pharmaron ADPGLO (CDK2/E1-37C): IC50 - Batch Mean (uM)>


>  <IncuCyte Kuramochi RB-WT: IC50 - Batch Mean (uM)>
20.0

>  <IncuCyte Kuramochi RB-KO: IC50 - Batch Mean (uM)>
20.0

>  <DSF (npCDK2/CCNE1): dTm D - Batch Mean [Concentration: 100]>


>  <DSF (npCDK2/CCNE1): dTm D - Batch Mean [Concentration: 20.0]>
0.009000000000000001

>  <DSF (pCDK2/CCNE1): dTm D - Batch Mean [Concentration: 100]>


>  <DSF (pCDK2/CCNE1): dTm D - Batch Mean [Concentration: 20.0]>


>  <RLM: t1/2 - Batch Mean (Min)>


>  <RLM: Cl int - Batch Mean (uL/min/mg protein)>


>  <RLM: ER (Hepatic extraction ratio) - Batch Mean>


>  <HLM: t1/2 - Batch Mean (Min)>


>  <HLM: Cl int - Batch Mean (uL/min/mg protein)>


>  <HLM: ER (Hepatic extraction ratio) - Batch Mean>


>  <MDCK-WT 4% BSA: Papp (A-B) - Batch Mean (10-6, cm/s)>


>  <MDCK-WT 4% BSA: Papp (B-A) - Batch Mean (10-6, cm/s)>


>  <MDCK-WT 4% BSA: Efflux Ratio - Batch Mean>


>  <MDCK-WT 4% BSA: ~Net A_B - Batch Mean (10-6, cm/s)>


>  <pIC50>
5.192465

>  <Selection_1>
Y

>  <Selection_N>


>  <Serie>
Naphthyridine

>  <Selection_T>
N

>  <Train_Vs_Test>


$$$$
CTX-1019758
OCL MolfileCreator  2D

  0  0  0  0  0  0              0 V3000
M  V30 BEGIN CTAB
M  V30 COUNTS 38 43 0 0 0
M  V30 BEGIN ATOM
M  V30 1 S 6.5664 -0.1398 0.0 0
M  V30 2 C 5.1961 -0.75 0.0 0
M  V30 3 C 7.5701 -1.2546 0.0 0
M  V30 4 C 3.8971 0.0 0.0 0
M  V30 5 C 5.3529 -2.2417 0.0 0
M  V30 6 C 6.8201 -2.5536 0.0 0
M  V30 7 C 9.0701 -1.2546 0.0 0
M  V30 8 O 3.8971 1.5 0.0 0
M  V30 9 N 2.598 -0.75 0.0 0
M  V30 10 C 7.5701 -3.8526 0.0 0
M  V30 11 C 9.8201 -2.5536 0.0 0
M  V30 12 C 1.299 0.0 0.0 0
M  V30 13 N 9.0701 -3.8526 0.0 0
M  V30 14 C 0.0 -0.75 0.0 0
M  V30 15 C 9.8201 -5.1517 0.0 0
M  V30 16 C -1.299 0.0 0.0 0
M  V30 17 C 0.0 -2.2499 0.0 0
M  V30 18 O 9.0701 -6.4507 0.0 0
M  V30 19 C 11.3201 -5.1517 0.0 0
M  V30 20 C -2.598 -0.7499 0.0 0
M  V30 21 C -1.299 -2.9999 0.0 0
M  V30 22 O 12.2018 -6.3652 0.0 0
M  V30 23 C 12.2018 -3.9382 0.0 0
M  V30 24 C -2.598 -2.2499 0.0 0
M  V30 25 C 13.6284 -5.9017 0.0 0
M  V30 26 C 13.6284 -4.4017 0.0 0
M  V30 27 C 11.7383 -2.5116 0.0 0
M  V30 28 N -3.8971 -2.9999 0.0 0
M  V30 29 C 14.9274 -6.6517 0.0 0
M  V30 30 C 14.9274 -3.6517 0.0 0
M  V30 31 C -5.1961 -2.2499 0.0 0
M  V30 32 C -3.8971 -4.4999 0.0 0
M  V30 33 C 16.2265 -5.9017 0.0 0
M  V30 34 C 16.2265 -4.4017 0.0 0
M  V30 35 C -6.4951 -2.9999 0.0 0
M  V30 36 C -5.1961 -5.2499 0.0 0
M  V30 37 N -6.4951 -4.4999 0.0 0
M  V30 38 C -7.7942 -5.2499 0.0 0
M  V30 END ATOM
M  V30 BEGIN BOND
M  V30 1 1 1 2
M  V30 2 1 1 3
M  V30 3 1 2 4
M  V30 4 2 2 5
M  V30 5 2 3 6
M  V30 6 1 3 7
M  V30 7 2 4 8
M  V30 8 1 4 9
M  V30 9 1 6 10
M  V30 10 1 7 11
M  V30 11 1 9 12
M  V30 12 1 10 13
M  V30 13 1 12 14
M  V30 14 1 13 15
M  V30 15 2 14 16
M  V30 16 1 14 17
M  V30 17 2 15 18
M  V30 18 1 15 19
M  V30 19 1 16 20
M  V30 20 2 17 21
M  V30 21 1 19 22
M  V30 22 2 19 23
M  V30 23 2 20 24
M  V30 24 1 22 25
M  V30 25 1 23 26
M  V30 26 1 23 27
M  V30 27 1 24 28
M  V30 28 1 25 29
M  V30 29 1 26 30
M  V30 30 1 28 31
M  V30 31 1 28 32
M  V30 32 2 29 33
M  V30 33 2 30 34
M  V30 34 1 31 35
M  V30 35 1 32 36
M  V30 36 1 35 37
M  V30 37 1 37 38
M  V30 38 1 5 6
M  V30 39 1 11 13
M  V30 40 1 21 24
M  V30 41 2 25 26
M  V30 42 1 33 34
M  V30 43 1 36 37
M  V30 END BOND
M  V30 END CTAB
M  END
>  <Molecule Name>
CTX-1019758

>  <SMILES>
CN1CCN(CC1)C1=CC=C(CNC(=O)C2=CC3=C(CCN(C3)C(=O)C3=C(C)C4=C(O3)C=CC=C4)S2)C=C1

>  <Batch Name>
CTX-1019758-1

>  <Batch Created Date>
2021-09-09

>  <Batch ID>
CTX-1019758-1

>  <External ID>
S04-04-0004

>  <Stereochemistry>
Achiral

>  <Amount 1>
4.9

>  <Unit 1>
mg

>  <CRO 1>
Pharmaron

>  <CRO 1 Total Amount>
64.3

>  <CRO 1 Unit>
mg

>  <Pharmaron Solubility (PBS, pH 7.4): Aqueous Solubility - Batch Mean (uM)>
8.7519

>  <Pharmaron Solubility (PBS, pH 7.4): Aqueous Solubility - Batch Mean (uM) Standard Deviation (±)>


>  <Pharmaron Solubility (PBS, pH 7.4): Aqueous Solubility - Batch Mean (uM) Count>
1.0

>  <log P>
4.43

>  <log D>
3.79

>  <Pharmaron Caliper Assay (CDK2/CCNE1): Minimum measured (%)>
29.9

>  <Pharmaron Caliper Assay (CDK2/CCNE1): IC50 - Batch Mean (uM)>
0.791

>  <Pharmaron ADPGLO (CDK2/E1-25C): Minimum measured (%)>
36.4

>  <Pharmaron ADPGLO (CDK2/E1-25C): IC50 - Batch Mean (uM)>
1.41

>  <Pharmaron ADPGLO (CDK2/E1-37C): Minimum measured (%)>
98.3

>  <Pharmaron ADPGLO (CDK2/E1-37C): IC50 - Batch Mean (uM)>
10.0

>  <IncuCyte Kuramochi RB-WT: IC50 - Batch Mean (uM)>
6.96

>  <IncuCyte Kuramochi RB-KO: IC50 - Batch Mean (uM)>
7.13

>  <DSF (npCDK2/CCNE1): dTm D - Batch Mean [Concentration: 100]>


>  <DSF (npCDK2/CCNE1): dTm D - Batch Mean [Concentration: 20.0]>
3.025

>  <DSF (pCDK2/CCNE1): dTm D - Batch Mean [Concentration: 100]>


>  <DSF (pCDK2/CCNE1): dTm D - Batch Mean [Concentration: 20.0]>
2.416

>  <RLM: t1/2 - Batch Mean (Min)>


>  <RLM: Cl int - Batch Mean (uL/min/mg protein)>


>  <RLM: ER (Hepatic extraction ratio) - Batch Mean>


>  <HLM: t1/2 - Batch Mean (Min)>
15.16

>  <HLM: Cl int - Batch Mean (uL/min/mg protein)>
91.47

>  <HLM: ER (Hepatic extraction ratio) - Batch Mean>
0.8170000000000001

>  <MDCK-WT 4% BSA: Papp (A-B) - Batch Mean (10-6, cm/s)>
2.61

>  <MDCK-WT 4% BSA: Papp (B-A) - Batch Mean (10-6, cm/s)>
2.57

>  <MDCK-WT 4% BSA: Efflux Ratio - Batch Mean>
1.01

>  <MDCK-WT 4% BSA: ~Net A_B - Batch Mean (10-6, cm/s)>
2.5874

>  <pIC50>
6.101824

>  <Selection_1>
Y

>  <Selection_N>
N

>  <Serie>
Tetrahydrothienopyridine

>  <Selection_T>


>  <Train_Vs_Test>


$$$$
CTX-1019757
OCL MolfileCreator  2D

  0  0  0  0  0  0              0 V3000
M  V30 BEGIN CTAB
M  V30 COUNTS 39 44 0 0 0
M  V30 BEGIN ATOM
M  V30 1 O 5.1961 -0.75 0.0 0
M  V30 2 C 3.8971 0.0 0.0 0
M  V30 3 N 2.598 -0.75 0.0 0
M  V30 4 C 3.8971 1.5 0.0 0
M  V30 5 C 1.299 0.0 0.0 0
M  V30 6 C 5.1961 2.25 0.0 0
M  V30 7 C 2.598 2.25 0.0 0
M  V30 8 C 0.0 -0.75 0.0 0
M  V30 9 C 5.1961 3.75 0.0 0
M  V30 10 C 2.598 3.75 0.0 0
M  V30 11 C -1.299 0.0 0.0 0
M  V30 12 C 0.0 -2.2499 0.0 0
M  V30 13 C 3.8971 4.5 0.0 0
M  V30 14 C 6.4951 4.5 0.0 0
M  V30 15 C -2.598 -0.7499 0.0 0
M  V30 16 C -1.299 -2.9999 0.0 0
M  V30 17 C 3.8971 6.0 0.0 0
M  V30 18 N 6.4951 6.0 0.0 0
M  V30 19 C -2.598 -2.2499 0.0 0
M  V30 20 C 5.1961 6.75 0.0 0
M  V30 21 C 7.7942 6.75 0.0 0
M  V30 22 N -3.8971 -2.9999 0.0 0
M  V30 23 O 9.0932 6.0 0.0 0
M  V30 24 C 7.7942 8.25 0.0 0
M  V30 25 C -5.1961 -2.2499 0.0 0
M  V30 26 C -3.8971 -4.4999 0.0 0
M  V30 27 O 9.0077 9.1316 0.0 0
M  V30 28 C 6.5807 9.1316 0.0 0
M  V30 29 C -6.4951 -2.9999 0.0 0
M  V30 30 C -5.1961 -5.2499 0.0 0
M  V30 31 C 8.5442 10.5582 0.0 0
M  V30 32 C 7.0442 10.5582 0.0 0
M  V30 33 C 5.1541 8.6681 0.0 0
M  V30 34 N -6.4951 -4.4999 0.0 0
M  V30 35 C 9.2942 11.8573 0.0 0
M  V30 36 C 6.2942 11.8573 0.0 0
M  V30 37 C -7.7942 -5.2499 0.0 0
M  V30 38 C 8.5442 13.1563 0.0 0
M  V30 39 C 7.0442 13.1563 0.0 0
M  V30 END ATOM
M  V30 BEGIN BOND
M  V30 1 2 1 2
M  V30 2 1 2 3
M  V30 3 1 2 4
M  V30 4 1 3 5
M  V30 5 2 4 6
M  V30 6 1 4 7
M  V30 7 1 5 8
M  V30 8 1 6 9
M  V30 9 2 7 10
M  V30 10 2 8 11
M  V30 11 1 8 12
M  V30 12 2 9 13
M  V30 13 1 9 14
M  V30 14 1 11 15
M  V30 15 2 12 16
M  V30 16 1 13 17
M  V30 17 1 14 18
M  V30 18 2 15 19
M  V30 19 1 17 20
M  V30 20 1 18 21
M  V30 21 1 19 22
M  V30 22 2 21 23
M  V30 23 1 21 24
M  V30 24 1 22 25
M  V30 25 1 22 26
M  V30 26 1 24 27
M  V30 27 2 24 28
M  V30 28 1 25 29
M  V30 29 1 26 30
M  V30 30 1 27 31
M  V30 31 1 28 32
M  V30 32 1 28 33
M  V30 33 1 29 34
M  V30 34 1 31 35
M  V30 35 1 32 36
M  V30 36 1 34 37
M  V30 37 2 35 38
M  V30 38 2 36 39
M  V30 39 1 10 13
M  V30 40 1 16 19
M  V30 41 1 18 20
M  V30 42 1 30 34
M  V30 43 2 31 32
M  V30 44 1 38 39
M  V30 END BOND
M  V30 END CTAB
M  END
>  <Molecule Name>
CTX-1019757

>  <SMILES>
CN1CCN(CC1)C1=CC=C(CNC(=O)C2=CC3=C(CCN(C3)C(=O)C3=C(C)C4=C(O3)C=CC=C4)C=C2)C=C1

>  <Batch Name>
CTX-1019757-1

>  <Batch Created Date>
2021-09-09

>  <Batch ID>
CTX-1019757-1

>  <External ID>
S04-03-0002

>  <Stereochemistry>
Achiral

>  <Amount 1>
4.3

>  <Unit 1>
mg

>  <CRO 1>
Pharmaron

>  <CRO 1 Total Amount>
23.8

>  <CRO 1 Unit>
mg

>  <Pharmaron Solubility (PBS, pH 7.4): Aqueous Solubility - Batch Mean (uM)>
25.1286

>  <Pharmaron Solubility (PBS, pH 7.4): Aqueous Solubility - Batch Mean (uM) Standard Deviation (±)>


>  <Pharmaron Solubility (PBS, pH 7.4): Aqueous Solubility - Batch Mean (uM) Count>
1.0

>  <log P>
4.38

>  <log D>
3.75

>  <Pharmaron Caliper Assay (CDK2/CCNE1): Minimum measured (%)>
51.6

>  <Pharmaron Caliper Assay (CDK2/CCNE1): IC50 - Batch Mean (uM)>
4.42

>  <Pharmaron ADPGLO (CDK2/E1-25C): Minimum measured (%)>


>  <Pharmaron ADPGLO (CDK2/E1-25C): IC50 - Batch Mean (uM)>


>  <Pharmaron ADPGLO (CDK2/E1-37C): Minimum measured (%)>


>  <Pharmaron ADPGLO (CDK2/E1-37C): IC50 - Batch Mean (uM)>


>  <IncuCyte Kuramochi RB-WT: IC50 - Batch Mean (uM)>
8.43

>  <IncuCyte Kuramochi RB-KO: IC50 - Batch Mean (uM)>
7.23

>  <DSF (npCDK2/CCNE1): dTm D - Batch Mean [Concentration: 100]>


>  <DSF (npCDK2/CCNE1): dTm D - Batch Mean [Concentration: 20.0]>
1.197

>  <DSF (pCDK2/CCNE1): dTm D - Batch Mean [Concentration: 100]>


>  <DSF (pCDK2/CCNE1): dTm D - Batch Mean [Concentration: 20.0]>


>  <RLM: t1/2 - Batch Mean (Min)>


>  <RLM: Cl int - Batch Mean (uL/min/mg protein)>


>  <RLM: ER (Hepatic extraction ratio) - Batch Mean>


>  <HLM: t1/2 - Batch Mean (Min)>
9.88

>  <HLM: Cl int - Batch Mean (uL/min/mg protein)>
140.6

>  <HLM: ER (Hepatic extraction ratio) - Batch Mean>
0.873

>  <MDCK-WT 4% BSA: Papp (A-B) - Batch Mean (10-6, cm/s)>
2.73

>  <MDCK-WT 4% BSA: Papp (B-A) - Batch Mean (10-6, cm/s)>
3.72

>  <MDCK-WT 4% BSA: Efflux Ratio - Batch Mean>
1.36

>  <MDCK-WT 4% BSA: ~Net A_B - Batch Mean (10-6, cm/s)>
3.2277

>  <pIC50>
5.354578

>  <Selection_1>
Y

>  <Selection_N>
N

>  <Serie>
Other

>  <Selection_T>
N

>  <Train_Vs_Test>


$$$$
CTX-1019660
OCL MolfileCreator  2D

  0  0  0  0  0  0              0 V3000
M  V30 BEGIN CTAB
M  V30 COUNTS 38 43 0 0 0
M  V30 BEGIN ATOM
M  V30 1 O 5.1961 -0.75 0.0 0
M  V30 2 C 3.8971 0.0 0.0 0
M  V30 3 N 2.598 -0.75 0.0 0
M  V30 4 C 3.8971 1.5 0.0 0
M  V30 5 C 1.299 0.0 0.0 0
M  V30 6 N 5.1961 2.25 0.0 0
M  V30 7 C 2.598 2.25 0.0 0
M  V30 8 C 0.0 -0.75 0.0 0
M  V30 9 C 5.1961 3.75 0.0 0
M  V30 10 C 2.598 3.75 0.0 0
M  V30 11 C -1.299 0.0 0.0 0
M  V30 12 C 0.0 -2.2499 0.0 0
M  V30 13 C 3.8971 4.5 0.0 0
M  V30 14 C 6.4951 4.5 0.0 0
M  V30 15 C -2.598 -0.7499 0.0 0
M  V30 16 C -1.299 -2.9999 0.0 0
M  V30 17 C 3.8971 6.0 0.0 0
M  V30 18 N 6.4951 6.0 0.0 0
M  V30 19 C -2.598 -2.2499 0.0 0
M  V30 20 C 5.1961 6.75 0.0 0
M  V30 21 C 7.7942 6.75 0.0 0
M  V30 22 N -3.8971 -2.9999 0.0 0
M  V30 23 O 9.0932 6.0 0.0 0
M  V30 24 C 7.7942 8.25 0.0 0
M  V30 25 C -5.1961 -2.2499 0.0 0
M  V30 26 C -3.8971 -4.4999 0.0 0
M  V30 27 C 9.0077 9.1316 0.0 0
M  V30 28 C 6.5807 9.1316 0.0 0
M  V30 29 C -6.4951 -2.9999 0.0 0
M  V30 30 C -5.1961 -5.2499 0.0 0
M  V30 31 N 8.5442 10.5582 0.0 0
M  V30 32 C 10.4749 8.8198 0.0 0
M  V30 33 N 7.0442 10.5582 0.0 0
M  V30 34 N -6.4951 -4.4999 0.0 0
M  V30 35 C 9.5479 11.6729 0.0 0
M  V30 36 N 11.4786 9.9345 0.0 0
M  V30 37 C -7.7942 -5.2499 0.0 0
M  V30 38 C 11.0151 11.3611 0.0 0
M  V30 END ATOM
M  V30 BEGIN BOND
M  V30 1 2 1 2
M  V30 2 1 2 3
M  V30 3 1 2 4
M  V30 4 1 3 5
M  V30 5 2 4 6
M  V30 6 1 4 7
M  V30 7 1 5 8
M  V30 8 1 6 9
M  V30 9 2 7 10
M  V30 10 2 8 11
M  V30 11 1 8 12
M  V30 12 2 9 13
M  V30 13 1 9 14
M  V30 14 1 11 15
M  V30 15 2 12 16
M  V30 16 1 13 17
M  V30 17 1 14 18
M  V30 18 2 15 19
M  V30 19 1 17 20
M  V30 20 1 18 21
M  V30 21 1 19 22
M  V30 22 2 21 23
M  V30 23 1 21 24
M  V30 24 1 22 25
M  V30 25 1 22 26
M  V30 26 2 24 27
M  V30 27 1 24 28
M  V30 28 1 25 29
M  V30 29 1 26 30
M  V30 30 1 27 31
M  V30 31 1 27 32
M  V30 32 2 28 33
M  V30 33 1 29 34
M  V30 34 1 31 35
M  V30 35 2 32 36
M  V30 36 1 34 37
M  V30 37 2 35 38
M  V30 38 1 10 13
M  V30 39 1 16 19
M  V30 40 1 18 20
M  V30 41 1 30 34
M  V30 42 1 31 33
M  V30 43 1 36 38
M  V30 END BOND
M  V30 END CTAB
M  END
>  <Molecule Name>
CTX-1019660

>  <SMILES>
CN1CCN(CC1)C1=CC=C(CNC(=O)C2=NC3=C(CCN(C3)C(=O)C3=C4C=NC=CN4N=C3)C=C2)C=C1

>  <Batch Name>
CTX-1019660-1

>  <Batch Created Date>
2021-08-19

>  <Batch ID>
CTX-1019660-1

>  <External ID>
P841-0126

>  <Stereochemistry>
Achiral

>  <Amount 1>
2.45

>  <Unit 1>
mg

>  <CRO 1>
Pharmaron

>  <CRO 1 Total Amount>
10.8

>  <CRO 1 Unit>
mg

>  <Pharmaron Solubility (PBS, pH 7.4): Aqueous Solubility - Batch Mean (uM)>
273.0

>  <Pharmaron Solubility (PBS, pH 7.4): Aqueous Solubility - Batch Mean (uM) Standard Deviation (±)>


>  <Pharmaron Solubility (PBS, pH 7.4): Aqueous Solubility - Batch Mean (uM) Count>
1.0

>  <log P>
1.35

>  <log D>
0.72

>  <Pharmaron Caliper Assay (CDK2/CCNE1): Minimum measured (%)>
23.0

>  <Pharmaron Caliper Assay (CDK2/CCNE1): IC50 - Batch Mean (uM)>
7.75

>  <Pharmaron ADPGLO (CDK2/E1-25C): Minimum measured (%)>
81.4

>  <Pharmaron ADPGLO (CDK2/E1-25C): IC50 - Batch Mean (uM)>
5.23

>  <Pharmaron ADPGLO (CDK2/E1-37C): Minimum measured (%)>
101.0

>  <Pharmaron ADPGLO (CDK2/E1-37C): IC50 - Batch Mean (uM)>
10.0

>  <IncuCyte Kuramochi RB-WT: IC50 - Batch Mean (uM)>
20.0

>  <IncuCyte Kuramochi RB-KO: IC50 - Batch Mean (uM)>
20.0

>  <DSF (npCDK2/CCNE1): dTm D - Batch Mean [Concentration: 100]>
-0.22399999999999998

>  <DSF (npCDK2/CCNE1): dTm D - Batch Mean [Concentration: 20.0]>
0.017

>  <DSF (pCDK2/CCNE1): dTm D - Batch Mean [Concentration: 100]>


>  <DSF (pCDK2/CCNE1): dTm D - Batch Mean [Concentration: 20.0]>


>  <RLM: t1/2 - Batch Mean (Min)>


>  <RLM: Cl int - Batch Mean (uL/min/mg protein)>


>  <RLM: ER (Hepatic extraction ratio) - Batch Mean>


>  <HLM: t1/2 - Batch Mean (Min)>


>  <HLM: Cl int - Batch Mean (uL/min/mg protein)>


>  <HLM: ER (Hepatic extraction ratio) - Batch Mean>


>  <MDCK-WT 4% BSA: Papp (A-B) - Batch Mean (10-6, cm/s)>


>  <MDCK-WT 4% BSA: Papp (B-A) - Batch Mean (10-6, cm/s)>


>  <MDCK-WT 4% BSA: Efflux Ratio - Batch Mean>


>  <MDCK-WT 4% BSA: ~Net A_B - Batch Mean (10-6, cm/s)>


>  <pIC50>
5.110698

>  <Selection_1>
Y

>  <Selection_N>


>  <Serie>
Naphthyridine

>  <Selection_T>
N

>  <Train_Vs_Test>


$$$$
CTX-1019630
OCL MolfileCreator  2D

  0  0  0  0  0  0              0 V3000
M  V30 BEGIN CTAB
M  V30 COUNTS 35 39 0 0 0
M  V30 BEGIN ATOM
M  V30 1 O 5.1961 -0.75 0.0 0
M  V30 2 C 3.8971 0.0 0.0 0
M  V30 3 N 2.598 -0.75 0.0 0
M  V30 4 C 3.8971 1.5 0.0 0
M  V30 5 C 1.299 0.0 0.0 0
M  V30 6 N 5.1961 2.25 0.0 0
M  V30 7 C 2.598 2.25 0.0 0
M  V30 8 C 0.0 -0.75 0.0 0
M  V30 9 C 5.1961 3.75 0.0 0
M  V30 10 C 2.598 3.75 0.0 0
M  V30 11 C -1.299 0.0 0.0 0
M  V30 12 C 0.0 -2.25 0.0 0
M  V30 13 C 3.8971 4.5 0.0 0
M  V30 14 C 6.4951 4.5 0.0 0
M  V30 15 C -2.598 -0.7499 0.0 0
M  V30 16 C -1.299 -2.9999 0.0 0
M  V30 17 C 3.8971 6.0 0.0 0
M  V30 18 N 6.4951 6.0 0.0 0
M  V30 19 C -2.598 -2.2499 0.0 0
M  V30 20 C 5.1961 6.75 0.0 0
M  V30 21 C 7.7942 6.75 0.0 0
M  V30 22 N -3.8971 -2.9999 0.0 0
M  V30 23 O 9.0932 6.0 0.0 0
M  V30 24 C 7.7942 8.25 0.0 0
M  V30 25 C -5.1961 -2.2499 0.0 0
M  V30 26 C -3.8971 -4.4999 0.0 0
M  V30 27 N 9.0077 9.1316 0.0 0
M  V30 28 C 6.5807 9.1316 0.0 0
M  V30 29 C -6.4951 -2.9999 0.0 0
M  V30 30 C -5.1961 -5.2499 0.0 0
M  V30 31 C 8.5442 10.5582 0.0 0
M  V30 32 C 10.4343 8.6681 0.0 0
M  V30 33 C 7.0442 10.5582 0.0 0
M  V30 34 N -6.4951 -4.4999 0.0 0
M  V30 35 C -7.7942 -5.2499 0.0 0
M  V30 END ATOM
M  V30 BEGIN BOND
M  V30 1 2 1 2
M  V30 2 1 2 3
M  V30 3 1 2 4
M  V30 4 1 3 5
M  V30 5 2 4 6
M  V30 6 1 4 7
M  V30 7 1 5 8
M  V30 8 1 6 9
M  V30 9 2 7 10
M  V30 10 2 8 11
M  V30 11 1 8 12
M  V30 12 2 9 13
M  V30 13 1 9 14
M  V30 14 1 11 15
M  V30 15 2 12 16
M  V30 16 1 13 17
M  V30 17 1 14 18
M  V30 18 2 15 19
M  V30 19 1 17 20
M  V30 20 1 18 21
M  V30 21 1 19 22
M  V30 22 2 21 23
M  V30 23 1 21 24
M  V30 24 1 22 25
M  V30 25 1 22 26
M  V30 26 1 24 27
M  V30 27 2 24 28
M  V30 28 1 25 29
M  V30 29 1 26 30
M  V30 30 1 27 31
M  V30 31 1 27 32
M  V30 32 1 28 33
M  V30 33 1 29 34
M  V30 34 1 34 35
M  V30 35 1 10 13
M  V30 36 1 16 19
M  V30 37 1 18 20
M  V30 38 1 30 34
M  V30 39 2 31 33
M  V30 END BOND
M  V30 END CTAB
M  END
>  <Molecule Name>
CTX-1019630

>  <SMILES>
CN1C=CC=C1C(=O)N1CCC2=C(C1)N=C(C=C2)C(=O)NCC1=CC=C(C=C1)N1CCN(C)CC1

>  <Batch Name>
CTX-1019630-1

>  <Batch Created Date>
2021-08-19

>  <Batch ID>
CTX-1019630-1

>  <External ID>
P841-0145

>  <Stereochemistry>
Achiral

>  <Amount 1>
4.4

>  <Unit 1>
mg

>  <CRO 1>
Pharmaron

>  <CRO 1 Total Amount>
15.27

>  <CRO 1 Unit>
mg

>  <Pharmaron Solubility (PBS, pH 7.4): Aqueous Solubility - Batch Mean (uM)>
262.14

>  <Pharmaron Solubility (PBS, pH 7.4): Aqueous Solubility - Batch Mean (uM) Standard Deviation (±)>


>  <Pharmaron Solubility (PBS, pH 7.4): Aqueous Solubility - Batch Mean (uM) Count>
1.0

>  <log P>
2.26

>  <log D>
1.63

>  <Pharmaron Caliper Assay (CDK2/CCNE1): Minimum measured (%)>
70.2

>  <Pharmaron Caliper Assay (CDK2/CCNE1): IC50 - Batch Mean (uM)>
8.8

>  <Pharmaron ADPGLO (CDK2/E1-25C): Minimum measured (%)>


>  <Pharmaron ADPGLO (CDK2/E1-25C): IC50 - Batch Mean (uM)>


>  <Pharmaron ADPGLO (CDK2/E1-37C): Minimum measured (%)>


>  <Pharmaron ADPGLO (CDK2/E1-37C): IC50 - Batch Mean (uM)>


>  <IncuCyte Kuramochi RB-WT: IC50 - Batch Mean (uM)>
20.0

>  <IncuCyte Kuramochi RB-KO: IC50 - Batch Mean (uM)>
20.0

>  <DSF (npCDK2/CCNE1): dTm D - Batch Mean [Concentration: 100]>
0.129

>  <DSF (npCDK2/CCNE1): dTm D - Batch Mean [Concentration: 20.0]>


>  <DSF (pCDK2/CCNE1): dTm D - Batch Mean [Concentration: 100]>


>  <DSF (pCDK2/CCNE1): dTm D - Batch Mean [Concentration: 20.0]>


>  <RLM: t1/2 - Batch Mean (Min)>


>  <RLM: Cl int - Batch Mean (uL/min/mg protein)>


>  <RLM: ER (Hepatic extraction ratio) - Batch Mean>


>  <HLM: t1/2 - Batch Mean (Min)>


>  <HLM: Cl int - Batch Mean (uL/min/mg protein)>


>  <HLM: ER (Hepatic extraction ratio) - Batch Mean>


>  <MDCK-WT 4% BSA: Papp (A-B) - Batch Mean (10-6, cm/s)>


>  <MDCK-WT 4% BSA: Papp (B-A) - Batch Mean (10-6, cm/s)>


>  <MDCK-WT 4% BSA: Efflux Ratio - Batch Mean>


>  <MDCK-WT 4% BSA: ~Net A_B - Batch Mean (10-6, cm/s)>


>  <pIC50>
5.055517

>  <Selection_1>
Y

>  <Selection_N>


>  <Serie>
Naphthyridine

>  <Selection_T>
N

>  <Train_Vs_Test>


$$$$
CTX-1019613
OCL MolfileCreator  2D

  0  0  0  0  0  0              0 V3000
M  V30 BEGIN CTAB
M  V30 COUNTS 39 44 0 0 0
M  V30 BEGIN ATOM
M  V30 1 S 9.5737 -0.0932 0.0 0
M  V30 2 C 8.6602 -0.5 0.0 0
M  V30 3 C 10.2429 -0.8364 0.0 0
M  V30 4 C 8.7647 -1.4945 0.0 0
M  V30 5 C 7.7942 0.0 0.0 0
M  V30 6 C 9.7429 -1.7024 0.0 0
M  V30 7 C 11.2429 -0.8364 0.0 0
M  V30 8 C 8.0216 -2.1636 0.0 0
M  V30 9 O 7.7942 0.9999 0.0 0
M  V30 10 N 6.9282 -0.5 0.0 0
M  V30 11 C 10.2429 -2.5684 0.0 0
M  V30 12 C 11.7429 -1.7024 0.0 0
M  V30 13 C 6.0621 0.0 0.0 0
M  V30 14 C 6.9282 -1.4999 0.0 0
M  V30 15 C 11.2429 -2.5684 0.0 0
M  V30 16 C 5.1961 -0.5 0.0 0
M  V30 17 C 6.0621 -1.9999 0.0 0
M  V30 18 N 4.3301 0.0 0.0 0
M  V30 19 C 5.1961 -1.4999 0.0 0
M  V30 20 C 3.4641 -0.5 0.0 0
M  V30 21 C 4.3301 -2.0 0.0 0
M  V30 22 C 2.598 0.0 0.0 0
M  V30 23 C 3.4641 -1.4999 0.0 0
M  V30 24 O 2.598 1.0 0.0 0
M  V30 25 N 1.732 -0.5 0.0 0
M  V30 26 C 0.866 0.0 0.0 0
M  V30 27 C 0.0 -0.5 0.0 0
M  V30 28 C -0.866 0.0 0.0 0
M  V30 29 C 0.0 -1.4999 0.0 0
M  V30 30 C -1.732 -0.4999 0.0 0
M  V30 31 C -0.866 -1.9999 0.0 0
M  V30 32 C -1.732 -1.4999 0.0 0
M  V30 33 N -2.598 -1.9999 0.0 0
M  V30 34 C -3.4641 -1.4999 0.0 0
M  V30 35 C -2.598 -2.9999 0.0 0
M  V30 36 C -4.3301 -1.9999 0.0 0
M  V30 37 C -3.4641 -3.4999 0.0 0
M  V30 38 N -4.3301 -2.9999 0.0 0
M  V30 39 C -5.1961 -3.4999 0.0 0
M  V30 END ATOM
M  V30 BEGIN BOND
M  V30 1 1 1 2
M  V30 2 1 1 3
M  V30 3 2 2 4
M  V30 4 1 2 5
M  V30 5 2 3 6
M  V30 6 1 3 7
M  V30 7 1 4 8
M  V30 8 2 5 9
M  V30 9 1 5 10
M  V30 10 1 6 11
M  V30 11 2 7 12
M  V30 12 1 10 13
M  V30 13 1 10 14
M  V30 14 2 11 15
M  V30 15 1 13 16
M  V30 16 1 14 17
M  V30 17 2 16 18
M  V30 18 1 16 19
M  V30 19 1 18 20
M  V30 20 2 19 21
M  V30 21 1 20 22
M  V30 22 2 20 23
M  V30 23 2 22 24
M  V30 24 1 22 25
M  V30 25 1 25 26
M  V30 26 1 26 27
M  V30 27 2 27 28
M  V30 28 1 27 29
M  V30 29 1 28 30
M  V30 30 2 29 31
M  V30 31 2 30 32
M  V30 32 1 32 33
M  V30 33 1 33 34
M  V30 34 1 33 35
M  V30 35 1 34 36
M  V30 36 1 35 37
M  V30 37 1 36 38
M  V30 38 1 38 39
M  V30 39 1 4 6
M  V30 40 1 12 15
M  V30 41 1 17 19
M  V30 42 1 21 23
M  V30 43 1 31 32
M  V30 44 1 37 38
M  V30 END BOND
M  V30 END CTAB
M  END
>  <Molecule Name>
CTX-1019613

>  <SMILES>
CN1CCN(CC1)C1=CC=C(CNC(=O)C2=CC=C3CCN(CC3=N2)C(=O)C2=C(C)C3=C(S2)C=CC=C3)C=C1

>  <Batch Name>
CTX-1019613-1

>  <Batch Created Date>
2021-08-19

>  <Batch ID>
CTX-1019613-1

>  <External ID>
P841-0128

>  <Stereochemistry>
Achiral

>  <Amount 1>
5.2

>  <Unit 1>
mg

>  <CRO 1>
Pharmaron

>  <CRO 1 Total Amount>
23.9

>  <CRO 1 Unit>
mg

>  <Pharmaron Solubility (PBS, pH 7.4): Aqueous Solubility - Batch Mean (uM)>
151.34

>  <Pharmaron Solubility (PBS, pH 7.4): Aqueous Solubility - Batch Mean (uM) Standard Deviation (±)>


>  <Pharmaron Solubility (PBS, pH 7.4): Aqueous Solubility - Batch Mean (uM) Count>
1.0

>  <log P>
4.56

>  <log D>
3.93

>  <Pharmaron Caliper Assay (CDK2/CCNE1): Minimum measured (%)>
43.0

>  <Pharmaron Caliper Assay (CDK2/CCNE1): IC50 - Batch Mean (uM)>
2.41

>  <Pharmaron ADPGLO (CDK2/E1-25C): Minimum measured (%)>
27.8

>  <Pharmaron ADPGLO (CDK2/E1-25C): IC50 - Batch Mean (uM)>
4.13

>  <Pharmaron ADPGLO (CDK2/E1-37C): Minimum measured (%)>
98.2

>  <Pharmaron ADPGLO (CDK2/E1-37C): IC50 - Batch Mean (uM)>
100

>  <IncuCyte Kuramochi RB-WT: IC50 - Batch Mean (uM)>
11.7

>  <IncuCyte Kuramochi RB-KO: IC50 - Batch Mean (uM)>
12.4

>  <DSF (npCDK2/CCNE1): dTm D - Batch Mean [Concentration: 100]>
1.216

>  <DSF (npCDK2/CCNE1): dTm D - Batch Mean [Concentration: 20.0]>
1.36

>  <DSF (pCDK2/CCNE1): dTm D - Batch Mean [Concentration: 100]>


>  <DSF (pCDK2/CCNE1): dTm D - Batch Mean [Concentration: 20.0]>


>  <RLM: t1/2 - Batch Mean (Min)>


>  <RLM: Cl int - Batch Mean (uL/min/mg protein)>


>  <RLM: ER (Hepatic extraction ratio) - Batch Mean>


>  <HLM: t1/2 - Batch Mean (Min)>
9.1

>  <HLM: Cl int - Batch Mean (uL/min/mg protein)>
152.48

>  <HLM: ER (Hepatic extraction ratio) - Batch Mean>
0.882

>  <MDCK-WT 4% BSA: Papp (A-B) - Batch Mean (10-6, cm/s)>


>  <MDCK-WT 4% BSA: Papp (B-A) - Batch Mean (10-6, cm/s)>


>  <MDCK-WT 4% BSA: Efflux Ratio - Batch Mean>


>  <MDCK-WT 4% BSA: ~Net A_B - Batch Mean (10-6, cm/s)>


>  <pIC50>
5.617983

>  <Selection_1>
Y

>  <Selection_N>


>  <Serie>
Naphthyridine

>  <Selection_T>
N

>  <Train_Vs_Test>


$$$$
CTX-1019496
OCL MolfileCreator  2D

  0  0  0  0  0  0              0 V3000
M  V30 BEGIN CTAB
M  V30 COUNTS 31 35 0 0 0
M  V30 BEGIN ATOM
M  V30 1 S 4.3776 -0.0932 0.0 0
M  V30 2 C 3.4641 -0.5 0.0 0
M  V30 3 C 5.0467 -0.8364 0.0 0
M  V30 4 C 3.5686 -1.4945 0.0 0
M  V30 5 C 2.598 0.0 0.0 0
M  V30 6 N 4.5467 -1.7024 0.0 0
M  V30 7 N 1.732 -0.5 0.0 0
M  V30 8 C 0.866 0.0 0.0 0
M  V30 9 O 0.866 1.0 0.0 0
M  V30 10 C 0.0 -0.5 0.0 0
M  V30 11 N -0.866 0.0 0.0 0
M  V30 12 C 0.0 -1.4999 0.0 0
M  V30 13 C -1.732 -0.4999 0.0 0
M  V30 14 C -0.866 -1.9999 0.0 0
M  V30 15 C -1.732 -1.4999 0.0 0
M  V30 16 C -2.598 0.0 0.0 0
M  V30 17 C -2.598 -1.9999 0.0 0
M  V30 18 N -3.4641 -0.4999 0.0 0
M  V30 19 C -3.4641 -1.4999 0.0 0
M  V30 20 C -4.3301 0.0 0.0 0
M  V30 21 O -4.3301 1.0 0.0 0
M  V30 22 C -5.1961 -0.4999 0.0 0
M  V30 23 O -6.1096 -0.0932 0.0 0
M  V30 24 C -5.3006 -1.4945 0.0 0
M  V30 25 C -6.7788 -0.8364 0.0 0
M  V30 26 C -6.2788 -1.7024 0.0 0
M  V30 27 C -4.5575 -2.1636 0.0 0
M  V30 28 C -7.7788 -0.8364 0.0 0
M  V30 29 C -6.7788 -2.5684 0.0 0
M  V30 30 C -8.2788 -1.7024 0.0 0
M  V30 31 C -7.7788 -2.5684 0.0 0
M  V30 END ATOM
M  V30 BEGIN BOND
M  V30 1 1 1 2
M  V30 2 1 1 3
M  V30 3 2 2 4
M  V30 4 1 2 5
M  V30 5 2 3 6
M  V30 6 1 5 7
M  V30 7 1 7 8
M  V30 8 2 8 9
M  V30 9 1 8 10
M  V30 10 2 10 11
M  V30 11 1 10 12
M  V30 12 1 11 13
M  V30 13 2 12 14
M  V30 14 2 13 15
M  V30 15 1 13 16
M  V30 16 1 15 17
M  V30 17 1 16 18
M  V30 18 1 17 19
M  V30 19 1 18 20
M  V30 20 2 20 21
M  V30 21 1 20 22
M  V30 22 1 22 23
M  V30 23 2 22 24
M  V30 24 1 23 25
M  V30 25 1 24 26
M  V30 26 1 24 27
M  V30 27 1 25 28
M  V30 28 1 26 29
M  V30 29 2 28 30
M  V30 30 2 29 31
M  V30 31 1 4 6
M  V30 32 1 14 15
M  V30 33 1 18 19
M  V30 34 2 25 26
M  V30 35 1 30 31
M  V30 END BOND
M  V30 END CTAB
M  END
>  <Molecule Name>
CTX-1019496

>  <SMILES>
CC1=C(OC2=C1C=CC=C2)C(=O)N1CCC2=C(C1)N=C(C=C2)C(=O)NCC1=CN=CS1

>  <Batch Name>
CTX-1019496-1

>  <Batch Created Date>
2021-07-30

>  <Batch ID>
CTX-1019496-1

>  <External ID>
P841-0109

>  <Stereochemistry>
Achiral

>  <Amount 1>
2.3

>  <Unit 1>
mg

>  <CRO 1>
Pharmaron

>  <CRO 1 Total Amount>
13.7

>  <CRO 1 Unit>
mg

>  <Pharmaron Solubility (PBS, pH 7.4): Aqueous Solubility - Batch Mean (uM)>
13.7

>  <Pharmaron Solubility (PBS, pH 7.4): Aqueous Solubility - Batch Mean (uM) Standard Deviation (±)>


>  <Pharmaron Solubility (PBS, pH 7.4): Aqueous Solubility - Batch Mean (uM) Count>
1.0

>  <log P>
2.47

>  <log D>
2.47

>  <Pharmaron Caliper Assay (CDK2/CCNE1): Minimum measured (%)>
66.1

>  <Pharmaron Caliper Assay (CDK2/CCNE1): IC50 - Batch Mean (uM)>
5.47

>  <Pharmaron ADPGLO (CDK2/E1-25C): Minimum measured (%)>


>  <Pharmaron ADPGLO (CDK2/E1-25C): IC50 - Batch Mean (uM)>


>  <Pharmaron ADPGLO (CDK2/E1-37C): Minimum measured (%)>


>  <Pharmaron ADPGLO (CDK2/E1-37C): IC50 - Batch Mean (uM)>


>  <IncuCyte Kuramochi RB-WT: IC50 - Batch Mean (uM)>
20.0

>  <IncuCyte Kuramochi RB-KO: IC50 - Batch Mean (uM)>
20.0

>  <DSF (npCDK2/CCNE1): dTm D - Batch Mean [Concentration: 100]>


>  <DSF (npCDK2/CCNE1): dTm D - Batch Mean [Concentration: 20.0]>
0.631

>  <DSF (pCDK2/CCNE1): dTm D - Batch Mean [Concentration: 100]>


>  <DSF (pCDK2/CCNE1): dTm D - Batch Mean [Concentration: 20.0]>


>  <RLM: t1/2 - Batch Mean (Min)>


>  <RLM: Cl int - Batch Mean (uL/min/mg protein)>


>  <RLM: ER (Hepatic extraction ratio) - Batch Mean>


>  <HLM: t1/2 - Batch Mean (Min)>


>  <HLM: Cl int - Batch Mean (uL/min/mg protein)>


>  <HLM: ER (Hepatic extraction ratio) - Batch Mean>


>  <MDCK-WT 4% BSA: Papp (A-B) - Batch Mean (10-6, cm/s)>


>  <MDCK-WT 4% BSA: Papp (B-A) - Batch Mean (10-6, cm/s)>


>  <MDCK-WT 4% BSA: Efflux Ratio - Batch Mean>


>  <MDCK-WT 4% BSA: ~Net A_B - Batch Mean (10-6, cm/s)>


>  <pIC50>
5.262013

>  <Selection_1>
Y

>  <Selection_N>


>  <Serie>
Naphthyridine

>  <Selection_T>
N

>  <Train_Vs_Test>


$$$$
CTX-1019480
OCL MolfileCreator  2D

  0  0  0  0  0  0              0 V3000
M  V30 BEGIN CTAB
M  V30 COUNTS 32 36 0 0 0
M  V30 BEGIN ATOM
M  V30 1 O 5.1961 -0.75 0.0 0
M  V30 2 C 3.8971 0.0 0.0 0
M  V30 3 N 2.598 -0.75 0.0 0
M  V30 4 C 3.8971 1.5 0.0 0
M  V30 5 C 1.299 0.0 0.0 0
M  V30 6 N 5.1961 2.25 0.0 0
M  V30 7 C 2.598 2.25 0.0 0
M  V30 8 C 0.0 -0.75 0.0 0
M  V30 9 C 5.1961 3.75 0.0 0
M  V30 10 C 2.598 3.75 0.0 0
M  V30 11 C -1.299 0.0 0.0 0
M  V30 12 C 0.0 -2.25 0.0 0
M  V30 13 C 3.8971 4.5 0.0 0
M  V30 14 C 6.4951 4.5 0.0 0
M  V30 15 C -2.598 -0.7499 0.0 0
M  V30 16 C -1.299 -2.9999 0.0 0
M  V30 17 C 3.8971 6.0 0.0 0
M  V30 18 N 6.4951 6.0 0.0 0
M  V30 19 C -2.598 -2.2499 0.0 0
M  V30 20 C 5.1961 6.75 0.0 0
M  V30 21 C 7.7942 6.75 0.0 0
M  V30 22 O 9.0932 6.0 0.0 0
M  V30 23 C 7.7942 8.25 0.0 0
M  V30 24 O 9.0077 9.1316 0.0 0
M  V30 25 C 6.5807 9.1316 0.0 0
M  V30 26 C 8.5442 10.5582 0.0 0
M  V30 27 C 7.0442 10.5582 0.0 0
M  V30 28 C 5.1541 8.6681 0.0 0
M  V30 29 C 9.2942 11.8573 0.0 0
M  V30 30 C 6.2942 11.8573 0.0 0
M  V30 31 C 8.5442 13.1563 0.0 0
M  V30 32 C 7.0442 13.1563 0.0 0
M  V30 END ATOM
M  V30 BEGIN BOND
M  V30 1 2 1 2
M  V30 2 1 2 3
M  V30 3 1 2 4
M  V30 4 1 3 5
M  V30 5 2 4 6
M  V30 6 1 4 7
M  V30 7 1 5 8
M  V30 8 1 6 9
M  V30 9 2 7 10
M  V30 10 2 8 11
M  V30 11 1 8 12
M  V30 12 2 9 13
M  V30 13 1 9 14
M  V30 14 1 11 15
M  V30 15 2 12 16
M  V30 16 1 13 17
M  V30 17 1 14 18
M  V30 18 2 15 19
M  V30 19 1 17 20
M  V30 20 1 18 21
M  V30 21 2 21 22
M  V30 22 1 21 23
M  V30 23 1 23 24
M  V30 24 2 23 25
M  V30 25 1 24 26
M  V30 26 1 25 27
M  V30 27 1 25 28
M  V30 28 1 26 29
M  V30 29 1 27 30
M  V30 30 2 29 31
M  V30 31 2 30 32
M  V30 32 1 10 13
M  V30 33 1 16 19
M  V30 34 1 18 20
M  V30 35 2 26 27
M  V30 36 1 31 32
M  V30 END BOND
M  V30 END CTAB
M  END
>  <Molecule Name>
CTX-1019480

>  <SMILES>
CC1=C(OC2=C1C=CC=C2)C(=O)N1CCC2=C(C1)N=C(C=C2)C(=O)NCC1=CC=CC=C1

>  <Batch Name>
CTX-1019480-1

>  <Batch Created Date>
2021-07-30

>  <Batch ID>
CTX-1019480-1

>  <External ID>
P841-0093

>  <Stereochemistry>
Achiral

>  <Amount 1>
3.1

>  <Unit 1>
mg

>  <CRO 1>
Pharmaron

>  <CRO 1 Total Amount>
12.2

>  <CRO 1 Unit>
mg

>  <Pharmaron Solubility (PBS, pH 7.4): Aqueous Solubility - Batch Mean (uM)>
0.0192

>  <Pharmaron Solubility (PBS, pH 7.4): Aqueous Solubility - Batch Mean (uM) Standard Deviation (±)>


>  <Pharmaron Solubility (PBS, pH 7.4): Aqueous Solubility - Batch Mean (uM) Count>
1.0

>  <log P>
3.68

>  <log D>
3.68

>  <Pharmaron Caliper Assay (CDK2/CCNE1): Minimum measured (%)>
71.2

>  <Pharmaron Caliper Assay (CDK2/CCNE1): IC50 - Batch Mean (uM)>
0.43

>  <Pharmaron ADPGLO (CDK2/E1-25C): Minimum measured (%)>
82.2

>  <Pharmaron ADPGLO (CDK2/E1-25C): IC50 - Batch Mean (uM)>
4.21

>  <Pharmaron ADPGLO (CDK2/E1-37C): Minimum measured (%)>
101.0

>  <Pharmaron ADPGLO (CDK2/E1-37C): IC50 - Batch Mean (uM)>
10.0

>  <IncuCyte Kuramochi RB-WT: IC50 - Batch Mean (uM)>
20.0

>  <IncuCyte Kuramochi RB-KO: IC50 - Batch Mean (uM)>
20.0

>  <DSF (npCDK2/CCNE1): dTm D - Batch Mean [Concentration: 100]>


>  <DSF (npCDK2/CCNE1): dTm D - Batch Mean [Concentration: 20.0]>
1.162

>  <DSF (pCDK2/CCNE1): dTm D - Batch Mean [Concentration: 100]>


>  <DSF (pCDK2/CCNE1): dTm D - Batch Mean [Concentration: 20.0]>
0.212

>  <RLM: t1/2 - Batch Mean (Min)>


>  <RLM: Cl int - Batch Mean (uL/min/mg protein)>


>  <RLM: ER (Hepatic extraction ratio) - Batch Mean>


>  <HLM: t1/2 - Batch Mean (Min)>
4.83

>  <HLM: Cl int - Batch Mean (uL/min/mg protein)>
288.47

>  <HLM: ER (Hepatic extraction ratio) - Batch Mean>
0.934

>  <MDCK-WT 4% BSA: Papp (A-B) - Batch Mean (10-6, cm/s)>


>  <MDCK-WT 4% BSA: Papp (B-A) - Batch Mean (10-6, cm/s)>


>  <MDCK-WT 4% BSA: Efflux Ratio - Batch Mean>


>  <MDCK-WT 4% BSA: ~Net A_B - Batch Mean (10-6, cm/s)>


>  <pIC50>
6.366532

>  <Selection_1>
Y

>  <Selection_N>


>  <Serie>
Naphthyridine

>  <Selection_T>
N

>  <Train_Vs_Test>


$$$$
CTX-1019473
OCL MolfileCreator  2D

  0  0  0  0  0  0              0 V3000
M  V30 BEGIN CTAB
M  V30 COUNTS 35 39 0 0 0
M  V30 BEGIN ATOM
M  V30 1 O 5.1961 -0.75 0.0 0
M  V30 2 C 3.8971 0.0 0.0 0
M  V30 3 N 2.598 -0.75 0.0 0
M  V30 4 C 3.8971 1.5 0.0 0
M  V30 5 C 1.299 0.0 0.0 0
M  V30 6 N 5.1961 2.25 0.0 0
M  V30 7 C 2.598 2.25 0.0 0
M  V30 8 C 0.0 -0.75 0.0 0
M  V30 9 C 5.1961 3.75 0.0 0
M  V30 10 C 2.598 3.75 0.0 0
M  V30 11 C -1.299 0.0 0.0 0
M  V30 12 C 0.0 -2.25 0.0 0
M  V30 13 C 3.8971 4.5 0.0 0
M  V30 14 C 6.4951 4.5 0.0 0
M  V30 15 C -2.598 -0.7499 0.0 0
M  V30 16 C -1.299 -2.9999 0.0 0
M  V30 17 C 3.8971 6.0 0.0 0
M  V30 18 N 6.4951 6.0 0.0 0
M  V30 19 C -2.598 -2.2499 0.0 0
M  V30 20 C 5.1961 6.75 0.0 0
M  V30 21 C 7.7942 6.75 0.0 0
M  V30 22 N -3.8971 -2.9999 0.0 0
M  V30 23 O 9.0932 6.0 0.0 0
M  V30 24 C 7.7942 8.25 0.0 0
M  V30 25 C -5.1961 -2.2499 0.0 0
M  V30 26 C -3.8971 -4.4999 0.0 0
M  V30 27 O 9.0077 9.1316 0.0 0
M  V30 28 C 6.5807 9.1316 0.0 0
M  V30 29 C 8.5442 10.5582 0.0 0
M  V30 30 C 7.0442 10.5582 0.0 0
M  V30 31 C 5.1541 8.6681 0.0 0
M  V30 32 C 9.2942 11.8573 0.0 0
M  V30 33 C 6.2942 11.8573 0.0 0
M  V30 34 C 8.5442 13.1563 0.0 0
M  V30 35 C 7.0442 13.1563 0.0 0
M  V30 END ATOM
M  V30 BEGIN BOND
M  V30 1 2 1 2
M  V30 2 1 2 3
M  V30 3 1 2 4
M  V30 4 1 3 5
M  V30 5 2 4 6
M  V30 6 1 4 7
M  V30 7 1 5 8
M  V30 8 1 6 9
M  V30 9 2 7 10
M  V30 10 2 8 11
M  V30 11 1 8 12
M  V30 12 2 9 13
M  V30 13 1 9 14
M  V30 14 1 11 15
M  V30 15 2 12 16
M  V30 16 1 13 17
M  V30 17 1 14 18
M  V30 18 2 15 19
M  V30 19 1 17 20
M  V30 20 1 18 21
M  V30 21 1 19 22
M  V30 22 2 21 23
M  V30 23 1 21 24
M  V30 24 1 22 25
M  V30 25 1 22 26
M  V30 26 1 24 27
M  V30 27 2 24 28
M  V30 28 1 27 29
M  V30 29 1 28 30
M  V30 30 1 28 31
M  V30 31 1 29 32
M  V30 32 1 30 33
M  V30 33 2 32 34
M  V30 34 2 33 35
M  V30 35 1 10 13
M  V30 36 1 16 19
M  V30 37 1 18 20
M  V30 38 2 29 30
M  V30 39 1 34 35
M  V30 END BOND
M  V30 END CTAB
M  END
>  <Molecule Name>
CTX-1019473

>  <SMILES>
CN(C)C1=CC=C(CNC(=O)C2=NC3=C(CCN(C3)C(=O)C3=C(C)C4=C(O3)C=CC=C4)C=C2)C=C1

>  <Batch Name>
CTX-1019473-1

>  <Batch Created Date>
2021-07-30

>  <Batch ID>
CTX-1019473-1

>  <External ID>
P841-0086

>  <Stereochemistry>
Achiral

>  <Amount 1>
1.9

>  <Unit 1>
mg

>  <CRO 1>
Pharmaron

>  <CRO 1 Total Amount>
10.9

>  <CRO 1 Unit>
mg

>  <Pharmaron Solubility (PBS, pH 7.4): Aqueous Solubility - Batch Mean (uM)>
0.0021

>  <Pharmaron Solubility (PBS, pH 7.4): Aqueous Solubility - Batch Mean (uM) Standard Deviation (±)>


>  <Pharmaron Solubility (PBS, pH 7.4): Aqueous Solubility - Batch Mean (uM) Count>
1.0

>  <log P>
3.78

>  <log D>
3.78

>  <Pharmaron Caliper Assay (CDK2/CCNE1): Minimum measured (%)>
75.0

>  <Pharmaron Caliper Assay (CDK2/CCNE1): IC50 - Batch Mean (uM)>
0.875

>  <Pharmaron ADPGLO (CDK2/E1-25C): Minimum measured (%)>
83.2

>  <Pharmaron ADPGLO (CDK2/E1-25C): IC50 - Batch Mean (uM)>
4.37

>  <Pharmaron ADPGLO (CDK2/E1-37C): Minimum measured (%)>
97.9

>  <Pharmaron ADPGLO (CDK2/E1-37C): IC50 - Batch Mean (uM)>
10.0

>  <IncuCyte Kuramochi RB-WT: IC50 - Batch Mean (uM)>
20.0

>  <IncuCyte Kuramochi RB-KO: IC50 - Batch Mean (uM)>
20.0

>  <DSF (npCDK2/CCNE1): dTm D - Batch Mean [Concentration: 100]>


>  <DSF (npCDK2/CCNE1): dTm D - Batch Mean [Concentration: 20.0]>
0.8240000000000001

>  <DSF (pCDK2/CCNE1): dTm D - Batch Mean [Concentration: 100]>


>  <DSF (pCDK2/CCNE1): dTm D - Batch Mean [Concentration: 20.0]>


>  <RLM: t1/2 - Batch Mean (Min)>


>  <RLM: Cl int - Batch Mean (uL/min/mg protein)>


>  <RLM: ER (Hepatic extraction ratio) - Batch Mean>


>  <HLM: t1/2 - Batch Mean (Min)>
10.38

>  <HLM: Cl int - Batch Mean (uL/min/mg protein)>
133.74

>  <HLM: ER (Hepatic extraction ratio) - Batch Mean>
0.867

>  <MDCK-WT 4% BSA: Papp (A-B) - Batch Mean (10-6, cm/s)>


>  <MDCK-WT 4% BSA: Papp (B-A) - Batch Mean (10-6, cm/s)>


>  <MDCK-WT 4% BSA: Efflux Ratio - Batch Mean>


>  <MDCK-WT 4% BSA: ~Net A_B - Batch Mean (10-6, cm/s)>


>  <pIC50>
6.057992

>  <Selection_1>
Y

>  <Selection_N>


>  <Serie>
Naphthyridine

>  <Selection_T>
N

>  <Train_Vs_Test>


$$$$
CTX-1019471
OCL MolfileCreator  2D

  0  0  0  0  0  0              0 V3000
M  V30 BEGIN CTAB
M  V30 COUNTS 32 36 0 0 0
M  V30 BEGIN ATOM
M  V30 1 O 5.1961 -0.75 0.0 0
M  V30 2 C 3.8971 0.0 0.0 0
M  V30 3 N 2.598 -0.75 0.0 0
M  V30 4 C 3.8971 1.5 0.0 0
M  V30 5 C 1.299 0.0 0.0 0
M  V30 6 N 5.1961 2.25 0.0 0
M  V30 7 C 2.598 2.25 0.0 0
M  V30 8 C 0.0 -0.75 0.0 0
M  V30 9 C 5.1961 3.75 0.0 0
M  V30 10 C 2.598 3.75 0.0 0
M  V30 11 C -1.299 0.0 0.0 0
M  V30 12 C 0.0 -2.25 0.0 0
M  V30 13 C 3.8971 4.5 0.0 0
M  V30 14 C 6.4951 4.5 0.0 0
M  V30 15 C -2.598 -0.7499 0.0 0
M  V30 16 C -1.299 -2.9999 0.0 0
M  V30 17 C 3.8971 6.0 0.0 0
M  V30 18 N 6.4951 6.0 0.0 0
M  V30 19 N -2.598 -2.2499 0.0 0
M  V30 20 C 5.1961 6.75 0.0 0
M  V30 21 C 7.7942 6.75 0.0 0
M  V30 22 O 9.0932 6.0 0.0 0
M  V30 23 C 7.7942 8.25 0.0 0
M  V30 24 O 9.0077 9.1316 0.0 0
M  V30 25 C 6.5807 9.1316 0.0 0
M  V30 26 C 8.5442 10.5582 0.0 0
M  V30 27 C 7.0442 10.5582 0.0 0
M  V30 28 C 5.1541 8.6681 0.0 0
M  V30 29 C 9.2942 11.8573 0.0 0
M  V30 30 C 6.2942 11.8573 0.0 0
M  V30 31 C 8.5442 13.1563 0.0 0
M  V30 32 C 7.0442 13.1563 0.0 0
M  V30 END ATOM
M  V30 BEGIN BOND
M  V30 1 2 1 2
M  V30 2 1 2 3
M  V30 3 1 2 4
M  V30 4 1 3 5
M  V30 5 2 4 6
M  V30 6 1 4 7
M  V30 7 1 5 8
M  V30 8 1 6 9
M  V30 9 2 7 10
M  V30 10 2 8 11
M  V30 11 1 8 12
M  V30 12 2 9 13
M  V30 13 1 9 14
M  V30 14 1 11 15
M  V30 15 2 12 16
M  V30 16 1 13 17
M  V30 17 1 14 18
M  V30 18 2 15 19
M  V30 19 1 17 20
M  V30 20 1 18 21
M  V30 21 2 21 22
M  V30 22 1 21 23
M  V30 23 1 23 24
M  V30 24 2 23 25
M  V30 25 1 24 26
M  V30 26 1 25 27
M  V30 27 1 25 28
M  V30 28 1 26 29
M  V30 29 1 27 30
M  V30 30 2 29 31
M  V30 31 2 30 32
M  V30 32 1 10 13
M  V30 33 1 16 19
M  V30 34 1 18 20
M  V30 35 2 26 27
M  V30 36 1 31 32
M  V30 END BOND
M  V30 END CTAB
M  END
>  <Molecule Name>
CTX-1019471

>  <SMILES>
CC1=C(OC2=C1C=CC=C2)C(=O)N1CCC2=C(C1)N=C(C=C2)C(=O)NCC1=CC=NC=C1

>  <Batch Name>
CTX-1019471-1

>  <Batch Created Date>
2021-07-30

>  <Batch ID>
CTX-1019471-1

>  <External ID>
P841-0084

>  <Stereochemistry>
Achiral

>  <Amount 1>
2.9

>  <Unit 1>
mg

>  <CRO 1>
Pharmaron

>  <CRO 1 Total Amount>
11.9

>  <CRO 1 Unit>
mg

>  <Pharmaron Solubility (PBS, pH 7.4): Aqueous Solubility - Batch Mean (uM)>
12.55

>  <Pharmaron Solubility (PBS, pH 7.4): Aqueous Solubility - Batch Mean (uM) Standard Deviation (±)>


>  <Pharmaron Solubility (PBS, pH 7.4): Aqueous Solubility - Batch Mean (uM) Count>
1.0

>  <log P>
2.46

>  <log D>
2.46

>  <Pharmaron Caliper Assay (CDK2/CCNE1): Minimum measured (%)>
60.9

>  <Pharmaron Caliper Assay (CDK2/CCNE1): IC50 - Batch Mean (uM)>
3.25

>  <Pharmaron ADPGLO (CDK2/E1-25C): Minimum measured (%)>
82.7

>  <Pharmaron ADPGLO (CDK2/E1-25C): IC50 - Batch Mean (uM)>
10.0

>  <Pharmaron ADPGLO (CDK2/E1-37C): Minimum measured (%)>
105.0

>  <Pharmaron ADPGLO (CDK2/E1-37C): IC50 - Batch Mean (uM)>
10.0

>  <IncuCyte Kuramochi RB-WT: IC50 - Batch Mean (uM)>
20.0

>  <IncuCyte Kuramochi RB-KO: IC50 - Batch Mean (uM)>
12.0

>  <DSF (npCDK2/CCNE1): dTm D - Batch Mean [Concentration: 100]>


>  <DSF (npCDK2/CCNE1): dTm D - Batch Mean [Concentration: 20.0]>
1.0170000000000001

>  <DSF (pCDK2/CCNE1): dTm D - Batch Mean [Concentration: 100]>


>  <DSF (pCDK2/CCNE1): dTm D - Batch Mean [Concentration: 20.0]>


>  <RLM: t1/2 - Batch Mean (Min)>


>  <RLM: Cl int - Batch Mean (uL/min/mg protein)>


>  <RLM: ER (Hepatic extraction ratio) - Batch Mean>


>  <HLM: t1/2 - Batch Mean (Min)>


>  <HLM: Cl int - Batch Mean (uL/min/mg protein)>


>  <HLM: ER (Hepatic extraction ratio) - Batch Mean>


>  <MDCK-WT 4% BSA: Papp (A-B) - Batch Mean (10-6, cm/s)>


>  <MDCK-WT 4% BSA: Papp (B-A) - Batch Mean (10-6, cm/s)>


>  <MDCK-WT 4% BSA: Efflux Ratio - Batch Mean>


>  <MDCK-WT 4% BSA: ~Net A_B - Batch Mean (10-6, cm/s)>


>  <pIC50>
5.488117

>  <Selection_1>
Y

>  <Selection_N>


>  <Serie>
Naphthyridine

>  <Selection_T>
N

>  <Train_Vs_Test>


$$$$
CTX-1017233
OCL MolfileCreator  2D

  0  0  0  0  0  0              0 V3000
M  V30 BEGIN CTAB
M  V30 COUNTS 39 44 0 0 0
M  V30 BEGIN ATOM
M  V30 1 O 5.1961 -0.75 0.0 0
M  V30 2 C 3.8971 0.0 0.0 0
M  V30 3 N 2.598 -0.75 0.0 0
M  V30 4 C 3.8971 1.5 0.0 0
M  V30 5 C 1.299 0.0 0.0 0
M  V30 6 N 5.1961 2.25 0.0 0
M  V30 7 C 2.598 2.25 0.0 0
M  V30 8 C 0.0 -0.75 0.0 0
M  V30 9 C 5.1961 3.75 0.0 0
M  V30 10 C 2.598 3.75 0.0 0
M  V30 11 C -1.299 0.0 0.0 0
M  V30 12 C 0.0 -2.2499 0.0 0
M  V30 13 C 3.8971 4.5 0.0 0
M  V30 14 C 6.4951 4.5 0.0 0
M  V30 15 C -2.598 -0.7499 0.0 0
M  V30 16 C -1.299 -2.9999 0.0 0
M  V30 17 C 3.8971 6.0 0.0 0
M  V30 18 N 6.4951 6.0 0.0 0
M  V30 19 C -2.598 -2.2499 0.0 0
M  V30 20 C 5.1961 6.75 0.0 0
M  V30 21 C 7.7942 6.75 0.0 0
M  V30 22 N -3.8971 -2.9999 0.0 0
M  V30 23 O 9.0932 6.0 0.0 0
M  V30 24 C 7.7942 8.25 0.0 0
M  V30 25 C -5.1961 -2.2499 0.0 0
M  V30 26 C -3.8971 -4.4999 0.0 0
M  V30 27 O 9.0077 9.1316 0.0 0
M  V30 28 C 6.5807 9.1316 0.0 0
M  V30 29 C -6.4951 -2.9999 0.0 0
M  V30 30 C -5.1961 -5.2499 0.0 0
M  V30 31 C 8.5442 10.5582 0.0 0
M  V30 32 C 7.0442 10.5582 0.0 0
M  V30 33 C 5.1541 8.6681 0.0 0
M  V30 34 N -6.4951 -4.4999 0.0 0
M  V30 35 C 9.2942 11.8573 0.0 0
M  V30 36 C 6.2942 11.8573 0.0 0
M  V30 37 C -7.7942 -5.2499 0.0 0
M  V30 38 C 8.5442 13.1563 0.0 0
M  V30 39 C 7.0442 13.1563 0.0 0
M  V30 END ATOM
M  V30 BEGIN BOND
M  V30 1 2 1 2
M  V30 2 1 2 3
M  V30 3 1 2 4
M  V30 4 1 3 5
M  V30 5 2 4 6
M  V30 6 1 4 7
M  V30 7 1 5 8
M  V30 8 1 6 9
M  V30 9 2 7 10
M  V30 10 2 8 11
M  V30 11 1 8 12
M  V30 12 2 9 13
M  V30 13 1 9 14
M  V30 14 1 11 15
M  V30 15 2 12 16
M  V30 16 1 13 17
M  V30 17 1 14 18
M  V30 18 2 15 19
M  V30 19 1 17 20
M  V30 20 1 18 21
M  V30 21 1 19 22
M  V30 22 2 21 23
M  V30 23 1 21 24
M  V30 24 1 22 25
M  V30 25 1 22 26
M  V30 26 1 24 27
M  V30 27 2 24 28
M  V30 28 1 25 29
M  V30 29 1 26 30
M  V30 30 1 27 31
M  V30 31 1 28 32
M  V30 32 1 28 33
M  V30 33 1 29 34
M  V30 34 1 31 35
M  V30 35 1 32 36
M  V30 36 1 34 37
M  V30 37 2 35 38
M  V30 38 2 36 39
M  V30 39 1 10 13
M  V30 40 1 16 19
M  V30 41 1 18 20
M  V30 42 1 30 34
M  V30 43 2 31 32
M  V30 44 1 38 39
M  V30 END BOND
M  V30 END CTAB
M  END
>  <Molecule Name>
CTX-1017233

>  <SMILES>
CN1CCN(CC1)C1=CC=C(CNC(=O)C2=NC3=C(CCN(C3)C(=O)C3=C(C)C4=CC=CC=C4O3)C=C2)C=C1

>  <Batch Name>
CTX-1017233-3

>  <Batch Created Date>
2021-11-18

>  <Batch ID>
CTX-1017233-3

>  <External ID>
P841-0235

>  <Stereochemistry>
Achiral

>  <Amount 1>
4.3

>  <Unit 1>
mg

>  <CRO 1>
Pharmaron

>  <CRO 1 Total Amount>
36.5

>  <CRO 1 Unit>
mg

>  <Pharmaron Solubility (PBS, pH 7.4): Aqueous Solubility - Batch Mean (uM)>


>  <Pharmaron Solubility (PBS, pH 7.4): Aqueous Solubility - Batch Mean (uM) Standard Deviation (±)>


>  <Pharmaron Solubility (PBS, pH 7.4): Aqueous Solubility - Batch Mean (uM) Count>


>  <log P>
3.63

>  <log D>
3.0

>  <Pharmaron Caliper Assay (CDK2/CCNE1): Minimum measured (%)>
50.0

>  <Pharmaron Caliper Assay (CDK2/CCNE1): IC50 - Batch Mean (uM)>
2.55

>  <Pharmaron ADPGLO (CDK2/E1-25C): Minimum measured (%)>
49.7

>  <Pharmaron ADPGLO (CDK2/E1-25C): IC50 - Batch Mean (uM)>
6.28

>  <Pharmaron ADPGLO (CDK2/E1-37C): Minimum measured (%)>
107.0

>  <Pharmaron ADPGLO (CDK2/E1-37C): IC50 - Batch Mean (uM)>
100

>  <IncuCyte Kuramochi RB-WT: IC50 - Batch Mean (uM)>
7.72

>  <IncuCyte Kuramochi RB-KO: IC50 - Batch Mean (uM)>
6.47

>  <DSF (npCDK2/CCNE1): dTm D - Batch Mean [Concentration: 100]>


>  <DSF (npCDK2/CCNE1): dTm D - Batch Mean [Concentration: 20.0]>
1.7369999999999999

>  <DSF (pCDK2/CCNE1): dTm D - Batch Mean [Concentration: 100]>


>  <DSF (pCDK2/CCNE1): dTm D - Batch Mean [Concentration: 20.0]>
1.092

>  <RLM: t1/2 - Batch Mean (Min)>


>  <RLM: Cl int - Batch Mean (uL/min/mg protein)>


>  <RLM: ER (Hepatic extraction ratio) - Batch Mean>


>  <HLM: t1/2 - Batch Mean (Min)>


>  <HLM: Cl int - Batch Mean (uL/min/mg protein)>


>  <HLM: ER (Hepatic extraction ratio) - Batch Mean>


>  <MDCK-WT 4% BSA: Papp (A-B) - Batch Mean (10-6, cm/s)>


>  <MDCK-WT 4% BSA: Papp (B-A) - Batch Mean (10-6, cm/s)>


>  <MDCK-WT 4% BSA: Efflux Ratio - Batch Mean>


>  <MDCK-WT 4% BSA: ~Net A_B - Batch Mean (10-6, cm/s)>


>  <pIC50>
5.59346

>  <Selection_1>
Y

>  <Selection_N>


>  <Serie>
Naphthyridine

>  <Selection_T>
N

>  <Train_Vs_Test>


$$$$
