EDEL-CRBN-0009_ent
 OpenBabel09062619273D

 34 38  0  0  0  0  0  0  0  0999 V2000
    0.0078    4.0929    2.6142 O   0  0  0  0  0  0  0  0  0  0  0  0
   -0.4291    4.8994    1.7970 C   0  0  0  0  0  0  0  0  0  0  0  0
   -0.7748    4.6450    0.4643 N   0  0  0  0  0  0  0  0  0  0  0  0
   -0.6159    6.1972    2.2138 N   0  0  0  0  0  0  0  0  0  0  0  0
   -0.6715    3.3317   -0.1153 C   0  0  2  0  0  0  0  0  0  0  0  0
   -1.4611    5.7038   -0.2704 C   0  0  0  0  0  0  0  0  0  0  0  0
   -0.6758    7.3047    1.4165 C   0  0  0  0  0  0  0  0  0  0  0  0
    0.2910    2.4161    0.3420 C   0  0  0  0  0  0  0  0  0  0  0  0
   -1.5308    2.9330   -1.1742 C   0  0  0  0  0  0  0  0  0  0  0  0
   -0.7855    7.0414   -0.0526 C   0  0  0  0  0  0  0  0  0  0  0  0
   -0.5641    8.4372    1.8772 O   0  0  0  0  0  0  0  0  0  0  0  0
    0.3677    1.1696   -0.2545 C   0  0  2  0  0  0  0  0  0  0  0  0
   -1.4511    1.6661   -1.7721 C   0  0  0  0  0  0  0  0  0  0  0  0
   -0.4927    0.7981   -1.3038 C   0  0  2  0  0  0  0  0  0  0  0  0
    1.2632   -0.0105    0.0479 C   0  0  2  0  0  0  0  0  0  0  0  0
   -0.1623   -0.6258   -1.6912 C   0  0  1  0  0  0  0  0  0  0  0  0
    1.2255   -0.6924   -1.2451 N   0  0  0  0  0  0  0  0  0  0  0  0
    0.5687   -0.9710    1.0718 C   0  0  0  0  0  0  0  0  0  0  0  0
   -0.9633   -1.6336   -0.7989 C   0  0  0  0  0  0  0  0  0  0  0  0
    2.0537   -1.7109   -1.6216 C   0  0  0  0  0  0  0  0  0  0  0  0
   -0.8126   -1.3917    0.6738 N   0  0  0  0  0  0  0  0  0  0  0  0
    1.7989   -2.4823   -2.5364 O   0  0  0  0  0  0  0  0  0  0  0  0
    3.1670   -1.7576   -0.8481 O   0  0  0  0  0  0  0  0  0  0  0  0
   -1.2849   -2.5173    1.4857 C   0  0  0  0  0  0  0  0  0  0  0  0
    4.1808   -2.7727   -1.0597 C   0  0  0  0  0  0  0  0  0  0  0  0
   -2.7712   -2.7688    1.3503 C   0  0  0  0  0  0  0  0  0  0  0  0
    5.2509   -2.4783    0.0028 C   0  0  0  0  0  0  0  0  0  0  0  0
    3.6197   -4.1772   -0.8117 C   0  0  0  0  0  0  0  0  0  0  0  0
    4.8198   -2.6447   -2.4465 C   0  0  0  0  0  0  0  0  0  0  0  0
   -3.6944   -1.7678    1.6897 C   0  0  0  0  0  0  0  0  0  0  0  0
   -3.2500   -4.0058    0.8959 C   0  0  0  0  0  0  0  0  0  0  0  0
   -5.0657   -1.9980    1.5742 C   0  0  0  0  0  0  0  0  0  0  0  0
   -4.6227   -4.2344    0.7814 C   0  0  0  0  0  0  0  0  0  0  0  0
   -5.5293   -3.2314    1.1206 C   0  0  0  0  0  0  0  0  0  0  0  0
  1  2  2  0  0  0  0
  2  3  1  0  0  0  0
  2  4  1  0  0  0  0
  3  6  1  0  0  0  0
  4  7  1  0  0  0  0
  5  3  1  6  0  0  0
  5  8  5  0  0  0  0
  5  9  5  0  0  0  0
  6 10  1  0  0  0  0
  7 11  2  0  0  0  0
  7 10  1  0  0  0  0
  9 13  5  0  0  0  0
 12  8  5  1  0  0  0
 12 14  5  0  0  0  0
 12 15  1  0  0  0  0
 14 16  1  0  0  0  0
 14 13  5  1  0  0  0
 15 17  1  0  0  0  0
 15 18  1  1  0  0  0
 16 19  1  1  0  0  0
 16 17  1  0  0  0  0
 17 20  1  0  0  0  0
 18 21  1  0  0  0  0
 19 21  1  0  0  0  0
 20 22  2  0  0  0  0
 20 23  1  0  0  0  0
 21 24  1  0  0  0  0
 23 25  1  0  0  0  0
 24 26  1  0  0  0  0
 25 27  1  0  0  0  0
 25 28  1  0  0  0  0
 25 29  1  0  0  0  0
 26 30  5  0  0  0  0
 26 31  5  0  0  0  0
 30 32  5  0  0  0  0
 31 33  5  0  0  0  0
 32 34  5  0  0  0  0
 33 34  5  0  0  0  0
M  END
>  <ID>
EDEL-CRBN-0009_ent

>  <Stereoisomer>
enantiomer

>  <MW>
462.23

>  <HBD>
1

>  <HBA>
5

>  <RotBonds>
3

>  <cLogP>
3.98

$$$$
