EDEL-CRBN-0001
 OpenBabel09062619273D

 25 27  0  0  0  0  0  0  0  0999 V2000
    5.3605    0.3577   -1.7086 O   0  0  0  0  0  0  0  0  0  0  0  0
    4.9084   -0.2329   -0.7309 C   0  0  0  0  0  0  0  0  0  0  0  0
    3.5880   -0.2085   -0.2699 N   0  0  0  0  0  0  0  0  0  0  0  0
    5.7702   -1.0180   -0.0004 N   0  0  0  0  0  0  0  0  0  0  0  0
    2.5587    0.5418   -0.9357 C   0  0  1  0  0  0  0  0  0  0  0  0
    3.2207   -1.1450    0.7893 C   0  0  0  0  0  0  0  0  0  0  0  0
    5.6073   -1.4132    1.2971 C   0  0  0  0  0  0  0  0  0  0  0  0
    1.2138    0.1373   -0.8847 C   0  0  0  0  0  0  0  0  0  0  0  0
    2.8520    1.7162   -1.6412 C   0  0  0  0  0  0  0  0  0  0  0  0
    4.2590   -1.1508    1.8914 C   0  0  0  0  0  0  0  0  0  0  0  0
    6.5370   -1.8789    1.9500 O   0  0  0  0  0  0  0  0  0  0  0  0
    0.1863    0.8807   -1.4981 C   0  0  1  0  0  0  0  0  0  0  0  0
    1.8461    2.4589   -2.2677 C   0  0  0  0  0  0  0  0  0  0  0  0
    0.5200    2.0431   -2.1988 C   0  0  0  0  0  0  0  0  0  0  0  0
   -1.2535    0.4011   -1.4578 C   0  0  0  0  0  0  0  0  0  0  0  0
   -1.6751   -0.0554   -0.1267 N   0  0  0  0  0  0  0  0  0  0  0  0
   -2.7070   -1.1226   -0.1492 C   0  0  2  0  0  0  0  0  0  0  0  0
   -1.8485    1.0280    0.8411 C   0  0  0  0  0  0  0  0  0  0  0  0
   -3.8497   -0.8837   -1.1515 C   0  0  0  0  0  0  0  0  0  0  0  0
   -3.3012   -1.5676    1.2227 C   0  0  0  0  0  0  0  0  0  0  0  0
   -3.2556    1.5947    1.0503 C   0  0  0  0  0  0  0  0  0  0  0  0
   -4.2086    0.1645   -1.6638 O   0  0  0  0  0  0  0  0  0  0  0  0
   -4.4864   -2.0297   -1.4878 O   0  0  0  0  0  0  0  0  0  0  0  0
   -3.6837   -0.5611    2.2312 N   0  0  0  0  0  0  0  0  0  0  0  0
   -4.2836    0.6312    1.6503 C   0  0  0  0  0  0  0  0  0  0  0  0
  1  2  2  0  0  0  0
  2  3  1  0  0  0  0
  2  4  1  0  0  0  0
  3  6  1  0  0  0  0
  4  7  1  0  0  0  0
  5  3  1  1  0  0  0
  5  8  5  0  0  0  0
  5  9  5  0  0  0  0
  6 10  1  0  0  0  0
  7 11  2  0  0  0  0
  7 10  1  0  0  0  0
  8 12  5  0  0  0  0
  9 13  5  0  0  0  0
 12 14  5  0  0  0  0
 12 15  1  6  0  0  0
 13 14  5  0  0  0  0
 15 16  1  0  0  0  0
 16 17  1  0  0  0  0
 16 18  1  0  0  0  0
 17 19  1  6  0  0  0
 17 20  1  0  0  0  0
 18 21  1  0  0  0  0
 19 22  2  0  0  0  0
 19 23  1  0  0  0  0
 20 24  1  0  0  0  0
 21 25  1  0  0  0  0
 24 25  1  0  0  0  0
M  END
>  <ID>
EDEL-CRBN-0001

>  <Stereoisomer>
original

>  <MW>
346.16

>  <HBD>
3

>  <HBA>
5

>  <RotBonds>
4

>  <cLogP>
0.38

$$$$
