EDEL-CRBN-0007
 OpenBabel09062619273D

 32 36  0  0  0  0  0  0  0  0999 V2000
    1.5868   -3.0914    0.0834 O   0  0  0  0  0  0  0  0  0  0  0  0
    1.1134   -2.1580    0.7268 C   0  0  0  0  0  0  0  0  0  0  0  0
   -0.0511   -2.3529    1.4110 N   0  0  0  0  0  0  0  0  0  0  0  0
    1.7831   -0.8049    0.8793 C   0  0  2  0  0  0  0  0  0  0  0  0
   -0.8364   -1.2905    1.9825 C   0  0  0  0  0  0  0  0  0  0  0  0
    0.9955    0.4543    0.4252 C   0  0  2  0  0  0  0  0  0  0  0  0
    3.1006   -0.7600    0.0935 C   0  0  0  0  0  0  0  0  0  0  0  0
   -1.3806   -0.4163    0.8833 C   0  0  1  0  0  0  0  0  0  0  0  0
   -0.4985    0.3839    0.1211 C   0  0  1  0  0  0  0  0  0  0  0  0
    1.8814    1.0195   -0.7033 C   0  0  0  0  0  0  0  0  0  0  0  0
    3.2339    0.6532   -0.2789 N   0  0  0  0  0  0  0  0  0  0  0  0
   -2.7659   -0.4188    0.5865 C   0  0  2  0  0  0  0  0  0  0  0  0
   -1.0583    1.2031   -0.8730 C   0  0  0  0  0  0  0  0  0  0  0  0
    4.2185    0.8697   -1.3448 C   0  0  0  0  0  0  0  0  0  0  0  0
   -3.5614   -1.3220    1.2594 O   0  0  0  0  0  0  0  0  0  0  0  0
   -3.3225    0.4420   -0.3808 C   0  0  2  0  0  0  0  0  0  0  0  0
   -2.4363    1.2302   -1.1181 C   0  0  0  0  0  0  0  0  0  0  0  0
    5.6394    0.6177   -0.8894 C   0  0  0  0  0  0  0  0  0  0  0  0
   -3.7434   -2.4955    0.4575 C   0  0  0  0  0  0  0  0  0  0  0  0
   -4.7360    0.5773   -0.5954 N   0  0  0  0  0  0  0  0  0  0  0  0
    6.3885   -0.4369   -1.4302 C   0  0  0  0  0  0  0  0  0  0  0  0
    6.2280    1.4365    0.0860 C   0  0  0  0  0  0  0  0  0  0  0  0
   -5.2715    0.7707   -1.8687 C   0  0  0  0  0  0  0  0  0  0  0  0
   -5.6578    0.3884    0.5200 C   0  0  0  0  0  0  0  0  0  0  0  0
    7.6997   -0.6635   -1.0075 C   0  0  0  0  0  0  0  0  0  0  0  0
    7.5388    1.2087    0.5073 C   0  0  0  0  0  0  0  0  0  0  0  0
   -4.6426    0.8072   -2.9233 O   0  0  0  0  0  0  0  0  0  0  0  0
   -6.6365    0.9251   -1.9111 N   0  0  0  0  0  0  0  0  0  0  0  0
   -6.7733    1.4117    0.4658 C   0  0  0  0  0  0  0  0  0  0  0  0
    8.2745    0.1596   -0.0405 C   0  0  0  0  0  0  0  0  0  0  0  0
   -7.4258    1.3590   -0.8827 C   0  0  0  0  0  0  0  0  0  0  0  0
   -8.5708    1.7577   -1.0766 O   0  0  0  0  0  0  0  0  0  0  0  0
  1  2  2  0  0  0  0
  2  3  1  0  0  0  0
  3  5  1  0  0  0  0
  4  2  1  0  0  0  0
  4  6  1  0  0  0  0
  4  7  1  6  0  0  0
  6  9  1  0  0  0  0
  6 10  1  6  0  0  0
  7 11  1  0  0  0  0
  8  5  1  6  0  0  0
  8 12  5  0  0  0  0
  8  9  5  0  0  0  0
  9 13  5  1  0  0  0
 10 11  1  0  0  0  0
 11 14  1  0  0  0  0
 12 15  1  6  0  0  0
 12 16  5  0  0  0  0
 13 17  5  0  0  0  0
 14 18  1  0  0  0  0
 15 19  1  0  0  0  0
 16 20  1  1  0  0  0
 16 17  5  0  0  0  0
 18 21  5  0  0  0  0
 18 22  5  0  0  0  0
 20 23  1  0  0  0  0
 20 24  1  0  0  0  0
 21 25  5  0  0  0  0
 22 26  5  0  0  0  0
 23 27  2  0  0  0  0
 23 28  1  0  0  0  0
 24 29  1  0  0  0  0
 25 30  5  0  0  0  0
 26 30  5  0  0  0  0
 28 31  1  0  0  0  0
 29 31  1  0  0  0  0
 31 32  2  0  0  0  0
M  END
>  <ID>
EDEL-CRBN-0007

>  <Stereoisomer>
original

>  <MW>
434.2

>  <HBD>
2

>  <HBA>
5

>  <RotBonds>
4

>  <cLogP>
1.99

$$$$
