EDEL-CRBN-0009
 OpenBabel09062619273D

 34 38  0  0  0  0  0  0  0  0999 V2000
    0.8744    4.6171   -1.1890 O   0  0  0  0  0  0  0  0  0  0  0  0
   -0.2614    4.9505   -0.8608 C   0  0  0  0  0  0  0  0  0  0  0  0
   -1.1440    4.2378   -0.0404 N   0  0  0  0  0  0  0  0  0  0  0  0
   -0.7388    6.1518   -1.3313 N   0  0  0  0  0  0  0  0  0  0  0  0
   -0.7868    2.9784    0.5570 C   0  0  2  0  0  0  0  0  0  0  0  0
   -2.3730    4.9088    0.3737 C   0  0  0  0  0  0  0  0  0  0  0  0
   -2.0519    6.5031   -1.4655 C   0  0  0  0  0  0  0  0  0  0  0  0
    0.1292    2.1172   -0.0698 C   0  0  0  0  0  0  0  0  0  0  0  0
   -1.3697    2.5611    1.7824 C   0  0  0  0  0  0  0  0  0  0  0  0
   -3.0383    5.5943   -0.8014 C   0  0  0  0  0  0  0  0  0  0  0  0
   -2.3964    7.4573   -2.1570 O   0  0  0  0  0  0  0  0  0  0  0  0
    0.4285    0.9034    0.5262 C   0  0  1  0  0  0  0  0  0  0  0  0
   -1.0674    1.3268    2.3761 C   0  0  0  0  0  0  0  0  0  0  0  0
   -0.1663    0.5099    1.7326 C   0  0  1  0  0  0  0  0  0  0  0  0
    1.3288   -0.2199    0.0646 C   0  0  1  0  0  0  0  0  0  0  0  0
    0.3372   -0.8745    2.0687 C   0  0  2  0  0  0  0  0  0  0  0  0
    1.6022   -0.8712    1.3449 N   0  0  0  0  0  0  0  0  0  0  0  0
    0.4878   -1.2118   -0.8062 C   0  0  0  0  0  0  0  0  0  0  0  0
   -0.5971   -1.9310    1.3864 C   0  0  0  0  0  0  0  0  0  0  0  0
    2.5185   -1.8697    1.5258 C   0  0  0  0  0  0  0  0  0  0  0  0
   -0.3038   -2.2052   -0.0420 N   0  0  0  0  0  0  0  0  0  0  0  0
    2.5023   -2.6325    2.4832 O   0  0  0  0  0  0  0  0  0  0  0  0
    3.4303   -1.8953    0.5210 O   0  0  0  0  0  0  0  0  0  0  0  0
   -1.3094   -2.9516   -0.7842 C   0  0  0  0  0  0  0  0  0  0  0  0
    4.4781   -2.8963    0.4922 C   0  0  0  0  0  0  0  0  0  0  0  0
   -2.5693   -2.1874   -1.1329 C   0  0  0  0  0  0  0  0  0  0  0  0
    5.2705   -2.5900   -0.7881 C   0  0  0  0  0  0  0  0  0  0  0  0
    5.4182   -2.7574    1.6942 C   0  0  0  0  0  0  0  0  0  0  0  0
    3.8938   -4.3087    0.3782 C   0  0  0  0  0  0  0  0  0  0  0  0
   -3.6765   -2.2001   -0.2710 C   0  0  0  0  0  0  0  0  0  0  0  0
   -2.6617   -1.4629   -2.3308 C   0  0  0  0  0  0  0  0  0  0  0  0
   -4.8387   -1.4956   -0.5915 C   0  0  0  0  0  0  0  0  0  0  0  0
   -3.8238   -0.7581   -2.6508 C   0  0  0  0  0  0  0  0  0  0  0  0
   -4.9111   -0.7733   -1.7803 C   0  0  0  0  0  0  0  0  0  0  0  0
  1  2  2  0  0  0  0
  2  3  1  0  0  0  0
  2  4  1  0  0  0  0
  3  6  1  0  0  0  0
  4  7  1  0  0  0  0
  5  3  1  6  0  0  0
  5  8  5  0  0  0  0
  5  9  5  0  0  0  0
  6 10  1  0  0  0  0
  7 11  2  0  0  0  0
  7 10  1  0  0  0  0
  9 13  5  0  0  0  0
 12  8  5  6  0  0  0
 12 14  5  0  0  0  0
 12 15  1  0  0  0  0
 14 16  1  0  0  0  0
 14 13  5  6  0  0  0
 15 17  1  0  0  0  0
 15 18  1  6  0  0  0
 16 19  1  6  0  0  0
 16 17  1  0  0  0  0
 17 20  1  0  0  0  0
 18 21  1  0  0  0  0
 19 21  1  0  0  0  0
 20 22  2  0  0  0  0
 20 23  1  0  0  0  0
 21 24  1  0  0  0  0
 23 25  1  0  0  0  0
 24 26  1  0  0  0  0
 25 27  1  0  0  0  0
 25 28  1  0  0  0  0
 25 29  1  0  0  0  0
 26 30  5  0  0  0  0
 26 31  5  0  0  0  0
 30 32  5  0  0  0  0
 31 33  5  0  0  0  0
 32 34  5  0  0  0  0
 33 34  5  0  0  0  0
M  END
>  <ID>
EDEL-CRBN-0009

>  <Stereoisomer>
original

>  <MW>
462.23

>  <HBD>
1

>  <HBA>
5

>  <RotBonds>
3

>  <cLogP>
3.98

$$$$
