EDEL-CRBN-0014
 OpenBabel09062619273D

 36 40  0  0  0  0  0  0  0  0999 V2000
   -5.0233   -2.8162   -1.8617 O   0  0  0  0  0  0  0  0  0  0  0  0
   -4.9653   -2.8354   -0.6348 C   0  0  0  0  0  0  0  0  0  0  0  0
   -3.9427   -2.3083    0.1529 N   0  0  0  0  0  0  0  0  0  0  0  0
   -5.9879   -3.4363    0.0602 N   0  0  0  0  0  0  0  0  0  0  0  0
   -2.8195   -1.6228   -0.4239 C   0  0  2  0  0  0  0  0  0  0  0  0
   -3.9548   -2.5934    1.5836 C   0  0  0  0  0  0  0  0  0  0  0  0
   -6.3264   -3.1947    1.3624 C   0  0  0  0  0  0  0  0  0  0  0  0
   -1.5116   -1.7356    0.0970 C   0  0  1  0  0  0  0  0  0  0  0  0
   -3.0317   -0.7569   -1.5283 C   0  0  0  0  0  0  0  0  0  0  0  0
   -5.3425   -2.3886    2.1551 C   0  0  0  0  0  0  0  0  0  0  0  0
   -7.4088   -3.5500    1.8209 O   0  0  0  0  0  0  0  0  0  0  0  0
   -1.1788   -2.6051    1.1012 O   0  0  0  0  0  0  0  0  0  0  0  0
   -0.5071   -0.9502   -0.4386 C   0  0  1  0  0  0  0  0  0  0  0  0
   -2.0038    0.0183   -2.0834 C   0  0  0  0  0  0  0  0  0  0  0  0
   -0.8717   -3.8870    0.5430 C   0  0  0  0  0  0  0  0  0  0  0  0
   -0.7516   -0.0823   -1.5212 C   0  0  1  0  0  0  0  0  0  0  0  0
    0.9419   -0.7942   -0.0432 C   0  0  1  0  0  0  0  0  0  0  0  0
    0.5374    0.6444   -1.8325 C   0  0  2  0  0  0  0  0  0  0  0  0
    1.5013   -0.3165   -1.3069 N   0  0  0  0  0  0  0  0  0  0  0  0
    1.0973    0.3809    0.9797 C   0  0  0  0  0  0  0  0  0  0  0  0
    0.6627    1.9287   -0.9439 C   0  0  0  0  0  0  0  0  0  0  0  0
    2.8338   -0.2288   -1.5938 C   0  0  0  0  0  0  0  0  0  0  0  0
    0.4839    1.6693    0.5242 N   0  0  0  0  0  0  0  0  0  0  0  0
    3.2857    0.4762   -2.4855 O   0  0  0  0  0  0  0  0  0  0  0  0
    3.5726   -1.0042   -0.7611 O   0  0  0  0  0  0  0  0  0  0  0  0
    0.9250    2.7948    1.3545 C   0  0  0  0  0  0  0  0  0  0  0  0
    5.0176   -1.0536   -0.8745 C   0  0  0  0  0  0  0  0  0  0  0  0
    0.1050    4.0497    1.1453 C   0  0  0  0  0  0  0  0  0  0  0  0
    5.4589   -2.0277    0.2287 C   0  0  0  0  0  0  0  0  0  0  0  0
    5.6434    0.3172   -0.5946 C   0  0  0  0  0  0  0  0  0  0  0  0
    5.4534   -1.6196   -2.2301 C   0  0  0  0  0  0  0  0  0  0  0  0
   -1.2803    4.0395    1.3690 C   0  0  0  0  0  0  0  0  0  0  0  0
    0.7162    5.2440    0.7382 C   0  0  0  0  0  0  0  0  0  0  0  0
   -2.0380    5.1967    1.1848 C   0  0  0  0  0  0  0  0  0  0  0  0
   -0.0434    6.4012    0.5551 C   0  0  0  0  0  0  0  0  0  0  0  0
   -1.4191    6.3772    0.7785 C   0  0  0  0  0  0  0  0  0  0  0  0
  1  2  2  0  0  0  0
  2  3  1  0  0  0  0
  2  4  1  0  0  0  0
  3  6  1  0  0  0  0
  4  7  1  0  0  0  0
  5  3  1  1  0  0  0
  5  8  5  0  0  0  0
  5  9  5  0  0  0  0
  6 10  1  0  0  0  0
  7 11  2  0  0  0  0
  7 10  1  0  0  0  0
  8 12  1  6  0  0  0
  8 13  5  0  0  0  0
  9 14  5  0  0  0  0
 12 15  1  0  0  0  0
 13 16  5  0  0  0  0
 13 17  1  0  0  0  0
 14 16  5  0  0  0  0
 16 18  1  0  0  0  0
 17 19  1  0  0  0  0
 17 20  1  0  0  0  0
 18 21  1  0  0  0  0
 18 19  1  0  0  0  0
 19 22  1  0  0  0  0
 20 23  1  0  0  0  0
 21 23  1  0  0  0  0
 22 24  2  0  0  0  0
 22 25  1  0  0  0  0
 23 26  1  0  0  0  0
 25 27  1  0  0  0  0
 26 28  1  0  0  0  0
 27 29  1  0  0  0  0
 27 30  1  0  0  0  0
 27 31  1  0  0  0  0
 28 32  5  0  0  0  0
 28 33  5  0  0  0  0
 32 34  5  0  0  0  0
 33 35  5  0  0  0  0
 34 36  5  0  0  0  0
 35 36  5  0  0  0  0
M  END
>  <ID>
EDEL-CRBN-0014

>  <Stereoisomer>
original

>  <MW>
492.24

>  <HBD>
1

>  <HBA>
6

>  <RotBonds>
4

>  <cLogP>
3.99

$$$$
