EDEL-CRBN-0004
 OpenBabel09062619273D

 29 31  0  0  0  0  0  0  0  0999 V2000
    1.8597    2.6328    0.9888 O   0  0  0  0  0  0  0  0  0  0  0  0
    2.8214    2.2867    0.3084 C   0  0  0  0  0  0  0  0  0  0  0  0
    3.0820    1.0074   -0.1709 N   0  0  0  0  0  0  0  0  0  0  0  0
    3.8159    3.2026    0.0480 N   0  0  0  0  0  0  0  0  0  0  0  0
    2.1322   -0.0515   -0.0390 C   0  0  2  0  0  0  0  0  0  0  0  0
    4.2724    0.7876   -0.9769 C   0  0  0  0  0  0  0  0  0  0  0  0
    5.1438    2.8834   -0.0460 C   0  0  0  0  0  0  0  0  0  0  0  0
    0.7904    0.1225   -0.4481 C   0  0  1  0  0  0  0  0  0  0  0  0
    2.5275   -1.2862    0.5246 C   0  0  1  0  0  0  0  0  0  0  0  0
    5.4663    1.4381   -0.3156 C   0  0  0  0  0  0  0  0  0  0  0  0
    6.0190    3.7219    0.1573 O   0  0  0  0  0  0  0  0  0  0  0  0
    0.4029    1.2857   -1.0735 O   0  0  0  0  0  0  0  0  0  0  0  0
   -0.1698   -0.8807   -0.2361 C   0  0  2  0  0  0  0  0  0  0  0  0
    3.8386   -1.3960    0.9254 O   0  0  0  0  0  0  0  0  0  0  0  0
    1.5844   -2.3072    0.6757 C   0  0  0  0  0  0  0  0  0  0  0  0
    0.6091    1.1865   -2.4820 C   0  0  0  0  0  0  0  0  0  0  0  0
    0.2521   -2.1008    0.3114 C   0  0  0  0  0  0  0  0  0  0  0  0
   -1.6354   -0.6959   -0.5896 C   0  0  0  0  0  0  0  0  0  0  0  0
    4.1692   -2.4862    1.7767 C   0  0  0  0  0  0  0  0  0  0  0  0
   -2.5116   -0.8726    0.5847 N   0  0  0  0  0  0  0  0  0  0  0  0
   -3.8943   -1.2938    0.2402 C   0  0  2  0  0  0  0  0  0  0  0  0
   -2.4511    0.3039    1.4767 C   0  0  0  0  0  0  0  0  0  0  0  0
   -3.9293   -2.7345   -0.3011 C   0  0  0  0  0  0  0  0  0  0  0  0
   -4.6951   -0.3542   -0.7072 C   0  0  0  0  0  0  0  0  0  0  0  0
   -3.7457    1.0903    1.7231 C   0  0  0  0  0  0  0  0  0  0  0  0
   -3.0053   -3.5193   -0.4493 O   0  0  0  0  0  0  0  0  0  0  0  0
   -5.1870   -3.1490   -0.5859 O   0  0  0  0  0  0  0  0  0  0  0  0
   -4.2854    1.0535   -0.7719 N   0  0  0  0  0  0  0  0  0  0  0  0
   -4.3270    1.7815    0.4900 C   0  0  0  0  0  0  0  0  0  0  0  0
  1  2  2  0  0  0  0
  2  3  1  0  0  0  0
  2  4  1  0  0  0  0
  3  6  1  0  0  0  0
  4  7  1  0  0  0  0
  5  3  1  1  0  0  0
  5  8  5  0  0  0  0
  5  9  5  0  0  0  0
  6 10  1  0  0  0  0
  7 11  2  0  0  0  0
  7 10  1  0  0  0  0
  8 12  1  6  0  0  0
  8 13  5  0  0  0  0
  9 14  1  1  0  0  0
  9 15  5  0  0  0  0
 12 16  1  0  0  0  0
 13 17  5  0  0  0  0
 13 18  1  6  0  0  0
 14 19  1  0  0  0  0
 15 17  5  0  0  0  0
 18 20  1  0  0  0  0
 20 21  1  0  0  0  0
 20 22  1  0  0  0  0
 21 23  1  6  0  0  0
 21 24  1  0  0  0  0
 22 25  1  0  0  0  0
 23 26  2  0  0  0  0
 23 27  1  0  0  0  0
 24 28  1  0  0  0  0
 25 29  1  0  0  0  0
 28 29  1  0  0  0  0
M  END
>  <ID>
EDEL-CRBN-0004

>  <Stereoisomer>
original

>  <MW>
406.19

>  <HBD>
3

>  <HBA>
7

>  <RotBonds>
6

>  <cLogP>
0.4

$$$$
