Compound 10
     RDKit          3D

 65 68  0  0  0  0  0  0  0  0999 V2000
   10.8838 -106.4548   25.9664 C   0  0  0  0  0  0  0  0  0  0  0  0
   11.0189 -106.5290   23.4400 S   0  0  0  0  0  6  0  0  0  0  0  0
    9.7779 -107.1841   22.8171 O   0  0  0  0  0  0  0  0  0  0  0  0
    9.8736 -107.0527   24.3074 O   0  0  0  0  0  0  0  0  0  0  0  0
   11.6632 -106.1357   24.7123 N   0  0  0  0  0  0  0  0  0  0  0  0
   11.4785 -106.3786   22.0299 C   0  0  0  0  0  0  0  0  0  0  0  0
   12.9563 -105.4798   24.8874 C   0  0  0  0  0  0  0  0  0  0  0  0
   12.7355 -105.7779   21.5414 C   0  0  0  0  0  0  0  0  0  0  0  0
   13.9142 -105.0605   23.8298 C   0  0  0  0  0  0  0  0  0  0  0  0
   13.8185 -105.1920   22.3394 N   0  0  0  0  0  0  0  0  0  0  0  0
   14.9537 -104.6692   21.5476 C   0  0  0  0  0  0  0  0  0  0  0  0
   16.0984 -104.0578   22.2491 O   0  0  0  0  0  0  0  0  0  0  0  0
   14.9242 -104.7685   20.0403 C   0  0  0  0  0  0  0  0  0  0  0  0
   14.8710 -103.5353   19.2249 O   0  0  0  0  0  0  0  0  0  0  0  0
   13.5356 -102.9022   18.9106 C   0  0  0  0  0  0  0  0  0  0  0  0
   12.3821 -103.1404   19.8059 C   0  0  0  0  0  0  0  0  0  0  0  0
   13.3580 -102.0131   17.6726 C   0  0  0  0  0  0  0  0  0  0  0  0
   11.0467 -102.5073   19.4916 C   0  0  0  0  0  0  0  0  0  0  0  0
   12.0226 -101.3799   17.3582 C   0  0  0  0  0  0  0  0  0  0  0  0
   10.8692 -101.6182   18.2536 C   0  0  0  0  0  0  0  0  0  0  0  0
   10.7376 -105.4255   27.0268 C   0  0  0  0  0  0  0  0  0  0  0  0
   11.8516 -105.2114   28.0243 C   0  0  0  0  0  0  0  0  0  0  0  0
    9.5030 -104.6313   27.0834 C   0  0  0  0  0  0  0  0  0  0  0  0
   11.7055 -104.1821   29.0847 C   0  0  0  0  0  0  0  0  0  0  0  0
    9.3569 -103.6020   28.1438 C   0  0  0  0  0  0  0  0  0  0  0  0
   10.4709 -103.3879   29.1413 C   0  0  0  0  0  0  0  0  0  0  0  0
   12.8195 -103.9681   30.0822 C   0  0  0  0  0  0  0  0  0  0  0  0
   14.0240 -104.8358   30.0413 O   0  0  0  0  0  0  0  0  0  0  0  0
   12.7214 -102.8607   31.1412 N   0  0  0  0  0  0  0  0  0  0  0  0
   11.9239 -102.2841   31.1705 H   0  0  0  0  0  0  0  0  0  0  0  0
   13.8354 -102.6466   32.1387 C   0  0  0  0  0  0  0  0  0  0  0  0
   15.2191 -102.1669   31.6777 C   0  0  0  0  0  0  0  0  0  0  0  0
   13.5937 -102.9018   33.5817 C   0  0  0  0  0  0  0  0  0  0  0  0
   15.5166 -101.8907   30.2032 O   0  0  0  0  0  0  0  0  0  0  0  0
   16.3331 -101.9528   32.6750 N   0  0  0  0  0  0  0  0  0  0  0  0
   14.7077 -102.6877   34.5790 C   0  0  0  0  0  0  0  0  0  0  0  0
   16.0914 -102.2080   34.1180 C   0  0  0  0  0  0  0  0  0  0  0  0
   17.2055 -101.9939   35.1154 O   0  0  0  0  0  0  0  0  0  0  0  0
   17.2169 -101.6450   32.3694 H   0  0  0  0  0  0  0  0  0  0  0  0
    9.8676 -106.7308   25.6482 H   0  0  0  0  0  0  0  0  0  0  0  0
   11.4887 -107.2355   26.4507 H   0  0  0  0  0  0  0  0  0  0  0  0
   11.4856 -107.4029   21.6290 H   0  0  0  0  0  0  0  0  0  0  0  0
   10.7831 -105.5875   21.7128 H   0  0  0  0  0  0  0  0  0  0  0  0
   12.7293 -104.5569   25.4412 H   0  0  0  0  0  0  0  0  0  0  0  0
   13.5216 -106.3280   25.3009 H   0  0  0  0  0  0  0  0  0  0  0  0
   13.2181 -106.5749   20.9566 H   0  0  0  0  0  0  0  0  0  0  0  0
   12.3249 -104.8539   21.1083 H   0  0  0  0  0  0  0  0  0  0  0  0
   14.0439 -103.9810   23.9969 H   0  0  0  0  0  0  0  0  0  0  0  0
   14.6689 -105.8430   23.9975 H   0  0  0  0  0  0  0  0  0  0  0  0
   15.8322 -105.3113   19.7387 H   0  0  0  0  0  0  0  0  0  0  0  0
   13.9583 -105.2531   19.8347 H   0  0  0  0  0  0  0  0  0  0  0  0
   12.4962 -103.7757   20.6966 H   0  0  0  0  0  0  0  0  0  0  0  0
   14.2140 -101.8344   17.0053 H   0  0  0  0  0  0  0  0  0  0  0  0
   10.1907 -102.6860   20.1589 H   0  0  0  0  0  0  0  0  0  0  0  0
   11.9085 -100.7446   16.4675 H   0  0  0  0  0  0  0  0  0  0  0  0
    9.8927 -101.1619   18.0337 H   0  0  0  0  0  0  0  0  0  0  0  0
   12.7685 -105.8163   27.9654 H   0  0  0  0  0  0  0  0  0  0  0  0
    8.6988 -104.7966   26.3513 H   0  0  0  0  0  0  0  0  0  0  0  0
    8.4400 -102.9971   28.2027 H   0  0  0  0  0  0  0  0  0  0  0  0
   10.3556 -102.6237   29.9240 H   0  0  0  0  0  0  0  0  0  0  0  0
   14.1538 -103.6913   32.0073 H   0  0  0  0  0  0  0  0  0  0  0  0
   12.7636 -102.2474   33.8862 H   0  0  0  0  0  0  0  0  0  0  0  0
   13.4197 -103.9872   33.6230 H   0  0  0  0  0  0  0  0  0  0  0  0
   14.3426 -101.9443   35.3029 H   0  0  0  0  0  0  0  0  0  0  0  0
   14.9100 -103.7059   34.9427 H   0  0  0  0  0  0  0  0  0  0  0  0
  2  3  2  0
  2  4  2  0
  2  5  1  0
  2  6  1  0
  5  7  1  0
  5  1  1  0
  6  8  1  0
  7  9  1  0
  1 21  1  0
  8 10  1  0
 21 22  2  0
 21 23  1  0
 10 11  1  0
 22 24  1  0
 23 25  2  0
 11 12  2  0
 11 13  1  0
 24 27  1  0
 24 26  2  0
 13 14  1  0
 27 28  2  0
 27 29  1  0
 14 15  1  0
 31 29  1  0
 15 16  2  0
 15 17  1  0
 31 32  1  0
 31 33  1  0
 16 18  1  0
 17 19  2  0
 32 34  2  0
 32 35  1  0
 33 36  1  0
 18 20  2  0
 35 37  1  0
 37 38  2  0
  9 10  1  0
 25 26  1  0
 19 20  1  0
 36 37  1  0
 29 30  1  0
 35 39  1  0
  1 40  1  0
  1 41  1  0
  6 42  1  0
  6 43  1  0
  7 44  1  0
  7 45  1  0
  8 46  1  0
  8 47  1  0
  9 48  1  0
  9 49  1  0
 13 50  1  0
 13 51  1  0
 16 52  1  0
 17 53  1  0
 18 54  1  0
 19 55  1  0
 20 56  1  0
 22 57  1  0
 23 58  1  0
 25 59  1  0
 26 60  1  0
 31 61  1  0
 33 62  1  0
 33 63  1  0
 36 64  1  0
 36 65  1  0
M  END
>  <Molecule Name>  (1) 
Compound 10

>  <EC50 (µM) (Excel)>  (1) 
14.3

>  <Error (µM)>  (1) 
1.3

>  <HTRC CRBN-DDB1 EC50 (µM)>  (1) 
14.29 ±  1.32

>  <EC50 fitting (µM)>  (1) 
23.96

>  <Modèle Fitting>  (1) 
3PL
$$$$

>  <minimizedAffinity>  (1) 
-11.68664

>  <CNNscore>  (1) 
0.8442083597

>  <CNNaffinity>  (1) 
7.5354514122

>  <CNN_VS>  (1) 
6.3614912033

>  <CNNaffinity_variance>  (1) 
0.2709708512

$$$$
