Compound 12
     RDKit          3D

 68 71  0  0  0  0  0  0  0  0999 V2000
   11.0050 -106.8148   23.5313 S   0  0  0  0  0  6  0  0  0  0  0  0
    9.7868 -107.5429   22.9342 O   0  0  0  0  0  0  0  0  0  0  0  0
    9.8396 -107.2792   24.4134 O   0  0  0  0  0  0  0  0  0  0  0  0
   11.6104 -106.3003   24.7843 N   0  0  0  0  0  0  0  0  0  0  0  0
   11.5028 -106.7814   22.1221 C   0  0  0  0  0  0  0  0  0  0  0  0
   12.8934 -105.6099   24.9354 C   0  0  0  0  0  0  0  0  0  0  0  0
   12.7687 -106.2051   21.6145 C   0  0  0  0  0  0  0  0  0  0  0  0
   13.8774 -105.2695   23.8676 C   0  0  0  0  0  0  0  0  0  0  0  0
   13.8245 -105.5331   22.3884 N   0  0  0  0  0  0  0  0  0  0  0  0
   14.9775 -105.0632   21.5817 C   0  0  0  0  0  0  0  0  0  0  0  0
   14.9911 -105.2953   20.0845 O   0  0  0  0  0  0  0  0  0  0  0  0
   10.7985 -106.5208   26.0441 C   0  0  0  0  0  0  0  0  0  0  0  0
   10.6953 -105.4349   27.0579 C   0  0  0  0  0  0  0  0  0  0  0  0
   11.8263 -105.2122   28.0409 C   0  0  0  0  0  0  0  0  0  0  0  0
    9.4859 -104.5939   27.0835 C   0  0  0  0  0  0  0  0  0  0  0  0
   11.7231 -104.1262   29.0548 C   0  0  0  0  0  0  0  0  0  0  0  0
    9.3827 -103.5079   28.0974 C   0  0  0  0  0  0  0  0  0  0  0  0
   10.5137 -103.2852   29.0803 C   0  0  0  0  0  0  0  0  0  0  0  0
   12.8541 -103.9036   30.0377 C   0  0  0  0  0  0  0  0  0  0  0  0
   14.1246 -104.6664   29.8895 O   0  0  0  0  0  0  0  0  0  0  0  0
   12.7058 -102.8951   31.1916 N   0  0  0  0  0  0  0  0  0  0  0  0
   11.8670 -102.3895   31.2918 H   0  0  0  0  0  0  0  0  0  0  0  0
   13.8370 -102.6725   32.1744 C   0  0  0  0  0  0  0  0  0  0  0  0
   15.2076 -102.1622   31.6931 C   0  0  0  0  0  0  0  0  0  0  0  0
   13.6249 -102.9490   33.6223 C   0  0  0  0  0  0  0  0  0  0  0  0
   15.4748 -101.8632   30.2128 O   0  0  0  0  0  0  0  0  0  0  0  0
   16.3387 -101.9396   32.6759 N   0  0  0  0  0  0  0  0  0  0  0  0
   14.7560 -102.7264   34.6052 C   0  0  0  0  0  0  0  0  0  0  0  0
   16.1267 -102.2162   34.1239 C   0  0  0  0  0  0  0  0  0  0  0  0
   17.2578 -101.9936   35.1066 O   0  0  0  0  0  0  0  0  0  0  0  0
   17.2115 -101.6131   32.3583 H   0  0  0  0  0  0  0  0  0  0  0  0
   16.0977 -104.3734   22.2586 C   0  0  0  0  0  0  0  0  0  0  0  0
   16.4728 -103.0052   21.8241 C   0  0  0  0  0  0  0  0  0  0  0  0
   15.4121 -101.9895   21.6447 O   0  0  0  0  0  0  0  0  0  0  0  0
   14.5110 -102.0849   20.4698 C   0  0  0  0  0  0  0  0  0  0  0  0
   13.0538 -102.2180   20.6878 C   0  0  0  0  0  0  0  0  0  0  0  0
   15.0934 -102.0447   19.0715 C   0  0  0  0  0  0  0  0  0  0  0  0
   12.1528 -102.3133   19.5129 C   0  0  0  0  0  0  0  0  0  0  0  0
   14.1923 -102.1400   17.8966 C   0  0  0  0  0  0  0  0  0  0  0  0
   12.7350 -102.2731   18.1146 C   0  0  0  0  0  0  0  0  0  0  0  0
   11.5341 -107.8367   21.8131 H   0  0  0  0  0  0  0  0  0  0  0  0
   10.8063 -106.0317   21.7185 H   0  0  0  0  0  0  0  0  0  0  0  0
   12.6393 -104.6455   25.3996 H   0  0  0  0  0  0  0  0  0  0  0  0
   13.4579 -106.4098   25.4368 H   0  0  0  0  0  0  0  0  0  0  0  0
   13.2775 -107.0428   21.1152 H   0  0  0  0  0  0  0  0  0  0  0  0
   12.3584 -105.3290   21.0909 H   0  0  0  0  0  0  0  0  0  0  0  0
   13.9887 -104.1777   23.9425 H   0  0  0  0  0  0  0  0  0  0  0  0
   14.6370 -106.0229   24.1233 H   0  0  0  0  0  0  0  0  0  0  0  0
    9.7727 -106.7567   25.7246 H   0  0  0  0  0  0  0  0  0  0  0  0
   11.3551 -107.3096   26.5713 H   0  0  0  0  0  0  0  0  0  0  0  0
   12.7212 -105.8508   28.0059 H   0  0  0  0  0  0  0  0  0  0  0  0
    8.6713 -104.7655   26.3645 H   0  0  0  0  0  0  0  0  0  0  0  0
    8.4877 -102.8693   28.1325 H   0  0  0  0  0  0  0  0  0  0  0  0
   10.4305 -102.4812   29.8264 H   0  0  0  0  0  0  0  0  0  0  0  0
   14.1708 -103.7099   32.0251 H   0  0  0  0  0  0  0  0  0  0  0  0
   12.7893 -102.3126   33.9490 H   0  0  0  0  0  0  0  0  0  0  0  0
   13.4703 -104.0376   33.6539 H   0  0  0  0  0  0  0  0  0  0  0  0
   14.3913 -101.9977   35.3441 H   0  0  0  0  0  0  0  0  0  0  0  0
   14.9821 -103.7450   34.9536 H   0  0  0  0  0  0  0  0  0  0  0  0
   15.8396 -104.3123   23.3262 H   0  0  0  0  0  0  0  0  0  0  0  0
   16.9762 -104.9814   21.9969 H   0  0  0  0  0  0  0  0  0  0  0  0
   17.1728 -102.6100   22.5750 H   0  0  0  0  0  0  0  0  0  0  0  0
   16.8692 -103.1523   20.8086 H   0  0  0  0  0  0  0  0  0  0  0  0
   12.6435 -102.2460   21.7080 H   0  0  0  0  0  0  0  0  0  0  0  0
   16.1795 -101.9453   18.9281 H   0  0  0  0  0  0  0  0  0  0  0  0
   11.0667 -102.4127   19.6564 H   0  0  0  0  0  0  0  0  0  0  0  0
   14.6026 -102.1120   16.8764 H   0  0  0  0  0  0  0  0  0  0  0  0
   12.0628 -102.3441   17.2468 H   0  0  0  0  0  0  0  0  0  0  0  0
  1  2  2  0
  1  3  2  0
  1  4  1  0
  1  5  1  0
  4  6  1  0
  4 12  1  0
  5  7  1  0
  6  8  1  0
 12 13  1  0
  7  9  1  0
 13 14  2  0
 13 15  1  0
  9 10  1  0
 14 16  1  0
 15 17  2  0
 10 11  2  0
 10 32  1  0
 16 19  1  0
 16 18  2  0
 32 33  1  0
 19 20  2  0
 19 21  1  0
 33 34  1  0
 23 21  1  0
 34 35  1  0
 23 24  1  0
 23 25  1  0
 35 36  2  0
 35 37  1  0
 24 26  2  0
 24 27  1  0
 25 28  1  0
 36 38  1  0
 37 39  2  0
 27 29  1  0
 38 40  2  0
 29 30  2  0
  8  9  1  0
 17 18  1  0
 28 29  1  0
 39 40  1  0
 21 22  1  0
 27 31  1  0
  5 41  1  0
  5 42  1  0
  6 43  1  0
  6 44  1  0
  7 45  1  0
  7 46  1  0
  8 47  1  0
  8 48  1  0
 12 49  1  0
 12 50  1  0
 14 51  1  0
 15 52  1  0
 17 53  1  0
 18 54  1  0
 23 55  1  0
 25 56  1  0
 25 57  1  0
 28 58  1  0
 28 59  1  0
 32 60  1  0
 32 61  1  0
 33 62  1  0
 33 63  1  0
 36 64  1  0
 37 65  1  0
 38 66  1  0
 39 67  1  0
 40 68  1  0
M  END
>  <Molecule Name>  (1) 
Compound 12

>  <EC50 (µM) (Excel)>  (1) 
61.9

>  <Error (µM)>  (1) 
8.1

>  <HTRC CRBN-DDB1 EC50 (µM)>  (1) 
61.88 ±  8.05

>  <EC50 fitting (µM)>  (1) 
111.51

>  <Modèle Fitting>  (1) 
4PL
$$$$

>  <minimizedAffinity>  (1) 
-11.65953

>  <CNNscore>  (1) 
0.8278220892

>  <CNNaffinity>  (1) 
7.6643605232

>  <CNN_VS>  (1) 
6.3447270393

>  <CNNaffinity_variance>  (1) 
0.2980028093

$$$$
