Compound 8
     RDKit          3D

 49 51  0  0  0  0  0  0  0  0999 V2000
   10.8611 -105.3832   27.2775 C   0  0  0  0  0  0  0  0  0  0  0  0
   11.9738 -105.1853   28.2364 C   0  0  0  0  0  0  0  0  0  0  0  0
    9.6291 -104.5130   27.2889 C   0  0  0  0  0  0  0  0  0  0  0  0
   11.8580 -104.0942   29.2317 C   0  0  0  0  0  0  0  0  0  0  0  0
    9.5134 -103.4219   28.2843 C   0  0  0  0  0  0  0  0  0  0  0  0
   10.6261 -103.2239   29.2433 C   0  0  0  0  0  0  0  0  0  0  0  0
   12.9708 -103.8962   30.1907 C   0  0  0  0  0  0  0  0  0  0  0  0
   14.1688 -104.7585   30.0651 O   0  0  0  0  0  0  0  0  0  0  0  0
   12.8557 -102.8197   31.2729 N   0  0  0  0  0  0  0  0  0  0  0  0
   12.0467 -102.2618   31.3316 H   0  0  0  0  0  0  0  0  0  0  0  0
   13.9684 -102.6216   32.2320 C   0  0  0  0  0  0  0  0  0  0  0  0
   15.3321 -102.1479   31.7230 C   0  0  0  0  0  0  0  0  0  0  0  0
   13.7165 -102.8930   33.6664 C   0  0  0  0  0  0  0  0  0  0  0  0
   15.5824 -101.8678   30.2213 O   0  0  0  0  0  0  0  0  0  0  0  0
   16.4447 -101.9498   32.6821 N   0  0  0  0  0  0  0  0  0  0  0  0
   14.8291 -102.6949   34.6255 C   0  0  0  0  0  0  0  0  0  0  0  0
   16.1928 -102.2211   34.1166 C   0  0  0  0  0  0  0  0  0  0  0  0
   17.3055 -102.0231   35.0756 O   0  0  0  0  0  0  0  0  0  0  0  0
   17.3288 -101.6457   32.3737 H   0  0  0  0  0  0  0  0  0  0  0  0
   10.9769 -106.4743   26.2821 C   0  0  0  0  0  0  0  0  0  0  0  0
   10.9472 -106.5741   23.7932 S   0  0  0  0  0  6  0  0  0  0  0  0
    9.6577 -107.1763   23.2066 O   0  0  0  0  0  0  0  0  0  0  0  0
    9.8281 -107.0477   24.6961 O   0  0  0  0  0  0  0  0  0  0  0  0
   11.6912 -106.1961   25.0135 N   0  0  0  0  0  0  0  0  0  0  0  0
   11.3639 -106.4371   22.3240 C   0  0  0  0  0  0  0  0  0  0  0  0
   13.0511 -105.5795   25.1004 C   0  0  0  0  0  0  0  0  0  0  0  0
   12.6384 -105.8822   21.7467 C   0  0  0  0  0  0  0  0  0  0  0  0
   14.0048 -105.1883   23.9740 C   0  0  0  0  0  0  0  0  0  0  0  0
   13.8050 -105.3307   22.4687 N   0  0  0  0  0  0  0  0  0  0  0  0
   14.5750 -105.0036   21.8852 H   0  0  0  0  0  0  0  0  0  0  0  0
   12.8631 -105.8322   28.2097 H   0  0  0  0  0  0  0  0  0  0  0  0
    8.8216 -104.6875   26.5626 H   0  0  0  0  0  0  0  0  0  0  0  0
    8.6241 -102.7750   28.3110 H   0  0  0  0  0  0  0  0  0  0  0  0
   10.5511 -102.4168   29.9869 H   0  0  0  0  0  0  0  0  0  0  0  0
   14.2781 -103.6673   32.0886 H   0  0  0  0  0  0  0  0  0  0  0  0
   12.8932 -102.2355   33.9825 H   0  0  0  0  0  0  0  0  0  0  0  0
   13.5131 -103.9733   33.7064 H   0  0  0  0  0  0  0  0  0  0  0  0
   14.4875 -101.9522   35.3616 H   0  0  0  0  0  0  0  0  0  0  0  0
   15.0323 -103.7105   34.9959 H   0  0  0  0  0  0  0  0  0  0  0  0
    9.9549 -106.7847   26.0190 H   0  0  0  0  0  0  0  0  0  0  0  0
   11.5974 -107.2326   26.7820 H   0  0  0  0  0  0  0  0  0  0  0  0
   11.3082 -107.4618   21.9278 H   0  0  0  0  0  0  0  0  0  0  0  0
   10.6962 -105.6067   22.0509 H   0  0  0  0  0  0  0  0  0  0  0  0
   12.8922 -104.6459   25.6600 H   0  0  0  0  0  0  0  0  0  0  0  0
   13.5974 -106.4615   25.4659 H   0  0  0  0  0  0  0  0  0  0  0  0
   13.0496 -106.7036   21.1415 H   0  0  0  0  0  0  0  0  0  0  0  0
   12.2382 -104.9420   21.3393 H   0  0  0  0  0  0  0  0  0  0  0  0
   14.1878 -104.1146   24.1277 H   0  0  0  0  0  0  0  0  0  0  0  0
   14.7524 -105.9832   24.1129 H   0  0  0  0  0  0  0  0  0  0  0  0
 21 22  2  0
 21 23  2  0
 21 24  1  0
 21 25  1  0
 24 26  1  0
 24 20  1  0
 25 27  1  0
 26 28  1  0
 20  1  1  0
 27 29  1  0
  1  2  2  0
  1  3  1  0
  2  4  1  0
  3  5  2  0
  4  7  1  0
  4  6  2  0
  7  8  2  0
  7  9  1  0
 11  9  1  0
 11 12  1  0
 11 13  1  0
 12 14  2  0
 12 15  1  0
 13 16  1  0
 15 17  1  0
 17 18  2  0
 28 29  1  0
  5  6  1  0
 16 17  1  0
 29 30  1  0
  9 10  1  0
 15 19  1  0
  2 31  1  0
  3 32  1  0
  5 33  1  0
  6 34  1  0
 11 35  1  0
 13 36  1  0
 13 37  1  0
 16 38  1  0
 16 39  1  0
 20 40  1  0
 20 41  1  0
 25 42  1  0
 25 43  1  0
 26 44  1  0
 26 45  1  0
 27 46  1  0
 27 47  1  0
 28 48  1  0
 28 49  1  0
M  END
>  <Molecule Name>  (1) 
Compound 8

>  <EC50 (µM) (Excel)>  (1) 
6.8

>  <Error (µM)>  (1) 
1.0

>  <HTRC CRBN-DDB1 EC50 (µM)>  (1) 
6.77 ±  1.02

>  <EC50 fitting (µM)>  (1) 
7.19

>  <Modèle Fitting>  (1) 
4PL
$$$$

>  <minimizedAffinity>  (1) 
-9.36214

>  <CNNscore>  (1) 
0.7834596038

>  <CNNaffinity>  (1) 
6.9123101234

>  <CNN_VS>  (1) 
5.4155158997

>  <CNNaffinity_variance>  (1) 
0.0045036753

$$$$
