Compound 9
     RDKit          3D

 62 64  0  0  0  0  0  0  0  0999 V2000
   10.8153 -105.4699   27.0414 C   0  0  0  0  0  0  0  0  0  0  0  0
   11.9330 -105.2315   28.0324 C   0  0  0  0  0  0  0  0  0  0  0  0
    9.5550 -104.7150   27.1188 C   0  0  0  0  0  0  0  0  0  0  0  0
   11.7643 -104.2182   29.1076 C   0  0  0  0  0  0  0  0  0  0  0  0
    9.3862 -103.7016   28.1941 C   0  0  0  0  0  0  0  0  0  0  0  0
   10.5040 -103.4633   29.1851 C   0  0  0  0  0  0  0  0  0  0  0  0
   12.8821 -103.9798   30.0987 C   0  0  0  0  0  0  0  0  0  0  0  0
   14.1223 -104.7974   30.0251 O   0  0  0  0  0  0  0  0  0  0  0  0
   12.7513 -102.8992   31.1846 N   0  0  0  0  0  0  0  0  0  0  0  0
   11.9314 -102.3566   31.2355 H   0  0  0  0  0  0  0  0  0  0  0  0
   13.8691 -102.6609   32.1756 C   0  0  0  0  0  0  0  0  0  0  0  0
   15.2458 -102.1661   31.7021 C   0  0  0  0  0  0  0  0  0  0  0  0
   13.6380 -102.9065   33.6240 C   0  0  0  0  0  0  0  0  0  0  0  0
   15.5323 -101.8990   30.2215 O   0  0  0  0  0  0  0  0  0  0  0  0
   16.3636 -101.9278   32.6930 N   0  0  0  0  0  0  0  0  0  0  0  0
   14.7559 -102.6682   34.6150 C   0  0  0  0  0  0  0  0  0  0  0  0
   16.1325 -102.1735   34.1414 C   0  0  0  0  0  0  0  0  0  0  0  0
   17.2503 -101.9352   35.1324 O   0  0  0  0  0  0  0  0  0  0  0  0
   17.2416 -101.6110   32.3799 H   0  0  0  0  0  0  0  0  0  0  0  0
   10.9841 -106.4832   25.9661 C   0  0  0  0  0  0  0  0  0  0  0  0
   11.0327 -106.4438   23.4322 S   0  0  0  0  0  6  0  0  0  0  0  0
    9.7578 -107.0496   22.8226 O   0  0  0  0  0  0  0  0  0  0  0  0
    9.9062 -106.9882   24.3154 O   0  0  0  0  0  0  0  0  0  0  0  0
   11.7275 -106.1195   24.6998 N   0  0  0  0  0  0  0  0  0  0  0  0
   11.4476 -106.2362   22.0133 C   0  0  0  0  0  0  0  0  0  0  0  0
   13.0394 -105.4930   24.8599 C   0  0  0  0  0  0  0  0  0  0  0  0
   12.7000 -105.6339   21.5086 C   0  0  0  0  0  0  0  0  0  0  0  0
   13.9698 -105.0412   23.7883 C   0  0  0  0  0  0  0  0  0  0  0  0
   13.8214 -105.1026   22.2956 N   0  0  0  0  0  0  0  0  0  0  0  0
   14.9400 -104.5623   21.4884 C   0  0  0  0  0  0  0  0  0  0  0  0
   16.1205 -104.0021   22.1779 O   0  0  0  0  0  0  0  0  0  0  0  0
   14.8579 -104.5920   19.9780 C   0  0  0  0  0  0  0  0  0  0  0  0
   14.6214 -103.3349   19.2305 N   0  0  0  0  0  0  0  0  0  0  0  0
   13.6567 -103.3331   18.1117 C   0  0  0  0  0  0  0  0  0  0  0  0
   15.3674 -102.0779   19.6217 C   0  0  0  0  0  0  0  0  0  0  0  0
   12.8680 -105.8061   27.9579 H   0  0  0  0  0  0  0  0  0  0  0  0
    8.7495 -104.8974   26.3922 H   0  0  0  0  0  0  0  0  0  0  0  0
    8.4512 -103.1270   28.2686 H   0  0  0  0  0  0  0  0  0  0  0  0
   10.3721 -102.7122   29.9778 H   0  0  0  0  0  0  0  0  0  0  0  0
   14.2008 -103.7024   32.0518 H   0  0  0  0  0  0  0  0  0  0  0  0
   12.8008 -102.2605   33.9269 H   0  0  0  0  0  0  0  0  0  0  0  0
   13.4788 -103.9937   33.6760 H   0  0  0  0  0  0  0  0  0  0  0  0
   14.3847 -101.9233   35.3342 H   0  0  0  0  0  0  0  0  0  0  0  0
   14.9737 -103.6802   34.9870 H   0  0  0  0  0  0  0  0  0  0  0  0
    9.9744 -106.7975   25.6634 H   0  0  0  0  0  0  0  0  0  0  0  0
   11.6293 -107.2431   26.4311 H   0  0  0  0  0  0  0  0  0  0  0  0
   11.4224 -107.2410   21.5663 H   0  0  0  0  0  0  0  0  0  0  0  0
   10.7564 -105.4199   21.7567 H   0  0  0  0  0  0  0  0  0  0  0  0
   12.8480 -104.5927   25.4623 H   0  0  0  0  0  0  0  0  0  0  0  0
   13.6028 -106.3685   25.2151 H   0  0  0  0  0  0  0  0  0  0  0  0
   13.1479 -106.4111   20.8720 H   0  0  0  0  0  0  0  0  0  0  0  0
   12.2919 -104.6843   21.1322 H   0  0  0  0  0  0  0  0  0  0  0  0
   14.1248 -103.9728   23.9995 H   0  0  0  0  0  0  0  0  0  0  0  0
   14.7151 -105.8432   23.8942 H   0  0  0  0  0  0  0  0  0  0  0  0
   15.8108 -105.0045   19.6149 H   0  0  0  0  0  0  0  0  0  0  0  0
   13.9495 -105.1807   19.7826 H   0  0  0  0  0  0  0  0  0  0  0  0
   12.6318 -103.3312   18.5113 H   0  0  0  0  0  0  0  0  0  0  0  0
   13.8116 -102.4352   17.4954 H   0  0  0  0  0  0  0  0  0  0  0  0
   13.8083 -104.2315   17.4954 H   0  0  0  0  0  0  0  0  0  0  0  0
   15.4113 -102.0039   20.7183 H   0  0  0  0  0  0  0  0  0  0  0  0
   16.3890 -102.1164   19.2156 H   0  0  0  0  0  0  0  0  0  0  0  0
   14.8442 -101.1996   19.2156 H   0  0  0  0  0  0  0  0  0  0  0  0
 21 22  2  0
 21 23  2  0
 21 24  1  0
 21 25  1  0
 24 26  1  0
 24 20  1  0
 25 27  1  0
 26 28  1  0
 20  1  1  0
 27 29  1  0
  1  2  2  0
  1  3  1  0
 29 30  1  0
  2  4  1  0
  3  5  2  0
 30 31  2  0
 30 32  1  0
  4  7  1  0
  4  6  2  0
 32 33  1  0
  7  8  2  0
  7  9  1  0
 33 34  1  0
 33 35  1  0
 11  9  1  0
 11 12  1  0
 11 13  1  0
 12 14  2  0
 12 15  1  0
 13 16  1  0
 15 17  1  0
 17 18  2  0
 28 29  1  0
  5  6  1  0
 16 17  1  0
  9 10  1  0
 15 19  1  0
  2 36  1  0
  3 37  1  0
  5 38  1  0
  6 39  1  0
 11 40  1  0
 13 41  1  0
 13 42  1  0
 16 43  1  0
 16 44  1  0
 20 45  1  0
 20 46  1  0
 25 47  1  0
 25 48  1  0
 26 49  1  0
 26 50  1  0
 27 51  1  0
 27 52  1  0
 28 53  1  0
 28 54  1  0
 32 55  1  0
 32 56  1  0
 34 57  1  0
 34 58  1  0
 34 59  1  0
 35 60  1  0
 35 61  1  0
 35 62  1  0
M  END
>  <Molecule Name>  (1) 
Compound 9

>  <EC50 (µM) (Excel)>  (1) 
54.0

>  <Error (µM)>  (1) 
9.3

>  <HTRC CRBN-DDB1 EC50 (µM)>  (1) 
53.95 ±  9.32

>  <EC50 fitting (µM)>  (1) 
108.30

>  <Modèle Fitting>  (1) 
4PL
$$$$

>  <minimizedAffinity>  (1) 
-10.37557

>  <CNNscore>  (1) 
0.8863056302

>  <CNNaffinity>  (1) 
7.4443726540

>  <CNN_VS>  (1) 
6.5979895592

>  <CNNaffinity_variance>  (1) 
0.0827471837

$$$$
