
     RDKit          3D

 72 75  0  0  0  0  0  0  0  0999 V2000
    9.8860 -103.5490   28.4760 C   0  0  0  0  0  0  0  0  0  0  0  0
   10.5430 -104.7750   28.4430 C   0  0  0  0  0  0  0  0  0  0  0  0
   11.6480 -104.9800   29.2600 C   0  0  0  0  0  0  0  0  0  0  0  0
   10.3330 -102.5410   29.3250 C   0  0  0  0  0  0  0  0  0  0  0  0
   11.4270 -102.7540   30.1540 C   0  0  0  0  0  0  0  0  0  0  0  0
   12.0870 -103.9760   30.1130 C   0  0  0  0  0  0  0  0  0  0  0  0
   13.0570 -102.5830   31.7010 N   0  0  0  0  0  0  0  0  0  0  0  0
   16.5720 -101.9670   32.4240 N   0  0  0  0  0  0  0  0  0  0  0  0
   11.1970 -106.2240   26.5830 N   0  0  0  0  0  0  0  0  0  0  0  0
   11.7540 -100.7770   31.3310 O   0  0  0  0  0  0  0  0  0  0  0  0
   13.2340 -103.9120   31.1140 C   0  0  0  0  0  0  0  0  0  0  0  0
   12.0830 -101.9340   31.0750 C   0  0  1  0  0  0  0  0  0  0  0  0
   14.0220 -101.9600   32.6110 C   0  0  1  0  0  0  0  0  0  0  0  0
   14.2610 -102.8880   33.8000 C   0  0  0  0  0  0  0  0  0  0  0  0
   15.4400 -102.4040   34.6410 C   0  0  0  0  0  0  0  0  0  0  0  0
   16.6900 -102.2490   33.7810 C   0  0  0  0  0  0  0  0  0  0  0  0
   15.3170 -101.7810   31.8320 C   0  0  1  0  0  0  0  0  0  0  0  0
   10.0780 -105.8940   27.4880 C   0  0  0  0  0  0  0  0  0  0  0  0
   11.1210 -106.1360   25.2540 C   0  0  0  0  0  0  0  0  0  0  0  0
   15.2460 -101.5480   30.6300 O   0  0  0  0  0  0  0  0  0  0  0  0
   12.6410 -107.4620   22.5400 C   0  0  0  0  0  0  0  0  0  0  0  0
   12.6760 -107.4070   21.1540 C   0  0  0  0  0  0  0  0  0  0  0  0
   13.1280 -108.7970   20.2350 Cl  0  0  0  0  0  0  0  0  0  0  0  0
   12.3470 -106.2320   20.4920 C   0  0  0  0  0  0  0  0  0  0  0  0
   12.3920 -106.1900   18.9640 C   0  0  0  0  0  0  0  0  0  0  0  0
   11.9830 -105.1020   21.2180 C   0  0  0  0  0  0  0  0  0  0  0  0
   11.9450 -105.1550   22.6060 C   0  0  0  0  0  0  0  0  0  0  0  0
   12.2650 -106.3400   23.2660 C   0  0  0  0  0  0  0  0  0  0  0  0
   12.2460 -106.3970   24.5910 N   0  0  0  0  0  0  0  0  0  0  0  0
   10.0780 -105.8420   24.6720 O   0  0  0  0  0  0  0  0  0  0  0  0
   17.8050 -102.3820   34.2780 O   0  0  0  0  0  0  0  0  0  0  0  0
    9.9217 -103.1424   27.4545 H   0  0  0  0  0  0  0  0  0  0  0  0
    8.8974 -103.8037   28.8857 H   0  0  0  0  0  0  0  0  0  0  0  0
   11.2019 -104.4004   27.6458 H   0  0  0  0  0  0  0  0  0  0  0  0
   11.4171 -105.8513   29.8905 H   0  0  0  0  0  0  0  0  0  0  0  0
   12.4749 -105.0742   28.5407 H   0  0  0  0  0  0  0  0  0  0  0  0
   10.5826 -101.6795   28.6882 H   0  0  0  0  0  0  0  0  0  0  0  0
    9.5011 -102.4276   30.0357 H   0  0  0  0  0  0  0  0  0  0  0  0
   10.7584 -103.1414   30.9368 H   0  0  0  0  0  0  0  0  0  0  0  0
   12.7478 -103.5926   29.3216 H   0  0  0  0  0  0  0  0  0  0  0  0
   17.1053 -101.1017   32.2574 H   0  0  0  0  0  0  0  0  0  0  0  0
   11.9748 -105.6089   26.8616 H   0  0  0  0  0  0  0  0  0  0  0  0
   11.7189 -100.6534   32.3126 H   0  0  0  0  0  0  0  0  0  0  0  0
   13.1430 -104.7001   31.8760 H   0  0  0  0  0  0  0  0  0  0  0  0
   14.2246 -104.0669   30.6615 H   0  0  0  0  0  0  0  0  0  0  0  0
   11.3598 -102.3038   31.8168 H   0  0  0  0  0  0  0  0  0  0  0  0
   13.6535 -100.9935   32.9851 H   0  0  0  0  0  0  0  0  0  0  0  0
   13.3571 -102.9107   34.4265 H   0  0  0  0  0  0  0  0  0  0  0  0
   14.4904 -103.8943   33.4197 H   0  0  0  0  0  0  0  0  0  0  0  0
   15.1880 -101.4319   35.0899 H   0  0  0  0  0  0  0  0  0  0  0  0
   15.6419 -103.1471   35.4265 H   0  0  0  0  0  0  0  0  0  0  0  0
   16.6707 -103.3262   33.5588 H   0  0  0  0  0  0  0  0  0  0  0  0
   15.2933 -102.8436   31.5484 H   0  0  0  0  0  0  0  0  0  0  0  0
    9.7936 -106.7842   28.0682 H   0  0  0  0  0  0  0  0  0  0  0  0
    9.2060 -105.5591   26.9070 H   0  0  0  0  0  0  0  0  0  0  0  0
   11.3996 -105.0733   25.3084 H   0  0  0  0  0  0  0  0  0  0  0  0
   14.9602 -100.6102   30.4920 H   0  0  0  0  0  0  0  0  0  0  0  0
   11.9394 -108.2653   22.8092 H   0  0  0  0  0  0  0  0  0  0  0  0
   13.6964 -107.6024   22.8162 H   0  0  0  0  0  0  0  0  0  0  0  0
   13.7288 -107.0905   21.1931 H   0  0  0  0  0  0  0  0  0  0  0  0
   13.3996 -105.9149   20.5317 H   0  0  0  0  0  0  0  0  0  0  0  0
   13.1603 -105.4729   18.6394 H   0  0  0  0  0  0  0  0  0  0  0  0
   12.6368 -107.1900   18.5768 H   0  0  0  0  0  0  0  0  0  0  0  0
   11.4112 -105.8769   18.5768 H   0  0  0  0  0  0  0  0  0  0  0  0
   12.6950 -104.3078   20.9491 H   0  0  0  0  0  0  0  0  0  0  0  0
   10.9298 -104.9489   20.9400 H   0  0  0  0  0  0  0  0  0  0  0  0
   12.6436 -104.3885   22.9725 H   0  0  0  0  0  0  0  0  0  0  0  0
   10.8781 -105.0171   22.8357 H   0  0  0  0  0  0  0  0  0  0  0  0
   11.2128 -106.6558   23.2091 H   0  0  0  0  0  0  0  0  0  0  0  0
   12.5293 -107.3524   24.8513 H   0  0  0  0  0  0  0  0  0  0  0  0
    9.3731 -105.6433   25.3382 H   0  0  0  0  0  0  0  0  0  0  0  0
   17.7295 -102.3730   35.2651 H   0  0  0  0  0  0  0  0  0  0  0  0
  2  1  1  0
  3  2  1  0
  4  1  1  0
  5  4  1  0
  6  3  1  0
  6  5  1  0
 11  6  1  0
 11  7  1  0
 12 10  1  0
 12  7  1  0
 12  5  1  0
 13  7  1  0
 14 13  1  0
 15 14  1  0
 16 15  1  0
 16  8  1  0
 17 13  1  0
 17  8  1  0
 18  2  1  0
 18  9  1  0
 19  9  1  0
 17 20  1  0
 22 21  1  0
 23 22  1  0
 24 22  1  0
 25 24  1  0
 26 24  1  0
 27 26  1  0
 28 27  1  0
 28 21  1  0
 29 28  1  0
 29 19  1  0
 30 19  1  0
 31 16  1  0
  1 32  1  0
  1 33  1  0
  2 34  1  0
  3 35  1  0
  3 36  1  0
  4 37  1  0
  4 38  1  0
  5 39  1  0
  6 40  1  0
  8 41  1  0
  9 42  1  0
 10 43  1  0
 11 44  1  0
 11 45  1  0
 12 46  1  6
 13 47  1  1
 14 48  1  0
 14 49  1  0
 15 50  1  0
 15 51  1  0
 16 52  1  0
 17 53  1  1
 18 54  1  0
 18 55  1  0
 19 56  1  0
 20 57  1  0
 21 58  1  0
 21 59  1  0
 22 60  1  0
 24 61  1  0
 25 62  1  0
 25 63  1  0
 25 64  1  0
 26 65  1  0
 26 66  1  0
 27 67  1  0
 27 68  1  0
 28 69  1  0
 29 70  1  0
 30 71  1  0
 31 72  1  0
M  END
$$$$
