EDEL-CRBN-0008_ent
 OpenBabel09062620533D

 33 37  0  0  0  0  0  0  0  0999 V2000
   84.8548  149.1546   17.6075 N   0  0  0  0  0  0  0  0  0  0  0  0
   83.3914  149.2341   17.4593 C   0  0  0  0  0  0  0  0  0  0  0  0
   85.5640  149.0392   16.3245 C   0  0  0  0  0  0  0  0  0  0  0  0
   83.0068  150.0540   16.2316 C   0  0  0  0  0  0  0  0  0  0  0  0
   84.7082  148.4391   15.2116 C   0  0  0  0  0  0  0  0  0  0  0  0
   83.4777  149.3216   14.9664 C   0  0  1  0  0  0  0  0  0  0  0  0
   82.3870  148.4883   14.4455 O   0  0  0  0  0  0  0  0  0  0  0  0
   83.4820  150.1265   13.6220 C   0  0  1  0  0  0  0  0  0  0  0  0
   82.1053  149.4754   13.4215 C   0  0  0  0  0  0  0  0  0  0  0  0
   83.6757  151.7019   13.6380 C   0  0  0  0  0  0  0  0  0  0  0  0
   84.8775  152.2764   13.1878 C   0  0  0  0  0  0  0  0  0  0  0  0
   82.7016  152.6112   14.0793 C   0  0  0  0  0  0  0  0  0  0  0  0
   85.0977  153.6620   13.1839 C   0  0  0  0  0  0  0  0  0  0  0  0
   82.9166  153.9998   14.0816 C   0  0  0  0  0  0  0  0  0  0  0  0
   84.1207  154.5541   13.6314 C   0  0  0  0  0  0  0  0  0  0  0  0
   84.3489  155.9723   13.6481 N   0  0  0  0  0  0  0  0  0  0  0  0
   84.8017  156.6654   12.5194 C   0  0  0  0  0  0  0  0  0  0  0  0
   83.8964  156.7612   14.7905 C   0  0  0  0  0  0  0  0  0  0  0  0
   85.0612  156.1892   11.4171 O   0  0  0  0  0  0  0  0  0  0  0  0
   84.9510  158.0228   12.6848 N   0  0  0  0  0  0  0  0  0  0  0  0
   84.8754  157.8732   15.1035 C   0  0  0  0  0  0  0  0  0  0  0  0
   85.1070  158.6866   13.8688 C   0  0  0  0  0  0  0  0  0  0  0  0
   85.4890  159.8526   13.9084 O   0  0  0  0  0  0  0  0  0  0  0  0
   84.9447  158.5715   11.8674 H   0  0  0  0  0  0  0  0  0  0  0  0
   85.2143  148.1164   18.5835 C   0  0  0  0  0  0  0  0  0  0  0  0
   82.1498  148.6662   22.7906 Cl  0  0  0  0  0  0  0  0  0  0  0  0
   82.5921  147.8513   21.3388 C   0  0  0  0  0  0  0  0  0  0  0  0
   83.6734  148.2928   20.5759 C   0  0  0  0  0  0  0  0  0  0  0  0
   81.8518  146.7437   20.9260 C   0  0  0  0  0  0  0  0  0  0  0  0
   84.3688  149.3734   20.9662 F   0  0  0  0  0  0  0  0  0  0  0  0
   84.0335  147.6348   19.3928 C   0  0  0  0  0  0  0  0  0  0  0  0
   82.1945  146.0816   19.7465 C   0  0  0  0  0  0  0  0  0  0  0  0
   83.2778  146.5246   18.9833 C   0  0  0  0  0  0  0  0  0  0  0  0
  1  2  1  0  0  0  0
  1  3  1  0  0  0  0
  2  4  1  0  0  0  0
  3  5  1  0  0  0  0
  6  5  1  1  0  0  0
  6  4  1  0  0  0  0
  6  7  1  0  0  0  0
  6  8  1  0  0  0  0
  7  9  1  0  0  0  0
  8 10  1  1  0  0  0
  8  9  1  0  0  0  0
 10 11  2  0  0  0  0
 10 12  5  0  0  0  0
 11 13  5  0  0  0  0
 12 14  2  0  0  0  0
 15 14  5  0  0  0  0
 15 13  2  0  0  0  0
 15 16  1  0  0  0  0
 16 17  1  0  0  0  0
 16 18  1  0  0  0  0
 17 19  2  0  0  0  0
 17 20  1  0  0  0  0
 18 21  1  0  0  0  0
 20 22  1  0  0  0  0
 20 24  1  0  0  0  0
 21 22  1  0  0  0  0
 22 23  2  0  0  0  0
 25  1  1  0  0  0  0
 27 26  1  0  0  0  0
 27 28  2  0  0  0  0
 27 29  5  0  0  0  0
 28 30  1  0  0  0  0
 28 31  5  0  0  0  0
 29 32  2  0  0  0  0
 31 33  2  0  0  0  0
 31 25  1  0  0  0  0
 32 33  5  0  0  0  0
M  END
>  <ID>
EDEL-CRBN-0008_ent

>  <Stereoisomer>
enantiomer

>  <MW>
457.16

>  <HBD>
1

>  <HBA>
4

>  <RotBonds>
4

>  <cLogP>
4.07

>  <minimizedAffinity>
-8.47839

>  <CNNscore>
0.7928389311

>  <CNNaffinity>
7.3925871849

>  <CNN_VS>
5.8611307144

>  <CNNaffinity_variance>
0.0425307192

$$$$
