EDEL-CRBN-0013
 OpenBabel09062620533D

 37 41  0  0  0  0  0  0  0  0999 V2000
   84.8805  154.3830   14.0171 C   0  0  0  0  0  0  0  0  0  0  0  0
   85.5926  153.5126   13.1423 C   0  0  0  0  0  0  0  0  0  0  0  0
   84.1184  153.8055   15.0492 C   0  0  0  0  0  0  0  0  0  0  0  0
   85.4994  152.1153   13.2320 C   0  0  0  0  0  0  0  0  0  0  0  0
   84.0596  152.4256   15.1519 C   0  0  0  0  0  0  0  0  0  0  0  0
   84.7316  151.5903   14.2470 C   0  0  0  0  0  0  0  0  0  0  0  0
   83.3026  151.5450   16.1213 C   0  0  2  0  0  0  0  0  0  0  0  0
   84.4139  150.1589   14.6128 C   0  0  1  0  0  0  0  0  0  0  0  0
   84.1027  150.3275   16.0304 N   0  0  0  0  0  0  0  0  0  0  0  0
   81.8889  151.2299   15.5196 C   0  0  0  0  0  0  0  0  0  0  0  0
   83.0960  149.7363   13.8789 C   0  0  0  0  0  0  0  0  0  0  0  0
   83.8988  149.2930   16.9033 C   0  0  0  0  0  0  0  0  0  0  0  0
   81.8381  150.0336   14.6216 N   0  0  0  0  0  0  0  0  0  0  0  0
   83.3209  149.4179   17.9747 O   0  0  0  0  0  0  0  0  0  0  0  0
   86.2530  155.8777   11.9619 O   0  0  0  0  0  0  0  0  0  0  0  0
   85.5889  156.4360   12.8315 C   0  0  0  0  0  0  0  0  0  0  0  0
   84.8842  155.8124   13.8620 N   0  0  0  0  0  0  0  0  0  0  0  0
   85.5059  157.8077   12.8114 N   0  0  0  0  0  0  0  0  0  0  0  0
   84.0051  156.6317   14.6892 C   0  0  0  0  0  0  0  0  0  0  0  0
   85.2102  158.6122   13.8759 C   0  0  0  0  0  0  0  0  0  0  0  0
   84.6983  157.9146   15.0989 C   0  0  0  0  0  0  0  0  0  0  0  0
   85.4330  159.8194   13.8503 O   0  0  0  0  0  0  0  0  0  0  0  0
   85.6754  158.2524   11.9496 H   0  0  0  0  0  0  0  0  0  0  0  0
   86.4331  154.0032   12.1679 O   0  0  0  0  0  0  0  0  0  0  0  0
   87.3056  152.9616   11.7192 C   0  0  0  0  0  0  0  0  0  0  0  0
   84.4187  148.1325   16.4268 O   0  0  0  0  0  0  0  0  0  0  0  0
   85.4371  147.4175   17.1699 C   0  0  0  0  0  0  0  0  0  0  0  0
   86.7337  147.6637   16.3829 C   0  0  0  0  0  0  0  0  0  0  0  0
   85.1559  145.9104   17.1867 C   0  0  0  0  0  0  0  0  0  0  0  0
   85.6066  147.9881   18.5818 C   0  0  0  0  0  0  0  0  0  0  0  0
   80.6611  150.0063   13.7510 C   0  0  0  0  0  0  0  0  0  0  0  0
   79.3507  149.9472   14.5063 C   0  0  0  0  0  0  0  0  0  0  0  0
   78.1677  149.5699   13.8549 C   0  0  0  0  0  0  0  0  0  0  0  0
   79.3031  150.2448   15.8770 C   0  0  0  0  0  0  0  0  0  0  0  0
   76.9630  149.5016   14.5576 C   0  0  0  0  0  0  0  0  0  0  0  0
   78.0979  150.1779   16.5772 C   0  0  0  0  0  0  0  0  0  0  0  0
   76.9285  149.8060   15.9174 C   0  0  0  0  0  0  0  0  0  0  0  0
  1 17  1  0  0  0  0
  1  2  2  0  0  0  0
  1  3  5  0  0  0  0
  2 24  1  0  0  0  0
  2  4  5  0  0  0  0
  5  3  2  0  0  0  0
  5  7  1  0  0  0  0
  5  6  5  0  0  0  0
  6  4  2  0  0  0  0
  6  8  1  0  0  0  0
  7  9  1  0  0  0  0
  7 10  1  6  0  0  0
  8 11  1  6  0  0  0
  8  9  1  0  0  0  0
  9 12  1  0  0  0  0
 10 13  1  0  0  0  0
 11 13  1  0  0  0  0
 12 14  2  0  0  0  0
 12 26  1  0  0  0  0
 13 31  1  0  0  0  0
 15 16  2  0  0  0  0
 16 17  1  0  0  0  0
 16 18  1  0  0  0  0
 17 19  1  0  0  0  0
 18 20  1  0  0  0  0
 18 23  1  0  0  0  0
 19 21  1  0  0  0  0
 20 22  2  0  0  0  0
 20 21  1  0  0  0  0
 24 25  1  0  0  0  0
 26 27  1  0  0  0  0
 27 28  1  0  0  0  0
 27 29  1  0  0  0  0
 27 30  1  0  0  0  0
 31 32  1  0  0  0  0
 32 33  2  0  0  0  0
 32 34  5  0  0  0  0
 33 35  5  0  0  0  0
 34 36  2  0  0  0  0
 35 37  2  0  0  0  0
 36 37  5  0  0  0  0
M  END
>  <ID>
EDEL-CRBN-0013

>  <Stereoisomer>
original

>  <MW>
492.24

>  <HBD>
1

>  <HBA>
6

>  <RotBonds>
4

>  <cLogP>
3.99

>  <minimizedAffinity>
-8.84591

>  <CNNscore>
0.8051082492

>  <CNNaffinity>
7.3772778511

>  <CNN_VS>
5.9395074844

>  <CNNaffinity_variance>
0.0731441304

$$$$
