EDEL-CRBN-0014
 OpenBabel09062620533D

 37 41  0  0  0  0  0  0  0  0999 V2000
   85.3749  153.9858   13.3064 C   0  0  0  0  0  0  0  0  0  0  0  0
   84.8363  153.0365   14.2028 C   0  0  0  0  0  0  0  0  0  0  0  0
   86.2553  153.5290   12.2912 C   0  0  0  0  0  0  0  0  0  0  0  0
   85.2393  151.7172   14.1032 C   0  0  0  0  0  0  0  0  0  0  0  0
   86.6407  152.1856   12.1797 C   0  0  0  0  0  0  0  0  0  0  0  0
   86.1324  151.2958   13.0984 C   0  0  0  0  0  0  0  0  0  0  0  0
   84.9064  150.5157   14.9552 C   0  0  1  0  0  0  0  0  0  0  0  0
   86.3867  149.8181   13.2947 C   0  0  2  0  0  0  0  0  0  0  0  0
   85.1629  149.4431   13.9950 N   0  0  0  0  0  0  0  0  0  0  0  0
   85.9690  150.3517   16.0933 C   0  0  0  0  0  0  0  0  0  0  0  0
   87.5614  149.6012   14.3084 C   0  0  0  0  0  0  0  0  0  0  0  0
   84.8003  148.1366   14.1600 C   0  0  0  0  0  0  0  0  0  0  0  0
   87.3853  150.3362   15.6059 N   0  0  0  0  0  0  0  0  0  0  0  0
   85.3092  147.2130   13.5401 O   0  0  0  0  0  0  0  0  0  0  0  0
   85.4552  155.9217   11.1631 O   0  0  0  0  0  0  0  0  0  0  0  0
   85.1893  156.2457   12.3177 C   0  0  0  0  0  0  0  0  0  0  0  0
   85.1059  155.3927   13.4175 N   0  0  0  0  0  0  0  0  0  0  0  0
   84.9340  157.5699   12.5844 N   0  0  0  0  0  0  0  0  0  0  0  0
   84.5922  155.9306   14.6726 C   0  0  0  0  0  0  0  0  0  0  0  0
   85.0476  158.1820   13.8015 C   0  0  0  0  0  0  0  0  0  0  0  0
   85.2291  157.2706   14.9773 C   0  0  0  0  0  0  0  0  0  0  0  0
   85.0801  159.4053   13.9044 O   0  0  0  0  0  0  0  0  0  0  0  0
   84.6423  158.1295   11.8287 H   0  0  0  0  0  0  0  0  0  0  0  0
   83.9118  153.3537   15.1618 O   0  0  0  0  0  0  0  0  0  0  0  0
   82.6038  152.9956   14.7036 C   0  0  0  0  0  0  0  0  0  0  0  0
   83.8283  148.0062   15.0974 O   0  0  0  0  0  0  0  0  0  0  0  0
   82.4348  147.8845   14.7145 C   0  0  0  0  0  0  0  0  0  0  0  0
   82.0362  146.4664   15.1512 C   0  0  0  0  0  0  0  0  0  0  0  0
   82.2652  147.9934   13.1951 C   0  0  0  0  0  0  0  0  0  0  0  0
   81.5582  148.8923   15.4655 C   0  0  0  0  0  0  0  0  0  0  0  0
   88.3049  149.8695   16.6487 C   0  0  0  0  0  0  0  0  0  0  0  0
   89.5817  150.6786   16.7258 C   0  0  0  0  0  0  0  0  0  0  0  0
   89.9650  151.2893   17.9297 C   0  0  0  0  0  0  0  0  0  0  0  0
   90.4078  150.8202   15.6019 C   0  0  0  0  0  0  0  0  0  0  0  0
   91.1456  152.0292   18.0063 C   0  0  0  0  0  0  0  0  0  0  0  0
   91.5892  151.5603   15.6805 C   0  0  0  0  0  0  0  0  0  0  0  0
   91.9575  152.1639   16.8818 C   0  0  0  0  0  0  0  0  0  0  0  0
  1 17  1  0  0  0  0
  1  2  2  0  0  0  0
  1  3  5  0  0  0  0
  2 24  1  0  0  0  0
  2  4  5  0  0  0  0
  3  5  2  0  0  0  0
  4  6  2  0  0  0  0
  4  7  1  0  0  0  0
  5  6  5  0  0  0  0
  6  8  1  0  0  0  0
  7  9  1  0  0  0  0
  7 10  1  1  0  0  0
  8 11  1  1  0  0  0
  8  9  1  0  0  0  0
  9 12  1  0  0  0  0
 10 13  1  0  0  0  0
 11 13  1  0  0  0  0
 12 14  2  0  0  0  0
 12 26  1  0  0  0  0
 13 31  1  0  0  0  0
 15 16  2  0  0  0  0
 16 17  1  0  0  0  0
 16 18  1  0  0  0  0
 17 19  1  0  0  0  0
 18 20  1  0  0  0  0
 18 23  1  0  0  0  0
 19 21  1  0  0  0  0
 20 22  2  0  0  0  0
 20 21  1  0  0  0  0
 24 25  1  0  0  0  0
 26 27  1  0  0  0  0
 27 28  1  0  0  0  0
 27 29  1  0  0  0  0
 27 30  1  0  0  0  0
 31 32  1  0  0  0  0
 32 33  2  0  0  0  0
 32 34  5  0  0  0  0
 33 35  5  0  0  0  0
 34 36  2  0  0  0  0
 35 37  2  0  0  0  0
 36 37  5  0  0  0  0
M  END
>  <ID>
EDEL-CRBN-0014

>  <Stereoisomer>
original

>  <MW>
492.24

>  <HBD>
1

>  <HBA>
6

>  <RotBonds>
4

>  <cLogP>
3.99

>  <minimizedAffinity>
-8.47006

>  <CNNscore>
0.6648172736

>  <CNNaffinity>
6.6238293648

>  <CNN_VS>
4.4036359787

>  <CNNaffinity_variance>
0.1652669460

$$$$
