EDEL-CRBN-0002
 OpenBabel09062620533D

 30 32  0  0  0  0  0  0  0  0999 V2000
   84.3227  154.3472   13.7373 C   0  0  0  0  0  0  0  0  0  0  0  0
   85.1017  153.3821   13.0721 C   0  0  0  0  0  0  0  0  0  0  0  0
   83.1613  153.9262   14.4088 C   0  0  0  0  0  0  0  0  0  0  0  0
   84.7193  152.0363   13.0889 C   0  0  0  0  0  0  0  0  0  0  0  0
   82.7866  152.5714   14.4580 C   0  0  0  0  0  0  0  0  0  0  0  0
   83.5768  151.6349   13.7828 C   0  0  0  0  0  0  0  0  0  0  0  0
   84.2712  156.0728   11.4348 O   0  0  0  0  0  0  0  0  0  0  0  0
   84.5668  156.4888   12.5527 C   0  0  0  0  0  0  0  0  0  0  0  0
   84.6744  155.7333   13.7211 N   0  0  0  0  0  0  0  0  0  0  0  0
   84.8771  157.8229   12.6952 N   0  0  0  0  0  0  0  0  0  0  0  0
   85.4205  156.2963   14.8353 C   0  0  0  0  0  0  0  0  0  0  0  0
   85.0300  158.5164   13.8642 C   0  0  0  0  0  0  0  0  0  0  0  0
   84.9472  157.7049   15.1230 C   0  0  0  0  0  0  0  0  0  0  0  0
   85.1635  159.7372   13.8757 O   0  0  0  0  0  0  0  0  0  0  0  0
   85.0028  158.3343   11.8634 H   0  0  0  0  0  0  0  0  0  0  0  0
   86.1379  153.8033   12.2728 O   0  0  0  0  0  0  0  0  0  0  0  0
   86.9472  152.7293   11.7952 C   0  0  0  0  0  0  0  0  0  0  0  0
   81.5418  152.1416   15.2101 C   0  0  0  0  0  0  0  0  0  0  0  0
   81.7234  151.2063   16.3406 N   0  0  0  0  0  0  0  0  0  0  0  0
   81.8044  149.7767   15.9223 C   0  0  1  0  0  0  0  0  0  0  0  0
   82.8118  151.6269   17.2325 C   0  0  0  0  0  0  0  0  0  0  0  0
   81.9671  148.7217   17.0519 C   0  0  0  0  0  0  0  0  0  0  0  0
   82.6995  151.0122   18.6266 C   0  0  0  0  0  0  0  0  0  0  0  0
   83.2939  148.7268   17.6755 N   0  0  0  0  0  0  0  0  0  0  0  0
   83.4129  149.6714   18.7802 C   0  0  0  0  0  0  0  0  0  0  0  0
   83.9837  148.9719   16.9652 H   0  0  0  0  0  0  0  0  0  0  0  0
   80.5302  149.3697   15.1725 C   0  0  0  0  0  0  0  0  0  0  0  0
   80.4539  149.0876   13.9852 O   0  0  0  0  0  0  0  0  0  0  0  0
   79.4147  149.3576   15.9342 O   0  0  0  0  0  0  0  0  0  0  0  0
   79.4666  149.5728   16.8447 H   0  0  0  0  0  0  0  0  0  0  0  0
  1  9  1  0  0  0  0
  1  2  2  0  0  0  0
  1  3  5  0  0  0  0
  2 16  1  0  0  0  0
  2  4  5  0  0  0  0
  3  5  2  0  0  0  0
  4  6  2  0  0  0  0
  5 18  1  0  0  0  0
  5  6  5  0  0  0  0
  7  8  2  0  0  0  0
  8  9  1  0  0  0  0
  8 10  1  0  0  0  0
  9 11  1  0  0  0  0
 10 12  1  0  0  0  0
 10 15  1  0  0  0  0
 11 13  1  0  0  0  0
 12 14  2  0  0  0  0
 12 13  1  0  0  0  0
 16 17  1  0  0  0  0
 18 19  1  0  0  0  0
 19 20  1  0  0  0  0
 19 21  1  0  0  0  0
 20 27  1  1  0  0  0
 20 22  1  0  0  0  0
 21 23  1  0  0  0  0
 22 24  1  0  0  0  0
 23 25  1  0  0  0  0
 24 25  1  0  0  0  0
 24 26  1  0  0  0  0
 27 28  2  0  0  0  0
 27 29  1  0  0  0  0
 29 30  1  0  0  0  0
M  END
>  <ID>
EDEL-CRBN-0002

>  <Stereoisomer>
original

>  <MW>
376.17

>  <HBD>
3

>  <HBA>
6

>  <RotBonds>
5

>  <cLogP>
0.39

>  <minimizedAffinity>
-8.46224

>  <CNNscore>
0.9051148295

>  <CNNaffinity>
6.8049044609

>  <CNN_VS>
6.1592197418

>  <CNNaffinity_variance>
0.0912517235

$$$$
