EDEL-CRBN-0005_ent
 OpenBabel09062620533D

 32 36  0  0  0  0  0  0  0  0999 V2000
   85.5709  149.0583   13.0197 O   0  0  0  0  0  0  0  0  0  0  0  0
   85.0989  149.6338   14.0029 C   0  0  0  0  0  0  0  0  0  0  0  0
   85.9407  150.3955   14.7557 N   0  0  0  0  0  0  0  0  0  0  0  0
   83.6640  149.3988   14.4523 C   0  0  1  0  0  0  0  0  0  0  0  0
   85.5582  151.3251   15.7896 C   0  0  0  0  0  0  0  0  0  0  0  0
   82.8670  150.4754   15.2052 C   0  0  1  0  0  0  0  0  0  0  0  0
   82.7687  149.0228   13.2561 C   0  0  0  0  0  0  0  0  0  0  0  0
   84.5758  152.3268   15.2425 C   0  0  0  0  0  0  0  0  0  0  0  0
   83.2756  151.9087   14.8954 C   0  0  0  0  0  0  0  0  0  0  0  0
   81.4249  150.0558   14.8796 C   0  0  0  0  0  0  0  0  0  0  0  0
   81.4937  149.7279   13.4568 N   0  0  0  0  0  0  0  0  0  0  0  0
   84.9827  153.6540   15.0071 C   0  0  0  0  0  0  0  0  0  0  0  0
   82.4205  152.8464   14.3103 C   0  0  0  0  0  0  0  0  0  0  0  0
   84.1228  154.5995   14.4350 C   0  0  0  0  0  0  0  0  0  0  0  0
   82.8375  154.1660   14.0850 C   0  0  0  0  0  0  0  0  0  0  0  0
   86.9043  150.3024   14.5763 H   0  0  0  0  0  0  0  0  0  0  0  0
   84.5523  155.9491   14.1906 N   0  0  0  0  0  0  0  0  0  0  0  0
   84.6030  156.4901   12.9006 C   0  0  0  0  0  0  0  0  0  0  0  0
   85.1707  156.7138   15.2704 C   0  0  0  0  0  0  0  0  0  0  0  0
   84.2874  155.9295   11.8539 O   0  0  0  0  0  0  0  0  0  0  0  0
   85.0677  157.7824   12.8238 N   0  0  0  0  0  0  0  0  0  0  0  0
   84.7722  158.1729   15.1988 C   0  0  0  0  0  0  0  0  0  0  0  0
   85.0834  158.7022   13.8339 C   0  0  0  0  0  0  0  0  0  0  0  0
   85.2626  159.8967   13.6141 O   0  0  0  0  0  0  0  0  0  0  0  0
   85.4247  158.0737   11.9539 H   0  0  0  0  0  0  0  0  0  0  0  0
   80.3428  148.9758   12.9580 C   0  0  0  0  0  0  0  0  0  0  0  0
   79.0748  149.2759   13.7285 C   0  0  0  0  0  0  0  0  0  0  0  0
   79.0368  150.3104   14.6738 C   0  0  0  0  0  0  0  0  0  0  0  0
   77.9146  148.5189   13.5044 C   0  0  0  0  0  0  0  0  0  0  0  0
   77.8628  150.5807   15.3796 C   0  0  0  0  0  0  0  0  0  0  0  0
   76.7422  148.7905   14.2106 C   0  0  0  0  0  0  0  0  0  0  0  0
   76.7171  149.8210   15.1482 C   0  0  0  0  0  0  0  0  0  0  0  0
  1  2  2  0  0  0  0
  2  3  1  0  0  0  0
  3  5  1  0  0  0  0
  3 16  1  0  0  0  0
  4  2  1  0  0  0  0
  4  6  1  0  0  0  0
  4  7  1  6  0  0  0
  6  9  1  0  0  0  0
  6 10  1  6  0  0  0
  7 11  1  0  0  0  0
  8  5  1  0  0  0  0
  8 12  2  0  0  0  0
  8  9  5  0  0  0  0
  9 13  2  0  0  0  0
 10 11  1  0  0  0  0
 11 26  1  0  0  0  0
 13 15  5  0  0  0  0
 14 12  5  0  0  0  0
 14 17  1  0  0  0  0
 14 15  2  0  0  0  0
 17 18  1  0  0  0  0
 17 19  1  0  0  0  0
 18 20  2  0  0  0  0
 18 21  1  0  0  0  0
 19 22  1  0  0  0  0
 21 23  1  0  0  0  0
 21 25  1  0  0  0  0
 22 23  1  0  0  0  0
 23 24  2  0  0  0  0
 26 27  1  0  0  0  0
 27 28  2  0  0  0  0
 27 29  5  0  0  0  0
 28 30  5  0  0  0  0
 29 31  2  0  0  0  0
 30 32  2  0  0  0  0
 31 32  5  0  0  0  0
M  END
>  <ID>
EDEL-CRBN-0005_ent

>  <Stereoisomer>
enantiomer

>  <MW>
404.18

>  <HBD>
2

>  <HBA>
4

>  <RotBonds>
3

>  <cLogP>
1.98

>  <minimizedAffinity>
-10.21305

>  <CNNscore>
0.8760065436

>  <CNNaffinity>
7.1399464607

>  <CNN_VS>
6.2546396255

>  <CNNaffinity_variance>
0.0545090139

$$$$
