EDEL-CRBN-0001_ent
 OpenBabel09062620533D

 28 30  0  0  0  0  0  0  0  0999 V2000
   84.1434  154.8128   13.7044 C   0  0  0  0  0  0  0  0  0  0  0  0
   84.8634  153.7869   13.0711 C   0  0  0  0  0  0  0  0  0  0  0  0
   82.9113  154.4668   14.2829 C   0  0  0  0  0  0  0  0  0  0  0  0
   84.3910  152.4610   13.0241 C   0  0  0  0  0  0  0  0  0  0  0  0
   82.4262  153.1549   14.2422 C   0  0  0  0  0  0  0  0  0  0  0  0
   83.1626  152.1562   13.6165 C   0  0  0  0  0  0  0  0  0  0  0  0
   84.2940  156.7579   11.5004 O   0  0  0  0  0  0  0  0  0  0  0  0
   84.6948  157.0027   12.6348 C   0  0  0  0  0  0  0  0  0  0  0  0
   84.6353  156.1631   13.7564 N   0  0  0  0  0  0  0  0  0  0  0  0
   85.2020  158.2595   12.8806 N   0  0  0  0  0  0  0  0  0  0  0  0
   85.2760  156.6597   14.9725 C   0  0  0  0  0  0  0  0  0  0  0  0
   85.0716  158.9227   14.0698 C   0  0  0  0  0  0  0  0  0  0  0  0
   84.8047  158.0656   15.2727 C   0  0  0  0  0  0  0  0  0  0  0  0
   85.0974  160.1489   14.1283 O   0  0  0  0  0  0  0  0  0  0  0  0
   85.6899  158.7095   12.1535 H   0  0  0  0  0  0  0  0  0  0  0  0
   85.1946  151.3848   12.3205 C   0  0  0  0  0  0  0  0  0  0  0  0
   86.6515  151.5591   12.4744 N   0  0  0  0  0  0  0  0  0  0  0  0
   87.2252  150.5683   13.4277 C   0  0  2  0  0  0  0  0  0  0  0  0
   87.3421  151.6679   11.1842 C   0  0  0  0  0  0  0  0  0  0  0  0
   88.7551  150.6389   13.6800 C   0  0  0  0  0  0  0  0  0  0  0  0
   88.7036  152.3472   11.3337 C   0  0  0  0  0  0  0  0  0  0  0  0
   89.6225  150.2957   12.5469 N   0  0  0  0  0  0  0  0  0  0  0  0
   89.8660  151.4050   11.6345 C   0  0  0  0  0  0  0  0  0  0  0  0
   89.1825  149.5392   12.0229 H   0  0  0  0  0  0  0  0  0  0  0  0
   86.7889  149.1267   13.1416 C   0  0  0  0  0  0  0  0  0  0  0  0
   85.8407  148.5551   13.6604 O   0  0  0  0  0  0  0  0  0  0  0  0
   87.5057  148.4933   12.1888 O   0  0  0  0  0  0  0  0  0  0  0  0
   88.2338  148.9242   11.7862 H   0  0  0  0  0  0  0  0  0  0  0  0
  1  9  1  0  0  0  0
  1  2  2  0  0  0  0
  1  3  5  0  0  0  0
  2  4  5  0  0  0  0
  3  5  2  0  0  0  0
  4  6  2  0  0  0  0
  4 16  1  0  0  0  0
  5  6  5  0  0  0  0
  7  8  2  0  0  0  0
  8  9  1  0  0  0  0
  8 10  1  0  0  0  0
  9 11  1  0  0  0  0
 10 12  1  0  0  0  0
 10 15  1  0  0  0  0
 11 13  1  0  0  0  0
 12 14  2  0  0  0  0
 12 13  1  0  0  0  0
 16 17  1  0  0  0  0
 17 18  1  0  0  0  0
 17 19  1  0  0  0  0
 18 25  1  6  0  0  0
 18 20  1  0  0  0  0
 19 21  1  0  0  0  0
 20 22  1  0  0  0  0
 21 23  1  0  0  0  0
 22 23  1  0  0  0  0
 22 24  1  0  0  0  0
 25 26  2  0  0  0  0
 25 27  1  0  0  0  0
 27 28  1  0  0  0  0
M  END
>  <ID>
EDEL-CRBN-0001_ent

>  <Stereoisomer>
enantiomer

>  <MW>
346.16

>  <HBD>
3

>  <HBA>
5

>  <RotBonds>
4

>  <cLogP>
0.38

>  <minimizedAffinity>
-8.26589

>  <CNNscore>
0.9102458358

>  <CNNaffinity>
6.7187666893

>  <CNN_VS>
6.1157293320

>  <CNNaffinity_variance>
0.1335707158

$$$$
