EDEL-CRBN-0016
 OpenBabel09062620533D

 39 43  0  0  0  0  0  0  0  0999 V2000
   84.7514  153.9843   13.2628 C   0  0  0  0  0  0  0  0  0  0  0  0
   83.7161  153.1961   13.8089 C   0  0  0  0  0  0  0  0  0  0  0  0
   85.8118  153.3298   12.5750 C   0  0  0  0  0  0  0  0  0  0  0  0
   83.7887  151.8215   13.6848 C   0  0  0  0  0  0  0  0  0  0  0  0
   85.8533  151.9376   12.4104 C   0  0  0  0  0  0  0  0  0  0  0  0
   84.8421  151.1985   12.9834 C   0  0  0  0  0  0  0  0  0  0  0  0
   82.8870  150.7359   14.2235 C   0  0  1  0  0  0  0  0  0  0  0  0
   84.6265  149.7039   13.0611 C   0  0  2  0  0  0  0  0  0  0  0  0
   83.1809  149.6689   13.2691 N   0  0  0  0  0  0  0  0  0  0  0  0
   83.4104  150.2453   15.6159 C   0  0  0  0  0  0  0  0  0  0  0  0
   85.2732  149.1282   14.3657 C   0  0  0  0  0  0  0  0  0  0  0  0
   82.3987  148.5533   13.1742 C   0  0  0  0  0  0  0  0  0  0  0  0
   84.8597  149.8473   15.6099 N   0  0  0  0  0  0  0  0  0  0  0  0
   81.2808  148.4698   13.6631 O   0  0  0  0  0  0  0  0  0  0  0  0
   84.4446  155.8311   11.1041 O   0  0  0  0  0  0  0  0  0  0  0  0
   84.5973  156.2155   12.2599 C   0  0  0  0  0  0  0  0  0  0  0  0
   84.7095  155.4092   13.3894 N   0  0  0  0  0  0  0  0  0  0  0  0
   84.6315  157.5683   12.5114 N   0  0  0  0  0  0  0  0  0  0  0  0
   84.4837  156.0110   14.6935 C   0  0  0  0  0  0  0  0  0  0  0  0
   85.0246  158.1792   13.6709 C   0  0  0  0  0  0  0  0  0  0  0  0
   85.3144  157.2694   14.8300 C   0  0  0  0  0  0  0  0  0  0  0  0
   85.1963  159.3939   13.7311 O   0  0  0  0  0  0  0  0  0  0  0  0
   84.3422  158.1593   11.7791 H   0  0  0  0  0  0  0  0  0  0  0  0
   82.6305  153.7336   14.4446 O   0  0  0  0  0  0  0  0  0  0  0  0
   81.7828  152.7007   14.9459 C   0  0  0  0  0  0  0  0  0  0  0  0
   86.8681  154.0450   12.0551 O   0  0  0  0  0  0  0  0  0  0  0  0
   87.7819  153.1495   11.4144 C   0  0  0  0  0  0  0  0  0  0  0  0
   83.0251  147.5661   12.4857 O   0  0  0  0  0  0  0  0  0  0  0  0
   83.1953  146.2469   13.0638 C   0  0  0  0  0  0  0  0  0  0  0  0
   82.1443  145.2647   12.5358 C   0  0  0  0  0  0  0  0  0  0  0  0
   83.2076  146.3092   14.5951 C   0  0  0  0  0  0  0  0  0  0  0  0
   84.5804  145.7891   12.5814 C   0  0  0  0  0  0  0  0  0  0  0  0
   85.2489  149.1084   16.8160 C   0  0  0  0  0  0  0  0  0  0  0  0
   84.3417  149.3503   18.0041 C   0  0  0  0  0  0  0  0  0  0  0  0
   84.1841  148.3629   18.9878 C   0  0  0  0  0  0  0  0  0  0  0  0
   83.6758  150.5753   18.1655 C   0  0  0  0  0  0  0  0  0  0  0  0
   83.3655  148.5897   20.0962 C   0  0  0  0  0  0  0  0  0  0  0  0
   82.8543  150.7986   19.2712 C   0  0  0  0  0  0  0  0  0  0  0  0
   82.6998  149.8060   20.2364 C   0  0  0  0  0  0  0  0  0  0  0  0
  1 17  1  0  0  0  0
  1  2  2  0  0  0  0
  1  3  5  0  0  0  0
  2 24  1  0  0  0  0
  2  4  5  0  0  0  0
  3 26  1  0  0  0  0
  3  5  2  0  0  0  0
  4  6  2  0  0  0  0
  4  7  1  0  0  0  0
  5  6  5  0  0  0  0
  6  8  1  0  0  0  0
  7  9  1  0  0  0  0
  7 10  1  1  0  0  0
  8 11  1  1  0  0  0
  8  9  1  0  0  0  0
  9 12  1  0  0  0  0
 10 13  1  0  0  0  0
 11 13  1  0  0  0  0
 12 14  2  0  0  0  0
 12 28  1  0  0  0  0
 13 33  1  0  0  0  0
 15 16  2  0  0  0  0
 16 17  1  0  0  0  0
 16 18  1  0  0  0  0
 17 19  1  0  0  0  0
 18 20  1  0  0  0  0
 18 23  1  0  0  0  0
 19 21  1  0  0  0  0
 20 22  2  0  0  0  0
 20 21  1  0  0  0  0
 24 25  1  0  0  0  0
 26 27  1  0  0  0  0
 28 29  1  0  0  0  0
 29 30  1  0  0  0  0
 29 31  1  0  0  0  0
 29 32  1  0  0  0  0
 33 34  1  0  0  0  0
 34 35  2  0  0  0  0
 34 36  5  0  0  0  0
 35 37  5  0  0  0  0
 36 38  2  0  0  0  0
 37 39  2  0  0  0  0
 38 39  5  0  0  0  0
M  END
>  <ID>
EDEL-CRBN-0016

>  <Stereoisomer>
original

>  <MW>
522.25

>  <HBD>
1

>  <HBA>
7

>  <RotBonds>
5

>  <cLogP>
4.0

>  <minimizedAffinity>
-8.30065

>  <CNNscore>
0.7572116852

>  <CNNaffinity>
6.2036767006

>  <CNN_VS>
4.6974964142

>  <CNNaffinity_variance>
0.7517269254

$$$$
