EDEL-CRBN-0007_ent
 OpenBabel09062620533D

 34 38  0  0  0  0  0  0  0  0999 V2000
   82.6857  148.6801   12.9453 O   0  0  0  0  0  0  0  0  0  0  0  0
   83.4733  149.2730   13.6843 C   0  0  0  0  0  0  0  0  0  0  0  0
   82.9768  150.2089   14.5339 N   0  0  0  0  0  0  0  0  0  0  0  0
   84.9443  148.9201   13.7072 C   0  0  1  0  0  0  0  0  0  0  0  0
   83.7455  151.1340   15.3231 C   0  0  0  0  0  0  0  0  0  0  0  0
   86.0085  150.0349   13.6935 C   0  0  1  0  0  0  0  0  0  0  0  0
   85.2903  148.0468   14.9120 C   0  0  0  0  0  0  0  0  0  0  0  0
   84.5639  152.0356   14.4403 C   0  0  0  0  0  0  0  0  0  0  0  0
   85.6148  151.4990   13.6701 C   0  0  0  0  0  0  0  0  0  0  0  0
   86.9204  149.7066   14.8902 C   0  0  0  0  0  0  0  0  0  0  0  0
   86.7313  148.2675   15.0883 N   0  0  0  0  0  0  0  0  0  0  0  0
   84.2799  153.4195   14.3553 C   0  0  0  0  0  0  0  0  0  0  0  0
   86.3709  152.3695   12.8696 C   0  0  0  0  0  0  0  0  0  0  0  0
   85.0795  154.3026   13.5978 C   0  0  0  0  0  0  0  0  0  0  0  0
   86.1109  153.7424   12.8383 C   0  0  0  0  0  0  0  0  0  0  0  0
   81.9972  150.2591   14.6178 H   0  0  0  0  0  0  0  0  0  0  0  0
   84.9086  155.7288   13.6152 N   0  0  0  0  0  0  0  0  0  0  0  0
   85.0650  156.5027   12.4651 C   0  0  0  0  0  0  0  0  0  0  0  0
   84.4351  156.3855   14.8292 C   0  0  0  0  0  0  0  0  0  0  0  0
   85.3178  156.0862   11.3376 O   0  0  0  0  0  0  0  0  0  0  0  0
   84.9083  157.8562   12.6457 N   0  0  0  0  0  0  0  0  0  0  0  0
   85.1789  157.6856   15.0543 C   0  0  0  0  0  0  0  0  0  0  0  0
   85.0761  158.5325   13.8218 C   0  0  0  0  0  0  0  0  0  0  0  0
   85.2165  159.7520   13.8470 O   0  0  0  0  0  0  0  0  0  0  0  0
   84.6521  158.3865   11.8568 H   0  0  0  0  0  0  0  0  0  0  0  0
   83.1626  153.8829   15.0179 O   0  0  0  0  0  0  0  0  0  0  0  0
   82.0080  153.7195   14.1847 C   0  0  0  0  0  0  0  0  0  0  0  0
   87.2323  147.8185   16.3910 C   0  0  0  0  0  0  0  0  0  0  0  0
   88.3623  148.6755   16.9185 C   0  0  0  0  0  0  0  0  0  0  0  0
   89.1914  148.2117   17.9500 C   0  0  0  0  0  0  0  0  0  0  0  0
   88.5915  149.9544   16.3889 C   0  0  0  0  0  0  0  0  0  0  0  0
   90.2281  149.0098   18.4381 C   0  0  0  0  0  0  0  0  0  0  0  0
   89.6283  150.7503   16.8776 C   0  0  0  0  0  0  0  0  0  0  0  0
   90.4458  150.2779   17.9024 C   0  0  0  0  0  0  0  0  0  0  0  0
  1  2  2  0  0  0  0
  2  3  1  0  0  0  0
  3  5  1  0  0  0  0
  3 16  1  0  0  0  0
  4  2  1  0  0  0  0
  4  6  1  0  0  0  0
  4  7  1  1  0  0  0
  6  9  1  0  0  0  0
  6 10  1  1  0  0  0
  7 11  1  0  0  0  0
  8  5  1  0  0  0  0
  8 12  2  0  0  0  0
  8  9  5  0  0  0  0
  9 13  2  0  0  0  0
 10 11  1  0  0  0  0
 11 28  1  0  0  0  0
 12 26  1  0  0  0  0
 12 14  5  0  0  0  0
 13 15  5  0  0  0  0
 14 17  1  0  0  0  0
 14 15  2  0  0  0  0
 17 18  1  0  0  0  0
 17 19  1  0  0  0  0
 18 20  2  0  0  0  0
 18 21  1  0  0  0  0
 19 22  1  0  0  0  0
 21 23  1  0  0  0  0
 21 25  1  0  0  0  0
 22 23  1  0  0  0  0
 23 24  2  0  0  0  0
 26 27  1  0  0  0  0
 28 29  1  0  0  0  0
 29 30  2  0  0  0  0
 29 31  5  0  0  0  0
 30 32  5  0  0  0  0
 31 33  2  0  0  0  0
 32 34  2  0  0  0  0
 33 34  5  0  0  0  0
M  END
>  <ID>
EDEL-CRBN-0007_ent

>  <Stereoisomer>
enantiomer

>  <MW>
434.2

>  <HBD>
2

>  <HBA>
5

>  <RotBonds>
4

>  <cLogP>
1.99

>  <minimizedAffinity>
-8.04891

>  <CNNscore>
0.8514083028

>  <CNNaffinity>
6.5744991302

>  <CNN_VS>
5.5975832939

>  <CNNaffinity_variance>
0.3581138551

$$$$
