EDEL-CRBN-0015
 OpenBabel09062620533D

 37 41  0  0  0  0  0  0  0  0999 V2000
   84.6933  151.1360   13.2522 C   0  0  0  0  0  0  0  0  0  0  0  0
   85.8064  151.8369   12.7358 C   0  0  0  0  0  0  0  0  0  0  0  0
   83.6910  151.9189   13.8514 C   0  0  0  0  0  0  0  0  0  0  0  0
   85.9196  153.2341   12.7913 C   0  0  0  0  0  0  0  0  0  0  0  0
   83.7861  153.3155   13.9365 C   0  0  0  0  0  0  0  0  0  0  0  0
   84.8949  153.9868   13.3964 C   0  0  0  0  0  0  0  0  0  0  0  0
   84.2510  148.5417   17.3199 N   0  0  0  0  0  0  0  0  0  0  0  0
   84.9950  149.6465   16.6913 C   0  0  0  0  0  0  0  0  0  0  0  0
   83.8329  147.5014   16.3616 C   0  0  0  0  0  0  0  0  0  0  0  0
   85.8169  149.1715   15.4967 C   0  0  0  0  0  0  0  0  0  0  0  0
   83.5850  148.0424   14.9568 C   0  0  0  0  0  0  0  0  0  0  0  0
   84.8701  148.6638   14.4001 C   0  0  2  0  0  0  0  0  0  0  0  0
   85.5849  147.6987   13.5577 O   0  0  0  0  0  0  0  0  0  0  0  0
   84.6214  149.5527   13.1349 C   0  0  2  0  0  0  0  0  0  0  0  0
   85.7638  148.7157   12.5369 C   0  0  0  0  0  0  0  0  0  0  0  0
   83.1375  149.0679   18.1284 C   0  0  0  0  0  0  0  0  0  0  0  0
   86.2880  147.7121   22.0775 Cl  0  0  0  0  0  0  0  0  0  0  0  0
   84.7973  148.3372   21.4824 C   0  0  0  0  0  0  0  0  0  0  0  0
   84.5762  148.4588   20.1099 C   0  0  0  0  0  0  0  0  0  0  0  0
   83.8069  148.7195   22.3864 C   0  0  0  0  0  0  0  0  0  0  0  0
   85.5289  148.0796   19.2423 F   0  0  0  0  0  0  0  0  0  0  0  0
   83.3706  148.9716   19.6184 C   0  0  0  0  0  0  0  0  0  0  0  0
   82.5938  149.2198   21.9124 C   0  0  0  0  0  0  0  0  0  0  0  0
   82.3749  149.3401   20.5378 C   0  0  0  0  0  0  0  0  0  0  0  0
   85.0001  155.4087   13.4561 N   0  0  0  0  0  0  0  0  0  0  0  0
   84.9395  156.1922   12.3103 C   0  0  0  0  0  0  0  0  0  0  0  0
   85.5175  155.9982   14.6815 C   0  0  0  0  0  0  0  0  0  0  0  0
   84.5931  155.8158   11.1926 O   0  0  0  0  0  0  0  0  0  0  0  0
   85.2155  157.5250   12.5122 N   0  0  0  0  0  0  0  0  0  0  0  0
   84.8624  157.3396   14.9218 C   0  0  0  0  0  0  0  0  0  0  0  0
   85.0249  158.1914   13.6926 C   0  0  0  0  0  0  0  0  0  0  0  0
   84.9137  159.4147   13.7245 O   0  0  0  0  0  0  0  0  0  0  0  0
   85.5764  158.0365   11.7524 H   0  0  0  0  0  0  0  0  0  0  0  0
   86.9956  153.9370   12.3045 O   0  0  0  0  0  0  0  0  0  0  0  0
   87.8194  153.2989   11.3369 C   0  0  0  0  0  0  0  0  0  0  0  0
   82.7254  154.0536   14.4065 O   0  0  0  0  0  0  0  0  0  0  0  0
   81.7287  153.2476   15.0358 C   0  0  0  0  0  0  0  0  0  0  0  0
  1  2  2  0  0  0  0
  1  3  5  0  0  0  0
  2  4  5  0  0  0  0
  3  5  2  0  0  0  0
  4 34  1  0  0  0  0
  4  6  2  0  0  0  0
  5 36  1  0  0  0  0
  5  6  5  0  0  0  0
  6 25  1  0  0  0  0
  7  8  1  0  0  0  0
  7  9  1  0  0  0  0
  8 10  1  0  0  0  0
  9 11  1  0  0  0  0
 12 11  1  1  0  0  0
 12 10  1  0  0  0  0
 12 13  1  0  0  0  0
 12 14  1  0  0  0  0
 13 15  1  0  0  0  0
 14  1  1  1  0  0  0
 14 15  1  0  0  0  0
 16  7  1  0  0  0  0
 18 17  1  0  0  0  0
 18 19  2  0  0  0  0
 18 20  5  0  0  0  0
 19 21  1  0  0  0  0
 19 22  5  0  0  0  0
 20 23  2  0  0  0  0
 22 24  2  0  0  0  0
 22 16  1  0  0  0  0
 23 24  5  0  0  0  0
 25 26  1  0  0  0  0
 25 27  1  0  0  0  0
 26 28  2  0  0  0  0
 26 29  1  0  0  0  0
 27 30  1  0  0  0  0
 29 31  1  0  0  0  0
 29 33  1  0  0  0  0
 30 31  1  0  0  0  0
 31 32  2  0  0  0  0
 34 35  1  0  0  0  0
 36 37  1  0  0  0  0
M  END
>  <ID>
EDEL-CRBN-0015

>  <Stereoisomer>
original

>  <MW>
517.18

>  <HBD>
1

>  <HBA>
6

>  <RotBonds>
6

>  <cLogP>
4.09

>  <minimizedAffinity>
-8.21368

>  <CNNscore>
0.7422246933

>  <CNNaffinity>
6.2853775024

>  <CNN_VS>
4.6651625633

>  <CNNaffinity_variance>
0.9611489773

$$$$
