EL2003A_MD_final
     RDKit          3D

 37 41  0  0  0  0  0  0  0  0999 V2000
   -6.9204   39.9023   45.5502 C   0  0  0  0  0  0  0  0  0  0  0  0
   -5.9382   40.9094   45.4453 N   0  0  0  0  0  0  0  0  0  0  0  0
   -8.1993   40.0790   45.1364 N   0  0  0  0  0  0  0  0  0  0  0  0
   -6.2702   42.0692   44.8334 C   0  0  0  0  0  0  0  0  0  0  0  0
   -8.5197   41.2928   44.6887 C   0  0  0  0  0  0  0  0  0  0  0  0
   -7.6313   42.2631   44.4624 C   0  0  0  0  0  0  0  0  0  0  0  0
   -9.6575   41.7616   43.9121 N   0  0  0  0  0  0  0  0  0  0  0  0
   -8.5021   43.0928   43.7812 N   0  0  0  0  0  0  0  0  0  0  0  0
   -9.6642   43.0989   43.4152 C   0  0  0  0  0  0  0  0  0  0  0  0
  -10.3900   41.1005   43.6873 H   0  0  0  0  0  0  0  0  0  0  0  0
   -6.6448   38.7167   46.2768 N   0  0  0  0  0  0  0  0  0  0  0  0
   -7.4075   38.0731   46.4333 H   0  0  0  0  0  0  0  0  0  0  0  0
   -3.0387   37.5116   46.1421 C   0  0  0  0  0  0  0  0  0  0  0  0
   -4.2252   38.2002   45.7352 C   0  0  0  0  0  0  0  0  0  0  0  0
   -3.0666   37.3041   47.5861 C   0  0  0  0  0  0  0  0  0  0  0  0
   -5.3810   38.0596   46.5509 C   0  0  0  0  0  0  0  0  0  0  0  0
   -4.1155   37.0302   48.2613 C   0  0  0  0  0  0  0  0  0  0  0  0
   -5.1910   37.4199   47.8095 C   0  0  0  0  0  0  0  0  0  0  0  0
   -1.3861   39.5083   44.8297 O   0  0  0  0  0  0  0  0  0  0  0  0
   -1.8928   39.7453   45.9033 C   0  0  0  0  0  0  0  0  0  0  0  0
   -1.7651   40.9962   46.6348 N   0  0  0  0  0  0  0  0  0  0  0  0
   -2.7343   38.7963   46.5687 N   0  0  0  0  0  0  0  0  0  0  0  0
   -1.9264   42.1295   46.0135 C   0  0  0  0  0  0  0  0  0  0  0  0
   -0.7140   41.7997   46.3446 C   0  0  0  0  0  0  0  0  0  0  0  0
   -1.4564   43.1548   45.5611 C   0  0  0  0  0  0  0  0  0  0  0  0
   -0.3135   42.8379   45.8819 C   0  0  0  0  0  0  0  0  0  0  0  0
   -3.2645   39.1570   47.3439 H   0  0  0  0  0  0  0  0  0  0  0  0
   -5.2539   42.9573   44.6410 N   0  0  0  0  0  0  0  0  0  0  0  0
   -4.2983   42.6302   44.7176 H   0  0  0  0  0  0  0  0  0  0  0  0
   -5.3214   44.2230   44.3387 C   0  0  0  0  0  0  0  0  0  0  0  0
   -5.3677   45.4344   44.0102 C   0  0  0  0  0  0  0  0  0  0  0  0
   -6.5468   46.2000   43.6592 C   0  0  0  0  0  0  0  0  0  0  0  0
   -6.5792   47.5367   44.2093 N   0  0  0  0  0  0  0  0  0  0  0  0
   -6.4197   46.8644   42.4675 C   0  0  0  0  0  0  0  0  0  0  0  0
   -6.4940   48.6978   43.4739 C   0  0  0  0  0  0  0  0  0  0  0  0
   -6.4514   48.0499   42.4254 N   0  0  0  0  0  0  0  0  0  0  0  0
   -6.6027   47.5796   45.2176 H   0  0  0  0  0  0  0  0  0  0  0  0
 19 20  2  0
 20 21  1  0
 20 22  1  0
 21 23  1  0
 21 24  1  0
 22 13  1  0
 23 25  1  0
 24 26  1  0
 13 14  2  0
 13 15  1  0
 14 16  1  0
 15 17  2  0
 16 11  1  0
 16 18  2  0
 11  1  1  0
  1  2  2  0
  1  3  1  0
  2  4  1  0
  3  5  2  0
  4 28  1  0
  4  6  2  0
  5  7  1  0
 28 30  1  0
  6  8  1  0
  7  9  1  0
 30 31  1  0
 31 32  1  0
 32 33  1  0
 32 34  2  0
 33 35  1  0
 34 36  1  0
 25 26  1  0
 17 18  1  0
  5  6  1  0
  8  9  2  0
 35 36  2  0
 22 27  1  0
 11 12  1  0
 28 29  1  0
  7 10  1  0
 33 37  1  0
M  END
>  <Source>  (1) 
EL2003A pose2, GROMACS 1 ns MD, last frame t=1000 ps

>  <Aligned_to>  (1) 
receptor_pH74_noH.pdb

>  <Ca_RMSD_A>  (1) 
2.241

>  <MD_time_ps>  (1) 
1000

>  <pIC50_PDK>  (1) 
7.9

>  <dG_bind_kcalmol>  (1) 
-44.51

>  <method>  (1) 
MM-GBSA OBC2 1-traj 1 ns GROMACS AMBER03+GAFF2

$$$$
