BX912


 34 37  0  0  0  0  0  0  0  0999 V2000
   -9.0634   45.3846   42.8389 Br  0  0  0  0  0  0  0  0  0  0  0  0
   -8.3047   43.7770   43.4742 C   0  0  0  0  0  0  0  0  0  0  0  0
   -7.0456   43.6988   44.0509 C   0  0  0  0  0  0  0  0  0  0  0  0
   -8.9911   42.5923   43.3503 C   0  0  0  0  0  0  0  0  0  0  0  0
   -6.5603   42.5215   44.4977 N   0  0  0  0  0  0  0  0  0  0  0  0
   -8.5122   41.4049   43.7700 N   0  0  0  0  0  0  0  0  0  0  0  0
   -7.3118   41.4148   44.3636 C   0  0  0  0  0  0  0  0  0  0  0  0
   -6.2822   44.8677   44.2405 N   0  0  0  0  0  0  0  0  0  0  0  0
   -6.8128   45.6882   43.9571 H   0  0  0  0  0  0  0  0  0  0  0  0
   -4.9220   44.8533   43.6935 C   0  0  0  0  0  0  0  0  0  0  0  0
   -4.5707   46.1746   42.9862 C   0  0  0  0  0  0  0  0  0  0  0  0
   -3.5107   46.9338   43.7003 C   0  0  0  0  0  0  0  0  0  0  0  0
   -2.2123   46.4905   43.7722 N   0  0  0  0  0  0  0  0  0  0  0  0
   -3.5118   48.1262   44.3891 C   0  0  0  0  0  0  0  0  0  0  0  0
   -1.5040   47.4078   44.4936 C   0  0  0  0  0  0  0  0  0  0  0  0
   -2.2627   48.4083   44.8797 N   0  0  0  0  0  0  0  0  0  0  0  0
   -1.8533   45.6214   43.3926 H   0  0  0  0  0  0  0  0  0  0  0  0
   -6.8352   40.1787   44.7879 N   0  0  0  0  0  0  0  0  0  0  0  0
   -7.6155   39.5633   44.9819 H   0  0  0  0  0  0  0  0  0  0  0  0
   -5.6149   39.7918   45.3625 C   0  0  0  0  0  0  0  0  0  0  0  0
   -5.4925   38.4767   45.8462 C   0  0  0  0  0  0  0  0  0  0  0  0
   -4.4847   40.6138   45.3949 C   0  0  0  0  0  0  0  0  0  0  0  0
   -4.2875   37.9958   46.3693 C   0  0  0  0  0  0  0  0  0  0  0  0
   -3.2744   40.1477   45.9095 C   0  0  0  0  0  0  0  0  0  0  0  0
   -3.1765   38.8440   46.3922 C   0  0  0  0  0  0  0  0  0  0  0  0
   -4.1056   36.6846   46.8553 N   0  0  0  0  0  0  0  0  0  0  0  0
   -2.9348   36.0912   47.2701 C   0  0  0  0  0  0  0  0  0  0  0  0
   -1.8195   36.6009   47.2001 O   0  0  0  0  0  0  0  0  0  0  0  0
   -3.1013   34.8220   47.7911 N   0  0  0  0  0  0  0  0  0  0  0  0
   -4.3421   34.1229   48.0936 C   0  0  0  0  0  0  0  0  0  0  0  0
   -1.9494   34.0552   48.2352 C   0  0  0  0  0  0  0  0  0  0  0  0
   -3.9222   32.9591   48.9811 C   0  0  0  0  0  0  0  0  0  0  0  0
   -2.5032   32.6662   48.5133 C   0  0  0  0  0  0  0  0  0  0  0  0
   -4.9017   36.0734   46.7833 H   0  0  0  0  0  0  0  0  0  0  0  0
  1  2  1  0
  2  3  2  0
  2  4  1  0
  3  5  1  0
  3  8  1  0
  4  6  2  0
  5  7  2  0
  8 10  1  0
  7 18  1  0
 10 11  1  0
 18 20  1  0
 11 12  1  0
 20 21  2  0
 20 22  1  0
 12 13  1  0
 12 14  2  0
 21 23  1  0
 22 24  2  0
 13 15  1  0
 14 16  1  0
 23 26  1  0
 23 25  2  0
 26 27  1  0
 27 28  2  0
 27 29  1  0
 29 30  1  0
 29 31  1  0
 30 32  1  0
 31 33  1  0
  6  7  1  0
 24 25  1  0
 15 16  2  0
 32 33  1  0
  8  9  1  0
 18 19  1  0
 13 17  1  0
 26 34  1  0
M  END
> <Molecule Name>
BX912

> <Name>
BX912

> <pIC50 PDK>
7.327902

> <selection>
Y

> <MMFF94_energy_kcal_mol>
-102.6324

> <Note>
No stereocenters; achiral molecule

> <minimizedAffinity>
-8.56269

> <CNNscore>
0.9672747850

> <CNNaffinity>
7.6688499451

> <CNN_VS>
7.4178853035

> <CNNaffinity_variance>
0.0664887950
$$$$
BX912


 34 37  0  0  0  0  0  0  0  0999 V2000
   -8.7442   45.2244   43.1458 Br  0  0  0  0  0  0  0  0  0  0  0  0
   -8.0393   43.5517   43.6642 C   0  0  0  0  0  0  0  0  0  0  0  0
   -6.7351   43.3713   44.1007 C   0  0  0  0  0  0  0  0  0  0  0  0
   -8.8177   42.4209   43.5914 C   0  0  0  0  0  0  0  0  0  0  0  0
   -6.2906   42.1518   44.4697 N   0  0  0  0  0  0  0  0  0  0  0  0
   -8.3831   41.1924   43.9338 N   0  0  0  0  0  0  0  0  0  0  0  0
   -7.1290   41.1035   44.3953 C   0  0  0  0  0  0  0  0  0  0  0  0
   -5.8745   44.4794   44.2303 N   0  0  0  0  0  0  0  0  0  0  0  0
   -6.2364   45.1311   44.9226 H   0  0  0  0  0  0  0  0  0  0  0  0
   -5.4701   45.1392   42.9850 C   0  0  0  0  0  0  0  0  0  0  0  0
   -3.9457   45.0930   42.7765 C   0  0  0  0  0  0  0  0  0  0  0  0
   -3.4154   46.3559   42.1988 C   0  0  0  0  0  0  0  0  0  0  0  0
   -2.0686   46.5988   42.0772 N   0  0  0  0  0  0  0  0  0  0  0  0
   -4.0214   47.4810   41.6858 C   0  0  0  0  0  0  0  0  0  0  0  0
   -1.9227   47.8359   41.5188 C   0  0  0  0  0  0  0  0  0  0  0  0
   -3.0859   48.3936   41.2704 N   0  0  0  0  0  0  0  0  0  0  0  0
   -1.3190   45.9878   42.3825 H   0  0  0  0  0  0  0  0  0  0  0  0
   -6.6996   39.8264   44.7415 N   0  0  0  0  0  0  0  0  0  0  0  0
   -7.4979   39.2068   44.8065 H   0  0  0  0  0  0  0  0  0  0  0  0
   -5.5382   39.3700   45.3831 C   0  0  0  0  0  0  0  0  0  0  0  0
   -4.3819   40.1682   45.3166 C   0  0  0  0  0  0  0  0  0  0  0  0
   -5.4949   38.2109   46.1634 C   0  0  0  0  0  0  0  0  0  0  0  0
   -3.2063   39.8150   45.9875 C   0  0  0  0  0  0  0  0  0  0  0  0
   -4.3314   37.8473   46.8420 C   0  0  0  0  0  0  0  0  0  0  0  0
   -3.1935   38.6473   46.7558 C   0  0  0  0  0  0  0  0  0  0  0  0
   -2.0240   40.5834   45.9656 N   0  0  0  0  0  0  0  0  0  0  0  0
   -0.8742   40.3459   45.2469 C   0  0  0  0  0  0  0  0  0  0  0  0
   -0.6636   39.3521   44.5566 O   0  0  0  0  0  0  0  0  0  0  0  0
    0.0763   41.3427   45.3608 N   0  0  0  0  0  0  0  0  0  0  0  0
   -0.0500   42.6459   45.9976 C   0  0  0  0  0  0  0  0  0  0  0  0
    1.3582   41.2132   44.6886 C   0  0  0  0  0  0  0  0  0  0  0  0
    1.1436   43.4416   45.4872 C   0  0  0  0  0  0  0  0  0  0  0  0
    2.1896   42.3648   45.2328 C   0  0  0  0  0  0  0  0  0  0  0  0
   -1.9698   41.3282   46.6400 H   0  0  0  0  0  0  0  0  0  0  0  0
  1  2  1  0
  2  3  2  0
  2  4  1  0
  3  5  1  0
  3  8  1  0
  4  6  2  0
  5  7  2  0
  8 10  1  0
  7 18  1  0
 10 11  1  0
 18 20  1  0
 11 12  1  0
 20 21  2  0
 20 22  1  0
 12 13  1  0
 12 14  2  0
 21 23  1  0
 22 24  2  0
 13 15  1  0
 14 16  1  0
 23 26  1  0
 23 25  2  0
 26 27  1  0
 27 28  2  0
 27 29  1  0
 29 30  1  0
 29 31  1  0
 30 32  1  0
 31 33  1  0
  6  7  1  0
 24 25  1  0
 15 16  2  0
 32 33  1  0
  8  9  1  0
 18 19  1  0
 13 17  1  0
 26 34  1  0
M  END
> <Molecule Name>
BX912

> <Name>
BX912

> <pIC50 PDK>
7.327902

> <selection>
Y

> <MMFF94_energy_kcal_mol>
-102.6324

> <Note>
No stereocenters; achiral molecule

> <minimizedAffinity>
-8.90759

> <CNNscore>
0.9053560495

> <CNNaffinity>
7.5617251396

> <CNN_VS>
6.8460536003

> <CNNaffinity_variance>
0.2101588249
$$$$
BX912


 34 37  0  0  0  0  0  0  0  0999 V2000
   -7.4287   45.7447   43.2070 Br  0  0  0  0  0  0  0  0  0  0  0  0
   -6.9904   43.9636   43.6534 C   0  0  0  0  0  0  0  0  0  0  0  0
   -5.7063   43.4460   43.5694 C   0  0  0  0  0  0  0  0  0  0  0  0
   -7.9721   43.0910   44.0590 C   0  0  0  0  0  0  0  0  0  0  0  0
   -5.4514   42.1663   43.9136 N   0  0  0  0  0  0  0  0  0  0  0  0
   -7.7392   41.8044   44.3843 N   0  0  0  0  0  0  0  0  0  0  0  0
   -6.4670   41.3894   44.3288 C   0  0  0  0  0  0  0  0  0  0  0  0
   -4.6342   44.2763   43.1867 N   0  0  0  0  0  0  0  0  0  0  0  0
   -3.9520   43.7491   42.6466 H   0  0  0  0  0  0  0  0  0  0  0  0
   -4.0207   45.0792   44.2490 C   0  0  0  0  0  0  0  0  0  0  0  0
   -3.2020   46.2540   43.6843 C   0  0  0  0  0  0  0  0  0  0  0  0
   -4.0576   47.4096   43.3067 C   0  0  0  0  0  0  0  0  0  0  0  0
   -4.4332   47.6511   42.0074 N   0  0  0  0  0  0  0  0  0  0  0  0
   -4.6440   48.4211   44.0341 C   0  0  0  0  0  0  0  0  0  0  0  0
   -5.2037   48.7780   42.0049 C   0  0  0  0  0  0  0  0  0  0  0  0
   -5.3494   49.2658   43.2159 N   0  0  0  0  0  0  0  0  0  0  0  0
   -4.1567   47.1136   41.1932 H   0  0  0  0  0  0  0  0  0  0  0  0
   -6.2485   40.0578   44.6669 N   0  0  0  0  0  0  0  0  0  0  0  0
   -7.1071   39.5337   44.5511 H   0  0  0  0  0  0  0  0  0  0  0  0
   -5.2804   39.4429   45.4753 C   0  0  0  0  0  0  0  0  0  0  0  0
   -4.2429   40.2377   45.9954 C   0  0  0  0  0  0  0  0  0  0  0  0
   -5.3441   38.1028   45.8680 C   0  0  0  0  0  0  0  0  0  0  0  0
   -3.2805   39.7124   46.8641 C   0  0  0  0  0  0  0  0  0  0  0  0
   -4.3943   37.5650   46.7371 C   0  0  0  0  0  0  0  0  0  0  0  0
   -3.3689   38.3673   47.2341 C   0  0  0  0  0  0  0  0  0  0  0  0
   -2.2281   40.4657   47.4242 N   0  0  0  0  0  0  0  0  0  0  0  0
   -1.7540   40.4260   48.7160 C   0  0  0  0  0  0  0  0  0  0  0  0
   -2.2444   39.7684   49.6300 O   0  0  0  0  0  0  0  0  0  0  0  0
   -0.6400   41.2153   48.9308 N   0  0  0  0  0  0  0  0  0  0  0  0
    0.1632   41.9338   47.9517 C   0  0  0  0  0  0  0  0  0  0  0  0
   -0.0496   41.3048   50.2557 C   0  0  0  0  0  0  0  0  0  0  0  0
    1.4436   42.2937   48.6930 C   0  0  0  0  0  0  0  0  0  0  0  0
    0.9794   42.4186   50.1377 C   0  0  0  0  0  0  0  0  0  0  0  0
   -1.8549   41.1998   46.8459 H   0  0  0  0  0  0  0  0  0  0  0  0
  1  2  1  0
  2  3  2  0
  2  4  1  0
  3  5  1  0
  3  8  1  0
  4  6  2  0
  5  7  2  0
  8 10  1  0
  7 18  1  0
 10 11  1  0
 18 20  1  0
 11 12  1  0
 20 21  2  0
 20 22  1  0
 12 13  1  0
 12 14  2  0
 21 23  1  0
 22 24  2  0
 13 15  1  0
 14 16  1  0
 23 26  1  0
 23 25  2  0
 26 27  1  0
 27 28  2  0
 27 29  1  0
 29 30  1  0
 29 31  1  0
 30 32  1  0
 31 33  1  0
  6  7  1  0
 24 25  1  0
 15 16  2  0
 32 33  1  0
  8  9  1  0
 18 19  1  0
 13 17  1  0
 26 34  1  0
M  END
> <Molecule Name>
BX912

> <Name>
BX912

> <pIC50 PDK>
7.327902

> <selection>
Y

> <MMFF94_energy_kcal_mol>
-102.6324

> <Note>
No stereocenters; achiral molecule

> <minimizedAffinity>
-7.73289

> <CNNscore>
0.8352329135

> <CNNaffinity>
7.7851853371

> <CNN_VS>
6.5024428368

> <CNNaffinity_variance>
0.1047638655
$$$$
BX912


 34 37  0  0  0  0  0  0  0  0999 V2000
   -9.5062   44.3401   43.1496 Br  0  0  0  0  0  0  0  0  0  0  0  0
   -8.1785   43.1439   43.7578 C   0  0  0  0  0  0  0  0  0  0  0  0
   -6.8884   43.5331   44.0865 C   0  0  0  0  0  0  0  0  0  0  0  0
   -8.4546   41.8016   43.8661 C   0  0  0  0  0  0  0  0  0  0  0  0
   -5.9846   42.6332   44.5274 N   0  0  0  0  0  0  0  0  0  0  0  0
   -7.5578   40.8864   44.2825 N   0  0  0  0  0  0  0  0  0  0  0  0
   -6.3483   41.3431   44.6318 C   0  0  0  0  0  0  0  0  0  0  0  0
   -6.5251   44.8932   44.0289 N   0  0  0  0  0  0  0  0  0  0  0  0
   -7.2904   45.4793   44.3541 H   0  0  0  0  0  0  0  0  0  0  0  0
   -5.9487   45.3605   42.7644 C   0  0  0  0  0  0  0  0  0  0  0  0
   -4.4623   44.9826   42.6335 C   0  0  0  0  0  0  0  0  0  0  0  0
   -3.5623   46.1477   42.8399 C   0  0  0  0  0  0  0  0  0  0  0  0
   -2.4440   46.3568   42.0696 N   0  0  0  0  0  0  0  0  0  0  0  0
   -3.5819   47.2046   43.7223 C   0  0  0  0  0  0  0  0  0  0  0  0
   -1.8446   47.4989   42.5167 C   0  0  0  0  0  0  0  0  0  0  0  0
   -2.5099   48.0342   43.5150 N   0  0  0  0  0  0  0  0  0  0  0  0
   -2.1037   45.7526   41.3297 H   0  0  0  0  0  0  0  0  0  0  0  0
   -5.4370   40.3819   45.0572 N   0  0  0  0  0  0  0  0  0  0  0  0
   -5.9347   39.6022   45.4690 H   0  0  0  0  0  0  0  0  0  0  0  0
   -4.0767   40.4634   45.3919 C   0  0  0  0  0  0  0  0  0  0  0  0
   -3.6550   39.9031   46.6112 C   0  0  0  0  0  0  0  0  0  0  0  0
   -3.1037   40.9879   44.5362 C   0  0  0  0  0  0  0  0  0  0  0  0
   -2.3066   39.8835   46.9829 C   0  0  0  0  0  0  0  0  0  0  0  0
   -1.7544   40.9721   44.8905 C   0  0  0  0  0  0  0  0  0  0  0  0
   -1.3582   40.4203   46.1074 C   0  0  0  0  0  0  0  0  0  0  0  0
   -1.8276   39.3242   48.1856 N   0  0  0  0  0  0  0  0  0  0  0  0
   -1.3150   38.0625   48.3863 C   0  0  0  0  0  0  0  0  0  0  0  0
   -1.2717   37.1733   47.5403 O   0  0  0  0  0  0  0  0  0  0  0  0
   -0.8332   37.8478   49.6638 N   0  0  0  0  0  0  0  0  0  0  0  0
   -0.6598   38.8127   50.7403 C   0  0  0  0  0  0  0  0  0  0  0  0
   -0.2960   36.5498   50.0359 C   0  0  0  0  0  0  0  0  0  0  0  0
    0.2436   38.1109   51.7452 C   0  0  0  0  0  0  0  0  0  0  0  0
   -0.0942   36.6404   51.5407 C   0  0  0  0  0  0  0  0  0  0  0  0
   -1.9840   39.8680   49.0177 H   0  0  0  0  0  0  0  0  0  0  0  0
  1  2  1  0
  2  3  2  0
  2  4  1  0
  3  5  1  0
  3  8  1  0
  4  6  2  0
  5  7  2  0
  8 10  1  0
  7 18  1  0
 10 11  1  0
 18 20  1  0
 11 12  1  0
 20 21  2  0
 20 22  1  0
 12 13  1  0
 12 14  2  0
 21 23  1  0
 22 24  2  0
 13 15  1  0
 14 16  1  0
 23 26  1  0
 23 25  2  0
 26 27  1  0
 27 28  2  0
 27 29  1  0
 29 30  1  0
 29 31  1  0
 30 32  1  0
 31 33  1  0
  6  7  1  0
 24 25  1  0
 15 16  2  0
 32 33  1  0
  8  9  1  0
 18 19  1  0
 13 17  1  0
 26 34  1  0
M  END
> <Molecule Name>
BX912

> <Name>
BX912

> <pIC50 PDK>
7.327902

> <selection>
Y

> <MMFF94_energy_kcal_mol>
-102.6324

> <Note>
No stereocenters; achiral molecule

> <minimizedAffinity>
-7.64240

> <CNNscore>
0.6398311853

> <CNNaffinity>
7.1800074577

> <CNN_VS>
4.5939927101

> <CNNaffinity_variance>
0.0031987485
$$$$
BX912


 34 37  0  0  0  0  0  0  0  0999 V2000
   -5.3072   38.8207   45.7641 Br  0  0  0  0  0  0  0  0  0  0  0  0
   -6.1522   40.3375   45.0231 C   0  0  0  0  0  0  0  0  0  0  0  0
   -5.5358   41.5738   44.8977 C   0  0  0  0  0  0  0  0  0  0  0  0
   -7.4583   40.2641   44.6007 C   0  0  0  0  0  0  0  0  0  0  0  0
   -6.1874   42.6201   44.3484 N   0  0  0  0  0  0  0  0  0  0  0  0
   -8.1312   41.3044   44.0714 N   0  0  0  0  0  0  0  0  0  0  0  0
   -7.4553   42.4523   43.9339 C   0  0  0  0  0  0  0  0  0  0  0  0
   -4.1897   41.7336   45.2820 N   0  0  0  0  0  0  0  0  0  0  0  0
   -4.0424   42.6563   45.6843 H   0  0  0  0  0  0  0  0  0  0  0  0
   -3.1798   41.3830   44.2786 C   0  0  0  0  0  0  0  0  0  0  0  0
   -2.0734   40.4863   44.8628 C   0  0  0  0  0  0  0  0  0  0  0  0
   -0.7929   41.2179   45.0508 C   0  0  0  0  0  0  0  0  0  0  0  0
   -0.7460   42.5032   45.5336 N   0  0  0  0  0  0  0  0  0  0  0  0
    0.5238   40.8761   44.8374 C   0  0  0  0  0  0  0  0  0  0  0  0
    0.5660   42.8774   45.5799 C   0  0  0  0  0  0  0  0  0  0  0  0
    1.3575   41.9142   45.1658 N   0  0  0  0  0  0  0  0  0  0  0  0
   -1.5424   43.0830   45.7746 H   0  0  0  0  0  0  0  0  0  0  0  0
   -8.1686   43.5141   43.3870 N   0  0  0  0  0  0  0  0  0  0  0  0
   -8.8742   43.1577   42.7542 H   0  0  0  0  0  0  0  0  0  0  0  0
   -7.8496   44.8702   43.2199 C   0  0  0  0  0  0  0  0  0  0  0  0
   -6.4925   45.2396   43.2068 C   0  0  0  0  0  0  0  0  0  0  0  0
   -8.8046   45.8605   42.9720 C   0  0  0  0  0  0  0  0  0  0  0  0
   -6.0931   46.5604   42.9765 C   0  0  0  0  0  0  0  0  0  0  0  0
   -8.4222   47.1815   42.7363 C   0  0  0  0  0  0  0  0  0  0  0  0
   -7.0725   47.5285   42.7365 C   0  0  0  0  0  0  0  0  0  0  0  0
   -4.7483   46.9832   42.9399 N   0  0  0  0  0  0  0  0  0  0  0  0
   -4.0488   47.6629   43.9112 C   0  0  0  0  0  0  0  0  0  0  0  0
   -4.5267   48.0925   44.9579 O   0  0  0  0  0  0  0  0  0  0  0  0
   -2.7105   47.8444   43.6175 N   0  0  0  0  0  0  0  0  0  0  0  0
   -1.9406   47.2823   42.5171 C   0  0  0  0  0  0  0  0  0  0  0  0
   -1.8525   48.5787   44.5322 C   0  0  0  0  0  0  0  0  0  0  0  0
   -0.4866   47.5020   42.9122 C   0  0  0  0  0  0  0  0  0  0  0  0
   -0.5504   48.7601   43.7673 C   0  0  0  0  0  0  0  0  0  0  0  0
   -4.2771   46.8784   42.0569 H   0  0  0  0  0  0  0  0  0  0  0  0
  1  2  1  0
  2  3  2  0
  2  4  1  0
  3  5  1  0
  3  8  1  0
  4  6  2  0
  5  7  2  0
  8 10  1  0
  7 18  1  0
 10 11  1  0
 18 20  1  0
 11 12  1  0
 20 21  2  0
 20 22  1  0
 12 13  1  0
 12 14  2  0
 21 23  1  0
 22 24  2  0
 13 15  1  0
 14 16  1  0
 23 26  1  0
 23 25  2  0
 26 27  1  0
 27 28  2  0
 27 29  1  0
 29 30  1  0
 29 31  1  0
 30 32  1  0
 31 33  1  0
  6  7  1  0
 24 25  1  0
 15 16  2  0
 32 33  1  0
  8  9  1  0
 18 19  1  0
 13 17  1  0
 26 34  1  0
M  END
> <Molecule Name>
BX912

> <Name>
BX912

> <pIC50 PDK>
7.327902

> <selection>
Y

> <MMFF94_energy_kcal_mol>
-102.6324

> <Note>
No stereocenters; achiral molecule

> <minimizedAffinity>
-8.57783

> <CNNscore>
0.5917973518

> <CNNaffinity>
7.1861400604

> <CNN_VS>
4.2527384758

> <CNNaffinity_variance>
0.0658076927
$$$$
