EL2003A-A2U1


 38 42  0  0  0  0  0  0  0  0999 V2000
   -6.5503   42.2434   44.6287 C   0  0  0  0  0  0  0  0  0  0  0  0
   -5.9432   43.4507   44.6654 N   0  0  0  0  0  0  0  0  0  0  0  0
   -7.7733   41.9898   44.1156 N   0  0  0  0  0  0  0  0  0  0  0  0
   -6.5356   44.5363   44.1040 C   0  0  0  0  0  0  0  0  0  0  0  0
   -8.3432   43.0917   43.6151 C   0  0  0  0  0  0  0  0  0  0  0  0
   -7.8212   44.3681   43.5675 C   0  0  0  0  0  0  0  0  0  0  0  0
   -9.5678   43.1873   43.0216 N   0  0  0  0  0  0  0  0  0  0  0  0
   -8.7073   45.2383   42.9592 N   0  0  0  0  0  0  0  0  0  0  0  0
   -9.7437   44.4909   42.6433 C   0  0  0  0  0  0  0  0  0  0  0  0
  -10.2109   42.4230   42.8852 H   0  0  0  0  0  0  0  0  0  0  0  0
   -5.8741   41.1053   45.0977 N   0  0  0  0  0  0  0  0  0  0  0  0
   -6.4318   40.3113   44.8132 H   0  0  0  0  0  0  0  0  0  0  0  0
   -2.5374   39.6238   45.8178 C   0  0  0  0  0  0  0  0  0  0  0  0
   -1.7020   40.4016   44.9938 C   0  0  0  0  0  0  0  0  0  0  0  0
   -3.9085   39.9143   45.8795 C   0  0  0  0  0  0  0  0  0  0  0  0
   -2.2814   41.3913   44.1846 C   0  0  0  0  0  0  0  0  0  0  0  0
   -0.2180   40.1775   44.9045 C   0  0  0  0  0  0  0  0  0  0  0  0
   -4.4839   40.9072   45.0776 C   0  0  0  0  0  0  0  0  0  0  0  0
   -3.6579   41.6227   44.2113 C   0  0  0  0  0  0  0  0  0  0  0  0
   -2.6911   36.7601   45.3292 O   0  0  0  0  0  0  0  0  0  0  0  0
   -2.1552   37.2243   46.3352 C   0  0  0  0  0  0  0  0  0  0  0  0
   -1.6365   36.4064   47.3164 N   0  0  0  0  0  0  0  0  0  0  0  0
   -1.9820   38.5691   46.5792 N   0  0  0  0  0  0  0  0  0  0  0  0
   -1.1365   36.7971   48.6271 C   0  0  0  0  0  0  0  0  0  0  0  0
   -1.7083   34.9607   47.1933 C   0  0  0  0  0  0  0  0  0  0  0  0
   -1.1138   35.5035   49.4301 C   0  0  0  0  0  0  0  0  0  0  0  0
   -0.8857   34.4413   48.3624 C   0  0  0  0  0  0  0  0  0  0  0  0
   -1.1643   38.7862   47.1247 H   0  0  0  0  0  0  0  0  0  0  0  0
   -5.8826   45.7775   44.0638 N   0  0  0  0  0  0  0  0  0  0  0  0
   -6.4576   46.4526   44.5681 H   0  0  0  0  0  0  0  0  0  0  0  0
   -5.4852   46.2151   42.7237 C   0  0  0  0  0  0  0  0  0  0  0  0
   -4.3636   47.2647   42.7239 C   0  0  0  0  0  0  0  0  0  0  0  0
   -4.7994   48.6453   43.0796 C   0  0  0  0  0  0  0  0  0  0  0  0
   -5.0863   49.5730   42.1019 N   0  0  0  0  0  0  0  0  0  0  0  0
   -5.0099   49.1931   44.3275 C   0  0  0  0  0  0  0  0  0  0  0  0
   -5.4180   50.6689   42.7463 C   0  0  0  0  0  0  0  0  0  0  0  0
   -5.3845   50.4887   44.0992 N   0  0  0  0  0  0  0  0  0  0  0  0
   -5.5821   51.1964   44.8026 H   0  0  0  0  0  0  0  0  0  0  0  0
 20 21  2  0
 21 22  1  0
 21 23  1  0
 22 24  1  0
 22 25  1  0
 23 13  1  0
 24 26  1  0
 25 27  1  0
 13 14  2  0
 13 15  1  0
 14 16  1  0
 14 17  1  0
 15 18  2  0
 16 19  2  0
 18 11  1  0
 11  1  1  0
  1  2  2  0
  1  3  1  0
  2  4  1  0
  3  5  2  0
  4 29  1  0
  4  6  2  0
  5  7  1  0
 29 31  1  0
  6  8  1  0
  7  9  1  0
 31 32  1  0
 32 33  1  0
 33 34  1  0
 33 35  2  0
 34 36  2  0
 35 37  1  0
 26 27  1  0
 18 19  1  0
  5  6  1  0
  8  9  2  0
 36 37  1  0
 23 28  1  0
 11 12  1  0
 29 30  1  0
  7 10  1  0
 37 38  1  0
M  END
> <Molecule Name>
EL2003A-A2U1

> <Name>
EL2003A-A2U1

> <pIC50 PDK>
7.6

> <selection>
Y

> <MMFF94_energy_kcal_mol>
-80.5413

> <Note>
No stereocenters; achiral molecule

> <minimizedAffinity>
-8.30262

> <CNNscore>
0.7282411456

> <CNNaffinity>
7.2732276917

> <CNN_VS>
5.2966637611

> <CNNaffinity_variance>
0.0438728034
$$$$
