EL2003A
 OpenBabel09072615493D

 37 41  0  0  0  0  0  0  0  0999 V2000
   -5.7489   40.6110   44.8863 C   0  0  0  0  0  0  0  0  0  0  0  0
   -4.9241   41.6838   44.8440 N   0  0  0  0  0  0  0  0  0  0  0  0
   -7.0567   40.6246   44.5554 N   0  0  0  0  0  0  0  0  0  0  0  0
   -5.3811   42.8936   44.4297 C   0  0  0  0  0  0  0  0  0  0  0  0
   -7.4745   41.8339   44.1678 C   0  0  0  0  0  0  0  0  0  0  0  0
   -6.7339   42.9938   44.0795 C   0  0  0  0  0  0  0  0  0  0  0  0
   -8.7338   42.1861   43.7782 N   0  0  0  0  0  0  0  0  0  0  0  0
   -7.5139   44.0441   43.6407 N   0  0  0  0  0  0  0  0  0  0  0  0
   -8.7112   43.5209   43.4724 C   0  0  0  0  0  0  0  0  0  0  0  0
   -9.5273   41.5645   43.7325 H   0  0  0  0  0  0  0  0  0  0  0  0
   -5.2863   39.3760   45.3356 N   0  0  0  0  0  0  0  0  0  0  0  0
   -5.8931   38.6414   44.9991 H   0  0  0  0  0  0  0  0  0  0  0  0
   -2.2626   39.6413   47.4694 C   0  0  0  0  0  0  0  0  0  0  0  0
   -3.4004   39.9627   46.7209 C   0  0  0  0  0  0  0  0  0  0  0  0
   -1.8977   38.2984   47.5975 C   0  0  0  0  0  0  0  0  0  0  0  0
   -4.1931   38.9710   46.1119 C   0  0  0  0  0  0  0  0  0  0  0  0
   -2.6666   37.3012   47.0023 C   0  0  0  0  0  0  0  0  0  0  0  0
   -3.8060   37.6391   46.2701 C   0  0  0  0  0  0  0  0  0  0  0  0
   -0.0186   41.2234   46.3688 O   0  0  0  0  0  0  0  0  0  0  0  0
   -0.3696   41.2802   47.5446 C   0  0  0  0  0  0  0  0  0  0  0  0
    0.3076   42.0811   48.4455 N   0  0  0  0  0  0  0  0  0  0  0  0
   -1.4309   40.5957   48.0916 N   0  0  0  0  0  0  0  0  0  0  0  0
    1.4268   42.8961   48.0049 C   0  0  0  0  0  0  0  0  0  0  0  0
    0.1360   42.1654   49.8888 C   0  0  0  0  0  0  0  0  0  0  0  0
    1.7391   43.7875   49.1970 C   0  0  0  0  0  0  0  0  0  0  0  0
    1.3736   42.9030   50.3813 C   0  0  0  0  0  0  0  0  0  0  0  0
   -1.7146   40.8903   49.0107 H   0  0  0  0  0  0  0  0  0  0  0  0
   -4.5249   44.0039   44.4364 N   0  0  0  0  0  0  0  0  0  0  0  0
   -4.4806   44.3647   45.3918 H   0  0  0  0  0  0  0  0  0  0  0  0
   -4.8809   45.0454   43.4653 C   0  0  0  0  0  0  0  0  0  0  0  0
   -3.7464   45.2331   42.4457 C   0  0  0  0  0  0  0  0  0  0  0  0
   -3.2626   46.6418   42.3358 C   0  0  0  0  0  0  0  0  0  0  0  0
   -2.6590   47.1498   41.2100 N   0  0  0  0  0  0  0  0  0  0  0  0
   -3.2739   47.6946   43.2250 C   0  0  0  0  0  0  0  0  0  0  0  0
   -2.3630   48.4594   41.4538 C   0  0  0  0  0  0  0  0  0  0  0  0
   -2.7207   48.8179   42.6660 N   0  0  0  0  0  0  0  0  0  0  0  0
   -2.5191   46.6514   40.3367 H   0  0  0  0  0  0  0  0  0  0  0  0
  1  2  2  0  0  0  0
  1  3  1  0  0  0  0
  2  4  1  0  0  0  0
  3  5  2  0  0  0  0
  4 28  1  0  0  0  0
  4  6  2  0  0  0  0
  5  7  1  0  0  0  0
  5  6  1  0  0  0  0
  6  8  1  0  0  0  0
  7  9  1  0  0  0  0
  7 10  1  0  0  0  0
  8  9  2  0  0  0  0
 11  1  1  0  0  0  0
 11 12  1  0  0  0  0
 13 14  2  0  0  0  0
 13 15  1  0  0  0  0
 14 16  1  0  0  0  0
 15 17  2  0  0  0  0
 16 11  1  0  0  0  0
 16 18  2  0  0  0  0
 17 18  1  0  0  0  0
 19 20  2  0  0  0  0
 20 21  1  0  0  0  0
 20 22  1  0  0  0  0
 21 23  1  0  0  0  0
 21 24  1  0  0  0  0
 22 13  1  0  0  0  0
 22 27  1  0  0  0  0
 23 25  1  0  0  0  0
 24 26  1  0  0  0  0
 25 26  1  0  0  0  0
 28 30  1  0  0  0  0
 28 29  1  0  0  0  0
 30 31  1  0  0  0  0
 31 32  1  0  0  0  0
 32 33  1  0  0  0  0
 32 34  2  0  0  0  0
 33 35  1  0  0  0  0
 33 37  1  0  0  0  0
 34 36  1  0  0  0  0
 35 36  2  0  0  0  0
M  END
