EL5001A


 30 32  0  0  0  0  0  0  0  0999 V2000
   -5.3211   39.6727   45.4087 Br  0  0  0  0  0  0  0  0  0  0  0  0
   -6.4005   41.0618   44.7230 C   0  0  0  0  0  0  0  0  0  0  0  0
   -5.9285   42.3347   44.4382 C   0  0  0  0  0  0  0  0  0  0  0  0
   -7.7318   40.8365   44.4639 C   0  0  0  0  0  0  0  0  0  0  0  0
   -6.7539   43.2903   43.9604 N   0  0  0  0  0  0  0  0  0  0  0  0
   -8.5663   41.7720   43.9703 N   0  0  0  0  0  0  0  0  0  0  0  0
   -8.0385   42.9784   43.7420 C   0  0  0  0  0  0  0  0  0  0  0  0
   -4.5923   42.6680   44.7240 N   0  0  0  0  0  0  0  0  0  0  0  0
   -4.0615   41.8140   44.9415 H   0  0  0  0  0  0  0  0  0  0  0  0
   -3.8937   43.4267   43.6842 C   0  0  0  0  0  0  0  0  0  0  0  0
   -3.9379   44.9274   44.0001 C   0  0  0  0  0  0  0  0  0  0  0  0
   -3.5179   45.7778   42.8452 C   0  0  0  0  0  0  0  0  0  0  0  0
   -2.3592   46.5255   42.8990 N   0  0  0  0  0  0  0  0  0  0  0  0
   -4.1476   45.9685   41.6337 C   0  0  0  0  0  0  0  0  0  0  0  0
   -2.2916   47.1537   41.7483 C   0  0  0  0  0  0  0  0  0  0  0  0
   -3.3542   46.8463   40.9480 N   0  0  0  0  0  0  0  0  0  0  0  0
   -3.5205   47.2093   40.0194 H   0  0  0  0  0  0  0  0  0  0  0  0
   -8.9214   43.9290   43.2516 N   0  0  0  0  0  0  0  0  0  0  0  0
   -9.6842   43.4028   42.8370 H   0  0  0  0  0  0  0  0  0  0  0  0
   -8.3320   44.9339   42.3656 C   0  0  0  0  0  0  0  0  0  0  0  0
   -8.6317   46.3612   42.8538 C   0  0  0  0  0  0  0  0  0  0  0  0
   -7.4192   47.0795   43.2152 N   0  0  0  0  0  0  0  0  0  0  0  0
   -7.0122   48.1566   42.4737 C   0  0  0  0  0  0  0  0  0  0  0  0
   -7.5662   48.4848   41.4275 O   0  0  0  0  0  0  0  0  0  0  0  0
   -5.9230   48.8215   42.9779 N   0  0  0  0  0  0  0  0  0  0  0  0
   -5.1260   48.4672   44.1425 C   0  0  0  0  0  0  0  0  0  0  0  0
   -5.3362   49.9381   42.2590 C   0  0  0  0  0  0  0  0  0  0  0  0
   -4.1435   49.6199   44.2951 C   0  0  0  0  0  0  0  0  0  0  0  0
   -3.9469   50.0922   42.8610 C   0  0  0  0  0  0  0  0  0  0  0  0
   -7.3129   47.1893   44.2123 H   0  0  0  0  0  0  0  0  0  0  0  0
  1  2  1  0
  2  3  2  0
  2  4  1  0
  3  5  1  0
  3  8  1  0
  4  6  2  0
  5  7  2  0
  8 10  1  0
  7 18  1  0
 10 11  1  0
 18 20  1  0
 11 12  1  0
 20 21  1  0
 12 13  1  0
 12 14  2  0
 21 22  1  0
 13 15  2  0
 14 16  1  0
 22 23  1  0
 23 24  2  0
 23 25  1  0
 25 26  1  0
 25 27  1  0
 26 28  1  0
 27 29  1  0
  6  7  1  0
 15 16  1  0
 28 29  1  0
  8  9  1  0
 18 19  1  0
 22 30  1  0
 16 17  1  0
M  END
> <Molecule Name>
EL5001A

> <Name>
EL5001A

> <pIC50 PDK>
4

> <selection>
Y

> <MMFF94_energy_kcal_mol>
-151.5602

> <Note>
No stereocenters; achiral molecule

> <minimizedAffinity>
-7.73034

> <CNNscore>
0.9244671464

> <CNNaffinity>
7.5343527794

> <CNN_VS>
6.9652614594

> <CNNaffinity_variance>
0.0766475126
$$$$
