EL5001A
 OpenBabel09072615523D

 30 32  0  0  0  0  0  0  0  0999 V2000
   -9.3004   44.7915   43.2627 Br  0  0  0  0  0  0  0  0  0  0  0  0
   -8.1310   43.3539   43.6242 C   0  0  0  0  0  0  0  0  0  0  0  0
   -6.7776   43.5093   43.8857 C   0  0  0  0  0  0  0  0  0  0  0  0
   -8.6104   42.0657   43.6532 C   0  0  0  0  0  0  0  0  0  0  0  0
   -5.9897   42.4394   44.1253 N   0  0  0  0  0  0  0  0  0  0  0  0
   -7.8433   40.9879   43.9081 N   0  0  0  0  0  0  0  0  0  0  0  0
   -6.5461   41.2206   44.1300 C   0  0  0  0  0  0  0  0  0  0  0  0
   -6.1927   44.7867   43.8226 N   0  0  0  0  0  0  0  0  0  0  0  0
   -6.6306   45.4028   44.5206 H   0  0  0  0  0  0  0  0  0  0  0  0
   -4.7372   44.8242   43.9817 C   0  0  0  0  0  0  0  0  0  0  0  0
   -4.0586   45.0341   42.6218 C   0  0  0  0  0  0  0  0  0  0  0  0
   -4.2107   46.4279   42.1046 C   0  0  0  0  0  0  0  0  0  0  0  0
   -5.3707   47.1430   42.3225 N   0  0  0  0  0  0  0  0  0  0  0  0
   -3.3186   47.1852   41.3755 C   0  0  0  0  0  0  0  0  0  0  0  0
   -5.1841   48.3035   41.7380 C   0  0  0  0  0  0  0  0  0  0  0  0
   -3.9535   48.3754   41.1510 N   0  0  0  0  0  0  0  0  0  0  0  0
   -3.5865   49.1666   40.6403 H   0  0  0  0  0  0  0  0  0  0  0  0
   -5.7742   40.0939   44.3717 N   0  0  0  0  0  0  0  0  0  0  0  0
   -6.0150   39.4369   43.6361 H   0  0  0  0  0  0  0  0  0  0  0  0
   -5.8728   39.5451   45.7249 C   0  0  0  0  0  0  0  0  0  0  0  0
   -4.6508   38.6782   46.0721 C   0  0  0  0  0  0  0  0  0  0  0  0
   -3.4024   39.3133   45.6784 N   0  0  0  0  0  0  0  0  0  0  0  0
   -2.5752   39.8499   46.6290 C   0  0  0  0  0  0  0  0  0  0  0  0
   -2.8937   39.9279   47.8129 O   0  0  0  0  0  0  0  0  0  0  0  0
   -1.3770   40.3158   46.1497 N   0  0  0  0  0  0  0  0  0  0  0  0
   -0.9350   40.3721   44.7646 C   0  0  0  0  0  0  0  0  0  0  0  0
   -0.4311   40.9769   47.0307 C   0  0  0  0  0  0  0  0  0  0  0  0
    0.5062   40.8556   44.8453 C   0  0  0  0  0  0  0  0  0  0  0  0
    0.5036   41.7278   46.0933 C   0  0  0  0  0  0  0  0  0  0  0  0
   -2.9289   38.8182   44.9380 H   0  0  0  0  0  0  0  0  0  0  0  0
  1  2  1  0  0  0  0
  2  3  2  0  0  0  0
  2  4  1  0  0  0  0
  3  5  1  0  0  0  0
  3  8  1  0  0  0  0
  4  6  2  0  0  0  0
  5  7  2  0  0  0  0
  6  7  1  0  0  0  0
  7 18  1  0  0  0  0
  8 10  1  0  0  0  0
  8  9  1  0  0  0  0
 10 11  1  0  0  0  0
 11 12  1  0  0  0  0
 12 13  1  0  0  0  0
 12 14  2  0  0  0  0
 13 15  2  0  0  0  0
 14 16  1  0  0  0  0
 15 16  1  0  0  0  0
 16 17  1  0  0  0  0
 18 20  1  0  0  0  0
 18 19  1  0  0  0  0
 20 21  1  0  0  0  0
 21 22  1  0  0  0  0
 22 23  1  0  0  0  0
 22 30  1  0  0  0  0
 23 24  2  0  0  0  0
 23 25  1  0  0  0  0
 25 26  1  0  0  0  0
 25 27  1  0  0  0  0
 26 28  1  0  0  0  0
 27 29  1  0  0  0  0
 28 29  1  0  0  0  0
M  END
