@<TRIPOS>MOLECULE
LIG
   35    39     1     0     0
SMALL
gas


@<TRIPOS>ATOM
      1 C1          84.5640   154.7300    14.1930 c2         1 LIG       0.144614
      2 C2          85.0300   153.9430    15.2590 c1         1 LIG      -0.074836
      3 C3          83.7660   154.1090    13.1940 c1         1 LIG      -0.035739
      4 C4          84.7000   152.5990    15.2940 cc         1 LIG       0.068644
      5 C5          83.4310   152.7470    13.2390 c1         1 LIG      -0.055479
      6 C6          83.9100   152.0050    14.2930 cd         1 LIG       0.073901
      7 C7          85.0230   151.5350    16.3190 c2         1 LIG       0.116159
      8 C8          83.7160   150.5510    14.6590 c2         1 LIG       0.116702
      9 N1          84.8980   150.3390    15.4870 n          1 LIG      -0.196729
     10 C9          83.8830   151.4470    17.3890 c1         1 LIG      -0.013799
     11 C10         82.4780   150.3870    15.6040 c1         1 LIG      -0.013776
     12 C11         85.3130   149.0880    15.8420 c          1 LIG       0.366410
     13 N2          82.5130   151.2810    16.8090 n3         1 LIG      -0.104654
     14 O1          84.9050   148.0660    15.3060 o          1 LIG      -0.241340
     15 O2          85.1400   156.2400    11.7680 o          1 LIG      -0.252099
     16 C12         85.1680   156.7540    12.8830 c          1 LIG       0.324954
     17 N3          84.8980   156.1280    14.1060 n          1 LIG      -0.165321
     18 N4          85.5060   158.0850    12.9680 ns         1 LIG      -0.226954
     19 C13         85.1830   156.8760    15.3270 c1         1 LIG       0.021911
     20 C14         85.2000   158.9360    13.9920 c          1 LIG       0.296822
     21 C15         84.6580   158.2930    15.2300 c1         1 LIG       0.014545
     22 O3          85.2900   160.1540    13.8660 o          1 LIG      -0.261606
     23 H1          86.0190   158.4610    12.2160 hn         1 LIG       0.161345
     24 O4          86.2090   149.1310    16.8590 os         1 LIG      -0.255444
     25 C16         87.6010   148.7850    16.6430 c3         1 LIG       0.262932
     26 C17         88.2950   150.1270    16.3680 c1         1 LIG      -0.035362
     27 C18         88.2190   148.1630    17.9000 c1         1 LIG      -0.035362
     28 C19         87.7690   147.8860    15.4140 c1         1 LIG      -0.035362
     29 C20         81.5400   150.8900    17.8340 c1         1 LIG      -0.013102
     30 C21         82.0980   149.9100    18.8430 ce         1 LIG       0.131806
     31 C22         81.2420   149.0380    19.5340 c1         1 LIG      -0.033781
     32 C23         83.4730   149.8630    19.1130 c1         1 LIG      -0.033781
     33 C24         81.7510   148.1380    20.4710 c1         1 LIG      -0.007503
     34 C25         83.9810   148.9620    20.0510 c1         1 LIG      -0.007503
     35 C26         83.1200   148.1010    20.7300 c1         1 LIG      -0.001214
@<TRIPOS>BOND
     1     1    17 1   
     2     1     2 2   
     3     1     3 1   
     4     3     5 2   
     5     4     2 1   
     6     4     6 2   
     7     4     7 1   
     8     6     8 1   
     9     6     5 1   
    10     7     9 1   
    11     7    10 1   
    12     8    11 1   
    13     8     9 1   
    14     9    12 1   
    15    10    13 1   
    16    11    13 1   
    17    12    14 2   
    18    12    24 1   
    19    13    29 1   
    20    15    16 2   
    21    16    17 1   
    22    16    18 1   
    23    17    19 1   
    24    18    20 1   
    25    18    23 1   
    26    19    21 1   
    27    20    22 2   
    28    20    21 1   
    29    24    25 1   
    30    25    26 1   
    31    25    27 1   
    32    25    28 1   
    33    29    30 1   
    34    30    31 2   
    35    30    32 1   
    36    31    33 1   
    37    32    34 2   
    38    33    35 2   
    39    34    35 1   
@<TRIPOS>SUBSTRUCTURE
     1 LIG         1 TEMP              0 ****  ****    0 ROOT
