@<TRIPOS>MOLECULE
LIG
   35    39     1     0     0
SMALL
gas


@<TRIPOS>ATOM
      1 N1          88.3080   149.1460    16.4680 n3         1 LIG      -0.093432
      2 C1          88.7260   148.9680    15.0740 c1         1 LIG       0.012137
      3 C2          86.8710   149.0050    16.7030 c1         1 LIG       0.012137
      4 C3          87.7030   149.5960    14.1300 c1         1 LIG      -0.028277
      5 C4          86.1660   148.1890    15.6230 c1         1 LIG      -0.028277
      6 C5          86.3670   148.8450    14.2500 c3         1 LIG       0.243440
      7 O1          86.2880   147.8110    13.2110 os         1 LIG      -0.266345
      8 C6          85.0960   149.5290    13.6370 c2         1 LIG       0.100166
      9 C7          85.4260   148.6610    12.4130 c1         1 LIG       0.018815
     10 C8          85.0050   151.1110    13.5450 ce         1 LIG       0.087639
     11 C9          83.8120   151.7800    13.8760 c1         1 LIG      -0.065490
     12 C10         86.0640   151.9350    13.1290 c1         1 LIG      -0.050278
     13 C11         83.6850   153.1760    13.8030 c2         1 LIG       0.168128
     14 C12         85.9530   153.3340    13.0790 c1         1 LIG      -0.040285
     15 C13         84.7690   153.9890    13.4370 c2         1 LIG       0.140858
     16 N2          84.7190   155.4230    13.4470 n          1 LIG      -0.169358
     17 C14         85.0880   156.1780    12.3330 c          1 LIG       0.324556
     18 C15         84.1130   156.1160    14.5790 c1         1 LIG       0.021496
     19 O2          85.4660   155.7380    11.2490 o          1 LIG      -0.252117
     20 N3          84.9990   157.5400    12.4910 ns         1 LIG      -0.226967
     21 C16         84.8860   157.3750    14.9120 c1         1 LIG       0.014529
     22 C17         85.0130   158.2170    13.6790 c          1 LIG       0.296821
     23 O3          85.2010   159.4290    13.7240 o          1 LIG      -0.261606
     24 H1          84.9170   158.0790    11.6720 hn         1 LIG       0.161344
     25 O4          82.4450   153.6970    14.0860 os         1 LIG      -0.247610
     26 C18         81.8080   152.9050    15.0920 c1         1 LIG       0.091181
     27 C19         89.1860   148.4970    17.4460 c1         1 LIG      -0.018014
     28 Cl1         94.2750   148.5050    18.6750 cl         1 LIG      -0.071066
     29 C20         92.7730   149.3200    18.4590 c2         1 LIG       0.129023
     30 C21         91.6360   148.6190    18.0540 c2         1 LIG       0.174394
     31 C22         92.7010   150.6920    18.6920 c1         1 LIG      -0.037744
     32 F1          91.7140   147.2980    17.8240 f          1 LIG      -0.202494
     33 C23         90.4090   149.2720    17.8800 ce         1 LIG       0.119116
     34 C24         91.4900   151.3610    18.5120 c1         1 LIG      -0.015891
     35 C25         90.3530   150.6560    18.1060 c1         1 LIG      -0.040533
@<TRIPOS>BOND
     1     1     2 1   
     2     1     3 1   
     3     2     4 1   
     4     3     5 1   
     5     6     5 1   
     6     6     4 1   
     7     6     7 1   
     8     6     8 1   
     9     7     9 1   
    10     8    10 1   
    11     8     9 1   
    12    10    11 2   
    13    10    12 1   
    14    11    13 1   
    15    12    14 2   
    16    13    25 1   
    17    13    15 2   
    18    15    14 1   
    19    15    16 1   
    20    16    17 1   
    21    16    18 1   
    22    17    19 2   
    23    17    20 1   
    24    18    21 1   
    25    20    22 1   
    26    20    24 1   
    27    21    22 1   
    28    22    23 2   
    29    25    26 1   
    30    27     1 1   
    31    29    28 1   
    32    29    30 2   
    33    29    31 1   
    34    30    32 1   
    35    30    33 1   
    36    31    34 2   
    37    33    35 2   
    38    33    27 1   
    39    34    35 1   
@<TRIPOS>SUBSTRUCTURE
     1 LIG         1 TEMP              0 ****  ****    0 ROOT
