@<TRIPOS>MOLECULE
LIG
   32    34     1     0     0
SMALL
gas


@<TRIPOS>ATOM
      1 C1          85.0410   154.0430    13.2770 c2         1 LIG       0.124800
      2 C2          84.1480   153.1450    13.9030 c2         1 LIG       0.144033
      3 C3          86.0580   153.5010    12.4700 c2         1 LIG       0.169104
      4 C4          84.2920   151.7470    13.7710 ce         1 LIG       0.113791
      5 C5          86.1830   152.1210    12.2950 c1         1 LIG      -0.032002
      6 C6          85.3230   151.2510    12.9610 c1         1 LIG      -0.046845
      7 O1          84.4960   155.9340    11.2120 o          1 LIG      -0.252137
      8 C7          84.6690   156.2890    12.3750 c          1 LIG       0.324078
      9 N1          84.9050   155.4560    13.4660 n          1 LIG      -0.174869
     10 N2          84.5980   157.6300    12.6780 ns         1 LIG      -0.226983
     11 C8          84.6780   155.9870    14.8000 c1         1 LIG       0.020999
     12 C9          84.9830   158.2310    13.8450 c          1 LIG       0.296821
     13 C10         85.3970   157.3100    14.9570 c1         1 LIG       0.014511
     14 O2          85.0510   159.4530    13.9460 o          1 LIG      -0.261606
     15 H1          84.2320   158.2190    11.9800 hn         1 LIG       0.161344
     16 O3          83.1010   153.6060    14.6710 os         1 LIG      -0.254803
     17 C11         81.8760   152.9810    14.2900 c1         1 LIG       0.090565
     18 O4          86.9760   154.3040    11.8360 os         1 LIG      -0.247600
     19 C12         87.7790   153.5150    10.9540 c1         1 LIG       0.091180
     20 C13         83.3640   150.7860    14.4860 c1         1 LIG      -0.026454
     21 N3          83.9870   150.0890    15.6230 n3         1 LIG      -0.121304
     22 C14         83.5270   150.4740    16.9810 c2         1 LIG       0.169539
     23 C15         84.0670   148.6420    15.4240 c1         1 LIG       0.015076
     24 C16         81.9950   150.4480    17.2310 c1         1 LIG      -0.026803
     25 C17         82.9890   147.7380    16.0290 c1         1 LIG       0.008296
     26 N4          81.3320   149.1360    17.2410 n7         1 LIG      -0.181435
     27 C18         81.5780   148.3140    16.0600 c1         1 LIG       0.006146
     28 H2          80.3260   149.2890    17.3170 hn         1 LIG       0.153771
     29 C19         84.0750   151.8510    17.3760 c          1 LIG       0.312324
     30 O5          85.1580   152.3270    17.0670 o          1 LIG      -0.258875
     31 O6          83.2090   152.5870    18.1080 oh         1 LIG      -0.326499
     32 H3          82.3770   152.2300    18.3490 ho         1 LIG       0.221838
@<TRIPOS>BOND
     1     1     9 1   
     2     1     2 2   
     3     1     3 1   
     4     2    16 1   
     5     2     4 1   
     6     3    18 1   
     7     3     5 2   
     8     4     6 2   
     9     4    20 1   
    10     5     6 1   
    11     7     8 2   
    12     8     9 1   
    13     8    10 1   
    14     9    11 1   
    15    10    12 1   
    16    10    15 1   
    17    11    13 1   
    18    12    14 2   
    19    12    13 1   
    20    16    17 1   
    21    18    19 1   
    22    20    21 1   
    23    21    22 1   
    24    21    23 1   
    25    22    29 1   
    26    22    24 1   
    27    23    25 1   
    28    24    26 1   
    29    25    27 1   
    30    26    27 1   
    31    26    28 1   
    32    29    30 2   
    33    29    31 1   
    34    31    32 1   
@<TRIPOS>SUBSTRUCTURE
     1 LIG         1 TEMP              0 ****  ****    0 ROOT
