@<TRIPOS>MOLECULE
LIG
   28    30     1     0     0
SMALL
gas


@<TRIPOS>ATOM
      1 C1          84.1430   154.8130    13.7040 c2         1 LIG       0.146389
      2 C2          84.8630   153.7870    13.0710 c1         1 LIG      -0.060193
      3 C3          82.9110   154.4670    14.2830 c1         1 LIG      -0.027572
      4 C4          84.3910   152.4610    13.0240 ce         1 LIG       0.124980
      5 C5          82.4260   153.1550    14.2420 c1         1 LIG      -0.014323
      6 C6          83.1630   152.1560    13.6170 c1         1 LIG      -0.034988
      7 O1          84.2940   156.7580    11.5000 o          1 LIG      -0.252099
      8 C7          84.6950   157.0030    12.6350 c          1 LIG       0.324955
      9 N1          84.6350   156.1630    13.7560 n          1 LIG      -0.165254
     10 N2          85.2020   158.2600    12.8810 ns         1 LIG      -0.226954
     11 C8          85.2760   156.6600    14.9730 c1         1 LIG       0.021912
     12 C9          85.0720   158.9230    14.0700 c          1 LIG       0.296822
     13 C10         84.8050   158.0660    15.2730 c1         1 LIG       0.014545
     14 O2          85.0970   160.1490    14.1280 o          1 LIG      -0.261606
     15 H1          85.6900   158.7090    12.1530 hn         1 LIG       0.161345
     16 C11         85.1950   151.3850    12.3200 c1         1 LIG      -0.020613
     17 N3          86.6510   151.5590    12.4740 n3         1 LIG      -0.120765
     18 C12         87.2250   150.5680    13.4280 c2         1 LIG       0.169558
     19 C13         87.3420   151.6680    11.1840 c1         1 LIG       0.015096
     20 C14         88.7550   150.6390    13.6800 c1         1 LIG      -0.026803
     21 C15         88.7040   152.3470    11.3340 c1         1 LIG       0.008296
     22 N4          89.6230   150.2960    12.5470 n7         1 LIG      -0.181435
     23 C16         89.8660   151.4050    11.6340 c1         1 LIG       0.006146
     24 H2          89.1830   149.5390    12.0230 hn         1 LIG       0.153771
     25 C17         86.7890   149.1270    13.1420 c          1 LIG       0.312324
     26 O3          85.8410   148.5550    13.6600 o          1 LIG      -0.258875
     27 O4          87.5060   148.4930    12.1890 oh         1 LIG      -0.326499
     28 H3          88.2340   148.9240    11.7860 ho         1 LIG       0.221838
@<TRIPOS>BOND
     1     1     9 1   
     2     1     2 2   
     3     1     3 1   
     4     2     4 1   
     5     3     5 2   
     6     4     6 2   
     7     4    16 1   
     8     5     6 1   
     9     7     8 2   
    10     8     9 1   
    11     8    10 1   
    12     9    11 1   
    13    10    12 1   
    14    10    15 1   
    15    11    13 1   
    16    12    14 2   
    17    12    13 1   
    18    16    17 1   
    19    17    18 1   
    20    17    19 1   
    21    18    25 1   
    22    18    20 1   
    23    19    21 1   
    24    20    22 1   
    25    21    23 1   
    26    22    23 1   
    27    22    24 1   
    28    25    26 2   
    29    25    27 1   
    30    27    28 1   
@<TRIPOS>SUBSTRUCTURE
     1 LIG         1 TEMP              0 ****  ****    0 ROOT
