@<TRIPOS>MOLECULE
LIG
   39    43     1     0     0
SMALL
gas


@<TRIPOS>ATOM
      1 C1          85.2410   153.8860    13.3400 c2         1 LIG       0.122940
      2 C2          86.3530   153.2970    12.7040 c2         1 LIG       0.130626
      3 C3          84.2070   153.0550    13.8550 c2         1 LIG       0.161695
      4 C4          86.3750   151.9260    12.5490 cc         1 LIG       0.057358
      5 C5          84.2550   151.6600    13.7160 c1         1 LIG      -0.072972
      6 C6          85.3410   151.1150    13.0620 cd         1 LIG       0.063110
      7 C7          87.4050   151.0180    11.9200 c2         1 LIG       0.111046
      8 C8          85.6990   149.6740    12.7730 c2         1 LIG       0.115577
      9 N1          86.5690   149.8590    11.6140 n          1 LIG      -0.197319
     10 C9          88.4370   150.5410    12.9970 c1         1 LIG      -0.014371
     11 C10         86.6030   149.1040    13.9190 c1         1 LIG      -0.013822
     12 C11         87.0020   148.8580    10.7910 c          1 LIG       0.366390
     13 N2          87.8010   149.9570    14.2220 n3         1 LIG      -0.104676
     14 O1          87.9810   148.9600    10.0650 o          1 LIG      -0.241340
     15 O2          84.7890   155.6850    11.1400 o          1 LIG      -0.252137
     16 C12         85.0780   156.0880    12.2640 c          1 LIG       0.324077
     17 N3          85.1500   155.3090    13.4120 n          1 LIG      -0.174941
     18 N4          85.2550   157.4360    12.4700 ns         1 LIG      -0.226983
     19 C13         85.5840   155.9300    14.6570 c1         1 LIG       0.020997
     20 C14         84.9980   158.0920    13.6430 c          1 LIG       0.296821
     21 C15         84.8500   157.2350    14.8690 c1         1 LIG       0.014511
     22 O3          84.8150   159.3070    13.6670 o          1 LIG      -0.261606
     23 H1          85.5930   157.9700    11.7150 hn         1 LIG       0.161344
     24 O4          87.4100   154.0180    12.2190 os         1 LIG      -0.256076
     25 C16         87.6040   153.7480    10.8280 c1         1 LIG       0.090521
     26 O5          83.0750   153.6540    14.3630 os         1 LIG      -0.248250
     27 C17         82.1220   152.7020    14.8380 c1         1 LIG       0.091159
     28 O6          86.2220   147.7540    10.9010 os         1 LIG      -0.255445
     29 C18         86.8080   146.4450    11.1170 c3         1 LIG       0.262932
     30 C19         88.1030   146.5450    11.9310 c1         1 LIG      -0.035362
     31 C20         87.0160   145.7000     9.7940 c1         1 LIG      -0.035362
     32 C21         85.7640   145.6860    11.9490 c1         1 LIG      -0.035362
     33 C22         88.7880   149.2700    15.0610 c1         1 LIG      -0.013103
     34 C23         89.6920   150.2200    15.8170 ce         1 LIG       0.131806
     35 C24         90.8580   150.7230    15.2220 c1         1 LIG      -0.033781
     36 C25         89.3670   150.6280    17.1200 c1         1 LIG      -0.033781
     37 C26         91.6830   151.6080    15.9190 c1         1 LIG      -0.007503
     38 C27         90.1930   151.5110    17.8150 c1         1 LIG      -0.007503
     39 C28         91.3510   152.0010    17.2140 c1         1 LIG      -0.001214
@<TRIPOS>BOND
     1     1    17 1   
     2     1     2 2   
     3     1     3 1   
     4     2    24 1   
     5     2     4 1   
     6     3    26 1   
     7     3     5 2   
     8     4     6 2   
     9     4     7 1   
    10     5     6 1   
    11     6     8 1   
    12     7     9 1   
    13     7    10 1   
    14     8    11 1   
    15     8     9 1   
    16     9    12 1   
    17    10    13 1   
    18    11    13 1   
    19    12    14 2   
    20    12    28 1   
    21    13    33 1   
    22    15    16 2   
    23    16    17 1   
    24    16    18 1   
    25    17    19 1   
    26    18    20 1   
    27    18    23 1   
    28    19    21 1   
    29    20    22 2   
    30    20    21 1   
    31    24    25 1   
    32    26    27 1   
    33    28    29 1   
    34    29    30 1   
    35    29    31 1   
    36    29    32 1   
    37    33    34 1   
    38    34    35 2   
    39    34    36 1   
    40    35    37 1   
    41    36    38 2   
    42    37    39 2   
    43    38    39 1   
@<TRIPOS>SUBSTRUCTURE
     1 LIG         1 TEMP              0 ****  ****    0 ROOT
