@<TRIPOS>MOLECULE
LIG
   37    41     1     0     0
SMALL
gas


@<TRIPOS>ATOM
      1 C1          83.9230   154.8620    14.0150 c2         1 LIG       0.133482
      2 C2          84.7860   153.7640    13.8160 c2         1 LIG       0.135848
      3 C3          82.5440   154.6180    14.2450 c1         1 LIG      -0.041515
      4 C4          84.2680   152.4880    13.9260 cc         1 LIG       0.058486
      5 C5          82.0240   153.3190    14.3380 c1         1 LIG      -0.056598
      6 C6          82.9000   152.2670    14.1840 cd         1 LIG       0.068790
      7 C7          84.9470   151.1420    13.8420 c2         1 LIG       0.111092
      8 C8          82.6850   150.7730    14.2730 c2         1 LIG       0.116138
      9 N1          83.8080   150.3090    13.4610 n          1 LIG      -0.197296
     10 C9          85.3870   150.6710    15.2690 c1         1 LIG      -0.014370
     11 C10         82.9560   150.2670    15.7300 c1         1 LIG      -0.013799
     12 C11         83.9710   149.0350    12.9980 c          1 LIG       0.366390
     13 N2          84.2780   150.6940    16.2820 n3         1 LIG      -0.104676
     14 O1          85.0440   148.5870    12.6170 o          1 LIG      -0.241340
     15 O2          84.3100   156.4310    11.6360 o          1 LIG      -0.252117
     16 C12         84.5230   156.8870    12.7550 c          1 LIG       0.324534
     17 N3          84.4070   156.2090    13.9710 n          1 LIG      -0.170017
     18 N4          84.9640   158.1880    12.8580 ns         1 LIG      -0.226968
     19 C13         85.0990   156.7610    15.1260 c1         1 LIG       0.021474
     20 C14         85.0730   158.9410    13.9950 c          1 LIG       0.296821
     21 C15         84.7690   158.2310    15.2800 c1         1 LIG       0.014529
     22 O3          85.3360   160.1390    13.9530 o          1 LIG      -0.261606
     23 H1          85.2310   158.6260    12.0180 hn         1 LIG       0.161344
     24 O4          86.1080   153.8930    13.4940 os         1 LIG      -0.255491
     25 C16         86.3010   153.7280    12.0910 c1         1 LIG       0.090543
     26 O5          82.8040   148.3430    13.0280 os         1 LIG      -0.255445
     27 C17         82.7160   147.0560    13.6900 c3         1 LIG       0.262932
     28 C18         82.8940   145.9020    12.6980 c1         1 LIG      -0.035362
     29 C19         81.2860   147.0060    14.2500 c1         1 LIG      -0.035362
     30 C20         83.7020   146.9670    14.8610 c1         1 LIG      -0.035362
     31 C21         84.6140   149.9610    17.5080 c1         1 LIG      -0.013103
     32 C22         83.4390   149.7450    18.4380 ce         1 LIG       0.131806
     33 C23         83.6360   149.3390    19.7670 c1         1 LIG      -0.033781
     34 C24         82.1300   149.9870    17.9940 c1         1 LIG      -0.033781
     35 C25         82.5500   149.1580    20.6240 c1         1 LIG      -0.007503
     36 C26         81.0450   149.8100    18.8550 c1         1 LIG      -0.007503
     37 C27         81.2550   149.3940    20.1680 c1         1 LIG      -0.001214
@<TRIPOS>BOND
     1     1    17 1   
     2     1     2 2   
     3     1     3 1   
     4     2    24 1   
     5     2     4 1   
     6     3     5 2   
     7     4     6 2   
     8     4     7 1   
     9     5     6 1   
    10     6     8 1   
    11     7     9 1   
    12     7    10 1   
    13     8    11 1   
    14     8     9 1   
    15     9    12 1   
    16    10    13 1   
    17    11    13 1   
    18    12    14 2   
    19    12    26 1   
    20    13    31 1   
    21    15    16 2   
    22    16    17 1   
    23    16    18 1   
    24    17    19 1   
    25    18    20 1   
    26    18    23 1   
    27    19    21 1   
    28    20    22 2   
    29    20    21 1   
    30    24    25 1   
    31    26    27 1   
    32    27    28 1   
    33    27    29 1   
    34    27    30 1   
    35    31    32 1   
    36    32    33 2   
    37    32    34 1   
    38    33    35 1   
    39    34    36 2   
    40    35    37 2   
    41    36    37 1   
@<TRIPOS>SUBSTRUCTURE
     1 LIG         1 TEMP              0 ****  ****    0 ROOT
