@<TRIPOS>MOLECULE
LIG
   35    39     1     0     0
SMALL
gas


@<TRIPOS>ATOM
      1 C1          84.2320   154.5900    13.8390 c2         1 LIG       0.144614
      2 C2          83.0980   154.1820    14.5610 c1         1 LIG      -0.074836
      3 C3          84.9900   153.5980    13.1640 c1         1 LIG      -0.035739
      4 C4          82.7640   152.8380    14.5860 cc         1 LIG       0.068644
      5 C5          84.6500   152.2380    13.2010 c1         1 LIG      -0.055479
      6 C6          83.5330   151.8760    13.9180 cd         1 LIG       0.073901
      7 C7          81.6430   152.1200    15.3030 c2         1 LIG       0.116159
      8 C8          82.9250   150.5210    14.1950 c2         1 LIG       0.116702
      9 N1          81.5510   150.9100    14.4870 n          1 LIG      -0.196729
     10 C9          82.1440   151.7000    16.7250 c1         1 LIG      -0.013799
     11 C10         83.5460   149.9480    15.5140 c1         1 LIG      -0.013776
     12 C11         80.5640   149.9710    14.6010 c          1 LIG       0.366410
     13 N2          82.9320   150.4450    16.7700 n3         1 LIG      -0.104654
     14 O1          80.6710   148.8270    14.1810 o          1 LIG      -0.241340
     15 O2          84.2460   156.3490    11.5150 o          1 LIG      -0.252099
     16 C12         84.6050   156.7270    12.6270 c          1 LIG       0.324954
     17 N3          84.6280   155.9730    13.8060 n          1 LIG      -0.165321
     18 N4          85.0410   158.0260    12.7530 ns         1 LIG      -0.226954
     19 C13         85.2710   156.5660    14.9750 c1         1 LIG       0.021911
     20 C14         85.0620   158.7640    13.9020 c          1 LIG       0.296822
     21 C15         84.8280   158.0010    15.1680 c1         1 LIG       0.014545
     22 O3          85.1820   159.9860    13.8810 o          1 LIG      -0.261606
     23 H1          85.3710   158.4650    11.9360 hn         1 LIG       0.161345
     24 O4          79.4710   150.4750    15.2290 os         1 LIG      -0.255444
     25 C16         78.2140   149.7520    15.2290 c3         1 LIG       0.262932
     26 C17         78.5110   148.4580    16.0020 c1         1 LIG      -0.035362
     27 C18         77.1220   150.5280    15.9740 c1         1 LIG      -0.035362
     28 C19         77.7870   149.3820    13.8040 c1         1 LIG      -0.035362
     29 C20         83.6530   150.1680    18.0040 c1         1 LIG      -0.013102
     30 C21         82.8290   149.5700    19.1250 ce         1 LIG       0.131806
     31 C22         81.4850   149.2230    18.9200 c1         1 LIG      -0.033781
     32 C23         83.3870   149.3640    20.3950 c1         1 LIG      -0.033781
     33 C24         80.7240   148.6710    19.9530 c1         1 LIG      -0.007503
     34 C25         82.6260   148.8110    21.4280 c1         1 LIG      -0.007503
     35 C26         81.2960   148.4640    21.2060 c1         1 LIG      -0.001214
@<TRIPOS>BOND
     1     1    17 1   
     2     1     2 2   
     3     1     3 1   
     4     3     5 2   
     5     4     2 1   
     6     4     6 2   
     7     4     7 1   
     8     6     8 1   
     9     6     5 1   
    10     7     9 1   
    11     7    10 1   
    12     8    11 1   
    13     8     9 1   
    14     9    12 1   
    15    10    13 1   
    16    11    13 1   
    17    12    14 2   
    18    12    24 1   
    19    13    29 1   
    20    15    16 2   
    21    16    17 1   
    22    16    18 1   
    23    17    19 1   
    24    18    20 1   
    25    18    23 1   
    26    19    21 1   
    27    20    22 2   
    28    20    21 1   
    29    24    25 1   
    30    25    26 1   
    31    25    27 1   
    32    25    28 1   
    33    29    30 1   
    34    30    31 2   
    35    30    32 1   
    36    31    33 1   
    37    32    34 2   
    38    33    35 2   
    39    34    35 1   
@<TRIPOS>SUBSTRUCTURE
     1 LIG         1 TEMP              0 ****  ****    0 ROOT
