@<TRIPOS>MOLECULE
LIG
   32    36     1     0     0
SMALL
bcc


@<TRIPOS>ATOM
      1 O1          85.5710   149.0580    13.0200 o          1 LIG      -0.291100
      2 C1          85.0990   149.6340    14.0030 c          1 LIG       0.803300
      3 N1          85.9410   150.3950    14.7560 ns         1 LIG      -0.346700
      4 C2          83.6640   149.3990    14.4520 c2         1 LIG      -0.401900
      5 C3          85.5580   151.3250    15.7900 c1         1 LIG       0.379900
      6 C4          82.8670   150.4750    15.2050 c2         1 LIG       0.137300
      7 C5          82.7690   149.0230    13.2560 c1         1 LIG       0.193500
      8 C6          84.5760   152.3270    15.2420 ce         1 LIG      -0.181800
      9 C7          83.2760   151.9090    14.8950 ce         1 LIG       0.027900
     10 C8          81.4250   150.0560    14.8800 c1         1 LIG      -0.123500
     11 N2          81.4940   149.7280    13.4570 n3         1 LIG      -0.343400
     12 C9          84.9830   153.6540    15.0070 c1         1 LIG      -0.149900
     13 C10         82.4210   152.8460    14.3100 c1         1 LIG      -0.221900
     14 C11         84.1230   154.6000    14.4350 c2         1 LIG       0.038500
     15 C12         82.8380   154.1660    14.0850 c1         1 LIG       0.104100
     16 H1          86.9040   150.3020    14.5760 hn         1 LIG       0.450500
     17 N3          84.5520   155.9490    14.1910 n          1 LIG      -0.164800
     18 C13         84.6030   156.4900    12.9010 c          1 LIG       0.766100
     19 C14         85.1710   156.7140    15.2700 c1         1 LIG       0.055200
     20 O2          84.2870   155.9290    11.8540 o          1 LIG      -0.544100
     21 N4          85.0680   157.7820    12.8240 ns         1 LIG      -0.607500
     22 C15         84.7720   158.1730    15.1990 c1         1 LIG      -0.213200
     23 C16         85.0830   158.7020    13.8340 c          1 LIG       0.743300
     24 O3          85.2630   159.8970    13.6140 o          1 LIG      -0.514100
     25 H2          85.4250   158.0740    11.9540 hn         1 LIG       0.364500
     26 C17         80.3430   148.9760    12.9580 c1         1 LIG       0.221500
     27 C18         79.0750   149.2760    13.7290 ce         1 LIG      -0.176800
     28 C19         79.0370   150.3100    14.6740 c1         1 LIG       0.133600
     29 C20         77.9150   148.5190    13.5040 c1         1 LIG       0.070500
     30 C21         77.8630   150.5810    15.3800 c1         1 LIG      -0.137500
     31 C22         76.7420   148.7910    14.2110 c1         1 LIG      -0.137500
     32 C23         76.7170   149.8210    15.1480 c1         1 LIG       0.065000
@<TRIPOS>BOND
     1     1     2 2   
     2     2     3 1   
     3     3     5 1   
     4     3    16 1   
     5     4     2 1   
     6     4     6 1   
     7     4     7 1   
     8     6     9 1   
     9     6    10 1   
    10     7    11 1   
    11     8     5 1   
    12     8    12 2   
    13     8     9 1   
    14     9    13 2   
    15    10    11 1   
    16    11    26 1   
    17    13    15 1   
    18    14    12 1   
    19    14    17 1   
    20    14    15 2   
    21    17    18 1   
    22    17    19 1   
    23    18    20 2   
    24    18    21 1   
    25    19    22 1   
    26    21    23 1   
    27    21    25 1   
    28    22    23 1   
    29    23    24 2   
    30    26    27 1   
    31    27    28 2   
    32    27    29 1   
    33    28    30 1   
    34    29    31 2   
    35    30    32 2   
    36    31    32 1   
@<TRIPOS>SUBSTRUCTURE
     1 LIG         1 TEMP              0 ****  ****    0 ROOT
