A1
     RDKit          2D

 34 38  0  0  0  0  0  0  0  0999 V2000
   -3.2044   -2.9213    0.0000 O   0  0  0  0  0  0  0  0  0  0  0  0
   -2.2913   -1.7312    0.0000 C   0  0  0  0  0  0  0  0  0  0  0  0
   -2.8654   -0.3454    0.0000 N   0  0  0  0  0  0  0  0  0  0  0  0
   -4.3526   -0.1497    0.0000 C   0  0  0  0  0  0  0  0  0  0  0  0
   -4.9267    1.2361    0.0000 C   0  0  0  0  0  0  0  0  0  0  0  0
   -4.0137    2.4262    0.0000 C   0  0  0  0  0  0  0  0  0  0  0  0
   -4.5878    3.8120    0.0000 C   0  0  0  0  0  0  0  0  0  0  0  0
   -6.0750    4.0076    0.0000 C   0  0  0  0  0  0  0  0  0  0  0  0
   -6.9880    2.8176    0.0000 C   0  0  0  0  0  0  0  0  0  0  0  0
   -6.4139    1.4318    0.0000 C   0  0  0  0  0  0  0  0  0  0  0  0
   -7.3270    0.2417    0.0000 N   0  0  0  0  0  0  0  0  0  0  0  0
   -6.9009   -1.1965    0.0000 C   0  0  0  0  0  0  0  0  0  0  0  0
   -8.1370   -2.0462    0.0000 C   0  0  0  0  0  0  0  0  0  0  0  0
   -9.3271   -1.1331    0.0000 C   0  0  0  0  0  0  0  0  0  0  0  0
   -8.8265    0.2808    0.0000 C   0  0  0  0  0  0  0  0  0  0  0  0
   -0.8041   -1.9269    0.0000 C   0  0  0  0  0  0  0  0  0  0  0  0
   -0.2300   -3.3126    0.0000 C   0  0  0  0  0  0  0  0  0  0  0  0
    1.2572   -3.5083    0.0000 C   0  0  0  0  0  0  0  0  0  0  0  0
    2.1702   -2.3182    0.0000 C   0  0  0  0  0  0  0  0  0  0  0  0
    1.5961   -0.9325    0.0000 C   0  0  0  0  0  0  0  0  0  0  0  0
    0.1089   -0.7368    0.0000 N   0  0  0  0  0  0  0  0  0  0  0  0
    2.5092    0.2576    0.0000 C   0  0  0  0  0  0  0  0  0  0  0  0
    3.9964    0.0619    0.0000 N   0  0  0  0  0  0  0  0  0  0  0  0
    4.9094    1.2520    0.0000 C   0  0  0  0  0  0  0  0  0  0  0  0
    4.3353    2.6378    0.0000 O   0  0  0  0  0  0  0  0  0  0  0  0
    6.3966    1.0564    0.0000 C   0  0  0  0  0  0  0  0  0  0  0  0
    6.9707   -0.3294    0.0000 C   0  0  0  0  0  0  0  0  0  0  0  0
    8.4579   -0.5251    0.0000 C   0  0  0  0  0  0  0  0  0  0  0  0
    9.3710    0.6650    0.0000 C   0  0  0  0  0  0  0  0  0  0  0  0
   10.8581    0.4693    0.0000 F   0  0  0  0  0  0  0  0  0  0  0  0
    8.7968    2.0508    0.0000 C   0  0  0  0  0  0  0  0  0  0  0  0
    7.3097    2.2464    0.0000 C   0  0  0  0  0  0  0  0  0  0  0  0
    4.5705   -1.3238    0.0000 C   0  0  0  0  0  0  0  0  0  0  0  0
    3.6574   -2.5139    0.0000 C   0  0  0  0  0  0  0  0  0  0  0  0
  1  2  2  0
  2  3  1  0
  3  4  1  0
  4  5  1  0
  5  6  2  0
  6  7  1  0
  7  8  2  0
  8  9  1  0
  9 10  2  0
 10 11  1  0
 11 12  1  0
 12 13  2  0
 13 14  1  0
 14 15  2  0
  2 16  1  0
 16 17  2  0
 17 18  1  0
 18 19  2  0
 19 20  1  0
 20 21  2  0
 20 22  1  0
 22 23  1  0
 23 24  1  0
 24 25  2  0
 24 26  1  0
 26 27  2  0
 27 28  1  0
 28 29  2  0
 29 30  1  0
 29 31  1  0
 31 32  2  0
 23 33  1  0
 33 34  1  0
 10  5  1  0
 15 11  1  0
 21 16  1  0
 32 26  1  0
 34 19  1  0
M  END
>  <Compound_ID>  (1) 
A1

>  <SMILES>  (1) 
O=C(NCc1ccccc1-n1cccc1)c1ccc2c(n1)CN(C(=O)c1ccc(F)cc1)CC2

>  <MW>  (1) 
454.51

>  <cLogP>  (1) 
4.14

>  <HBD>  (1) 
1

>  <HBA>  (1) 
4

>  <RotB>  (1) 
5

>  <Design_Rationale>  (1) 
Best R2 (2-pyrrolyl-benzyl) + 4-fluorophenyl R1. Tests aryl-F sufficient for R1 pocket vs pyridine-ether.

>  <Target>  (1) 
P841

>  <Design_Group>  (1) 
A

>  <Filter_Status>  (1) 
PAINS_clean_Brenk_clean_NIH_clean

$$$$
A2
     RDKit          2D

 38 42  0  0  0  0  0  0  0  0999 V2000
   -4.3262   -2.9361    0.0000 O   0  0  0  0  0  0  0  0  0  0  0  0
   -3.4538   -1.7158    0.0000 C   0  0  0  0  0  0  0  0  0  0  0  0
   -4.0744   -0.3502    0.0000 N   0  0  0  0  0  0  0  0  0  0  0  0
   -5.5674   -0.2049    0.0000 C   0  0  0  0  0  0  0  0  0  0  0  0
   -6.1880    1.1607    0.0000 C   0  0  0  0  0  0  0  0  0  0  0  0
   -5.3156    2.3810    0.0000 C   0  0  0  0  0  0  0  0  0  0  0  0
   -5.9362    3.7466    0.0000 C   0  0  0  0  0  0  0  0  0  0  0  0
   -7.4291    3.8919    0.0000 C   0  0  0  0  0  0  0  0  0  0  0  0
   -8.3015    2.6717    0.0000 C   0  0  0  0  0  0  0  0  0  0  0  0
   -7.6809    1.3061    0.0000 C   0  0  0  0  0  0  0  0  0  0  0  0
   -8.5533    0.0858    0.0000 N   0  0  0  0  0  0  0  0  0  0  0  0
   -8.0788   -1.3372    0.0000 C   0  0  0  0  0  0  0  0  0  0  0  0
   -9.2855   -2.2281    0.0000 C   0  0  0  0  0  0  0  0  0  0  0  0
  -10.5058   -1.3558    0.0000 C   0  0  0  0  0  0  0  0  0  0  0  0
  -10.0532    0.0743    0.0000 C   0  0  0  0  0  0  0  0  0  0  0  0
   -1.9609   -1.8612    0.0000 C   0  0  0  0  0  0  0  0  0  0  0  0
   -1.3403   -3.2268    0.0000 C   0  0  0  0  0  0  0  0  0  0  0  0
    0.1526   -3.3722    0.0000 C   0  0  0  0  0  0  0  0  0  0  0  0
    1.0250   -2.1519    0.0000 C   0  0  0  0  0  0  0  0  0  0  0  0
    0.4044   -0.7863    0.0000 C   0  0  0  0  0  0  0  0  0  0  0  0
   -1.0885   -0.6410    0.0000 N   0  0  0  0  0  0  0  0  0  0  0  0
    1.2767    0.4339    0.0000 C   0  0  0  0  0  0  0  0  0  0  0  0
    2.7697    0.2886    0.0000 N   0  0  0  0  0  0  0  0  0  0  0  0
    3.6420    1.5088    0.0000 C   0  0  0  0  0  0  0  0  0  0  0  0
    3.0214    2.8744    0.0000 O   0  0  0  0  0  0  0  0  0  0  0  0
    5.1350    1.3635    0.0000 C   0  0  0  0  0  0  0  0  0  0  0  0
    5.7556   -0.0021    0.0000 C   0  0  0  0  0  0  0  0  0  0  0  0
    7.2485   -0.1475    0.0000 N   0  0  0  0  0  0  0  0  0  0  0  0
    8.1209    1.0728    0.0000 C   0  0  0  0  0  0  0  0  0  0  0  0
    9.6138    0.9274    0.0000 O   0  0  0  0  0  0  0  0  0  0  0  0
   10.2344   -0.4382    0.0000 C   0  0  0  0  0  0  0  0  0  0  0  0
   10.8550   -1.8038    0.0000 F   0  0  0  0  0  0  0  0  0  0  0  0
   11.6000    0.1824    0.0000 F   0  0  0  0  0  0  0  0  0  0  0  0
    8.8688   -1.0588    0.0000 F   0  0  0  0  0  0  0  0  0  0  0  0
    7.5003    2.4384    0.0000 C   0  0  0  0  0  0  0  0  0  0  0  0
    6.0073    2.5837    0.0000 C   0  0  0  0  0  0  0  0  0  0  0  0
    3.3903   -1.0770    0.0000 C   0  0  0  0  0  0  0  0  0  0  0  0
    2.5179   -2.2973    0.0000 C   0  0  0  0  0  0  0  0  0  0  0  0
  1  2  2  0
  2  3  1  0
  3  4  1  0
  4  5  1  0
  5  6  2  0
  6  7  1  0
  7  8  2  0
  8  9  1  0
  9 10  2  0
 10 11  1  0
 11 12  1  0
 12 13  2  0
 13 14  1  0
 14 15  2  0
  2 16  1  0
 16 17  2  0
 17 18  1  0
 18 19  2  0
 19 20  1  0
 20 21  2  0
 20 22  1  0
 22 23  1  0
 23 24  1  0
 24 25  2  0
 24 26  1  0
 26 27  2  0
 27 28  1  0
 28 29  2  0
 29 30  1  0
 30 31  1  0
 31 32  1  0
 31 33  1  0
 31 34  1  0
 29 35  1  0
 35 36  2  0
 23 37  1  0
 37 38  1  0
 10  5  1  0
 15 11  1  0
 21 16  1  0
 36 26  1  0
 38 19  1  0
M  END
>  <Compound_ID>  (2) 
A2

>  <SMILES>  (2) 
O=C(NCc1ccccc1-n1cccc1)c1ccc2c(n1)CN(C(=O)c1cnc(OC(F)(F)F)cc1)CC2

>  <MW>  (2) 
521.50

>  <cLogP>  (2) 
4.29

>  <HBD>  (2) 
1

>  <HBA>  (2) 
6

>  <RotB>  (2) 
6

>  <Design_Rationale>  (2) 
Best R2 + OCF3-pyridine R1. Bioisostere of top hit trifluoroethoxy — shorter chain, better metabolic stability.

>  <Target>  (2) 
P841

>  <Design_Group>  (2) 
A

>  <Filter_Status>  (2) 
PAINS_clean_Brenk_clean_NIH_clean

$$$$
A3
     RDKit          2D

 37 41  0  0  0  0  0  0  0  0999 V2000
   -4.1524   -2.9153    0.0000 O   0  0  0  0  0  0  0  0  0  0  0  0
   -3.2283   -1.7338    0.0000 C   0  0  0  0  0  0  0  0  0  0  0  0
   -3.7894   -0.3427    0.0000 N   0  0  0  0  0  0  0  0  0  0  0  0
   -5.2747   -0.1331    0.0000 C   0  0  0  0  0  0  0  0  0  0  0  0
   -5.8358    1.2580    0.0000 C   0  0  0  0  0  0  0  0  0  0  0  0
   -4.9116    2.4395    0.0000 C   0  0  0  0  0  0  0  0  0  0  0  0
   -5.4728    3.8306    0.0000 C   0  0  0  0  0  0  0  0  0  0  0  0
   -6.9581    4.0401    0.0000 C   0  0  0  0  0  0  0  0  0  0  0  0
   -7.8822    2.8586    0.0000 C   0  0  0  0  0  0  0  0  0  0  0  0
   -7.3211    1.4676    0.0000 C   0  0  0  0  0  0  0  0  0  0  0  0
   -8.2452    0.2861    0.0000 N   0  0  0  0  0  0  0  0  0  0  0  0
   -7.8326   -1.1561    0.0000 C   0  0  0  0  0  0  0  0  0  0  0  0
   -9.0766   -1.9942    0.0000 C   0  0  0  0  0  0  0  0  0  0  0  0
  -10.2581   -1.0700    0.0000 C   0  0  0  0  0  0  0  0  0  0  0  0
   -9.7443    0.3392    0.0000 C   0  0  0  0  0  0  0  0  0  0  0  0
   -1.7430   -1.9434    0.0000 C   0  0  0  0  0  0  0  0  0  0  0  0
   -1.1818   -3.3345    0.0000 C   0  0  0  0  0  0  0  0  0  0  0  0
    0.3034   -3.5441    0.0000 C   0  0  0  0  0  0  0  0  0  0  0  0
    1.2276   -2.3626    0.0000 C   0  0  0  0  0  0  0  0  0  0  0  0
    0.6665   -0.9715    0.0000 C   0  0  0  0  0  0  0  0  0  0  0  0
   -0.8188   -0.7619    0.0000 N   0  0  0  0  0  0  0  0  0  0  0  0
    1.5906    0.2100    0.0000 C   0  0  0  0  0  0  0  0  0  0  0  0
    3.0759    0.0004    0.0000 N   0  0  0  0  0  0  0  0  0  0  0  0
    4.0001    1.1819    0.0000 C   0  0  0  0  0  0  0  0  0  0  0  0
    3.4389    2.5730    0.0000 O   0  0  0  0  0  0  0  0  0  0  0  0
    5.4853    0.9723    0.0000 C   0  0  0  0  0  0  0  0  0  0  0  0
    6.0465   -0.4188    0.0000 C   0  0  0  0  0  0  0  0  0  0  0  0
    7.5318   -0.6284    0.0000 C   0  0  0  0  0  0  0  0  0  0  0  0
    8.4559    0.5531    0.0000 C   0  0  0  0  0  0  0  0  0  0  0  0
    9.9412    0.3436    0.0000 C   0  0  0  0  0  0  0  0  0  0  0  0
   11.4265    0.1340    0.0000 F   0  0  0  0  0  0  0  0  0  0  0  0
    9.7316   -1.1417    0.0000 F   0  0  0  0  0  0  0  0  0  0  0  0
   10.1508    1.8288    0.0000 F   0  0  0  0  0  0  0  0  0  0  0  0
    7.8948    1.9442    0.0000 N   0  0  0  0  0  0  0  0  0  0  0  0
    6.4095    2.1538    0.0000 C   0  0  0  0  0  0  0  0  0  0  0  0
    3.6370   -1.3907    0.0000 C   0  0  0  0  0  0  0  0  0  0  0  0
    2.7129   -2.5722    0.0000 C   0  0  0  0  0  0  0  0  0  0  0  0
  1  2  2  0
  2  3  1  0
  3  4  1  0
  4  5  1  0
  5  6  2  0
  6  7  1  0
  7  8  2  0
  8  9  1  0
  9 10  2  0
 10 11  1  0
 11 12  1  0
 12 13  2  0
 13 14  1  0
 14 15  2  0
  2 16  1  0
 16 17  2  0
 17 18  1  0
 18 19  2  0
 19 20  1  0
 20 21  2  0
 20 22  1  0
 22 23  1  0
 23 24  1  0
 24 25  2  0
 24 26  1  0
 26 27  2  0
 27 28  1  0
 28 29  2  0
 29 30  1  0
 30 31  1  0
 30 32  1  0
 30 33  1  0
 29 34  1  0
 34 35  2  0
 23 36  1  0
 36 37  1  0
 10  5  1  0
 15 11  1  0
 21 16  1  0
 35 26  1  0
 37 19  1  0
M  END
>  <Compound_ID>  (3) 
A3

>  <SMILES>  (3) 
O=C(NCc1ccccc1-n1cccc1)c1ccc2c(n1)CN(C(=O)c1ccc(C(F)(F)F)nc1)CC2

>  <MW>  (3) 
505.50

>  <cLogP>  (3) 
4.41

>  <HBD>  (3) 
1

>  <HBA>  (3) 
5

>  <RotB>  (3) 
5

>  <Design_Rationale>  (3) 
Best R2 + 4-CF3-pyridine-2-carbonyl R1. CF3 vs ether for lipophilic R1 pocket.

>  <Target>  (3) 
P841

>  <Design_Group>  (3) 
A

>  <Filter_Status>  (3) 
PAINS_clean_Brenk_clean_NIH_clean

$$$$
B1
     RDKit          2D

 32 36  0  0  0  0  0  0  0  0999 V2000
   -7.3427   -1.0023    0.0000 C   0  0  0  0  0  0  0  0  0  0  0  0
   -6.1463   -0.0976    0.0000 C   0  0  0  0  0  0  0  0  0  0  0  0
   -4.7111   -0.5338    0.0000 C   0  0  0  0  0  0  0  0  0  0  0  0
   -4.2204   -1.9512    0.0000 C   0  0  0  0  0  0  0  0  0  0  0  0
   -5.2026   -3.0849    0.0000 O   0  0  0  0  0  0  0  0  0  0  0  0
   -2.7475   -2.2350    0.0000 N   0  0  0  0  0  0  0  0  0  0  0  0
   -2.2568   -3.6525    0.0000 C   0  0  0  0  0  0  0  0  0  0  0  0
   -0.7839   -3.9363    0.0000 C   0  0  0  0  0  0  0  0  0  0  0  0
    0.1983   -2.8026    0.0000 C   0  0  0  0  0  0  0  0  0  0  0  0
    1.6712   -3.0864    0.0000 C   0  0  0  0  0  0  0  0  0  0  0  0
    2.6534   -1.9527    0.0000 C   0  0  0  0  0  0  0  0  0  0  0  0
    2.1628   -0.5353    0.0000 C   0  0  0  0  0  0  0  0  0  0  0  0
    3.1450    0.5984    0.0000 C   0  0  0  0  0  0  0  0  0  0  0  0
    2.6543    2.0159    0.0000 O   0  0  0  0  0  0  0  0  0  0  0  0
    4.6179    0.3146    0.0000 N   0  0  0  0  0  0  0  0  0  0  0  0
    5.6001    1.4483    0.0000 C   0  0  0  0  0  0  0  0  0  0  0  0
    7.0730    1.1645    0.0000 C   0  0  0  0  0  0  0  0  0  0  0  0
    7.5637   -0.2529    0.0000 C   0  0  0  0  0  0  0  0  0  0  0  0
    9.0366   -0.5367    0.0000 C   0  0  0  0  0  0  0  0  0  0  0  0
   10.0189    0.5969    0.0000 N   0  0  0  0  0  0  0  0  0  0  0  0
    9.5282    2.0144    0.0000 C   0  0  0  0  0  0  0  0  0  0  0  0
    8.0553    2.2982    0.0000 C   0  0  0  0  0  0  0  0  0  0  0  0
    0.6899   -0.2515    0.0000 N   0  0  0  0  0  0  0  0  0  0  0  0
   -0.2924   -1.3851    0.0000 C   0  0  0  0  0  0  0  0  0  0  0  0
   -1.7653   -1.1013    0.0000 C   0  0  0  0  0  0  0  0  0  0  0  0
   -3.8528    0.6964    0.0000 O   0  0  0  0  0  0  0  0  0  0  0  0
   -4.7574    1.8928    0.0000 C   0  0  0  0  0  0  0  0  0  0  0  0
   -4.4737    3.3658    0.0000 C   0  0  0  0  0  0  0  0  0  0  0  0
   -5.6073    4.3480    0.0000 C   0  0  0  0  0  0  0  0  0  0  0  0
   -7.0248    3.8573    0.0000 C   0  0  0  0  0  0  0  0  0  0  0  0
   -7.3086    2.3844    0.0000 C   0  0  0  0  0  0  0  0  0  0  0  0
   -6.1749    1.4022    0.0000 C   0  0  0  0  0  0  0  0  0  0  0  0
  1  2  1  0
  2  3  2  0
  3  4  1  0
  4  5  2  0
  4  6  1  0
  6  7  1  0
  7  8  1  0
  8  9  1  0
  9 10  2  0
 10 11  1  0
 11 12  2  0
 12 13  1  0
 13 14  2  0
 13 15  1  0
 15 16  1  0
 16 17  1  0
 17 18  2  0
 18 19  1  0
 19 20  2  0
 20 21  1  0
 21 22  2  0
 12 23  1  0
 23 24  2  0
 24 25  1  0
  3 26  1  0
 26 27  1  0
 27 28  2  0
 28 29  1  0
 29 30  2  0
 30 31  1  0
 31 32  2  0
 32  2  1  0
 25  6  1  0
 32 27  1  0
 24  9  1  0
 22 17  1  0
M  END
>  <Compound_ID>  (4) 
B1

>  <SMILES>  (4) 
Cc1c(C(=O)N2CCc3ccc(C(=O)NCc4ccncc4)nc3C2)oc2ccccc12

>  <MW>  (4) 
426.48

>  <cLogP>  (4) 
3.66

>  <HBD>  (4) 
1

>  <HBA>  (4) 
5

>  <RotB>  (4) 
4

>  <Design_Rationale>  (4) 
EDS00480994 PAINS-free analogue: 4-pyridylmethyl replaces piperazino-aniline. Removes anil_di_alk_E flag.

>  <Target>  (4) 
P841

>  <Design_Group>  (4) 
B

>  <Filter_Status>  (4) 
PAINS_clean_Brenk_clean_NIH_clean

$$$$
B2
     RDKit          2D

 32 36  0  0  0  0  0  0  0  0999 V2000
   -7.3427   -1.0023    0.0000 C   0  0  0  0  0  0  0  0  0  0  0  0
   -6.1463   -0.0976    0.0000 C   0  0  0  0  0  0  0  0  0  0  0  0
   -4.7111   -0.5338    0.0000 C   0  0  0  0  0  0  0  0  0  0  0  0
   -4.2204   -1.9512    0.0000 C   0  0  0  0  0  0  0  0  0  0  0  0
   -5.2026   -3.0849    0.0000 O   0  0  0  0  0  0  0  0  0  0  0  0
   -2.7475   -2.2350    0.0000 N   0  0  0  0  0  0  0  0  0  0  0  0
   -2.2568   -3.6525    0.0000 C   0  0  0  0  0  0  0  0  0  0  0  0
   -0.7839   -3.9363    0.0000 C   0  0  0  0  0  0  0  0  0  0  0  0
    0.1983   -2.8026    0.0000 C   0  0  0  0  0  0  0  0  0  0  0  0
    1.6712   -3.0864    0.0000 C   0  0  0  0  0  0  0  0  0  0  0  0
    2.6534   -1.9527    0.0000 C   0  0  0  0  0  0  0  0  0  0  0  0
    2.1628   -0.5353    0.0000 C   0  0  0  0  0  0  0  0  0  0  0  0
    3.1450    0.5984    0.0000 C   0  0  0  0  0  0  0  0  0  0  0  0
    2.6543    2.0159    0.0000 O   0  0  0  0  0  0  0  0  0  0  0  0
    4.6179    0.3146    0.0000 N   0  0  0  0  0  0  0  0  0  0  0  0
    5.6001    1.4483    0.0000 C   0  0  0  0  0  0  0  0  0  0  0  0
    7.0730    1.1645    0.0000 C   0  0  0  0  0  0  0  0  0  0  0  0
    7.5637   -0.2529    0.0000 C   0  0  0  0  0  0  0  0  0  0  0  0
    9.0366   -0.5367    0.0000 C   0  0  0  0  0  0  0  0  0  0  0  0
   10.0189    0.5969    0.0000 O   0  0  0  0  0  0  0  0  0  0  0  0
    9.5282    2.0144    0.0000 C   0  0  0  0  0  0  0  0  0  0  0  0
    8.0553    2.2982    0.0000 C   0  0  0  0  0  0  0  0  0  0  0  0
    0.6899   -0.2515    0.0000 N   0  0  0  0  0  0  0  0  0  0  0  0
   -0.2924   -1.3851    0.0000 C   0  0  0  0  0  0  0  0  0  0  0  0
   -1.7653   -1.1013    0.0000 C   0  0  0  0  0  0  0  0  0  0  0  0
   -3.8528    0.6964    0.0000 O   0  0  0  0  0  0  0  0  0  0  0  0
   -4.7574    1.8928    0.0000 C   0  0  0  0  0  0  0  0  0  0  0  0
   -4.4737    3.3658    0.0000 C   0  0  0  0  0  0  0  0  0  0  0  0
   -5.6073    4.3480    0.0000 C   0  0  0  0  0  0  0  0  0  0  0  0
   -7.0248    3.8573    0.0000 C   0  0  0  0  0  0  0  0  0  0  0  0
   -7.3086    2.3844    0.0000 C   0  0  0  0  0  0  0  0  0  0  0  0
   -6.1749    1.4022    0.0000 C   0  0  0  0  0  0  0  0  0  0  0  0
  1  2  1  0
  2  3  2  0
  3  4  1  0
  4  5  2  0
  4  6  1  0
  6  7  1  0
  7  8  1  0
  8  9  1  0
  9 10  2  0
 10 11  1  0
 11 12  2  0
 12 13  1  0
 13 14  2  0
 13 15  1  0
 15 16  1  0
 16 17  1  0
 17 18  1  0
 18 19  1  0
 19 20  1  0
 20 21  1  0
 21 22  1  0
 12 23  1  0
 23 24  2  0
 24 25  1  0
  3 26  1  0
 26 27  1  0
 27 28  2  0
 28 29  1  0
 29 30  2  0
 30 31  1  0
 31 32  2  0
 32  2  1  0
 25  6  1  0
 32 27  1  0
 24  9  1  0
 22 17  1  0
M  END
>  <Compound_ID>  (5) 
B2

>  <SMILES>  (5) 
Cc1c(C(=O)N2CCc3ccc(C(=O)NCC4CCOCC4)nc3C2)oc2ccccc12

>  <MW>  (5) 
433.51

>  <cLogP>  (5) 
3.49

>  <HBD>  (5) 
1

>  <HBA>  (5) 
5

>  <RotB>  (5) 
4

>  <Design_Rationale>  (5) 
EDS00480994 analogue: tetrahydropyranyl-methyl R2, no amine. Tests if basic N essential.

>  <Target>  (5) 
P841

>  <Design_Group>  (5) 
B

>  <Filter_Status>  (5) 
PAINS_clean_Brenk_clean_NIH_clean

$$$$
B3
     RDKit          2D

 33 37  0  0  0  0  0  0  0  0999 V2000
   -7.6948   -0.9824    0.0000 C   0  0  0  0  0  0  0  0  0  0  0  0
   -6.4949   -0.0823    0.0000 C   0  0  0  0  0  0  0  0  0  0  0  0
   -5.0614   -0.5239    0.0000 C   0  0  0  0  0  0  0  0  0  0  0  0
   -4.5761   -1.9433    0.0000 C   0  0  0  0  0  0  0  0  0  0  0  0
   -5.5626   -3.0732    0.0000 O   0  0  0  0  0  0  0  0  0  0  0  0
   -3.1043   -2.2327    0.0000 N   0  0  0  0  0  0  0  0  0  0  0  0
   -2.6190   -3.6520    0.0000 C   0  0  0  0  0  0  0  0  0  0  0  0
   -1.1472   -3.9414    0.0000 C   0  0  0  0  0  0  0  0  0  0  0  0
   -0.1607   -2.8115    0.0000 C   0  0  0  0  0  0  0  0  0  0  0  0
    1.3112   -3.1009    0.0000 C   0  0  0  0  0  0  0  0  0  0  0  0
    2.2977   -1.9710    0.0000 C   0  0  0  0  0  0  0  0  0  0  0  0
    1.8124   -0.5517    0.0000 C   0  0  0  0  0  0  0  0  0  0  0  0
    2.7990    0.5783    0.0000 C   0  0  0  0  0  0  0  0  0  0  0  0
    2.3137    1.9976    0.0000 O   0  0  0  0  0  0  0  0  0  0  0  0
    4.2708    0.2889    0.0000 N   0  0  0  0  0  0  0  0  0  0  0  0
    5.2573    1.4188    0.0000 C   0  0  0  0  0  0  0  0  0  0  0  0
    6.7292    1.1294    0.0000 C   0  0  0  0  0  0  0  0  0  0  0  0
    7.2144   -0.2900    0.0000 C   0  0  0  0  0  0  0  0  0  0  0  0
    8.6862   -0.5794    0.0000 C   0  0  0  0  0  0  0  0  0  0  0  0
    9.6728    0.5506    0.0000 C   0  0  0  0  0  0  0  0  0  0  0  0
   11.1446    0.2611    0.0000 F   0  0  0  0  0  0  0  0  0  0  0  0
    9.1875    1.9699    0.0000 C   0  0  0  0  0  0  0  0  0  0  0  0
    7.7157    2.2593    0.0000 C   0  0  0  0  0  0  0  0  0  0  0  0
    0.3406   -0.2622    0.0000 N   0  0  0  0  0  0  0  0  0  0  0  0
   -0.6459   -1.3922    0.0000 C   0  0  0  0  0  0  0  0  0  0  0  0
   -2.1177   -1.1028    0.0000 C   0  0  0  0  0  0  0  0  0  0  0  0
   -4.1983    0.7029    0.0000 O   0  0  0  0  0  0  0  0  0  0  0  0
   -5.0985    1.9028    0.0000 C   0  0  0  0  0  0  0  0  0  0  0  0
   -4.8090    3.3746    0.0000 C   0  0  0  0  0  0  0  0  0  0  0  0
   -5.9390    4.3612    0.0000 C   0  0  0  0  0  0  0  0  0  0  0  0
   -7.3583    3.8759    0.0000 C   0  0  0  0  0  0  0  0  0  0  0  0
   -7.6477    2.4041    0.0000 C   0  0  0  0  0  0  0  0  0  0  0  0
   -6.5178    1.4175    0.0000 C   0  0  0  0  0  0  0  0  0  0  0  0
  1  2  1  0
  2  3  2  0
  3  4  1  0
  4  5  2  0
  4  6  1  0
  6  7  1  0
  7  8  1  0
  8  9  1  0
  9 10  2  0
 10 11  1  0
 11 12  2  0
 12 13  1  0
 13 14  2  0
 13 15  1  0
 15 16  1  0
 16 17  1  0
 17 18  2  0
 18 19  1  0
 19 20  2  0
 20 21  1  0
 20 22  1  0
 22 23  2  0
 12 24  1  0
 24 25  2  0
 25 26  1  0
  3 27  1  0
 27 28  1  0
 28 29  2  0
 29 30  1  0
 30 31  2  0
 31 32  1  0
 32 33  2  0
 33  2  1  0
 26  6  1  0
 33 28  1  0
 25  9  1  0
 23 17  1  0
M  END
>  <Compound_ID>  (6) 
B3

>  <SMILES>  (6) 
Cc1c(C(=O)N2CCc3ccc(C(=O)NCc4ccc(F)cc4)nc3C2)oc2ccccc12

>  <MW>  (6) 
443.48

>  <cLogP>  (6) 
4.40

>  <HBD>  (6) 
1

>  <HBA>  (6) 
4

>  <RotB>  (6) 
4

>  <Design_Rationale>  (6) 
EDS00480994 analogue: 4-fluorobenzyl R2. Minimal clean benchmark for piperazine contribution.

>  <Target>  (6) 
P841

>  <Design_Group>  (6) 
B

>  <Filter_Status>  (6) 
PAINS_clean_Brenk_clean_NIH_clean

$$$$
C1
     RDKit          2D

 40 44  0  0  0  0  0  0  0  0999 V2000
   -3.5372   -5.0214    0.0000 O   0  0  0  0  0  0  0  0  0  0  0  0
   -2.9748   -3.6308    0.0000 C   0  0  0  0  0  0  0  0  0  0  0  0
   -3.8978   -2.4484    0.0000 N   0  0  0  0  0  0  0  0  0  0  0  0
   -5.3833   -2.6567    0.0000 C   0  0  0  0  0  0  0  0  0  0  0  0
   -6.3064   -1.4743    0.0000 C   0  0  0  0  0  0  0  0  0  0  0  0
   -5.7440   -0.0838    0.0000 C   0  0  0  0  0  0  0  0  0  0  0  0
   -6.6671    1.0986    0.0000 C   0  0  0  0  0  0  0  0  0  0  0  0
   -8.1525    0.8903    0.0000 C   0  0  0  0  0  0  0  0  0  0  0  0
   -9.0756    2.0727    0.0000 N   0  0  0  0  0  0  0  0  0  0  0  0
   -8.5132    3.4633    0.0000 C   0  0  0  0  0  0  0  0  0  0  0  0
   -9.4363    4.6456    0.0000 C   0  0  0  0  0  0  0  0  0  0  0  0
  -10.9218    4.4374    0.0000 O   0  0  0  0  0  0  0  0  0  0  0  0
  -11.4842    3.0468    0.0000 C   0  0  0  0  0  0  0  0  0  0  0  0
  -10.5611    1.8645    0.0000 C   0  0  0  0  0  0  0  0  0  0  0  0
   -8.7149   -0.5002    0.0000 N   0  0  0  0  0  0  0  0  0  0  0  0
   -7.7919   -1.6826    0.0000 C   0  0  0  0  0  0  0  0  0  0  0  0
   -1.4893   -3.4225    0.0000 C   0  0  0  0  0  0  0  0  0  0  0  0
   -0.5662   -4.6049    0.0000 C   0  0  0  0  0  0  0  0  0  0  0  0
    0.9193   -4.3966    0.0000 C   0  0  0  0  0  0  0  0  0  0  0  0
    1.4817   -3.0061    0.0000 C   0  0  0  0  0  0  0  0  0  0  0  0
    0.5586   -1.8237    0.0000 C   0  0  0  0  0  0  0  0  0  0  0  0
   -0.9269   -2.0320    0.0000 N   0  0  0  0  0  0  0  0  0  0  0  0
    1.1210   -0.4331    0.0000 C   0  0  0  0  0  0  0  0  0  0  0  0
    2.6065   -0.2249    0.0000 N   0  0  0  0  0  0  0  0  0  0  0  0
    3.1689    1.1657    0.0000 C   0  0  0  0  0  0  0  0  0  0  0  0
    2.2458    2.3480    0.0000 O   0  0  0  0  0  0  0  0  0  0  0  0
    4.6543    1.3739    0.0000 C   0  0  0  0  0  0  0  0  0  0  0  0
    5.5774    0.1916    0.0000 C   0  0  0  0  0  0  0  0  0  0  0  0
    7.0629    0.3998    0.0000 C   0  0  0  0  0  0  0  0  0  0  0  0
    7.6253    1.7904    0.0000 C   0  0  0  0  0  0  0  0  0  0  0  0
    9.1108    1.9986    0.0000 O   0  0  0  0  0  0  0  0  0  0  0  0
   10.0338    0.8163    0.0000 C   0  0  0  0  0  0  0  0  0  0  0  0
   11.5193    1.0245    0.0000 C   0  0  0  0  0  0  0  0  0  0  0  0
   13.0048    1.2328    0.0000 F   0  0  0  0  0  0  0  0  0  0  0  0
   11.7276   -0.4609    0.0000 F   0  0  0  0  0  0  0  0  0  0  0  0
   11.3111    2.5100    0.0000 F   0  0  0  0  0  0  0  0  0  0  0  0
    6.7022    2.9727    0.0000 N   0  0  0  0  0  0  0  0  0  0  0  0
    5.2167    2.7645    0.0000 C   0  0  0  0  0  0  0  0  0  0  0  0
    3.5295   -1.4072    0.0000 C   0  0  0  0  0  0  0  0  0  0  0  0
    2.9671   -2.7978    0.0000 C   0  0  0  0  0  0  0  0  0  0  0  0
  1  2  2  0
  2  3  1  0
  3  4  1  0
  4  5  1  0
  5  6  2  0
  6  7  1  0
  7  8  2  0
  8  9  1  0
  9 10  1  0
 10 11  1  0
 11 12  1  0
 12 13  1  0
 13 14  1  0
  8 15  1  0
 15 16  2  0
  2 17  1  0
 17 18  2  0
 18 19  1  0
 19 20  2  0
 20 21  1  0
 21 22  2  0
 21 23  1  0
 23 24  1  0
 24 25  1  0
 25 26  2  0
 25 27  1  0
 27 28  2  0
 28 29  1  0
 29 30  2  0
 30 31  1  0
 31 32  1  0
 32 33  1  0
 33 34  1  0
 33 35  1  0
 33 36  1  0
 30 37  1  0
 37 38  2  0
 24 39  1  0
 39 40  1  0
 16  5  1  0
 22 17  1  0
 38 27  1  0
 14  9  1  0
 40 20  1  0
M  END
>  <Compound_ID>  (7) 
C1

>  <SMILES>  (7) 
O=C(NCc1ccc(N2CCOCC2)nc1)c1ccc2c(n1)CN(C(=O)c1ccc(OCC(F)(F)F)nc1)CC2

>  <MW>  (7) 
556.55

>  <cLogP>  (7) 
2.78

>  <HBD>  (7) 
1

>  <HBA>  (7) 
8

>  <RotB>  (7) 
7

>  <Design_Rationale>  (7) 
Best R1 + 5-(morpholino)pyridin-2-ylmethyl R2. Basic N on pyridine, no aniline context, clean.

>  <Target>  (7) 
P841

>  <Design_Group>  (7) 
C

>  <Filter_Status>  (7) 
PAINS_clean_Brenk_clean_NIH_clean

$$$$
C2
     RDKit          2D

 35 38  0  0  0  0  0  0  0  0999 V2000
   -5.6496   -3.5246    0.0000 O   0  0  0  0  0  0  0  0  0  0  0  0
   -4.8566   -2.2514    0.0000 C   0  0  0  0  0  0  0  0  0  0  0  0
   -5.5627   -0.9280    0.0000 N   0  0  0  0  0  0  0  0  0  0  0  0
   -7.0619   -0.8778    0.0000 C   0  0  0  0  0  0  0  0  0  0  0  0
   -7.7680    0.4455    0.0000 C   0  0  0  0  0  0  0  0  0  0  0  0
   -6.9750    1.7188    0.0000 C   0  0  0  0  0  0  0  0  0  0  0  0
   -7.6812    3.0422    0.0000 C   0  0  0  0  0  0  0  0  0  0  0  0
   -9.1803    3.0923    0.0000 C   0  0  0  0  0  0  0  0  0  0  0  0
   -9.9733    1.8191    0.0000 C   0  0  0  0  0  0  0  0  0  0  0  0
  -11.4725    1.8692    0.0000 F   0  0  0  0  0  0  0  0  0  0  0  0
   -9.2672    0.4957    0.0000 C   0  0  0  0  0  0  0  0  0  0  0  0
   -3.3574   -2.3015    0.0000 C   0  0  0  0  0  0  0  0  0  0  0  0
   -2.6513   -3.6249    0.0000 C   0  0  0  0  0  0  0  0  0  0  0  0
   -1.1521   -3.6751    0.0000 C   0  0  0  0  0  0  0  0  0  0  0  0
   -0.3591   -2.4018    0.0000 C   0  0  0  0  0  0  0  0  0  0  0  0
   -1.0652   -1.0784    0.0000 C   0  0  0  0  0  0  0  0  0  0  0  0
   -2.5644   -1.0283    0.0000 N   0  0  0  0  0  0  0  0  0  0  0  0
   -0.2722    0.1948    0.0000 C   0  0  0  0  0  0  0  0  0  0  0  0
    1.2270    0.1446    0.0000 N   0  0  0  0  0  0  0  0  0  0  0  0
    2.0200    1.4179    0.0000 C   0  0  0  0  0  0  0  0  0  0  0  0
    1.3138    2.7413    0.0000 O   0  0  0  0  0  0  0  0  0  0  0  0
    3.5191    1.3677    0.0000 C   0  0  0  0  0  0  0  0  0  0  0  0
    4.2253    0.0443    0.0000 C   0  0  0  0  0  0  0  0  0  0  0  0
    5.7244   -0.0058    0.0000 C   0  0  0  0  0  0  0  0  0  0  0  0
    6.5174    1.2674    0.0000 C   0  0  0  0  0  0  0  0  0  0  0  0
    8.0166    1.2173    0.0000 O   0  0  0  0  0  0  0  0  0  0  0  0
    8.7228   -0.1061    0.0000 C   0  0  0  0  0  0  0  0  0  0  0  0
   10.2219   -0.1563    0.0000 C   0  0  0  0  0  0  0  0  0  0  0  0
   11.7211   -0.2064    0.0000 F   0  0  0  0  0  0  0  0  0  0  0  0
   10.1718   -1.6554    0.0000 F   0  0  0  0  0  0  0  0  0  0  0  0
   10.2721    1.3429    0.0000 F   0  0  0  0  0  0  0  0  0  0  0  0
    5.8113    2.5908    0.0000 N   0  0  0  0  0  0  0  0  0  0  0  0
    4.3121    2.6410    0.0000 C   0  0  0  0  0  0  0  0  0  0  0  0
    1.9331   -1.1788    0.0000 C   0  0  0  0  0  0  0  0  0  0  0  0
    1.1401   -2.4520    0.0000 C   0  0  0  0  0  0  0  0  0  0  0  0
  1  2  2  0
  2  3  1  0
  3  4  1  0
  4  5  1  0
  5  6  2  0
  6  7  1  0
  7  8  2  0
  8  9  1  0
  9 10  1  0
  9 11  2  0
  2 12  1  0
 12 13  2  0
 13 14  1  0
 14 15  2  0
 15 16  1  0
 16 17  2  0
 16 18  1  0
 18 19  1  0
 19 20  1  0
 20 21  2  0
 20 22  1  0
 22 23  2  0
 23 24  1  0
 24 25  2  0
 25 26  1  0
 26 27  1  0
 27 28  1  0
 28 29  1  0
 28 30  1  0
 28 31  1  0
 25 32  1  0
 32 33  2  0
 19 34  1  0
 34 35  1  0
 11  5  1  0
 17 12  1  0
 33 22  1  0
 35 15  1  0
M  END
>  <Compound_ID>  (8) 
C2

>  <SMILES>  (8) 
O=C(NCc1cccc(F)c1)c1ccc2c(n1)CN(C(=O)c1ccc(OCC(F)(F)F)nc1)CC2

>  <MW>  (8) 
488.44

>  <cLogP>  (8) 
3.69

>  <HBD>  (8) 
1

>  <HBA>  (8) 
5

>  <RotB>  (8) 
6

>  <Design_Rationale>  (8) 
Best R1 + 3-fluorobenzyl R2. Minimal R2 probe — confirms R1 primacy hypothesis.

>  <Target>  (8) 
P841

>  <Design_Group>  (8) 
C

>  <Filter_Status>  (8) 
PAINS_clean_Brenk_clean_NIH_clean

$$$$
C3
     RDKit          2D

 35 38  0  0  0  0  0  0  0  0999 V2000
   -5.6331   -3.6934    0.0000 O   0  0  0  0  0  0  0  0  0  0  0  0
   -4.8618   -2.4069    0.0000 C   0  0  0  0  0  0  0  0  0  0  0  0
   -5.5903   -1.0957    0.0000 N   0  0  0  0  0  0  0  0  0  0  0  0
   -7.0900   -1.0709    0.0000 C   0  0  0  0  0  0  0  0  0  0  0  0
   -7.8185    0.2403    0.0000 C   0  0  0  0  0  0  0  0  0  0  0  0
   -7.0472    1.5268    0.0000 C   0  0  0  0  0  0  0  0  0  0  0  0
   -7.7757    2.8380    0.0000 N   0  0  0  0  0  0  0  0  0  0  0  0
   -9.2755    2.8627    0.0000 C   0  0  0  0  0  0  0  0  0  0  0  0
  -10.0040    4.1740    0.0000 C   0  0  0  0  0  0  0  0  0  0  0  0
  -10.0468    1.5762    0.0000 C   0  0  0  0  0  0  0  0  0  0  0  0
   -9.3183    0.2650    0.0000 C   0  0  0  0  0  0  0  0  0  0  0  0
   -3.3620   -2.4316    0.0000 C   0  0  0  0  0  0  0  0  0  0  0  0
   -2.6335   -3.7429    0.0000 C   0  0  0  0  0  0  0  0  0  0  0  0
   -1.1337   -3.7676    0.0000 C   0  0  0  0  0  0  0  0  0  0  0  0
   -0.3624   -2.4811    0.0000 C   0  0  0  0  0  0  0  0  0  0  0  0
   -1.0909   -1.1699    0.0000 C   0  0  0  0  0  0  0  0  0  0  0  0
   -2.5907   -1.1451    0.0000 N   0  0  0  0  0  0  0  0  0  0  0  0
   -0.3195    0.1166    0.0000 C   0  0  0  0  0  0  0  0  0  0  0  0
    1.1802    0.0919    0.0000 N   0  0  0  0  0  0  0  0  0  0  0  0
    1.9516    1.3784    0.0000 C   0  0  0  0  0  0  0  0  0  0  0  0
    1.2231    2.6896    0.0000 O   0  0  0  0  0  0  0  0  0  0  0  0
    3.4514    1.3537    0.0000 C   0  0  0  0  0  0  0  0  0  0  0  0
    4.1798    0.0424    0.0000 C   0  0  0  0  0  0  0  0  0  0  0  0
    5.6796    0.0177    0.0000 C   0  0  0  0  0  0  0  0  0  0  0  0
    6.4510    1.3042    0.0000 C   0  0  0  0  0  0  0  0  0  0  0  0
    7.9507    1.2795    0.0000 O   0  0  0  0  0  0  0  0  0  0  0  0
    8.6792   -0.0317    0.0000 C   0  0  0  0  0  0  0  0  0  0  0  0
   10.1790   -0.0565    0.0000 C   0  0  0  0  0  0  0  0  0  0  0  0
   11.6788   -0.0812    0.0000 F   0  0  0  0  0  0  0  0  0  0  0  0
   10.1543   -1.5563    0.0000 F   0  0  0  0  0  0  0  0  0  0  0  0
   10.2038    1.4433    0.0000 F   0  0  0  0  0  0  0  0  0  0  0  0
    5.7225    2.6154    0.0000 N   0  0  0  0  0  0  0  0  0  0  0  0
    4.2227    2.6402    0.0000 C   0  0  0  0  0  0  0  0  0  0  0  0
    1.9087   -1.2193    0.0000 C   0  0  0  0  0  0  0  0  0  0  0  0
    1.1374   -2.5058    0.0000 C   0  0  0  0  0  0  0  0  0  0  0  0
  1  2  2  0
  2  3  1  0
  3  4  1  0
  4  5  1  0
  5  6  2  0
  6  7  1  0
  7  8  2  0
  8  9  1  0
  8 10  1  0
 10 11  2  0
  2 12  1  0
 12 13  2  0
 13 14  1  0
 14 15  2  0
 15 16  1  0
 16 17  2  0
 16 18  1  0
 18 19  1  0
 19 20  1  0
 20 21  2  0
 20 22  1  0
 22 23  2  0
 23 24  1  0
 24 25  2  0
 25 26  1  0
 26 27  1  0
 27 28  1  0
 28 29  1  0
 28 30  1  0
 28 31  1  0
 25 32  1  0
 32 33  2  0
 19 34  1  0
 34 35  1  0
 11  5  1  0
 17 12  1  0
 33 22  1  0
 35 15  1  0
M  END
>  <Compound_ID>  (9) 
C3

>  <SMILES>  (9) 
O=C(NCc1cnc(C)cc1)c1ccc2c(n1)CN(C(=O)c1ccc(OCC(F)(F)F)nc1)CC2

>  <MW>  (9) 
485.47

>  <cLogP>  (9) 
3.25

>  <HBD>  (9) 
1

>  <HBA>  (9) 
6

>  <RotB>  (9) 
6

>  <Design_Rationale>  (9) 
Best R1 + 5-methylpyridinylmethyl R2. Mono-aza bioisostere of methylpyrimidine R2.

>  <Target>  (9) 
P841

>  <Design_Group>  (9) 
C

>  <Filter_Status>  (9) 
PAINS_clean_Brenk_clean_NIH_clean

$$$$
C4
     RDKit          2D

 39 43  0  0  0  0  0  0  0  0999 V2000
   -3.9405   -4.8122    0.0000 O   0  0  0  0  0  0  0  0  0  0  0  0
   -3.3413   -3.4371    0.0000 C   0  0  0  0  0  0  0  0  0  0  0  0
   -4.2327   -2.2306    0.0000 N   0  0  0  0  0  0  0  0  0  0  0  0
   -5.7232   -2.3993    0.0000 C   0  0  0  0  0  0  0  0  0  0  0  0
   -6.6145   -1.1928    0.0000 C   0  0  0  0  0  0  0  0  0  0  0  0
   -6.0153    0.1823    0.0000 C   0  0  0  0  0  0  0  0  0  0  0  0
   -6.9066    1.3888    0.0000 C   0  0  0  0  0  0  0  0  0  0  0  0
   -8.3971    1.2201    0.0000 C   0  0  0  0  0  0  0  0  0  0  0  0
   -9.2885    2.4265    0.0000 N   0  0  0  0  0  0  0  0  0  0  0  0
  -10.7884    2.4146    0.0000 C   0  0  0  0  0  0  0  0  0  0  0  0
  -11.2633    3.8374    0.0000 C   0  0  0  0  0  0  0  0  0  0  0  0
  -10.0568    4.7287    0.0000 N   0  0  0  0  0  0  0  0  0  0  0  0
   -8.8363    3.8568    0.0000 C   0  0  0  0  0  0  0  0  0  0  0  0
   -8.9963   -0.1551    0.0000 C   0  0  0  0  0  0  0  0  0  0  0  0
   -8.1050   -1.3615    0.0000 C   0  0  0  0  0  0  0  0  0  0  0  0
   -1.8509   -3.2684    0.0000 C   0  0  0  0  0  0  0  0  0  0  0  0
   -0.9595   -4.4749    0.0000 C   0  0  0  0  0  0  0  0  0  0  0  0
    0.5309   -4.3062    0.0000 C   0  0  0  0  0  0  0  0  0  0  0  0
    1.1301   -2.9310    0.0000 C   0  0  0  0  0  0  0  0  0  0  0  0
    0.2388   -1.7246    0.0000 C   0  0  0  0  0  0  0  0  0  0  0  0
   -1.2517   -1.8933    0.0000 N   0  0  0  0  0  0  0  0  0  0  0  0
    0.8379   -0.3494    0.0000 C   0  0  0  0  0  0  0  0  0  0  0  0
    2.3284   -0.1808    0.0000 N   0  0  0  0  0  0  0  0  0  0  0  0
    2.9276    1.1944    0.0000 C   0  0  0  0  0  0  0  0  0  0  0  0
    2.0363    2.4008    0.0000 O   0  0  0  0  0  0  0  0  0  0  0  0
    4.4181    1.3631    0.0000 C   0  0  0  0  0  0  0  0  0  0  0  0
    5.3094    0.1566    0.0000 C   0  0  0  0  0  0  0  0  0  0  0  0
    6.7999    0.3253    0.0000 C   0  0  0  0  0  0  0  0  0  0  0  0
    7.3990    1.7004    0.0000 C   0  0  0  0  0  0  0  0  0  0  0  0
    8.8895    1.8691    0.0000 O   0  0  0  0  0  0  0  0  0  0  0  0
    9.7809    0.6627    0.0000 C   0  0  0  0  0  0  0  0  0  0  0  0
   11.2713    0.8313    0.0000 C   0  0  0  0  0  0  0  0  0  0  0  0
   12.7618    1.0000    0.0000 F   0  0  0  0  0  0  0  0  0  0  0  0
   11.4400   -0.6591    0.0000 F   0  0  0  0  0  0  0  0  0  0  0  0
   11.1027    2.3218    0.0000 F   0  0  0  0  0  0  0  0  0  0  0  0
    6.5077    2.9069    0.0000 N   0  0  0  0  0  0  0  0  0  0  0  0
    5.0172    2.7382    0.0000 C   0  0  0  0  0  0  0  0  0  0  0  0
    3.2198   -1.3872    0.0000 C   0  0  0  0  0  0  0  0  0  0  0  0
    2.6206   -2.7623    0.0000 C   0  0  0  0  0  0  0  0  0  0  0  0
  1  2  2  0
  2  3  1  0
  3  4  1  0
  4  5  1  0
  5  6  2  0
  6  7  1  0
  7  8  2  0
  8  9  1  0
  9 10  1  0
 10 11  2  0
 11 12  1  0
 12 13  2  0
  8 14  1  0
 14 15  2  0
  2 16  1  0
 16 17  2  0
 17 18  1  0
 18 19  2  0
 19 20  1  0
 20 21  2  0
 20 22  1  0
 22 23  1  0
 23 24  1  0
 24 25  2  0
 24 26  1  0
 26 27  2  0
 27 28  1  0
 28 29  2  0
 29 30  1  0
 30 31  1  0
 31 32  1  0
 32 33  1  0
 32 34  1  0
 32 35  1  0
 29 36  1  0
 36 37  2  0
 23 38  1  0
 38 39  1  0
 15  5  1  0
 21 16  1  0
 37 26  1  0
 13  9  1  0
 39 19  1  0
M  END
>  <Compound_ID>  (10) 
C4

>  <SMILES>  (10) 
O=C(NCc1ccc(-n2ccnc2)cc1)c1ccc2c(n1)CN(C(=O)c1ccc(OCC(F)(F)F)nc1)CC2

>  <MW>  (10) 
536.51

>  <cLogP>  (10) 
3.73

>  <HBD>  (10) 
1

>  <HBA>  (10) 
7

>  <RotB>  (10) 
7

>  <Design_Rationale>  (10) 
Best R1 + 4-(imidazol-1-yl)benzyl R2. N-heterocycle on benzyl, HBA imidazole, no aniline.

>  <Target>  (10) 
P841

>  <Design_Group>  (10) 
C

>  <Filter_Status>  (10) 
PAINS_clean_Brenk_clean_NIH_clean

$$$$
D1
     RDKit          2D

 35 38  0  0  0  0  0  0  0  0999 V2000
   -5.8172   -2.3928    0.0000 O   0  0  0  0  0  0  0  0  0  0  0  0
   -4.8909   -1.2130    0.0000 C   0  0  0  0  0  0  0  0  0  0  0  0
   -5.4495    0.1791    0.0000 N   0  0  0  0  0  0  0  0  0  0  0  0
   -6.9345    0.3914    0.0000 C   0  0  0  0  0  0  0  0  0  0  0  0
   -7.4931    1.7835    0.0000 C   0  0  0  0  0  0  0  0  0  0  0  0
   -8.9780    1.9957    0.0000 C   0  0  0  0  0  0  0  0  0  0  0  0
   -9.9043    0.8159    0.0000 C   0  0  0  0  0  0  0  0  0  0  0  0
  -11.1782    0.0240    0.0000 F   0  0  0  0  0  0  0  0  0  0  0  0
  -10.9053    1.9330    0.0000 F   0  0  0  0  0  0  0  0  0  0  0  0
   -9.3456   -0.5762    0.0000 C   0  0  0  0  0  0  0  0  0  0  0  0
   -7.8607   -0.7885    0.0000 C   0  0  0  0  0  0  0  0  0  0  0  0
   -3.4060   -1.4253    0.0000 C   0  0  0  0  0  0  0  0  0  0  0  0
   -2.8474   -2.8174    0.0000 C   0  0  0  0  0  0  0  0  0  0  0  0
   -1.3625   -3.0296    0.0000 C   0  0  0  0  0  0  0  0  0  0  0  0
   -0.4362   -1.8498    0.0000 C   0  0  0  0  0  0  0  0  0  0  0  0
   -0.9948   -0.4577    0.0000 C   0  0  0  0  0  0  0  0  0  0  0  0
   -2.4797   -0.2454    0.0000 N   0  0  0  0  0  0  0  0  0  0  0  0
   -0.0686    0.7222    0.0000 C   0  0  0  0  0  0  0  0  0  0  0  0
    1.4164    0.5099    0.0000 N   0  0  0  0  0  0  0  0  0  0  0  0
    2.3426    1.6897    0.0000 C   0  0  0  0  0  0  0  0  0  0  0  0
    1.7840    3.0818    0.0000 O   0  0  0  0  0  0  0  0  0  0  0  0
    3.8275    1.4775    0.0000 C   0  0  0  0  0  0  0  0  0  0  0  0
    4.3862    0.0854    0.0000 C   0  0  0  0  0  0  0  0  0  0  0  0
    5.8711   -0.1269    0.0000 C   0  0  0  0  0  0  0  0  0  0  0  0
    6.7973    1.0530    0.0000 C   0  0  0  0  0  0  0  0  0  0  0  0
    8.2823    0.8407    0.0000 O   0  0  0  0  0  0  0  0  0  0  0  0
    8.8409   -0.5514    0.0000 C   0  0  0  0  0  0  0  0  0  0  0  0
   10.3258   -0.7637    0.0000 C   0  0  0  0  0  0  0  0  0  0  0  0
   11.8107   -0.9759    0.0000 F   0  0  0  0  0  0  0  0  0  0  0  0
   10.1135   -2.2486    0.0000 F   0  0  0  0  0  0  0  0  0  0  0  0
   10.5380    0.7213    0.0000 F   0  0  0  0  0  0  0  0  0  0  0  0
    6.2387    2.4451    0.0000 N   0  0  0  0  0  0  0  0  0  0  0  0
    4.7538    2.6573    0.0000 C   0  0  0  0  0  0  0  0  0  0  0  0
    1.9750   -0.8822    0.0000 C   0  0  0  0  0  0  0  0  0  0  0  0
    1.0487   -2.0620    0.0000 C   0  0  0  0  0  0  0  0  0  0  0  0
  1  2  2  0
  2  3  1  0
  3  4  1  0
  4  5  1  0
  5  6  1  0
  6  7  1  0
  7  8  1  0
  7  9  1  0
  7 10  1  0
 10 11  1  0
  2 12  1  0
 12 13  2  0
 13 14  1  0
 14 15  2  0
 15 16  1  0
 16 17  2  0
 16 18  1  0
 18 19  1  0
 19 20  1  0
 20 21  2  0
 20 22  1  0
 22 23  2  0
 23 24  1  0
 24 25  2  0
 25 26  1  0
 26 27  1  0
 27 28  1  0
 28 29  1  0
 28 30  1  0
 28 31  1  0
 25 32  1  0
 32 33  2  0
 19 34  1  0
 34 35  1  0
 11  4  1  0
 17 12  1  0
 33 22  1  0
 35 15  1  0
M  END
>  <Compound_ID>  (11) 
D1

>  <SMILES>  (11) 
O=C(NC1CCC(F)(F)CC1)c1ccc2c(n1)CN(C(=O)c1ccc(OCC(F)(F)F)nc1)CC2

>  <MW>  (11) 
498.45

>  <cLogP>  (11) 
3.92

>  <HBD>  (11) 
1

>  <HBA>  (11) 
5

>  <RotB>  (11) 
5

>  <Design_Rationale>  (11) 
Best R1 + 4,4-difluorocyclohexylamine R2. Combines top-hit R1 with EDS00469766 R2. Priority compound.

>  <Target>  (11) 
P841

>  <Design_Group>  (11) 
D

>  <Filter_Status>  (11) 
PAINS_clean_Brenk_clean_NIH_clean

$$$$
D2
     RDKit          2D

 30 33  0  0  0  0  0  0  0  0999 V2000
   -4.2210   -2.3050    0.0000 O   0  0  0  0  0  0  0  0  0  0  0  0
   -3.2350   -1.1746    0.0000 C   0  0  0  0  0  0  0  0  0  0  0  0
   -3.7209    0.2445    0.0000 N   0  0  0  0  0  0  0  0  0  0  0  0
   -5.1929    0.5332    0.0000 C   0  0  0  0  0  0  0  0  0  0  0  0
   -5.6788    1.9523    0.0000 C   0  0  0  0  0  0  0  0  0  0  0  0
   -7.1507    2.2410    0.0000 C   0  0  0  0  0  0  0  0  0  0  0  0
   -8.1368    1.1107    0.0000 C   0  0  0  0  0  0  0  0  0  0  0  0
   -9.4499    0.3857    0.0000 F   0  0  0  0  0  0  0  0  0  0  0  0
   -9.0788    2.2780    0.0000 F   0  0  0  0  0  0  0  0  0  0  0  0
   -7.6508   -0.3084    0.0000 C   0  0  0  0  0  0  0  0  0  0  0  0
   -6.1789   -0.5972    0.0000 C   0  0  0  0  0  0  0  0  0  0  0  0
   -1.7630   -1.4634    0.0000 C   0  0  0  0  0  0  0  0  0  0  0  0
   -1.2771   -2.8825    0.0000 C   0  0  0  0  0  0  0  0  0  0  0  0
    0.1948   -3.1712    0.0000 C   0  0  0  0  0  0  0  0  0  0  0  0
    1.1809   -2.0408    0.0000 C   0  0  0  0  0  0  0  0  0  0  0  0
    0.6949   -0.6217    0.0000 C   0  0  0  0  0  0  0  0  0  0  0  0
   -0.7770   -0.3330    0.0000 N   0  0  0  0  0  0  0  0  0  0  0  0
    1.6810    0.5087    0.0000 C   0  0  0  0  0  0  0  0  0  0  0  0
    3.1529    0.2199    0.0000 N   0  0  0  0  0  0  0  0  0  0  0  0
    4.1389    1.3503    0.0000 C   0  0  0  0  0  0  0  0  0  0  0  0
    3.6530    2.7694    0.0000 O   0  0  0  0  0  0  0  0  0  0  0  0
    5.6109    1.0616    0.0000 C   0  0  0  0  0  0  0  0  0  0  0  0
    6.0968   -0.3575    0.0000 C   0  0  0  0  0  0  0  0  0  0  0  0
    7.5688   -0.6462    0.0000 C   0  0  0  0  0  0  0  0  0  0  0  0
    8.5548    0.4841    0.0000 C   0  0  0  0  0  0  0  0  0  0  0  0
   10.0267    0.1954    0.0000 F   0  0  0  0  0  0  0  0  0  0  0  0
    8.0688    1.9033    0.0000 C   0  0  0  0  0  0  0  0  0  0  0  0
    6.5969    2.1920    0.0000 C   0  0  0  0  0  0  0  0  0  0  0  0
    3.6388   -1.1992    0.0000 C   0  0  0  0  0  0  0  0  0  0  0  0
    2.6528   -2.3295    0.0000 C   0  0  0  0  0  0  0  0  0  0  0  0
  1  2  2  0
  2  3  1  0
  3  4  1  0
  4  5  1  0
  5  6  1  0
  6  7  1  0
  7  8  1  0
  7  9  1  0
  7 10  1  0
 10 11  1  0
  2 12  1  0
 12 13  2  0
 13 14  1  0
 14 15  2  0
 15 16  1  0
 16 17  2  0
 16 18  1  0
 18 19  1  0
 19 20  1  0
 20 21  2  0
 20 22  1  0
 22 23  2  0
 23 24  1  0
 24 25  2  0
 25 26  1  0
 25 27  1  0
 27 28  2  0
 19 29  1  0
 29 30  1  0
 11  4  1  0
 17 12  1  0
 28 22  1  0
 30 15  1  0
M  END
>  <Compound_ID>  (12) 
D2

>  <SMILES>  (12) 
O=C(NC1CCC(F)(F)CC1)c1ccc2c(n1)CN(C(=O)c1ccc(F)cc1)CC2

>  <MW>  (12) 
417.43

>  <cLogP>  (12) 
3.73

>  <HBD>  (12) 
1

>  <HBA>  (12) 
3

>  <RotB>  (12) 
3

>  <Design_Rationale>  (12) 
4,4-difluorocyclohexyl R2 + 4-fluorophenyl R1. MW 417, most constrained, LE probe.

>  <Target>  (12) 
P841

>  <Design_Group>  (12) 
D

>  <Filter_Status>  (12) 
PAINS_clean_Brenk_clean_NIH_clean

$$$$
E1
     RDKit          2D

 30 33  0  0  0  0  0  0  0  0999 V2000
   -8.2878    4.2036    0.0000 C   0  0  0  0  0  0  0  0  0  0  0  0
   -7.5655    2.8889    0.0000 C   0  0  0  0  0  0  0  0  0  0  0  0
   -6.0658    2.8572    0.0000 C   0  0  0  0  0  0  0  0  0  0  0  0
   -5.3435    1.5425    0.0000 N   0  0  0  0  0  0  0  0  0  0  0  0
   -6.1209    0.2597    0.0000 C   0  0  0  0  0  0  0  0  0  0  0  0
   -5.3986   -1.0550    0.0000 C   0  0  0  0  0  0  0  0  0  0  0  0
   -3.8989   -1.0868    0.0000 N   0  0  0  0  0  0  0  0  0  0  0  0
   -3.1766   -2.4014    0.0000 C   0  0  0  0  0  0  0  0  0  0  0  0
   -3.9540   -3.6843    0.0000 O   0  0  0  0  0  0  0  0  0  0  0  0
   -1.6769   -2.4332    0.0000 C   0  0  0  0  0  0  0  0  0  0  0  0
   -0.9546   -3.7478    0.0000 C   0  0  0  0  0  0  0  0  0  0  0  0
    0.5450   -3.7796    0.0000 C   0  0  0  0  0  0  0  0  0  0  0  0
    1.3224   -2.4968    0.0000 C   0  0  0  0  0  0  0  0  0  0  0  0
    0.6001   -1.1821    0.0000 C   0  0  0  0  0  0  0  0  0  0  0  0
   -0.8996   -1.1503    0.0000 N   0  0  0  0  0  0  0  0  0  0  0  0
    1.3774    0.1007    0.0000 C   0  0  0  0  0  0  0  0  0  0  0  0
    2.8771    0.0690    0.0000 N   0  0  0  0  0  0  0  0  0  0  0  0
    3.6545    1.3518    0.0000 C   0  0  0  0  0  0  0  0  0  0  0  0
    2.9322    2.6664    0.0000 O   0  0  0  0  0  0  0  0  0  0  0  0
    5.1541    1.3200    0.0000 C   0  0  0  0  0  0  0  0  0  0  0  0
    5.8764    0.0054    0.0000 C   0  0  0  0  0  0  0  0  0  0  0  0
    7.3761   -0.0264    0.0000 C   0  0  0  0  0  0  0  0  0  0  0  0
    8.1535    1.2564    0.0000 C   0  0  0  0  0  0  0  0  0  0  0  0
    9.6531    1.2247    0.0000 F   0  0  0  0  0  0  0  0  0  0  0  0
    7.4312    2.5711    0.0000 C   0  0  0  0  0  0  0  0  0  0  0  0
    5.9315    2.6029    0.0000 C   0  0  0  0  0  0  0  0  0  0  0  0
    3.5994   -1.2457    0.0000 C   0  0  0  0  0  0  0  0  0  0  0  0
    2.8221   -2.5285    0.0000 C   0  0  0  0  0  0  0  0  0  0  0  0
   -7.6205    0.2915    0.0000 C   0  0  0  0  0  0  0  0  0  0  0  0
   -8.3428    1.6061    0.0000 N   0  0  0  0  0  0  0  0  0  0  0  0
  1  2  1  0
  2  3  2  0
  3  4  1  0
  4  5  2  0
  5  6  1  0
  6  7  1  0
  7  8  1  0
  8  9  2  0
  8 10  1  0
 10 11  2  0
 11 12  1  0
 12 13  2  0
 13 14  1  0
 14 15  2  0
 14 16  1  0
 16 17  1  0
 17 18  1  0
 18 19  2  0
 18 20  1  0
 20 21  2  0
 21 22  1  0
 22 23  2  0
 23 24  1  0
 23 25  1  0
 25 26  2  0
 17 27  1  0
 27 28  1  0
  5 29  1  0
 29 30  2  0
 30  2  1  0
 15 10  1  0
 26 20  1  0
 28 13  1  0
M  END
>  <Compound_ID>  (13) 
E1

>  <SMILES>  (13) 
Cc1cnc(CNC(=O)c2ccc3c(n2)CN(C(=O)c2ccc(F)cc2)CC3)cn1

>  <MW>  (13) 
405.43

>  <cLogP>  (13) 
2.45

>  <HBD>  (13) 
1

>  <HBA>  (13) 
5

>  <RotB>  (13) 
4

>  <Design_Rationale>  (13) 
EDS00444974 R2 (methylpyrimidine) + 4-fluorophenyl R1. Rigid fluorophenyl upgrade of cleanest active.

>  <Target>  (13) 
P841

>  <Design_Group>  (13) 
E

>  <Filter_Status>  (13) 
PAINS_clean_Brenk_clean_NIH_clean

$$$$
E2
     RDKit          2D

 35 38  0  0  0  0  0  0  0  0999 V2000
  -10.0040    4.1740    0.0000 C   0  0  0  0  0  0  0  0  0  0  0  0
   -9.2755    2.8627    0.0000 C   0  0  0  0  0  0  0  0  0  0  0  0
   -7.7757    2.8380    0.0000 C   0  0  0  0  0  0  0  0  0  0  0  0
   -7.0472    1.5268    0.0000 N   0  0  0  0  0  0  0  0  0  0  0  0
   -7.8185    0.2403    0.0000 C   0  0  0  0  0  0  0  0  0  0  0  0
   -7.0900   -1.0709    0.0000 C   0  0  0  0  0  0  0  0  0  0  0  0
   -5.5903   -1.0957    0.0000 N   0  0  0  0  0  0  0  0  0  0  0  0
   -4.8618   -2.4069    0.0000 C   0  0  0  0  0  0  0  0  0  0  0  0
   -5.6331   -3.6934    0.0000 O   0  0  0  0  0  0  0  0  0  0  0  0
   -3.3620   -2.4316    0.0000 C   0  0  0  0  0  0  0  0  0  0  0  0
   -2.6335   -3.7429    0.0000 C   0  0  0  0  0  0  0  0  0  0  0  0
   -1.1337   -3.7676    0.0000 C   0  0  0  0  0  0  0  0  0  0  0  0
   -0.3624   -2.4811    0.0000 C   0  0  0  0  0  0  0  0  0  0  0  0
   -1.0909   -1.1699    0.0000 C   0  0  0  0  0  0  0  0  0  0  0  0
   -2.5907   -1.1451    0.0000 N   0  0  0  0  0  0  0  0  0  0  0  0
   -0.3195    0.1166    0.0000 C   0  0  0  0  0  0  0  0  0  0  0  0
    1.1802    0.0919    0.0000 N   0  0  0  0  0  0  0  0  0  0  0  0
    1.9516    1.3784    0.0000 C   0  0  0  0  0  0  0  0  0  0  0  0
    1.2231    2.6896    0.0000 O   0  0  0  0  0  0  0  0  0  0  0  0
    3.4514    1.3537    0.0000 C   0  0  0  0  0  0  0  0  0  0  0  0
    4.1798    0.0424    0.0000 C   0  0  0  0  0  0  0  0  0  0  0  0
    5.6796    0.0177    0.0000 C   0  0  0  0  0  0  0  0  0  0  0  0
    6.4510    1.3042    0.0000 C   0  0  0  0  0  0  0  0  0  0  0  0
    7.9507    1.2795    0.0000 O   0  0  0  0  0  0  0  0  0  0  0  0
    8.6792   -0.0317    0.0000 C   0  0  0  0  0  0  0  0  0  0  0  0
   10.1790   -0.0565    0.0000 C   0  0  0  0  0  0  0  0  0  0  0  0
   11.6788   -0.0812    0.0000 F   0  0  0  0  0  0  0  0  0  0  0  0
   10.1543   -1.5563    0.0000 F   0  0  0  0  0  0  0  0  0  0  0  0
   10.2038    1.4433    0.0000 F   0  0  0  0  0  0  0  0  0  0  0  0
    5.7225    2.6154    0.0000 N   0  0  0  0  0  0  0  0  0  0  0  0
    4.2227    2.6402    0.0000 C   0  0  0  0  0  0  0  0  0  0  0  0
    1.9087   -1.2193    0.0000 C   0  0  0  0  0  0  0  0  0  0  0  0
    1.1374   -2.5058    0.0000 C   0  0  0  0  0  0  0  0  0  0  0  0
   -9.3183    0.2650    0.0000 C   0  0  0  0  0  0  0  0  0  0  0  0
  -10.0468    1.5762    0.0000 N   0  0  0  0  0  0  0  0  0  0  0  0
  1  2  1  0
  2  3  2  0
  3  4  1  0
  4  5  2  0
  5  6  1  0
  6  7  1  0
  7  8  1  0
  8  9  2  0
  8 10  1  0
 10 11  2  0
 11 12  1  0
 12 13  2  0
 13 14  1  0
 14 15  2  0
 14 16  1  0
 16 17  1  0
 17 18  1  0
 18 19  2  0
 18 20  1  0
 20 21  2  0
 21 22  1  0
 22 23  2  0
 23 24  1  0
 24 25  1  0
 25 26  1  0
 26 27  1  0
 26 28  1  0
 26 29  1  0
 23 30  1  0
 30 31  2  0
 17 32  1  0
 32 33  1  0
  5 34  1  0
 34 35  2  0
 35  2  1  0
 15 10  1  0
 31 20  1  0
 33 13  1  0
M  END
>  <Compound_ID>  (14) 
E2

>  <SMILES>  (14) 
Cc1cnc(CNC(=O)c2ccc3c(n2)CN(C(=O)c2ccc(OCC(F)(F)F)nc2)CC3)cn1

>  <MW>  (14) 
486.45

>  <cLogP>  (14) 
2.64

>  <HBD>  (14) 
1

>  <HBA>  (14) 
7

>  <RotB>  (14) 
6

>  <Design_Rationale>  (14) 
EDS00444974 R2 + best R1. Top priority: direct upgrade of cleanest active. LogP 2.64, no flags.

>  <Target>  (14) 
P841

>  <Design_Group>  (14) 
E

>  <Filter_Status>  (14) 
PAINS_clean_Brenk_clean_NIH_clean

$$$$
E3
     RDKit          2D

 27 30  0  0  0  0  0  0  0  0999 V2000
   -7.5834    3.7782    0.0000 C   0  0  0  0  0  0  0  0  0  0  0  0
   -6.7670    2.5198    0.0000 C   0  0  0  0  0  0  0  0  0  0  0  0
   -5.2690    2.5977    0.0000 C   0  0  0  0  0  0  0  0  0  0  0  0
   -4.4526    1.3393    0.0000 N   0  0  0  0  0  0  0  0  0  0  0  0
   -5.1341    0.0031    0.0000 C   0  0  0  0  0  0  0  0  0  0  0  0
   -4.3177   -1.2552    0.0000 C   0  0  0  0  0  0  0  0  0  0  0  0
   -2.8197   -1.1774    0.0000 N   0  0  0  0  0  0  0  0  0  0  0  0
   -2.0033   -2.4357    0.0000 C   0  0  0  0  0  0  0  0  0  0  0  0
   -2.6848   -3.7719    0.0000 O   0  0  0  0  0  0  0  0  0  0  0  0
   -0.5053   -2.3578    0.0000 C   0  0  0  0  0  0  0  0  0  0  0  0
    0.3111   -3.6162    0.0000 C   0  0  0  0  0  0  0  0  0  0  0  0
    1.8091   -3.5383    0.0000 C   0  0  0  0  0  0  0  0  0  0  0  0
    2.4906   -2.2021    0.0000 C   0  0  0  0  0  0  0  0  0  0  0  0
    1.6742   -0.9437    0.0000 C   0  0  0  0  0  0  0  0  0  0  0  0
    0.1762   -1.0216    0.0000 N   0  0  0  0  0  0  0  0  0  0  0  0
    2.3557    0.3925    0.0000 C   0  0  0  0  0  0  0  0  0  0  0  0
    3.8537    0.4704    0.0000 N   0  0  0  0  0  0  0  0  0  0  0  0
    4.5353    1.8066    0.0000 C   0  0  0  0  0  0  0  0  0  0  0  0
    3.7188    3.0650    0.0000 O   0  0  0  0  0  0  0  0  0  0  0  0
    6.0332    1.8845    0.0000 C   0  0  0  0  0  0  0  0  0  0  0  0
    6.3701    0.4228    0.0000 F   0  0  0  0  0  0  0  0  0  0  0  0
    7.4142    2.4700    0.0000 C   0  0  0  0  0  0  0  0  0  0  0  0
    6.2167    3.3732    0.0000 C   0  0  0  0  0  0  0  0  0  0  0  0
    4.6702   -0.7880    0.0000 C   0  0  0  0  0  0  0  0  0  0  0  0
    3.9886   -2.1242    0.0000 C   0  0  0  0  0  0  0  0  0  0  0  0
   -6.6321   -0.0748    0.0000 C   0  0  0  0  0  0  0  0  0  0  0  0
   -7.4486    1.1836    0.0000 N   0  0  0  0  0  0  0  0  0  0  0  0
  1  2  1  0
  2  3  2  0
  3  4  1  0
  4  5  2  0
  5  6  1  0
  6  7  1  0
  7  8  1  0
  8  9  2  0
  8 10  1  0
 10 11  2  0
 11 12  1  0
 12 13  2  0
 13 14  1  0
 14 15  2  0
 14 16  1  0
 16 17  1  0
 17 18  1  0
 18 19  2  0
 18 20  1  0
 20 21  1  0
 20 22  1  0
 22 23  1  0
 17 24  1  0
 24 25  1  0
  5 26  1  0
 26 27  2  0
 27  2  1  0
 15 10  1  0
 25 13  1  0
 23 20  1  0
M  END
>  <Compound_ID>  (15) 
E3

>  <SMILES>  (15) 
Cc1cnc(CNC(=O)c2ccc3c(n2)CN(C(=O)C4(F)CC4)CC3)cn1

>  <MW>  (15) 
369.40

>  <cLogP>  (15) 
1.50

>  <HBD>  (15) 
1

>  <HBA>  (15) 
5

>  <RotB>  (15) 
4

>  <Design_Rationale>  (15) 
EDS00444974 R2 + 1-fluorocyclopropyl R1. MW 369, most rigid, metabolic stability probe.

>  <Target>  (15) 
P841

>  <Design_Group>  (15) 
E

>  <Filter_Status>  (15) 
PAINS_clean_Brenk_clean_NIH_clean

$$$$
F1
     RDKit          2D

 40 44  0  0  0  0  0  0  0  0999 V2000
   -5.1366   -3.5114    0.0000 O   0  0  0  0  0  0  0  0  0  0  0  0
   -4.3291   -2.2473    0.0000 C   0  0  0  0  0  0  0  0  0  0  0  0
   -5.0201   -0.9159    0.0000 N   0  0  0  0  0  0  0  0  0  0  0  0
   -6.5186   -0.8486    0.0000 C   0  0  0  0  0  0  0  0  0  0  0  0
   -7.2095    0.4827    0.0000 C   0  0  0  0  0  0  0  0  0  0  0  0
   -5.7784    0.9320    0.0000 C   0  0  0  0  0  0  0  0  0  0  0  0
   -4.6737   -0.0827    0.0000 C   0  0  0  0  0  0  0  0  0  0  0  0
   -3.2426    0.3666    0.0000 C   0  0  0  0  0  0  0  0  0  0  0  0
   -2.9161    1.8306    0.0000 C   0  0  0  0  0  0  0  0  0  0  0  0
   -4.0208    2.8454    0.0000 C   0  0  0  0  0  0  0  0  0  0  0  0
   -5.4519    2.3961    0.0000 C   0  0  0  0  0  0  0  0  0  0  0  0
   -8.4007   -0.4289    0.0000 C   0  0  0  0  0  0  0  0  0  0  0  0
   -9.7858    0.1468    0.0000 C   0  0  0  0  0  0  0  0  0  0  0  0
   -9.9797    1.6342    0.0000 O   0  0  0  0  0  0  0  0  0  0  0  0
   -8.7886    2.5459    0.0000 C   0  0  0  0  0  0  0  0  0  0  0  0
   -7.4035    1.9702    0.0000 C   0  0  0  0  0  0  0  0  0  0  0  0
   -2.8306   -2.3146    0.0000 C   0  0  0  0  0  0  0  0  0  0  0  0
   -2.1396   -3.6460    0.0000 C   0  0  0  0  0  0  0  0  0  0  0  0
   -0.6412   -3.7132    0.0000 C   0  0  0  0  0  0  0  0  0  0  0  0
    0.1664   -2.4492    0.0000 C   0  0  0  0  0  0  0  0  0  0  0  0
   -0.5246   -1.1178    0.0000 C   0  0  0  0  0  0  0  0  0  0  0  0
   -2.0231   -1.0505    0.0000 N   0  0  0  0  0  0  0  0  0  0  0  0
    0.2829    0.1463    0.0000 C   0  0  0  0  0  0  0  0  0  0  0  0
    1.7814    0.0790    0.0000 N   0  0  0  0  0  0  0  0  0  0  0  0
    2.5889    1.3431    0.0000 C   0  0  0  0  0  0  0  0  0  0  0  0
    1.8980    2.6745    0.0000 O   0  0  0  0  0  0  0  0  0  0  0  0
    4.0874    1.2758    0.0000 C   0  0  0  0  0  0  0  0  0  0  0  0
    4.7784   -0.0556    0.0000 C   0  0  0  0  0  0  0  0  0  0  0  0
    6.2769   -0.1229    0.0000 C   0  0  0  0  0  0  0  0  0  0  0  0
    7.0844    1.1412    0.0000 C   0  0  0  0  0  0  0  0  0  0  0  0
    8.5829    1.0739    0.0000 O   0  0  0  0  0  0  0  0  0  0  0  0
    9.2739   -0.2574    0.0000 C   0  0  0  0  0  0  0  0  0  0  0  0
   10.7723   -0.3247    0.0000 C   0  0  0  0  0  0  0  0  0  0  0  0
   12.2708   -0.3920    0.0000 F   0  0  0  0  0  0  0  0  0  0  0  0
   10.7051   -1.8232    0.0000 F   0  0  0  0  0  0  0  0  0  0  0  0
   10.8396    1.1738    0.0000 F   0  0  0  0  0  0  0  0  0  0  0  0
    6.3934    2.4726    0.0000 N   0  0  0  0  0  0  0  0  0  0  0  0
    4.8949    2.5399    0.0000 C   0  0  0  0  0  0  0  0  0  0  0  0
    2.4724   -1.2524    0.0000 C   0  0  0  0  0  0  0  0  0  0  0  0
    1.6649   -2.5164    0.0000 C   0  0  0  0  0  0  0  0  0  0  0  0
  1  2  2  0
  2  3  1  0
  3  4  1  0
  4  5  1  0
  5  6  1  0
  6  7  2  0
  7  8  1  0
  8  9  2  0
  9 10  1  0
 10 11  2  0
  5 12  1  0
 12 13  1  0
 13 14  1  0
 14 15  1  0
 15 16  1  0
  2 17  1  0
 17 18  2  0
 18 19  1  0
 19 20  2  0
 20 21  1  0
 21 22  2  0
 21 23  1  0
 23 24  1  0
 24 25  1  0
 25 26  2  0
 25 27  1  0
 27 28  2  0
 28 29  1  0
 29 30  2  0
 30 31  1  0
 31 32  1  0
 32 33  1  0
 33 34  1  0
 33 35  1  0
 33 36  1  0
 30 37  1  0
 37 38  2  0
 24 39  1  0
 39 40  1  0
 16  5  1  0
 22 17  1  0
 38 27  1  0
 11  6  1  0
 40 20  1  0
M  END
>  <Compound_ID>  (16) 
F1

>  <SMILES>  (16) 
O=C(NCC1(c2ccccc2)CCOCC1)c1ccc2c(n1)CN(C(=O)c1ccc(OCC(F)(F)F)nc1)CC2

>  <MW>  (16) 
554.57

>  <cLogP>  (16) 
4.09

>  <HBD>  (16) 
1

>  <HBA>  (16) 
6

>  <RotB>  (16) 
7

>  <Design_Rationale>  (16) 
Best R1 + spirocyclic-benzyl-THF R2 (EDS00470458 rescue). Tests if poor R1 explained weak AS=0.0015.

>  <Target>  (16) 
P841

>  <Design_Group>  (16) 
F

>  <Filter_Status>  (16) 
PAINS_clean_Brenk_clean_NIH_clean

$$$$
F2
     RDKit          2D

 33 36  0  0  0  0  0  0  0  0999 V2000
   -6.4066   -3.1181    0.0000 O   0  0  0  0  0  0  0  0  0  0  0  0
   -5.5608   -1.8793    0.0000 C   0  0  0  0  0  0  0  0  0  0  0  0
   -6.2108   -0.5274    0.0000 N   0  0  0  0  0  0  0  0  0  0  0  0
   -7.7065   -0.4143    0.0000 C   0  0  0  0  0  0  0  0  0  0  0  0
   -8.3564    0.9376    0.0000 C   0  0  0  0  0  0  0  0  0  0  0  0
   -9.8321    1.2064    0.0000 C   0  0  0  0  0  0  0  0  0  0  0  0
  -10.0325    2.6930    0.0000 C   0  0  0  0  0  0  0  0  0  0  0  0
   -8.6806    3.3429    0.0000 S   0  0  0  0  0  0  0  0  0  0  0  0
   -7.6448    2.2580    0.0000 C   0  0  0  0  0  0  0  0  0  0  0  0
   -4.0651   -1.9923    0.0000 C   0  0  0  0  0  0  0  0  0  0  0  0
   -3.4152   -3.3442    0.0000 C   0  0  0  0  0  0  0  0  0  0  0  0
   -1.9194   -3.4573    0.0000 C   0  0  0  0  0  0  0  0  0  0  0  0
   -1.0736   -2.2185    0.0000 C   0  0  0  0  0  0  0  0  0  0  0  0
   -1.7236   -0.8666    0.0000 C   0  0  0  0  0  0  0  0  0  0  0  0
   -3.2193   -0.7535    0.0000 N   0  0  0  0  0  0  0  0  0  0  0  0
   -0.8778    0.3722    0.0000 C   0  0  0  0  0  0  0  0  0  0  0  0
    0.6180    0.2591    0.0000 N   0  0  0  0  0  0  0  0  0  0  0  0
    1.4638    1.4979    0.0000 C   0  0  0  0  0  0  0  0  0  0  0  0
    0.8138    2.8498    0.0000 O   0  0  0  0  0  0  0  0  0  0  0  0
    2.9595    1.3848    0.0000 C   0  0  0  0  0  0  0  0  0  0  0  0
    3.6094    0.0329    0.0000 C   0  0  0  0  0  0  0  0  0  0  0  0
    5.1052   -0.0801    0.0000 C   0  0  0  0  0  0  0  0  0  0  0  0
    5.9509    1.1587    0.0000 C   0  0  0  0  0  0  0  0  0  0  0  0
    7.4467    1.0456    0.0000 O   0  0  0  0  0  0  0  0  0  0  0  0
    8.0966   -0.3063    0.0000 C   0  0  0  0  0  0  0  0  0  0  0  0
    9.5923   -0.4194    0.0000 C   0  0  0  0  0  0  0  0  0  0  0  0
   11.0881   -0.5325    0.0000 F   0  0  0  0  0  0  0  0  0  0  0  0
    9.4793   -1.9151    0.0000 F   0  0  0  0  0  0  0  0  0  0  0  0
    9.7054    1.0763    0.0000 F   0  0  0  0  0  0  0  0  0  0  0  0
    5.3010    2.5105    0.0000 N   0  0  0  0  0  0  0  0  0  0  0  0
    3.8053    2.6236    0.0000 C   0  0  0  0  0  0  0  0  0  0  0  0
    1.2679   -1.0928    0.0000 C   0  0  0  0  0  0  0  0  0  0  0  0
    0.4221   -2.3316    0.0000 C   0  0  0  0  0  0  0  0  0  0  0  0
  1  2  2  0
  2  3  1  0
  3  4  1  0
  4  5  1  0
  5  6  1  0
  6  7  2  0
  7  8  1  0
  8  9  1  0
  2 10  1  0
 10 11  2  0
 11 12  1  0
 12 13  2  0
 13 14  1  0
 14 15  2  0
 14 16  1  0
 16 17  1  0
 17 18  1  0
 18 19  2  0
 18 20  1  0
 20 21  2  0
 21 22  1  0
 22 23  2  0
 23 24  1  0
 24 25  1  0
 25 26  1  0
 26 27  1  0
 26 28  1  0
 26 29  1  0
 23 30  1  0
 30 31  2  0
 17 32  1  0
 32 33  1  0
  9  5  2  0
 15 10  1  0
 31 20  1  0
 33 13  1  0
M  END
>  <Compound_ID>  (17) 
F2

>  <SMILES>  (17) 
O=C(NCc1ccsc1)c1ccc2c(n1)CN(C(=O)c1ccc(OCC(F)(F)F)nc1)CC2

>  <MW>  (17) 
476.48

>  <cLogP>  (17) 
3.61

>  <HBD>  (17) 
1

>  <HBA>  (17) 
6

>  <RotB>  (17) 
6

>  <Design_Rationale>  (17) 
Best R1 + thienylmethyl R2 (EDS00474254 upgrade). Compact, aromatic S contact.

>  <Target>  (17) 
P841

>  <Design_Group>  (17) 
F

>  <Filter_Status>  (17) 
PAINS_clean_Brenk_clean_NIH_clean

$$$$
F3
     RDKit          2D

 36 39  0  0  0  0  0  0  0  0999 V2000
   -5.4969   -3.5718    0.0000 O   0  0  0  0  0  0  0  0  0  0  0  0
   -4.7041   -2.2984    0.0000 C   0  0  0  0  0  0  0  0  0  0  0  0
   -5.4105   -0.9752    0.0000 N   0  0  0  0  0  0  0  0  0  0  0  0
   -6.9096   -0.9252    0.0000 C   0  0  0  0  0  0  0  0  0  0  0  0
   -7.6160    0.3981    0.0000 C   0  0  0  0  0  0  0  0  0  0  0  0
   -6.8231    1.6714    0.0000 C   0  0  0  0  0  0  0  0  0  0  0  0
   -7.5295    2.9947    0.0000 C   0  0  0  0  0  0  0  0  0  0  0  0
   -6.7367    4.2680    0.0000 F   0  0  0  0  0  0  0  0  0  0  0  0
   -9.0287    3.0446    0.0000 C   0  0  0  0  0  0  0  0  0  0  0  0
   -9.8215    1.7713    0.0000 C   0  0  0  0  0  0  0  0  0  0  0  0
   -9.1151    0.4480    0.0000 C   0  0  0  0  0  0  0  0  0  0  0  0
   -9.9080   -0.8254    0.0000 F   0  0  0  0  0  0  0  0  0  0  0  0
   -3.2049   -2.3484    0.0000 C   0  0  0  0  0  0  0  0  0  0  0  0
   -2.4986   -3.6716    0.0000 C   0  0  0  0  0  0  0  0  0  0  0  0
   -0.9994   -3.7216    0.0000 C   0  0  0  0  0  0  0  0  0  0  0  0
   -0.2066   -2.4482    0.0000 C   0  0  0  0  0  0  0  0  0  0  0  0
   -0.9129   -1.1249    0.0000 C   0  0  0  0  0  0  0  0  0  0  0  0
   -2.4121   -1.0750    0.0000 N   0  0  0  0  0  0  0  0  0  0  0  0
   -0.1201    0.1484    0.0000 C   0  0  0  0  0  0  0  0  0  0  0  0
    1.3790    0.0985    0.0000 N   0  0  0  0  0  0  0  0  0  0  0  0
    2.1719    1.3718    0.0000 C   0  0  0  0  0  0  0  0  0  0  0  0
    1.4655    2.6951    0.0000 O   0  0  0  0  0  0  0  0  0  0  0  0
    3.6710    1.3219    0.0000 C   0  0  0  0  0  0  0  0  0  0  0  0
    4.3774   -0.0014    0.0000 C   0  0  0  0  0  0  0  0  0  0  0  0
    5.8765   -0.0513    0.0000 C   0  0  0  0  0  0  0  0  0  0  0  0
    6.6694    1.2221    0.0000 C   0  0  0  0  0  0  0  0  0  0  0  0
    8.1685    1.1721    0.0000 O   0  0  0  0  0  0  0  0  0  0  0  0
    8.8749   -0.1511    0.0000 C   0  0  0  0  0  0  0  0  0  0  0  0
   10.3741   -0.2011    0.0000 C   0  0  0  0  0  0  0  0  0  0  0  0
   11.8732   -0.2510    0.0000 F   0  0  0  0  0  0  0  0  0  0  0  0
   10.3241   -1.7002    0.0000 F   0  0  0  0  0  0  0  0  0  0  0  0
   10.4240    1.2981    0.0000 F   0  0  0  0  0  0  0  0  0  0  0  0
    5.9630    2.5453    0.0000 N   0  0  0  0  0  0  0  0  0  0  0  0
    4.4639    2.5953    0.0000 C   0  0  0  0  0  0  0  0  0  0  0  0
    2.0854   -1.2248    0.0000 C   0  0  0  0  0  0  0  0  0  0  0  0
    1.2926   -2.4981    0.0000 C   0  0  0  0  0  0  0  0  0  0  0  0
  1  2  2  0
  2  3  1  0
  3  4  1  0
  4  5  1  0
  5  6  2  0
  6  7  1  0
  7  8  1  0
  7  9  2  0
  9 10  1  0
 10 11  2  0
 11 12  1  0
  2 13  1  0
 13 14  2  0
 14 15  1  0
 15 16  2  0
 16 17  1  0
 17 18  2  0
 17 19  1  0
 19 20  1  0
 20 21  1  0
 21 22  2  0
 21 23  1  0
 23 24  2  0
 24 25  1  0
 25 26  2  0
 26 27  1  0
 27 28  1  0
 28 29  1  0
 29 30  1  0
 29 31  1  0
 29 32  1  0
 26 33  1  0
 33 34  2  0
 20 35  1  0
 35 36  1  0
 11  5  1  0
 18 13  1  0
 34 23  1  0
 36 16  1  0
M  END
>  <Compound_ID>  (18) 
F3

>  <SMILES>  (18) 
O=C(NCc1cc(F)ccc1F)c1ccc2c(n1)CN(C(=O)c1ccc(OCC(F)(F)F)nc1)CC2

>  <MW>  (18) 
506.43

>  <cLogP>  (18) 
3.82

>  <HBD>  (18) 
1

>  <HBA>  (18) 
5

>  <RotB>  (18) 
6

>  <Design_Rationale>  (18) 
Best R1 + 2,4-difluorobenzyl R2. Derisked analogue of Brenk EDS00459274 (Cl removed).

>  <Target>  (18) 
P841

>  <Design_Group>  (18) 
F

>  <Filter_Status>  (18) 
PAINS_clean_Brenk_clean_NIH_clean

$$$$
F4
     RDKit          2D

 38 41  0  0  0  0  0  0  0  0999 V2000
   -4.4727   -4.4418    0.0000 O   0  0  0  0  0  0  0  0  0  0  0  0
   -3.8103   -3.0960    0.0000 C   0  0  0  0  0  0  0  0  0  0  0  0
   -4.6445   -1.8494    0.0000 N   0  0  0  0  0  0  0  0  0  0  0  0
   -6.1412   -1.9486    0.0000 C   0  0  0  0  0  0  0  0  0  0  0  0
   -6.9754   -0.7019    0.0000 C   0  0  0  0  0  0  0  0  0  0  0  0
   -6.3129    0.6438    0.0000 C   0  0  0  0  0  0  0  0  0  0  0  0
   -7.1472    1.8905    0.0000 C   0  0  0  0  0  0  0  0  0  0  0  0
   -8.6439    1.7913    0.0000 C   0  0  0  0  0  0  0  0  0  0  0  0
   -9.4781    3.0379    0.0000 S   0  0  0  0  0  0  0  0  0  0  0  0
  -10.3124    4.2845    0.0000 C   0  0  0  0  0  0  0  0  0  0  0  0
  -10.7247    2.2037    0.0000 O   0  0  0  0  0  0  0  0  0  0  0  0
   -8.2315    3.8721    0.0000 O   0  0  0  0  0  0  0  0  0  0  0  0
   -9.3064    0.4455    0.0000 C   0  0  0  0  0  0  0  0  0  0  0  0
   -8.4722   -0.8011    0.0000 C   0  0  0  0  0  0  0  0  0  0  0  0
   -2.3135   -2.9969    0.0000 C   0  0  0  0  0  0  0  0  0  0  0  0
   -1.4793   -4.2435    0.0000 C   0  0  0  0  0  0  0  0  0  0  0  0
    0.0174   -4.1443    0.0000 C   0  0  0  0  0  0  0  0  0  0  0  0
    0.6799   -2.7985    0.0000 C   0  0  0  0  0  0  0  0  0  0  0  0
   -0.1543   -1.5519    0.0000 C   0  0  0  0  0  0  0  0  0  0  0  0
   -1.6510   -1.6511    0.0000 N   0  0  0  0  0  0  0  0  0  0  0  0
    0.5082   -0.2062    0.0000 C   0  0  0  0  0  0  0  0  0  0  0  0
    2.0049   -0.1070    0.0000 N   0  0  0  0  0  0  0  0  0  0  0  0
    2.6674    1.2388    0.0000 C   0  0  0  0  0  0  0  0  0  0  0  0
    1.8331    2.4854    0.0000 O   0  0  0  0  0  0  0  0  0  0  0  0
    4.1641    1.3379    0.0000 C   0  0  0  0  0  0  0  0  0  0  0  0
    4.9983    0.0913    0.0000 C   0  0  0  0  0  0  0  0  0  0  0  0
    6.4950    0.1905    0.0000 C   0  0  0  0  0  0  0  0  0  0  0  0
    7.1575    1.5362    0.0000 C   0  0  0  0  0  0  0  0  0  0  0  0
    8.6542    1.6354    0.0000 O   0  0  0  0  0  0  0  0  0  0  0  0
    9.4885    0.3888    0.0000 C   0  0  0  0  0  0  0  0  0  0  0  0
   10.9852    0.4879    0.0000 C   0  0  0  0  0  0  0  0  0  0  0  0
   12.4819    0.5871    0.0000 F   0  0  0  0  0  0  0  0  0  0  0  0
   11.0844   -1.0088    0.0000 F   0  0  0  0  0  0  0  0  0  0  0  0
   10.8860    1.9847    0.0000 F   0  0  0  0  0  0  0  0  0  0  0  0
    6.3233    2.7829    0.0000 N   0  0  0  0  0  0  0  0  0  0  0  0
    4.8266    2.6837    0.0000 C   0  0  0  0  0  0  0  0  0  0  0  0
    2.8391   -1.3536    0.0000 C   0  0  0  0  0  0  0  0  0  0  0  0
    2.1766   -2.6994    0.0000 C   0  0  0  0  0  0  0  0  0  0  0  0
  1  2  2  0
  2  3  1  0
  3  4  1  0
  4  5  1  0
  5  6  2  0
  6  7  1  0
  7  8  2  0
  8  9  1  0
  9 10  1  0
  9 11  2  0
  9 12  2  0
  8 13  1  0
 13 14  2  0
  2 15  1  0
 15 16  2  0
 16 17  1  0
 17 18  2  0
 18 19  1  0
 19 20  2  0
 19 21  1  0
 21 22  1  0
 22 23  1  0
 23 24  2  0
 23 25  1  0
 25 26  2  0
 26 27  1  0
 27 28  2  0
 28 29  1  0
 29 30  1  0
 30 31  1  0
 31 32  1  0
 31 33  1  0
 31 34  1  0
 28 35  1  0
 35 36  2  0
 22 37  1  0
 37 38  1  0
 14  5  1  0
 20 15  1  0
 36 25  1  0
 38 18  1  0
M  END
>  <Compound_ID>  (19) 
F4

>  <SMILES>  (19) 
O=C(NCc1ccc(S(C)(=O)=O)cc1)c1ccc2c(n1)CN(C(=O)c1ccc(OCC(F)(F)F)nc1)CC2

>  <MW>  (19) 
548.54

>  <cLogP>  (19) 
2.95

>  <HBD>  (19) 
1

>  <HBA>  (19) 
7

>  <RotB>  (19) 
7

>  <Design_Rationale>  (19) 
Best R1 + methylsulfonyl-benzyl R2 (EDS00474362 upgrade). HBA sulfonyl, no basicity.

>  <Target>  (19) 
P841

>  <Design_Group>  (19) 
F

>  <Filter_Status>  (19) 
PAINS_clean_Brenk_clean_NIH_clean

$$$$
F5
     RDKit          2D

 40 44  0  0  0  0  0  0  0  0999 V2000
   -3.7869   -3.9706    0.0000 O   0  0  0  0  0  0  0  0  0  0  0  0
   -3.0620   -2.6574    0.0000 C   0  0  0  0  0  0  0  0  0  0  0  0
   -3.8368   -1.3730    0.0000 N   0  0  0  0  0  0  0  0  0  0  0  0
   -5.3365   -1.4019    0.0000 C   0  0  0  0  0  0  0  0  0  0  0  0
   -6.1114   -0.1175    0.0000 C   0  0  0  0  0  0  0  0  0  0  0  0
   -5.3865    1.1957    0.0000 C   0  0  0  0  0  0  0  0  0  0  0  0
   -6.1613    2.4801    0.0000 C   0  0  0  0  0  0  0  0  0  0  0  0
   -7.6610    2.4513    0.0000 C   0  0  0  0  0  0  0  0  0  0  0  0
   -8.3859    1.1381    0.0000 C   0  0  0  0  0  0  0  0  0  0  0  0
   -9.8856    1.1093    0.0000 N   0  0  0  0  0  0  0  0  0  0  0  0
  -10.6605    2.3936    0.0000 C   0  0  0  0  0  0  0  0  0  0  0  0
  -12.1602    2.3648    0.0000 C   0  0  0  0  0  0  0  0  0  0  0  0
  -12.8851    1.0516    0.0000 O   0  0  0  0  0  0  0  0  0  0  0  0
  -12.1103   -0.2328    0.0000 C   0  0  0  0  0  0  0  0  0  0  0  0
  -10.6105   -0.2040    0.0000 C   0  0  0  0  0  0  0  0  0  0  0  0
   -7.6111   -0.1463    0.0000 N   0  0  0  0  0  0  0  0  0  0  0  0
   -1.5623   -2.6286    0.0000 C   0  0  0  0  0  0  0  0  0  0  0  0
   -0.7874   -3.9130    0.0000 C   0  0  0  0  0  0  0  0  0  0  0  0
    0.7123   -3.8841    0.0000 C   0  0  0  0  0  0  0  0  0  0  0  0
    1.4372   -2.5709    0.0000 C   0  0  0  0  0  0  0  0  0  0  0  0
    0.6623   -1.2865    0.0000 C   0  0  0  0  0  0  0  0  0  0  0  0
   -0.8374   -1.3154    0.0000 N   0  0  0  0  0  0  0  0  0  0  0  0
    1.3872    0.0267    0.0000 C   0  0  0  0  0  0  0  0  0  0  0  0
    2.8870    0.0555    0.0000 N   0  0  0  0  0  0  0  0  0  0  0  0
    3.6119    1.3687    0.0000 C   0  0  0  0  0  0  0  0  0  0  0  0
    2.8370    2.6531    0.0000 O   0  0  0  0  0  0  0  0  0  0  0  0
    5.1116    1.3975    0.0000 C   0  0  0  0  0  0  0  0  0  0  0  0
    5.8864    0.1131    0.0000 C   0  0  0  0  0  0  0  0  0  0  0  0
    7.3861    0.1420    0.0000 C   0  0  0  0  0  0  0  0  0  0  0  0
    8.1110    1.4552    0.0000 C   0  0  0  0  0  0  0  0  0  0  0  0
    9.6108    1.4840    0.0000 O   0  0  0  0  0  0  0  0  0  0  0  0
   10.3856    0.1996    0.0000 C   0  0  0  0  0  0  0  0  0  0  0  0
   11.8853    0.2285    0.0000 C   0  0  0  0  0  0  0  0  0  0  0  0
   13.3850    0.2573    0.0000 F   0  0  0  0  0  0  0  0  0  0  0  0
   11.9141   -1.2713    0.0000 F   0  0  0  0  0  0  0  0  0  0  0  0
   11.8565    1.7282    0.0000 F   0  0  0  0  0  0  0  0  0  0  0  0
    7.3362    2.7396    0.0000 N   0  0  0  0  0  0  0  0  0  0  0  0
    5.8365    2.7107    0.0000 C   0  0  0  0  0  0  0  0  0  0  0  0
    3.6618   -1.2289    0.0000 C   0  0  0  0  0  0  0  0  0  0  0  0
    2.9369   -2.5421    0.0000 C   0  0  0  0  0  0  0  0  0  0  0  0
  1  2  2  0
  2  3  1  0
  3  4  1  0
  4  5  1  0
  5  6  2  0
  6  7  1  0
  7  8  2  0
  8  9  1  0
  9 10  1  0
 10 11  1  0
 11 12  1  0
 12 13  1  0
 13 14  1  0
 14 15  1  0
  9 16  2  0
  2 17  1  0
 17 18  2  0
 18 19  1  0
 19 20  2  0
 20 21  1  0
 21 22  2  0
 21 23  1  0
 23 24  1  0
 24 25  1  0
 25 26  2  0
 25 27  1  0
 27 28  2  0
 28 29  1  0
 29 30  2  0
 30 31  1  0
 31 32  1  0
 32 33  1  0
 33 34  1  0
 33 35  1  0
 33 36  1  0
 30 37  1  0
 37 38  2  0
 24 39  1  0
 39 40  1  0
 16  5  1  0
 22 17  1  0
 38 27  1  0
 15 10  1  0
 40 20  1  0
M  END
>  <Compound_ID>  (20) 
F5

>  <SMILES>  (20) 
O=C(NCc1cccc(N2CCOCC2)n1)c1ccc2c(n1)CN(C(=O)c1ccc(OCC(F)(F)F)nc1)CC2

>  <MW>  (20) 
556.55

>  <cLogP>  (20) 
2.78

>  <HBD>  (20) 
1

>  <HBA>  (20) 
8

>  <RotB>  (20) 
7

>  <Design_Rationale>  (20) 
Best R1 + morpholino-pyridylmethyl R2. R1 swap on EDS00459346 rank-294 clean hit.

>  <Target>  (20) 
P841

>  <Design_Group>  (20) 
F

>  <Filter_Status>  (20) 
PAINS_clean_Brenk_clean_NIH_clean

$$$$
