Compound 4


 31 34  0  0  0  0  0  0  0  0999 V2000
   20.8164 -107.8165   23.7012 C   0  0  0  0  0  0  0  0  0  0  0  0
   19.6618 -108.6364   23.7826 C   0  0  0  0  0  0  0  0  0  0  0  0
   21.7015 -107.6501   24.7844 C   0  0  0  0  0  0  0  0  0  0  0  0
   19.3750 -109.3080   24.9635 C   0  0  0  0  0  0  0  0  0  0  0  0
   21.4147 -108.3217   25.9650 C   0  0  0  0  0  0  0  0  0  0  0  0
   20.2601 -109.1415   26.0465 C   0  0  0  0  0  0  0  0  0  0  0  0
   18.3172 -110.1728   25.3200 C   0  0  0  0  0  0  0  0  0  0  0  0
   19.7378 -109.9148   27.0814 C   0  0  0  0  0  0  0  0  0  0  0  0
   18.5507 -110.5480   26.6451 N   0  0  0  0  0  0  0  0  0  0  0  0
   17.4649 -111.2869   26.6421 C   0  0  0  0  0  0  0  0  0  0  0  0
   18.3686 -111.1172   27.7486 C   0  0  0  0  0  0  0  0  0  0  0  0
   17.5786 -111.5596   27.5105 C   0  0  0  0  0  0  0  0  0  0  0  0
   16.0865 -112.1141   26.3638 O   0  0  0  0  0  0  0  0  0  0  0  0
   18.3277 -111.7007   29.1264 O   0  0  0  0  0  0  0  0  0  0  0  0
   17.8451 -111.8754   28.7439 O   0  0  0  0  0  0  0  0  0  0  0  0
   15.6991 -112.6610   27.0650 H   0  0  0  0  0  0  0  0  0  0  0  0
   19.0241 -111.4839   29.7658 H   0  0  0  0  0  0  0  0  0  0  0  0
   19.8162 -104.9981   23.3649 O   0  0  0  0  0  0  0  0  0  0  0  0
   20.6297 -105.6930   22.2523 C   0  0  0  0  0  0  0  0  0  0  0  0
   21.1188 -107.1038   22.4450 N   0  0  0  0  0  0  0  0  0  0  0  0
   20.9601 -104.9594   20.9188 N   0  0  0  0  0  0  0  0  0  0  0  0
   21.9322 -107.7986   21.3324 C   0  0  0  0  0  0  0  0  0  0  0  0
   21.7735 -105.6542   19.8062 C   0  0  0  0  0  0  0  0  0  0  0  0
   22.2626 -107.0652   19.9990 C   0  0  0  0  0  0  0  0  0  0  0  0
   22.1039 -104.9206   18.4727 O   0  0  0  0  0  0  0  0  0  0  0  0
   20.6447 -104.0366   20.7832 H   0  0  0  0  0  0  0  0  0  0  0  0
   16.4320 -112.1089   26.9349 O   0  0  0  0  0  0  0  0  0  0  0  0
   16.2281 -113.4374   26.6606 C   0  0  0  0  0  0  0  0  0  0  0  0
   16.6430 -113.0217   25.2982 C   0  0  0  0  0  0  0  0  0  0  0  0
   16.0431 -114.8478   26.2393 C   0  0  0  0  0  0  0  0  0  0  0  0
   15.8037 -113.8120   28.0966 C   0  0  0  0  0  0  0  0  0  0  0  0
 18 19  2  0
 19 20  1  0
 19 21  1  0
 20  1  1  0
 20 22  1  0
 21 23  1  0
  1  2  2  0
  1  3  1  0
 22 24  1  0
 23 25  2  0
  2  4  1  0
  3  5  2  0
  4  6  2  0
  4  7  1  0
  6  8  1  0
  7  9  1  0
  7 10  1  0
  8 11  1  0
  9 12  1  0
 10 13  1  0
 11 14  1  0
 12 15  2  0
 12 27  1  0
 27 28  1  0
 28 29  1  0
 28 30  1  0
 28 31  1  0
 23 24  1  0
  5  6  1  0
  8  9  1  0
 10 11  1  0
 21 26  1  0
 13 16  1  0
 14 17  1  0
M  END
> <Molecule Name>
Compound 4

> <EC50 (µM) (Excel)>
11.8

> <Error (µM)>
7.4

> <HTRC CRBN-DDB1 EC50 (µM)>
11.78 ±  7.41

> <EC50 fitting (µM)>
15.10

> <Modèle Fitting>
4PL
$$$$

> <minimizedAffinity>
-8.03179

> <CNNscore>
0.4647165239

> <CNNaffinity>
4.3481888771

> <CNN_VS>
2.0206751823

> <CNNaffinity_variance>
0.3602370024

$$$$
Compound 4


 31 34  0  0  0  0  0  0  0  0999 V2000
   11.5100 -104.7400   26.9414 C   0  0  0  0  0  0  0  0  0  0  0  0
   12.6095 -104.8114   27.8347 C   0  0  0  0  0  0  0  0  0  0  0  0
   10.4161 -103.8794   27.1584 C   0  0  0  0  0  0  0  0  0  0  0  0
   12.6282 -104.0125   28.9701 C   0  0  0  0  0  0  0  0  0  0  0  0
   10.4349 -103.0808   28.2938 C   0  0  0  0  0  0  0  0  0  0  0  0
   11.5343 -103.1520   29.1870 C   0  0  0  0  0  0  0  0  0  0  0  0
   13.5737 -103.8795   30.0104 C   0  0  0  0  0  0  0  0  0  0  0  0
   11.8130 -102.4821   30.3768 C   0  0  0  0  0  0  0  0  0  0  0  0
   13.0573 -102.9212   30.8858 N   0  0  0  0  0  0  0  0  0  0  0  0
   14.1088 -103.0443   31.6633 C   0  0  0  0  0  0  0  0  0  0  0  0
   12.9918 -102.1652   31.8853 C   0  0  0  0  0  0  0  0  0  0  0  0
   13.8084 -102.4207   32.2651 C   0  0  0  0  0  0  0  0  0  0  0  0
   15.5036 -103.3936   32.4340 O   0  0  0  0  0  0  0  0  0  0  0  0
   12.7294 -101.2004   32.9993 O   0  0  0  0  0  0  0  0  0  0  0  0
   13.2802 -101.5233   33.0447 O   0  0  0  0  0  0  0  0  0  0  0  0
   15.7248 -102.9434   33.2642 H   0  0  0  0  0  0  0  0  0  0  0  0
   11.9153 -100.6730   33.0024 H   0  0  0  0  0  0  0  0  0  0  0  0
    9.2119 -106.6436   26.5510 O   0  0  0  0  0  0  0  0  0  0  0  0
   10.3540 -106.5507   25.5169 C   0  0  0  0  0  0  0  0  0  0  0  0
   11.4927 -105.5902   25.7354 N   0  0  0  0  0  0  0  0  0  0  0  0
   10.3557 -107.4385   24.2373 N   0  0  0  0  0  0  0  0  0  0  0  0
   12.6348 -105.4974   24.7013 C   0  0  0  0  0  0  0  0  0  0  0  0
   11.4978 -107.3456   23.2033 C   0  0  0  0  0  0  0  0  0  0  0  0
   12.6365 -106.3850   23.4218 C   0  0  0  0  0  0  0  0  0  0  0  0
   11.4995 -108.2334   21.9237 O   0  0  0  0  0  0  0  0  0  0  0  0
    9.6156 -108.0697   24.0854 H   0  0  0  0  0  0  0  0  0  0  0  0
   15.0441 -102.9533   32.6355 O   0  0  0  0  0  0  0  0  0  0  0  0
   15.8199 -102.5298   33.6844 C   0  0  0  0  0  0  0  0  0  0  0  0
   16.8159 -102.3082   32.6075 C   0  0  0  0  0  0  0  0  0  0  0  0
   16.7548 -102.0483   34.7309 C   0  0  0  0  0  0  0  0  0  0  0  0
   14.7441 -102.7805   34.7626 C   0  0  0  0  0  0  0  0  0  0  0  0
 18 19  2  0
 19 20  1  0
 19 21  1  0
 20  1  1  0
 20 22  1  0
 21 23  1  0
  1  2  2  0
  1  3  1  0
 22 24  1  0
 23 25  2  0
  2  4  1  0
  3  5  2  0
  4  6  2  0
  4  7  1  0
  6  8  1  0
  7  9  1  0
  7 10  1  0
  8 11  1  0
  9 12  1  0
 10 13  1  0
 11 14  1  0
 12 15  2  0
 12 27  1  0
 27 28  1  0
 28 29  1  0
 28 30  1  0
 28 31  1  0
 23 24  1  0
  5  6  1  0
  8  9  1  0
 10 11  1  0
 21 26  1  0
 13 16  1  0
 14 17  1  0
M  END
> <Molecule Name>
Compound 4

> <EC50 (µM) (Excel)>
11.8

> <Error (µM)>
7.4

> <HTRC CRBN-DDB1 EC50 (µM)>
11.78 ±  7.41

> <EC50 fitting (µM)>
15.10

> <Modèle Fitting>
4PL
$$$$

> <minimizedAffinity>
-7.70725

> <CNNscore>
0.4239469767

> <CNNaffinity>
6.0343303680

> <CNN_VS>
2.5582361221

> <CNNaffinity_variance>
0.1383979917

$$$$
Compound 4


 31 34  0  0  0  0  0  0  0  0999 V2000
   15.3714 -103.2572   21.7683 C   0  0  0  0  0  0  0  0  0  0  0  0
   15.4997 -104.6176   22.1487 C   0  0  0  0  0  0  0  0  0  0  0  0
   16.1822 -102.2418   22.3124 C   0  0  0  0  0  0  0  0  0  0  0  0
   16.4527 -104.9834   23.0899 C   0  0  0  0  0  0  0  0  0  0  0  0
   17.1350 -102.6076   23.2535 C   0  0  0  0  0  0  0  0  0  0  0  0
   17.2634 -103.9679   23.6339 C   0  0  0  0  0  0  0  0  0  0  0  0
   16.7940 -106.2364   23.6441 C   0  0  0  0  0  0  0  0  0  0  0  0
   18.1135 -104.6073   24.5341 C   0  0  0  0  0  0  0  0  0  0  0  0
   17.8328 -105.9935   24.5459 N   0  0  0  0  0  0  0  0  0  0  0  0
   17.8903 -107.2710   24.8457 C   0  0  0  0  0  0  0  0  0  0  0  0
   18.7186 -106.2343   25.4016 C   0  0  0  0  0  0  0  0  0  0  0  0
   18.5732 -107.1580   25.4475 C   0  0  0  0  0  0  0  0  0  0  0  0
   17.7454 -108.8859   25.0259 O   0  0  0  0  0  0  0  0  0  0  0  0
   19.8143 -106.3155   26.4181 O   0  0  0  0  0  0  0  0  0  0  0  0
   19.5373 -106.8741   26.2733 O   0  0  0  0  0  0  0  0  0  0  0  0
   18.3233 -109.3586   25.6452 H   0  0  0  0  0  0  0  0  0  0  0  0
   20.2833 -105.5115   26.6910 H   0  0  0  0  0  0  0  0  0  0  0  0
   12.4756 -103.2242   22.5871 O   0  0  0  0  0  0  0  0  0  0  0  0
   12.9023 -102.8469   21.1525 C   0  0  0  0  0  0  0  0  0  0  0  0
   14.3578 -102.8713   20.7678 N   0  0  0  0  0  0  0  0  0  0  0  0
   11.8492 -102.4367   20.0810 N   0  0  0  0  0  0  0  0  0  0  0  0
   14.7844 -102.4940   19.3332 C   0  0  0  0  0  0  0  0  0  0  0  0
   12.2759 -102.0594   18.6464 C   0  0  0  0  0  0  0  0  0  0  0  0
   13.7315 -102.0838   18.2617 C   0  0  0  0  0  0  0  0  0  0  0  0
   11.2229 -101.6491   17.5749 O   0  0  0  0  0  0  0  0  0  0  0  0
   10.8951 -102.4177   20.3228 H   0  0  0  0  0  0  0  0  0  0  0  0
   18.1796 -108.4931   25.3464 O   0  0  0  0  0  0  0  0  0  0  0  0
   19.0112 -109.5616   25.1264 C   0  0  0  0  0  0  0  0  0  0  0  0
   18.4619 -110.0112   26.4291 C   0  0  0  0  0  0  0  0  0  0  0  0
   19.8682 -110.7664   25.0036 C   0  0  0  0  0  0  0  0  0  0  0  0
   19.5479 -109.0436   23.7749 C   0  0  0  0  0  0  0  0  0  0  0  0
 18 19  2  0
 19 20  1  0
 19 21  1  0
 20  1  1  0
 20 22  1  0
 21 23  1  0
  1  2  2  0
  1  3  1  0
 22 24  1  0
 23 25  2  0
  2  4  1  0
  3  5  2  0
  4  6  2  0
  4  7  1  0
  6  8  1  0
  7  9  1  0
  7 10  1  0
  8 11  1  0
  9 12  1  0
 10 13  1  0
 11 14  1  0
 12 15  2  0
 12 27  1  0
 27 28  1  0
 28 29  1  0
 28 30  1  0
 28 31  1  0
 23 24  1  0
  5  6  1  0
  8  9  1  0
 10 11  1  0
 21 26  1  0
 13 16  1  0
 14 17  1  0
M  END
> <Molecule Name>
Compound 4

> <EC50 (µM) (Excel)>
11.8

> <Error (µM)>
7.4

> <HTRC CRBN-DDB1 EC50 (µM)>
11.78 ±  7.41

> <EC50 fitting (µM)>
15.10

> <Modèle Fitting>
4PL
$$$$

> <minimizedAffinity>
-9.78164

> <CNNscore>
0.3967851698

> <CNNaffinity>
5.3100266457

> <CNN_VS>
2.1069397926

> <CNNaffinity_variance>
0.0716843531

$$$$
Compound 4


 31 34  0  0  0  0  0  0  0  0999 V2000
   17.8352 -104.2540   22.7732 C   0  0  0  0  0  0  0  0  0  0  0  0
   18.2755 -105.5655   22.4602 C   0  0  0  0  0  0  0  0  0  0  0  0
   18.3364 -103.5324   23.8744 C   0  0  0  0  0  0  0  0  0  0  0  0
   19.2346 -106.1788   23.2550 C   0  0  0  0  0  0  0  0  0  0  0  0
   19.2953 -104.1458   24.6690 C   0  0  0  0  0  0  0  0  0  0  0  0
   19.7357 -105.4572   24.3561 C   0  0  0  0  0  0  0  0  0  0  0  0
   19.8443 -107.4501   23.1802 C   0  0  0  0  0  0  0  0  0  0  0  0
   20.6656 -106.2979   24.9648 C   0  0  0  0  0  0  0  0  0  0  0  0
   20.7375 -107.5174   24.2521 N   0  0  0  0  0  0  0  0  0  0  0  0
   21.0934 -108.7311   23.8979 C   0  0  0  0  0  0  0  0  0  0  0  0
   21.6055 -107.9946   25.0227 C   0  0  0  0  0  0  0  0  0  0  0  0
   21.6916 -108.8190   24.5876 C   0  0  0  0  0  0  0  0  0  0  0  0
   21.3440 -110.2036   23.2419 O   0  0  0  0  0  0  0  0  0  0  0  0
   22.6278 -108.3817   26.0452 O   0  0  0  0  0  0  0  0  0  0  0  0
   22.5068 -108.8266   25.6012 O   0  0  0  0  0  0  0  0  0  0  0  0
   21.9852 -110.8107   23.6435 H   0  0  0  0  0  0  0  0  0  0  0  0
   22.8663 -107.7613   26.7516 H   0  0  0  0  0  0  0  0  0  0  0  0
   14.9758 -105.1637   23.0039 O   0  0  0  0  0  0  0  0  0  0  0  0
   15.3782 -104.0416   22.0234 C   0  0  0  0  0  0  0  0  0  0  0  0
   16.8158 -103.6045   21.9268 N   0  0  0  0  0  0  0  0  0  0  0  0
   14.3187 -103.3427   21.1210 N   0  0  0  0  0  0  0  0  0  0  0  0
   17.2181 -102.4824   20.9463 C   0  0  0  0  0  0  0  0  0  0  0  0
   14.7211 -102.2206   20.1405 C   0  0  0  0  0  0  0  0  0  0  0  0
   16.1587 -101.7835   20.0439 C   0  0  0  0  0  0  0  0  0  0  0  0
   13.6616 -101.5218   19.2381 O   0  0  0  0  0  0  0  0  0  0  0  0
   13.3761 -103.6214   21.1768 H   0  0  0  0  0  0  0  0  0  0  0  0
   21.6483 -109.9587   23.7832 O   0  0  0  0  0  0  0  0  0  0  0  0
   22.6891 -110.4609   23.0444 C   0  0  0  0  0  0  0  0  0  0  0  0
   22.6466 -111.5329   24.0691 C   0  0  0  0  0  0  0  0  0  0  0  0
   23.8197 -111.1045   22.3312 C   0  0  0  0  0  0  0  0  0  0  0  0
   22.6868 -109.3181   22.0068 C   0  0  0  0  0  0  0  0  0  0  0  0
 18 19  2  0
 19 20  1  0
 19 21  1  0
 20  1  1  0
 20 22  1  0
 21 23  1  0
  1  2  2  0
  1  3  1  0
 22 24  1  0
 23 25  2  0
  2  4  1  0
  3  5  2  0
  4  6  2  0
  4  7  1  0
  6  8  1  0
  7  9  1  0
  7 10  1  0
  8 11  1  0
  9 12  1  0
 10 13  1  0
 11 14  1  0
 12 15  2  0
 12 27  1  0
 27 28  1  0
 28 29  1  0
 28 30  1  0
 28 31  1  0
 23 24  1  0
  5  6  1  0
  8  9  1  0
 10 11  1  0
 21 26  1  0
 13 16  1  0
 14 17  1  0
M  END
> <Molecule Name>
Compound 4

> <EC50 (µM) (Excel)>
11.8

> <Error (µM)>
7.4

> <HTRC CRBN-DDB1 EC50 (µM)>
11.78 ±  7.41

> <EC50 fitting (µM)>
15.10

> <Modèle Fitting>
4PL
$$$$

> <minimizedAffinity>
-7.40968

> <CNNscore>
0.3411369622

> <CNNaffinity>
4.7834391594

> <CNN_VS>
1.6318079233

> <CNNaffinity_variance>
0.0570133813

$$$$
Compound 4


 31 34  0  0  0  0  0  0  0  0999 V2000
   20.0768 -107.7734   26.0182 C   0  0  0  0  0  0  0  0  0  0  0  0
   18.9580 -108.6215   25.8161 C   0  0  0  0  0  0  0  0  0  0  0  0
   21.0735 -108.0537   26.9735 C   0  0  0  0  0  0  0  0  0  0  0  0
   18.8210 -109.7749   26.5768 C   0  0  0  0  0  0  0  0  0  0  0  0
   20.9363 -109.2070   27.7340 C   0  0  0  0  0  0  0  0  0  0  0  0
   19.8176 -110.0552   27.5319 C   0  0  0  0  0  0  0  0  0  0  0  0
   17.8303 -110.7809   26.5886 C   0  0  0  0  0  0  0  0  0  0  0  0
   19.4326 -111.2496   28.1378 C   0  0  0  0  0  0  0  0  0  0  0  0
   18.2193 -111.6992   27.5668 N   0  0  0  0  0  0  0  0  0  0  0  0
   17.1575 -112.4322   27.3211 C   0  0  0  0  0  0  0  0  0  0  0  0
   18.1751 -112.7190   28.2969 C   0  0  0  0  0  0  0  0  0  0  0  0
   17.3740 -113.0605   27.9533 C   0  0  0  0  0  0  0  0  0  0  0  0
   15.7764 -113.1397   26.8175 O   0  0  0  0  0  0  0  0  0  0  0  0
   18.3023 -113.8658   29.2502 O   0  0  0  0  0  0  0  0  0  0  0  0
   17.7842 -113.8820   28.8748 O   0  0  0  0  0  0  0  0  0  0  0  0
   15.4827 -113.9717   27.2205 H   0  0  0  0  0  0  0  0  0  0  0  0
   19.0607 -113.9135   29.8532 H   0  0  0  0  0  0  0  0  0  0  0  0
   21.1165 -105.2803   27.3451 O   0  0  0  0  0  0  0  0  0  0  0  0
   20.7379 -105.2878   25.8488 C   0  0  0  0  0  0  0  0  0  0  0  0
   20.2199 -106.5481   25.2084 N   0  0  0  0  0  0  0  0  0  0  0  0
   20.8811 -104.0061   24.9757 N   0  0  0  0  0  0  0  0  0  0  0  0
   19.8414 -106.5555   23.7121 C   0  0  0  0  0  0  0  0  0  0  0  0
   20.5026 -104.0136   23.4794 C   0  0  0  0  0  0  0  0  0  0  0  0
   19.9845 -105.2740   22.8390 C   0  0  0  0  0  0  0  0  0  0  0  0
   20.6458 -102.7319   22.6063 O   0  0  0  0  0  0  0  0  0  0  0  0
   21.2189 -103.1770   25.3852 H   0  0  0  0  0  0  0  0  0  0  0  0
   16.1834 -113.3696   27.2940 O   0  0  0  0  0  0  0  0  0  0  0  0
   16.0439 -114.2655   26.2648 C   0  0  0  0  0  0  0  0  0  0  0  0
   15.6249 -115.1695   27.3640 C   0  0  0  0  0  0  0  0  0  0  0  0
   15.8543 -115.3232   25.2418 C   0  0  0  0  0  0  0  0  0  0  0  0
   16.4881 -113.2806   25.1623 C   0  0  0  0  0  0  0  0  0  0  0  0
 18 19  2  0
 19 20  1  0
 19 21  1  0
 20  1  1  0
 20 22  1  0
 21 23  1  0
  1  2  2  0
  1  3  1  0
 22 24  1  0
 23 25  2  0
  2  4  1  0
  3  5  2  0
  4  6  2  0
  4  7  1  0
  6  8  1  0
  7  9  1  0
  7 10  1  0
  8 11  1  0
  9 12  1  0
 10 13  1  0
 11 14  1  0
 12 15  2  0
 12 27  1  0
 27 28  1  0
 28 29  1  0
 28 30  1  0
 28 31  1  0
 23 24  1  0
  5  6  1  0
  8  9  1  0
 10 11  1  0
 21 26  1  0
 13 16  1  0
 14 17  1  0
M  END
> <Molecule Name>
Compound 4

> <EC50 (µM) (Excel)>
11.8

> <Error (µM)>
7.4

> <HTRC CRBN-DDB1 EC50 (µM)>
11.78 ±  7.41

> <EC50 fitting (µM)>
15.10

> <Modèle Fitting>
4PL
$$$$

> <minimizedAffinity>
-8.03451

> <CNNscore>
0.3163085282

> <CNNaffinity>
3.9991340637

> <CNN_VS>
1.2649601698

> <CNNaffinity_variance>
0.5305100083

$$$$
Compound 4


 31 34  0  0  0  0  0  0  0  0999 V2000
   11.7342 -106.1134   24.5968 C   0  0  0  0  0  0  0  0  0  0  0  0
   12.2050 -105.1508   23.6675 C   0  0  0  0  0  0  0  0  0  0  0  0
   11.4917 -107.4538   24.2374 C   0  0  0  0  0  0  0  0  0  0  0  0
   12.4420 -105.5220   22.3508 C   0  0  0  0  0  0  0  0  0  0  0  0
   11.7287 -107.8248   22.9208 C   0  0  0  0  0  0  0  0  0  0  0  0
   12.1995 -106.8623   21.9915 C   0  0  0  0  0  0  0  0  0  0  0  0
   12.9024 -104.7884   21.2357 C   0  0  0  0  0  0  0  0  0  0  0  0
   12.5157 -106.9516   20.6373 C   0  0  0  0  0  0  0  0  0  0  0  0
   12.9460 -105.6885   20.1683 N   0  0  0  0  0  0  0  0  0  0  0  0
   13.3805 -104.7414   19.3688 C   0  0  0  0  0  0  0  0  0  0  0  0
   13.1330 -106.1102   19.0012 C   0  0  0  0  0  0  0  0  0  0  0  0
   13.4248 -105.2971   18.6404 C   0  0  0  0  0  0  0  0  0  0  0  0
   13.9037 -103.3949   18.6108 O   0  0  0  0  0  0  0  0  0  0  0  0
   13.2919 -106.7990   17.6819 O   0  0  0  0  0  0  0  0  0  0  0  0
   13.4456 -106.1777   17.6832 O   0  0  0  0  0  0  0  0  0  0  0  0
   14.1314 -103.4262   17.6684 H   0  0  0  0  0  0  0  0  0  0  0  0
   13.0791 -107.7417   17.5982 H   0  0  0  0  0  0  0  0  0  0  0  0
    9.0357 -106.6896   25.7981 O   0  0  0  0  0  0  0  0  0  0  0  0
   10.1413 -105.9933   26.6198 C   0  0  0  0  0  0  0  0  0  0  0  0
   11.4832 -105.7162   25.9956 N   0  0  0  0  0  0  0  0  0  0  0  0
    9.8978 -105.5657   28.0974 N   0  0  0  0  0  0  0  0  0  0  0  0
   12.5888 -105.0199   26.8174 C   0  0  0  0  0  0  0  0  0  0  0  0
   11.0035 -104.8694   28.9190 C   0  0  0  0  0  0  0  0  0  0  0  0
   12.3454 -104.5922   28.2948 C   0  0  0  0  0  0  0  0  0  0  0  0
   10.7600 -104.4417   30.3966 O   0  0  0  0  0  0  0  0  0  0  0  0
    9.0238 -105.7425   28.5145 H   0  0  0  0  0  0  0  0  0  0  0  0
   13.8244 -103.9960   18.3317 O   0  0  0  0  0  0  0  0  0  0  0  0
   13.9338 -102.9568   19.2204 C   0  0  0  0  0  0  0  0  0  0  0  0
   12.6378 -102.5584   18.6179 C   0  0  0  0  0  0  0  0  0  0  0  0
   13.9365 -101.7884   20.1347 C   0  0  0  0  0  0  0  0  0  0  0  0
   15.2831 -103.4199   19.8099 C   0  0  0  0  0  0  0  0  0  0  0  0
 18 19  2  0
 19 20  1  0
 19 21  1  0
 20  1  1  0
 20 22  1  0
 21 23  1  0
  1  2  2  0
  1  3  1  0
 22 24  1  0
 23 25  2  0
  2  4  1  0
  3  5  2  0
  4  6  2  0
  4  7  1  0
  6  8  1  0
  7  9  1  0
  7 10  1  0
  8 11  1  0
  9 12  1  0
 10 13  1  0
 11 14  1  0
 12 15  2  0
 12 27  1  0
 27 28  1  0
 28 29  1  0
 28 30  1  0
 28 31  1  0
 23 24  1  0
  5  6  1  0
  8  9  1  0
 10 11  1  0
 21 26  1  0
 13 16  1  0
 14 17  1  0
M  END
> <Molecule Name>
Compound 4

> <EC50 (µM) (Excel)>
11.8

> <Error (µM)>
7.4

> <HTRC CRBN-DDB1 EC50 (µM)>
11.78 ±  7.41

> <EC50 fitting (µM)>
15.10

> <Modèle Fitting>
4PL
$$$$

> <minimizedAffinity>
-8.09685

> <CNNscore>
0.2632386088

> <CNNaffinity>
5.4612317085

> <CNN_VS>
1.4376070499

> <CNNaffinity_variance>
0.1088788435

$$$$
Compound 4


 31 34  0  0  0  0  0  0  0  0999 V2000
   17.9350 -106.2963   23.0002 C   0  0  0  0  0  0  0  0  0  0  0  0
   17.5413 -107.0809   24.1144 C   0  0  0  0  0  0  0  0  0  0  0  0
   19.1715 -106.4763   22.3498 C   0  0  0  0  0  0  0  0  0  0  0  0
   18.3904 -108.0675   24.5974 C   0  0  0  0  0  0  0  0  0  0  0  0
   20.0205 -107.4628   22.8329 C   0  0  0  0  0  0  0  0  0  0  0  0
   19.6268 -108.2474   23.9469 C   0  0  0  0  0  0  0  0  0  0  0  0
   18.2597 -108.9786   25.6682 C   0  0  0  0  0  0  0  0  0  0  0  0
   20.2630 -109.2831   24.6284 C   0  0  0  0  0  0  0  0  0  0  0  0
   19.4340 -109.7351   25.6814 N   0  0  0  0  0  0  0  0  0  0  0  0
   18.9988 -110.4187   26.7150 C   0  0  0  0  0  0  0  0  0  0  0  0
   20.2617 -110.6029   26.0510 C   0  0  0  0  0  0  0  0  0  0  0  0
   19.7526 -110.9392   26.7610 C   0  0  0  0  0  0  0  0  0  0  0  0
   18.2224 -111.0992   27.9782 O   0  0  0  0  0  0  0  0  0  0  0  0
   21.3696 -111.5686   26.3349 O   0  0  0  0  0  0  0  0  0  0  0  0
   20.8652 -111.6124   26.7265 O   0  0  0  0  0  0  0  0  0  0  0  0
   18.6401 -111.8222   28.4719 H   0  0  0  0  0  0  0  0  0  0  0  0
   22.1688 -111.5650   25.7853 H   0  0  0  0  0  0  0  0  0  0  0  0
   18.3011 -103.4728   23.9755 O   0  0  0  0  0  0  0  0  0  0  0  0
   17.1931 -103.8281   22.9614 C   0  0  0  0  0  0  0  0  0  0  0  0
   17.0306 -105.2484   22.4889 N   0  0  0  0  0  0  0  0  0  0  0  0
   16.2277 -102.7380   22.4089 N   0  0  0  0  0  0  0  0  0  0  0  0
   15.9225 -105.6036   21.4748 C   0  0  0  0  0  0  0  0  0  0  0  0
   15.1197 -103.0933   21.3948 C   0  0  0  0  0  0  0  0  0  0  0  0
   14.9572 -104.5137   20.9224 C   0  0  0  0  0  0  0  0  0  0  0  0
   14.1544 -102.0032   20.8423 O   0  0  0  0  0  0  0  0  0  0  0  0
   16.3259 -101.8064   22.7117 H   0  0  0  0  0  0  0  0  0  0  0  0
   18.8260 -111.2706   27.7507 O   0  0  0  0  0  0  0  0  0  0  0  0
   18.2724 -112.5096   27.9508 C   0  0  0  0  0  0  0  0  0  0  0  0
   17.2016 -111.9587   27.0842 C   0  0  0  0  0  0  0  0  0  0  0  0
   17.5729 -113.8104   28.0910 C   0  0  0  0  0  0  0  0  0  0  0  0
   19.4163 -113.0294   28.8474 C   0  0  0  0  0  0  0  0  0  0  0  0
 18 19  2  0
 19 20  1  0
 19 21  1  0
 20  1  1  0
 20 22  1  0
 21 23  1  0
  1  2  2  0
  1  3  1  0
 22 24  1  0
 23 25  2  0
  2  4  1  0
  3  5  2  0
  4  6  2  0
  4  7  1  0
  6  8  1  0
  7  9  1  0
  7 10  1  0
  8 11  1  0
  9 12  1  0
 10 13  1  0
 11 14  1  0
 12 15  2  0
 12 27  1  0
 27 28  1  0
 28 29  1  0
 28 30  1  0
 28 31  1  0
 23 24  1  0
  5  6  1  0
  8  9  1  0
 10 11  1  0
 21 26  1  0
 13 16  1  0
 14 17  1  0
M  END
> <Molecule Name>
Compound 4

> <EC50 (µM) (Excel)>
11.8

> <Error (µM)>
7.4

> <HTRC CRBN-DDB1 EC50 (µM)>
11.78 ±  7.41

> <EC50 fitting (µM)>
15.10

> <Modèle Fitting>
4PL
$$$$

> <minimizedAffinity>
-7.78662

> <CNNscore>
0.2609458268

> <CNNaffinity>
4.2310118675

> <CNN_VS>
1.1040649414

> <CNNaffinity_variance>
0.1772640944

$$$$
Compound 4


 31 34  0  0  0  0  0  0  0  0999 V2000
   15.3716 -103.2760   21.9051 C   0  0  0  0  0  0  0  0  0  0  0  0
   15.4864 -104.6378   22.2848 C   0  0  0  0  0  0  0  0  0  0  0  0
   16.2104 -102.2731   22.4295 C   0  0  0  0  0  0  0  0  0  0  0  0
   16.4538 -105.0176   23.2055 C   0  0  0  0  0  0  0  0  0  0  0  0
   17.1776 -102.6529   23.3500 C   0  0  0  0  0  0  0  0  0  0  0  0
   17.2925 -104.0147   23.7298 C   0  0  0  0  0  0  0  0  0  0  0  0
   16.7871 -106.2752   23.7541 C   0  0  0  0  0  0  0  0  0  0  0  0
   18.1518 -104.6665   24.6122 C   0  0  0  0  0  0  0  0  0  0  0  0
   17.8492 -106.0479   24.6325 N   0  0  0  0  0  0  0  0  0  0  0  0
   17.8928 -107.3257   24.9330 C   0  0  0  0  0  0  0  0  0  0  0  0
   18.7497 -106.3018   25.4689 C   0  0  0  0  0  0  0  0  0  0  0  0
   18.5905 -107.2229   25.5195 C   0  0  0  0  0  0  0  0  0  0  0  0
   17.7260 -108.9379   25.1190 O   0  0  0  0  0  0  0  0  0  0  0  0
   19.8660 -106.3993   26.4612 O   0  0  0  0  0  0  0  0  0  0  0  0
   19.5770 -106.9535   26.3234 O   0  0  0  0  0  0  0  0  0  0  0  0
   18.3097 -109.4190   25.7263 H   0  0  0  0  0  0  0  0  0  0  0  0
   20.3538 -105.6025   26.7223 H   0  0  0  0  0  0  0  0  0  0  0  0
   16.2421 -101.8720   19.3895 O   0  0  0  0  0  0  0  0  0  0  0  0
   14.7523 -102.1714   19.6600 C   0  0  0  0  0  0  0  0  0  0  0  0
   14.3425 -102.8752   20.9264 N   0  0  0  0  0  0  0  0  0  0  0  0
   13.6499 -101.7572   18.6409 N   0  0  0  0  0  0  0  0  0  0  0  0
   12.8527 -103.1745   21.1968 C   0  0  0  0  0  0  0  0  0  0  0  0
   12.1601 -102.0565   18.9114 C   0  0  0  0  0  0  0  0  0  0  0  0
   11.7504 -102.7604   20.1779 C   0  0  0  0  0  0  0  0  0  0  0  0
   11.0577 -101.6423   17.8922 O   0  0  0  0  0  0  0  0  0  0  0  0
   13.9077 -101.2965   17.8098 H   0  0  0  0  0  0  0  0  0  0  0  0
   18.1734 -108.5518   25.4293 O   0  0  0  0  0  0  0  0  0  0  0  0
   18.9839 -109.6347   25.2016 C   0  0  0  0  0  0  0  0  0  0  0  0
   18.4674 -110.0570   26.5267 C   0  0  0  0  0  0  0  0  0  0  0  0
   19.8209 -110.8529   25.0725 C   0  0  0  0  0  0  0  0  0  0  0  0
   19.4873 -109.1446   23.8271 C   0  0  0  0  0  0  0  0  0  0  0  0
 18 19  2  0
 19 20  1  0
 19 21  1  0
 20  1  1  0
 20 22  1  0
 21 23  1  0
  1  2  2  0
  1  3  1  0
 22 24  1  0
 23 25  2  0
  2  4  1  0
  3  5  2  0
  4  6  2  0
  4  7  1  0
  6  8  1  0
  7  9  1  0
  7 10  1  0
  8 11  1  0
  9 12  1  0
 10 13  1  0
 11 14  1  0
 12 15  2  0
 12 27  1  0
 27 28  1  0
 28 29  1  0
 28 30  1  0
 28 31  1  0
 23 24  1  0
  5  6  1  0
  8  9  1  0
 10 11  1  0
 21 26  1  0
 13 16  1  0
 14 17  1  0
M  END
> <Molecule Name>
Compound 4

> <EC50 (µM) (Excel)>
11.8

> <Error (µM)>
7.4

> <HTRC CRBN-DDB1 EC50 (µM)>
11.78 ±  7.41

> <EC50 fitting (µM)>
15.10

> <Modèle Fitting>
4PL
$$$$

> <minimizedAffinity>
-9.72595

> <CNNscore>
0.2526681423

> <CNNaffinity>
5.1501350403

> <CNN_VS>
1.3012750149

> <CNNaffinity_variance>
0.2928706408

$$$$
Compound 4


 31 34  0  0  0  0  0  0  0  0999 V2000
   15.1654 -104.7494   22.2683 C   0  0  0  0  0  0  0  0  0  0  0  0
   16.5214 -104.6216   21.8720 C   0  0  0  0  0  0  0  0  0  0  0  0
   14.7833 -105.4252   23.4438 C   0  0  0  0  0  0  0  0  0  0  0  0
   17.5241 -105.1753   22.6567 C   0  0  0  0  0  0  0  0  0  0  0  0
   15.7860 -105.9787   24.2283 C   0  0  0  0  0  0  0  0  0  0  0  0
   17.1419 -105.8510   23.8321 C   0  0  0  0  0  0  0  0  0  0  0  0
   18.9280 -105.2004   22.5082 C   0  0  0  0  0  0  0  0  0  0  0  0
   18.3279 -106.2966   24.4122 C   0  0  0  0  0  0  0  0  0  0  0  0
   19.4236 -105.9030   23.6091 N   0  0  0  0  0  0  0  0  0  0  0  0
   20.6531 -105.7427   23.1759 C   0  0  0  0  0  0  0  0  0  0  0  0
   20.2634 -106.4330   24.3765 C   0  0  0  0  0  0  0  0  0  0  0  0
   21.0224 -106.1973   23.8818 C   0  0  0  0  0  0  0  0  0  0  0  0
   22.0563 -105.4008   22.4171 O   0  0  0  0  0  0  0  0  0  0  0  0
   21.1003 -107.1219   25.4086 O   0  0  0  0  0  0  0  0  0  0  0  0
   21.4280 -106.8584   24.9261 O   0  0  0  0  0  0  0  0  0  0  0  0
   22.8980 -105.6978   22.7969 H   0  0  0  0  0  0  0  0  0  0  0  0
   20.6775 -107.5463   26.1716 H   0  0  0  0  0  0  0  0  0  0  0  0
   14.3036 -106.2146   19.7849 O   0  0  0  0  0  0  0  0  0  0  0  0
   13.6528 -104.8734   20.1850 C   0  0  0  0  0  0  0  0  0  0  0  0
   14.1018 -104.1600   21.4325 N   0  0  0  0  0  0  0  0  0  0  0  0
   12.5287 -104.2336   19.3175 N   0  0  0  0  0  0  0  0  0  0  0  0
   13.4508 -102.8188   21.8325 C   0  0  0  0  0  0  0  0  0  0  0  0
   11.8778 -102.8925   19.7176 C   0  0  0  0  0  0  0  0  0  0  0  0
   12.3269 -102.1790   20.9652 C   0  0  0  0  0  0  0  0  0  0  0  0
   10.7538 -102.2526   18.8501 O   0  0  0  0  0  0  0  0  0  0  0  0
   12.2282 -104.6924   18.4999 H   0  0  0  0  0  0  0  0  0  0  0  0
   21.9922 -105.7393   22.9888 O   0  0  0  0  0  0  0  0  0  0  0  0
   22.1027 -104.4588   22.5096 C   0  0  0  0  0  0  0  0  0  0  0  0
   22.6248 -104.1989   23.8738 C   0  0  0  0  0  0  0  0  0  0  0  0
   22.2701 -103.0399   22.1100 C   0  0  0  0  0  0  0  0  0  0  0  0
   21.5522 -104.7880   21.1056 C   0  0  0  0  0  0  0  0  0  0  0  0
 18 19  2  0
 19 20  1  0
 19 21  1  0
 20  1  1  0
 20 22  1  0
 21 23  1  0
  1  2  2  0
  1  3  1  0
 22 24  1  0
 23 25  2  0
  2  4  1  0
  3  5  2  0
  4  6  2  0
  4  7  1  0
  6  8  1  0
  7  9  1  0
  7 10  1  0
  8 11  1  0
  9 12  1  0
 10 13  1  0
 11 14  1  0
 12 15  2  0
 12 27  1  0
 27 28  1  0
 28 29  1  0
 28 30  1  0
 28 31  1  0
 23 24  1  0
  5  6  1  0
  8  9  1  0
 10 11  1  0
 21 26  1  0
 13 16  1  0
 14 17  1  0
M  END
> <Molecule Name>
Compound 4

> <EC50 (µM) (Excel)>
11.8

> <Error (µM)>
7.4

> <HTRC CRBN-DDB1 EC50 (µM)>
11.78 ±  7.41

> <EC50 fitting (µM)>
15.10

> <Modèle Fitting>
4PL
$$$$

> <minimizedAffinity>
-7.83337

> <CNNscore>
0.2524177432

> <CNNaffinity>
5.3243923187

> <CNN_VS>
1.3439711332

> <CNNaffinity_variance>
0.1857628226

$$$$
