Compound 9
Actelion Java MolfileCreator 2.0

  0  0  0  0  0  0              0 V3000
M  V30 BEGIN CTAB
M  V30 COUNTS 33 35 0 0 0
M  V30 BEGIN ATOM
M  V30 1 S 0.0 0.0 0.0 0
M  V30 2 O -0.872 1.2663 0.0 0
M  V30 3 O -1.5291 -0.0836 0.0 0
M  V30 4 N -0.0238 -1.4813 0.0 0
M  V30 5 C 1.1468 0.9557 0.0 0
M  V30 6 C 1.1229 -2.3892 0.0 0
M  V30 7 C -1.3977 -2.1145 0.0 0
M  V30 8 C 2.5923 0.6451 0.0 0
M  V30 9 C 2.5684 -2.0308 0.0 0
M  V30 10 C -1.5291 -3.5958 0.0 0
M  V30 11 N 3.2255 -0.6809 0.0 0
M  V30 12 C -2.9029 -4.229 0.0 0
M  V30 13 C -0.3106 -4.4201 0.0 0
M  V30 14 C 4.7068 -0.657 0.0 0
M  V30 15 C -3.0343 -5.7103 0.0 0
M  V30 16 C -0.442 -5.9015 0.0 0
M  V30 17 O 5.4475 -1.9353 0.0 0
M  V30 18 C 5.4356 0.6689 0.0 0
M  V30 19 C -4.4082 -6.3435 0.0 0
M  V30 20 C -1.8158 -6.5346 0.0 0
M  V30 21 N 6.9169 0.6928 0.0 0
M  V30 22 O -4.5396 -7.8249 0.0 0
M  V30 23 N -5.6745 -5.4714 0.0 0
M  V30 24 C 7.6576 -0.5853 0.0 0
M  V30 25 C 7.6457 2.0189 0.0 0
M  V30 26 C -7.0483 -6.1046 0.0 0 CFG=2
M  V30 27 C -8.3147 -5.2325 0.0 0
M  V30 28 C -7.1797 -7.5859 0.0 0
M  V30 29 O -8.231 -3.7033 0.0 0
M  V30 30 N -9.6885 -5.8656 0.0 0
M  V30 31 C -8.5536 -8.2191 0.0 0
M  V30 32 C -9.8199 -7.347 0.0 0
M  V30 33 O -11.1937 -7.9802 0.0 0
M  V30 END ATOM
M  V30 BEGIN BOND
M  V30 1 2 1 2
M  V30 2 2 1 3
M  V30 3 1 1 4
M  V30 4 1 1 5
M  V30 5 1 4 6
M  V30 6 1 4 7
M  V30 7 1 5 8
M  V30 8 1 6 9
M  V30 9 1 7 10
M  V30 10 1 8 11
M  V30 11 2 10 12
M  V30 12 1 10 13
M  V30 13 1 11 14
M  V30 14 1 12 15
M  V30 15 2 13 16
M  V30 16 2 14 17
M  V30 17 1 14 18
M  V30 18 1 15 19
M  V30 19 2 15 20
M  V30 20 1 18 21
M  V30 21 2 19 22
M  V30 22 1 19 23
M  V30 23 1 21 24
M  V30 24 1 21 25
M  V30 25 1 26 23 CFG=1
M  V30 26 1 26 27
M  V30 27 1 26 28
M  V30 28 2 27 29
M  V30 29 1 27 30
M  V30 30 1 28 31
M  V30 31 1 30 32
M  V30 32 2 32 33
M  V30 33 1 9 11
M  V30 34 1 16 20
M  V30 35 1 31 32
M  V30 END BOND
M  V30 BEGIN COLLECTION
M  V30 MDLV30/STERAC1 ATOMS=(1 26)
M  V30 END COLLECTION
M  V30 END CTAB
M  END
>  <Molecule Name>
Compound 9

>  <EC50 (µM) (Excel)>
54.0

>  <Error (µM)>
9.3

>  <HTRC CRBN-DDB1 EC50 (µM)>
53.95 ±  9.32

>  <EC50 fitting (µM)>
108.30

>  <Modèle Fitting>
4PL
$$$$
