Compound 7


 36 38  0  0  0  0  0  0  0  0999 V2000
   10.7777 -105.3811   26.8861 C   0  0  0  0  0  0  0  0  0  0  0  0
   11.8788 -105.1769   27.9029 C   0  0  0  0  0  0  0  0  0  0  0  0
    9.5700 -104.5410   26.8922 C   0  0  0  0  0  0  0  0  0  0  0  0
   11.7474 -104.1103   28.9309 C   0  0  0  0  0  0  0  0  0  0  0  0
    9.4387 -103.4745   27.9202 C   0  0  0  0  0  0  0  0  0  0  0  0
   10.5398 -103.2702   28.9369 C   0  0  0  0  0  0  0  0  0  0  0  0
   12.8486 -103.9060   29.9477 C   0  0  0  0  0  0  0  0  0  0  0  0
   14.0812 -104.7351   29.8794 O   0  0  0  0  0  0  0  0  0  0  0  0
   12.7085 -102.8481   31.0546 N   0  0  0  0  0  0  0  0  0  0  0  0
   11.8935 -102.2978   31.1021 H   0  0  0  0  0  0  0  0  0  0  0  0
   13.8096 -102.6437   32.0714 C   0  0  0  0  0  0  0  0  0  0  0  0
   15.1949 -102.1372   31.6374 C   0  0  0  0  0  0  0  0  0  0  0  0
   13.5534 -102.9345   33.5071 C   0  0  0  0  0  0  0  0  0  0  0  0
   15.5071 -101.8241   30.1713 O   0  0  0  0  0  0  0  0  0  0  0  0
   16.2959 -101.9329   32.6543 N   0  0  0  0  0  0  0  0  0  0  0  0
   14.6544 -102.7301   34.5241 C   0  0  0  0  0  0  0  0  0  0  0  0
   16.0397 -102.2237   34.0900 C   0  0  0  0  0  0  0  0  0  0  0  0
   17.1408 -102.0194   35.1069 O   0  0  0  0  0  0  0  0  0  0  0  0
   17.1796 -101.6082   32.3664 H   0  0  0  0  0  0  0  0  0  0  0  0
   10.9091 -106.4477   25.8582 C   0  0  0  0  0  0  0  0  0  0  0  0
   12.2518 -107.3373   23.9012 S   0  0  0  0  0  0  0  0  0  0  0  0
   12.4594 -108.8581   23.9897 O   0  0  0  0  0  0  0  0  0  0  0  0
   11.6843 -108.1542   25.0655 O   0  0  0  0  0  0  0  0  0  0  0  0
   11.6446 -106.1617   24.5676 N   0  0  0  0  0  0  0  0  0  0  0  0
   13.0385 -107.4416   22.6369 C   0  0  0  0  0  0  0  0  0  0  0  0
   11.6778 -104.7699   24.1196 C   0  0  0  0  0  0  0  0  0  0  0  0
   13.4174 -106.3565   21.7069 C   0  0  0  0  0  0  0  0  0  0  0  0
   12.3272 -104.2219   22.8967 C   0  0  0  0  0  0  0  0  0  0  0  0
   13.1024 -104.9259   21.8207 N   0  0  0  0  0  0  0  0  0  0  0  0
   13.6291 -104.0887   20.7178 C   0  0  0  0  0  0  0  0  0  0  0  0
   14.4195 -104.7320   19.5996 O   0  0  0  0  0  0  0  0  0  0  0  0
   13.3708 -102.6342   20.7315 O   0  0  0  0  0  0  0  0  0  0  0  0
   13.0475 -101.9464   19.4598 C   0  0  0  0  0  0  0  0  0  0  0  0
   11.6217 -102.4955   19.5244 C   0  0  0  0  0  0  0  0  0  0  0  0
   12.7242 -101.2585   18.1882 C   0  0  0  0  0  0  0  0  0  0  0  0
   14.4384 -101.4365   19.4377 C   0  0  0  0  0  0  0  0  0  0  0  0
 21 22  2  0
 21 23  2  0
 21 24  1  0
 21 25  1  0
 24 26  1  0
 24 20  1  0
 25 27  1  0
 26 28  1  0
 20  1  1  0
 27 29  1  0
  1  2  2  0
  1  3  1  0
 29 30  1  0
  2  4  1  0
  3  5  2  0
 30 31  2  0
 30 32  1  0
  4  7  1  0
  4  6  2  0
 32 33  1  0
  7  8  2  0
  7  9  1  0
 33 34  1  0
 33 35  1  0
 33 36  1  0
 11  9  1  0
 11 12  1  0
 11 13  1  0
 12 14  2  0
 12 15  1  0
 13 16  1  0
 15 17  1  0
 17 18  2  0
 28 29  1  0
  5  6  1  0
 16 17  1  0
  9 10  1  0
 15 19  1  0
M  END
> <Molecule Name>
Compound 7

> <EC50 (µM) (Excel)>
4.1

> <Error (µM)>
0.2

> <HTRC CRBN-DDB1 EC50 (µM)>
4.06 ±  0.18

> <EC50 fitting (µM)>
3.77

> <Modèle Fitting>
4PL
$$$$

> <minimizedAffinity>
-8.09286

> <CNNscore>
0.7780340910

> <CNNaffinity>
7.3516020775

> <CNN_VS>
5.7197971344

> <CNNaffinity_variance>
0.1144292057

$$$$
Compound 7


 36 38  0  0  0  0  0  0  0  0999 V2000
   10.7552 -105.4413   27.1074 C   0  0  0  0  0  0  0  0  0  0  0  0
   11.8824 -105.2173   28.0910 C   0  0  0  0  0  0  0  0  0  0  0  0
    9.5365 -104.6182   27.1452 C   0  0  0  0  0  0  0  0  0  0  0  0
   11.7657 -104.1483   29.1182 C   0  0  0  0  0  0  0  0  0  0  0  0
    9.4199 -103.5493   28.1725 C   0  0  0  0  0  0  0  0  0  0  0  0
   10.5470 -103.3252   29.1561 C   0  0  0  0  0  0  0  0  0  0  0  0
   12.8929 -103.9242   30.1018 C   0  0  0  0  0  0  0  0  0  0  0  0
   14.1534 -104.7024   29.9717 O   0  0  0  0  0  0  0  0  0  0  0  0
   12.7507 -102.8983   31.2382 N   0  0  0  0  0  0  0  0  0  0  0  0
   11.9172 -102.3818   31.3266 H   0  0  0  0  0  0  0  0  0  0  0  0
   13.8778 -102.6741   32.2219 C   0  0  0  0  0  0  0  0  0  0  0  0
   15.2638 -102.2182   31.7372 C   0  0  0  0  0  0  0  0  0  0  0  0
   13.6467 -102.8960   33.6741 C   0  0  0  0  0  0  0  0  0  0  0  0
   15.5506 -101.9765   30.2524 O   0  0  0  0  0  0  0  0  0  0  0  0
   16.3908 -101.9940   32.7208 N   0  0  0  0  0  0  0  0  0  0  0  0
   14.7738 -102.6719   34.6578 C   0  0  0  0  0  0  0  0  0  0  0  0
   16.1598 -102.2160   34.1730 C   0  0  0  0  0  0  0  0  0  0  0  0
   17.2868 -101.9918   35.1567 O   0  0  0  0  0  0  0  0  0  0  0  0
   17.2748 -101.7021   32.4005 H   0  0  0  0  0  0  0  0  0  0  0  0
   10.8719 -106.5103   26.0801 C   0  0  0  0  0  0  0  0  0  0  0  0
   11.0050 -106.6876   23.5553 S   0  0  0  0  0  0  0  0  0  0  0  0
    9.7523 -107.3492   22.9580 O   0  0  0  0  0  0  0  0  0  0  0  0
    9.8507 -107.1595   24.4440 O   0  0  0  0  0  0  0  0  0  0  0  0
   11.6566 -106.2529   24.8128 N   0  0  0  0  0  0  0  0  0  0  0  0
   11.4668 -106.6003   22.1385 C   0  0  0  0  0  0  0  0  0  0  0  0
   12.9613 -105.6091   24.9618 C   0  0  0  0  0  0  0  0  0  0  0  0
   12.7343 -106.0378   21.6258 C   0  0  0  0  0  0  0  0  0  0  0  0
   13.9262 -105.2463   23.8871 C   0  0  0  0  0  0  0  0  0  0  0  0
   13.8278 -105.4360   22.4010 N   0  0  0  0  0  0  0  0  0  0  0  0
   14.9719 -104.9617   21.5881 C   0  0  0  0  0  0  0  0  0  0  0  0
   14.9402 -105.1209   20.0838 O   0  0  0  0  0  0  0  0  0  0  0  0
   16.1276 -104.3393   22.2657 O   0  0  0  0  0  0  0  0  0  0  0  0
   17.0024 -105.1779   23.1179 C   0  0  0  0  0  0  0  0  0  0  0  0
   16.9781 -104.1012   24.2037 C   0  0  0  0  0  0  0  0  0  0  0  0
   17.8772 -106.0165   23.9701 C   0  0  0  0  0  0  0  0  0  0  0  0
   16.9981 -106.1937   22.0396 C   0  0  0  0  0  0  0  0  0  0  0  0
 21 22  2  0
 21 23  2  0
 21 24  1  0
 21 25  1  0
 24 26  1  0
 24 20  1  0
 25 27  1  0
 26 28  1  0
 20  1  1  0
 27 29  1  0
  1  2  2  0
  1  3  1  0
 29 30  1  0
  2  4  1  0
  3  5  2  0
 30 31  2  0
 30 32  1  0
  4  7  1  0
  4  6  2  0
 32 33  1  0
  7  8  2  0
  7  9  1  0
 33 34  1  0
 33 35  1  0
 33 36  1  0
 11  9  1  0
 11 12  1  0
 11 13  1  0
 12 14  2  0
 12 15  1  0
 13 16  1  0
 15 17  1  0
 17 18  2  0
 28 29  1  0
  5  6  1  0
 16 17  1  0
  9 10  1  0
 15 19  1  0
M  END
> <Molecule Name>
Compound 7

> <EC50 (µM) (Excel)>
4.1

> <Error (µM)>
0.2

> <HTRC CRBN-DDB1 EC50 (µM)>
4.06 ±  0.18

> <EC50 fitting (µM)>
3.77

> <Modèle Fitting>
4PL
$$$$

> <minimizedAffinity>
-10.73644

> <CNNscore>
0.6969217062

> <CNNaffinity>
7.3410644531

> <CNN_VS>
5.1161470413

> <CNNaffinity_variance>
0.0870817974

$$$$
Compound 7


 36 38  0  0  0  0  0  0  0  0999 V2000
   10.9922 -106.3190   25.7699 C   0  0  0  0  0  0  0  0  0  0  0  0
   12.2414 -105.6633   25.2245 C   0  0  0  0  0  0  0  0  0  0  0  0
    9.9579 -106.8537   24.8707 C   0  0  0  0  0  0  0  0  0  0  0  0
   12.4365 -105.5525   23.7544 C   0  0  0  0  0  0  0  0  0  0  0  0
   10.1531 -106.7428   23.4006 C   0  0  0  0  0  0  0  0  0  0  0  0
   11.4023 -106.0871   22.8551 C   0  0  0  0  0  0  0  0  0  0  0  0
   13.6858 -104.8967   23.2088 C   0  0  0  0  0  0  0  0  0  0  0  0
   15.0156 -105.2609   23.7660 O   0  0  0  0  0  0  0  0  0  0  0  0
   13.5971 -103.8548   22.0816 N   0  0  0  0  0  0  0  0  0  0  0  0
   12.7180 -103.6119   21.7110 H   0  0  0  0  0  0  0  0  0  0  0  0
   14.8463 -103.1991   21.5360 C   0  0  0  0  0  0  0  0  0  0  0  0
   16.2129 -103.8938   21.6531 C   0  0  0  0  0  0  0  0  0  0  0  0
   14.7558 -101.8682   20.8786 C   0  0  0  0  0  0  0  0  0  0  0  0
   16.3571 -105.2642   22.3213 O   0  0  0  0  0  0  0  0  0  0  0  0
   17.4620 -103.2381   21.1075 N   0  0  0  0  0  0  0  0  0  0  0  0
   16.0050 -101.2124   20.3329 C   0  0  0  0  0  0  0  0  0  0  0  0
   17.3714 -101.9072   20.4501 C   0  0  0  0  0  0  0  0  0  0  0  0
   18.6206 -101.2514   19.9045 O   0  0  0  0  0  0  0  0  0  0  0  0
   18.3324 -103.6910   21.1874 H   0  0  0  0  0  0  0  0  0  0  0  0
   10.7970 -106.4299   27.2400 C   0  0  0  0  0  0  0  0  0  0  0  0
   10.1964 -104.1486   28.1667 S   0  0  0  0  0  0  0  0  0  0  0  0
    8.8564 -103.6371   27.6131 O   0  0  0  0  0  0  0  0  0  0  0  0
    9.3748 -104.9759   27.1741 O   0  0  0  0  0  0  0  0  0  0  0  0
   11.1652 -105.2690   28.1372 N   0  0  0  0  0  0  0  0  0  0  0  0
   10.2205 -102.8598   28.9196 C   0  0  0  0  0  0  0  0  0  0  0  0
   12.4251 -105.3748   28.8723 C   0  0  0  0  0  0  0  0  0  0  0  0
   11.2556 -102.3693   29.8542 C   0  0  0  0  0  0  0  0  0  0  0  0
   13.0166 -104.3837   29.8133 C   0  0  0  0  0  0  0  0  0  0  0  0
   12.4983 -103.0448   30.2524 N   0  0  0  0  0  0  0  0  0  0  0  0
   13.3322 -102.2860   31.2135 C   0  0  0  0  0  0  0  0  0  0  0  0
   12.8708 -100.9293   31.6987 O   0  0  0  0  0  0  0  0  0  0  0  0
   14.6048 -102.8722   31.6817 O   0  0  0  0  0  0  0  0  0  0  0  0
   15.1308 -102.4868   33.0119 C   0  0  0  0  0  0  0  0  0  0  0  0
   13.7408 -102.6816   33.6190 C   0  0  0  0  0  0  0  0  0  0  0  0
   15.6569 -102.1014   34.3422 C   0  0  0  0  0  0  0  0  0  0  0  0
   16.4600 -102.3104   32.3819 C   0  0  0  0  0  0  0  0  0  0  0  0
 21 22  2  0
 21 23  2  0
 21 24  1  0
 21 25  1  0
 24 26  1  0
 24 20  1  0
 25 27  1  0
 26 28  1  0
 20  1  1  0
 27 29  1  0
  1  2  2  0
  1  3  1  0
 29 30  1  0
  2  4  1  0
  3  5  2  0
 30 31  2  0
 30 32  1  0
  4  7  1  0
  4  6  2  0
 32 33  1  0
  7  8  2  0
  7  9  1  0
 33 34  1  0
 33 35  1  0
 33 36  1  0
 11  9  1  0
 11 12  1  0
 11 13  1  0
 12 14  2  0
 12 15  1  0
 13 16  1  0
 15 17  1  0
 17 18  2  0
 28 29  1  0
  5  6  1  0
 16 17  1  0
  9 10  1  0
 15 19  1  0
M  END
> <Molecule Name>
Compound 7

> <EC50 (µM) (Excel)>
4.1

> <Error (µM)>
0.2

> <HTRC CRBN-DDB1 EC50 (µM)>
4.06 ±  0.18

> <EC50 fitting (µM)>
3.77

> <Modèle Fitting>
4PL
$$$$

> <minimizedAffinity>
-10.28966

> <CNNscore>
0.5133991838

> <CNNaffinity>
6.5296921730

> <CNN_VS>
3.3523385525

> <CNNaffinity_variance>
0.3619000912

$$$$
Compound 7


 36 38  0  0  0  0  0  0  0  0999 V2000
   10.5559 -105.6934   26.4322 C   0  0  0  0  0  0  0  0  0  0  0  0
   11.6814 -105.4351   27.4093 C   0  0  0  0  0  0  0  0  0  0  0  0
    9.2588 -105.0125   26.5671 C   0  0  0  0  0  0  0  0  0  0  0  0
   11.4827 -104.4774   28.5295 C   0  0  0  0  0  0  0  0  0  0  0  0
    9.0602 -104.0549   27.6874 C   0  0  0  0  0  0  0  0  0  0  0  0
   10.1856 -103.7965   28.6644 C   0  0  0  0  0  0  0  0  0  0  0  0
   12.6081 -104.2189   29.5067 C   0  0  0  0  0  0  0  0  0  0  0  0
   13.7801 -105.1336   29.5434 O   0  0  0  0  0  0  0  0  0  0  0  0
   12.5549 -103.0182   30.4655 N   0  0  0  0  0  0  0  0  0  0  0  0
   11.7802 -102.4111   30.4433 H   0  0  0  0  0  0  0  0  0  0  0  0
   13.6803 -102.7597   31.4427 C   0  0  0  0  0  0  0  0  0  0  0  0
   13.5154 -103.0895   32.9353 C   0  0  0  0  0  0  0  0  0  0  0  0
   14.9615 -102.1804   30.9584 C   0  0  0  0  0  0  0  0  0  0  0  0
   12.2156 -103.6871   33.4819 O   0  0  0  0  0  0  0  0  0  0  0  0
   14.6407 -102.8310   33.9124 N   0  0  0  0  0  0  0  0  0  0  0  0
   16.0870 -101.9219   31.9355 C   0  0  0  0  0  0  0  0  0  0  0  0
   15.9219 -102.2518   33.4281 C   0  0  0  0  0  0  0  0  0  0  0  0
   17.0474 -101.9932   34.4052 O   0  0  0  0  0  0  0  0  0  0  0  0
   14.5253 -103.0457   34.8662 H   0  0  0  0  0  0  0  0  0  0  0  0
   10.7546 -106.6511   25.3120 C   0  0  0  0  0  0  0  0  0  0  0  0
   11.1819 -106.8901   22.8252 S   0  0  0  0  0  0  0  0  0  0  0  0
   10.2313 -107.9072   22.1731 O   0  0  0  0  0  0  0  0  0  0  0  0
   10.1245 -107.6344   23.6454 O   0  0  0  0  0  0  0  0  0  0  0  0
   11.5570 -106.2340   24.0995 N   0  0  0  0  0  0  0  0  0  0  0  0
   11.7387 -106.7346   21.4490 C   0  0  0  0  0  0  0  0  0  0  0  0
   12.6068 -105.2380   24.3116 C   0  0  0  0  0  0  0  0  0  0  0  0
   12.8414 -105.8552   21.0057 C   0  0  0  0  0  0  0  0  0  0  0  0
   13.5325 -104.6604   23.2982 C   0  0  0  0  0  0  0  0  0  0  0  0
   13.6392 -104.9332   21.8257 N   0  0  0  0  0  0  0  0  0  0  0  0
   14.6788 -104.1863   21.0797 C   0  0  0  0  0  0  0  0  0  0  0  0
   14.8424 -104.4117   19.5927 O   0  0  0  0  0  0  0  0  0  0  0  0
   15.5398 -103.2310   21.8065 O   0  0  0  0  0  0  0  0  0  0  0  0
   16.5294 -102.4301   21.0487 C   0  0  0  0  0  0  0  0  0  0  0  0
   15.4118 -101.5045   20.5659 C   0  0  0  0  0  0  0  0  0  0  0  0
   17.5189 -101.6292   20.2909 C   0  0  0  0  0  0  0  0  0  0  0  0
   17.5800 -103.3517   21.5402 C   0  0  0  0  0  0  0  0  0  0  0  0
 21 22  2  0
 21 23  2  0
 21 24  1  0
 21 25  1  0
 24 26  1  0
 24 20  1  0
 25 27  1  0
 26 28  1  0
 20  1  1  0
 27 29  1  0
  1  2  2  0
  1  3  1  0
 29 30  1  0
  2  4  1  0
  3  5  2  0
 30 31  2  0
 30 32  1  0
  4  7  1  0
  4  6  2  0
 32 33  1  0
  7  8  2  0
  7  9  1  0
 33 34  1  0
 33 35  1  0
 33 36  1  0
 11  9  1  0
 11 12  1  0
 11 13  1  0
 12 14  2  0
 12 15  1  0
 13 16  1  0
 15 17  1  0
 17 18  2  0
 28 29  1  0
  5  6  1  0
 16 17  1  0
  9 10  1  0
 15 19  1  0
M  END
> <Molecule Name>
Compound 7

> <EC50 (µM) (Excel)>
4.1

> <Error (µM)>
0.2

> <HTRC CRBN-DDB1 EC50 (µM)>
4.06 ±  0.18

> <EC50 fitting (µM)>
3.77

> <Modèle Fitting>
4PL
$$$$

> <minimizedAffinity>
-9.52391

> <CNNscore>
0.5105576515

> <CNNaffinity>
6.2931857109

> <CNN_VS>
3.2130341530

> <CNNaffinity_variance>
0.3127585351

$$$$
Compound 7


 36 38  0  0  0  0  0  0  0  0999 V2000
   11.0495 -106.5338   25.3492 C   0  0  0  0  0  0  0  0  0  0  0  0
   12.5129 -106.3307   25.0245 C   0  0  0  0  0  0  0  0  0  0  0  0
   10.0443 -106.6673   24.2834 C   0  0  0  0  0  0  0  0  0  0  0  0
   12.9530 -106.2635   23.6056 C   0  0  0  0  0  0  0  0  0  0  0  0
   10.4845 -106.6001   22.8645 C   0  0  0  0  0  0  0  0  0  0  0  0
   11.9477 -106.3970   22.5398 C   0  0  0  0  0  0  0  0  0  0  0  0
   14.4164 -106.0604   23.2808 C   0  0  0  0  0  0  0  0  0  0  0  0
   14.8121 -105.5422   21.9443 O   0  0  0  0  0  0  0  0  0  0  0  0
   15.5032 -106.3843   24.3191 N   0  0  0  0  0  0  0  0  0  0  0  0
   15.2438 -106.7275   25.2047 H   0  0  0  0  0  0  0  0  0  0  0  0
   16.9665 -106.1812   23.9944 C   0  0  0  0  0  0  0  0  0  0  0  0
   17.6059 -104.7863   24.0907 C   0  0  0  0  0  0  0  0  0  0  0  0
   17.7991 -107.3407   23.5773 C   0  0  0  0  0  0  0  0  0  0  0  0
   16.7901 -103.5618   24.5155 O   0  0  0  0  0  0  0  0  0  0  0  0
   19.0692 -104.5832   23.7661 N   0  0  0  0  0  0  0  0  0  0  0  0
   19.2625 -107.1377   23.2526 C   0  0  0  0  0  0  0  0  0  0  0  0
   19.9017 -105.7427   23.3489 C   0  0  0  0  0  0  0  0  0  0  0  0
   21.3651 -105.5397   23.0242 O   0  0  0  0  0  0  0  0  0  0  0  0
   19.4693 -103.6861   23.8307 H   0  0  0  0  0  0  0  0  0  0  0  0
   10.6094 -106.6010   26.7681 C   0  0  0  0  0  0  0  0  0  0  0  0
    9.8617 -104.3978   27.7735 S   0  0  0  0  0  0  0  0  0  0  0  0
    8.4866 -103.9604   27.2432 O   0  0  0  0  0  0  0  0  0  0  0  0
    9.0915 -105.2455   26.7572 O   0  0  0  0  0  0  0  0  0  0  0  0
   10.9040 -105.4483   27.7022 N   0  0  0  0  0  0  0  0  0  0  0  0
    9.8034 -103.1362   28.5693 C   0  0  0  0  0  0  0  0  0  0  0  0
   12.1729 -105.4927   28.4280 C   0  0  0  0  0  0  0  0  0  0  0  0
   10.8090 -102.6079   29.5155 C   0  0  0  0  0  0  0  0  0  0  0  0
   12.7021 -104.4956   29.3993 C   0  0  0  0  0  0  0  0  0  0  0  0
   12.0971 -103.2104   29.8854 N   0  0  0  0  0  0  0  0  0  0  0  0
   12.8840 -102.4292   30.8679 C   0  0  0  0  0  0  0  0  0  0  0  0
   12.3350 -101.1238   31.4005 O   0  0  0  0  0  0  0  0  0  0  0  0
   14.1964 -102.9428   31.3107 O   0  0  0  0  0  0  0  0  0  0  0  0
   14.7097 -102.5566   32.6457 C   0  0  0  0  0  0  0  0  0  0  0  0
   13.4675 -103.1632   33.2997 C   0  0  0  0  0  0  0  0  0  0  0  0
   15.2230 -102.1704   33.9807 C   0  0  0  0  0  0  0  0  0  0  0  0
   15.8962 -101.9815   31.9701 C   0  0  0  0  0  0  0  0  0  0  0  0
 21 22  2  0
 21 23  2  0
 21 24  1  0
 21 25  1  0
 24 26  1  0
 24 20  1  0
 25 27  1  0
 26 28  1  0
 20  1  1  0
 27 29  1  0
  1  2  2  0
  1  3  1  0
 29 30  1  0
  2  4  1  0
  3  5  2  0
 30 31  2  0
 30 32  1  0
  4  7  1  0
  4  6  2  0
 32 33  1  0
  7  8  2  0
  7  9  1  0
 33 34  1  0
 33 35  1  0
 33 36  1  0
 11  9  1  0
 11 12  1  0
 11 13  1  0
 12 14  2  0
 12 15  1  0
 13 16  1  0
 15 17  1  0
 17 18  2  0
 28 29  1  0
  5  6  1  0
 16 17  1  0
  9 10  1  0
 15 19  1  0
M  END
> <Molecule Name>
Compound 7

> <EC50 (µM) (Excel)>
4.1

> <Error (µM)>
0.2

> <HTRC CRBN-DDB1 EC50 (µM)>
4.06 ±  0.18

> <EC50 fitting (µM)>
3.77

> <Modèle Fitting>
4PL
$$$$

> <minimizedAffinity>
-9.36617

> <CNNscore>
0.4352608621

> <CNNaffinity>
6.1323275566

> <CNN_VS>
2.6691622734

> <CNNaffinity_variance>
0.4560850561

$$$$
Compound 7


 36 38  0  0  0  0  0  0  0  0999 V2000
   16.4575 -114.0596   28.1689 C   0  0  0  0  0  0  0  0  0  0  0  0
   17.4333 -112.9059   28.2384 C   0  0  0  0  0  0  0  0  0  0  0  0
   15.7321 -114.3698   26.9272 C   0  0  0  0  0  0  0  0  0  0  0  0
   17.6703 -112.0644   27.0354 C   0  0  0  0  0  0  0  0  0  0  0  0
   15.9691 -113.5283   25.7242 C   0  0  0  0  0  0  0  0  0  0  0  0
   16.9448 -112.3746   25.7937 C   0  0  0  0  0  0  0  0  0  0  0  0
   18.6461 -110.9107   27.1048 C   0  0  0  0  0  0  0  0  0  0  0  0
   19.9508 -111.0864   27.7964 O   0  0  0  0  0  0  0  0  0  0  0  0
   18.3043 -109.5540   26.4671 N   0  0  0  0  0  0  0  0  0  0  0  0
   17.4412 -109.4350   26.0086 H   0  0  0  0  0  0  0  0  0  0  0  0
   19.2800 -108.4002   26.5365 C   0  0  0  0  0  0  0  0  0  0  0  0
   19.0848 -107.1530   25.6589 C   0  0  0  0  0  0  0  0  0  0  0  0
   20.4418 -108.4692   27.4622 C   0  0  0  0  0  0  0  0  0  0  0  0
   17.9044 -107.0352   24.6904 O   0  0  0  0  0  0  0  0  0  0  0  0
   20.0605 -105.9993   25.7283 N   0  0  0  0  0  0  0  0  0  0  0  0
   21.4177 -107.3154   27.5317 C   0  0  0  0  0  0  0  0  0  0  0  0
   21.2223 -106.0683   26.6540 C   0  0  0  0  0  0  0  0  0  0  0  0
   22.1981 -104.9145   26.7235 O   0  0  0  0  0  0  0  0  0  0  0  0
   19.9268 -105.2050   25.1623 H   0  0  0  0  0  0  0  0  0  0  0  0
   16.2206 -114.9011   29.3719 C   0  0  0  0  0  0  0  0  0  0  0  0
   18.6536 -115.1298   30.0442 S   0  0  0  0  0  0  0  0  0  0  0  0
   19.5713 -115.3249   28.8262 O   0  0  0  0  0  0  0  0  0  0  0  0
   18.0923 -115.1708   28.6201 O   0  0  0  0  0  0  0  0  0  0  0  0
   17.2506 -114.9371   30.4791 N   0  0  0  0  0  0  0  0  0  0  0  0
   19.9158 -115.2158   30.8365 C   0  0  0  0  0  0  0  0  0  0  0  0
   16.7573 -114.7796   31.8469 C   0  0  0  0  0  0  0  0  0  0  0  0
   20.0794 -115.1261   32.3031 C   0  0  0  0  0  0  0  0  0  0  0  0
   17.5510 -114.7773   33.1069 C   0  0  0  0  0  0  0  0  0  0  0  0
   19.0301 -114.9314   33.3131 N   0  0  0  0  0  0  0  0  0  0  0  0
   19.5201 -114.8842   34.7104 C   0  0  0  0  0  0  0  0  0  0  0  0
   20.9992 -115.0327   34.9918 O   0  0  0  0  0  0  0  0  0  0  0  0
   18.5497 -114.6921   35.8075 O   0  0  0  0  0  0  0  0  0  0  0  0
   18.9739 -113.9672   37.0279 C   0  0  0  0  0  0  0  0  0  0  0  0
   19.7194 -112.9485   36.1646 C   0  0  0  0  0  0  0  0  0  0  0  0
   19.3982 -113.2423   38.2483 C   0  0  0  0  0  0  0  0  0  0  0  0
   18.2387 -114.9766   37.8250 C   0  0  0  0  0  0  0  0  0  0  0  0
 21 22  2  0
 21 23  2  0
 21 24  1  0
 21 25  1  0
 24 26  1  0
 24 20  1  0
 25 27  1  0
 26 28  1  0
 20  1  1  0
 27 29  1  0
  1  2  2  0
  1  3  1  0
 29 30  1  0
  2  4  1  0
  3  5  2  0
 30 31  2  0
 30 32  1  0
  4  7  1  0
  4  6  2  0
 32 33  1  0
  7  8  2  0
  7  9  1  0
 33 34  1  0
 33 35  1  0
 33 36  1  0
 11  9  1  0
 11 12  1  0
 11 13  1  0
 12 14  2  0
 12 15  1  0
 13 16  1  0
 15 17  1  0
 17 18  2  0
 28 29  1  0
  5  6  1  0
 16 17  1  0
  9 10  1  0
 15 19  1  0
M  END
> <Molecule Name>
Compound 7

> <EC50 (µM) (Excel)>
4.1

> <Error (µM)>
0.2

> <HTRC CRBN-DDB1 EC50 (µM)>
4.06 ±  0.18

> <EC50 fitting (µM)>
3.77

> <Modèle Fitting>
4PL
$$$$

> <minimizedAffinity>
-6.09590

> <CNNscore>
0.4198049903

> <CNNaffinity>
4.4575142860

> <CNN_VS>
1.8712867498

> <CNNaffinity_variance>
0.2197515517

$$$$
Compound 7


 36 38  0  0  0  0  0  0  0  0999 V2000
   11.0357 -106.2926   25.6575 C   0  0  0  0  0  0  0  0  0  0  0  0
   12.3359 -105.6983   25.1633 C   0  0  0  0  0  0  0  0  0  0  0  0
   10.0034 -106.7550   24.7169 C   0  0  0  0  0  0  0  0  0  0  0  0
   12.5843 -105.5751   23.7022 C   0  0  0  0  0  0  0  0  0  0  0  0
   10.2519 -106.6318   23.2559 C   0  0  0  0  0  0  0  0  0  0  0  0
   11.5521 -106.0375   22.7616 C   0  0  0  0  0  0  0  0  0  0  0  0
   13.8846 -104.9808   23.2079 C   0  0  0  0  0  0  0  0  0  0  0  0
   13.8869 -104.1018   22.0083 O   0  0  0  0  0  0  0  0  0  0  0  0
   15.2081 -105.2754   23.9329 N   0  0  0  0  0  0  0  0  0  0  0  0
   15.2093 -105.8570   24.7272 H   0  0  0  0  0  0  0  0  0  0  0  0
   16.5084 -104.6811   23.4386 C   0  0  0  0  0  0  0  0  0  0  0  0
   16.5378 -103.7876   22.1877 C   0  0  0  0  0  0  0  0  0  0  0  0
   17.7738 -104.9617   24.1675 C   0  0  0  0  0  0  0  0  0  0  0  0
   15.2615 -103.4697   21.4035 O   0  0  0  0  0  0  0  0  0  0  0  0
   17.8380 -103.1934   21.6935 N   0  0  0  0  0  0  0  0  0  0  0  0
   19.0741 -104.3675   23.6733 C   0  0  0  0  0  0  0  0  0  0  0  0
   19.1035 -103.4740   22.4225 C   0  0  0  0  0  0  0  0  0  0  0  0
   20.4038 -102.8798   21.9282 O   0  0  0  0  0  0  0  0  0  0  0  0
   17.8465 -102.6224   20.8915 H   0  0  0  0  0  0  0  0  0  0  0  0
   10.7873 -106.4158   27.1186 C   0  0  0  0  0  0  0  0  0  0  0  0
   10.1665 -104.1495   28.0688 S   0  0  0  0  0  0  0  0  0  0  0  0
    8.8365 -103.6309   27.4980 O   0  0  0  0  0  0  0  0  0  0  0  0
    9.3647 -104.9623   27.0483 O   0  0  0  0  0  0  0  0  0  0  0  0
   11.1371 -105.2685   28.0402 N   0  0  0  0  0  0  0  0  0  0  0  0
   10.1749 -102.8726   28.8418 C   0  0  0  0  0  0  0  0  0  0  0  0
   12.3831 -105.3844   28.7972 C   0  0  0  0  0  0  0  0  0  0  0  0
   11.1917 -102.3955   29.8031 C   0  0  0  0  0  0  0  0  0  0  0  0
   12.9556 -104.4074   29.7643 C   0  0  0  0  0  0  0  0  0  0  0  0
   12.4275 -103.0759   30.2141 N   0  0  0  0  0  0  0  0  0  0  0  0
   13.2422 -102.3312   31.2022 C   0  0  0  0  0  0  0  0  0  0  0  0
   12.7702 -100.9826   31.6995 O   0  0  0  0  0  0  0  0  0  0  0  0
   14.5065 -102.9233   31.6852 O   0  0  0  0  0  0  0  0  0  0  0  0
   14.9948 -102.5765   33.0403 C   0  0  0  0  0  0  0  0  0  0  0  0
   16.3471 -102.1734   32.4507 C   0  0  0  0  0  0  0  0  0  0  0  0
   15.4831 -102.2297   34.3953 C   0  0  0  0  0  0  0  0  0  0  0  0
   13.6700 -102.9779   33.5681 C   0  0  0  0  0  0  0  0  0  0  0  0
 21 22  2  0
 21 23  2  0
 21 24  1  0
 21 25  1  0
 24 26  1  0
 24 20  1  0
 25 27  1  0
 26 28  1  0
 20  1  1  0
 27 29  1  0
  1  2  2  0
  1  3  1  0
 29 30  1  0
  2  4  1  0
  3  5  2  0
 30 31  2  0
 30 32  1  0
  4  7  1  0
  4  6  2  0
 32 33  1  0
  7  8  2  0
  7  9  1  0
 33 34  1  0
 33 35  1  0
 33 36  1  0
 11  9  1  0
 11 12  1  0
 11 13  1  0
 12 14  2  0
 12 15  1  0
 13 16  1  0
 15 17  1  0
 17 18  2  0
 28 29  1  0
  5  6  1  0
 16 17  1  0
  9 10  1  0
 15 19  1  0
M  END
> <Molecule Name>
Compound 7

> <EC50 (µM) (Excel)>
4.1

> <Error (µM)>
0.2

> <HTRC CRBN-DDB1 EC50 (µM)>
4.06 ±  0.18

> <EC50 fitting (µM)>
3.77

> <Modèle Fitting>
4PL
$$$$

> <minimizedAffinity>
-10.09851

> <CNNscore>
0.3921675682

> <CNNaffinity>
6.2558116913

> <CNN_VS>
2.4533264637

> <CNNaffinity_variance>
0.6066669822

$$$$
Compound 7


 36 38  0  0  0  0  0  0  0  0999 V2000
   11.0074 -106.2694   25.7328 C   0  0  0  0  0  0  0  0  0  0  0  0
   12.2486 -105.6250   25.1567 C   0  0  0  0  0  0  0  0  0  0  0  0
    9.9260 -106.7538   24.8610 C   0  0  0  0  0  0  0  0  0  0  0  0
   12.3875 -105.4739   23.6838 C   0  0  0  0  0  0  0  0  0  0  0  0
   10.0649 -106.6027   23.3881 C   0  0  0  0  0  0  0  0  0  0  0  0
   11.3061 -105.9583   22.8119 C   0  0  0  0  0  0  0  0  0  0  0  0
   13.6287 -104.8294   23.1075 C   0  0  0  0  0  0  0  0  0  0  0  0
   14.9727 -105.2809   23.5565 O   0  0  0  0  0  0  0  0  0  0  0  0
   13.5175 -103.7097   22.0597 N   0  0  0  0  0  0  0  0  0  0  0  0
   12.6290 -103.4090   21.7607 H   0  0  0  0  0  0  0  0  0  0  0  0
   14.7587 -103.0652   21.4833 C   0  0  0  0  0  0  0  0  0  0  0  0
   14.6732 -102.1780   20.2305 C   0  0  0  0  0  0  0  0  0  0  0  0
   16.0777 -103.2896   22.1325 C   0  0  0  0  0  0  0  0  0  0  0  0
   13.3383 -101.9172   19.5268 O   0  0  0  0  0  0  0  0  0  0  0  0
   15.9143 -101.5336   19.6543 N   0  0  0  0  0  0  0  0  0  0  0  0
   17.3190 -102.6452   21.5562 C   0  0  0  0  0  0  0  0  0  0  0  0
   17.2333 -101.7580   20.3035 C   0  0  0  0  0  0  0  0  0  0  0  0
   18.4746 -101.1135   19.7272 O   0  0  0  0  0  0  0  0  0  0  0  0
   15.8492 -100.9671   18.8517 H   0  0  0  0  0  0  0  0  0  0  0  0
   10.8686 -106.4205   27.2057 C   0  0  0  0  0  0  0  0  0  0  0  0
   10.2314 -104.1574   28.1526 S   0  0  0  0  0  0  0  0  0  0  0  0
    8.8869 -103.6593   27.5977 O   0  0  0  0  0  0  0  0  0  0  0  0
    9.4262 -104.9861   27.1476 O   0  0  0  0  0  0  0  0  0  0  0  0
   11.2161 -105.2638   28.1164 N   0  0  0  0  0  0  0  0  0  0  0  0
   10.2337 -102.8763   28.9187 C   0  0  0  0  0  0  0  0  0  0  0  0
   12.4738 -105.3593   28.8566 C   0  0  0  0  0  0  0  0  0  0  0  0
   11.2574 -102.3808   29.8633 C   0  0  0  0  0  0  0  0  0  0  0  0
   13.0468 -104.3697   29.8105 C   0  0  0  0  0  0  0  0  0  0  0  0
   12.5075 -103.0428   30.2606 N   0  0  0  0  0  0  0  0  0  0  0  0
   13.3261 -102.2822   31.2333 C   0  0  0  0  0  0  0  0  0  0  0  0
   12.8433 -100.9372   31.7301 O   0  0  0  0  0  0  0  0  0  0  0  0
   14.6046 -102.8551   31.7018 O   0  0  0  0  0  0  0  0  0  0  0  0
   15.0835 -102.5322   33.0661 C   0  0  0  0  0  0  0  0  0  0  0  0
   13.7132 -102.9018   33.6355 C   0  0  0  0  0  0  0  0  0  0  0  0
   15.5625 -102.2094   34.4303 C   0  0  0  0  0  0  0  0  0  0  0  0
   16.3952 -102.1846   32.4714 C   0  0  0  0  0  0  0  0  0  0  0  0
 21 22  2  0
 21 23  2  0
 21 24  1  0
 21 25  1  0
 24 26  1  0
 24 20  1  0
 25 27  1  0
 26 28  1  0
 20  1  1  0
 27 29  1  0
  1  2  2  0
  1  3  1  0
 29 30  1  0
  2  4  1  0
  3  5  2  0
 30 31  2  0
 30 32  1  0
  4  7  1  0
  4  6  2  0
 32 33  1  0
  7  8  2  0
  7  9  1  0
 33 34  1  0
 33 35  1  0
 33 36  1  0
 11  9  1  0
 11 12  1  0
 11 13  1  0
 12 14  2  0
 12 15  1  0
 13 16  1  0
 15 17  1  0
 17 18  2  0
 28 29  1  0
  5  6  1  0
 16 17  1  0
  9 10  1  0
 15 19  1  0
M  END
> <Molecule Name>
Compound 7

> <EC50 (µM) (Excel)>
4.1

> <Error (µM)>
0.2

> <HTRC CRBN-DDB1 EC50 (µM)>
4.06 ±  0.18

> <EC50 fitting (µM)>
3.77

> <Modèle Fitting>
4PL
$$$$

> <minimizedAffinity>
-10.72703

> <CNNscore>
0.3858166337

> <CNNaffinity>
6.6521358490

> <CNN_VS>
2.5665047169

> <CNNaffinity_variance>
0.2105576247

$$$$
Compound 7


 36 38  0  0  0  0  0  0  0  0999 V2000
   10.9944 -106.2746   25.7108 C   0  0  0  0  0  0  0  0  0  0  0  0
   12.2382 -105.6318   25.1381 C   0  0  0  0  0  0  0  0  0  0  0  0
    9.9153 -106.7585   24.8358 C   0  0  0  0  0  0  0  0  0  0  0  0
   12.3819 -105.4819   23.6655 C   0  0  0  0  0  0  0  0  0  0  0  0
   10.0591 -106.6086   23.3632 C   0  0  0  0  0  0  0  0  0  0  0  0
   11.3027 -105.9659   22.7905 C   0  0  0  0  0  0  0  0  0  0  0  0
   13.6256 -104.8391   23.0927 C   0  0  0  0  0  0  0  0  0  0  0  0
   13.4994 -103.7117   22.1312 O   0  0  0  0  0  0  0  0  0  0  0  0
   15.0233 -105.3389   23.4937 N   0  0  0  0  0  0  0  0  0  0  0  0
   15.1096 -106.0851   24.1300 H   0  0  0  0  0  0  0  0  0  0  0  0
   16.2671 -104.6962   22.9210 C   0  0  0  0  0  0  0  0  0  0  0  0
   17.5651 -105.5043   22.7595 C   0  0  0  0  0  0  0  0  0  0  0  0
   16.2381 -103.2677   22.5085 C   0  0  0  0  0  0  0  0  0  0  0  0
   17.6445 -106.9776   23.1696 O   0  0  0  0  0  0  0  0  0  0  0  0
   18.8088 -104.8616   22.1868 N   0  0  0  0  0  0  0  0  0  0  0  0
   17.4819 -102.6249   21.9357 C   0  0  0  0  0  0  0  0  0  0  0  0
   18.7798 -103.4331   21.7743 C   0  0  0  0  0  0  0  0  0  0  0  0
   20.0236 -102.7903   21.2015 O   0  0  0  0  0  0  0  0  0  0  0  0
   19.6351 -105.3874   22.0873 H   0  0  0  0  0  0  0  0  0  0  0  0
   10.8508 -106.4244   27.1833 C   0  0  0  0  0  0  0  0  0  0  0  0
   10.2266 -104.1603   28.1362 S   0  0  0  0  0  0  0  0  0  0  0  0
    8.8825 -103.6553   27.5865 O   0  0  0  0  0  0  0  0  0  0  0  0
    9.4145 -104.9836   27.1324 O   0  0  0  0  0  0  0  0  0  0  0  0
   11.2063 -105.2708   28.0949 N   0  0  0  0  0  0  0  0  0  0  0  0
   10.2370 -102.8805   28.9045 C   0  0  0  0  0  0  0  0  0  0  0  0
   12.4661 -105.3731   28.8308 C   0  0  0  0  0  0  0  0  0  0  0  0
   11.2659 -102.3911   29.8466 C   0  0  0  0  0  0  0  0  0  0  0  0
   13.0465 -104.3876   29.7845 C   0  0  0  0  0  0  0  0  0  0  0  0
   12.5144 -103.0592   30.2386 N   0  0  0  0  0  0  0  0  0  0  0  0
   13.3394 -102.3039   31.2100 C   0  0  0  0  0  0  0  0  0  0  0  0
   12.8641 -100.9576   31.7107 O   0  0  0  0  0  0  0  0  0  0  0  0
   14.6170 -102.8832   31.6733 O   0  0  0  0  0  0  0  0  0  0  0  0
   15.0947 -102.5762   33.0417 C   0  0  0  0  0  0  0  0  0  0  0  0
   16.4736 -102.2238   32.4820 C   0  0  0  0  0  0  0  0  0  0  0  0
   15.5725 -102.2693   34.4100 C   0  0  0  0  0  0  0  0  0  0  0  0
   13.7445 -102.9272   33.5401 C   0  0  0  0  0  0  0  0  0  0  0  0
 21 22  2  0
 21 23  2  0
 21 24  1  0
 21 25  1  0
 24 26  1  0
 24 20  1  0
 25 27  1  0
 26 28  1  0
 20  1  1  0
 27 29  1  0
  1  2  2  0
  1  3  1  0
 29 30  1  0
  2  4  1  0
  3  5  2  0
 30 31  2  0
 30 32  1  0
  4  7  1  0
  4  6  2  0
 32 33  1  0
  7  8  2  0
  7  9  1  0
 33 34  1  0
 33 35  1  0
 33 36  1  0
 11  9  1  0
 11 12  1  0
 11 13  1  0
 12 14  2  0
 12 15  1  0
 13 16  1  0
 15 17  1  0
 17 18  2  0
 28 29  1  0
  5  6  1  0
 16 17  1  0
  9 10  1  0
 15 19  1  0
M  END
> <Molecule Name>
Compound 7

> <EC50 (µM) (Excel)>
4.1

> <Error (µM)>
0.2

> <HTRC CRBN-DDB1 EC50 (µM)>
4.06 ±  0.18

> <EC50 fitting (µM)>
3.77

> <Modèle Fitting>
4PL
$$$$

> <minimizedAffinity>
-10.34922

> <CNNscore>
0.3501683176

> <CNNaffinity>
6.2098388672

> <CNN_VS>
2.1744887829

> <CNNaffinity_variance>
0.6657339931

$$$$
