Compound 7
Actelion Java MolfileCreator 2.0

  0  0  0  0  0  0              0 V3000
M  V30 BEGIN CTAB
M  V30 COUNTS 34 36 0 0 0
M  V30 BEGIN ATOM
M  V30 1 S 0.0 0.0 0.0 0
M  V30 2 O -0.872 1.2662 0.0 0
M  V30 3 O -1.529 -0.0836 0.0 0
M  V30 4 N -0.0238 -1.4813 0.0 0
M  V30 5 C 1.1468 0.9556 0.0 0
M  V30 6 C 1.1229 -2.3891 0.0 0
M  V30 7 C -1.3976 -2.1144 0.0 0
M  V30 8 C 2.5922 0.645 0.0 0
M  V30 9 C 2.5683 -2.0308 0.0 0
M  V30 10 C -1.529 -3.5957 0.0 0
M  V30 11 N 3.2254 -0.6809 0.0 0
M  V30 12 C -2.9028 -4.2288 0.0 0
M  V30 13 C -0.3105 -4.42 0.0 0
M  V30 14 C 4.7067 -0.657 0.0 0
M  V30 15 C -3.0342 -5.7101 0.0 0
M  V30 16 C -0.442 -5.9013 0.0 0
M  V30 17 O 5.4354 0.6689 0.0 0
M  V30 18 O 5.4473 -1.9352 0.0 0
M  V30 19 C -4.408 -6.3433 0.0 0
M  V30 20 C -1.8157 -6.5344 0.0 0
M  V30 21 C 6.9286 -1.9113 0.0 0
M  V30 22 O -4.5394 -7.8246 0.0 0
M  V30 23 N -5.6743 -5.4712 0.0 0
M  V30 24 C 6.9047 -0.3822 0.0 0
M  V30 25 C 8.4099 -1.8874 0.0 0
M  V30 26 C 6.9047 -3.3926 0.0 0
M  V30 27 C -7.0481 -6.1043 0.0 0 CFG=2
M  V30 28 C -8.3144 -5.2323 0.0 0
M  V30 29 C -7.1795 -7.5856 0.0 0
M  V30 30 O -8.2307 -3.7032 0.0 0
M  V30 31 N -9.6881 -5.8654 0.0 0
M  V30 32 C -8.5533 -8.2188 0.0 0
M  V30 33 C -9.8195 -7.3467 0.0 0
M  V30 34 O -11.1933 -7.9799 0.0 0
M  V30 END ATOM
M  V30 BEGIN BOND
M  V30 1 2 1 2
M  V30 2 2 1 3
M  V30 3 1 1 4
M  V30 4 1 1 5
M  V30 5 1 4 6
M  V30 6 1 4 7
M  V30 7 1 5 8
M  V30 8 1 6 9
M  V30 9 1 7 10
M  V30 10 1 8 11
M  V30 11 2 10 12
M  V30 12 1 10 13
M  V30 13 1 11 14
M  V30 14 1 12 15
M  V30 15 2 13 16
M  V30 16 2 14 17
M  V30 17 1 14 18
M  V30 18 1 15 19
M  V30 19 2 15 20
M  V30 20 1 18 21
M  V30 21 2 19 22
M  V30 22 1 19 23
M  V30 23 1 21 24
M  V30 24 1 21 25
M  V30 25 1 21 26
M  V30 26 1 27 23 CFG=1
M  V30 27 1 27 28
M  V30 28 1 27 29
M  V30 29 2 28 30
M  V30 30 1 28 31
M  V30 31 1 29 32
M  V30 32 1 31 33
M  V30 33 2 33 34
M  V30 34 1 9 11
M  V30 35 1 16 20
M  V30 36 1 32 33
M  V30 END BOND
M  V30 BEGIN COLLECTION
M  V30 MDLV30/STERAC1 ATOMS=(1 27)
M  V30 END COLLECTION
M  V30 END CTAB
M  END
>  <Molecule Name>
Compound 7

>  <EC50 (µM) (Excel)>
4.1

>  <Error (µM)>
0.2

>  <HTRC CRBN-DDB1 EC50 (µM)>
4.06 ±  0.18

>  <EC50 fitting (µM)>
3.77

>  <Modèle Fitting>
4PL
$$$$
