Compound 4
Actelion Java MolfileCreator 2.0

  0  0  0  0  0  0              0 V3000
M  V30 BEGIN CTAB
M  V30 COUNTS 28 31 0 0 0
M  V30 BEGIN ATOM
M  V30 1 O 0.0 0.0 0.0 0
M  V30 2 C -0.0299 1.5432 0.0 0
M  V30 3 N 1.2585 2.3223 0.0 0
M  V30 4 N -1.3784 2.3223 0.0 0
M  V30 5 C 2.547 1.6031 0.0 0
M  V30 6 C 1.2285 3.8655 0.0 0
M  V30 7 C -1.4083 3.8655 0.0 0
M  V30 8 C 3.7606 2.3373 0.0 0
M  V30 9 C 2.5171 0.1947 0.0 0
M  V30 10 C -0.1198 4.6446 0.0 0
M  V30 11 O -2.7568 4.6446 0.0 0
M  V30 12 C 4.9743 1.663 0.0 0
M  V30 13 C 3.7307 -0.4794 0.0 0
M  V30 14 C 4.9443 0.2547 0.0 0
M  V30 15 C 6.3077 2.1275 0.0 0 CFG=1
M  V30 16 C 6.2778 -0.1498 0.0 0 CFG=2
M  V30 17 N 7.1168 0.9888 0.0 0
M  V30 18 C 8.1956 1.738 0.0 0 CFG=2
M  V30 19 C 8.1656 0.2996 0.0 0 CFG=1
M  V30 20 C 8.7649 1.0188 0.0 0
M  V30 21 O 9.3492 2.8916 0.0 0
M  V30 22 O 9.2893 -0.6892 0.0 0
M  V30 23 O 9.4691 -0.0749 0.0 0
M  V30 24 O 9.4541 2.2324 0.0 0
M  V30 25 C 10.8176 2.3822 0.0 0
M  V30 26 C 10.7876 0.8989 0.0 0
M  V30 27 C 12.3009 2.4122 0.0 0
M  V30 28 C 10.7876 3.9255 0.0 0
M  V30 END ATOM
M  V30 BEGIN BOND
M  V30 1 2 1 2
M  V30 2 1 2 3
M  V30 3 1 2 4
M  V30 4 1 3 5
M  V30 5 1 3 6
M  V30 6 1 4 7
M  V30 7 2 5 8
M  V30 8 1 5 9
M  V30 9 1 6 10
M  V30 10 2 7 11
M  V30 11 1 8 12
M  V30 12 2 9 13
M  V30 13 2 12 14
M  V30 14 1 12 15
M  V30 15 1 14 16
M  V30 16 1 15 17 CFG=1
M  V30 17 1 15 18
M  V30 18 1 16 19
M  V30 19 1 17 20
M  V30 20 1 18 21 CFG=1
M  V30 21 1 19 22 CFG=1
M  V30 22 2 20 23
M  V30 23 1 20 24
M  V30 24 1 24 25
M  V30 25 1 25 26
M  V30 26 1 25 27
M  V30 27 1 25 28
M  V30 28 1 7 10
M  V30 29 1 13 14
M  V30 30 1 16 17 CFG=1
M  V30 31 1 18 19
M  V30 END BOND
M  V30 BEGIN COLLECTION
M  V30 MDLV30/STERAC1 ATOMS=(4 15 16 18 19)
M  V30 END COLLECTION
M  V30 END CTAB
M  END
>  <Molecule Name>
Compound 4

>  <EC50 (µM) (Excel)>
11.8

>  <Error (µM)>
7.4

>  <HTRC CRBN-DDB1 EC50 (µM)>
11.78 ±  7.41

>  <EC50 fitting (µM)>
15.10

>  <Modèle Fitting>
4PL
$$$$
