Compound 9


 35 37  0  0  0  0  0  0  0  0999 V2000
   10.8153 -105.4699   27.0414 C   0  0  0  0  0  0  0  0  0  0  0  0
   11.9330 -105.2315   28.0324 C   0  0  0  0  0  0  0  0  0  0  0  0
    9.5550 -104.7150   27.1188 C   0  0  0  0  0  0  0  0  0  0  0  0
   11.7643 -104.2182   29.1076 C   0  0  0  0  0  0  0  0  0  0  0  0
    9.3862 -103.7016   28.1941 C   0  0  0  0  0  0  0  0  0  0  0  0
   10.5040 -103.4633   29.1851 C   0  0  0  0  0  0  0  0  0  0  0  0
   12.8821 -103.9798   30.0987 C   0  0  0  0  0  0  0  0  0  0  0  0
   14.1223 -104.7974   30.0251 O   0  0  0  0  0  0  0  0  0  0  0  0
   12.7513 -102.8992   31.1846 N   0  0  0  0  0  0  0  0  0  0  0  0
   11.9314 -102.3566   31.2355 H   0  0  0  0  0  0  0  0  0  0  0  0
   13.8691 -102.6609   32.1756 C   0  0  0  0  0  0  0  0  0  0  0  0
   15.2458 -102.1661   31.7021 C   0  0  0  0  0  0  0  0  0  0  0  0
   13.6380 -102.9065   33.6240 C   0  0  0  0  0  0  0  0  0  0  0  0
   15.5323 -101.8990   30.2215 O   0  0  0  0  0  0  0  0  0  0  0  0
   16.3636 -101.9278   32.6930 N   0  0  0  0  0  0  0  0  0  0  0  0
   14.7559 -102.6682   34.6150 C   0  0  0  0  0  0  0  0  0  0  0  0
   16.1325 -102.1735   34.1414 C   0  0  0  0  0  0  0  0  0  0  0  0
   17.2503 -101.9352   35.1324 O   0  0  0  0  0  0  0  0  0  0  0  0
   17.2416 -101.6110   32.3799 H   0  0  0  0  0  0  0  0  0  0  0  0
   10.9841 -106.4832   25.9661 C   0  0  0  0  0  0  0  0  0  0  0  0
   11.0327 -106.4438   23.4322 S   0  0  0  0  0  0  0  0  0  0  0  0
    9.7578 -107.0496   22.8226 O   0  0  0  0  0  0  0  0  0  0  0  0
    9.9062 -106.9882   24.3154 O   0  0  0  0  0  0  0  0  0  0  0  0
   11.7275 -106.1195   24.6998 N   0  0  0  0  0  0  0  0  0  0  0  0
   11.4476 -106.2362   22.0133 C   0  0  0  0  0  0  0  0  0  0  0  0
   13.0394 -105.4930   24.8599 C   0  0  0  0  0  0  0  0  0  0  0  0
   12.7000 -105.6339   21.5086 C   0  0  0  0  0  0  0  0  0  0  0  0
   13.9698 -105.0412   23.7883 C   0  0  0  0  0  0  0  0  0  0  0  0
   13.8214 -105.1026   22.2956 N   0  0  0  0  0  0  0  0  0  0  0  0
   14.9400 -104.5623   21.4884 C   0  0  0  0  0  0  0  0  0  0  0  0
   16.1205 -104.0021   22.1779 O   0  0  0  0  0  0  0  0  0  0  0  0
   14.8579 -104.5920   19.9780 C   0  0  0  0  0  0  0  0  0  0  0  0
   14.6214 -103.3349   19.2305 N   0  0  0  0  0  0  0  0  0  0  0  0
   13.6567 -103.3331   18.1117 C   0  0  0  0  0  0  0  0  0  0  0  0
   15.3674 -102.0779   19.6217 C   0  0  0  0  0  0  0  0  0  0  0  0
 21 22  2  0
 21 23  2  0
 21 24  1  0
 21 25  1  0
 24 26  1  0
 24 20  1  0
 25 27  1  0
 26 28  1  0
 20  1  1  0
 27 29  1  0
  1  2  2  0
  1  3  1  0
 29 30  1  0
  2  4  1  0
  3  5  2  0
 30 31  2  0
 30 32  1  0
  4  7  1  0
  4  6  2  0
 32 33  1  0
  7  8  2  0
  7  9  1  0
 33 34  1  0
 33 35  1  0
 11  9  1  0
 11 12  1  0
 11 13  1  0
 12 14  2  0
 12 15  1  0
 13 16  1  0
 15 17  1  0
 17 18  2  0
 28 29  1  0
  5  6  1  0
 16 17  1  0
  9 10  1  0
 15 19  1  0
M  END
> <Molecule Name>
Compound 9

> <EC50 (µM) (Excel)>
54.0

> <Error (µM)>
9.3

> <HTRC CRBN-DDB1 EC50 (µM)>
53.95 ±  9.32

> <EC50 fitting (µM)>
108.30

> <Modèle Fitting>
4PL
$$$$

> <minimizedAffinity>
-10.37557

> <CNNscore>
0.8863056302

> <CNNaffinity>
7.4443726540

> <CNN_VS>
6.5979895592

> <CNNaffinity_variance>
0.0827471837

$$$$
Compound 9


 35 37  0  0  0  0  0  0  0  0999 V2000
   11.2611 -105.4064   26.2820 C   0  0  0  0  0  0  0  0  0  0  0  0
   12.2801 -105.1111   27.3604 C   0  0  0  0  0  0  0  0  0  0  0  0
    9.8336 -105.1129   26.4822 C   0  0  0  0  0  0  0  0  0  0  0  0
   11.8405 -104.5136   28.6493 C   0  0  0  0  0  0  0  0  0  0  0  0
    9.3940 -104.5153   27.7711 C   0  0  0  0  0  0  0  0  0  0  0  0
   10.4129 -104.2201   28.8495 C   0  0  0  0  0  0  0  0  0  0  0  0
   12.8595 -104.2184   29.7277 C   0  0  0  0  0  0  0  0  0  0  0  0
   14.1171 -105.0095   29.7931 O   0  0  0  0  0  0  0  0  0  0  0  0
   12.6100 -103.1068   30.7603 N   0  0  0  0  0  0  0  0  0  0  0  0
   11.7783 -102.5816   30.7192 H   0  0  0  0  0  0  0  0  0  0  0  0
   13.6290 -102.8116   31.8387 C   0  0  0  0  0  0  0  0  0  0  0  0
   14.9959 -102.2044   31.4821 C   0  0  0  0  0  0  0  0  0  0  0  0
   13.3091 -103.1104   33.2599 C   0  0  0  0  0  0  0  0  0  0  0  0
   15.3717 -101.8793   30.0334 O   0  0  0  0  0  0  0  0  0  0  0  0
   16.0149 -101.9092   32.5603 N   0  0  0  0  0  0  0  0  0  0  0  0
   14.3282 -102.8152   34.3383 C   0  0  0  0  0  0  0  0  0  0  0  0
   15.6950 -102.2080   33.9817 C   0  0  0  0  0  0  0  0  0  0  0  0
   16.7140 -101.9128   35.0600 O   0  0  0  0  0  0  0  0  0  0  0  0
   16.8874 -101.5204   32.3219 H   0  0  0  0  0  0  0  0  0  0  0  0
   11.7007 -106.0039   24.9931 C   0  0  0  0  0  0  0  0  0  0  0  0
   12.8923 -105.0464   22.9712 S   0  0  0  0  0  0  0  0  0  0  0  0
   11.9229 -104.7655   21.8114 O   0  0  0  0  0  0  0  0  0  0  0  0
   11.3938 -105.3365   23.0951 O   0  0  0  0  0  0  0  0  0  0  0  0
   12.9984 -105.5537   24.3591 N   0  0  0  0  0  0  0  0  0  0  0  0
   13.9381 -104.5255   22.0420 C   0  0  0  0  0  0  0  0  0  0  0  0
   14.2070 -105.6658   25.1751 C   0  0  0  0  0  0  0  0  0  0  0  0
   15.3888 -104.3836   22.2897 C   0  0  0  0  0  0  0  0  0  0  0  0
   15.5992 -105.2967   24.7963 C   0  0  0  0  0  0  0  0  0  0  0  0
   16.1283 -104.7257   23.5126 N   0  0  0  0  0  0  0  0  0  0  0  0
   17.5850 -104.4640   23.4460 C   0  0  0  0  0  0  0  0  0  0  0  0
   18.4262 -104.7715   24.6210 O   0  0  0  0  0  0  0  0  0  0  0  0
   18.1868 -103.8889   22.1826 C   0  0  0  0  0  0  0  0  0  0  0  0
   19.5042 -104.3742   21.7096 N   0  0  0  0  0  0  0  0  0  0  0  0
   19.8807 -105.7826   21.9482 C   0  0  0  0  0  0  0  0  0  0  0  0
   20.4399 -103.4254   20.9928 C   0  0  0  0  0  0  0  0  0  0  0  0
 21 22  2  0
 21 23  2  0
 21 24  1  0
 21 25  1  0
 24 26  1  0
 24 20  1  0
 25 27  1  0
 26 28  1  0
 20  1  1  0
 27 29  1  0
  1  2  2  0
  1  3  1  0
 29 30  1  0
  2  4  1  0
  3  5  2  0
 30 31  2  0
 30 32  1  0
  4  7  1  0
  4  6  2  0
 32 33  1  0
  7  8  2  0
  7  9  1  0
 33 34  1  0
 33 35  1  0
 11  9  1  0
 11 12  1  0
 11 13  1  0
 12 14  2  0
 12 15  1  0
 13 16  1  0
 15 17  1  0
 17 18  2  0
 28 29  1  0
  5  6  1  0
 16 17  1  0
  9 10  1  0
 15 19  1  0
M  END
> <Molecule Name>
Compound 9

> <EC50 (µM) (Excel)>
54.0

> <Error (µM)>
9.3

> <HTRC CRBN-DDB1 EC50 (µM)>
53.95 ±  9.32

> <EC50 fitting (µM)>
108.30

> <Modèle Fitting>
4PL
$$$$

> <minimizedAffinity>
-8.25792

> <CNNscore>
0.7458608747

> <CNNaffinity>
6.9276080132

> <CNN_VS>
5.1670317650

> <CNNaffinity_variance>
0.0259765033

$$$$
Compound 9


 35 37  0  0  0  0  0  0  0  0999 V2000
   10.5541 -105.4593   27.2567 C   0  0  0  0  0  0  0  0  0  0  0  0
   11.6919 -105.2660   28.2345 C   0  0  0  0  0  0  0  0  0  0  0  0
    9.4180 -104.5255   27.2159 C   0  0  0  0  0  0  0  0  0  0  0  0
   11.6708 -104.1145   29.1753 C   0  0  0  0  0  0  0  0  0  0  0  0
    9.3968 -103.3740   28.1568 C   0  0  0  0  0  0  0  0  0  0  0  0
   10.5347 -103.1808   29.1346 C   0  0  0  0  0  0  0  0  0  0  0  0
   12.8087 -103.9212   30.1532 C   0  0  0  0  0  0  0  0  0  0  0  0
   13.9982 -104.8117   30.0888 O   0  0  0  0  0  0  0  0  0  0  0  0
   12.7504 -102.8119   31.2162 N   0  0  0  0  0  0  0  0  0  0  0  0
   11.9642 -102.2211   31.2610 H   0  0  0  0  0  0  0  0  0  0  0  0
   13.8883 -102.6187   32.1940 C   0  0  0  0  0  0  0  0  0  0  0  0
   15.2739 -102.1642   31.7062 C   0  0  0  0  0  0  0  0  0  0  0  0
   13.6686 -102.8699   33.6432 C   0  0  0  0  0  0  0  0  0  0  0  0
   15.5493 -101.8930   30.2243 O   0  0  0  0  0  0  0  0  0  0  0  0
   16.4119 -101.9709   32.6839 N   0  0  0  0  0  0  0  0  0  0  0  0
   14.8067 -102.6766   34.6210 C   0  0  0  0  0  0  0  0  0  0  0  0
   16.1922 -102.2222   34.1332 C   0  0  0  0  0  0  0  0  0  0  0  0
   17.3301 -102.0289   35.1110 O   0  0  0  0  0  0  0  0  0  0  0  0
   17.2954 -101.6797   32.3618 H   0  0  0  0  0  0  0  0  0  0  0  0
   10.5752 -106.6108   26.3158 C   0  0  0  0  0  0  0  0  0  0  0  0
   12.5806 -105.7099   25.0543 S   0  0  0  0  0  0  0  0  0  0  0  0
   13.5087 -104.8858   25.9617 O   0  0  0  0  0  0  0  0  0  0  0  0
   12.2660 -105.5001   26.5382 O   0  0  0  0  0  0  0  0  0  0  0  0
   11.3283 -106.5001   25.0085 N   0  0  0  0  0  0  0  0  0  0  0  0
   13.5693 -105.3885   23.9829 C   0  0  0  0  0  0  0  0  0  0  0  0
   10.7462 -107.1778   23.8504 C   0  0  0  0  0  0  0  0  0  0  0  0
   13.5383 -105.7957   22.5620 C   0  0  0  0  0  0  0  0  0  0  0  0
   11.2791 -107.2264   22.4606 C   0  0  0  0  0  0  0  0  0  0  0  0
   12.5218 -106.6121   21.8841 N   0  0  0  0  0  0  0  0  0  0  0  0
   12.7785 -106.8460   20.4439 C   0  0  0  0  0  0  0  0  0  0  0  0
   11.8193 -107.6546   19.6636 O   0  0  0  0  0  0  0  0  0  0  0  0
   14.0124 -106.2565   19.7965 C   0  0  0  0  0  0  0  0  0  0  0  0
   14.1183 -104.7896   19.6175 N   0  0  0  0  0  0  0  0  0  0  0  0
   13.0448 -104.0725   18.8995 C   0  0  0  0  0  0  0  0  0  0  0  0
   15.3181 -104.0513   20.1698 C   0  0  0  0  0  0  0  0  0  0  0  0
 21 22  2  0
 21 23  2  0
 21 24  1  0
 21 25  1  0
 24 26  1  0
 24 20  1  0
 25 27  1  0
 26 28  1  0
 20  1  1  0
 27 29  1  0
  1  2  2  0
  1  3  1  0
 29 30  1  0
  2  4  1  0
  3  5  2  0
 30 31  2  0
 30 32  1  0
  4  7  1  0
  4  6  2  0
 32 33  1  0
  7  8  2  0
  7  9  1  0
 33 34  1  0
 33 35  1  0
 11  9  1  0
 11 12  1  0
 11 13  1  0
 12 14  2  0
 12 15  1  0
 13 16  1  0
 15 17  1  0
 17 18  2  0
 28 29  1  0
  5  6  1  0
 16 17  1  0
  9 10  1  0
 15 19  1  0
M  END
> <Molecule Name>
Compound 9

> <EC50 (µM) (Excel)>
54.0

> <Error (µM)>
9.3

> <HTRC CRBN-DDB1 EC50 (µM)>
53.95 ±  9.32

> <EC50 fitting (µM)>
108.30

> <Modèle Fitting>
4PL
$$$$

> <minimizedAffinity>
-9.29095

> <CNNscore>
0.6023722887

> <CNNaffinity>
7.0435252190

> <CNN_VS>
4.2428245544

> <CNNaffinity_variance>
0.2150786966

$$$$
Compound 9


 35 37  0  0  0  0  0  0  0  0999 V2000
   10.8924 -105.0398   27.9783 C   0  0  0  0  0  0  0  0  0  0  0  0
   12.0787 -104.9089   28.9077 C   0  0  0  0  0  0  0  0  0  0  0  0
    9.8469 -104.0061   27.9275 C   0  0  0  0  0  0  0  0  0  0  0  0
   12.1990 -103.7176   29.7897 C   0  0  0  0  0  0  0  0  0  0  0  0
    9.9673 -102.8147   28.8095 C   0  0  0  0  0  0  0  0  0  0  0  0
   11.1535 -102.6838   29.7389 C   0  0  0  0  0  0  0  0  0  0  0  0
   13.3853 -103.5867   30.7192 C   0  0  0  0  0  0  0  0  0  0  0  0
   14.5892 -104.4332   30.5053 O   0  0  0  0  0  0  0  0  0  0  0  0
   13.3616 -102.5859   31.8862 N   0  0  0  0  0  0  0  0  0  0  0  0
   12.5659 -102.0243   32.0301 H   0  0  0  0  0  0  0  0  0  0  0  0
   14.5479 -102.4550   32.8156 C   0  0  0  0  0  0  0  0  0  0  0  0
   15.9427 -102.1150   32.2651 C   0  0  0  0  0  0  0  0  0  0  0  0
   14.3673 -102.6566   34.2779 C   0  0  0  0  0  0  0  0  0  0  0  0
   16.1790 -101.8983   30.7676 O   0  0  0  0  0  0  0  0  0  0  0  0
   17.1290 -101.9841   33.1945 N   0  0  0  0  0  0  0  0  0  0  0  0
   15.5537 -102.5257   35.2074 C   0  0  0  0  0  0  0  0  0  0  0  0
   16.9484 -102.1857   34.6569 C   0  0  0  0  0  0  0  0  0  0  0  0
   18.1347 -102.0548   35.5863 O   0  0  0  0  0  0  0  0  0  0  0  0
   18.0182 -101.7661   32.8323 H   0  0  0  0  0  0  0  0  0  0  0  0
   10.7721 -106.2311   27.0963 C   0  0  0  0  0  0  0  0  0  0  0  0
   10.0586 -106.6209   24.6955 S   0  0  0  0  0  0  0  0  0  0  0  0
    8.6705 -107.2760   24.6068 O   0  0  0  0  0  0  0  0  0  0  0  0
    9.2582 -106.9691   25.9538 O   0  0  0  0  0  0  0  0  0  0  0  0
   11.0955 -106.1121   25.6233 N   0  0  0  0  0  0  0  0  0  0  0  0
   10.0257 -106.6700   23.2039 C   0  0  0  0  0  0  0  0  0  0  0  0
   12.3840 -105.5138   25.2753 C   0  0  0  0  0  0  0  0  0  0  0  0
   11.0586 -106.2054   22.2535 C   0  0  0  0  0  0  0  0  0  0  0  0
   12.9425 -105.2817   23.9144 C   0  0  0  0  0  0  0  0  0  0  0  0
   12.3548 -105.5885   22.5674 N   0  0  0  0  0  0  0  0  0  0  0  0
   13.1706 -105.2314   21.3835 C   0  0  0  0  0  0  0  0  0  0  0  0
   14.4935 -104.6045   21.5832 O   0  0  0  0  0  0  0  0  0  0  0  0
   12.6402 -105.5122   19.9946 C   0  0  0  0  0  0  0  0  0  0  0  0
   12.8236 -106.8549   19.3959 N   0  0  0  0  0  0  0  0  0  0  0  0
   12.3531 -108.0436   20.1362 C   0  0  0  0  0  0  0  0  0  0  0  0
   13.4866 -106.9885   18.0423 C   0  0  0  0  0  0  0  0  0  0  0  0
 21 22  2  0
 21 23  2  0
 21 24  1  0
 21 25  1  0
 24 26  1  0
 24 20  1  0
 25 27  1  0
 26 28  1  0
 20  1  1  0
 27 29  1  0
  1  2  2  0
  1  3  1  0
 29 30  1  0
  2  4  1  0
  3  5  2  0
 30 31  2  0
 30 32  1  0
  4  7  1  0
  4  6  2  0
 32 33  1  0
  7  8  2  0
  7  9  1  0
 33 34  1  0
 33 35  1  0
 11  9  1  0
 11 12  1  0
 11 13  1  0
 12 14  2  0
 12 15  1  0
 13 16  1  0
 15 17  1  0
 17 18  2  0
 28 29  1  0
  5  6  1  0
 16 17  1  0
  9 10  1  0
 15 19  1  0
M  END
> <Molecule Name>
Compound 9

> <EC50 (µM) (Excel)>
54.0

> <Error (µM)>
9.3

> <HTRC CRBN-DDB1 EC50 (µM)>
53.95 ±  9.32

> <EC50 fitting (µM)>
108.30

> <Modèle Fitting>
4PL
$$$$

> <minimizedAffinity>
-8.93337

> <CNNscore>
0.5434861183

> <CNNaffinity>
6.8186912537

> <CNN_VS>
3.7058639526

> <CNNaffinity_variance>
0.3058770001

$$$$
Compound 9


 35 37  0  0  0  0  0  0  0  0999 V2000
   10.7348 -105.9411   26.7038 C   0  0  0  0  0  0  0  0  0  0  0  0
   11.5456 -105.2596   27.7838 C   0  0  0  0  0  0  0  0  0  0  0  0
    9.3380 -105.5589   26.4446 C   0  0  0  0  0  0  0  0  0  0  0  0
   10.9285 -104.1831   28.6035 C   0  0  0  0  0  0  0  0  0  0  0  0
    8.7209 -104.4823   27.2644 C   0  0  0  0  0  0  0  0  0  0  0  0
    9.5317 -103.8010   28.3444 C   0  0  0  0  0  0  0  0  0  0  0  0
   11.7394 -103.5017   29.6836 C   0  0  0  0  0  0  0  0  0  0  0  0
   11.3300 -102.1613   30.1809 O   0  0  0  0  0  0  0  0  0  0  0  0
   12.9858 -104.1802   30.2754 N   0  0  0  0  0  0  0  0  0  0  0  0
   13.2591 -105.0676   29.9479 H   0  0  0  0  0  0  0  0  0  0  0  0
   13.7967 -103.4988   31.3554 C   0  0  0  0  0  0  0  0  0  0  0  0
   13.2430 -103.3603   32.7832 C   0  0  0  0  0  0  0  0  0  0  0  0
   15.1439 -102.9557   31.0369 C   0  0  0  0  0  0  0  0  0  0  0  0
   11.8615 -103.9032   33.1600 O   0  0  0  0  0  0  0  0  0  0  0  0
   14.0538 -102.6789   33.8633 N   0  0  0  0  0  0  0  0  0  0  0  0
   15.9548 -102.2743   32.1170 C   0  0  0  0  0  0  0  0  0  0  0  0
   15.4012 -102.1358   33.5448 C   0  0  0  0  0  0  0  0  0  0  0  0
   16.2120 -101.4544   34.6248 O   0  0  0  0  0  0  0  0  0  0  0  0
   13.6906 -102.5952   34.7745 H   0  0  0  0  0  0  0  0  0  0  0  0
   11.3519 -107.0175   25.8841 C   0  0  0  0  0  0  0  0  0  0  0  0
   12.2207 -105.3493   24.1850 S   0  0  0  0  0  0  0  0  0  0  0  0
   12.4659 -103.9661   24.8099 O   0  0  0  0  0  0  0  0  0  0  0  0
   11.9491 -105.0840   25.6686 O   0  0  0  0  0  0  0  0  0  0  0  0
   11.7659 -106.7327   24.4572 N   0  0  0  0  0  0  0  0  0  0  0  0
   12.6964 -104.7111   22.9221 C   0  0  0  0  0  0  0  0  0  0  0  0
   11.6741 -107.8417   23.5080 C   0  0  0  0  0  0  0  0  0  0  0  0
   12.8346 -105.3272   21.5852 C   0  0  0  0  0  0  0  0  0  0  0  0
   12.0160 -107.8306   22.0585 C   0  0  0  0  0  0  0  0  0  0  0  0
   12.5328 -106.7128   21.1999 N   0  0  0  0  0  0  0  0  0  0  0  0
   12.7786 -107.0233   19.7723 C   0  0  0  0  0  0  0  0  0  0  0  0
   12.5087 -108.3883   19.2756 O   0  0  0  0  0  0  0  0  0  0  0  0
   13.2996 -105.9441   18.8488 C   0  0  0  0  0  0  0  0  0  0  0  0
   14.2469 -104.9292   19.3660 N   0  0  0  0  0  0  0  0  0  0  0  0
   15.3055 -105.3464   20.3081 C   0  0  0  0  0  0  0  0  0  0  0  0
   14.1170 -103.4878   18.9241 C   0  0  0  0  0  0  0  0  0  0  0  0
 21 22  2  0
 21 23  2  0
 21 24  1  0
 21 25  1  0
 24 26  1  0
 24 20  1  0
 25 27  1  0
 26 28  1  0
 20  1  1  0
 27 29  1  0
  1  2  2  0
  1  3  1  0
 29 30  1  0
  2  4  1  0
  3  5  2  0
 30 31  2  0
 30 32  1  0
  4  7  1  0
  4  6  2  0
 32 33  1  0
  7  8  2  0
  7  9  1  0
 33 34  1  0
 33 35  1  0
 11  9  1  0
 11 12  1  0
 11 13  1  0
 12 14  2  0
 12 15  1  0
 13 16  1  0
 15 17  1  0
 17 18  2  0
 28 29  1  0
  5  6  1  0
 16 17  1  0
  9 10  1  0
 15 19  1  0
M  END
> <Molecule Name>
Compound 9

> <EC50 (µM) (Excel)>
54.0

> <Error (µM)>
9.3

> <HTRC CRBN-DDB1 EC50 (µM)>
53.95 ±  9.32

> <EC50 fitting (µM)>
108.30

> <Modèle Fitting>
4PL
$$$$

> <minimizedAffinity>
-7.31999

> <CNNscore>
0.4427074790

> <CNNaffinity>
6.0470733643

> <CNN_VS>
2.6770846844

> <CNNaffinity_variance>
0.9048297405

$$$$
Compound 9


 35 37  0  0  0  0  0  0  0  0999 V2000
   10.4933 -105.7223   26.4199 C   0  0  0  0  0  0  0  0  0  0  0  0
   11.6293 -105.4518   27.3816 C   0  0  0  0  0  0  0  0  0  0  0  0
    9.1683 -105.1140   26.6161 C   0  0  0  0  0  0  0  0  0  0  0  0
   11.4125 -104.5565   28.5490 C   0  0  0  0  0  0  0  0  0  0  0  0
    8.9514 -104.2186   27.7836 C   0  0  0  0  0  0  0  0  0  0  0  0
   10.0874 -103.9482   28.7451 C   0  0  0  0  0  0  0  0  0  0  0  0
   12.5485 -104.2860   29.5106 C   0  0  0  0  0  0  0  0  0  0  0  0
   13.7154 -105.2070   29.5544 O   0  0  0  0  0  0  0  0  0  0  0  0
   12.5114 -103.0666   30.4464 N   0  0  0  0  0  0  0  0  0  0  0  0
   11.7401 -102.4553   30.4195 H   0  0  0  0  0  0  0  0  0  0  0  0
   13.6474 -102.7961   31.4080 C   0  0  0  0  0  0  0  0  0  0  0  0
   13.4913 -103.0883   32.9095 C   0  0  0  0  0  0  0  0  0  0  0  0
   14.9303 -102.2418   30.8997 C   0  0  0  0  0  0  0  0  0  0  0  0
   12.1901 -103.6592   33.4808 O   0  0  0  0  0  0  0  0  0  0  0  0
   14.6272 -102.8179   33.8712 N   0  0  0  0  0  0  0  0  0  0  0  0
   16.0663 -101.9714   31.8614 C   0  0  0  0  0  0  0  0  0  0  0  0
   15.9102 -102.2636   33.3628 C   0  0  0  0  0  0  0  0  0  0  0  0
   17.0462 -101.9931   34.3244 O   0  0  0  0  0  0  0  0  0  0  0  0
   14.5175 -103.0084   34.8308 H   0  0  0  0  0  0  0  0  0  0  0  0
   10.7102 -106.6176   25.2525 C   0  0  0  0  0  0  0  0  0  0  0  0
   11.2420 -106.7375   22.7771 S   0  0  0  0  0  0  0  0  0  0  0  0
   10.3055 -107.7038   22.0334 O   0  0  0  0  0  0  0  0  0  0  0  0
   10.1387 -107.5042   23.5120 O   0  0  0  0  0  0  0  0  0  0  0  0
   11.5709 -106.1535   24.0983 N   0  0  0  0  0  0  0  0  0  0  0  0
   11.8606 -106.5221   21.4357 C   0  0  0  0  0  0  0  0  0  0  0  0
   12.6253 -105.1877   24.4061 C   0  0  0  0  0  0  0  0  0  0  0  0
   12.9946 -105.6404   21.0858 C   0  0  0  0  0  0  0  0  0  0  0  0
   13.6029 -104.5754   23.4642 C   0  0  0  0  0  0  0  0  0  0  0  0
   13.7697 -104.7750   21.9855 N   0  0  0  0  0  0  0  0  0  0  0  0
   14.8518 -104.0093   21.3241 C   0  0  0  0  0  0  0  0  0  0  0  0
   15.6947 -103.1068   22.1352 O   0  0  0  0  0  0  0  0  0  0  0  0
   15.0769 -104.1617   19.8357 C   0  0  0  0  0  0  0  0  0  0  0  0
   14.8220 -103.0149   18.9331 N   0  0  0  0  0  0  0  0  0  0  0  0
   15.6784 -101.8155   19.0335 C   0  0  0  0  0  0  0  0  0  0  0  0
   13.6943 -103.0885   17.9269 C   0  0  0  0  0  0  0  0  0  0  0  0
 21 22  2  0
 21 23  2  0
 21 24  1  0
 21 25  1  0
 24 26  1  0
 24 20  1  0
 25 27  1  0
 26 28  1  0
 20  1  1  0
 27 29  1  0
  1  2  2  0
  1  3  1  0
 29 30  1  0
  2  4  1  0
  3  5  2  0
 30 31  2  0
 30 32  1  0
  4  7  1  0
  4  6  2  0
 32 33  1  0
  7  8  2  0
  7  9  1  0
 33 34  1  0
 33 35  1  0
 11  9  1  0
 11 12  1  0
 11 13  1  0
 12 14  2  0
 12 15  1  0
 13 16  1  0
 15 17  1  0
 17 18  2  0
 28 29  1  0
  5  6  1  0
 16 17  1  0
  9 10  1  0
 15 19  1  0
M  END
> <Molecule Name>
Compound 9

> <EC50 (µM) (Excel)>
54.0

> <Error (µM)>
9.3

> <HTRC CRBN-DDB1 EC50 (µM)>
53.95 ±  9.32

> <EC50 fitting (µM)>
108.30

> <Modèle Fitting>
4PL
$$$$

> <minimizedAffinity>
-8.85957

> <CNNscore>
0.4393844604

> <CNNaffinity>
6.1896176338

> <CNN_VS>
2.7196218967

> <CNNaffinity_variance>
0.3842733800

$$$$
Compound 9


 35 37  0  0  0  0  0  0  0  0999 V2000
   10.5517 -106.5346   24.6044 C   0  0  0  0  0  0  0  0  0  0  0  0
   11.9961 -106.0911   24.5314 C   0  0  0  0  0  0  0  0  0  0  0  0
    9.9130 -107.2370   23.4806 C   0  0  0  0  0  0  0  0  0  0  0  0
   12.7928 -106.3655   23.3060 C   0  0  0  0  0  0  0  0  0  0  0  0
   10.7097 -107.5114   22.2552 C   0  0  0  0  0  0  0  0  0  0  0  0
   12.1540 -107.0679   22.1822 C   0  0  0  0  0  0  0  0  0  0  0  0
   14.2372 -105.9220   23.2330 C   0  0  0  0  0  0  0  0  0  0  0  0
   14.8290 -105.5431   21.9222 O   0  0  0  0  0  0  0  0  0  0  0  0
   15.1038 -105.8580   24.5014 N   0  0  0  0  0  0  0  0  0  0  0  0
   14.7145 -106.1082   25.3704 H   0  0  0  0  0  0  0  0  0  0  0  0
   16.5482 -105.4145   24.4284 C   0  0  0  0  0  0  0  0  0  0  0  0
   17.6906 -106.4283   24.6052 C   0  0  0  0  0  0  0  0  0  0  0  0
   16.8708 -103.9836   24.1832 C   0  0  0  0  0  0  0  0  0  0  0  0
   17.4091 -107.9121   24.8596 O   0  0  0  0  0  0  0  0  0  0  0  0
   19.1350 -105.9849   24.5322 N   0  0  0  0  0  0  0  0  0  0  0  0
   18.3153 -103.5401   24.1102 C   0  0  0  0  0  0  0  0  0  0  0  0
   19.4576 -104.5540   24.2870 C   0  0  0  0  0  0  0  0  0  0  0  0
   20.9020 -104.1105   24.2139 O   0  0  0  0  0  0  0  0  0  0  0  0
   19.8594 -106.6417   24.6467 H   0  0  0  0  0  0  0  0  0  0  0  0
    9.7551 -106.2602   25.8298 C   0  0  0  0  0  0  0  0  0  0  0  0
    9.5241 -104.3644   27.4964 S   0  0  0  0  0  0  0  0  0  0  0  0
    8.1716 -103.6450   27.3659 O   0  0  0  0  0  0  0  0  0  0  0  0
    8.4861 -104.7980   26.4573 O   0  0  0  0  0  0  0  0  0  0  0  0
   10.3647 -105.4600   26.9597 N   0  0  0  0  0  0  0  0  0  0  0  0
    9.7857 -103.3823   28.5898 C   0  0  0  0  0  0  0  0  0  0  0  0
   11.7049 -105.8489   27.3975 C   0  0  0  0  0  0  0  0  0  0  0  0
   10.9925 -103.2591   29.4350 C   0  0  0  0  0  0  0  0  0  0  0  0
   12.5244 -105.2335   28.4781 C   0  0  0  0  0  0  0  0  0  0  0  0
   12.2099 -104.0805   29.3867 N   0  0  0  0  0  0  0  0  0  0  0  0
   13.2485 -103.7025   30.3733 C   0  0  0  0  0  0  0  0  0  0  0  0
   14.5147 -104.4627   30.4128 O   0  0  0  0  0  0  0  0  0  0  0  0
   12.9988 -102.5497   31.3208 C   0  0  0  0  0  0  0  0  0  0  0  0
   14.1452 -101.8652   31.9629 N   0  0  0  0  0  0  0  0  0  0  0  0
   14.1044 -101.6013   33.4157 C   0  0  0  0  0  0  0  0  0  0  0  0
   15.3347 -101.4485   31.1256 C   0  0  0  0  0  0  0  0  0  0  0  0
 21 22  2  0
 21 23  2  0
 21 24  1  0
 21 25  1  0
 24 26  1  0
 24 20  1  0
 25 27  1  0
 26 28  1  0
 20  1  1  0
 27 29  1  0
  1  2  2  0
  1  3  1  0
 29 30  1  0
  2  4  1  0
  3  5  2  0
 30 31  2  0
 30 32  1  0
  4  7  1  0
  4  6  2  0
 32 33  1  0
  7  8  2  0
  7  9  1  0
 33 34  1  0
 33 35  1  0
 11  9  1  0
 11 12  1  0
 11 13  1  0
 12 14  2  0
 12 15  1  0
 13 16  1  0
 15 17  1  0
 17 18  2  0
 28 29  1  0
  5  6  1  0
 16 17  1  0
  9 10  1  0
 15 19  1  0
M  END
> <Molecule Name>
Compound 9

> <EC50 (µM) (Excel)>
54.0

> <Error (µM)>
9.3

> <HTRC CRBN-DDB1 EC50 (µM)>
53.95 ±  9.32

> <EC50 fitting (µM)>
108.30

> <Modèle Fitting>
4PL
$$$$

> <minimizedAffinity>
-8.68693

> <CNNscore>
0.3305965364

> <CNNaffinity>
6.2507381439

> <CNN_VS>
2.0664722919

> <CNNaffinity_variance>
0.5151371360

$$$$
Compound 9


 35 37  0  0  0  0  0  0  0  0999 V2000
   10.9075 -106.1738   25.2641 C   0  0  0  0  0  0  0  0  0  0  0  0
   12.3270 -105.6915   25.0621 C   0  0  0  0  0  0  0  0  0  0  0  0
   10.1683 -106.8406   24.1809 C   0  0  0  0  0  0  0  0  0  0  0  0
   12.9956 -105.8904   23.7487 C   0  0  0  0  0  0  0  0  0  0  0  0
   10.8369 -107.0394   22.8675 C   0  0  0  0  0  0  0  0  0  0  0  0
   12.2564 -106.5572   22.6655 C   0  0  0  0  0  0  0  0  0  0  0  0
   14.4151 -105.4081   23.5467 C   0  0  0  0  0  0  0  0  0  0  0  0
   15.3525 -105.3646   24.7005 O   0  0  0  0  0  0  0  0  0  0  0  0
   14.9022 -104.9608   22.1586 N   0  0  0  0  0  0  0  0  0  0  0  0
   14.2837 -104.9886   21.3932 H   0  0  0  0  0  0  0  0  0  0  0  0
   16.3217 -104.4785   21.9567 C   0  0  0  0  0  0  0  0  0  0  0  0
   17.5135 -105.4136   22.2202 C   0  0  0  0  0  0  0  0  0  0  0  0
   16.5713 -103.0860   21.4985 C   0  0  0  0  0  0  0  0  0  0  0  0
   17.3076 -106.8557   22.6930 O   0  0  0  0  0  0  0  0  0  0  0  0
   18.9330 -104.9314   22.0183 N   0  0  0  0  0  0  0  0  0  0  0  0
   17.9909 -102.6037   21.2966 C   0  0  0  0  0  0  0  0  0  0  0  0
   19.1826 -103.5388   21.5601 C   0  0  0  0  0  0  0  0  0  0  0  0
   20.6021 -103.0565   21.3582 O   0  0  0  0  0  0  0  0  0  0  0  0
   19.6894 -105.5378   22.1897 H   0  0  0  0  0  0  0  0  0  0  0  0
   10.2389 -105.9749   26.5774 C   0  0  0  0  0  0  0  0  0  0  0  0
   10.1446 -104.0393   28.2112 S   0  0  0  0  0  0  0  0  0  0  0  0
    8.8071 -103.2850   28.1332 O   0  0  0  0  0  0  0  0  0  0  0  0
    9.0436 -104.4650   27.2356 O   0  0  0  0  0  0  0  0  0  0  0  0
   10.9267 -105.1690   27.6572 N   0  0  0  0  0  0  0  0  0  0  0  0
   10.4881 -103.0425   29.2680 C   0  0  0  0  0  0  0  0  0  0  0  0
   12.2765 -105.5863   28.0354 C   0  0  0  0  0  0  0  0  0  0  0  0
   11.7393 -102.9357   30.0484 C   0  0  0  0  0  0  0  0  0  0  0  0
   13.1665 -104.9719   29.0594 C   0  0  0  0  0  0  0  0  0  0  0  0
   12.9300 -103.7919   29.9570 N   0  0  0  0  0  0  0  0  0  0  0  0
   14.0274 -103.4229   30.8813 C   0  0  0  0  0  0  0  0  0  0  0  0
   15.2729 -104.2174   30.8738 O   0  0  0  0  0  0  0  0  0  0  0  0
   13.8576 -102.2441   31.8146 C   0  0  0  0  0  0  0  0  0  0  0  0
   14.8477 -102.0116   32.8918 N   0  0  0  0  0  0  0  0  0  0  0  0
   16.2865 -102.1589   32.5913 C   0  0  0  0  0  0  0  0  0  0  0  0
   14.3734 -101.6287   34.2767 C   0  0  0  0  0  0  0  0  0  0  0  0
 21 22  2  0
 21 23  2  0
 21 24  1  0
 21 25  1  0
 24 26  1  0
 24 20  1  0
 25 27  1  0
 26 28  1  0
 20  1  1  0
 27 29  1  0
  1  2  2  0
  1  3  1  0
 29 30  1  0
  2  4  1  0
  3  5  2  0
 30 31  2  0
 30 32  1  0
  4  7  1  0
  4  6  2  0
 32 33  1  0
  7  8  2  0
  7  9  1  0
 33 34  1  0
 33 35  1  0
 11  9  1  0
 11 12  1  0
 11 13  1  0
 12 14  2  0
 12 15  1  0
 13 16  1  0
 15 17  1  0
 17 18  2  0
 28 29  1  0
  5  6  1  0
 16 17  1  0
  9 10  1  0
 15 19  1  0
M  END
> <Molecule Name>
Compound 9

> <EC50 (µM) (Excel)>
54.0

> <Error (µM)>
9.3

> <HTRC CRBN-DDB1 EC50 (µM)>
53.95 ±  9.32

> <EC50 fitting (µM)>
108.30

> <Modèle Fitting>
4PL
$$$$

> <minimizedAffinity>
-8.45810

> <CNNscore>
0.2889375389

> <CNNaffinity>
6.1714015007

> <CNN_VS>
1.7831496000

> <CNNaffinity_variance>
0.9589824080

$$$$
Compound 9


 35 37  0  0  0  0  0  0  0  0999 V2000
   11.2744 -105.5812   25.8671 C   0  0  0  0  0  0  0  0  0  0  0  0
   12.2851 -105.2131   26.9307 C   0  0  0  0  0  0  0  0  0  0  0  0
    9.8296 -105.5320   26.1398 C   0  0  0  0  0  0  0  0  0  0  0  0
   11.8196 -104.7928   28.2791 C   0  0  0  0  0  0  0  0  0  0  0  0
    9.3641 -105.1117   27.4883 C   0  0  0  0  0  0  0  0  0  0  0  0
   10.3748 -104.7436   28.5519 C   0  0  0  0  0  0  0  0  0  0  0  0
   12.8304 -104.4246   29.3428 C   0  0  0  0  0  0  0  0  0  0  0  0
   14.0953 -105.1979   29.4599 O   0  0  0  0  0  0  0  0  0  0  0  0
   12.5650 -103.2570   30.3073 N   0  0  0  0  0  0  0  0  0  0  0  0
   11.7285 -102.7435   30.2319 H   0  0  0  0  0  0  0  0  0  0  0  0
   13.5758 -102.8889   31.3708 C   0  0  0  0  0  0  0  0  0  0  0  0
   13.2855 -103.1585   32.8566 C   0  0  0  0  0  0  0  0  0  0  0  0
   14.8650 -102.2595   30.9794 C   0  0  0  0  0  0  0  0  0  0  0  0
   11.9727 -103.8045   33.3092 O   0  0  0  0  0  0  0  0  0  0  0  0
   14.2962 -102.7905   33.9202 N   0  0  0  0  0  0  0  0  0  0  0  0
   15.8758 -101.8914   32.0431 C   0  0  0  0  0  0  0  0  0  0  0  0
   15.5855 -102.1610   33.5287 C   0  0  0  0  0  0  0  0  0  0  0  0
   16.5962 -101.7929   34.5923 O   0  0  0  0  0  0  0  0  0  0  0  0
   14.1010 -102.9672   34.8688 H   0  0  0  0  0  0  0  0  0  0  0  0
   11.7398 -106.0015   24.5187 C   0  0  0  0  0  0  0  0  0  0  0  0
   13.0188 -104.8244   22.6739 S   0  0  0  0  0  0  0  0  0  0  0  0
   12.0969 -104.3845   21.5247 O   0  0  0  0  0  0  0  0  0  0  0  0
   11.5127 -105.0995   22.7086 O   0  0  0  0  0  0  0  0  0  0  0  0
   13.0663 -105.5009   23.9910 N   0  0  0  0  0  0  0  0  0  0  0  0
   14.1055 -104.2125   21.8534 C   0  0  0  0  0  0  0  0  0  0  0  0
   14.2422 -105.7354   24.8285 C   0  0  0  0  0  0  0  0  0  0  0  0
   15.5479 -104.1294   22.1672 C   0  0  0  0  0  0  0  0  0  0  0  0
   15.6526 -105.3485   24.5471 C   0  0  0  0  0  0  0  0  0  0  0  0
   16.2368 -104.6335   23.3633 N   0  0  0  0  0  0  0  0  0  0  0  0
   17.6985 -104.3930   23.3804 C   0  0  0  0  0  0  0  0  0  0  0  0
   18.4913 -104.8587   24.5368 O   0  0  0  0  0  0  0  0  0  0  0  0
   18.3547 -103.6777   22.2198 C   0  0  0  0  0  0  0  0  0  0  0  0
   19.7991 -103.8760   21.9568 N   0  0  0  0  0  0  0  0  0  0  0  0
   20.6275 -104.5632   22.9686 C   0  0  0  0  0  0  0  0  0  0  0  0
   20.4017 -103.3743   20.6626 C   0  0  0  0  0  0  0  0  0  0  0  0
 21 22  2  0
 21 23  2  0
 21 24  1  0
 21 25  1  0
 24 26  1  0
 24 20  1  0
 25 27  1  0
 26 28  1  0
 20  1  1  0
 27 29  1  0
  1  2  2  0
  1  3  1  0
 29 30  1  0
  2  4  1  0
  3  5  2  0
 30 31  2  0
 30 32  1  0
  4  7  1  0
  4  6  2  0
 32 33  1  0
  7  8  2  0
  7  9  1  0
 33 34  1  0
 33 35  1  0
 11  9  1  0
 11 12  1  0
 11 13  1  0
 12 14  2  0
 12 15  1  0
 13 16  1  0
 15 17  1  0
 17 18  2  0
 28 29  1  0
  5  6  1  0
 16 17  1  0
  9 10  1  0
 15 19  1  0
M  END
> <Molecule Name>
Compound 9

> <EC50 (µM) (Excel)>
54.0

> <Error (µM)>
9.3

> <HTRC CRBN-DDB1 EC50 (µM)>
53.95 ±  9.32

> <EC50 fitting (µM)>
108.30

> <Modèle Fitting>
4PL
$$$$

> <minimizedAffinity>
-7.73423

> <CNNscore>
0.2781885862

> <CNNaffinity>
5.7421684265

> <CNN_VS>
1.5974056721

> <CNNaffinity_variance>
0.7593693733

$$$$
