Compound 1


 34 36  0  0  0  0  0  0  0  0999 V2000
   12.9874 -106.0913   21.6413 N   0  0  0  0  0  0  0  0  0  0  0  0
   13.4925 -105.5159   22.9158 C   0  0  0  0  0  0  0  0  0  0  0  0
   11.7367 -106.8605   21.3437 C   0  0  0  0  0  0  0  0  0  0  0  0
   12.8526 -105.5718   24.2357 C   0  0  0  0  0  0  0  0  0  0  0  0
   10.6568 -107.2500   22.2839 C   0  0  0  0  0  0  0  0  0  0  0  0
   11.5534 -106.2174   24.5952 N   0  0  0  0  0  0  0  0  0  0  0  0
   10.5738 -106.9652   23.7284 C   0  0  0  0  0  0  0  0  0  0  0  0
   11.1872 -106.0978   26.0116 C   0  0  0  0  0  0  0  0  0  0  0  0
    9.9037 -106.7106   26.4755 O   0  0  0  0  0  0  0  0  0  0  0  0
   14.8231 -104.7904   22.8281 C   0  0  0  0  0  0  0  0  0  0  0  0
   16.0967 -105.5656   22.8932 O   0  0  0  0  0  0  0  0  0  0  0  0
   14.8750 -103.2562   22.6719 O   0  0  0  0  0  0  0  0  0  0  0  0
   16.1959 -102.5450   22.4386 C   0  0  0  0  0  0  0  0  0  0  0  0
   13.8639 -105.8672   20.4766 C   0  0  0  0  0  0  0  0  0  0  0  0
   12.4821 -102.5446   18.9542 C   0  0  0  0  0  0  0  0  0  0  0  0
   12.5229 -103.8669   19.6375 C   0  0  0  0  0  0  0  0  0  0  0  0
   13.7185 -101.8772   18.4179 C   0  0  0  0  0  0  0  0  0  0  0  0
   13.8231 -104.5450   19.7933 C   0  0  0  0  0  0  0  0  0  0  0  0
   15.0186 -102.5554   18.5737 C   0  0  0  0  0  0  0  0  0  0  0  0
   15.0595 -103.8777   19.2571 C   0  0  0  0  0  0  0  0  0  0  0  0
   11.0002 -101.7266   21.4336 O   0  0  0  0  0  0  0  0  0  0  0  0
   10.4275 -101.4505   20.0308 C   0  0  0  0  0  0  0  0  0  0  0  0
   11.1819 -101.8664   18.7984 N   0  0  0  0  0  0  0  0  0  0  0  0
    9.0729 -100.7443   19.8457 N   0  0  0  0  0  0  0  0  0  0  0  0
   10.6092 -101.5903   17.3955 C   0  0  0  0  0  0  0  0  0  0  0  0
    8.5000 -100.4681   18.4428 C   0  0  0  0  0  0  0  0  0  0  0  0
    9.2546 -100.8841   17.2104 C   0  0  0  0  0  0  0  0  0  0  0  0
    7.1455  -99.7620   18.2579 O   0  0  0  0  0  0  0  0  0  0  0  0
    8.5625 -100.4635   20.6394 H   0  0  0  0  0  0  0  0  0  0  0  0
   12.1062 -105.3703   26.9380 O   0  0  0  0  0  0  0  0  0  0  0  0
   11.5330 -104.5964   28.0459 C   0  0  0  0  0  0  0  0  0  0  0  0
   12.7413 -104.9414   28.8619 C   0  0  0  0  0  0  0  0  0  0  0  0
   10.9600 -103.8226   29.1540 C   0  0  0  0  0  0  0  0  0  0  0  0
   10.3449 -104.2853   27.1747 C   0  0  0  0  0  0  0  0  0  0  0  0
 21 22  2  0
 22 23  1  0
 22 24  1  0
 23 15  1  0
 23 25  1  0
 24 26  1  0
 15 16  2  0
 15 17  1  0
 25 27  1  0
 26 28  2  0
 16 18  1  0
 17 19  2  0
 18 20  2  0
 18 14  1  0
 14  1  1  0
  1  2  1  0
  1  3  1  0
  2 10  1  0
  2  4  1  0
  3  5  1  0
 10 11  2  0
 10 12  1  0
  4  6  1  0
  5  7  1  0
 12 13  1  0
  6  8  1  0
  8  9  2  0
  8 30  1  0
 30 31  1  0
 31 32  1  0
 31 33  1  0
 31 34  1  0
 26 27  1  0
 19 20  1  0
  6  7  1  0
 24 29  1  0
M  END
> <Molecule Name>
Compound 1

> <EC50 (µM) (Excel)>
49.5

> <Error (µM)>
6.2

> <HTRC CRBN-DDB1 EC50 (µM)>
49.46 ±  6.19

> <EC50 fitting (µM)>
60.01

> <Modèle Fitting>
3PL
$$$$

> <minimizedAffinity>
-7.68030

> <CNNscore>
0.3641695082

> <CNNaffinity>
6.0815753937

> <CNN_VS>
2.2147243023

> <CNNaffinity_variance>
0.6884779334

$$$$
Compound 1


 34 36  0  0  0  0  0  0  0  0999 V2000
   18.0332 -104.4146   24.1003 N   0  0  0  0  0  0  0  0  0  0  0  0
   17.2997 -103.5271   23.1597 C   0  0  0  0  0  0  0  0  0  0  0  0
   17.6227 -105.6986   24.7542 C   0  0  0  0  0  0  0  0  0  0  0  0
   15.9429 -103.7135   22.6313 C   0  0  0  0  0  0  0  0  0  0  0  0
   16.3359 -106.4246   24.6170 C   0  0  0  0  0  0  0  0  0  0  0  0
   14.9958 -104.8335   22.9185 N   0  0  0  0  0  0  0  0  0  0  0  0
   15.1680 -106.0417   23.8021 C   0  0  0  0  0  0  0  0  0  0  0  0
   13.7043 -104.7288   22.2286 C   0  0  0  0  0  0  0  0  0  0  0  0
   12.6840 -105.8006   22.4487 O   0  0  0  0  0  0  0  0  0  0  0  0
   18.0512 -102.2905   22.7011 C   0  0  0  0  0  0  0  0  0  0  0  0
   18.2423 -101.1472   23.6411 O   0  0  0  0  0  0  0  0  0  0  0  0
   18.6218 -102.2007   21.2702 O   0  0  0  0  0  0  0  0  0  0  0  0
   17.8126 -101.5701   20.1512 C   0  0  0  0  0  0  0  0  0  0  0  0
   19.3905 -103.9538   24.4471 C   0  0  0  0  0  0  0  0  0  0  0  0
   21.9103 -106.4453   22.8008 C   0  0  0  0  0  0  0  0  0  0  0  0
   20.7558 -105.9283   23.5863 C   0  0  0  0  0  0  0  0  0  0  0  0
   22.8675 -105.5346   22.0826 C   0  0  0  0  0  0  0  0  0  0  0  0
   20.5449 -104.4708   23.6616 C   0  0  0  0  0  0  0  0  0  0  0  0
   22.6565 -104.0771   22.1579 C   0  0  0  0  0  0  0  0  0  0  0  0
   21.5021 -103.5601   22.9434 C   0  0  0  0  0  0  0  0  0  0  0  0
   23.6231 -107.5202   20.5819 O   0  0  0  0  0  0  0  0  0  0  0  0
   22.9766 -108.4567   21.6198 C   0  0  0  0  0  0  0  0  0  0  0  0
   22.1212 -107.9029   22.7254 N   0  0  0  0  0  0  0  0  0  0  0  0
   23.1838 -109.9803   21.5596 N   0  0  0  0  0  0  0  0  0  0  0  0
   21.4748 -108.8394   23.7634 C   0  0  0  0  0  0  0  0  0  0  0  0
   22.5374 -110.9169   22.5975 C   0  0  0  0  0  0  0  0  0  0  0  0
   21.6819 -110.3630   23.7032 C   0  0  0  0  0  0  0  0  0  0  0  0
   22.7446 -112.4405   22.5372 O   0  0  0  0  0  0  0  0  0  0  0  0
   23.7403 -110.3639   20.8437 H   0  0  0  0  0  0  0  0  0  0  0  0
   13.4546 -103.5592   21.3334 O   0  0  0  0  0  0  0  0  0  0  0  0
   13.6872 -103.7048   19.8913 C   0  0  0  0  0  0  0  0  0  0  0  0
   13.8610 -102.2190   19.8077 C   0  0  0  0  0  0  0  0  0  0  0  0
   13.9199 -103.8503   18.4492 C   0  0  0  0  0  0  0  0  0  0  0  0
   13.5018 -105.1916   20.0418 C   0  0  0  0  0  0  0  0  0  0  0  0
 21 22  2  0
 22 23  1  0
 22 24  1  0
 23 15  1  0
 23 25  1  0
 24 26  1  0
 15 16  2  0
 15 17  1  0
 25 27  1  0
 26 28  2  0
 16 18  1  0
 17 19  2  0
 18 20  2  0
 18 14  1  0
 14  1  1  0
  1  2  1  0
  1  3  1  0
  2 10  1  0
  2  4  1  0
  3  5  1  0
 10 11  2  0
 10 12  1  0
  4  6  1  0
  5  7  1  0
 12 13  1  0
  6  8  1  0
  8  9  2  0
  8 30  1  0
 30 31  1  0
 31 32  1  0
 31 33  1  0
 31 34  1  0
 26 27  1  0
 19 20  1  0
  6  7  1  0
 24 29  1  0
M  END
> <Molecule Name>
Compound 1

> <EC50 (µM) (Excel)>
49.5

> <Error (µM)>
6.2

> <HTRC CRBN-DDB1 EC50 (µM)>
49.46 ±  6.19

> <EC50 fitting (µM)>
60.01

> <Modèle Fitting>
3PL
$$$$

> <minimizedAffinity>
-7.91011

> <CNNscore>
0.3047226965

> <CNNaffinity>
5.6736359596

> <CNN_VS>
1.7288856506

> <CNNaffinity_variance>
0.5709406734

$$$$
Compound 1


 34 36  0  0  0  0  0  0  0  0999 V2000
   13.9345 -105.8416   23.3189 N   0  0  0  0  0  0  0  0  0  0  0  0
   13.9106 -105.2244   21.9665 C   0  0  0  0  0  0  0  0  0  0  0  0
   14.9058 -105.6837   24.4485 C   0  0  0  0  0  0  0  0  0  0  0  0
   14.8772 -104.2751   21.4015 C   0  0  0  0  0  0  0  0  0  0  0  0
   16.1264 -104.8411   24.4945 C   0  0  0  0  0  0  0  0  0  0  0  0
   16.0994 -103.7166   22.0558 N   0  0  0  0  0  0  0  0  0  0  0  0
   16.6579 -103.9668   23.4327 C   0  0  0  0  0  0  0  0  0  0  0  0
   16.8635 -102.7833   21.2194 C   0  0  0  0  0  0  0  0  0  0  0  0
   18.1057 -102.1674   21.7814 O   0  0  0  0  0  0  0  0  0  0  0  0
   12.7483 -105.6309   21.0786 C   0  0  0  0  0  0  0  0  0  0  0  0
   11.7555 -104.6063   20.6404 O   0  0  0  0  0  0  0  0  0  0  0  0
   12.5802 -107.0952   20.6220 O   0  0  0  0  0  0  0  0  0  0  0  0
   12.9673 -107.5182   19.2163 C   0  0  0  0  0  0  0  0  0  0  0  0
   12.8157 -106.7625   23.5933 C   0  0  0  0  0  0  0  0  0  0  0  0
   11.3103 -105.3149   26.8956 C   0  0  0  0  0  0  0  0  0  0  0  0
   12.2995 -105.6827   25.8453 C   0  0  0  0  0  0  0  0  0  0  0  0
    9.8478 -105.6436   26.7744 C   0  0  0  0  0  0  0  0  0  0  0  0
   11.8265 -106.3947   24.6437 C   0  0  0  0  0  0  0  0  0  0  0  0
    9.3750 -106.3557   25.5728 C   0  0  0  0  0  0  0  0  0  0  0  0
   10.3641 -106.7234   24.5224 C   0  0  0  0  0  0  0  0  0  0  0  0
    9.5633 -103.1652   28.0530 O   0  0  0  0  0  0  0  0  0  0  0  0
   10.9195 -103.5235   28.6889 C   0  0  0  0  0  0  0  0  0  0  0  0
   11.7832 -104.6029   28.0973 N   0  0  0  0  0  0  0  0  0  0  0  0
   11.4318 -102.7931   29.9427 N   0  0  0  0  0  0  0  0  0  0  0  0
   13.1394 -104.9612   28.7333 C   0  0  0  0  0  0  0  0  0  0  0  0
   12.7880 -103.1514   30.5788 C   0  0  0  0  0  0  0  0  0  0  0  0
   13.6517 -104.2308   29.9871 C   0  0  0  0  0  0  0  0  0  0  0  0
   13.3002 -102.4210   31.8325 O   0  0  0  0  0  0  0  0  0  0  0  0
   10.8819 -102.0831   30.3462 H   0  0  0  0  0  0  0  0  0  0  0  0
   16.3756 -102.4818   19.8399 O   0  0  0  0  0  0  0  0  0  0  0  0
   15.0099 -101.9733   19.6637 C   0  0  0  0  0  0  0  0  0  0  0  0
   15.3655 -100.8196   20.5512 C   0  0  0  0  0  0  0  0  0  0  0  0
   13.6442 -101.4647   19.4877 C   0  0  0  0  0  0  0  0  0  0  0  0
   14.7154 -103.1562   18.7799 C   0  0  0  0  0  0  0  0  0  0  0  0
 21 22  2  0
 22 23  1  0
 22 24  1  0
 23 15  1  0
 23 25  1  0
 24 26  1  0
 15 16  2  0
 15 17  1  0
 25 27  1  0
 26 28  2  0
 16 18  1  0
 17 19  2  0
 18 20  2  0
 18 14  1  0
 14  1  1  0
  1  2  1  0
  1  3  1  0
  2 10  1  0
  2  4  1  0
  3  5  1  0
 10 11  2  0
 10 12  1  0
  4  6  1  0
  5  7  1  0
 12 13  1  0
  6  8  1  0
  8  9  2  0
  8 30  1  0
 30 31  1  0
 31 32  1  0
 31 33  1  0
 31 34  1  0
 26 27  1  0
 19 20  1  0
  6  7  1  0
 24 29  1  0
M  END
> <Molecule Name>
Compound 1

> <EC50 (µM) (Excel)>
49.5

> <Error (µM)>
6.2

> <HTRC CRBN-DDB1 EC50 (µM)>
49.46 ±  6.19

> <EC50 fitting (µM)>
60.01

> <Modèle Fitting>
3PL
$$$$

> <minimizedAffinity>
-8.59172

> <CNNscore>
0.1946311891

> <CNNaffinity>
5.8197264671

> <CNN_VS>
1.1327003241

> <CNNaffinity_variance>
0.8472146988

$$$$
Compound 1


 34 36  0  0  0  0  0  0  0  0999 V2000
   16.5767 -104.3623   23.6418 N   0  0  0  0  0  0  0  0  0  0  0  0
   16.5904 -103.5272   22.4118 C   0  0  0  0  0  0  0  0  0  0  0  0
   15.6815 -105.4939   24.0452 C   0  0  0  0  0  0  0  0  0  0  0  0
   15.6889 -103.6238   21.2574 C   0  0  0  0  0  0  0  0  0  0  0  0
   14.5479 -106.0787   23.2870 C   0  0  0  0  0  0  0  0  0  0  0  0
   14.5576 -104.5801   21.0584 N   0  0  0  0  0  0  0  0  0  0  0  0
   14.0474 -105.6740   21.9603 C   0  0  0  0  0  0  0  0  0  0  0  0
   13.8425 -104.4188   19.7867 C   0  0  0  0  0  0  0  0  0  0  0  0
   12.6921 -105.3280   19.4897 O   0  0  0  0  0  0  0  0  0  0  0  0
   17.6645 -102.4559   22.3563 C   0  0  0  0  0  0  0  0  0  0  0  0
   17.7930 -101.4753   23.4741 O   0  0  0  0  0  0  0  0  0  0  0  0
   18.6283 -102.3681   21.1545 O   0  0  0  0  0  0  0  0  0  0  0  0
   18.2572 -101.5655   19.9204 C   0  0  0  0  0  0  0  0  0  0  0  0
   17.6177 -104.0193   24.6284 C   0  0  0  0  0  0  0  0  0  0  0  0
   19.8760 -107.0866   25.4995 C   0  0  0  0  0  0  0  0  0  0  0  0
   18.6768 -106.2108   25.3895 C   0  0  0  0  0  0  0  0  0  0  0  0
   21.2229 -106.6773   24.9707 C   0  0  0  0  0  0  0  0  0  0  0  0
   18.8168 -104.8951   24.7384 C   0  0  0  0  0  0  0  0  0  0  0  0
   21.3627 -105.3616   24.3197 C   0  0  0  0  0  0  0  0  0  0  0  0
   20.1637 -104.4857   24.2096 C   0  0  0  0  0  0  0  0  0  0  0  0
   18.0877 -109.1259   24.2125 O   0  0  0  0  0  0  0  0  0  0  0  0
   18.8440 -109.4345   25.5182 C   0  0  0  0  0  0  0  0  0  0  0  0
   19.7361 -108.4024   26.1506 N   0  0  0  0  0  0  0  0  0  0  0  0
   18.7122 -110.8007   26.2139 N   0  0  0  0  0  0  0  0  0  0  0  0
   20.4924 -108.7110   27.4564 C   0  0  0  0  0  0  0  0  0  0  0  0
   19.4685 -111.1094   27.5197 C   0  0  0  0  0  0  0  0  0  0  0  0
   20.3606 -110.0772   28.1521 C   0  0  0  0  0  0  0  0  0  0  0  0
   19.3367 -112.4756   28.2154 O   0  0  0  0  0  0  0  0  0  0  0  0
   18.1333 -111.4908   25.8167 H   0  0  0  0  0  0  0  0  0  0  0  0
   14.2870 -103.3556   18.8360 O   0  0  0  0  0  0  0  0  0  0  0  0
   13.2944 -102.4094   18.3124 C   0  0  0  0  0  0  0  0  0  0  0  0
   13.8875 -102.5998   16.9497 C   0  0  0  0  0  0  0  0  0  0  0  0
   12.3018 -101.4632   17.7885 C   0  0  0  0  0  0  0  0  0  0  0  0
   12.7439 -102.2616   19.7061 C   0  0  0  0  0  0  0  0  0  0  0  0
 21 22  2  0
 22 23  1  0
 22 24  1  0
 23 15  1  0
 23 25  1  0
 24 26  1  0
 15 16  2  0
 15 17  1  0
 25 27  1  0
 26 28  2  0
 16 18  1  0
 17 19  2  0
 18 20  2  0
 18 14  1  0
 14  1  1  0
  1  2  1  0
  1  3  1  0
  2 10  1  0
  2  4  1  0
  3  5  1  0
 10 11  2  0
 10 12  1  0
  4  6  1  0
  5  7  1  0
 12 13  1  0
  6  8  1  0
  8  9  2  0
  8 30  1  0
 30 31  1  0
 31 32  1  0
 31 33  1  0
 31 34  1  0
 26 27  1  0
 19 20  1  0
  6  7  1  0
 24 29  1  0
M  END
> <Molecule Name>
Compound 1

> <EC50 (µM) (Excel)>
49.5

> <Error (µM)>
6.2

> <HTRC CRBN-DDB1 EC50 (µM)>
49.46 ±  6.19

> <EC50 fitting (µM)>
60.01

> <Modèle Fitting>
3PL
$$$$

> <minimizedAffinity>
-8.56625

> <CNNscore>
0.1909553260

> <CNNaffinity>
5.2913966179

> <CNN_VS>
1.0104203224

> <CNNaffinity_variance>
0.7448528409

$$$$
Compound 1


 34 36  0  0  0  0  0  0  0  0999 V2000
   16.5862 -103.7380   22.8901 N   0  0  0  0  0  0  0  0  0  0  0  0
   15.4746 -104.7000   22.6678 C   0  0  0  0  0  0  0  0  0  0  0  0
   17.0914 -102.6139   22.0380 C   0  0  0  0  0  0  0  0  0  0  0  0
   14.5757 -104.7730   21.5096 C   0  0  0  0  0  0  0  0  0  0  0  0
   16.5864 -102.1705   20.7151 C   0  0  0  0  0  0  0  0  0  0  0  0
   14.5748 -103.8998   20.2966 N   0  0  0  0  0  0  0  0  0  0  0  0
   15.4687 -102.7405   19.9403 C   0  0  0  0  0  0  0  0  0  0  0  0
   13.5406 -104.2326   19.3095 C   0  0  0  0  0  0  0  0  0  0  0  0
   13.4543 -103.4177   18.0578 O   0  0  0  0  0  0  0  0  0  0  0  0
   15.2551 -105.7178   23.7725 C   0  0  0  0  0  0  0  0  0  0  0  0
   16.2180 -106.8449   23.9452 O   0  0  0  0  0  0  0  0  0  0  0  0
   14.0446 -105.6009   24.7222 O   0  0  0  0  0  0  0  0  0  0  0  0
   12.6478 -105.3720   24.1731 C   0  0  0  0  0  0  0  0  0  0  0  0
   17.3118 -103.9211   24.1608 C   0  0  0  0  0  0  0  0  0  0  0  0
   20.7147 -105.2935   22.8178 C   0  0  0  0  0  0  0  0  0  0  0  0
   19.3709 -104.6529   22.8461 C   0  0  0  0  0  0  0  0  0  0  0  0
   21.3674 -105.8500   24.0530 C   0  0  0  0  0  0  0  0  0  0  0  0
   18.6556 -104.5617   24.1325 C   0  0  0  0  0  0  0  0  0  0  0  0
   20.6520 -105.7587   25.3393 C   0  0  0  0  0  0  0  0  0  0  0  0
   19.3082 -105.1182   25.3677 C   0  0  0  0  0  0  0  0  0  0  0  0
   20.7525 -102.8758   21.0384 O   0  0  0  0  0  0  0  0  0  0  0  0
   21.4581 -104.1822   20.6291 C   0  0  0  0  0  0  0  0  0  0  0  0
   21.4301 -105.3847   21.5314 N   0  0  0  0  0  0  0  0  0  0  0  0
   22.2100 -104.2989   19.2916 N   0  0  0  0  0  0  0  0  0  0  0  0
   22.1357 -106.6912   21.1221 C   0  0  0  0  0  0  0  0  0  0  0  0
   22.9157 -105.6053   18.8822 C   0  0  0  0  0  0  0  0  0  0  0  0
   22.8877 -106.8079   19.7846 C   0  0  0  0  0  0  0  0  0  0  0  0
   23.6676 -105.7219   17.5447 O   0  0  0  0  0  0  0  0  0  0  0  0
   22.2407 -103.5234   18.6858 H   0  0  0  0  0  0  0  0  0  0  0  0
   12.6130 -105.3700   19.5883 O   0  0  0  0  0  0  0  0  0  0  0  0
   13.0297 -106.7315   19.2312 C   0  0  0  0  0  0  0  0  0  0  0  0
   13.4005 -106.2210   17.8723 C   0  0  0  0  0  0  0  0  0  0  0  0
   13.4464 -108.0930   18.8740 C   0  0  0  0  0  0  0  0  0  0  0  0
   12.6377 -107.1820   20.6136 C   0  0  0  0  0  0  0  0  0  0  0  0
 21 22  2  0
 22 23  1  0
 22 24  1  0
 23 15  1  0
 23 25  1  0
 24 26  1  0
 15 16  2  0
 15 17  1  0
 25 27  1  0
 26 28  2  0
 16 18  1  0
 17 19  2  0
 18 20  2  0
 18 14  1  0
 14  1  1  0
  1  2  1  0
  1  3  1  0
  2 10  1  0
  2  4  1  0
  3  5  1  0
 10 11  2  0
 10 12  1  0
  4  6  1  0
  5  7  1  0
 12 13  1  0
  6  8  1  0
  8  9  2  0
  8 30  1  0
 30 31  1  0
 31 32  1  0
 31 33  1  0
 31 34  1  0
 26 27  1  0
 19 20  1  0
  6  7  1  0
 24 29  1  0
M  END
> <Molecule Name>
Compound 1

> <EC50 (µM) (Excel)>
49.5

> <Error (µM)>
6.2

> <HTRC CRBN-DDB1 EC50 (µM)>
49.46 ±  6.19

> <EC50 fitting (µM)>
60.01

> <Modèle Fitting>
3PL
$$$$

> <minimizedAffinity>
-8.67793

> <CNNscore>
0.1842735410

> <CNNaffinity>
5.7796821594

> <CNN_VS>
1.0650424957

> <CNNaffinity_variance>
0.4751362503

$$$$
Compound 1


 34 36  0  0  0  0  0  0  0  0999 V2000
   18.6356 -104.7809   24.6084 N   0  0  0  0  0  0  0  0  0  0  0  0
   18.1316 -103.8673   23.5493 C   0  0  0  0  0  0  0  0  0  0  0  0
   18.0505 -106.0388   25.1742 C   0  0  0  0  0  0  0  0  0  0  0  0
   16.8882 -103.9935   22.7793 C   0  0  0  0  0  0  0  0  0  0  0  0
   16.7777 -106.7041   24.8012 C   0  0  0  0  0  0  0  0  0  0  0  0
   15.8517 -105.0651   22.8859 N   0  0  0  0  0  0  0  0  0  0  0  0
   15.7999 -106.2729   23.7851 C   0  0  0  0  0  0  0  0  0  0  0  0
   14.7162 -104.9050   21.9695 C   0  0  0  0  0  0  0  0  0  0  0  0
   13.6225 -105.9255   21.9966 O   0  0  0  0  0  0  0  0  0  0  0  0
   19.0133 -102.6713   23.2383 C   0  0  0  0  0  0  0  0  0  0  0  0
   18.6360 -101.3194   23.7458 O   0  0  0  0  0  0  0  0  0  0  0  0
   20.2989 -102.8367   22.4013 O   0  0  0  0  0  0  0  0  0  0  0  0
   20.2365 -103.3742   20.9828 C   0  0  0  0  0  0  0  0  0  0  0  0
   19.9262 -104.3820   25.2002 C   0  0  0  0  0  0  0  0  0  0  0  0
   22.4325 -107.2382   26.1101 C   0  0  0  0  0  0  0  0  0  0  0  0
   21.2822 -106.2970   26.1992 C   0  0  0  0  0  0  0  0  0  0  0  0
   23.3905 -107.2308   24.9510 C   0  0  0  0  0  0  0  0  0  0  0  0
   21.0765 -105.3232   25.1110 C   0  0  0  0  0  0  0  0  0  0  0  0
   23.1847 -106.2571   23.8629 C   0  0  0  0  0  0  0  0  0  0  0  0
   22.0345 -105.3158   23.9519 C   0  0  0  0  0  0  0  0  0  0  0  0
   23.4211 -106.2233   28.7568 O   0  0  0  0  0  0  0  0  0  0  0  0
   23.1331 -107.7192   28.5299 C   0  0  0  0  0  0  0  0  0  0  0  0
   22.6383 -108.2120   27.1983 N   0  0  0  0  0  0  0  0  0  0  0  0
   23.3411 -108.7519   29.6515 N   0  0  0  0  0  0  0  0  0  0  0  0
   22.3502 -109.7079   26.9713 C   0  0  0  0  0  0  0  0  0  0  0  0
   23.0530 -110.2479   29.4247 C   0  0  0  0  0  0  0  0  0  0  0  0
   22.5582 -110.7406   28.0930 C   0  0  0  0  0  0  0  0  0  0  0  0
   23.2610 -111.2805   30.5464 O   0  0  0  0  0  0  0  0  0  0  0  0
   23.6645 -108.4506   30.5312 H   0  0  0  0  0  0  0  0  0  0  0  0
   14.6923 -103.7321   21.0445 O   0  0  0  0  0  0  0  0  0  0  0  0
   13.4518 -103.4193   20.3245 C   0  0  0  0  0  0  0  0  0  0  0  0
   14.0173 -104.1159   19.1246 C   0  0  0  0  0  0  0  0  0  0  0  0
   12.2115 -103.1065   19.6044 C   0  0  0  0  0  0  0  0  0  0  0  0
   12.9406 -102.7335   21.5638 C   0  0  0  0  0  0  0  0  0  0  0  0
 21 22  2  0
 22 23  1  0
 22 24  1  0
 23 15  1  0
 23 25  1  0
 24 26  1  0
 15 16  2  0
 15 17  1  0
 25 27  1  0
 26 28  2  0
 16 18  1  0
 17 19  2  0
 18 20  2  0
 18 14  1  0
 14  1  1  0
  1  2  1  0
  1  3  1  0
  2 10  1  0
  2  4  1  0
  3  5  1  0
 10 11  2  0
 10 12  1  0
  4  6  1  0
  5  7  1  0
 12 13  1  0
  6  8  1  0
  8  9  2  0
  8 30  1  0
 30 31  1  0
 31 32  1  0
 31 33  1  0
 31 34  1  0
 26 27  1  0
 19 20  1  0
  6  7  1  0
 24 29  1  0
M  END
> <Molecule Name>
Compound 1

> <EC50 (µM) (Excel)>
49.5

> <Error (µM)>
6.2

> <HTRC CRBN-DDB1 EC50 (µM)>
49.46 ±  6.19

> <EC50 fitting (µM)>
60.01

> <Modèle Fitting>
3PL
$$$$

> <minimizedAffinity>
-7.35118

> <CNNscore>
0.1726430953

> <CNNaffinity>
5.0197558403

> <CNN_VS>
0.8666262031

> <CNNaffinity_variance>
0.5374735594

$$$$
Compound 1


 34 36  0  0  0  0  0  0  0  0999 V2000
   13.7722 -105.4012   23.3493 N   0  0  0  0  0  0  0  0  0  0  0  0
   13.6617 -104.2523   22.4122 C   0  0  0  0  0  0  0  0  0  0  0  0
   14.9045 -105.8430   24.2253 C   0  0  0  0  0  0  0  0  0  0  0  0
   14.6832 -103.2405   22.1164 C   0  0  0  0  0  0  0  0  0  0  0  0
   16.2417 -105.2178   24.3767 C   0  0  0  0  0  0  0  0  0  0  0  0
   16.0601 -103.1371   22.6884 N   0  0  0  0  0  0  0  0  0  0  0  0
   16.7566 -104.0160   23.6948 C   0  0  0  0  0  0  0  0  0  0  0  0
   16.8433 -102.0022   22.1851 C   0  0  0  0  0  0  0  0  0  0  0  0
   18.2363 -101.8087   22.6953 O   0  0  0  0  0  0  0  0  0  0  0  0
   12.3356 -104.1223   21.6847 C   0  0  0  0  0  0  0  0  0  0  0  0
   11.6863 -105.3339   21.1035 O   0  0  0  0  0  0  0  0  0  0  0  0
   11.6487 -102.7484   21.5382 O   0  0  0  0  0  0  0  0  0  0  0  0
   11.0737 -102.3076   20.2041 C   0  0  0  0  0  0  0  0  0  0  0  0
   12.5662 -106.2463   23.4295 C   0  0  0  0  0  0  0  0  0  0  0  0
   11.2800 -105.2732   26.9883 C   0  0  0  0  0  0  0  0  0  0  0  0
   12.1784 -105.4169   25.8097 C   0  0  0  0  0  0  0  0  0  0  0  0
    9.8721 -105.8017   26.9965 C   0  0  0  0  0  0  0  0  0  0  0  0
   11.6678 -106.1025   24.6081 C   0  0  0  0  0  0  0  0  0  0  0  0
    9.3617 -106.4873   25.7949 C   0  0  0  0  0  0  0  0  0  0  0  0
   10.2600 -106.6311   24.6162 C   0  0  0  0  0  0  0  0  0  0  0  0
    9.5339 -103.2117   28.2977 O   0  0  0  0  0  0  0  0  0  0  0  0
   10.9278 -103.5525   28.8573 C   0  0  0  0  0  0  0  0  0  0  0  0
   11.7905 -104.5876   28.1900 N   0  0  0  0  0  0  0  0  0  0  0  0
   11.4796 -102.8492   30.1098 N   0  0  0  0  0  0  0  0  0  0  0  0
   13.1844 -104.9284   28.7497 C   0  0  0  0  0  0  0  0  0  0  0  0
   12.8736 -103.1899   30.6695 C   0  0  0  0  0  0  0  0  0  0  0  0
   13.7363 -104.2251   30.0021 C   0  0  0  0  0  0  0  0  0  0  0  0
   13.4253 -102.4866   31.9219 O   0  0  0  0  0  0  0  0  0  0  0  0
   10.9311 -102.1682   30.5621 H   0  0  0  0  0  0  0  0  0  0  0  0
   16.2239 -101.0826   21.1838 O   0  0  0  0  0  0  0  0  0  0  0  0
   16.2993 -101.4277   19.7590 C   0  0  0  0  0  0  0  0  0  0  0  0
   14.8028 -101.3783   19.7066 C   0  0  0  0  0  0  0  0  0  0  0  0
   16.3746 -101.7728   18.3341 C   0  0  0  0  0  0  0  0  0  0  0  0
   17.8001 -101.4615   19.8772 C   0  0  0  0  0  0  0  0  0  0  0  0
 21 22  2  0
 22 23  1  0
 22 24  1  0
 23 15  1  0
 23 25  1  0
 24 26  1  0
 15 16  2  0
 15 17  1  0
 25 27  1  0
 26 28  2  0
 16 18  1  0
 17 19  2  0
 18 20  2  0
 18 14  1  0
 14  1  1  0
  1  2  1  0
  1  3  1  0
  2 10  1  0
  2  4  1  0
  3  5  1  0
 10 11  2  0
 10 12  1  0
  4  6  1  0
  5  7  1  0
 12 13  1  0
  6  8  1  0
  8  9  2  0
  8 30  1  0
 30 31  1  0
 31 32  1  0
 31 33  1  0
 31 34  1  0
 26 27  1  0
 19 20  1  0
  6  7  1  0
 24 29  1  0
M  END
> <Molecule Name>
Compound 1

> <EC50 (µM) (Excel)>
49.5

> <Error (µM)>
6.2

> <HTRC CRBN-DDB1 EC50 (µM)>
49.46 ±  6.19

> <EC50 fitting (µM)>
60.01

> <Modèle Fitting>
3PL
$$$$

> <minimizedAffinity>
-8.82482

> <CNNscore>
0.1689619124

> <CNNaffinity>
5.5109839439

> <CNN_VS>
0.9311463833

> <CNNaffinity_variance>
1.4789861441

$$$$
Compound 1


 34 36  0  0  0  0  0  0  0  0999 V2000
   18.0959 -104.4775   24.2577 N   0  0  0  0  0  0  0  0  0  0  0  0
   17.5236 -103.6519   23.1615 C   0  0  0  0  0  0  0  0  0  0  0  0
   17.5565 -105.6909   24.9514 C   0  0  0  0  0  0  0  0  0  0  0  0
   16.2402 -103.8448   22.4759 C   0  0  0  0  0  0  0  0  0  0  0  0
   16.2716 -106.3906   24.7041 C   0  0  0  0  0  0  0  0  0  0  0  0
   15.2223 -104.9108   22.7238 N   0  0  0  0  0  0  0  0  0  0  0  0
   15.2337 -106.0455   23.7151 C   0  0  0  0  0  0  0  0  0  0  0  0
   14.0353 -104.8291   21.8641 C   0  0  0  0  0  0  0  0  0  0  0  0
   12.9554 -105.8507   22.0322 O   0  0  0  0  0  0  0  0  0  0  0  0
   18.3741 -102.4785   22.7094 C   0  0  0  0  0  0  0  0  0  0  0  0
   18.4035 -101.2268   23.5216 O   0  0  0  0  0  0  0  0  0  0  0  0
   19.2113 -102.5645   21.4161 O   0  0  0  0  0  0  0  0  0  0  0  0
   20.1853 -103.7084   21.1978 C   0  0  0  0  0  0  0  0  0  0  0  0
   19.4137 -104.0263   24.7422 C   0  0  0  0  0  0  0  0  0  0  0  0
   21.5107 -107.2884   25.2200 C   0  0  0  0  0  0  0  0  0  0  0  0
   20.5874 -106.2870   24.6185 C   0  0  0  0  0  0  0  0  0  0  0  0
   22.1958 -107.0611   26.5393 C   0  0  0  0  0  0  0  0  0  0  0  0
   20.3369 -105.0277   25.3438 C   0  0  0  0  0  0  0  0  0  0  0  0
   21.9452 -105.8018   27.2644 C   0  0  0  0  0  0  0  0  0  0  0  0
   21.0220 -104.8003   26.6630 C   0  0  0  0  0  0  0  0  0  0  0  0
   19.8909 -109.7037   25.9653 O   0  0  0  0  0  0  0  0  0  0  0  0
   20.9580 -109.7664   24.8566 C   0  0  0  0  0  0  0  0  0  0  0  0
   21.7613 -108.5478   24.4948 N   0  0  0  0  0  0  0  0  0  0  0  0
   21.2354 -111.0701   24.0876 N   0  0  0  0  0  0  0  0  0  0  0  0
   22.8285 -108.6105   23.3860 C   0  0  0  0  0  0  0  0  0  0  0  0
   22.3026 -111.1329   22.9788 C   0  0  0  0  0  0  0  0  0  0  0  0
   23.1059 -109.9142   22.6170 C   0  0  0  0  0  0  0  0  0  0  0  0
   22.5799 -112.4365   22.2098 O   0  0  0  0  0  0  0  0  0  0  0  0
   20.7208 -111.8797   24.3086 H   0  0  0  0  0  0  0  0  0  0  0  0
   13.9473 -103.7317   20.8541 O   0  0  0  0  0  0  0  0  0  0  0  0
   12.6275 -103.1954   20.4998 C   0  0  0  0  0  0  0  0  0  0  0  0
   12.4948 -102.6959   21.9061 C   0  0  0  0  0  0  0  0  0  0  0  0
   11.3078 -102.6591   20.1455 C   0  0  0  0  0  0  0  0  0  0  0  0
   12.8217 -103.7222   19.1025 C   0  0  0  0  0  0  0  0  0  0  0  0
 21 22  2  0
 22 23  1  0
 22 24  1  0
 23 15  1  0
 23 25  1  0
 24 26  1  0
 15 16  2  0
 15 17  1  0
 25 27  1  0
 26 28  2  0
 16 18  1  0
 17 19  2  0
 18 20  2  0
 18 14  1  0
 14  1  1  0
  1  2  1  0
  1  3  1  0
  2 10  1  0
  2  4  1  0
  3  5  1  0
 10 11  2  0
 10 12  1  0
  4  6  1  0
  5  7  1  0
 12 13  1  0
  6  8  1  0
  8  9  2  0
  8 30  1  0
 30 31  1  0
 31 32  1  0
 31 33  1  0
 31 34  1  0
 26 27  1  0
 19 20  1  0
  6  7  1  0
 24 29  1  0
M  END
> <Molecule Name>
Compound 1

> <EC50 (µM) (Excel)>
49.5

> <Error (µM)>
6.2

> <HTRC CRBN-DDB1 EC50 (µM)>
49.46 ±  6.19

> <EC50 fitting (µM)>
60.01

> <Modèle Fitting>
3PL
$$$$

> <minimizedAffinity>
-7.83365

> <CNNscore>
0.1672894955

> <CNNaffinity>
5.1133427620

> <CNN_VS>
0.8554085493

> <CNNaffinity_variance>
0.6267482042

$$$$
Compound 1


 34 36  0  0  0  0  0  0  0  0999 V2000
   14.7150 -104.4515   21.2309 N   0  0  0  0  0  0  0  0  0  0  0  0
   13.2810 -104.5083   20.8421 C   0  0  0  0  0  0  0  0  0  0  0  0
   15.8113 -103.5297   20.7916 C   0  0  0  0  0  0  0  0  0  0  0  0
   12.5779 -103.6344   19.8952 C   0  0  0  0  0  0  0  0  0  0  0  0
   15.7299 -102.4067   19.8252 C   0  0  0  0  0  0  0  0  0  0  0  0
   13.1425 -102.4942   19.1110 N   0  0  0  0  0  0  0  0  0  0  0  0
   14.5453 -101.9454   19.0779 C   0  0  0  0  0  0  0  0  0  0  0  0
   12.1725 -101.8133   18.2449 C   0  0  0  0  0  0  0  0  0  0  0  0
   12.6369 -100.6572   17.4168 O   0  0  0  0  0  0  0  0  0  0  0  0
   12.4619 -105.5994   21.5077 C   0  0  0  0  0  0  0  0  0  0  0  0
   11.6585 -105.2857   22.7256 O   0  0  0  0  0  0  0  0  0  0  0  0
   12.4498 -107.0336   20.9386 O   0  0  0  0  0  0  0  0  0  0  0  0
   12.7371 -107.2870   19.4695 C   0  0  0  0  0  0  0  0  0  0  0  0
   15.1259 -105.4728   22.2123 C   0  0  0  0  0  0  0  0  0  0  0  0
   18.7086 -106.3860   23.4758 C   0  0  0  0  0  0  0  0  0  0  0  0
   17.3724 -106.5093   22.8306 C   0  0  0  0  0  0  0  0  0  0  0  0
   19.1619 -105.1222   24.1531 C   0  0  0  0  0  0  0  0  0  0  0  0
   16.4621 -105.3495   22.8575 C   0  0  0  0  0  0  0  0  0  0  0  0
   18.2515 -103.9625   24.1800 C   0  0  0  0  0  0  0  0  0  0  0  0
   16.9153 -104.0857   23.5347 C   0  0  0  0  0  0  0  0  0  0  0  0
   21.2906 -106.1309   21.9655 O   0  0  0  0  0  0  0  0  0  0  0  0
   20.9162 -107.4337   22.6967 C   0  0  0  0  0  0  0  0  0  0  0  0
   19.6191 -107.5459   23.4490 N   0  0  0  0  0  0  0  0  0  0  0  0
   21.8515 -108.6555   22.6814 N   0  0  0  0  0  0  0  0  0  0  0  0
   19.2446 -108.8487   24.1802 C   0  0  0  0  0  0  0  0  0  0  0  0
   21.4771 -109.9584   23.4126 C   0  0  0  0  0  0  0  0  0  0  0  0
   20.1799 -110.0705   24.1649 C   0  0  0  0  0  0  0  0  0  0  0  0
   22.4124 -111.1802   23.3972 O   0  0  0  0  0  0  0  0  0  0  0  0
   22.7057 -108.6034   22.1947 H   0  0  0  0  0  0  0  0  0  0  0  0
   10.7592 -102.2972   18.2205 O   0  0  0  0  0  0  0  0  0  0  0  0
    9.6702 -101.3175   18.3157 C   0  0  0  0  0  0  0  0  0  0  0  0
    9.7155 -101.4684   19.8056 C   0  0  0  0  0  0  0  0  0  0  0  0
    8.5812 -100.3378   18.4110 C   0  0  0  0  0  0  0  0  0  0  0  0
    9.6749 -101.2110   16.8136 C   0  0  0  0  0  0  0  0  0  0  0  0
 21 22  2  0
 22 23  1  0
 22 24  1  0
 23 15  1  0
 23 25  1  0
 24 26  1  0
 15 16  2  0
 15 17  1  0
 25 27  1  0
 26 28  2  0
 16 18  1  0
 17 19  2  0
 18 20  2  0
 18 14  1  0
 14  1  1  0
  1  2  1  0
  1  3  1  0
  2 10  1  0
  2  4  1  0
  3  5  1  0
 10 11  2  0
 10 12  1  0
  4  6  1  0
  5  7  1  0
 12 13  1  0
  6  8  1  0
  8  9  2  0
  8 30  1  0
 30 31  1  0
 31 32  1  0
 31 33  1  0
 31 34  1  0
 26 27  1  0
 19 20  1  0
  6  7  1  0
 24 29  1  0
M  END
> <Molecule Name>
Compound 1

> <EC50 (µM) (Excel)>
49.5

> <Error (µM)>
6.2

> <HTRC CRBN-DDB1 EC50 (µM)>
49.46 ±  6.19

> <EC50 fitting (µM)>
60.01

> <Modèle Fitting>
3PL
$$$$

> <minimizedAffinity>
-7.52885

> <CNNscore>
0.1656391174

> <CNNaffinity>
5.4035210609

> <CNN_VS>
0.8950344324

> <CNNaffinity_variance>
0.6539365053

$$$$
