Compound 8
Actelion Java MolfileCreator 2.0

  0  0  0  0  0  0              0 V3000
M  V30 BEGIN CTAB
M  V30 COUNTS 28 29 0 0 0
M  V30 BEGIN ATOM
M  V30 1 Cl 0.0 0.0 0.0 0
M  V30 2 S -7.6818 4.9931 0.0 0
M  V30 3 O -9.2182 4.8971 0.0 0
M  V30 4 O -8.378 3.6488 0.0 0
M  V30 5 N -6.3975 4.261 0.0 0
M  V30 6 C -7.9339 6.5055 0.0 0
M  V30 7 C -5.0172 4.8371 0.0 0
M  V30 8 C -6.5295 2.7846 0.0 0
M  V30 9 C -6.9376 7.6338 0.0 0
M  V30 10 C -4.5851 6.3015 0.0 0
M  V30 11 C -5.2932 1.9684 0.0 0
M  V30 12 N -5.4613 7.5498 0.0 0
M  V30 13 C -5.4253 0.4921 0.0 0
M  V30 14 C -3.9489 2.6526 0.0 0
M  V30 15 C -4.189 -0.324 0.0 0
M  V30 16 C -2.7126 1.8364 0.0 0
M  V30 17 C -4.321 -1.8004 0.0 0
M  V30 18 C -2.8446 0.36 0.0 0
M  V30 19 O -3.0847 -2.6166 0.0 0
M  V30 20 N -5.7133 -2.4365 0.0 0
M  V30 21 C -5.8454 -3.9129 0.0 0 CFG=2
M  V30 22 C -7.2377 -4.549 0.0 0
M  V30 23 C -4.6091 -4.7291 0.0 0
M  V30 24 O -8.522 -3.6848 0.0 0
M  V30 25 N -7.3697 -6.0254 0.0 0
M  V30 26 C -4.7411 -6.2054 0.0 0
M  V30 27 C -6.1334 -6.8416 0.0 0
M  V30 28 O -6.2655 -8.3179 0.0 0
M  V30 END ATOM
M  V30 BEGIN BOND
M  V30 1 2 2 3
M  V30 2 2 2 4
M  V30 3 1 2 5
M  V30 4 1 2 6
M  V30 5 1 5 7
M  V30 6 1 5 8
M  V30 7 1 6 9
M  V30 8 1 7 10
M  V30 9 1 8 11
M  V30 10 1 9 12
M  V30 11 2 11 13
M  V30 12 1 11 14
M  V30 13 1 13 15
M  V30 14 2 14 16
M  V30 15 1 15 17
M  V30 16 2 15 18
M  V30 17 2 17 19
M  V30 18 1 17 20
M  V30 19 1 21 20 CFG=1
M  V30 20 1 21 22
M  V30 21 1 21 23
M  V30 22 2 22 24
M  V30 23 1 22 25
M  V30 24 1 23 26
M  V30 25 1 25 27
M  V30 26 2 27 28
M  V30 27 1 10 12
M  V30 28 1 16 18
M  V30 29 1 26 27
M  V30 END BOND
M  V30 BEGIN COLLECTION
M  V30 MDLV30/STERAC1 ATOMS=(1 21)
M  V30 END COLLECTION
M  V30 END CTAB
M  END
>  <Molecule Name>
Compound 8

>  <EC50 (µM) (Excel)>
6.8

>  <Error (µM)>
1.0

>  <HTRC CRBN-DDB1 EC50 (µM)>
6.77 ±  1.02

>  <EC50 fitting (µM)>
7.19

>  <Modèle Fitting>
4PL
$$$$
