Compound 11
Actelion Java MolfileCreator 2.0

  0  0  0  0  0  0              0 V3000
M  V30 BEGIN CTAB
M  V30 COUNTS 35 38 0 0 0
M  V30 BEGIN ATOM
M  V30 1 S 0.0 0.0 0.0 0
M  V30 2 O -0.8707 1.2643 0.0 0
M  V30 3 O -1.5267 -0.0834 0.0 0
M  V30 4 N -0.0238 -1.479 0.0 0
M  V30 5 C 1.145 0.9541 0.0 0
M  V30 6 C 1.1211 -2.3854 0.0 0
M  V30 7 C -1.3955 -2.1111 0.0 0
M  V30 8 C 2.5882 0.644 0.0 0
M  V30 9 C 2.5644 -2.0276 0.0 0
M  V30 10 C -1.5267 -3.5901 0.0 0
M  V30 11 N 3.2204 -0.6798 0.0 0
M  V30 12 C -2.8983 -4.2223 0.0 0
M  V30 13 C -0.3101 -4.4131 0.0 0
M  V30 14 C 4.6994 -0.656 0.0 0
M  V30 15 C -3.0295 -5.7013 0.0 0
M  V30 16 C -0.4413 -5.8921 0.0 0
M  V30 17 O 5.4389 -1.9322 0.0 0
M  V30 18 C 5.4269 0.6679 0.0 0
M  V30 19 C -4.4012 -6.3334 0.0 0
M  V30 20 C -1.8129 -6.5243 0.0 0
M  V30 21 N 6.9059 0.6917 0.0 0
M  V30 22 C 4.6517 1.9918 0.0 0
M  V30 23 O -4.5324 -7.8124 0.0 0
M  V30 24 N -5.6655 -5.4627 0.0 0
M  V30 25 C 7.6335 2.0157 0.0 0
M  V30 26 C 5.3792 3.3158 0.0 0
M  V30 27 C -7.0371 -6.0949 0.0 0 CFG=2
M  V30 28 C 6.8582 3.3396 0.0 0
M  V30 29 C -8.3015 -5.2242 0.0 0
M  V30 30 C -7.1683 -7.5739 0.0 0
M  V30 31 O -8.218 -3.6975 0.0 0
M  V30 32 N -9.6731 -5.8563 0.0 0
M  V30 33 C -8.54 -8.206 0.0 0
M  V30 34 C -9.8043 -7.3353 0.0 0
M  V30 35 O -11.176 -7.9675 0.0 0
M  V30 END ATOM
M  V30 BEGIN BOND
M  V30 1 2 1 2
M  V30 2 2 1 3
M  V30 3 1 1 4
M  V30 4 1 1 5
M  V30 5 1 4 6
M  V30 6 1 4 7
M  V30 7 1 5 8
M  V30 8 1 6 9
M  V30 9 1 7 10
M  V30 10 1 8 11
M  V30 11 2 10 12
M  V30 12 1 10 13
M  V30 13 1 11 14
M  V30 14 1 12 15
M  V30 15 2 13 16
M  V30 16 2 14 17
M  V30 17 1 14 18
M  V30 18 1 15 19
M  V30 19 2 15 20
M  V30 20 2 18 21
M  V30 21 1 18 22
M  V30 22 2 19 23
M  V30 23 1 19 24
M  V30 24 1 21 25
M  V30 25 2 22 26
M  V30 26 1 27 24 CFG=1
M  V30 27 2 25 28
M  V30 28 1 27 29
M  V30 29 1 27 30
M  V30 30 2 29 31
M  V30 31 1 29 32
M  V30 32 1 30 33
M  V30 33 1 32 34
M  V30 34 2 34 35
M  V30 35 1 9 11
M  V30 36 1 16 20
M  V30 37 1 26 28
M  V30 38 1 33 34
M  V30 END BOND
M  V30 BEGIN COLLECTION
M  V30 MDLV30/STERAC1 ATOMS=(1 27)
M  V30 END COLLECTION
M  V30 END CTAB
M  END
>  <Molecule Name>
Compound 11

>  <EC50 (µM) (Excel)>
37.7

>  <Error (µM)>
0.8

>  <HTRC CRBN-DDB1 EC50 (µM)>
37.72 ±  0.78

>  <EC50 fitting (µM)>
52.96

>  <Modèle Fitting>
3PL
$$$$
