Compound 10
Actelion Java MolfileCreator 2.0

  0  0  0  0  0  0              0 V3000
M  V30 BEGIN CTAB
M  V30 COUNTS 37 40 0 0 0
M  V30 BEGIN ATOM
M  V30 1 S 0.0 0.0 0.0 0
M  V30 2 O -0.8708 1.2645 0.0 0
M  V30 3 O -1.5269 -0.0835 0.0 0
M  V30 4 N -0.0238 -1.4792 0.0 0
M  V30 5 C 1.1452 0.9543 0.0 0
M  V30 6 C 1.1213 -2.3858 0.0 0
M  V30 7 C -1.3957 -2.1115 0.0 0
M  V30 8 C 2.5886 0.6441 0.0 0
M  V30 9 C 2.5648 -2.028 0.0 0
M  V30 10 C -1.5269 -3.5907 0.0 0
M  V30 11 N 3.2209 -0.6799 0.0 0
M  V30 12 C -2.8988 -4.223 0.0 0
M  V30 13 C -0.3101 -4.4138 0.0 0
M  V30 14 C 4.7002 -0.6561 0.0 0
M  V30 15 C -3.03 -5.7022 0.0 0
M  V30 16 C -0.4413 -5.8931 0.0 0
M  V30 17 O 5.4398 -1.9325 0.0 0
M  V30 18 C 5.4279 0.668 0.0 0
M  V30 19 C -4.4019 -6.3345 0.0 0
M  V30 20 C -1.8132 -6.5254 0.0 0
M  V30 21 O 6.9071 0.6919 0.0 0
M  V30 22 O -4.5331 -7.8137 0.0 0
M  V30 23 N -5.6664 -5.4636 0.0 0
M  V30 24 C 7.6348 2.016 0.0 0
M  V30 25 C -7.0383 -6.0959 0.0 0 CFG=2
M  V30 26 C 9.1141 2.0399 0.0 0
M  V30 27 C 6.8594 3.3402 0.0 0
M  V30 28 C -8.3029 -5.2251 0.0 0
M  V30 29 C -7.1696 -7.5752 0.0 0
M  V30 30 C 9.8418 3.3641 0.0 0
M  V30 31 C 7.5871 4.6644 0.0 0
M  V30 32 O -8.2193 -3.6981 0.0 0
M  V30 33 N -9.6747 -5.8573 0.0 0
M  V30 34 C -8.5414 -8.2074 0.0 0
M  V30 35 C 9.0663 4.6882 0.0 0
M  V30 36 C -9.806 -7.3366 0.0 0
M  V30 37 O -11.1779 -7.9688 0.0 0
M  V30 END ATOM
M  V30 BEGIN BOND
M  V30 1 2 1 2
M  V30 2 2 1 3
M  V30 3 1 1 4
M  V30 4 1 1 5
M  V30 5 1 4 6
M  V30 6 1 4 7
M  V30 7 1 5 8
M  V30 8 1 6 9
M  V30 9 1 7 10
M  V30 10 1 8 11
M  V30 11 2 10 12
M  V30 12 1 10 13
M  V30 13 1 11 14
M  V30 14 1 12 15
M  V30 15 2 13 16
M  V30 16 2 14 17
M  V30 17 1 14 18
M  V30 18 1 15 19
M  V30 19 2 15 20
M  V30 20 1 18 21
M  V30 21 2 19 22
M  V30 22 1 19 23
M  V30 23 1 21 24
M  V30 24 1 25 23 CFG=1
M  V30 25 2 24 26
M  V30 26 1 24 27
M  V30 27 1 25 28
M  V30 28 1 25 29
M  V30 29 1 26 30
M  V30 30 2 27 31
M  V30 31 2 28 32
M  V30 32 1 28 33
M  V30 33 1 29 34
M  V30 34 2 30 35
M  V30 35 1 33 36
M  V30 36 2 36 37
M  V30 37 1 9 11
M  V30 38 1 16 20
M  V30 39 1 31 35
M  V30 40 1 34 36
M  V30 END BOND
M  V30 BEGIN COLLECTION
M  V30 MDLV30/STERAC1 ATOMS=(1 25)
M  V30 END COLLECTION
M  V30 END CTAB
M  END
>  <Molecule Name>
Compound 10

>  <EC50 (µM) (Excel)>
14.3

>  <Error (µM)>
1.3

>  <HTRC CRBN-DDB1 EC50 (µM)>
14.29 ±  1.32

>  <EC50 fitting (µM)>
23.96

>  <Modèle Fitting>
3PL
$$$$
