Compound 12
Actelion Java MolfileCreator 2.0

  0  0  0  0  0  0              0 V3000
M  V30 BEGIN CTAB
M  V30 COUNTS 38 41 0 0 0
M  V30 BEGIN ATOM
M  V30 1 S 0.0 0.0 0.0 0
M  V30 2 O -0.8733 1.2681 0.0 0
M  V30 3 O -1.5313 -0.0837 0.0 0
M  V30 4 N -0.0239 -1.4834 0.0 0
M  V30 5 C 1.1484 0.957 0.0 0
M  V30 6 C 1.1245 -2.3926 0.0 0
M  V30 7 C -1.3997 -2.1175 0.0 0
M  V30 8 C 2.596 0.646 0.0 0
M  V30 9 C 2.5721 -2.0337 0.0 0
M  V30 10 C -1.5313 -3.6009 0.0 0
M  V30 11 N 3.2301 -0.6819 0.0 0
M  V30 12 C -2.9071 -4.235 0.0 0
M  V30 13 C -0.311 -4.4264 0.0 0
M  V30 14 C 4.7135 -0.6579 0.0 0
M  V30 15 C -3.0387 -5.7185 0.0 0
M  V30 16 C -0.4426 -5.9099 0.0 0
M  V30 17 O 5.4433 0.6699 0.0 0
M  V30 18 C 5.4553 -1.938 0.0 0
M  V30 19 C -4.4145 -6.3525 0.0 0
M  V30 20 C -1.8184 -6.544 0.0 0
M  V30 21 C 6.9388 -1.9141 0.0 0
M  V30 22 O -4.5461 -7.836 0.0 0
M  V30 23 N -5.6826 -5.4792 0.0 0
M  V30 24 O 7.6805 -3.1942 0.0 0
M  V30 25 C -7.0584 -6.1133 0.0 0 CFG=2
M  V30 26 C 9.164 -3.1703 0.0 0
M  V30 27 C -8.3265 -5.2399 0.0 0
M  V30 28 C -7.19 -7.5967 0.0 0
M  V30 29 C 9.9057 -4.4504 0.0 0
M  V30 30 C 9.8937 -1.8423 0.0 0
M  V30 31 O -8.2428 -3.7086 0.0 0
M  V30 32 N -9.7023 -5.874 0.0 0
M  V30 33 C -8.5658 -8.2308 0.0 0
M  V30 34 C 11.3892 -4.4264 0.0 0
M  V30 35 C 11.3772 -1.8184 0.0 0
M  V30 36 C -9.8339 -7.3575 0.0 0
M  V30 37 C 12.1189 -3.0985 0.0 0
M  V30 38 O -11.2097 -7.9915 0.0 0
M  V30 END ATOM
M  V30 BEGIN BOND
M  V30 1 2 1 2
M  V30 2 2 1 3
M  V30 3 1 1 4
M  V30 4 1 1 5
M  V30 5 1 4 6
M  V30 6 1 4 7
M  V30 7 1 5 8
M  V30 8 1 6 9
M  V30 9 1 7 10
M  V30 10 1 8 11
M  V30 11 2 10 12
M  V30 12 1 10 13
M  V30 13 1 11 14
M  V30 14 1 12 15
M  V30 15 2 13 16
M  V30 16 2 14 17
M  V30 17 1 14 18
M  V30 18 1 15 19
M  V30 19 2 15 20
M  V30 20 1 18 21
M  V30 21 2 19 22
M  V30 22 1 19 23
M  V30 23 1 21 24
M  V30 24 1 25 23 CFG=1
M  V30 25 1 24 26
M  V30 26 1 25 27
M  V30 27 1 25 28
M  V30 28 2 26 29
M  V30 29 1 26 30
M  V30 30 2 27 31
M  V30 31 1 27 32
M  V30 32 1 28 33
M  V30 33 1 29 34
M  V30 34 2 30 35
M  V30 35 1 32 36
M  V30 36 2 34 37
M  V30 37 2 36 38
M  V30 38 1 9 11
M  V30 39 1 16 20
M  V30 40 1 33 36
M  V30 41 1 35 37
M  V30 END BOND
M  V30 BEGIN COLLECTION
M  V30 MDLV30/STERAC1 ATOMS=(1 25)
M  V30 END COLLECTION
M  V30 END CTAB
M  END
>  <Molecule Name>
Compound 12

>  <EC50 (µM) (Excel)>
61.9

>  <Error (µM)>
8.1

>  <HTRC CRBN-DDB1 EC50 (µM)>
61.88 ±  8.05

>  <EC50 fitting (µM)>
111.51

>  <Modèle Fitting>
4PL
$$$$
