Compound 1
Actelion Java MolfileCreator 2.0

  0  0  0  0  0  0              0 V3000
M  V30 BEGIN CTAB
M  V30 COUNTS 33 35 0 0 0
M  V30 BEGIN ATOM
M  V30 1 O 0.0 0.0 0.0 0
M  V30 2 C -0.1318 1.5345 0.0 0
M  V30 3 N 1.0909 2.4097 0.0 0
M  V30 4 N -1.5105 2.2179 0.0 0
M  V30 5 C 2.4217 1.7743 0.0 0
M  V30 6 C 0.9591 3.9443 0.0 0
M  V30 7 C -1.6424 3.7525 0.0 0
M  V30 8 C 2.5056 0.2877 0.0 0
M  V30 9 C 3.6446 2.6495 0.0 0
M  V30 10 C -0.4196 4.6277 0.0 0
M  V30 11 O -3.0211 4.4358 0.0 0
M  V30 12 C 3.8364 -0.3476 0.0 0
M  V30 13 C 4.9753 2.0141 0.0 0
M  V30 14 C 5.0593 0.5275 0.0 0
M  V30 15 C 3.9203 -1.8342 0.0 0
M  V30 16 N 5.2511 -2.4697 0.0 0
M  V30 17 C 5.2271 -3.9563 0.0 0 CFG=2
M  V30 18 C 6.402 -1.5105 0.0 0
M  V30 19 C 3.8484 -4.5917 0.0 0
M  V30 20 C 6.378 -4.8674 0.0 0
M  V30 21 C 7.8527 -1.8223 0.0 0
M  V30 22 O 3.7165 -6.0783 0.0 0
M  V30 23 O 2.5776 -3.7165 0.0 0
M  V30 24 N 7.8287 -4.5078 0.0 0
M  V30 25 C 8.4881 -3.153 0.0 0
M  V30 26 C 1.1988 -4.3519 0.0 0
M  V30 27 C 8.7398 -5.6587 0.0 0
M  V30 28 O 10.2145 -5.4069 0.0 0
M  V30 29 O 8.1644 -7.0374 0.0 0
M  V30 30 C 9.0755 -8.1884 0.0 0
M  V30 31 C 10.2265 -7.2292 0.0 0
M  V30 32 C 9.9867 -9.3393 0.0 0
M  V30 33 C 7.8766 -9.0995 0.0 0
M  V30 END ATOM
M  V30 BEGIN BOND
M  V30 1 2 1 2
M  V30 2 1 2 3
M  V30 3 1 2 4
M  V30 4 1 3 5
M  V30 5 1 3 6
M  V30 6 1 4 7
M  V30 7 2 5 8
M  V30 8 1 5 9
M  V30 9 1 6 10
M  V30 10 2 7 11
M  V30 11 1 8 12
M  V30 12 2 9 13
M  V30 13 2 12 14
M  V30 14 1 12 15
M  V30 15 1 15 16
M  V30 16 1 16 17
M  V30 17 1 16 18
M  V30 18 1 17 19 CFG=1
M  V30 19 1 17 20
M  V30 20 1 18 21
M  V30 21 2 19 22
M  V30 22 1 19 23
M  V30 23 1 20 24
M  V30 24 1 21 25
M  V30 25 1 23 26
M  V30 26 1 24 27
M  V30 27 2 27 28
M  V30 28 1 27 29
M  V30 29 1 29 30
M  V30 30 1 30 31
M  V30 31 1 30 32
M  V30 32 1 30 33
M  V30 33 1 7 10
M  V30 34 1 13 14
M  V30 35 1 24 25
M  V30 END BOND
M  V30 BEGIN COLLECTION
M  V30 MDLV30/STERAC1 ATOMS=(1 17)
M  V30 END COLLECTION
M  V30 END CTAB
M  END
>  <Molecule Name>
Compound 1

>  <EC50 (µM) (Excel)>
49.5

>  <Error (µM)>
6.2

>  <HTRC CRBN-DDB1 EC50 (µM)>
49.46 ±  6.19

>  <EC50 fitting (µM)>
60.01

>  <Modèle Fitting>
3PL
$$$$
