Compound 10


 39 42  0  0  0  0  0  0  0  0999 V2000
   10.8838 -106.4548   25.9664 C   0  0  0  0  0  0  0  0  0  0  0  0
   11.0189 -106.5290   23.4400 S   0  0  0  0  0  0  0  0  0  0  0  0
    9.7779 -107.1841   22.8171 O   0  0  0  0  0  0  0  0  0  0  0  0
    9.8736 -107.0527   24.3074 O   0  0  0  0  0  0  0  0  0  0  0  0
   11.6632 -106.1357   24.7123 N   0  0  0  0  0  0  0  0  0  0  0  0
   11.4785 -106.3786   22.0299 C   0  0  0  0  0  0  0  0  0  0  0  0
   12.9563 -105.4798   24.8874 C   0  0  0  0  0  0  0  0  0  0  0  0
   12.7355 -105.7779   21.5414 C   0  0  0  0  0  0  0  0  0  0  0  0
   13.9142 -105.0605   23.8298 C   0  0  0  0  0  0  0  0  0  0  0  0
   13.8185 -105.1920   22.3394 N   0  0  0  0  0  0  0  0  0  0  0  0
   14.9537 -104.6692   21.5476 C   0  0  0  0  0  0  0  0  0  0  0  0
   16.0984 -104.0578   22.2491 O   0  0  0  0  0  0  0  0  0  0  0  0
   14.9242 -104.7685   20.0403 C   0  0  0  0  0  0  0  0  0  0  0  0
   14.8710 -103.5353   19.2249 O   0  0  0  0  0  0  0  0  0  0  0  0
   13.5356 -102.9022   18.9106 C   0  0  0  0  0  0  0  0  0  0  0  0
   12.3821 -103.1404   19.8059 C   0  0  0  0  0  0  0  0  0  0  0  0
   13.3580 -102.0131   17.6726 C   0  0  0  0  0  0  0  0  0  0  0  0
   11.0467 -102.5073   19.4916 C   0  0  0  0  0  0  0  0  0  0  0  0
   12.0226 -101.3799   17.3582 C   0  0  0  0  0  0  0  0  0  0  0  0
   10.8692 -101.6182   18.2536 C   0  0  0  0  0  0  0  0  0  0  0  0
   10.7376 -105.4255   27.0268 C   0  0  0  0  0  0  0  0  0  0  0  0
   11.8516 -105.2114   28.0243 C   0  0  0  0  0  0  0  0  0  0  0  0
    9.5030 -104.6313   27.0834 C   0  0  0  0  0  0  0  0  0  0  0  0
   11.7055 -104.1821   29.0847 C   0  0  0  0  0  0  0  0  0  0  0  0
    9.3569 -103.6020   28.1438 C   0  0  0  0  0  0  0  0  0  0  0  0
   10.4709 -103.3879   29.1413 C   0  0  0  0  0  0  0  0  0  0  0  0
   12.8195 -103.9681   30.0822 C   0  0  0  0  0  0  0  0  0  0  0  0
   14.0240 -104.8358   30.0413 O   0  0  0  0  0  0  0  0  0  0  0  0
   12.7214 -102.8607   31.1412 N   0  0  0  0  0  0  0  0  0  0  0  0
   11.9239 -102.2841   31.1705 H   0  0  0  0  0  0  0  0  0  0  0  0
   13.8354 -102.6466   32.1387 C   0  0  0  0  0  0  0  0  0  0  0  0
   15.2191 -102.1669   31.6777 C   0  0  0  0  0  0  0  0  0  0  0  0
   13.5937 -102.9018   33.5817 C   0  0  0  0  0  0  0  0  0  0  0  0
   15.5166 -101.8907   30.2032 O   0  0  0  0  0  0  0  0  0  0  0  0
   16.3331 -101.9528   32.6750 N   0  0  0  0  0  0  0  0  0  0  0  0
   14.7077 -102.6877   34.5790 C   0  0  0  0  0  0  0  0  0  0  0  0
   16.0914 -102.2080   34.1180 C   0  0  0  0  0  0  0  0  0  0  0  0
   17.2055 -101.9939   35.1154 O   0  0  0  0  0  0  0  0  0  0  0  0
   17.2169 -101.6450   32.3694 H   0  0  0  0  0  0  0  0  0  0  0  0
  2  3  2  0
  2  4  2  0
  2  5  1  0
  2  6  1  0
  5  7  1  0
  5  1  1  0
  6  8  1  0
  7  9  1  0
  1 21  1  0
  8 10  1  0
 21 22  2  0
 21 23  1  0
 10 11  1  0
 22 24  1  0
 23 25  2  0
 11 12  2  0
 11 13  1  0
 24 27  1  0
 24 26  2  0
 13 14  1  0
 27 28  2  0
 27 29  1  0
 14 15  1  0
 31 29  1  0
 15 16  2  0
 15 17  1  0
 31 32  1  0
 31 33  1  0
 16 18  1  0
 17 19  2  0
 32 34  2  0
 32 35  1  0
 33 36  1  0
 18 20  2  0
 35 37  1  0
 37 38  2  0
  9 10  1  0
 25 26  1  0
 19 20  1  0
 36 37  1  0
 29 30  1  0
 35 39  1  0
M  END
> <Molecule Name>
Compound 10

> <EC50 (µM) (Excel)>
14.3

> <Error (µM)>
1.3

> <HTRC CRBN-DDB1 EC50 (µM)>
14.29 ±  1.32

> <EC50 fitting (µM)>
23.96

> <Modèle Fitting>
3PL
$$$$

> <minimizedAffinity>
-11.68664

> <CNNscore>
0.8442083597

> <CNNaffinity>
7.5354514122

> <CNN_VS>
6.3614912033

> <CNNaffinity_variance>
0.2709708512

$$$$
Compound 10


 39 42  0  0  0  0  0  0  0  0999 V2000
    9.9327 -106.4430   25.8541 C   0  0  0  0  0  0  0  0  0  0  0  0
    9.5500 -104.4900   27.4180 S   0  0  0  0  0  0  0  0  0  0  0  0
    8.1770 -103.8388   27.1989 O   0  0  0  0  0  0  0  0  0  0  0  0
    8.5787 -105.0142   26.3596 O   0  0  0  0  0  0  0  0  0  0  0  0
   10.4575 -105.5684   26.9684 N   0  0  0  0  0  0  0  0  0  0  0  0
    9.7218 -103.4511   28.4731 C   0  0  0  0  0  0  0  0  0  0  0  0
   11.7909 -105.8771   27.4780 C   0  0  0  0  0  0  0  0  0  0  0  0
   10.8829 -103.2373   29.3596 C   0  0  0  0  0  0  0  0  0  0  0  0
   12.5350 -105.1796   28.5604 C   0  0  0  0  0  0  0  0  0  0  0  0
   12.1332 -104.0041   29.3997 N   0  0  0  0  0  0  0  0  0  0  0  0
   13.1098 -103.5375   30.4084 C   0  0  0  0  0  0  0  0  0  0  0  0
   14.4024 -104.2372   30.5351 O   0  0  0  0  0  0  0  0  0  0  0  0
   12.7710 -102.3576   31.2892 C   0  0  0  0  0  0  0  0  0  0  0  0
   13.8325 -101.4026   31.6763 O   0  0  0  0  0  0  0  0  0  0  0  0
   14.7862 -101.7554   32.7937 C   0  0  0  0  0  0  0  0  0  0  0  0
   16.1690 -102.1728   32.4734 C   0  0  0  0  0  0  0  0  0  0  0  0
   14.3401 -101.6868   34.2604 C   0  0  0  0  0  0  0  0  0  0  0  0
   17.1228 -102.5256   33.5909 C   0  0  0  0  0  0  0  0  0  0  0  0
   15.2939 -102.0396   35.3779 C   0  0  0  0  0  0  0  0  0  0  0  0
   16.6765 -102.4570   35.0575 C   0  0  0  0  0  0  0  0  0  0  0  0
   10.7285 -106.6131   24.6119 C   0  0  0  0  0  0  0  0  0  0  0  0
   12.1756 -106.1810   24.5820 C   0  0  0  0  0  0  0  0  0  0  0  0
   10.0862 -107.2027   23.4296 C   0  0  0  0  0  0  0  0  0  0  0  0
   12.9715 -106.3511   23.3399 C   0  0  0  0  0  0  0  0  0  0  0  0
   10.8821 -107.3729   22.1873 C   0  0  0  0  0  0  0  0  0  0  0  0
   12.3293 -106.9407   22.1574 C   0  0  0  0  0  0  0  0  0  0  0  0
   14.4186 -105.9189   23.3099 C   0  0  0  0  0  0  0  0  0  0  0  0
   14.9622 -105.2420   22.1052 O   0  0  0  0  0  0  0  0  0  0  0  0
   15.3373 -106.1719   24.5139 N   0  0  0  0  0  0  0  0  0  0  0  0
   14.9794 -106.6205   25.3138 H   0  0  0  0  0  0  0  0  0  0  0  0
   16.7844 -105.7397   24.4840 C   0  0  0  0  0  0  0  0  0  0  0  0
   17.9110 -106.7555   24.7214 C   0  0  0  0  0  0  0  0  0  0  0  0
   17.1253 -104.3181   24.2225 C   0  0  0  0  0  0  0  0  0  0  0  0
   17.6106 -108.2299   24.9946 O   0  0  0  0  0  0  0  0  0  0  0  0
   19.3581 -106.3234   24.6916 N   0  0  0  0  0  0  0  0  0  0  0  0
   18.5723 -103.8860   24.1926 C   0  0  0  0  0  0  0  0  0  0  0  0
   19.6989 -104.9018   24.4300 C   0  0  0  0  0  0  0  0  0  0  0  0
   21.1461 -104.4697   24.4002 O   0  0  0  0  0  0  0  0  0  0  0  0
   20.0733 -106.9824   24.8450 H   0  0  0  0  0  0  0  0  0  0  0  0
  2  3  2  0
  2  4  2  0
  2  5  1  0
  2  6  1  0
  5  7  1  0
  5  1  1  0
  6  8  1  0
  7  9  1  0
  1 21  1  0
  8 10  1  0
 21 22  2  0
 21 23  1  0
 10 11  1  0
 22 24  1  0
 23 25  2  0
 11 12  2  0
 11 13  1  0
 24 27  1  0
 24 26  2  0
 13 14  1  0
 27 28  2  0
 27 29  1  0
 14 15  1  0
 31 29  1  0
 15 16  2  0
 15 17  1  0
 31 32  1  0
 31 33  1  0
 16 18  1  0
 17 19  2  0
 32 34  2  0
 32 35  1  0
 33 36  1  0
 18 20  2  0
 35 37  1  0
 37 38  2  0
  9 10  1  0
 25 26  1  0
 19 20  1  0
 36 37  1  0
 29 30  1  0
 35 39  1  0
M  END
> <Molecule Name>
Compound 10

> <EC50 (µM) (Excel)>
14.3

> <Error (µM)>
1.3

> <HTRC CRBN-DDB1 EC50 (µM)>
14.29 ±  1.32

> <EC50 fitting (µM)>
23.96

> <Modèle Fitting>
3PL
$$$$

> <minimizedAffinity>
-11.15973

> <CNNscore>
0.4261065125

> <CNNaffinity>
6.7462506294

> <CNN_VS>
2.8746213913

> <CNNaffinity_variance>
0.3855305910

$$$$
Compound 10


 39 42  0  0  0  0  0  0  0  0999 V2000
   10.5581 -106.7694   26.2801 C   0  0  0  0  0  0  0  0  0  0  0  0
   12.4587 -105.8473   24.8857 S   0  0  0  0  0  0  0  0  0  0  0  0
   13.3555 -104.8979   25.6928 O   0  0  0  0  0  0  0  0  0  0  0  0
   12.1754 -105.5412   26.3569 O   0  0  0  0  0  0  0  0  0  0  0  0
   11.2622 -106.7154   24.9447 N   0  0  0  0  0  0  0  0  0  0  0  0
   13.3904 -105.5504   23.7606 C   0  0  0  0  0  0  0  0  0  0  0  0
   10.6928 -107.5173   23.8649 C   0  0  0  0  0  0  0  0  0  0  0  0
   13.3442 -106.0696   22.3793 C   0  0  0  0  0  0  0  0  0  0  0  0
   11.1855 -107.6421   22.4673 C   0  0  0  0  0  0  0  0  0  0  0  0
   12.3657 -106.9987   21.8032 N   0  0  0  0  0  0  0  0  0  0  0  0
   12.5940 -107.3290   20.3792 C   0  0  0  0  0  0  0  0  0  0  0  0
   11.6690 -108.2550   19.6987 O   0  0  0  0  0  0  0  0  0  0  0  0
   13.7650 -106.7165   19.6468 C   0  0  0  0  0  0  0  0  0  0  0  0
   13.5528 -105.5334   18.7842 O   0  0  0  0  0  0  0  0  0  0  0  0
   14.1476 -104.2019   19.1796 C   0  0  0  0  0  0  0  0  0  0  0  0
   13.6470 -102.9595   18.5513 C   0  0  0  0  0  0  0  0  0  0  0  0
   15.2666 -104.1195   20.2263 C   0  0  0  0  0  0  0  0  0  0  0  0
   14.2418 -101.6280   18.9466 C   0  0  0  0  0  0  0  0  0  0  0  0
   15.8614 -102.7879   20.6217 C   0  0  0  0  0  0  0  0  0  0  0  0
   15.3608 -101.5457   19.9934 C   0  0  0  0  0  0  0  0  0  0  0  0
   10.5461 -105.5713   27.1574 C   0  0  0  0  0  0  0  0  0  0  0  0
   11.6578 -105.3624   28.1586 C   0  0  0  0  0  0  0  0  0  0  0  0
    9.4447 -104.6073   27.0317 C   0  0  0  0  0  0  0  0  0  0  0  0
   11.6458 -104.1643   29.0359 C   0  0  0  0  0  0  0  0  0  0  0  0
    9.4327 -103.4092   27.9091 C   0  0  0  0  0  0  0  0  0  0  0  0
   10.5444 -103.2003   28.9103 C   0  0  0  0  0  0  0  0  0  0  0  0
   12.7575 -103.9555   30.0372 C   0  0  0  0  0  0  0  0  0  0  0  0
   13.9628 -104.8219   29.9936 O   0  0  0  0  0  0  0  0  0  0  0  0
   12.6560 -102.8548   31.1028 N   0  0  0  0  0  0  0  0  0  0  0  0
   11.8581 -102.2790   31.1339 H   0  0  0  0  0  0  0  0  0  0  0  0
   13.7677 -102.6459   32.1040 C   0  0  0  0  0  0  0  0  0  0  0  0
   15.1451 -102.1398   31.6521 C   0  0  0  0  0  0  0  0  0  0  0  0
   13.5299 -102.9320   33.5418 C   0  0  0  0  0  0  0  0  0  0  0  0
   15.4384 -101.8314   30.1832 O   0  0  0  0  0  0  0  0  0  0  0  0
   16.2567 -101.9309   32.6532 N   0  0  0  0  0  0  0  0  0  0  0  0
   14.6415 -102.7231   34.5429 C   0  0  0  0  0  0  0  0  0  0  0  0
   16.0189 -102.2170   34.0910 C   0  0  0  0  0  0  0  0  0  0  0  0
   17.1306 -102.0081   35.0921 O   0  0  0  0  0  0  0  0  0  0  0  0
   17.1363 -101.6061   32.3534 H   0  0  0  0  0  0  0  0  0  0  0  0
  2  3  2  0
  2  4  2  0
  2  5  1  0
  2  6  1  0
  5  7  1  0
  5  1  1  0
  6  8  1  0
  7  9  1  0
  1 21  1  0
  8 10  1  0
 21 22  2  0
 21 23  1  0
 10 11  1  0
 22 24  1  0
 23 25  2  0
 11 12  2  0
 11 13  1  0
 24 27  1  0
 24 26  2  0
 13 14  1  0
 27 28  2  0
 27 29  1  0
 14 15  1  0
 31 29  1  0
 15 16  2  0
 15 17  1  0
 31 32  1  0
 31 33  1  0
 16 18  1  0
 17 19  2  0
 32 34  2  0
 32 35  1  0
 33 36  1  0
 18 20  2  0
 35 37  1  0
 37 38  2  0
  9 10  1  0
 25 26  1  0
 19 20  1  0
 36 37  1  0
 29 30  1  0
 35 39  1  0
M  END
> <Molecule Name>
Compound 10

> <EC50 (µM) (Excel)>
14.3

> <Error (µM)>
1.3

> <HTRC CRBN-DDB1 EC50 (µM)>
14.29 ±  1.32

> <EC50 fitting (µM)>
23.96

> <Modèle Fitting>
3PL
$$$$

> <minimizedAffinity>
-10.90116

> <CNNscore>
0.3901880980

> <CNNaffinity>
7.1862530708

> <CNN_VS>
2.8039903641

> <CNNaffinity_variance>
0.3879385889

$$$$
Compound 10


 39 42  0  0  0  0  0  0  0  0999 V2000
   10.0054 -106.4008   25.8649 C   0  0  0  0  0  0  0  0  0  0  0  0
    9.5988 -104.4547   27.4314 S   0  0  0  0  0  0  0  0  0  0  0  0
    8.2194 -103.8177   27.2106 O   0  0  0  0  0  0  0  0  0  0  0  0
    8.6354 -104.9874   26.3701 O   0  0  0  0  0  0  0  0  0  0  0  0
   10.5186 -105.5227   26.9818 N   0  0  0  0  0  0  0  0  0  0  0  0
    9.7574 -103.4159   28.4887 C   0  0  0  0  0  0  0  0  0  0  0  0
   11.8542 -105.8181   27.4938 C   0  0  0  0  0  0  0  0  0  0  0  0
   10.9143 -103.1914   29.3780 C   0  0  0  0  0  0  0  0  0  0  0  0
   12.5886 -105.1146   28.5789 C   0  0  0  0  0  0  0  0  0  0  0  0
   12.1726 -103.9449   29.4194 N   0  0  0  0  0  0  0  0  0  0  0  0
   13.1422 -103.4698   30.4309 C   0  0  0  0  0  0  0  0  0  0  0  0
   14.4417 -104.1560   30.5592 O   0  0  0  0  0  0  0  0  0  0  0  0
   12.7890 -102.2951   31.3131 C   0  0  0  0  0  0  0  0  0  0  0  0
   13.8453 -101.3466   31.7290 O   0  0  0  0  0  0  0  0  0  0  0  0
   14.7981 -101.7260   32.8385 C   0  0  0  0  0  0  0  0  0  0  0  0
   16.1705 -102.1686   32.5074 C   0  0  0  0  0  0  0  0  0  0  0  0
   14.3617 -101.6587   34.3081 C   0  0  0  0  0  0  0  0  0  0  0  0
   17.1233 -102.5481   33.6170 C   0  0  0  0  0  0  0  0  0  0  0  0
   15.3145 -102.0382   35.4177 C   0  0  0  0  0  0  0  0  0  0  0  0
   16.6867 -102.4807   35.0865 C   0  0  0  0  0  0  0  0  0  0  0  0
   10.8126 -106.5723   24.6303 C   0  0  0  0  0  0  0  0  0  0  0  0
   12.2126 -106.0087   24.5640 C   0  0  0  0  0  0  0  0  0  0  0  0
   10.2278 -107.2921   23.4911 C   0  0  0  0  0  0  0  0  0  0  0  0
   13.0198 -106.1802   23.3294 C   0  0  0  0  0  0  0  0  0  0  0  0
   11.0350 -107.4637   22.2564 C   0  0  0  0  0  0  0  0  0  0  0  0
   12.4350 -106.9000   22.1900 C   0  0  0  0  0  0  0  0  0  0  0  0
   14.4197 -105.6166   23.2630 C   0  0  0  0  0  0  0  0  0  0  0  0
   15.2220 -105.4843   24.5056 O   0  0  0  0  0  0  0  0  0  0  0  0
   15.0251 -105.1773   21.9221 N   0  0  0  0  0  0  0  0  0  0  0  0
   14.4953 -105.2639   21.0969 H   0  0  0  0  0  0  0  0  0  0  0  0
   16.4250 -104.6136   21.8558 C   0  0  0  0  0  0  0  0  0  0  0  0
   17.6360 -105.4748   22.2424 C   0  0  0  0  0  0  0  0  0  0  0  0
   16.6365 -103.2121   21.4124 C   0  0  0  0  0  0  0  0  0  0  0  0
   17.4694 -106.9229   22.7049 O   0  0  0  0  0  0  0  0  0  0  0  0
   19.0359 -104.9112   22.1760 N   0  0  0  0  0  0  0  0  0  0  0  0
   18.0364 -102.6485   21.3461 C   0  0  0  0  0  0  0  0  0  0  0  0
   19.2474 -103.5097   21.7327 C   0  0  0  0  0  0  0  0  0  0  0  0
   20.6473 -102.9461   21.6663 O   0  0  0  0  0  0  0  0  0  0  0  0
   19.8059 -105.4714   22.4260 H   0  0  0  0  0  0  0  0  0  0  0  0
  2  3  2  0
  2  4  2  0
  2  5  1  0
  2  6  1  0
  5  7  1  0
  5  1  1  0
  6  8  1  0
  7  9  1  0
  1 21  1  0
  8 10  1  0
 21 22  2  0
 21 23  1  0
 10 11  1  0
 22 24  1  0
 23 25  2  0
 11 12  2  0
 11 13  1  0
 24 27  1  0
 24 26  2  0
 13 14  1  0
 27 28  2  0
 27 29  1  0
 14 15  1  0
 31 29  1  0
 15 16  2  0
 15 17  1  0
 31 32  1  0
 31 33  1  0
 16 18  1  0
 17 19  2  0
 32 34  2  0
 32 35  1  0
 33 36  1  0
 18 20  2  0
 35 37  1  0
 37 38  2  0
  9 10  1  0
 25 26  1  0
 19 20  1  0
 36 37  1  0
 29 30  1  0
 35 39  1  0
M  END
> <Molecule Name>
Compound 10

> <EC50 (µM) (Excel)>
14.3

> <Error (µM)>
1.3

> <HTRC CRBN-DDB1 EC50 (µM)>
14.29 ±  1.32

> <EC50 fitting (µM)>
23.96

> <Modèle Fitting>
3PL
$$$$

> <minimizedAffinity>
-11.11107

> <CNNscore>
0.3669129610

> <CNNaffinity>
6.4559111595

> <CNN_VS>
2.3687574863

> <CNNaffinity_variance>
1.0647248030

$$$$
Compound 10


 39 42  0  0  0  0  0  0  0  0999 V2000
    9.9848 -106.4062   25.8623 C   0  0  0  0  0  0  0  0  0  0  0  0
    9.5924 -104.4580   27.4297 S   0  0  0  0  0  0  0  0  0  0  0  0
    8.2135 -103.8175   27.2164 O   0  0  0  0  0  0  0  0  0  0  0  0
    8.6215 -104.9888   26.3743 O   0  0  0  0  0  0  0  0  0  0  0  0
   10.5067 -105.5287   26.9756 N   0  0  0  0  0  0  0  0  0  0  0  0
    9.7599 -103.4189   28.4854 C   0  0  0  0  0  0  0  0  0  0  0  0
   11.8445 -105.8274   27.4800 C   0  0  0  0  0  0  0  0  0  0  0  0
   10.9225 -103.1969   29.3678 C   0  0  0  0  0  0  0  0  0  0  0  0
   12.5870 -105.1251   28.5604 C   0  0  0  0  0  0  0  0  0  0  0  0
   12.1790 -103.9537   29.4025 N   0  0  0  0  0  0  0  0  0  0  0  0
   13.1556 -103.4805   30.4081 C   0  0  0  0  0  0  0  0  0  0  0  0
   14.4541 -104.1701   30.5293 O   0  0  0  0  0  0  0  0  0  0  0  0
   12.8106 -102.3043   31.2915 C   0  0  0  0  0  0  0  0  0  0  0  0
   13.8733 -101.3627   31.7070 O   0  0  0  0  0  0  0  0  0  0  0  0
   14.8165 -101.7434   32.8242 C   0  0  0  0  0  0  0  0  0  0  0  0
   16.1949 -102.1757   32.5050 C   0  0  0  0  0  0  0  0  0  0  0  0
   14.3640 -101.6879   34.2895 C   0  0  0  0  0  0  0  0  0  0  0  0
   17.1382 -102.5565   33.6224 C   0  0  0  0  0  0  0  0  0  0  0  0
   15.3073 -102.0686   35.4068 C   0  0  0  0  0  0  0  0  0  0  0  0
   16.6856 -102.5009   35.0875 C   0  0  0  0  0  0  0  0  0  0  0  0
   10.7820 -106.5766   24.6210 C   0  0  0  0  0  0  0  0  0  0  0  0
   12.2288 -106.1429   24.5922 C   0  0  0  0  0  0  0  0  0  0  0  0
   10.1416 -107.1678   23.4385 C   0  0  0  0  0  0  0  0  0  0  0  0
   13.0260 -106.3133   23.3510 C   0  0  0  0  0  0  0  0  0  0  0  0
   10.9388 -107.3382   22.1972 C   0  0  0  0  0  0  0  0  0  0  0  0
   12.3856 -106.9045   22.1684 C   0  0  0  0  0  0  0  0  0  0  0  0
   14.4727 -105.8797   23.3221 C   0  0  0  0  0  0  0  0  0  0  0  0
   15.4425 -106.4799   24.2732 O   0  0  0  0  0  0  0  0  0  0  0  0
   14.9543 -104.8225   22.3182 N   0  0  0  0  0  0  0  0  0  0  0  0
   14.3135 -104.4230   21.6866 H   0  0  0  0  0  0  0  0  0  0  0  0
   16.4011 -104.3889   22.2894 C   0  0  0  0  0  0  0  0  0  0  0  0
   16.7722 -102.9039   22.1691 C   0  0  0  0  0  0  0  0  0  0  0  0
   17.4789 -105.4067   22.3780 C   0  0  0  0  0  0  0  0  0  0  0  0
   15.6985 -101.8190   22.0749 O   0  0  0  0  0  0  0  0  0  0  0  0
   18.2188 -102.4703   22.1403 N   0  0  0  0  0  0  0  0  0  0  0  0
   18.9255 -104.9731   22.3492 C   0  0  0  0  0  0  0  0  0  0  0  0
   19.2967 -103.4881   22.2289 C   0  0  0  0  0  0  0  0  0  0  0  0
   20.7433 -103.0544   22.2001 O   0  0  0  0  0  0  0  0  0  0  0  0
   18.4465 -101.5156   22.0629 H   0  0  0  0  0  0  0  0  0  0  0  0
  2  3  2  0
  2  4  2  0
  2  5  1  0
  2  6  1  0
  5  7  1  0
  5  1  1  0
  6  8  1  0
  7  9  1  0
  1 21  1  0
  8 10  1  0
 21 22  2  0
 21 23  1  0
 10 11  1  0
 22 24  1  0
 23 25  2  0
 11 12  2  0
 11 13  1  0
 24 27  1  0
 24 26  2  0
 13 14  1  0
 27 28  2  0
 27 29  1  0
 14 15  1  0
 31 29  1  0
 15 16  2  0
 15 17  1  0
 31 32  1  0
 31 33  1  0
 16 18  1  0
 17 19  2  0
 32 34  2  0
 32 35  1  0
 33 36  1  0
 18 20  2  0
 35 37  1  0
 37 38  2  0
  9 10  1  0
 25 26  1  0
 19 20  1  0
 36 37  1  0
 29 30  1  0
 35 39  1  0
M  END
> <Molecule Name>
Compound 10

> <EC50 (µM) (Excel)>
14.3

> <Error (µM)>
1.3

> <HTRC CRBN-DDB1 EC50 (µM)>
14.29 ±  1.32

> <EC50 fitting (µM)>
23.96

> <Modèle Fitting>
3PL
$$$$

> <minimizedAffinity>
-11.40088

> <CNNscore>
0.3126355708

> <CNNaffinity>
6.4345011711

> <CNN_VS>
2.0116539001

> <CNNaffinity_variance>
0.9475882053

$$$$
Compound 10


 39 42  0  0  0  0  0  0  0  0999 V2000
   19.0302 -106.6844   25.2438 C   0  0  0  0  0  0  0  0  0  0  0  0
   18.7783 -104.4460   24.0894 S   0  0  0  0  0  0  0  0  0  0  0  0
   19.7529 -103.3989   24.6470 O   0  0  0  0  0  0  0  0  0  0  0  0
   19.7588 -104.7875   25.2121 O   0  0  0  0  0  0  0  0  0  0  0  0
   18.3257 -105.8501   24.2000 N   0  0  0  0  0  0  0  0  0  0  0  0
   18.3253 -103.3460   23.1912 C   0  0  0  0  0  0  0  0  0  0  0  0
   17.2836 -106.5114   23.4190 C   0  0  0  0  0  0  0  0  0  0  0  0
   17.2753 -103.3915   22.1543 C   0  0  0  0  0  0  0  0  0  0  0  0
   16.4450 -105.9246   22.3401 C   0  0  0  0  0  0  0  0  0  0  0  0
   16.4391 -104.5359   21.7750 N   0  0  0  0  0  0  0  0  0  0  0  0
   15.4712 -104.2591   20.6909 C   0  0  0  0  0  0  0  0  0  0  0  0
   14.5793 -105.3400   20.2300 O   0  0  0  0  0  0  0  0  0  0  0  0
   15.4105 -102.8808   20.0749 C   0  0  0  0  0  0  0  0  0  0  0  0
   14.7764 -102.6964   18.7511 O   0  0  0  0  0  0  0  0  0  0  0  0
   13.3077 -102.3524   18.6656 C   0  0  0  0  0  0  0  0  0  0  0  0
   12.4023 -102.7205   19.7763 C   0  0  0  0  0  0  0  0  0  0  0  0
   12.7399 -101.6246   17.4397 C   0  0  0  0  0  0  0  0  0  0  0  0
   10.9335 -102.3764   19.6907 C   0  0  0  0  0  0  0  0  0  0  0  0
   11.2711 -101.2806   17.3541 C   0  0  0  0  0  0  0  0  0  0  0  0
   10.3658 -101.6487   18.4648 C   0  0  0  0  0  0  0  0  0  0  0  0
   19.2439 -108.1350   25.0087 C   0  0  0  0  0  0  0  0  0  0  0  0
   18.3228 -109.1440   25.6531 C   0  0  0  0  0  0  0  0  0  0  0  0
   20.3553 -108.5609   24.1476 C   0  0  0  0  0  0  0  0  0  0  0  0
   18.5365 -110.5946   25.4180 C   0  0  0  0  0  0  0  0  0  0  0  0
   20.5691 -110.0116   23.9124 C   0  0  0  0  0  0  0  0  0  0  0  0
   19.6479 -111.0207   24.5569 C   0  0  0  0  0  0  0  0  0  0  0  0
   17.6154 -111.6037   26.0624 C   0  0  0  0  0  0  0  0  0  0  0  0
   16.9814 -112.6598   25.2331 O   0  0  0  0  0  0  0  0  0  0  0  0
   17.3257 -111.5503   27.5693 N   0  0  0  0  0  0  0  0  0  0  0  0
   17.7448 -110.8511   28.1213 H   0  0  0  0  0  0  0  0  0  0  0  0
   16.4046 -112.5594   28.2137 C   0  0  0  0  0  0  0  0  0  0  0  0
   16.3054 -112.6663   29.7422 C   0  0  0  0  0  0  0  0  0  0  0  0
   15.5845 -113.4593   27.3634 C   0  0  0  0  0  0  0  0  0  0  0  0
   17.1294 -111.7620   30.6597 O   0  0  0  0  0  0  0  0  0  0  0  0
   15.3844 -113.6753   30.3866 N   0  0  0  0  0  0  0  0  0  0  0  0
   14.6635 -114.4683   28.0078 C   0  0  0  0  0  0  0  0  0  0  0  0
   14.5643 -114.5752   29.5363 C   0  0  0  0  0  0  0  0  0  0  0  0
   13.6432 -115.5842   30.1808 O   0  0  0  0  0  0  0  0  0  0  0  0
   15.3279 -113.7361   31.3676 H   0  0  0  0  0  0  0  0  0  0  0  0
  2  3  2  0
  2  4  2  0
  2  5  1  0
  2  6  1  0
  5  7  1  0
  5  1  1  0
  6  8  1  0
  7  9  1  0
  1 21  1  0
  8 10  1  0
 21 22  2  0
 21 23  1  0
 10 11  1  0
 22 24  1  0
 23 25  2  0
 11 12  2  0
 11 13  1  0
 24 27  1  0
 24 26  2  0
 13 14  1  0
 27 28  2  0
 27 29  1  0
 14 15  1  0
 31 29  1  0
 15 16  2  0
 15 17  1  0
 31 32  1  0
 31 33  1  0
 16 18  1  0
 17 19  2  0
 32 34  2  0
 32 35  1  0
 33 36  1  0
 18 20  2  0
 35 37  1  0
 37 38  2  0
  9 10  1  0
 25 26  1  0
 19 20  1  0
 36 37  1  0
 29 30  1  0
 35 39  1  0
M  END
> <Molecule Name>
Compound 10

> <EC50 (µM) (Excel)>
14.3

> <Error (µM)>
1.3

> <HTRC CRBN-DDB1 EC50 (µM)>
14.29 ±  1.32

> <EC50 fitting (µM)>
23.96

> <Modèle Fitting>
3PL
$$$$

> <minimizedAffinity>
-9.96594

> <CNNscore>
0.1905248761

> <CNNaffinity>
4.9843783379

> <CNN_VS>
0.9496480823

> <CNNaffinity_variance>
0.5684121251

$$$$
Compound 10


 39 42  0  0  0  0  0  0  0  0999 V2000
   21.2147 -104.7310   23.3042 C   0  0  0  0  0  0  0  0  0  0  0  0
   18.9334 -103.7071   23.6962 S   0  0  0  0  0  0  0  0  0  0  0  0
   18.4470 -103.9216   25.1366 O   0  0  0  0  0  0  0  0  0  0  0  0
   19.7823 -104.4613   24.7204 O   0  0  0  0  0  0  0  0  0  0  0  0
   20.0398 -103.9618   22.7477 N   0  0  0  0  0  0  0  0  0  0  0  0
   17.6371 -102.9949   23.5100 C   0  0  0  0  0  0  0  0  0  0  0  0
   20.1200 -103.5555   21.3471 C   0  0  0  0  0  0  0  0  0  0  0  0
   17.1225 -102.3459   22.2879 C   0  0  0  0  0  0  0  0  0  0  0  0
   19.1112 -102.7966   20.5609 C   0  0  0  0  0  0  0  0  0  0  0  0
   17.7758 -102.2569   20.9772 N   0  0  0  0  0  0  0  0  0  0  0  0
   16.9955 -101.5356   19.9477 C   0  0  0  0  0  0  0  0  0  0  0  0
   17.5583 -101.3867   18.5922 O   0  0  0  0  0  0  0  0  0  0  0  0
   15.6410 -100.9651   20.2977 C   0  0  0  0  0  0  0  0  0  0  0  0
   14.4308 -101.4811   19.6211 O   0  0  0  0  0  0  0  0  0  0  0  0
   13.9812 -102.9017   19.8710 C   0  0  0  0  0  0  0  0  0  0  0  0
   13.5450 -103.3054   21.2259 C   0  0  0  0  0  0  0  0  0  0  0  0
   13.9703 -103.9349   18.7364 C   0  0  0  0  0  0  0  0  0  0  0  0
   13.0954 -104.7261   21.4757 C   0  0  0  0  0  0  0  0  0  0  0  0
   13.5206 -105.3556   18.9863 C   0  0  0  0  0  0  0  0  0  0  0  0
   13.0845 -105.7591   20.3411 C   0  0  0  0  0  0  0  0  0  0  0  0
   21.2311 -106.2137   23.2243 C   0  0  0  0  0  0  0  0  0  0  0  0
   20.1623 -107.0157   23.9289 C   0  0  0  0  0  0  0  0  0  0  0  0
   22.2947 -106.8740   22.4556 C   0  0  0  0  0  0  0  0  0  0  0  0
   20.1786 -108.4984   23.8489 C   0  0  0  0  0  0  0  0  0  0  0  0
   22.3111 -108.3569   22.3757 C   0  0  0  0  0  0  0  0  0  0  0  0
   21.2423 -109.1588   23.0803 C   0  0  0  0  0  0  0  0  0  0  0  0
   19.1098 -109.3004   24.5535 C   0  0  0  0  0  0  0  0  0  0  0  0
   17.8293 -108.6511   24.9331 O   0  0  0  0  0  0  0  0  0  0  0  0
   19.3320 -110.7834   24.8831 N   0  0  0  0  0  0  0  0  0  0  0  0
   20.1800 -111.2163   24.6326 H   0  0  0  0  0  0  0  0  0  0  0  0
   18.2631 -111.5854   25.5877 C   0  0  0  0  0  0  0  0  0  0  0  0
   18.1699 -111.5913   27.1203 C   0  0  0  0  0  0  0  0  0  0  0  0
   17.2903 -112.3778   24.7933 C   0  0  0  0  0  0  0  0  0  0  0  0
   19.1483 -110.7916   27.9816 O   0  0  0  0  0  0  0  0  0  0  0  0
   17.1012 -112.3931   27.8249 N   0  0  0  0  0  0  0  0  0  0  0  0
   16.2216 -113.1796   25.4978 C   0  0  0  0  0  0  0  0  0  0  0  0
   16.1283 -113.1856   27.0304 C   0  0  0  0  0  0  0  0  0  0  0  0
   15.0596 -113.9875   27.7351 O   0  0  0  0  0  0  0  0  0  0  0  0
   17.0496 -112.3905   28.8080 H   0  0  0  0  0  0  0  0  0  0  0  0
  2  3  2  0
  2  4  2  0
  2  5  1  0
  2  6  1  0
  5  7  1  0
  5  1  1  0
  6  8  1  0
  7  9  1  0
  1 21  1  0
  8 10  1  0
 21 22  2  0
 21 23  1  0
 10 11  1  0
 22 24  1  0
 23 25  2  0
 11 12  2  0
 11 13  1  0
 24 27  1  0
 24 26  2  0
 13 14  1  0
 27 28  2  0
 27 29  1  0
 14 15  1  0
 31 29  1  0
 15 16  2  0
 15 17  1  0
 31 32  1  0
 31 33  1  0
 16 18  1  0
 17 19  2  0
 32 34  2  0
 32 35  1  0
 33 36  1  0
 18 20  2  0
 35 37  1  0
 37 38  2  0
  9 10  1  0
 25 26  1  0
 19 20  1  0
 36 37  1  0
 29 30  1  0
 35 39  1  0
M  END
> <Molecule Name>
Compound 10

> <EC50 (µM) (Excel)>
14.3

> <Error (µM)>
1.3

> <HTRC CRBN-DDB1 EC50 (µM)>
14.29 ±  1.32

> <EC50 fitting (µM)>
23.96

> <Modèle Fitting>
3PL
$$$$

> <minimizedAffinity>
-8.72985

> <CNNscore>
0.1839020997

> <CNNaffinity>
5.4068007469

> <CNN_VS>
0.9943220019

> <CNNaffinity_variance>
0.3322691619

$$$$
Compound 10


 39 42  0  0  0  0  0  0  0  0999 V2000
   12.4465 -105.2387   23.1888 C   0  0  0  0  0  0  0  0  0  0  0  0
   14.6279 -104.9288   21.9430 S   0  0  0  0  0  0  0  0  0  0  0  0
   14.4020 -104.4918   20.4886 O   0  0  0  0  0  0  0  0  0  0  0  0
   13.2203 -104.7243   21.3814 O   0  0  0  0  0  0  0  0  0  0  0  0
   13.9562 -105.2865   23.2116 N   0  0  0  0  0  0  0  0  0  0  0  0
   16.0756 -104.8646   21.5934 C   0  0  0  0  0  0  0  0  0  0  0  0
   14.5857 -105.6765   24.4705 C   0  0  0  0  0  0  0  0  0  0  0  0
   17.2351 -105.1530   22.4606 C   0  0  0  0  0  0  0  0  0  0  0  0
   16.0390 -105.8018   24.7603 C   0  0  0  0  0  0  0  0  0  0  0  0
   17.2207 -105.5694   23.8674 N   0  0  0  0  0  0  0  0  0  0  0  0
   18.5593 -105.7815   24.4608 C   0  0  0  0  0  0  0  0  0  0  0  0
   18.6622 -106.2021   25.8710 O   0  0  0  0  0  0  0  0  0  0  0  0
   19.7947 -105.5654   23.6183 C   0  0  0  0  0  0  0  0  0  0  0  0
   20.4519 -106.7216   22.9702 O   0  0  0  0  0  0  0  0  0  0  0  0
   20.1883 -108.1178   23.4840 C   0  0  0  0  0  0  0  0  0  0  0  0
   21.3104 -109.0718   23.6241 C   0  0  0  0  0  0  0  0  0  0  0  0
   18.7694 -108.5619   23.8638 C   0  0  0  0  0  0  0  0  0  0  0  0
   21.0468 -110.4681   24.1379 C   0  0  0  0  0  0  0  0  0  0  0  0
   18.5058 -109.9581   24.3777 C   0  0  0  0  0  0  0  0  0  0  0  0
   19.6279 -110.9120   24.5176 C   0  0  0  0  0  0  0  0  0  0  0  0
   11.6774 -105.6213   24.4001 C   0  0  0  0  0  0  0  0  0  0  0  0
   12.0483 -105.0345   25.7417 C   0  0  0  0  0  0  0  0  0  0  0  0
   10.5634 -106.5697   24.2666 C   0  0  0  0  0  0  0  0  0  0  0  0
   11.2791 -105.4170   26.9530 C   0  0  0  0  0  0  0  0  0  0  0  0
    9.7942 -106.9523   25.4779 C   0  0  0  0  0  0  0  0  0  0  0  0
   10.1651 -106.3654   26.8196 C   0  0  0  0  0  0  0  0  0  0  0  0
   11.6500 -104.8302   28.2946 C   0  0  0  0  0  0  0  0  0  0  0  0
   10.7250 -104.9791   29.4468 O   0  0  0  0  0  0  0  0  0  0  0  0
   12.9761 -104.0793   28.4821 N   0  0  0  0  0  0  0  0  0  0  0  0
   13.5911 -103.9792   27.7199 H   0  0  0  0  0  0  0  0  0  0  0  0
   13.3470 -103.4924   29.8238 C   0  0  0  0  0  0  0  0  0  0  0  0
   12.4191 -102.4896   30.5244 C   0  0  0  0  0  0  0  0  0  0  0  0
   14.6219 -103.8871   30.4754 C   0  0  0  0  0  0  0  0  0  0  0  0
   11.0963 -102.0524   29.8938 O   0  0  0  0  0  0  0  0  0  0  0  0
   12.7900 -101.9028   31.8659 N   0  0  0  0  0  0  0  0  0  0  0  0
   14.9927 -103.3003   31.8169 C   0  0  0  0  0  0  0  0  0  0  0  0
   14.0648 -102.2975   32.5175 C   0  0  0  0  0  0  0  0  0  0  0  0
   14.4357 -101.7106   33.8591 O   0  0  0  0  0  0  0  0  0  0  0  0
   12.1883 -101.2605   32.3071 H   0  0  0  0  0  0  0  0  0  0  0  0
  2  3  2  0
  2  4  2  0
  2  5  1  0
  2  6  1  0
  5  7  1  0
  5  1  1  0
  6  8  1  0
  7  9  1  0
  1 21  1  0
  8 10  1  0
 21 22  2  0
 21 23  1  0
 10 11  1  0
 22 24  1  0
 23 25  2  0
 11 12  2  0
 11 13  1  0
 24 27  1  0
 24 26  2  0
 13 14  1  0
 27 28  2  0
 27 29  1  0
 14 15  1  0
 31 29  1  0
 15 16  2  0
 15 17  1  0
 31 32  1  0
 31 33  1  0
 16 18  1  0
 17 19  2  0
 32 34  2  0
 32 35  1  0
 33 36  1  0
 18 20  2  0
 35 37  1  0
 37 38  2  0
  9 10  1  0
 25 26  1  0
 19 20  1  0
 36 37  1  0
 29 30  1  0
 35 39  1  0
M  END
> <Molecule Name>
Compound 10

> <EC50 (µM) (Excel)>
14.3

> <Error (µM)>
1.3

> <HTRC CRBN-DDB1 EC50 (µM)>
14.29 ±  1.32

> <EC50 fitting (µM)>
23.96

> <Modèle Fitting>
3PL
$$$$

> <minimizedAffinity>
-9.02328

> <CNNscore>
0.1683903486

> <CNNaffinity>
6.1130218506

> <CNN_VS>
1.0293738842

> <CNNaffinity_variance>
0.2984294593

$$$$
Compound 10


 39 42  0  0  0  0  0  0  0  0999 V2000
   18.2634 -106.7694   23.9245 C   0  0  0  0  0  0  0  0  0  0  0  0
   18.9340 -109.1364   24.5195 S   0  0  0  0  0  0  0  0  0  0  0  0
   17.8884 -109.8235   25.4093 O   0  0  0  0  0  0  0  0  0  0  0  0
   17.6595 -108.4130   24.9560 O   0  0  0  0  0  0  0  0  0  0  0  0
   19.2731 -107.8865   23.8044 N   0  0  0  0  0  0  0  0  0  0  0  0
   19.6733 -110.4264   24.6275 C   0  0  0  0  0  0  0  0  0  0  0  0
   20.4644 -107.6167   23.0036 C   0  0  0  0  0  0  0  0  0  0  0  0
   20.9726 -110.7841   24.0247 C   0  0  0  0  0  0  0  0  0  0  0  0
   21.6016 -108.5344   22.7271 C   0  0  0  0  0  0  0  0  0  0  0  0
   21.8304 -109.9451   23.1804 N   0  0  0  0  0  0  0  0  0  0  0  0
   23.0791 -110.5981   22.7295 C   0  0  0  0  0  0  0  0  0  0  0  0
   24.0163 -109.8449   21.8749 O   0  0  0  0  0  0  0  0  0  0  0  0
   23.3745 -112.0193   23.1487 C   0  0  0  0  0  0  0  0  0  0  0  0
   24.2876 -112.2742   24.2845 O   0  0  0  0  0  0  0  0  0  0  0  0
   23.8585 -111.9104   25.6867 C   0  0  0  0  0  0  0  0  0  0  0  0
   24.1283 -110.5519   26.2071 C   0  0  0  0  0  0  0  0  0  0  0  0
   23.1449 -112.9325   26.5815 C   0  0  0  0  0  0  0  0  0  0  0  0
   23.6991 -110.1882   27.6094 C   0  0  0  0  0  0  0  0  0  0  0  0
   22.7158 -112.5688   27.9839 C   0  0  0  0  0  0  0  0  0  0  0  0
   22.9855 -111.2104   28.5041 C   0  0  0  0  0  0  0  0  0  0  0  0
   18.4509 -105.5180   23.1474 C   0  0  0  0  0  0  0  0  0  0  0  0
   17.2728 -104.8882   22.4422 C   0  0  0  0  0  0  0  0  0  0  0  0
   19.7886 -104.9146   23.0806 C   0  0  0  0  0  0  0  0  0  0  0  0
   17.4603 -103.6367   21.6650 C   0  0  0  0  0  0  0  0  0  0  0  0
   19.9762 -103.6630   22.3034 C   0  0  0  0  0  0  0  0  0  0  0  0
   18.7981 -103.0332   21.5982 C   0  0  0  0  0  0  0  0  0  0  0  0
   16.2822 -103.0069   20.9598 C   0  0  0  0  0  0  0  0  0  0  0  0
   16.1573 -101.5281   20.9077 O   0  0  0  0  0  0  0  0  0  0  0  0
   15.2089 -103.8800   20.2941 N   0  0  0  0  0  0  0  0  0  0  0  0
   15.2893 -104.8606   20.3272 H   0  0  0  0  0  0  0  0  0  0  0  0
   14.0308 -103.2502   19.5889 C   0  0  0  0  0  0  0  0  0  0  0  0
   12.6108 -103.3914   20.1556 C   0  0  0  0  0  0  0  0  0  0  0  0
   14.2440 -102.4854   18.3338 C   0  0  0  0  0  0  0  0  0  0  0  0
   12.3405 -104.1689   21.4445 O   0  0  0  0  0  0  0  0  0  0  0  0
   11.4327 -102.7617   19.4505 N   0  0  0  0  0  0  0  0  0  0  0  0
   13.0660 -101.8557   17.6287 C   0  0  0  0  0  0  0  0  0  0  0  0
   11.6460 -101.9969   18.1954 C   0  0  0  0  0  0  0  0  0  0  0  0
   10.4679 -101.3672   17.4903 O   0  0  0  0  0  0  0  0  0  0  0  0
   10.5261 -102.8579   19.8219 H   0  0  0  0  0  0  0  0  0  0  0  0
  2  3  2  0
  2  4  2  0
  2  5  1  0
  2  6  1  0
  5  7  1  0
  5  1  1  0
  6  8  1  0
  7  9  1  0
  1 21  1  0
  8 10  1  0
 21 22  2  0
 21 23  1  0
 10 11  1  0
 22 24  1  0
 23 25  2  0
 11 12  2  0
 11 13  1  0
 24 27  1  0
 24 26  2  0
 13 14  1  0
 27 28  2  0
 27 29  1  0
 14 15  1  0
 31 29  1  0
 15 16  2  0
 15 17  1  0
 31 32  1  0
 31 33  1  0
 16 18  1  0
 17 19  2  0
 32 34  2  0
 32 35  1  0
 33 36  1  0
 18 20  2  0
 35 37  1  0
 37 38  2  0
  9 10  1  0
 25 26  1  0
 19 20  1  0
 36 37  1  0
 29 30  1  0
 35 39  1  0
M  END
> <Molecule Name>
Compound 10

> <EC50 (µM) (Excel)>
14.3

> <Error (µM)>
1.3

> <HTRC CRBN-DDB1 EC50 (µM)>
14.29 ±  1.32

> <EC50 fitting (µM)>
23.96

> <Modèle Fitting>
3PL
$$$$

> <minimizedAffinity>
-8.39878

> <CNNscore>
0.1587347835

> <CNNaffinity>
5.4182219505

> <CNN_VS>
0.8600602746

> <CNNaffinity_variance>
0.1722225398

$$$$
