Compound 12


 40 43  0  0  0  0  0  0  0  0999 V2000
   11.0050 -106.8148   23.5313 S   0  0  0  0  0  0  0  0  0  0  0  0
    9.7868 -107.5429   22.9342 O   0  0  0  0  0  0  0  0  0  0  0  0
    9.8396 -107.2792   24.4134 O   0  0  0  0  0  0  0  0  0  0  0  0
   11.6104 -106.3003   24.7843 N   0  0  0  0  0  0  0  0  0  0  0  0
   11.5028 -106.7814   22.1221 C   0  0  0  0  0  0  0  0  0  0  0  0
   12.8934 -105.6099   24.9354 C   0  0  0  0  0  0  0  0  0  0  0  0
   12.7687 -106.2051   21.6145 C   0  0  0  0  0  0  0  0  0  0  0  0
   13.8774 -105.2695   23.8676 C   0  0  0  0  0  0  0  0  0  0  0  0
   13.8245 -105.5331   22.3884 N   0  0  0  0  0  0  0  0  0  0  0  0
   14.9775 -105.0632   21.5817 C   0  0  0  0  0  0  0  0  0  0  0  0
   14.9911 -105.2953   20.0845 O   0  0  0  0  0  0  0  0  0  0  0  0
   10.7985 -106.5208   26.0441 C   0  0  0  0  0  0  0  0  0  0  0  0
   10.6953 -105.4349   27.0579 C   0  0  0  0  0  0  0  0  0  0  0  0
   11.8263 -105.2122   28.0409 C   0  0  0  0  0  0  0  0  0  0  0  0
    9.4859 -104.5939   27.0835 C   0  0  0  0  0  0  0  0  0  0  0  0
   11.7231 -104.1262   29.0548 C   0  0  0  0  0  0  0  0  0  0  0  0
    9.3827 -103.5079   28.0974 C   0  0  0  0  0  0  0  0  0  0  0  0
   10.5137 -103.2852   29.0803 C   0  0  0  0  0  0  0  0  0  0  0  0
   12.8541 -103.9036   30.0377 C   0  0  0  0  0  0  0  0  0  0  0  0
   14.1246 -104.6664   29.8895 O   0  0  0  0  0  0  0  0  0  0  0  0
   12.7058 -102.8951   31.1916 N   0  0  0  0  0  0  0  0  0  0  0  0
   11.8670 -102.3895   31.2918 H   0  0  0  0  0  0  0  0  0  0  0  0
   13.8370 -102.6725   32.1744 C   0  0  0  0  0  0  0  0  0  0  0  0
   15.2076 -102.1622   31.6931 C   0  0  0  0  0  0  0  0  0  0  0  0
   13.6249 -102.9490   33.6223 C   0  0  0  0  0  0  0  0  0  0  0  0
   15.4748 -101.8632   30.2128 O   0  0  0  0  0  0  0  0  0  0  0  0
   16.3387 -101.9396   32.6759 N   0  0  0  0  0  0  0  0  0  0  0  0
   14.7560 -102.7264   34.6052 C   0  0  0  0  0  0  0  0  0  0  0  0
   16.1267 -102.2162   34.1239 C   0  0  0  0  0  0  0  0  0  0  0  0
   17.2578 -101.9936   35.1066 O   0  0  0  0  0  0  0  0  0  0  0  0
   17.2115 -101.6131   32.3583 H   0  0  0  0  0  0  0  0  0  0  0  0
   16.0977 -104.3734   22.2586 C   0  0  0  0  0  0  0  0  0  0  0  0
   16.4728 -103.0052   21.8241 C   0  0  0  0  0  0  0  0  0  0  0  0
   15.4121 -101.9895   21.6447 O   0  0  0  0  0  0  0  0  0  0  0  0
   14.5110 -102.0849   20.4698 C   0  0  0  0  0  0  0  0  0  0  0  0
   13.0538 -102.2180   20.6878 C   0  0  0  0  0  0  0  0  0  0  0  0
   15.0934 -102.0447   19.0715 C   0  0  0  0  0  0  0  0  0  0  0  0
   12.1528 -102.3133   19.5129 C   0  0  0  0  0  0  0  0  0  0  0  0
   14.1923 -102.1400   17.8966 C   0  0  0  0  0  0  0  0  0  0  0  0
   12.7350 -102.2731   18.1146 C   0  0  0  0  0  0  0  0  0  0  0  0
  1  2  2  0
  1  3  2  0
  1  4  1  0
  1  5  1  0
  4  6  1  0
  4 12  1  0
  5  7  1  0
  6  8  1  0
 12 13  1  0
  7  9  1  0
 13 14  2  0
 13 15  1  0
  9 10  1  0
 14 16  1  0
 15 17  2  0
 10 11  2  0
 10 32  1  0
 16 19  1  0
 16 18  2  0
 32 33  1  0
 19 20  2  0
 19 21  1  0
 33 34  1  0
 23 21  1  0
 34 35  1  0
 23 24  1  0
 23 25  1  0
 35 36  2  0
 35 37  1  0
 24 26  2  0
 24 27  1  0
 25 28  1  0
 36 38  1  0
 37 39  2  0
 27 29  1  0
 38 40  2  0
 29 30  2  0
  8  9  1  0
 17 18  1  0
 28 29  1  0
 39 40  1  0
 21 22  1  0
 27 31  1  0
M  END
> <Molecule Name>
Compound 12

> <EC50 (µM) (Excel)>
61.9

> <Error (µM)>
8.1

> <HTRC CRBN-DDB1 EC50 (µM)>
61.88 ±  8.05

> <EC50 fitting (µM)>
111.51

> <Modèle Fitting>
4PL
$$$$

> <minimizedAffinity>
-11.65953

> <CNNscore>
0.8278220892

> <CNNaffinity>
7.6643605232

> <CNN_VS>
6.3447270393

> <CNNaffinity_variance>
0.2980028093

$$$$
Compound 12


 40 43  0  0  0  0  0  0  0  0999 V2000
   11.1484 -106.6629   23.2722 S   0  0  0  0  0  0  0  0  0  0  0  0
    9.9799 -107.4361   22.6339 O   0  0  0  0  0  0  0  0  0  0  0  0
   10.0132 -107.2432   24.1245 O   0  0  0  0  0  0  0  0  0  0  0  0
   11.7176 -106.1738   24.5520 N   0  0  0  0  0  0  0  0  0  0  0  0
   11.6456 -106.5282   21.8689 C   0  0  0  0  0  0  0  0  0  0  0  0
   12.9539 -105.4119   24.7433 C   0  0  0  0  0  0  0  0  0  0  0  0
   12.8733 -105.8485   21.3965 C   0  0  0  0  0  0  0  0  0  0  0  0
   13.9162 -104.9573   23.6985 C   0  0  0  0  0  0  0  0  0  0  0  0
   13.8829 -105.1502   22.2079 N   0  0  0  0  0  0  0  0  0  0  0  0
   15.0052 -104.5688   21.4310 C   0  0  0  0  0  0  0  0  0  0  0  0
   15.0362 -104.7251   19.9243 O   0  0  0  0  0  0  0  0  0  0  0  0
   10.9190 -106.5074   25.7953 C   0  0  0  0  0  0  0  0  0  0  0  0
   10.7480 -105.4828   26.8624 C   0  0  0  0  0  0  0  0  0  0  0  0
   11.8539 -105.2553   27.8724 C   0  0  0  0  0  0  0  0  0  0  0  0
    9.4970 -104.7063   26.9134 C   0  0  0  0  0  0  0  0  0  0  0  0
   11.6828 -104.2306   28.9396 C   0  0  0  0  0  0  0  0  0  0  0  0
    9.3259 -103.6817   27.9806 C   0  0  0  0  0  0  0  0  0  0  0  0
   10.4318 -103.4542   28.9906 C   0  0  0  0  0  0  0  0  0  0  0  0
   12.7888 -104.0032   29.9495 C   0  0  0  0  0  0  0  0  0  0  0  0
   14.0227 -104.8355   29.8962 O   0  0  0  0  0  0  0  0  0  0  0  0
   12.6525 -102.9187   31.0339 N   0  0  0  0  0  0  0  0  0  0  0  0
   11.8378 -102.3671   31.0714 H   0  0  0  0  0  0  0  0  0  0  0  0
   13.7585 -102.6913   32.0438 C   0  0  0  0  0  0  0  0  0  0  0  0
   15.1447 -102.1951   31.5931 C   0  0  0  0  0  0  0  0  0  0  0  0
   13.5064 -102.9493   33.4887 C   0  0  0  0  0  0  0  0  0  0  0  0
   15.4529 -101.9155   30.1170 O   0  0  0  0  0  0  0  0  0  0  0  0
   16.2508 -101.9677   32.6030 N   0  0  0  0  0  0  0  0  0  0  0  0
   14.6124 -102.7219   34.4986 C   0  0  0  0  0  0  0  0  0  0  0  0
   15.9986 -102.2257   34.0479 C   0  0  0  0  0  0  0  0  0  0  0  0
   17.1047 -101.9983   35.0577 O   0  0  0  0  0  0  0  0  0  0  0  0
   17.1337 -101.6503   32.3049 H   0  0  0  0  0  0  0  0  0  0  0  0
   16.0781 -103.8438   22.1467 C   0  0  0  0  0  0  0  0  0  0  0  0
   16.8792 -102.8316   21.4152 C   0  0  0  0  0  0  0  0  0  0  0  0
   18.3085 -102.6595   21.7562 O   0  0  0  0  0  0  0  0  0  0  0  0
   19.1907 -103.8518   21.7973 C   0  0  0  0  0  0  0  0  0  0  0  0
   18.6143 -105.1627   22.1689 C   0  0  0  0  0  0  0  0  0  0  0  0
   20.6611 -103.7100   21.4598 C   0  0  0  0  0  0  0  0  0  0  0  0
   19.4965 -106.3549   22.2100 C   0  0  0  0  0  0  0  0  0  0  0  0
   21.5432 -104.9023   21.5009 C   0  0  0  0  0  0  0  0  0  0  0  0
   20.9668 -106.2132   21.8726 C   0  0  0  0  0  0  0  0  0  0  0  0
  1  2  2  0
  1  3  2  0
  1  4  1  0
  1  5  1  0
  4  6  1  0
  4 12  1  0
  5  7  1  0
  6  8  1  0
 12 13  1  0
  7  9  1  0
 13 14  2  0
 13 15  1  0
  9 10  1  0
 14 16  1  0
 15 17  2  0
 10 11  2  0
 10 32  1  0
 16 19  1  0
 16 18  2  0
 32 33  1  0
 19 20  2  0
 19 21  1  0
 33 34  1  0
 23 21  1  0
 34 35  1  0
 23 24  1  0
 23 25  1  0
 35 36  2  0
 35 37  1  0
 24 26  2  0
 24 27  1  0
 25 28  1  0
 36 38  1  0
 37 39  2  0
 27 29  1  0
 38 40  2  0
 29 30  2  0
  8  9  1  0
 17 18  1  0
 28 29  1  0
 39 40  1  0
 21 22  1  0
 27 31  1  0
M  END
> <Molecule Name>
Compound 12

> <EC50 (µM) (Excel)>
61.9

> <Error (µM)>
8.1

> <HTRC CRBN-DDB1 EC50 (µM)>
61.88 ±  8.05

> <EC50 fitting (µM)>
111.51

> <Modèle Fitting>
4PL
$$$$

> <minimizedAffinity>
-10.69874

> <CNNscore>
0.5265148282

> <CNNaffinity>
7.4789271355

> <CNN_VS>
3.9377660751

> <CNNaffinity_variance>
0.1754876524

$$$$
Compound 12


 40 43  0  0  0  0  0  0  0  0999 V2000
   11.1141 -106.7556   23.3226 S   0  0  0  0  0  0  0  0  0  0  0  0
    9.9517 -107.5481   22.6970 O   0  0  0  0  0  0  0  0  0  0  0  0
    9.9748 -107.3165   24.1823 O   0  0  0  0  0  0  0  0  0  0  0  0
   11.6738 -106.2320   24.5929 N   0  0  0  0  0  0  0  0  0  0  0  0
   11.6202 -106.6562   21.9195 C   0  0  0  0  0  0  0  0  0  0  0  0
   12.9070 -105.4623   24.7725 C   0  0  0  0  0  0  0  0  0  0  0  0
   12.8493 -105.9858   21.4376 C   0  0  0  0  0  0  0  0  0  0  0  0
   13.8751 -105.0325   23.7225 C   0  0  0  0  0  0  0  0  0  0  0  0
   13.8520 -105.2641   22.2372 N   0  0  0  0  0  0  0  0  0  0  0  0
   14.9780 -104.7003   21.4528 C   0  0  0  0  0  0  0  0  0  0  0  0
   15.0192 -104.8956   19.9508 O   0  0  0  0  0  0  0  0  0  0  0  0
   10.8679 -106.5352   25.8393 C   0  0  0  0  0  0  0  0  0  0  0  0
   10.7109 -105.4929   26.8913 C   0  0  0  0  0  0  0  0  0  0  0  0
   11.8230 -105.2609   27.8935 C   0  0  0  0  0  0  0  0  0  0  0  0
    9.4677 -104.7035   26.9352 C   0  0  0  0  0  0  0  0  0  0  0  0
   11.6660 -104.2185   28.9456 C   0  0  0  0  0  0  0  0  0  0  0  0
    9.3108 -103.6612   27.9872 C   0  0  0  0  0  0  0  0  0  0  0  0
   10.4228 -103.4291   28.9894 C   0  0  0  0  0  0  0  0  0  0  0  0
   12.7781 -103.9865   29.9478 C   0  0  0  0  0  0  0  0  0  0  0  0
   14.0256 -104.7964   29.8701 O   0  0  0  0  0  0  0  0  0  0  0  0
   12.6341 -102.9203   31.0492 N   0  0  0  0  0  0  0  0  0  0  0  0
   11.8105 -102.3836   31.1028 H   0  0  0  0  0  0  0  0  0  0  0  0
   13.7462 -102.6884   32.0513 C   0  0  0  0  0  0  0  0  0  0  0  0
   15.1261 -102.1831   31.5914 C   0  0  0  0  0  0  0  0  0  0  0  0
   13.5064 -102.9508   33.4975 C   0  0  0  0  0  0  0  0  0  0  0  0
   15.4217 -101.8987   30.1137 O   0  0  0  0  0  0  0  0  0  0  0  0
   16.2382 -101.9512   32.5935 N   0  0  0  0  0  0  0  0  0  0  0  0
   14.6186 -102.7189   34.4997 C   0  0  0  0  0  0  0  0  0  0  0  0
   15.9984 -102.2136   34.0398 C   0  0  0  0  0  0  0  0  0  0  0  0
   17.1105 -101.9817   35.0418 O   0  0  0  0  0  0  0  0  0  0  0  0
   17.1171 -101.6280   32.2896 H   0  0  0  0  0  0  0  0  0  0  0  0
   16.0445 -103.9542   22.1563 C   0  0  0  0  0  0  0  0  0  0  0  0
   17.1348 -104.7077   22.8232 C   0  0  0  0  0  0  0  0  0  0  0  0
   17.0912 -106.1865   22.8278 O   0  0  0  0  0  0  0  0  0  0  0  0
   18.3549 -106.9466   22.9906 C   0  0  0  0  0  0  0  0  0  0  0  0
   19.5678 -106.4904   22.2769 C   0  0  0  0  0  0  0  0  0  0  0  0
   18.3845 -108.1725   23.8808 C   0  0  0  0  0  0  0  0  0  0  0  0
   20.8315 -107.2506   22.4398 C   0  0  0  0  0  0  0  0  0  0  0  0
   19.6482 -108.9327   24.0436 C   0  0  0  0  0  0  0  0  0  0  0  0
   20.8611 -108.4764   23.3299 C   0  0  0  0  0  0  0  0  0  0  0  0
  1  2  2  0
  1  3  2  0
  1  4  1  0
  1  5  1  0
  4  6  1  0
  4 12  1  0
  5  7  1  0
  6  8  1  0
 12 13  1  0
  7  9  1  0
 13 14  2  0
 13 15  1  0
  9 10  1  0
 14 16  1  0
 15 17  2  0
 10 11  2  0
 10 32  1  0
 16 19  1  0
 16 18  2  0
 32 33  1  0
 19 20  2  0
 19 21  1  0
 33 34  1  0
 23 21  1  0
 34 35  1  0
 23 24  1  0
 23 25  1  0
 35 36  2  0
 35 37  1  0
 24 26  2  0
 24 27  1  0
 25 28  1  0
 36 38  1  0
 37 39  2  0
 27 29  1  0
 38 40  2  0
 29 30  2  0
  8  9  1  0
 17 18  1  0
 28 29  1  0
 39 40  1  0
 21 22  1  0
 27 31  1  0
M  END
> <Molecule Name>
Compound 12

> <EC50 (µM) (Excel)>
61.9

> <Error (µM)>
8.1

> <HTRC CRBN-DDB1 EC50 (µM)>
61.88 ±  8.05

> <EC50 fitting (µM)>
111.51

> <Modèle Fitting>
4PL
$$$$

> <minimizedAffinity>
-10.87727

> <CNNscore>
0.5204937458

> <CNNaffinity>
7.5413365364

> <CNN_VS>
3.9252185822

> <CNNaffinity_variance>
0.1594150513

$$$$
Compound 12


 40 43  0  0  0  0  0  0  0  0999 V2000
   11.0151 -106.9154   23.0466 S   0  0  0  0  0  0  0  0  0  0  0  0
    9.9062 -107.6936   22.3147 O   0  0  0  0  0  0  0  0  0  0  0  0
    9.7706 -107.4204   23.7869 O   0  0  0  0  0  0  0  0  0  0  0  0
   11.4452 -106.3711   24.3580 N   0  0  0  0  0  0  0  0  0  0  0  0
   11.6771 -106.8698   21.7071 C   0  0  0  0  0  0  0  0  0  0  0  0
   12.6733 -105.6302   24.6552 C   0  0  0  0  0  0  0  0  0  0  0  0
   12.9719 -106.2471   21.3494 C   0  0  0  0  0  0  0  0  0  0  0  0
   13.7649 -105.2571   23.7100 C   0  0  0  0  0  0  0  0  0  0  0  0
   13.9006 -105.5303   22.2378 N   0  0  0  0  0  0  0  0  0  0  0  0
   15.1234 -105.0199   21.5707 C   0  0  0  0  0  0  0  0  0  0  0  0
   15.3259 -105.2590   20.0883 O   0  0  0  0  0  0  0  0  0  0  0  0
   10.4966 -106.6166   25.5133 C   0  0  0  0  0  0  0  0  0  0  0  0
   10.3777 -105.6065   26.6012 C   0  0  0  0  0  0  0  0  0  0  0  0
   11.5390 -105.3775   27.5466 C   0  0  0  0  0  0  0  0  0  0  0  0
    9.1233 -104.8457   26.7357 C   0  0  0  0  0  0  0  0  0  0  0  0
   11.4201 -104.3674   28.6345 C   0  0  0  0  0  0  0  0  0  0  0  0
    9.0044 -103.8355   27.8236 C   0  0  0  0  0  0  0  0  0  0  0  0
   10.1657 -103.6066   28.7690 C   0  0  0  0  0  0  0  0  0  0  0  0
   12.5815 -104.1385   29.5798 C   0  0  0  0  0  0  0  0  0  0  0  0
   13.7418 -105.0721   29.5669 O   0  0  0  0  0  0  0  0  0  0  0  0
   12.5771 -102.9487   30.5570 N   0  0  0  0  0  0  0  0  0  0  0  0
   11.8113 -102.3300   30.5676 H   0  0  0  0  0  0  0  0  0  0  0  0
   13.7385 -102.7198   31.5023 C   0  0  0  0  0  0  0  0  0  0  0  0
   13.6105 -103.0535   33.0001 C   0  0  0  0  0  0  0  0  0  0  0  0
   15.0192 -102.1665   30.9814 C   0  0  0  0  0  0  0  0  0  0  0  0
   12.3127 -103.6250   33.5840 O   0  0  0  0  0  0  0  0  0  0  0  0
   14.7720 -102.8246   33.9454 N   0  0  0  0  0  0  0  0  0  0  0  0
   16.1807 -101.9376   31.9267 C   0  0  0  0  0  0  0  0  0  0  0  0
   16.0528 -102.2713   33.4244 C   0  0  0  0  0  0  0  0  0  0  0  0
   17.2141 -102.0425   34.3698 O   0  0  0  0  0  0  0  0  0  0  0  0
   14.6804 -103.0411   34.9014 H   0  0  0  0  0  0  0  0  0  0  0  0
   16.1269 -104.2832   22.3703 C   0  0  0  0  0  0  0  0  0  0  0  0
   16.4302 -102.8719   22.0275 C   0  0  0  0  0  0  0  0  0  0  0  0
   15.3131 -101.9338   21.7808 O   0  0  0  0  0  0  0  0  0  0  0  0
   14.5184 -102.0674   20.5350 C   0  0  0  0  0  0  0  0  0  0  0  0
   15.2092 -102.0009   19.2285 C   0  0  0  0  0  0  0  0  0  0  0  0
   13.0189 -102.2690   20.6188 C   0  0  0  0  0  0  0  0  0  0  0  0
   14.4144 -102.1346   17.9828 C   0  0  0  0  0  0  0  0  0  0  0  0
   12.2242 -102.4027   19.3731 C   0  0  0  0  0  0  0  0  0  0  0  0
   12.9150 -102.3361   18.0665 C   0  0  0  0  0  0  0  0  0  0  0  0
  1  2  2  0
  1  3  2  0
  1  4  1  0
  1  5  1  0
  4  6  1  0
  4 12  1  0
  5  7  1  0
  6  8  1  0
 12 13  1  0
  7  9  1  0
 13 14  2  0
 13 15  1  0
  9 10  1  0
 14 16  1  0
 15 17  2  0
 10 11  2  0
 10 32  1  0
 16 19  1  0
 16 18  2  0
 32 33  1  0
 19 20  2  0
 19 21  1  0
 33 34  1  0
 23 21  1  0
 34 35  1  0
 23 24  1  0
 23 25  1  0
 35 36  2  0
 35 37  1  0
 24 26  2  0
 24 27  1  0
 25 28  1  0
 36 38  1  0
 37 39  2  0
 27 29  1  0
 38 40  2  0
 29 30  2  0
  8  9  1  0
 17 18  1  0
 28 29  1  0
 39 40  1  0
 21 22  1  0
 27 31  1  0
M  END
> <Molecule Name>
Compound 12

> <EC50 (µM) (Excel)>
61.9

> <Error (µM)>
8.1

> <HTRC CRBN-DDB1 EC50 (µM)>
61.88 ±  8.05

> <EC50 fitting (µM)>
111.51

> <Modèle Fitting>
4PL
$$$$

> <minimizedAffinity>
-10.27979

> <CNNscore>
0.4977169633

> <CNNaffinity>
6.6435070038

> <CNN_VS>
3.3065860271

> <CNNaffinity_variance>
0.7346512675

$$$$
Compound 12


 40 43  0  0  0  0  0  0  0  0999 V2000
    9.2257 -104.6573   27.0709 S   0  0  0  0  0  0  0  0  0  0  0  0
    7.8313 -104.1011   26.7289 O   0  0  0  0  0  0  0  0  0  0  0  0
    8.3610 -105.2871   25.9720 O   0  0  0  0  0  0  0  0  0  0  0  0
   10.2274 -105.6982   26.7330 N   0  0  0  0  0  0  0  0  0  0  0  0
    9.2616 -103.5629   28.0885 C   0  0  0  0  0  0  0  0  0  0  0  0
   11.5416 -105.9021   27.3467 C   0  0  0  0  0  0  0  0  0  0  0  0
   10.3463 -103.2389   29.0429 C   0  0  0  0  0  0  0  0  0  0  0  0
   12.1674 -105.1121   28.4461 C   0  0  0  0  0  0  0  0  0  0  0  0
   11.6376 -103.9260   29.2031 N   0  0  0  0  0  0  0  0  0  0  0  0
   12.5143 -103.3557   30.2553 C   0  0  0  0  0  0  0  0  0  0  0  0
   12.0443 -102.1595   31.0577 O   0  0  0  0  0  0  0  0  0  0  0  0
    9.8334 -106.6529   25.6247 C   0  0  0  0  0  0  0  0  0  0  0  0
   10.6929 -106.7783   24.4150 C   0  0  0  0  0  0  0  0  0  0  0  0
   12.1302 -106.3018   24.4597 C   0  0  0  0  0  0  0  0  0  0  0  0
   10.1224 -107.3677   23.1912 C   0  0  0  0  0  0  0  0  0  0  0  0
   12.9898 -106.4272   23.2499 C   0  0  0  0  0  0  0  0  0  0  0  0
   10.9820 -107.4931   21.9815 C   0  0  0  0  0  0  0  0  0  0  0  0
   12.4193 -107.0166   22.0261 C   0  0  0  0  0  0  0  0  0  0  0  0
   14.4270 -105.9507   23.2946 C   0  0  0  0  0  0  0  0  0  0  0  0
   14.9610 -105.1040   22.1919 O   0  0  0  0  0  0  0  0  0  0  0  0
   15.3456 -106.3323   24.4699 N   0  0  0  0  0  0  0  0  0  0  0  0
   14.9952 -106.8919   25.2002 H   0  0  0  0  0  0  0  0  0  0  0  0
   16.7829 -105.8558   24.5146 C   0  0  0  0  0  0  0  0  0  0  0  0
   17.9324 -106.8478   24.7701 C   0  0  0  0  0  0  0  0  0  0  0  0
   17.0915 -104.4133   24.3096 C   0  0  0  0  0  0  0  0  0  0  0  0
   17.6655 -108.3424   24.9869 O   0  0  0  0  0  0  0  0  0  0  0  0
   19.3697 -106.3713   24.8147 N   0  0  0  0  0  0  0  0  0  0  0  0
   18.5288 -103.9368   24.3542 C   0  0  0  0  0  0  0  0  0  0  0  0
   19.6783 -104.9288   24.6098 C   0  0  0  0  0  0  0  0  0  0  0  0
   21.1156 -104.4523   24.6544 O   0  0  0  0  0  0  0  0  0  0  0  0
   20.0978 -107.0134   24.9788 H   0  0  0  0  0  0  0  0  0  0  0  0
   13.8378 -103.9693   30.5018 C   0  0  0  0  0  0  0  0  0  0  0  0
   15.0499 -103.1146   30.4623 C   0  0  0  0  0  0  0  0  0  0  0  0
   15.0985 -101.8935   31.2962 O   0  0  0  0  0  0  0  0  0  0  0  0
   15.4720 -102.0097   32.7274 C   0  0  0  0  0  0  0  0  0  0  0  0
   16.8361 -102.4593   33.0823 C   0  0  0  0  0  0  0  0  0  0  0  0
   14.4564 -101.6681   33.7987 C   0  0  0  0  0  0  0  0  0  0  0  0
   17.2095 -102.5755   34.5135 C   0  0  0  0  0  0  0  0  0  0  0  0
   14.8299 -101.7843   35.2299 C   0  0  0  0  0  0  0  0  0  0  0  0
   16.1939 -102.2339   35.5848 C   0  0  0  0  0  0  0  0  0  0  0  0
  1  2  2  0
  1  3  2  0
  1  4  1  0
  1  5  1  0
  4  6  1  0
  4 12  1  0
  5  7  1  0
  6  8  1  0
 12 13  1  0
  7  9  1  0
 13 14  2  0
 13 15  1  0
  9 10  1  0
 14 16  1  0
 15 17  2  0
 10 11  2  0
 10 32  1  0
 16 19  1  0
 16 18  2  0
 32 33  1  0
 19 20  2  0
 19 21  1  0
 33 34  1  0
 23 21  1  0
 34 35  1  0
 23 24  1  0
 23 25  1  0
 35 36  2  0
 35 37  1  0
 24 26  2  0
 24 27  1  0
 25 28  1  0
 36 38  1  0
 37 39  2  0
 27 29  1  0
 38 40  2  0
 29 30  2  0
  8  9  1  0
 17 18  1  0
 28 29  1  0
 39 40  1  0
 21 22  1  0
 27 31  1  0
M  END
> <Molecule Name>
Compound 12

> <EC50 (µM) (Excel)>
61.9

> <Error (µM)>
8.1

> <HTRC CRBN-DDB1 EC50 (µM)>
61.88 ±  8.05

> <EC50 fitting (µM)>
111.51

> <Modèle Fitting>
4PL
$$$$

> <minimizedAffinity>
-10.50014

> <CNNscore>
0.4869094789

> <CNNaffinity>
6.9254441261

> <CNN_VS>
3.3720643520

> <CNNaffinity_variance>
0.3732748926

$$$$
Compound 12


 40 43  0  0  0  0  0  0  0  0999 V2000
    9.2250 -104.6361   27.0634 S   0  0  0  0  0  0  0  0  0  0  0  0
    7.8272 -104.0813   26.7334 O   0  0  0  0  0  0  0  0  0  0  0  0
    8.3551 -105.2615   25.9662 O   0  0  0  0  0  0  0  0  0  0  0  0
   10.2271 -105.6725   26.7132 N   0  0  0  0  0  0  0  0  0  0  0  0
    9.2646 -103.5476   28.0873 C   0  0  0  0  0  0  0  0  0  0  0  0
   11.5456 -105.8767   27.3176 C   0  0  0  0  0  0  0  0  0  0  0  0
   10.3543 -103.2266   29.0369 C   0  0  0  0  0  0  0  0  0  0  0  0
   12.1763 -105.0916   28.4178 C   0  0  0  0  0  0  0  0  0  0  0  0
   11.6483 -103.9114   29.1850 N   0  0  0  0  0  0  0  0  0  0  0  0
   12.5301 -103.3451   30.2351 C   0  0  0  0  0  0  0  0  0  0  0  0
   12.0621 -102.1548   31.0475 O   0  0  0  0  0  0  0  0  0  0  0  0
    9.8286 -106.6216   25.6017 C   0  0  0  0  0  0  0  0  0  0  0  0
   10.7008 -106.7662   24.4033 C   0  0  0  0  0  0  0  0  0  0  0  0
   12.1340 -106.2778   24.4514 C   0  0  0  0  0  0  0  0  0  0  0  0
   10.1466 -107.3861   23.1871 C   0  0  0  0  0  0  0  0  0  0  0  0
   13.0062 -106.4225   23.2529 C   0  0  0  0  0  0  0  0  0  0  0  0
   11.0188 -107.5308   21.9886 C   0  0  0  0  0  0  0  0  0  0  0  0
   12.4520 -107.0424   22.0367 C   0  0  0  0  0  0  0  0  0  0  0  0
   14.4393 -105.9341   23.3011 C   0  0  0  0  0  0  0  0  0  0  0  0
   15.3046 -106.2911   24.4595 O   0  0  0  0  0  0  0  0  0  0  0  0
   15.0143 -105.0704   22.1635 N   0  0  0  0  0  0  0  0  0  0  0  0
   14.4444 -104.8330   21.3966 H   0  0  0  0  0  0  0  0  0  0  0  0
   16.4475 -104.5821   22.2117 C   0  0  0  0  0  0  0  0  0  0  0  0
   16.7659 -103.0758   22.1868 C   0  0  0  0  0  0  0  0  0  0  0  0
   17.5630 -105.5661   22.2842 C   0  0  0  0  0  0  0  0  0  0  0  0
   15.6522 -102.0241   22.1127 O   0  0  0  0  0  0  0  0  0  0  0  0
   18.1991 -102.5874   22.2350 N   0  0  0  0  0  0  0  0  0  0  0  0
   18.9962 -105.0777   22.3324 C   0  0  0  0  0  0  0  0  0  0  0  0
   19.3147 -103.5715   22.3074 C   0  0  0  0  0  0  0  0  0  0  0  0
   20.7478 -103.0831   22.3557 O   0  0  0  0  0  0  0  0  0  0  0  0
   18.3926 -101.6223   22.2186 H   0  0  0  0  0  0  0  0  0  0  0  0
   13.8566 -103.9569   30.4698 C   0  0  0  0  0  0  0  0  0  0  0  0
   15.0623 -103.0923   30.4680 C   0  0  0  0  0  0  0  0  0  0  0  0
   15.0827 -101.8817   31.3182 O   0  0  0  0  0  0  0  0  0  0  0  0
   15.4630 -102.0079   32.7468 C   0  0  0  0  0  0  0  0  0  0  0  0
   14.4553 -101.7152   33.7897 C   0  0  0  0  0  0  0  0  0  0  0  0
   16.8703 -102.4323   33.1146 C   0  0  0  0  0  0  0  0  0  0  0  0
   14.8357 -101.8414   35.2182 C   0  0  0  0  0  0  0  0  0  0  0  0
   17.2507 -102.5585   34.5432 C   0  0  0  0  0  0  0  0  0  0  0  0
   16.2430 -102.2658   35.5861 C   0  0  0  0  0  0  0  0  0  0  0  0
  1  2  2  0
  1  3  2  0
  1  4  1  0
  1  5  1  0
  4  6  1  0
  4 12  1  0
  5  7  1  0
  6  8  1  0
 12 13  1  0
  7  9  1  0
 13 14  2  0
 13 15  1  0
  9 10  1  0
 14 16  1  0
 15 17  2  0
 10 11  2  0
 10 32  1  0
 16 19  1  0
 16 18  2  0
 32 33  1  0
 19 20  2  0
 19 21  1  0
 33 34  1  0
 23 21  1  0
 34 35  1  0
 23 24  1  0
 23 25  1  0
 35 36  2  0
 35 37  1  0
 24 26  2  0
 24 27  1  0
 25 28  1  0
 36 38  1  0
 37 39  2  0
 27 29  1  0
 38 40  2  0
 29 30  2  0
  8  9  1  0
 17 18  1  0
 28 29  1  0
 39 40  1  0
 21 22  1  0
 27 31  1  0
M  END
> <Molecule Name>
Compound 12

> <EC50 (µM) (Excel)>
61.9

> <Error (µM)>
8.1

> <HTRC CRBN-DDB1 EC50 (µM)>
61.88 ±  8.05

> <EC50 fitting (µM)>
111.51

> <Modèle Fitting>
4PL
$$$$

> <minimizedAffinity>
-10.67048

> <CNNscore>
0.2867489159

> <CNNaffinity>
6.6315956116

> <CNN_VS>
1.9016028643

> <CNNaffinity_variance>
0.5431432128

$$$$
Compound 12


 40 43  0  0  0  0  0  0  0  0999 V2000
   12.6373 -107.1839   20.8450 S   0  0  0  0  0  0  0  0  0  0  0  0
   12.3924 -108.5726   20.2268 O   0  0  0  0  0  0  0  0  0  0  0  0
   12.2931 -108.3978   21.7167 O   0  0  0  0  0  0  0  0  0  0  0  0
   12.6867 -106.4184   22.1150 N   0  0  0  0  0  0  0  0  0  0  0  0
   12.8625 -106.7468   19.4333 C   0  0  0  0  0  0  0  0  0  0  0  0
   12.9807 -104.9937   22.2852 C   0  0  0  0  0  0  0  0  0  0  0  0
   13.2023 -105.3928   18.9400 C   0  0  0  0  0  0  0  0  0  0  0  0
   13.2958 -103.9942   21.2240 C   0  0  0  0  0  0  0  0  0  0  0  0
   13.3952 -104.1690   19.7341 N   0  0  0  0  0  0  0  0  0  0  0  0
   13.7308 -102.9628   18.9380 C   0  0  0  0  0  0  0  0  0  0  0  0
   13.8473 -103.0659   17.4309 O   0  0  0  0  0  0  0  0  0  0  0  0
   12.3980 -107.2133   23.3719 C   0  0  0  0  0  0  0  0  0  0  0  0
   11.4432 -106.6796   24.3825 C   0  0  0  0  0  0  0  0  0  0  0  0
   11.9520 -105.8099   25.5138 C   0  0  0  0  0  0  0  0  0  0  0  0
   10.0131 -107.0114   24.2594 C   0  0  0  0  0  0  0  0  0  0  0  0
   10.9972 -105.2762   26.5245 C   0  0  0  0  0  0  0  0  0  0  0  0
    9.0582 -106.4777   25.2701 C   0  0  0  0  0  0  0  0  0  0  0  0
    9.5670 -105.6081   26.4014 C   0  0  0  0  0  0  0  0  0  0  0  0
   11.5060 -104.4066   27.6557 C   0  0  0  0  0  0  0  0  0  0  0  0
   10.9562 -103.0348   27.8399 O   0  0  0  0  0  0  0  0  0  0  0  0
   12.5881 -104.9252   28.6205 N   0  0  0  0  0  0  0  0  0  0  0  0
   12.9532 -105.8317   28.5009 H   0  0  0  0  0  0  0  0  0  0  0  0
   13.0969 -104.0555   29.7517 C   0  0  0  0  0  0  0  0  0  0  0  0
   12.1754 -103.0209   30.4234 C   0  0  0  0  0  0  0  0  0  0  0  0
   14.5025 -104.1998   30.2219 C   0  0  0  0  0  0  0  0  0  0  0  0
   10.7207 -102.8351   29.9747 O   0  0  0  0  0  0  0  0  0  0  0  0
   12.6842 -102.1512   31.5546 N   0  0  0  0  0  0  0  0  0  0  0  0
   15.0113 -103.3301   31.3532 C   0  0  0  0  0  0  0  0  0  0  0  0
   14.0899 -102.2954   32.0249 C   0  0  0  0  0  0  0  0  0  0  0  0
   14.5986 -101.4257   33.1561 O   0  0  0  0  0  0  0  0  0  0  0  0
   12.0873 -101.4924   31.9777 H   0  0  0  0  0  0  0  0  0  0  0  0
   13.9463 -101.6758   19.6352 C   0  0  0  0  0  0  0  0  0  0  0  0
   15.3115 -101.0963   19.6780 C   0  0  0  0  0  0  0  0  0  0  0  0
   16.4723 -101.9976   19.8478 O   0  0  0  0  0  0  0  0  0  0  0  0
   16.6765 -102.6760   21.1515 C   0  0  0  0  0  0  0  0  0  0  0  0
   16.8942 -101.8570   22.3641 C   0  0  0  0  0  0  0  0  0  0  0  0
   16.6591 -104.1896   21.2213 C   0  0  0  0  0  0  0  0  0  0  0  0
   17.0983 -102.5354   23.6677 C   0  0  0  0  0  0  0  0  0  0  0  0
   16.8632 -104.8679   22.5250 C   0  0  0  0  0  0  0  0  0  0  0  0
   17.0809 -104.0489   23.7376 C   0  0  0  0  0  0  0  0  0  0  0  0
  1  2  2  0
  1  3  2  0
  1  4  1  0
  1  5  1  0
  4  6  1  0
  4 12  1  0
  5  7  1  0
  6  8  1  0
 12 13  1  0
  7  9  1  0
 13 14  2  0
 13 15  1  0
  9 10  1  0
 14 16  1  0
 15 17  2  0
 10 11  2  0
 10 32  1  0
 16 19  1  0
 16 18  2  0
 32 33  1  0
 19 20  2  0
 19 21  1  0
 33 34  1  0
 23 21  1  0
 34 35  1  0
 23 24  1  0
 23 25  1  0
 35 36  2  0
 35 37  1  0
 24 26  2  0
 24 27  1  0
 25 28  1  0
 36 38  1  0
 37 39  2  0
 27 29  1  0
 38 40  2  0
 29 30  2  0
  8  9  1  0
 17 18  1  0
 28 29  1  0
 39 40  1  0
 21 22  1  0
 27 31  1  0
M  END
> <Molecule Name>
Compound 12

> <EC50 (µM) (Excel)>
61.9

> <Error (µM)>
8.1

> <HTRC CRBN-DDB1 EC50 (µM)>
61.88 ±  8.05

> <EC50 fitting (µM)>
111.51

> <Modèle Fitting>
4PL
$$$$

> <minimizedAffinity>
-10.35107

> <CNNscore>
0.2284486592

> <CNNaffinity>
6.1864876747

> <CNN_VS>
1.4132947922

> <CNNaffinity_variance>
1.3513735533

$$$$
Compound 12


 40 43  0  0  0  0  0  0  0  0999 V2000
   10.7729 -106.9945   22.9517 S   0  0  0  0  0  0  0  0  0  0  0  0
    9.6463 -107.8861   22.3981 O   0  0  0  0  0  0  0  0  0  0  0  0
    9.4481 -107.1687   23.7044 O   0  0  0  0  0  0  0  0  0  0  0  0
   11.1702 -106.1049   24.0705 N   0  0  0  0  0  0  0  0  0  0  0  0
   11.5142 -107.4023   21.7193 C   0  0  0  0  0  0  0  0  0  0  0  0
   12.4378 -105.3890   24.2321 C   0  0  0  0  0  0  0  0  0  0  0  0
   12.8766 -107.0026   21.2992 C   0  0  0  0  0  0  0  0  0  0  0  0
   13.6113 -105.3927   23.3116 C   0  0  0  0  0  0  0  0  0  0  0  0
   13.8095 -106.1101   22.0053 N   0  0  0  0  0  0  0  0  0  0  0  0
   15.1089 -105.9070   21.3188 C   0  0  0  0  0  0  0  0  0  0  0  0
   15.3771 -106.5994   19.9981 O   0  0  0  0  0  0  0  0  0  0  0  0
   10.1376 -105.9249   25.1642 C   0  0  0  0  0  0  0  0  0  0  0  0
   10.5614 -105.9358   26.5918 C   0  0  0  0  0  0  0  0  0  0  0  0
   10.2419 -107.1330   27.4633 C   0  0  0  0  0  0  0  0  0  0  0  0
   11.2882 -104.7727   27.1302 C   0  0  0  0  0  0  0  0  0  0  0  0
   10.6658 -107.1438   28.8910 C   0  0  0  0  0  0  0  0  0  0  0  0
   11.7121 -104.7836   28.5578 C   0  0  0  0  0  0  0  0  0  0  0  0
   11.3926 -105.9808   29.4293 C   0  0  0  0  0  0  0  0  0  0  0  0
   10.3463 -108.3410   29.7624 C   0  0  0  0  0  0  0  0  0  0  0  0
    8.9279 -108.7361   29.9865 O   0  0  0  0  0  0  0  0  0  0  0  0
   11.4735 -109.1571   30.4213 N   0  0  0  0  0  0  0  0  0  0  0  0
   12.4119 -108.8980   30.2748 H   0  0  0  0  0  0  0  0  0  0  0  0
   11.1539 -110.3543   31.2927 C   0  0  0  0  0  0  0  0  0  0  0  0
   11.4380 -111.7846   30.7984 C   0  0  0  0  0  0  0  0  0  0  0  0
   10.5584 -110.1499   32.6423 C   0  0  0  0  0  0  0  0  0  0  0  0
   12.0501 -112.0464   29.4168 O   0  0  0  0  0  0  0  0  0  0  0  0
   11.1184 -112.9819   31.6698 N   0  0  0  0  0  0  0  0  0  0  0  0
   10.2388 -111.3472   33.5137 C   0  0  0  0  0  0  0  0  0  0  0  0
   10.5229 -112.7775   33.0195 C   0  0  0  0  0  0  0  0  0  0  0  0
   10.2033 -113.9747   33.8908 O   0  0  0  0  0  0  0  0  0  0  0  0
   11.3038 -113.8925   31.3448 H   0  0  0  0  0  0  0  0  0  0  0  0
   16.1231 -105.0274   21.9407 C   0  0  0  0  0  0  0  0  0  0  0  0
   15.9955 -103.5570   21.7894 C   0  0  0  0  0  0  0  0  0  0  0  0
   15.9484 -102.9734   20.4307 O   0  0  0  0  0  0  0  0  0  0  0  0
   14.6305 -102.6891   19.8112 C   0  0  0  0  0  0  0  0  0  0  0  0
   13.4177 -102.7026   20.6584 C   0  0  0  0  0  0  0  0  0  0  0  0
   14.5466 -102.3909   18.3280 C   0  0  0  0  0  0  0  0  0  0  0  0
   12.0999 -102.4183   20.0388 C   0  0  0  0  0  0  0  0  0  0  0  0
   13.2287 -102.1067   17.7084 C   0  0  0  0  0  0  0  0  0  0  0  0
   12.0159 -102.1201   18.5556 C   0  0  0  0  0  0  0  0  0  0  0  0
  1  2  2  0
  1  3  2  0
  1  4  1  0
  1  5  1  0
  4  6  1  0
  4 12  1  0
  5  7  1  0
  6  8  1  0
 12 13  1  0
  7  9  1  0
 13 14  2  0
 13 15  1  0
  9 10  1  0
 14 16  1  0
 15 17  2  0
 10 11  2  0
 10 32  1  0
 16 19  1  0
 16 18  2  0
 32 33  1  0
 19 20  2  0
 19 21  1  0
 33 34  1  0
 23 21  1  0
 34 35  1  0
 23 24  1  0
 23 25  1  0
 35 36  2  0
 35 37  1  0
 24 26  2  0
 24 27  1  0
 25 28  1  0
 36 38  1  0
 37 39  2  0
 27 29  1  0
 38 40  2  0
 29 30  2  0
  8  9  1  0
 17 18  1  0
 28 29  1  0
 39 40  1  0
 21 22  1  0
 27 31  1  0
M  END
> <Molecule Name>
Compound 12

> <EC50 (µM) (Excel)>
61.9

> <Error (µM)>
8.1

> <HTRC CRBN-DDB1 EC50 (µM)>
61.88 ±  8.05

> <EC50 fitting (µM)>
111.51

> <Modèle Fitting>
4PL
$$$$

> <minimizedAffinity>
-8.89567

> <CNNscore>
0.2089146227

> <CNNaffinity>
5.8276028633

> <CNN_VS>
1.2174714804

> <CNNaffinity_variance>
0.9243075252

$$$$
Compound 12


 40 43  0  0  0  0  0  0  0  0999 V2000
   11.4160 -106.8395   22.6108 S   0  0  0  0  0  0  0  0  0  0  0  0
   10.5438 -107.6113   21.6036 O   0  0  0  0  0  0  0  0  0  0  0  0
   10.0561 -107.4233   23.0132 O   0  0  0  0  0  0  0  0  0  0  0  0
   11.5036 -106.3543   24.0100 N   0  0  0  0  0  0  0  0  0  0  0  0
   12.3701 -106.7000   21.4685 C   0  0  0  0  0  0  0  0  0  0  0  0
   12.5948 -105.5924   24.6217 C   0  0  0  0  0  0  0  0  0  0  0  0
   13.6843 -106.0181   21.4547 C   0  0  0  0  0  0  0  0  0  0  0  0
   13.8597 -105.1338   23.9783 C   0  0  0  0  0  0  0  0  0  0  0  0
   14.3474 -105.3219   22.5687 N   0  0  0  0  0  0  0  0  0  0  0  0
   15.6689 -104.7374   22.2325 C   0  0  0  0  0  0  0  0  0  0  0  0
   16.2225 -104.8887   20.8302 O   0  0  0  0  0  0  0  0  0  0  0  0
   10.3229 -106.6924   24.8969 C   0  0  0  0  0  0  0  0  0  0  0  0
    9.9916 -105.8161   26.0546 C   0  0  0  0  0  0  0  0  0  0  0  0
   11.0347 -105.5497   27.1203 C   0  0  0  0  0  0  0  0  0  0  0  0
    8.6458 -105.2225   26.1393 C   0  0  0  0  0  0  0  0  0  0  0  0
   10.7034 -104.6734   28.2781 C   0  0  0  0  0  0  0  0  0  0  0  0
    8.3145 -104.3463   27.2970 C   0  0  0  0  0  0  0  0  0  0  0  0
    9.3577 -104.0798   28.3628 C   0  0  0  0  0  0  0  0  0  0  0  0
   11.7466 -104.4070   29.3438 C   0  0  0  0  0  0  0  0  0  0  0  0
   12.4325 -105.5487   30.0102 O   0  0  0  0  0  0  0  0  0  0  0  0
   12.1077 -102.9658   29.7477 N   0  0  0  0  0  0  0  0  0  0  0  0
   11.6558 -102.2093   29.3087 H   0  0  0  0  0  0  0  0  0  0  0  0
   13.1509 -102.6995   30.8133 C   0  0  0  0  0  0  0  0  0  0  0  0
   14.5309 -103.3794   30.7497 C   0  0  0  0  0  0  0  0  0  0  0  0
   12.8422 -101.7709   31.9360 C   0  0  0  0  0  0  0  0  0  0  0  0
   14.8960 -104.3431   29.6140 O   0  0  0  0  0  0  0  0  0  0  0  0
   15.5741 -103.1131   31.8154 N   0  0  0  0  0  0  0  0  0  0  0  0
   13.8855 -101.5046   33.0017 C   0  0  0  0  0  0  0  0  0  0  0  0
   15.2655 -102.1845   32.9381 C   0  0  0  0  0  0  0  0  0  0  0  0
   16.3087 -101.9182   34.0037 O   0  0  0  0  0  0  0  0  0  0  0  0
   16.4537 -103.5527   31.7660 H   0  0  0  0  0  0  0  0  0  0  0  0
   16.4247 -104.0141   23.2788 C   0  0  0  0  0  0  0  0  0  0  0  0
   17.4051 -104.7580   24.1074 C   0  0  0  0  0  0  0  0  0  0  0  0
   17.5556 -106.2166   23.9108 O   0  0  0  0  0  0  0  0  0  0  0  0
   18.6652 -106.9274   24.5925 C   0  0  0  0  0  0  0  0  0  0  0  0
   19.5633 -106.1689   25.4908 C   0  0  0  0  0  0  0  0  0  0  0  0
   18.8614 -108.4118   24.3600 C   0  0  0  0  0  0  0  0  0  0  0  0
   20.6730 -106.8797   26.1725 C   0  0  0  0  0  0  0  0  0  0  0  0
   19.9710 -109.1226   25.0417 C   0  0  0  0  0  0  0  0  0  0  0  0
   20.8691 -108.3641   25.9400 C   0  0  0  0  0  0  0  0  0  0  0  0
  1  2  2  0
  1  3  2  0
  1  4  1  0
  1  5  1  0
  4  6  1  0
  4 12  1  0
  5  7  1  0
  6  8  1  0
 12 13  1  0
  7  9  1  0
 13 14  2  0
 13 15  1  0
  9 10  1  0
 14 16  1  0
 15 17  2  0
 10 11  2  0
 10 32  1  0
 16 19  1  0
 16 18  2  0
 32 33  1  0
 19 20  2  0
 19 21  1  0
 33 34  1  0
 23 21  1  0
 34 35  1  0
 23 24  1  0
 23 25  1  0
 35 36  2  0
 35 37  1  0
 24 26  2  0
 24 27  1  0
 25 28  1  0
 36 38  1  0
 37 39  2  0
 27 29  1  0
 38 40  2  0
 29 30  2  0
  8  9  1  0
 17 18  1  0
 28 29  1  0
 39 40  1  0
 21 22  1  0
 27 31  1  0
M  END
> <Molecule Name>
Compound 12

> <EC50 (µM) (Excel)>
61.9

> <Error (µM)>
8.1

> <HTRC CRBN-DDB1 EC50 (µM)>
61.88 ±  8.05

> <EC50 fitting (µM)>
111.51

> <Modèle Fitting>
4PL
$$$$

> <minimizedAffinity>
-8.44374

> <CNNscore>
0.1562145203

> <CNNaffinity>
6.3982234001

> <CNN_VS>
0.9994953871

> <CNNaffinity_variance>
0.3110545874

$$$$
