Compound 11


 37 40  0  0  0  0  0  0  0  0999 V2000
   11.0430 -105.5652   26.8370 C   0  0  0  0  0  0  0  0  0  0  0  0
   12.1376 -105.2632   27.8328 C   0  0  0  0  0  0  0  0  0  0  0  0
    9.6619 -105.1215   27.0674 C   0  0  0  0  0  0  0  0  0  0  0  0
   11.8218 -104.5048   29.0696 C   0  0  0  0  0  0  0  0  0  0  0  0
    9.3461 -104.3631   28.3042 C   0  0  0  0  0  0  0  0  0  0  0  0
   10.4407 -104.0610   29.3000 C   0  0  0  0  0  0  0  0  0  0  0  0
   12.9165 -104.2028   30.0654 C   0  0  0  0  0  0  0  0  0  0  0  0
   14.1867 -104.9704   30.0213 O   0  0  0  0  0  0  0  0  0  0  0  0
   12.7315 -103.1084   31.1258 N   0  0  0  0  0  0  0  0  0  0  0  0
   11.8902 -102.5979   31.1573 H   0  0  0  0  0  0  0  0  0  0  0  0
   13.8262 -102.8065   32.1215 C   0  0  0  0  0  0  0  0  0  0  0  0
   15.2056 -102.3266   31.6483 C   0  0  0  0  0  0  0  0  0  0  0  0
   13.5697 -102.9743   33.5743 C   0  0  0  0  0  0  0  0  0  0  0  0
   15.5180 -102.1387   30.1634 O   0  0  0  0  0  0  0  0  0  0  0  0
   16.3004 -102.0247   32.6438 N   0  0  0  0  0  0  0  0  0  0  0  0
   14.6646 -102.6723   34.5699 C   0  0  0  0  0  0  0  0  0  0  0  0
   16.0438 -102.1925   34.0966 C   0  0  0  0  0  0  0  0  0  0  0  0
   17.1387 -101.8906   35.0923 O   0  0  0  0  0  0  0  0  0  0  0  0
   17.1817 -101.7176   32.3304 H   0  0  0  0  0  0  0  0  0  0  0  0
   11.3588 -106.3237   25.6002 C   0  0  0  0  0  0  0  0  0  0  0  0
   10.9988 -105.8052   23.1496 S   0  0  0  0  0  0  0  0  0  0  0  0
    9.7737 -106.5354   22.5818 O   0  0  0  0  0  0  0  0  0  0  0  0
   10.1424 -106.7232   24.0224 O   0  0  0  0  0  0  0  0  0  0  0  0
   11.8153 -105.5867   24.3635 N   0  0  0  0  0  0  0  0  0  0  0  0
   11.1403 -105.2572   21.7708 C   0  0  0  0  0  0  0  0  0  0  0  0
   13.0016 -104.7456   24.4960 C   0  0  0  0  0  0  0  0  0  0  0  0
   12.1683 -104.3282   21.2617 C   0  0  0  0  0  0  0  0  0  0  0  0
   13.6545 -103.9218   23.4443 C   0  0  0  0  0  0  0  0  0  0  0  0
   13.2857 -103.7340   22.0036 N   0  0  0  0  0  0  0  0  0  0  0  0
   14.1473 -102.8358   21.2043 C   0  0  0  0  0  0  0  0  0  0  0  0
   15.3015 -102.1837   21.8510 O   0  0  0  0  0  0  0  0  0  0  0  0
   13.8342 -102.6007   19.7454 C   0  0  0  0  0  0  0  0  0  0  0  0
   12.4667 -102.2051   19.3435 N   0  0  0  0  0  0  0  0  0  0  0  0
   14.9171 -102.7668   18.6714 C   0  0  0  0  0  0  0  0  0  0  0  0
   12.1535 -101.9699   17.8844 C   0  0  0  0  0  0  0  0  0  0  0  0
   14.6040 -102.5317   17.2123 C   0  0  0  0  0  0  0  0  0  0  0  0
   13.2365 -102.1361   16.8105 C   0  0  0  0  0  0  0  0  0  0  0  0
 21 22  2  0
 21 23  2  0
 21 24  1  0
 21 25  1  0
 24 26  1  0
 24 20  1  0
 25 27  1  0
 26 28  1  0
 20  1  1  0
 27 29  1  0
  1  2  2  0
  1  3  1  0
 29 30  1  0
  2  4  1  0
  3  5  2  0
 30 31  2  0
 30 32  1  0
  4  7  1  0
  4  6  2  0
 32 33  2  0
 32 34  1  0
  7  8  2  0
  7  9  1  0
 33 35  1  0
 34 36  2  0
 11  9  1  0
 35 37  2  0
 11 12  1  0
 11 13  1  0
 12 14  2  0
 12 15  1  0
 13 16  1  0
 15 17  1  0
 17 18  2  0
 28 29  1  0
  5  6  1  0
 36 37  1  0
 16 17  1  0
  9 10  1  0
 15 19  1  0
M  END
> <Molecule Name>
Compound 11

> <EC50 (µM) (Excel)>
37.7

> <Error (µM)>
0.8

> <HTRC CRBN-DDB1 EC50 (µM)>
37.72 ±  0.78

> <EC50 fitting (µM)>
52.96

> <Modèle Fitting>
3PL
$$$$

> <minimizedAffinity>
-8.03617

> <CNNscore>
0.7261142135

> <CNNaffinity>
7.2562489510

> <CNN_VS>
5.2688655853

> <CNNaffinity_variance>
0.2845494449

$$$$
Compound 11


 37 40  0  0  0  0  0  0  0  0999 V2000
   11.3757 -105.2764   26.1560 C   0  0  0  0  0  0  0  0  0  0  0  0
   12.3806 -104.9821   27.2443 C   0  0  0  0  0  0  0  0  0  0  0  0
    9.9360 -105.0904   26.3800 C   0  0  0  0  0  0  0  0  0  0  0  0
   11.9148 -104.4955   28.5675 C   0  0  0  0  0  0  0  0  0  0  0  0
    9.4701 -104.6039   27.7032 C   0  0  0  0  0  0  0  0  0  0  0  0
   10.4751 -104.3095   28.7915 C   0  0  0  0  0  0  0  0  0  0  0  0
   12.9199 -104.2012   29.6557 C   0  0  0  0  0  0  0  0  0  0  0  0
   14.1915 -104.9656   29.7124 O   0  0  0  0  0  0  0  0  0  0  0  0
   12.6420 -103.1179   30.7073 N   0  0  0  0  0  0  0  0  0  0  0  0
   11.7996 -102.6096   30.6720 H   0  0  0  0  0  0  0  0  0  0  0  0
   13.6471 -102.8237   31.7954 C   0  0  0  0  0  0  0  0  0  0  0  0
   15.0150 -102.2154   31.4552 C   0  0  0  0  0  0  0  0  0  0  0  0
   13.3126 -103.1244   33.2105 C   0  0  0  0  0  0  0  0  0  0  0  0
   15.4057 -101.8883   30.0137 O   0  0  0  0  0  0  0  0  0  0  0  0
   16.0203 -101.9212   32.5433 N   0  0  0  0  0  0  0  0  0  0  0  0
   14.3179 -102.8301   34.2985 C   0  0  0  0  0  0  0  0  0  0  0  0
   15.6857 -102.2219   33.9583 C   0  0  0  0  0  0  0  0  0  0  0  0
   16.6910 -101.9276   35.0465 O   0  0  0  0  0  0  0  0  0  0  0  0
   16.8948 -101.5310   32.3150 H   0  0  0  0  0  0  0  0  0  0  0  0
   11.8416 -105.7630   24.8328 C   0  0  0  0  0  0  0  0  0  0  0  0
   13.3900 -105.0077   22.9792 S   0  0  0  0  0  0  0  0  0  0  0  0
   12.6248 -104.6789   21.6896 O   0  0  0  0  0  0  0  0  0  0  0  0
   11.8693 -105.1440   22.8977 O   0  0  0  0  0  0  0  0  0  0  0  0
   13.2512 -105.4678   24.3781 N   0  0  0  0  0  0  0  0  0  0  0  0
   14.5999 -104.6291   22.1955 C   0  0  0  0  0  0  0  0  0  0  0  0
   14.3162 -105.6659   25.3574 C   0  0  0  0  0  0  0  0  0  0  0  0
   16.0071 -104.6208   22.6411 C   0  0  0  0  0  0  0  0  0  0  0  0
   15.7756 -105.4505   25.1701 C   0  0  0  0  0  0  0  0  0  0  0  0
   16.5311 -104.9853   23.9619 N   0  0  0  0  0  0  0  0  0  0  0  0
   17.9999 -104.8709   24.0949 C   0  0  0  0  0  0  0  0  0  0  0  0
   18.6340 -105.2129   25.3819 O   0  0  0  0  0  0  0  0  0  0  0  0
   18.8245 -104.4079   22.9169 C   0  0  0  0  0  0  0  0  0  0  0  0
   20.0734 -105.1208   22.5709 N   0  0  0  0  0  0  0  0  0  0  0  0
   18.3839 -103.2056   22.0719 C   0  0  0  0  0  0  0  0  0  0  0  0
   20.8981 -104.6579   21.3928 C   0  0  0  0  0  0  0  0  0  0  0  0
   19.2085 -102.7425   20.8939 C   0  0  0  0  0  0  0  0  0  0  0  0
   20.4575 -103.4555   20.5478 C   0  0  0  0  0  0  0  0  0  0  0  0
 21 22  2  0
 21 23  2  0
 21 24  1  0
 21 25  1  0
 24 26  1  0
 24 20  1  0
 25 27  1  0
 26 28  1  0
 20  1  1  0
 27 29  1  0
  1  2  2  0
  1  3  1  0
 29 30  1  0
  2  4  1  0
  3  5  2  0
 30 31  2  0
 30 32  1  0
  4  7  1  0
  4  6  2  0
 32 33  2  0
 32 34  1  0
  7  8  2  0
  7  9  1  0
 33 35  1  0
 34 36  2  0
 11  9  1  0
 35 37  2  0
 11 12  1  0
 11 13  1  0
 12 14  2  0
 12 15  1  0
 13 16  1  0
 15 17  1  0
 17 18  2  0
 28 29  1  0
  5  6  1  0
 36 37  1  0
 16 17  1  0
  9 10  1  0
 15 19  1  0
M  END
> <Molecule Name>
Compound 11

> <EC50 (µM) (Excel)>
37.7

> <Error (µM)>
0.8

> <HTRC CRBN-DDB1 EC50 (µM)>
37.72 ±  0.78

> <EC50 fitting (µM)>
52.96

> <Modèle Fitting>
3PL
$$$$

> <minimizedAffinity>
-8.52252

> <CNNscore>
0.7055352926

> <CNNaffinity>
7.2204852104

> <CNN_VS>
5.0943069458

> <CNNaffinity_variance>
0.1348596662

$$$$
Compound 11


 37 40  0  0  0  0  0  0  0  0999 V2000
   10.8575 -105.9537   26.8299 C   0  0  0  0  0  0  0  0  0  0  0  0
   11.9313 -105.6246   27.8395 C   0  0  0  0  0  0  0  0  0  0  0  0
    9.5213 -105.3500   26.9168 C   0  0  0  0  0  0  0  0  0  0  0  0
   11.6407 -104.6749   28.9433 C   0  0  0  0  0  0  0  0  0  0  0  0
    9.2307 -104.4003   28.0206 C   0  0  0  0  0  0  0  0  0  0  0  0
   10.3045 -104.0712   29.0302 C   0  0  0  0  0  0  0  0  0  0  0  0
   12.7147 -104.3458   29.9530 C   0  0  0  0  0  0  0  0  0  0  0  0
   13.9733 -105.1332   29.9750 O   0  0  0  0  0  0  0  0  0  0  0  0
   12.5203 -103.2035   30.9599 N   0  0  0  0  0  0  0  0  0  0  0  0
   11.6868 -102.6799   30.9475 H   0  0  0  0  0  0  0  0  0  0  0  0
   13.5944 -102.8746   31.9695 C   0  0  0  0  0  0  0  0  0  0  0  0
   14.9464 -102.3045   31.5180 C   0  0  0  0  0  0  0  0  0  0  0  0
   13.3439 -103.1035   33.4150 C   0  0  0  0  0  0  0  0  0  0  0  0
   15.2516 -102.0513   30.0413 O   0  0  0  0  0  0  0  0  0  0  0  0
   16.0204 -101.9755   32.5274 N   0  0  0  0  0  0  0  0  0  0  0  0
   14.4180 -102.7745   34.4245 C   0  0  0  0  0  0  0  0  0  0  0  0
   15.7699 -102.2044   33.9729 C   0  0  0  0  0  0  0  0  0  0  0  0
   16.8440 -101.8754   34.9825 O   0  0  0  0  0  0  0  0  0  0  0  0
   16.8842 -101.6103   32.2279 H   0  0  0  0  0  0  0  0  0  0  0  0
   11.1481 -106.9034   25.7261 C   0  0  0  0  0  0  0  0  0  0  0  0
   12.1847 -104.9992   24.4210 S   0  0  0  0  0  0  0  0  0  0  0  0
   12.4348 -103.7676   25.3025 O   0  0  0  0  0  0  0  0  0  0  0  0
   11.8240 -104.9958   25.9068 O   0  0  0  0  0  0  0  0  0  0  0  0
   11.6657 -106.3843   24.4057 N   0  0  0  0  0  0  0  0  0  0  0  0
   12.7650 -104.1661   23.3299 C   0  0  0  0  0  0  0  0  0  0  0  0
   11.5996 -107.2951   23.2662 C   0  0  0  0  0  0  0  0  0  0  0  0
   12.9709 -104.5339   21.9152 C   0  0  0  0  0  0  0  0  0  0  0  0
   12.0375 -107.0368   21.8688 C   0  0  0  0  0  0  0  0  0  0  0  0
   12.6483 -105.8085   21.2645 N   0  0  0  0  0  0  0  0  0  0  0  0
   12.9780 -105.8653   19.8237 C   0  0  0  0  0  0  0  0  0  0  0  0
   12.6953 -107.1010   19.0697 O   0  0  0  0  0  0  0  0  0  0  0  0
   13.5960 -104.6632   19.1491 C   0  0  0  0  0  0  0  0  0  0  0  0
   13.0411 -104.1758   17.8675 N   0  0  0  0  0  0  0  0  0  0  0  0
   14.7943 -103.9386   19.7759 C   0  0  0  0  0  0  0  0  0  0  0  0
   13.6592 -102.9736   17.1928 C   0  0  0  0  0  0  0  0  0  0  0  0
   15.4124 -102.7365   19.1013 C   0  0  0  0  0  0  0  0  0  0  0  0
   14.8574 -102.2491   17.8197 C   0  0  0  0  0  0  0  0  0  0  0  0
 21 22  2  0
 21 23  2  0
 21 24  1  0
 21 25  1  0
 24 26  1  0
 24 20  1  0
 25 27  1  0
 26 28  1  0
 20  1  1  0
 27 29  1  0
  1  2  2  0
  1  3  1  0
 29 30  1  0
  2  4  1  0
  3  5  2  0
 30 31  2  0
 30 32  1  0
  4  7  1  0
  4  6  2  0
 32 33  2  0
 32 34  1  0
  7  8  2  0
  7  9  1  0
 33 35  1  0
 34 36  2  0
 11  9  1  0
 35 37  2  0
 11 12  1  0
 11 13  1  0
 12 14  2  0
 12 15  1  0
 13 16  1  0
 15 17  1  0
 17 18  2  0
 28 29  1  0
  5  6  1  0
 36 37  1  0
 16 17  1  0
  9 10  1  0
 15 19  1  0
M  END
> <Molecule Name>
Compound 11

> <EC50 (µM) (Excel)>
37.7

> <Error (µM)>
0.8

> <HTRC CRBN-DDB1 EC50 (µM)>
37.72 ±  0.78

> <EC50 fitting (µM)>
52.96

> <Modèle Fitting>
3PL
$$$$

> <minimizedAffinity>
-8.07805

> <CNNscore>
0.6757848859

> <CNNaffinity>
7.2876753807

> <CNN_VS>
4.9249010086

> <CNNaffinity_variance>
0.1429192722

$$$$
Compound 11


 37 40  0  0  0  0  0  0  0  0999 V2000
   10.4551 -105.4209   26.2986 C   0  0  0  0  0  0  0  0  0  0  0  0
   11.8335 -105.0169   25.8320 C   0  0  0  0  0  0  0  0  0  0  0  0
    9.6300 -106.3513   25.5169 C   0  0  0  0  0  0  0  0  0  0  0  0
   12.3729 -105.5647   24.5617 C   0  0  0  0  0  0  0  0  0  0  0  0
   10.1694 -106.8991   24.2467 C   0  0  0  0  0  0  0  0  0  0  0  0
   11.5478 -106.4951   23.7800 C   0  0  0  0  0  0  0  0  0  0  0  0
   13.7513 -105.1606   24.0951 C   0  0  0  0  0  0  0  0  0  0  0  0
   13.9082 -104.3931   22.8338 O   0  0  0  0  0  0  0  0  0  0  0  0
   14.9962 -105.5350   24.9116 N   0  0  0  0  0  0  0  0  0  0  0  0
   14.8950 -106.0439   25.7483 H   0  0  0  0  0  0  0  0  0  0  0  0
   16.3746 -105.1309   24.4450 C   0  0  0  0  0  0  0  0  0  0  0  0
   17.4825 -106.1795   24.2726 C   0  0  0  0  0  0  0  0  0  0  0  0
   16.6652 -103.7052   24.1487 C   0  0  0  0  0  0  0  0  0  0  0  0
   17.2320 -107.6592   24.5651 O   0  0  0  0  0  0  0  0  0  0  0  0
   18.8609 -105.7755   23.8060 N   0  0  0  0  0  0  0  0  0  0  0  0
   18.0437 -103.3012   23.6820 C   0  0  0  0  0  0  0  0  0  0  0  0
   19.1515 -104.3499   23.5097 C   0  0  0  0  0  0  0  0  0  0  0  0
   20.5300 -103.9458   23.0430 O   0  0  0  0  0  0  0  0  0  0  0  0
   19.5647 -106.4554   23.6986 H   0  0  0  0  0  0  0  0  0  0  0  0
    9.9157 -104.8731   27.5689 C   0  0  0  0  0  0  0  0  0  0  0  0
   11.8505 -105.2473   29.1566 S   0  0  0  0  0  0  0  0  0  0  0  0
   12.3580 -106.6954   29.1126 O   0  0  0  0  0  0  0  0  0  0  0  0
   11.2125 -106.2881   28.2360 O   0  0  0  0  0  0  0  0  0  0  0  0
   10.8590 -104.3009   28.6004 N   0  0  0  0  0  0  0  0  0  0  0  0
   12.9212 -105.0475   30.1739 C   0  0  0  0  0  0  0  0  0  0  0  0
   10.6939 -102.8893   28.9354 C   0  0  0  0  0  0  0  0  0  0  0  0
   13.2659 -103.8103   30.9016 C   0  0  0  0  0  0  0  0  0  0  0  0
   11.4823 -102.0871   29.9080 C   0  0  0  0  0  0  0  0  0  0  0  0
   12.6279 -102.4945   30.7847 N   0  0  0  0  0  0  0  0  0  0  0  0
   13.2081 -101.4491   31.6556 C   0  0  0  0  0  0  0  0  0  0  0  0
   12.6427 -100.0874   31.6188 O   0  0  0  0  0  0  0  0  0  0  0  0
   14.3651 -101.7897   32.5652 C   0  0  0  0  0  0  0  0  0  0  0  0
   15.6859 -102.1118   31.9822 N   0  0  0  0  0  0  0  0  0  0  0  0
   14.1896 -101.8064   34.0892 C   0  0  0  0  0  0  0  0  0  0  0  0
   16.8430 -102.4525   32.8918 C   0  0  0  0  0  0  0  0  0  0  0  0
   15.3466 -102.1469   34.9989 C   0  0  0  0  0  0  0  0  0  0  0  0
   16.6673 -102.4691   34.4159 C   0  0  0  0  0  0  0  0  0  0  0  0
 21 22  2  0
 21 23  2  0
 21 24  1  0
 21 25  1  0
 24 26  1  0
 24 20  1  0
 25 27  1  0
 26 28  1  0
 20  1  1  0
 27 29  1  0
  1  2  2  0
  1  3  1  0
 29 30  1  0
  2  4  1  0
  3  5  2  0
 30 31  2  0
 30 32  1  0
  4  7  1  0
  4  6  2  0
 32 33  2  0
 32 34  1  0
  7  8  2  0
  7  9  1  0
 33 35  1  0
 34 36  2  0
 11  9  1  0
 35 37  2  0
 11 12  1  0
 11 13  1  0
 12 14  2  0
 12 15  1  0
 13 16  1  0
 15 17  1  0
 17 18  2  0
 28 29  1  0
  5  6  1  0
 36 37  1  0
 16 17  1  0
  9 10  1  0
 15 19  1  0
M  END
> <Molecule Name>
Compound 11

> <EC50 (µM) (Excel)>
37.7

> <Error (µM)>
0.8

> <HTRC CRBN-DDB1 EC50 (µM)>
37.72 ±  0.78

> <EC50 fitting (µM)>
52.96

> <Modèle Fitting>
3PL
$$$$

> <minimizedAffinity>
-9.10264

> <CNNscore>
0.3253485858

> <CNNaffinity>
6.9453868866

> <CNN_VS>
2.2596716881

> <CNNaffinity_variance>
0.0463101231

$$$$
Compound 11


 37 40  0  0  0  0  0  0  0  0999 V2000
   11.5381 -105.9693   23.9163 C   0  0  0  0  0  0  0  0  0  0  0  0
   11.9948 -105.1172   25.0767 C   0  0  0  0  0  0  0  0  0  0  0  0
   10.3119 -106.7736   23.9998 C   0  0  0  0  0  0  0  0  0  0  0  0
   11.1967 -105.0854   26.3284 C   0  0  0  0  0  0  0  0  0  0  0  0
    9.5138 -106.7418   25.2515 C   0  0  0  0  0  0  0  0  0  0  0  0
    9.9705 -105.8897   26.4119 C   0  0  0  0  0  0  0  0  0  0  0  0
   11.6535 -104.2333   27.4887 C   0  0  0  0  0  0  0  0  0  0  0  0
   11.1993 -102.8235   27.5929 O   0  0  0  0  0  0  0  0  0  0  0  0
   12.5846 -104.8087   28.5650 N   0  0  0  0  0  0  0  0  0  0  0  0
   12.8873 -105.7431   28.4982 H   0  0  0  0  0  0  0  0  0  0  0  0
   13.0413 -103.9565   29.7252 C   0  0  0  0  0  0  0  0  0  0  0  0
   12.1017 -102.9164   30.3514 C   0  0  0  0  0  0  0  0  0  0  0  0
   14.4129 -104.1234   30.2689 C   0  0  0  0  0  0  0  0  0  0  0  0
   10.6808 -102.7076   29.8268 O   0  0  0  0  0  0  0  0  0  0  0  0
   12.5583 -102.0641   31.5116 N   0  0  0  0  0  0  0  0  0  0  0  0
   14.8695 -103.2711   31.4292 C   0  0  0  0  0  0  0  0  0  0  0  0
   13.9299 -102.2310   32.0553 C   0  0  0  0  0  0  0  0  0  0  0  0
   14.3866 -101.3787   33.2156 O   0  0  0  0  0  0  0  0  0  0  0  0
   11.9483 -101.3998   31.9063 H   0  0  0  0  0  0  0  0  0  0  0  0
   12.3362 -106.0011   22.6647 C   0  0  0  0  0  0  0  0  0  0  0  0
   14.3423 -105.0446   21.4543 S   0  0  0  0  0  0  0  0  0  0  0  0
   13.9983 -104.6173   20.0205 O   0  0  0  0  0  0  0  0  0  0  0  0
   12.9303 -105.2078   20.8908 O   0  0  0  0  0  0  0  0  0  0  0  0
   13.8008 -105.6334   22.6985 N   0  0  0  0  0  0  0  0  0  0  0  0
   15.7147 -104.5685   21.1208 C   0  0  0  0  0  0  0  0  0  0  0  0
   14.5190 -105.8954   23.9426 C   0  0  0  0  0  0  0  0  0  0  0  0
   16.9127 -104.5686   21.9833 C   0  0  0  0  0  0  0  0  0  0  0  0
   15.9519 -105.6305   24.2387 C   0  0  0  0  0  0  0  0  0  0  0  0
   17.0198 -105.0399   23.3684 N   0  0  0  0  0  0  0  0  0  0  0  0
   18.3677 -104.9044   23.9625 C   0  0  0  0  0  0  0  0  0  0  0  0
   18.5887 -105.3476   25.3519 O   0  0  0  0  0  0  0  0  0  0  0  0
   19.4920 -104.3172   23.1421 C   0  0  0  0  0  0  0  0  0  0  0  0
   20.8187 -104.1065   23.7613 N   0  0  0  0  0  0  0  0  0  0  0  0
   19.2769 -103.9350   21.6720 C   0  0  0  0  0  0  0  0  0  0  0  0
   21.9432 -103.5193   22.9408 C   0  0  0  0  0  0  0  0  0  0  0  0
   20.4013 -103.3478   20.8515 C   0  0  0  0  0  0  0  0  0  0  0  0
   21.7281 -103.1372   21.4706 C   0  0  0  0  0  0  0  0  0  0  0  0
 21 22  2  0
 21 23  2  0
 21 24  1  0
 21 25  1  0
 24 26  1  0
 24 20  1  0
 25 27  1  0
 26 28  1  0
 20  1  1  0
 27 29  1  0
  1  2  2  0
  1  3  1  0
 29 30  1  0
  2  4  1  0
  3  5  2  0
 30 31  2  0
 30 32  1  0
  4  7  1  0
  4  6  2  0
 32 33  2  0
 32 34  1  0
  7  8  2  0
  7  9  1  0
 33 35  1  0
 34 36  2  0
 11  9  1  0
 35 37  2  0
 11 12  1  0
 11 13  1  0
 12 14  2  0
 12 15  1  0
 13 16  1  0
 15 17  1  0
 17 18  2  0
 28 29  1  0
  5  6  1  0
 36 37  1  0
 16 17  1  0
  9 10  1  0
 15 19  1  0
M  END
> <Molecule Name>
Compound 11

> <EC50 (µM) (Excel)>
37.7

> <Error (µM)>
0.8

> <HTRC CRBN-DDB1 EC50 (µM)>
37.72 ±  0.78

> <EC50 fitting (µM)>
52.96

> <Modèle Fitting>
3PL
$$$$

> <minimizedAffinity>
-10.21385

> <CNNscore>
0.2415474057

> <CNNaffinity>
6.4075293541

> <CNN_VS>
1.5477221012

> <CNNaffinity_variance>
0.2518008947

$$$$
Compound 11


 37 40  0  0  0  0  0  0  0  0999 V2000
   10.3692 -105.5161   26.2558 C   0  0  0  0  0  0  0  0  0  0  0  0
   11.7374 -105.0862   25.7826 C   0  0  0  0  0  0  0  0  0  0  0  0
    9.5586 -106.4629   25.4786 C   0  0  0  0  0  0  0  0  0  0  0  0
   12.2815 -105.6246   24.5102 C   0  0  0  0  0  0  0  0  0  0  0  0
   10.1026 -107.0013   24.2063 C   0  0  0  0  0  0  0  0  0  0  0  0
   11.4709 -106.5713   23.7330 C   0  0  0  0  0  0  0  0  0  0  0  0
   13.6498 -105.1945   24.0371 C   0  0  0  0  0  0  0  0  0  0  0  0
   14.8594 -105.6406   24.7736 O   0  0  0  0  0  0  0  0  0  0  0  0
   13.8057 -104.2990   22.8001 N   0  0  0  0  0  0  0  0  0  0  0  0
   13.0053 -104.0018   22.3099 H   0  0  0  0  0  0  0  0  0  0  0  0
   15.1741 -103.8690   22.3270 C   0  0  0  0  0  0  0  0  0  0  0  0
   15.3299 -102.7254   21.3148 C   0  0  0  0  0  0  0  0  0  0  0  0
   16.3839 -104.5571   22.8441 C   0  0  0  0  0  0  0  0  0  0  0  0
   14.1146 -101.9865   20.7536 O   0  0  0  0  0  0  0  0  0  0  0  0
   16.6981 -102.2953   20.8417 N   0  0  0  0  0  0  0  0  0  0  0  0
   17.7522 -104.1270   22.3710 C   0  0  0  0  0  0  0  0  0  0  0  0
   17.9080 -102.9834   21.3588 C   0  0  0  0  0  0  0  0  0  0  0  0
   19.2764 -102.5534   20.8857 O   0  0  0  0  0  0  0  0  0  0  0  0
   16.7876 -101.5608   20.1923 H   0  0  0  0  0  0  0  0  0  0  0  0
    9.8251 -104.9777   27.5281 C   0  0  0  0  0  0  0  0  0  0  0  0
   11.7869 -105.3109   29.0917 S   0  0  0  0  0  0  0  0  0  0  0  0
   12.3361 -106.7430   29.0273 O   0  0  0  0  0  0  0  0  0  0  0  0
   11.1699 -106.3606   28.1669 O   0  0  0  0  0  0  0  0  0  0  0  0
   10.7622 -104.3886   28.5557 N   0  0  0  0  0  0  0  0  0  0  0  0
   12.8620 -105.0901   30.1000 C   0  0  0  0  0  0  0  0  0  0  0  0
   10.5593 -102.9858   28.9072 C   0  0  0  0  0  0  0  0  0  0  0  0
   13.1780 -103.8507   30.8369 C   0  0  0  0  0  0  0  0  0  0  0  0
   11.3342 -102.1707   29.8800 C   0  0  0  0  0  0  0  0  0  0  0  0
   12.5005 -102.5531   30.7405 N   0  0  0  0  0  0  0  0  0  0  0  0
   13.0590 -101.5000   31.6163 C   0  0  0  0  0  0  0  0  0  0  0  0
   12.4535 -100.1552   31.5995 O   0  0  0  0  0  0  0  0  0  0  0  0
   14.2351 -101.8156   32.5102 C   0  0  0  0  0  0  0  0  0  0  0  0
   15.5677 -102.0508   31.9129 N   0  0  0  0  0  0  0  0  0  0  0  0
   14.0668 -101.8960   34.0330 C   0  0  0  0  0  0  0  0  0  0  0  0
   16.7440 -102.3664   32.8069 C   0  0  0  0  0  0  0  0  0  0  0  0
   15.2429 -102.2116   34.9271 C   0  0  0  0  0  0  0  0  0  0  0  0
   16.5756 -102.4467   34.3297 C   0  0  0  0  0  0  0  0  0  0  0  0
 21 22  2  0
 21 23  2  0
 21 24  1  0
 21 25  1  0
 24 26  1  0
 24 20  1  0
 25 27  1  0
 26 28  1  0
 20  1  1  0
 27 29  1  0
  1  2  2  0
  1  3  1  0
 29 30  1  0
  2  4  1  0
  3  5  2  0
 30 31  2  0
 30 32  1  0
  4  7  1  0
  4  6  2  0
 32 33  2  0
 32 34  1  0
  7  8  2  0
  7  9  1  0
 33 35  1  0
 34 36  2  0
 11  9  1  0
 35 37  2  0
 11 12  1  0
 11 13  1  0
 12 14  2  0
 12 15  1  0
 13 16  1  0
 15 17  1  0
 17 18  2  0
 28 29  1  0
  5  6  1  0
 36 37  1  0
 16 17  1  0
  9 10  1  0
 15 19  1  0
M  END
> <Molecule Name>
Compound 11

> <EC50 (µM) (Excel)>
37.7

> <Error (µM)>
0.8

> <HTRC CRBN-DDB1 EC50 (µM)>
37.72 ±  0.78

> <EC50 fitting (µM)>
52.96

> <Modèle Fitting>
3PL
$$$$

> <minimizedAffinity>
-9.36261

> <CNNscore>
0.2213645130

> <CNNaffinity>
6.8904480934

> <CNN_VS>
1.5253007412

> <CNNaffinity_variance>
0.0596017390

$$$$
Compound 11


 37 40  0  0  0  0  0  0  0  0999 V2000
   10.2983 -101.4057   18.2063 C   0  0  0  0  0  0  0  0  0  0  0  0
   11.0766 -102.0757   19.3138 C   0  0  0  0  0  0  0  0  0  0  0  0
   10.9771 -100.8510   17.0278 C   0  0  0  0  0  0  0  0  0  0  0  0
   12.5546 -102.1802   19.2186 C   0  0  0  0  0  0  0  0  0  0  0  0
   12.4552 -100.9555   16.9326 C   0  0  0  0  0  0  0  0  0  0  0  0
   13.2335 -101.6255   18.0401 C   0  0  0  0  0  0  0  0  0  0  0  0
   13.3328 -102.8502   20.3261 C   0  0  0  0  0  0  0  0  0  0  0  0
   14.0500 -102.0230   21.3291 O   0  0  0  0  0  0  0  0  0  0  0  0
   13.3915 -104.3808   20.4278 N   0  0  0  0  0  0  0  0  0  0  0  0
   12.9169 -104.9316   19.7641 H   0  0  0  0  0  0  0  0  0  0  0  0
   14.1697 -105.0507   21.5354 C   0  0  0  0  0  0  0  0  0  0  0  0
   13.4455 -105.6644   22.7419 C   0  0  0  0  0  0  0  0  0  0  0  0
   15.6511 -105.1184   21.4603 C   0  0  0  0  0  0  0  0  0  0  0  0
   11.9221 -105.6198   22.8644 O   0  0  0  0  0  0  0  0  0  0  0  0
   14.2236 -106.3342   23.8495 N   0  0  0  0  0  0  0  0  0  0  0  0
   16.4292 -105.7883   22.5679 C   0  0  0  0  0  0  0  0  0  0  0  0
   15.7050 -106.4020   23.7744 C   0  0  0  0  0  0  0  0  0  0  0  0
   16.4832 -107.0719   24.8820 O   0  0  0  0  0  0  0  0  0  0  0  0
   13.7500 -106.7249   24.6191 H   0  0  0  0  0  0  0  0  0  0  0  0
    8.8202 -101.3011   18.3015 C   0  0  0  0  0  0  0  0  0  0  0  0
    7.2313  -99.3351   18.1825 S   0  0  0  0  0  0  0  0  0  0  0  0
    6.5480  -99.2308   16.8118 O   0  0  0  0  0  0  0  0  0  0  0  0
    7.5254 -100.3382   17.0666 O   0  0  0  0  0  0  0  0  0  0  0  0
    8.1945 -100.1126   18.9922 N   0  0  0  0  0  0  0  0  0  0  0  0
    6.4323  -98.1231   18.5203 C   0  0  0  0  0  0  0  0  0  0  0  0
    8.6026  -99.8600   20.3713 C   0  0  0  0  0  0  0  0  0  0  0  0
    6.4067  -97.3754   19.7928 C   0  0  0  0  0  0  0  0  0  0  0  0
    8.1436  -98.7678   21.2701 C   0  0  0  0  0  0  0  0  0  0  0  0
    7.1661  -97.6604   21.0152 N   0  0  0  0  0  0  0  0  0  0  0  0
    6.9181  -96.7180   22.1280 C   0  0  0  0  0  0  0  0  0  0  0  0
    7.6298  -96.9109   23.4055 O   0  0  0  0  0  0  0  0  0  0  0  0
    5.9449  -95.5779   21.9409 C   0  0  0  0  0  0  0  0  0  0  0  0
    5.3991  -94.8783   23.1244 N   0  0  0  0  0  0  0  0  0  0  0  0
    5.5133  -95.1340   20.5373 C   0  0  0  0  0  0  0  0  0  0  0  0
    4.4257  -93.7381   22.9373 C   0  0  0  0  0  0  0  0  0  0  0  0
    4.5400  -93.9938   20.3501 C   0  0  0  0  0  0  0  0  0  0  0  0
    3.9942  -93.2942   21.5336 C   0  0  0  0  0  0  0  0  0  0  0  0
 21 22  2  0
 21 23  2  0
 21 24  1  0
 21 25  1  0
 24 26  1  0
 24 20  1  0
 25 27  1  0
 26 28  1  0
 20  1  1  0
 27 29  1  0
  1  2  2  0
  1  3  1  0
 29 30  1  0
  2  4  1  0
  3  5  2  0
 30 31  2  0
 30 32  1  0
  4  7  1  0
  4  6  2  0
 32 33  2  0
 32 34  1  0
  7  8  2  0
  7  9  1  0
 33 35  1  0
 34 36  2  0
 11  9  1  0
 35 37  2  0
 11 12  1  0
 11 13  1  0
 12 14  2  0
 12 15  1  0
 13 16  1  0
 15 17  1  0
 17 18  2  0
 28 29  1  0
  5  6  1  0
 36 37  1  0
 16 17  1  0
  9 10  1  0
 15 19  1  0
M  END
> <Molecule Name>
Compound 11

> <EC50 (µM) (Excel)>
37.7

> <Error (µM)>
0.8

> <HTRC CRBN-DDB1 EC50 (µM)>
37.72 ±  0.78

> <EC50 fitting (µM)>
52.96

> <Modèle Fitting>
3PL
$$$$

> <minimizedAffinity>
-6.30798

> <CNNscore>
0.1835715324

> <CNNaffinity>
5.7668414116

> <CNN_VS>
1.0586279631

> <CNNaffinity_variance>
0.1747678518

$$$$
Compound 11


 37 40  0  0  0  0  0  0  0  0999 V2000
   11.2439 -105.7438   26.1566 C   0  0  0  0  0  0  0  0  0  0  0  0
   10.9760 -106.9899   26.9668 C   0  0  0  0  0  0  0  0  0  0  0  0
   11.1482 -104.4086   26.7612 C   0  0  0  0  0  0  0  0  0  0  0  0
   10.6086 -106.8734   28.4007 C   0  0  0  0  0  0  0  0  0  0  0  0
   10.7808 -104.2921   28.1951 C   0  0  0  0  0  0  0  0  0  0  0  0
   10.5129 -105.5382   29.0052 C   0  0  0  0  0  0  0  0  0  0  0  0
   10.3406 -108.1196   29.2108 C   0  0  0  0  0  0  0  0  0  0  0  0
    8.9469 -108.6010   29.3855 O   0  0  0  0  0  0  0  0  0  0  0  0
   11.4953 -108.8972   29.8579 N   0  0  0  0  0  0  0  0  0  0  0  0
   12.4203 -108.5802   29.7436 H   0  0  0  0  0  0  0  0  0  0  0  0
   11.2272 -110.1433   30.6679 C   0  0  0  0  0  0  0  0  0  0  0  0
   11.4050 -111.5357   30.0462 C   0  0  0  0  0  0  0  0  0  0  0  0
   10.7869 -110.0248   32.0810 C   0  0  0  0  0  0  0  0  0  0  0  0
   11.8564 -111.7092   28.5957 O   0  0  0  0  0  0  0  0  0  0  0  0
   11.1370 -112.7819   30.8561 N   0  0  0  0  0  0  0  0  0  0  0  0
   10.5189 -111.2711   32.8909 C   0  0  0  0  0  0  0  0  0  0  0  0
   10.6967 -112.6634   32.2692 C   0  0  0  0  0  0  0  0  0  0  0  0
   10.4286 -113.9096   33.0792 O   0  0  0  0  0  0  0  0  0  0  0  0
   11.2539 -113.6703   30.4483 H   0  0  0  0  0  0  0  0  0  0  0  0
   11.6113 -105.8603   24.7227 C   0  0  0  0  0  0  0  0  0  0  0  0
   13.1563 -105.0309   22.8980 S   0  0  0  0  0  0  0  0  0  0  0  0
   12.3900 -104.6623   21.6199 O   0  0  0  0  0  0  0  0  0  0  0  0
   11.6366 -105.1742   22.8103 O   0  0  0  0  0  0  0  0  0  0  0  0
   13.0194 -105.5403   24.2800 N   0  0  0  0  0  0  0  0  0  0  0  0
   14.3643 -104.6174   22.1293 C   0  0  0  0  0  0  0  0  0  0  0  0
   14.0849 -105.7654   25.2529 C   0  0  0  0  0  0  0  0  0  0  0  0
   15.7711 -104.6154   22.5763 C   0  0  0  0  0  0  0  0  0  0  0  0
   15.5429 -105.5342   25.0747 C   0  0  0  0  0  0  0  0  0  0  0  0
   16.2964 -105.0223   23.8843 N   0  0  0  0  0  0  0  0  0  0  0  0
   17.7643 -104.9030   24.0226 C   0  0  0  0  0  0  0  0  0  0  0  0
   18.3996 -105.2855   25.2977 O   0  0  0  0  0  0  0  0  0  0  0  0
   18.5868 -104.3940   22.8623 C   0  0  0  0  0  0  0  0  0  0  0  0
   18.1969 -103.1399   22.1816 N   0  0  0  0  0  0  0  0  0  0  0  0
   19.8242 -105.1610   22.3784 C   0  0  0  0  0  0  0  0  0  0  0  0
   19.0194 -102.6308   21.0212 C   0  0  0  0  0  0  0  0  0  0  0  0
   20.6468 -104.6520   21.2181 C   0  0  0  0  0  0  0  0  0  0  0  0
   20.2568 -103.3979   20.5374 C   0  0  0  0  0  0  0  0  0  0  0  0
 21 22  2  0
 21 23  2  0
 21 24  1  0
 21 25  1  0
 24 26  1  0
 24 20  1  0
 25 27  1  0
 26 28  1  0
 20  1  1  0
 27 29  1  0
  1  2  2  0
  1  3  1  0
 29 30  1  0
  2  4  1  0
  3  5  2  0
 30 31  2  0
 30 32  1  0
  4  7  1  0
  4  6  2  0
 32 33  2  0
 32 34  1  0
  7  8  2  0
  7  9  1  0
 33 35  1  0
 34 36  2  0
 11  9  1  0
 35 37  2  0
 11 12  1  0
 11 13  1  0
 12 14  2  0
 12 15  1  0
 13 16  1  0
 15 17  1  0
 17 18  2  0
 28 29  1  0
  5  6  1  0
 36 37  1  0
 16 17  1  0
  9 10  1  0
 15 19  1  0
M  END
> <Molecule Name>
Compound 11

> <EC50 (µM) (Excel)>
37.7

> <Error (µM)>
0.8

> <HTRC CRBN-DDB1 EC50 (µM)>
37.72 ±  0.78

> <EC50 fitting (µM)>
52.96

> <Modèle Fitting>
3PL
$$$$

> <minimizedAffinity>
-6.36979

> <CNNscore>
0.1820373237

> <CNNaffinity>
5.2129931450

> <CNN_VS>
0.9489592910

> <CNNaffinity_variance>
0.7874627113

$$$$
Compound 11


 37 40  0  0  0  0  0  0  0  0999 V2000
   10.9989 -106.3588   24.7650 C   0  0  0  0  0  0  0  0  0  0  0  0
   11.6020 -105.5009   25.8519 C   0  0  0  0  0  0  0  0  0  0  0  0
    9.5679 -106.6899   24.7638 C   0  0  0  0  0  0  0  0  0  0  0  0
   10.7411 -104.9783   26.9429 C   0  0  0  0  0  0  0  0  0  0  0  0
    8.7070 -106.1673   25.8548 C   0  0  0  0  0  0  0  0  0  0  0  0
    9.3101 -105.3094   26.9417 C   0  0  0  0  0  0  0  0  0  0  0  0
   11.3443 -104.1204   28.0297 C   0  0  0  0  0  0  0  0  0  0  0  0
   10.8831 -102.7201   28.2062 O   0  0  0  0  0  0  0  0  0  0  0  0
   12.4319 -104.6802   28.9573 N   0  0  0  0  0  0  0  0  0  0  0  0
   12.7395 -105.6084   28.8425 H   0  0  0  0  0  0  0  0  0  0  0  0
   13.0350 -103.8223   30.0441 C   0  0  0  0  0  0  0  0  0  0  0  0
   12.2277 -102.6828   30.6818 C   0  0  0  0  0  0  0  0  0  0  0  0
   14.4232 -104.0804   30.5034 C   0  0  0  0  0  0  0  0  0  0  0  0
   10.7951 -102.3782   30.2428 O   0  0  0  0  0  0  0  0  0  0  0  0
   12.8307 -101.8248   31.7686 N   0  0  0  0  0  0  0  0  0  0  0  0
   15.0262 -103.2223   31.5902 C   0  0  0  0  0  0  0  0  0  0  0  0
   14.2189 -102.0829   32.2279 C   0  0  0  0  0  0  0  0  0  0  0  0
   14.8220 -101.2249   33.3147 O   0  0  0  0  0  0  0  0  0  0  0  0
   12.3049 -101.0965   32.1713 H   0  0  0  0  0  0  0  0  0  0  0  0
   11.8598 -106.8815   23.6740 C   0  0  0  0  0  0  0  0  0  0  0  0
   14.1046 -105.9269   23.0001 S   0  0  0  0  0  0  0  0  0  0  0  0
   15.2589 -106.5621   23.7880 O   0  0  0  0  0  0  0  0  0  0  0  0
   13.8520 -107.0053   24.0542 O   0  0  0  0  0  0  0  0  0  0  0  0
   12.6382 -105.9211   22.8062 N   0  0  0  0  0  0  0  0  0  0  0  0
   15.1764 -105.1318   22.3365 C   0  0  0  0  0  0  0  0  0  0  0  0
   11.8686 -105.0975   21.8779 C   0  0  0  0  0  0  0  0  0  0  0  0
   15.0302 -104.1065   21.2847 C   0  0  0  0  0  0  0  0  0  0  0  0
   12.3835 -104.0823   20.9211 C   0  0  0  0  0  0  0  0  0  0  0  0
   13.7904 -103.6391   20.6549 N   0  0  0  0  0  0  0  0  0  0  0  0
   13.9787 -102.5935   19.6257 C   0  0  0  0  0  0  0  0  0  0  0  0
   12.7980 -102.0510   18.9277 O   0  0  0  0  0  0  0  0  0  0  0  0
   15.3700 -102.0993   19.3062 C   0  0  0  0  0  0  0  0  0  0  0  0
   15.7949 -101.9665   17.8956 N   0  0  0  0  0  0  0  0  0  0  0  0
   16.3513 -101.7321   20.4268 C   0  0  0  0  0  0  0  0  0  0  0  0
   17.1863 -101.4723   17.5760 C   0  0  0  0  0  0  0  0  0  0  0  0
   17.7427 -101.2379   20.1073 C   0  0  0  0  0  0  0  0  0  0  0  0
   18.1676 -101.1051   18.6967 C   0  0  0  0  0  0  0  0  0  0  0  0
 21 22  2  0
 21 23  2  0
 21 24  1  0
 21 25  1  0
 24 26  1  0
 24 20  1  0
 25 27  1  0
 26 28  1  0
 20  1  1  0
 27 29  1  0
  1  2  2  0
  1  3  1  0
 29 30  1  0
  2  4  1  0
  3  5  2  0
 30 31  2  0
 30 32  1  0
  4  7  1  0
  4  6  2  0
 32 33  2  0
 32 34  1  0
  7  8  2  0
  7  9  1  0
 33 35  1  0
 34 36  2  0
 11  9  1  0
 35 37  2  0
 11 12  1  0
 11 13  1  0
 12 14  2  0
 12 15  1  0
 13 16  1  0
 15 17  1  0
 17 18  2  0
 28 29  1  0
  5  6  1  0
 36 37  1  0
 16 17  1  0
  9 10  1  0
 15 19  1  0
M  END
> <Molecule Name>
Compound 11

> <EC50 (µM) (Excel)>
37.7

> <Error (µM)>
0.8

> <HTRC CRBN-DDB1 EC50 (µM)>
37.72 ±  0.78

> <EC50 fitting (µM)>
52.96

> <Modèle Fitting>
3PL
$$$$

> <minimizedAffinity>
-8.00791

> <CNNscore>
0.1790497899

> <CNNaffinity>
6.1433043480

> <CNN_VS>
1.0999573469

> <CNNaffinity_variance>
0.5304462314

$$$$
