Compound 8


 30 32  0  0  0  0  0  0  0  0999 V2000
   10.8611 -105.3832   27.2775 C   0  0  0  0  0  0  0  0  0  0  0  0
   11.9738 -105.1853   28.2364 C   0  0  0  0  0  0  0  0  0  0  0  0
    9.6291 -104.5130   27.2889 C   0  0  0  0  0  0  0  0  0  0  0  0
   11.8580 -104.0942   29.2317 C   0  0  0  0  0  0  0  0  0  0  0  0
    9.5134 -103.4219   28.2843 C   0  0  0  0  0  0  0  0  0  0  0  0
   10.6261 -103.2239   29.2433 C   0  0  0  0  0  0  0  0  0  0  0  0
   12.9708 -103.8962   30.1907 C   0  0  0  0  0  0  0  0  0  0  0  0
   14.1688 -104.7585   30.0651 O   0  0  0  0  0  0  0  0  0  0  0  0
   12.8557 -102.8197   31.2729 N   0  0  0  0  0  0  0  0  0  0  0  0
   12.0467 -102.2618   31.3316 H   0  0  0  0  0  0  0  0  0  0  0  0
   13.9684 -102.6216   32.2320 C   0  0  0  0  0  0  0  0  0  0  0  0
   15.3321 -102.1479   31.7230 C   0  0  0  0  0  0  0  0  0  0  0  0
   13.7165 -102.8930   33.6664 C   0  0  0  0  0  0  0  0  0  0  0  0
   15.5824 -101.8678   30.2213 O   0  0  0  0  0  0  0  0  0  0  0  0
   16.4447 -101.9498   32.6821 N   0  0  0  0  0  0  0  0  0  0  0  0
   14.8291 -102.6949   34.6255 C   0  0  0  0  0  0  0  0  0  0  0  0
   16.1928 -102.2211   34.1166 C   0  0  0  0  0  0  0  0  0  0  0  0
   17.3055 -102.0231   35.0756 O   0  0  0  0  0  0  0  0  0  0  0  0
   17.3288 -101.6457   32.3737 H   0  0  0  0  0  0  0  0  0  0  0  0
   10.9769 -106.4743   26.2821 C   0  0  0  0  0  0  0  0  0  0  0  0
   10.9472 -106.5741   23.7932 S   0  0  0  0  0  0  0  0  0  0  0  0
    9.6577 -107.1763   23.2066 O   0  0  0  0  0  0  0  0  0  0  0  0
    9.8281 -107.0477   24.6961 O   0  0  0  0  0  0  0  0  0  0  0  0
   11.6912 -106.1961   25.0135 N   0  0  0  0  0  0  0  0  0  0  0  0
   11.3639 -106.4371   22.3240 C   0  0  0  0  0  0  0  0  0  0  0  0
   13.0511 -105.5795   25.1004 C   0  0  0  0  0  0  0  0  0  0  0  0
   12.6384 -105.8822   21.7467 C   0  0  0  0  0  0  0  0  0  0  0  0
   14.0048 -105.1883   23.9740 C   0  0  0  0  0  0  0  0  0  0  0  0
   13.8050 -105.3307   22.4687 N   0  0  0  0  0  0  0  0  0  0  0  0
   14.5750 -105.0036   21.8852 H   0  0  0  0  0  0  0  0  0  0  0  0
 21 22  2  0
 21 23  2  0
 21 24  1  0
 21 25  1  0
 24 26  1  0
 24 20  1  0
 25 27  1  0
 26 28  1  0
 20  1  1  0
 27 29  1  0
  1  2  2  0
  1  3  1  0
  2  4  1  0
  3  5  2  0
  4  7  1  0
  4  6  2  0
  7  8  2  0
  7  9  1  0
 11  9  1  0
 11 12  1  0
 11 13  1  0
 12 14  2  0
 12 15  1  0
 13 16  1  0
 15 17  1  0
 17 18  2  0
 28 29  1  0
  5  6  1  0
 16 17  1  0
 29 30  1  0
  9 10  1  0
 15 19  1  0
M  END
> <Molecule Name>
Compound 8

> <EC50 (µM) (Excel)>
6.8

> <Error (µM)>
1.0

> <HTRC CRBN-DDB1 EC50 (µM)>
6.77 ±  1.02

> <EC50 fitting (µM)>
7.19

> <Modèle Fitting>
4PL
$$$$

> <minimizedAffinity>
-9.36214

> <CNNscore>
0.7834596038

> <CNNaffinity>
6.9123101234

> <CNN_VS>
5.4155158997

> <CNNaffinity_variance>
0.0045036753

$$$$
Compound 8


 30 32  0  0  0  0  0  0  0  0999 V2000
   13.1324 -106.0753   20.0261 C   0  0  0  0  0  0  0  0  0  0  0  0
   13.1004 -105.6750   21.4528 C   0  0  0  0  0  0  0  0  0  0  0  0
   12.5414 -107.3773   19.5457 C   0  0  0  0  0  0  0  0  0  0  0  0
   12.4643 -106.5930   22.4261 C   0  0  0  0  0  0  0  0  0  0  0  0
   11.9053 -108.2953   20.5190 C   0  0  0  0  0  0  0  0  0  0  0  0
   11.8732 -107.8950   21.9459 C   0  0  0  0  0  0  0  0  0  0  0  0
   12.4321 -106.1927   23.8529 C   0  0  0  0  0  0  0  0  0  0  0  0
   13.6984 -105.7642   24.4914 O   0  0  0  0  0  0  0  0  0  0  0  0
   11.1087 -106.2317   24.6210 N   0  0  0  0  0  0  0  0  0  0  0  0
   10.2830 -106.5211   24.1696 H   0  0  0  0  0  0  0  0  0  0  0  0
   11.0764 -105.8315   26.0479 C   0  0  0  0  0  0  0  0  0  0  0  0
    9.9124 -106.2806   26.9347 C   0  0  0  0  0  0  0  0  0  0  0  0
   12.1863 -105.0007   26.5700 C   0  0  0  0  0  0  0  0  0  0  0  0
    8.7585 -107.1488   26.3768 O   0  0  0  0  0  0  0  0  0  0  0  0
    9.8802 -105.8804   28.3615 N   0  0  0  0  0  0  0  0  0  0  0  0
   12.1541 -104.6004   27.9968 C   0  0  0  0  0  0  0  0  0  0  0  0
   10.9901 -105.0496   28.8836 C   0  0  0  0  0  0  0  0  0  0  0  0
   10.9578 -104.6494   30.3104 O   0  0  0  0  0  0  0  0  0  0  0  0
    9.1399 -106.1595   28.9474 H   0  0  0  0  0  0  0  0  0  0  0  0
   13.7685 -105.1574   19.0527 C   0  0  0  0  0  0  0  0  0  0  0  0
   14.6428 -102.8300   18.8961 S   0  0  0  0  0  0  0  0  0  0  0  0
   13.9468 -101.9711   17.8248 O   0  0  0  0  0  0  0  0  0  0  0  0
   13.5310 -103.4009   18.0417 O   0  0  0  0  0  0  0  0  0  0  0  0
   14.7272 -104.1476   19.5612 N   0  0  0  0  0  0  0  0  0  0  0  0
   15.4642 -101.5612   19.1537 C   0  0  0  0  0  0  0  0  0  0  0  0
   15.6523 -104.5577   20.6625 C   0  0  0  0  0  0  0  0  0  0  0  0
   16.5681 -101.3314   20.1507 C   0  0  0  0  0  0  0  0  0  0  0  0
   16.7281 -103.7384   21.3715 C   0  0  0  0  0  0  0  0  0  0  0  0
   17.1290 -102.2868   21.1301 N   0  0  0  0  0  0  0  0  0  0  0  0
   17.8804 -101.9292   21.7199 H   0  0  0  0  0  0  0  0  0  0  0  0
 21 22  2  0
 21 23  2  0
 21 24  1  0
 21 25  1  0
 24 26  1  0
 24 20  1  0
 25 27  1  0
 26 28  1  0
 20  1  1  0
 27 29  1  0
  1  2  2  0
  1  3  1  0
  2  4  1  0
  3  5  2  0
  4  7  1  0
  4  6  2  0
  7  8  2  0
  7  9  1  0
 11  9  1  0
 11 12  1  0
 11 13  1  0
 12 14  2  0
 12 15  1  0
 13 16  1  0
 15 17  1  0
 17 18  2  0
 28 29  1  0
  5  6  1  0
 16 17  1  0
 29 30  1  0
  9 10  1  0
 15 19  1  0
M  END
> <Molecule Name>
Compound 8

> <EC50 (µM) (Excel)>
6.8

> <Error (µM)>
1.0

> <HTRC CRBN-DDB1 EC50 (µM)>
6.77 ±  1.02

> <EC50 fitting (µM)>
7.19

> <Modèle Fitting>
4PL
$$$$

> <minimizedAffinity>
-8.16019

> <CNNscore>
0.4343750775

> <CNNaffinity>
5.8767414093

> <CNN_VS>
2.5527100563

> <CNNaffinity_variance>
0.0796068534

$$$$
Compound 8


 30 32  0  0  0  0  0  0  0  0999 V2000
   11.5161 -106.4284   24.0678 C   0  0  0  0  0  0  0  0  0  0  0  0
   12.0154 -105.5656   25.1647 C   0  0  0  0  0  0  0  0  0  0  0  0
   10.1198 -106.9990   24.0694 C   0  0  0  0  0  0  0  0  0  0  0  0
   11.1026 -105.2627   26.2914 C   0  0  0  0  0  0  0  0  0  0  0  0
    9.2071 -106.6961   25.1963 C   0  0  0  0  0  0  0  0  0  0  0  0
    9.7063 -105.8332   26.2933 C   0  0  0  0  0  0  0  0  0  0  0  0
   11.6018 -104.3998   27.3884 C   0  0  0  0  0  0  0  0  0  0  0  0
   11.2592 -102.9588   27.3606 O   0  0  0  0  0  0  0  0  0  0  0  0
   12.4479 -105.0113   28.5080 N   0  0  0  0  0  0  0  0  0  0  0  0
   12.6594 -105.9727   28.4995 H   0  0  0  0  0  0  0  0  0  0  0  0
   12.9472 -104.1485   29.6050 C   0  0  0  0  0  0  0  0  0  0  0  0
   12.0010 -103.1464   30.2713 C   0  0  0  0  0  0  0  0  0  0  0  0
   14.3618 -104.2895   30.0217 C   0  0  0  0  0  0  0  0  0  0  0  0
   10.5247 -103.0088   29.8265 O   0  0  0  0  0  0  0  0  0  0  0  0
   12.5004 -102.2836   31.3683 N   0  0  0  0  0  0  0  0  0  0  0  0
   14.8611 -103.4268   31.1187 C   0  0  0  0  0  0  0  0  0  0  0  0
   13.9150 -102.4247   31.7850 C   0  0  0  0  0  0  0  0  0  0  0  0
   14.4142 -101.5619   32.8820 O   0  0  0  0  0  0  0  0  0  0  0  0
   11.9069 -101.6333   31.8089 H   0  0  0  0  0  0  0  0  0  0  0  0
   12.4289 -106.7313   22.9410 C   0  0  0  0  0  0  0  0  0  0  0  0
   12.8570 -106.2133   20.5423 S   0  0  0  0  0  0  0  0  0  0  0  0
   12.9698 -107.4583   19.6439 O   0  0  0  0  0  0  0  0  0  0  0  0
   12.7122 -107.6055   21.1191 O   0  0  0  0  0  0  0  0  0  0  0  0
   12.6403 -105.6898   21.9077 N   0  0  0  0  0  0  0  0  0  0  0  0
   13.1057 -105.4448   19.2390 C   0  0  0  0  0  0  0  0  0  0  0  0
   12.6127 -104.2595   22.3443 C   0  0  0  0  0  0  0  0  0  0  0  0
   13.1931 -103.9589   19.0153 C   0  0  0  0  0  0  0  0  0  0  0  0
   12.7975 -102.9943   21.5097 C   0  0  0  0  0  0  0  0  0  0  0  0
   13.0581 -102.8748   20.0118 N   0  0  0  0  0  0  0  0  0  0  0  0
   13.1513 -101.9253   19.6511 H   0  0  0  0  0  0  0  0  0  0  0  0
 21 22  2  0
 21 23  2  0
 21 24  1  0
 21 25  1  0
 24 26  1  0
 24 20  1  0
 25 27  1  0
 26 28  1  0
 20  1  1  0
 27 29  1  0
  1  2  2  0
  1  3  1  0
  2  4  1  0
  3  5  2  0
  4  7  1  0
  4  6  2  0
  7  8  2  0
  7  9  1  0
 11  9  1  0
 11 12  1  0
 11 13  1  0
 12 14  2  0
 12 15  1  0
 13 16  1  0
 15 17  1  0
 17 18  2  0
 28 29  1  0
  5  6  1  0
 16 17  1  0
 29 30  1  0
  9 10  1  0
 15 19  1  0
M  END
> <Molecule Name>
Compound 8

> <EC50 (µM) (Excel)>
6.8

> <Error (µM)>
1.0

> <HTRC CRBN-DDB1 EC50 (µM)>
6.77 ±  1.02

> <EC50 fitting (µM)>
7.19

> <Modèle Fitting>
4PL
$$$$

> <minimizedAffinity>
-8.52580

> <CNNscore>
0.3859539926

> <CNNaffinity>
5.9196324348

> <CNN_VS>
2.2847058773

> <CNNaffinity_variance>
0.0995352790

$$$$
Compound 8


 30 32  0  0  0  0  0  0  0  0999 V2000
   21.6480 -107.1545   23.9926 C   0  0  0  0  0  0  0  0  0  0  0  0
   20.5614 -106.4140   23.3086 C   0  0  0  0  0  0  0  0  0  0  0  0
   22.8577 -106.4568   24.5626 C   0  0  0  0  0  0  0  0  0  0  0  0
   20.6813 -104.9423   23.1888 C   0  0  0  0  0  0  0  0  0  0  0  0
   22.9776 -104.9851   24.4427 C   0  0  0  0  0  0  0  0  0  0  0  0
   21.8910 -104.2444   23.7587 C   0  0  0  0  0  0  0  0  0  0  0  0
   19.5947 -104.2016   22.5048 C   0  0  0  0  0  0  0  0  0  0  0  0
   19.9580 -103.2764   21.4064 O   0  0  0  0  0  0  0  0  0  0  0  0
   18.1433 -104.4086   22.9448 N   0  0  0  0  0  0  0  0  0  0  0  0
   17.9326 -105.0305   23.6784 H   0  0  0  0  0  0  0  0  0  0  0  0
   17.0566 -103.6679   22.2609 C   0  0  0  0  0  0  0  0  0  0  0  0
   16.8761 -102.1712   22.5265 C   0  0  0  0  0  0  0  0  0  0  0  0
   16.1738 -104.4130   21.3335 C   0  0  0  0  0  0  0  0  0  0  0  0
   17.8055 -101.4041   23.4981 O   0  0  0  0  0  0  0  0  0  0  0  0
   15.7894 -101.4306   21.8426 N   0  0  0  0  0  0  0  0  0  0  0  0
   15.0871 -103.6725   20.6496 C   0  0  0  0  0  0  0  0  0  0  0  0
   14.9066 -102.1758   20.9152 C   0  0  0  0  0  0  0  0  0  0  0  0
   13.8200 -101.4351   20.2313 O   0  0  0  0  0  0  0  0  0  0  0  0
   15.6577 -100.4679   22.0006 H   0  0  0  0  0  0  0  0  0  0  0  0
   21.5281 -108.6262   24.1124 C   0  0  0  0  0  0  0  0  0  0  0  0
   20.1481 -110.3103   25.3228 S   0  0  0  0  0  0  0  0  0  0  0  0
   19.3164 -111.2181   24.3988 O   0  0  0  0  0  0  0  0  0  0  0  0
   20.2025 -110.1495   23.8185 O   0  0  0  0  0  0  0  0  0  0  0  0
   21.1128 -109.1941   25.4172 N   0  0  0  0  0  0  0  0  0  0  0  0
   19.5050 -111.1314   26.4466 C   0  0  0  0  0  0  0  0  0  0  0  0
   21.6976 -108.5939   26.6561 C   0  0  0  0  0  0  0  0  0  0  0  0
   19.6909 -111.0117   27.9355 C   0  0  0  0  0  0  0  0  0  0  0  0
   21.4549 -108.9709   28.1156 C   0  0  0  0  0  0  0  0  0  0  0  0
   20.5485 -110.0618   28.6762 N   0  0  0  0  0  0  0  0  0  0  0  0
   20.5318 -110.1471   29.6925 H   0  0  0  0  0  0  0  0  0  0  0  0
 21 22  2  0
 21 23  2  0
 21 24  1  0
 21 25  1  0
 24 26  1  0
 24 20  1  0
 25 27  1  0
 26 28  1  0
 20  1  1  0
 27 29  1  0
  1  2  2  0
  1  3  1  0
  2  4  1  0
  3  5  2  0
  4  7  1  0
  4  6  2  0
  7  8  2  0
  7  9  1  0
 11  9  1  0
 11 12  1  0
 11 13  1  0
 12 14  2  0
 12 15  1  0
 13 16  1  0
 15 17  1  0
 17 18  2  0
 28 29  1  0
  5  6  1  0
 16 17  1  0
 29 30  1  0
  9 10  1  0
 15 19  1  0
M  END
> <Molecule Name>
Compound 8

> <EC50 (µM) (Excel)>
6.8

> <Error (µM)>
1.0

> <HTRC CRBN-DDB1 EC50 (µM)>
6.77 ±  1.02

> <EC50 fitting (µM)>
7.19

> <Modèle Fitting>
4PL
$$$$

> <minimizedAffinity>
-7.64795

> <CNNscore>
0.2788642943

> <CNNaffinity>
4.8579678535

> <CNN_VS>
1.3547137976

> <CNNaffinity_variance>
0.1632297784

$$$$
Compound 8


 30 32  0  0  0  0  0  0  0  0999 V2000
   18.7366 -106.6786   23.0470 C   0  0  0  0  0  0  0  0  0  0  0  0
   17.7955 -106.1215   22.0466 C   0  0  0  0  0  0  0  0  0  0  0  0
   18.3196 -106.9621   24.4686 C   0  0  0  0  0  0  0  0  0  0  0  0
   16.4046 -105.8394   22.4711 C   0  0  0  0  0  0  0  0  0  0  0  0
   16.9286 -106.6800   24.8930 C   0  0  0  0  0  0  0  0  0  0  0  0
   15.9873 -106.1229   23.8926 C   0  0  0  0  0  0  0  0  0  0  0  0
   15.4633 -105.2823   21.4707 C   0  0  0  0  0  0  0  0  0  0  0  0
   14.9040 -106.1955   20.4470 O   0  0  0  0  0  0  0  0  0  0  0  0
   15.0975 -103.7968   21.5197 N   0  0  0  0  0  0  0  0  0  0  0  0
   15.4855 -103.2143   22.2121 H   0  0  0  0  0  0  0  0  0  0  0  0
   14.1563 -103.2395   20.5193 C   0  0  0  0  0  0  0  0  0  0  0  0
   12.6513 -103.2673   20.7972 C   0  0  0  0  0  0  0  0  0  0  0  0
   14.7140 -102.6689   19.2711 C   0  0  0  0  0  0  0  0  0  0  0  0
   12.0811 -103.8666   22.1057 O   0  0  0  0  0  0  0  0  0  0  0  0
   11.7101 -102.7101   19.7968 N   0  0  0  0  0  0  0  0  0  0  0  0
   13.7728 -102.1117   18.2707 C   0  0  0  0  0  0  0  0  0  0  0  0
   12.2678 -102.1394   18.5486 C   0  0  0  0  0  0  0  0  0  0  0  0
   11.3266 -101.5823   17.5483 O   0  0  0  0  0  0  0  0  0  0  0  0
   10.7389 -102.7190   19.9578 H   0  0  0  0  0  0  0  0  0  0  0  0
   20.1276 -106.9607   22.6226 C   0  0  0  0  0  0  0  0  0  0  0  0
   21.9462 -108.0161   23.9583 S   0  0  0  0  0  0  0  0  0  0  0  0
   22.0916 -109.5314   23.7297 O   0  0  0  0  0  0  0  0  0  0  0  0
   21.0370 -108.7490   22.9950 O   0  0  0  0  0  0  0  0  0  0  0  0
   21.2157 -106.7783   23.6125 N   0  0  0  0  0  0  0  0  0  0  0  0
   23.1156 -108.2103   24.9308 C   0  0  0  0  0  0  0  0  0  0  0  0
   21.4522 -105.3994   24.1417 C   0  0  0  0  0  0  0  0  0  0  0  0
   23.8204 -107.1897   25.7836 C   0  0  0  0  0  0  0  0  0  0  0  0
   22.4888 -104.9221   25.1560 C   0  0  0  0  0  0  0  0  0  0  0  0
   23.5486 -105.7399   25.8868 N   0  0  0  0  0  0  0  0  0  0  0  0
   24.1465 -105.2201   26.5292 H   0  0  0  0  0  0  0  0  0  0  0  0
 21 22  2  0
 21 23  2  0
 21 24  1  0
 21 25  1  0
 24 26  1  0
 24 20  1  0
 25 27  1  0
 26 28  1  0
 20  1  1  0
 27 29  1  0
  1  2  2  0
  1  3  1  0
  2  4  1  0
  3  5  2  0
  4  7  1  0
  4  6  2  0
  7  8  2  0
  7  9  1  0
 11  9  1  0
 11 12  1  0
 11 13  1  0
 12 14  2  0
 12 15  1  0
 13 16  1  0
 15 17  1  0
 17 18  2  0
 28 29  1  0
  5  6  1  0
 16 17  1  0
 29 30  1  0
  9 10  1  0
 15 19  1  0
M  END
> <Molecule Name>
Compound 8

> <EC50 (µM) (Excel)>
6.8

> <Error (µM)>
1.0

> <HTRC CRBN-DDB1 EC50 (µM)>
6.77 ±  1.02

> <EC50 fitting (µM)>
7.19

> <Modèle Fitting>
4PL
$$$$

> <minimizedAffinity>
-7.42676

> <CNNscore>
0.2674977481

> <CNNaffinity>
4.8356089592

> <CNN_VS>
1.2935144901

> <CNNaffinity_variance>
0.1427917033

$$$$
Compound 8


 30 32  0  0  0  0  0  0  0  0999 V2000
   18.9486 -106.5968   23.4337 C   0  0  0  0  0  0  0  0  0  0  0  0
   18.0409 -106.0447   22.4002 C   0  0  0  0  0  0  0  0  0  0  0  0
   18.4709 -106.9278   24.8256 C   0  0  0  0  0  0  0  0  0  0  0  0
   16.6223 -105.8162   22.7605 C   0  0  0  0  0  0  0  0  0  0  0  0
   17.0522 -106.6993   25.1859 C   0  0  0  0  0  0  0  0  0  0  0  0
   16.1444 -106.1472   24.1524 C   0  0  0  0  0  0  0  0  0  0  0  0
   15.7144 -105.2641   21.7270 C   0  0  0  0  0  0  0  0  0  0  0  0
   15.1435 -106.1931   20.7242 O   0  0  0  0  0  0  0  0  0  0  0  0
   15.3937 -103.7674   21.7218 N   0  0  0  0  0  0  0  0  0  0  0  0
   15.7884 -103.1745   22.4014 H   0  0  0  0  0  0  0  0  0  0  0  0
   14.4859 -103.2151   20.6883 C   0  0  0  0  0  0  0  0  0  0  0  0
   13.0028 -103.0162   21.0108 C   0  0  0  0  0  0  0  0  0  0  0  0
   15.0546 -102.8716   19.3643 C   0  0  0  0  0  0  0  0  0  0  0  0
   12.4208 -103.3792   22.3985 O   0  0  0  0  0  0  0  0  0  0  0  0
   12.0950 -102.4640   19.9773 N   0  0  0  0  0  0  0  0  0  0  0  0
   14.1469 -102.3195   18.3308 C   0  0  0  0  0  0  0  0  0  0  0  0
   12.6637 -102.1205   18.6532 C   0  0  0  0  0  0  0  0  0  0  0  0
   11.7559 -101.5683   17.6198 O   0  0  0  0  0  0  0  0  0  0  0  0
   11.1382 -102.3289   20.1660 H   0  0  0  0  0  0  0  0  0  0  0  0
   20.3673 -106.8253   23.0735 C   0  0  0  0  0  0  0  0  0  0  0  0
   21.9167 -104.8797   23.2129 S   0  0  0  0  0  0  0  0  0  0  0  0
   22.3978 -104.5641   24.6407 O   0  0  0  0  0  0  0  0  0  0  0  0
   21.4567 -105.7115   24.3912 O   0  0  0  0  0  0  0  0  0  0  0  0
   21.0911 -105.7522   22.3511 N   0  0  0  0  0  0  0  0  0  0  0  0
   22.7920 -103.6828   22.8230 C   0  0  0  0  0  0  0  0  0  0  0  0
   20.9142 -105.6687   20.8683 C   0  0  0  0  0  0  0  0  0  0  0  0
   23.0356 -103.0885   21.4616 C   0  0  0  0  0  0  0  0  0  0  0  0
   21.5280 -104.6803   19.8796 C   0  0  0  0  0  0  0  0  0  0  0  0
   22.4815 -103.5238   20.1616 N   0  0  0  0  0  0  0  0  0  0  0  0
   22.7745 -102.9810   19.3493 H   0  0  0  0  0  0  0  0  0  0  0  0
 21 22  2  0
 21 23  2  0
 21 24  1  0
 21 25  1  0
 24 26  1  0
 24 20  1  0
 25 27  1  0
 26 28  1  0
 20  1  1  0
 27 29  1  0
  1  2  2  0
  1  3  1  0
  2  4  1  0
  3  5  2  0
  4  7  1  0
  4  6  2  0
  7  8  2  0
  7  9  1  0
 11  9  1  0
 11 12  1  0
 11 13  1  0
 12 14  2  0
 12 15  1  0
 13 16  1  0
 15 17  1  0
 17 18  2  0
 28 29  1  0
  5  6  1  0
 16 17  1  0
 29 30  1  0
  9 10  1  0
 15 19  1  0
M  END
> <Molecule Name>
Compound 8

> <EC50 (µM) (Excel)>
6.8

> <Error (µM)>
1.0

> <HTRC CRBN-DDB1 EC50 (µM)>
6.77 ±  1.02

> <EC50 fitting (µM)>
7.19

> <Modèle Fitting>
4PL
$$$$

> <minimizedAffinity>
-8.00875

> <CNNscore>
0.2662593424

> <CNNaffinity>
5.1022191048

> <CNN_VS>
1.3585134745

> <CNNaffinity_variance>
0.0302439202

$$$$
Compound 8


 30 32  0  0  0  0  0  0  0  0999 V2000
   18.0165 -105.7874   23.9951 C   0  0  0  0  0  0  0  0  0  0  0  0
   16.9891 -105.1681   23.1245 C   0  0  0  0  0  0  0  0  0  0  0  0
   19.1394 -104.9855   24.6046 C   0  0  0  0  0  0  0  0  0  0  0  0
   17.0811 -103.7147   22.8535 C   0  0  0  0  0  0  0  0  0  0  0  0
   19.2313 -103.5320   24.3335 C   0  0  0  0  0  0  0  0  0  0  0  0
   18.2038 -102.9126   23.4629 C   0  0  0  0  0  0  0  0  0  0  0  0
   16.0536 -103.0953   21.9829 C   0  0  0  0  0  0  0  0  0  0  0  0
   15.8733 -101.6261   22.0442 O   0  0  0  0  0  0  0  0  0  0  0  0
   15.2155 -103.9776   21.0544 N   0  0  0  0  0  0  0  0  0  0  0  0
   15.3582 -104.9516   21.0356 H   0  0  0  0  0  0  0  0  0  0  0  0
   14.1881 -103.3583   20.1838 C   0  0  0  0  0  0  0  0  0  0  0  0
   12.7509 -103.2161   20.6911 C   0  0  0  0  0  0  0  0  0  0  0  0
   14.5952 -102.8938   18.8373 C   0  0  0  0  0  0  0  0  0  0  0  0
   12.3382 -103.7057   22.1004 O   0  0  0  0  0  0  0  0  0  0  0  0
   11.7235 -102.5968   19.8204 N   0  0  0  0  0  0  0  0  0  0  0  0
   13.5679 -102.2745   17.9666 C   0  0  0  0  0  0  0  0  0  0  0  0
   12.1306 -102.1323   18.4739 C   0  0  0  0  0  0  0  0  0  0  0  0
   11.1032 -101.5130   17.6033 O   0  0  0  0  0  0  0  0  0  0  0  0
   10.7940 -102.4968   20.1291 H   0  0  0  0  0  0  0  0  0  0  0  0
   17.9246 -107.2409   24.2661 C   0  0  0  0  0  0  0  0  0  0  0  0
   19.0714 -109.4276   24.5955 S   0  0  0  0  0  0  0  0  0  0  0  0
   18.2924 -110.4152   25.4829 O   0  0  0  0  0  0  0  0  0  0  0  0
   17.7310 -109.0503   25.1894 O   0  0  0  0  0  0  0  0  0  0  0  0
   19.1060 -108.0869   23.9735 N   0  0  0  0  0  0  0  0  0  0  0  0
   20.1036 -110.5586   24.5158 C   0  0  0  0  0  0  0  0  0  0  0  0
   20.1777 -107.5103   23.1040 C   0  0  0  0  0  0  0  0  0  0  0  0
   21.4180 -110.5941   23.7832 C   0  0  0  0  0  0  0  0  0  0  0  0
   21.4880 -108.1440   22.6425 C   0  0  0  0  0  0  0  0  0  0  0  0
   22.0328 -109.5334   22.9565 N   0  0  0  0  0  0  0  0  0  0  0  0
   22.9374 -109.7601   22.5432 H   0  0  0  0  0  0  0  0  0  0  0  0
 21 22  2  0
 21 23  2  0
 21 24  1  0
 21 25  1  0
 24 26  1  0
 24 20  1  0
 25 27  1  0
 26 28  1  0
 20  1  1  0
 27 29  1  0
  1  2  2  0
  1  3  1  0
  2  4  1  0
  3  5  2  0
  4  7  1  0
  4  6  2  0
  7  8  2  0
  7  9  1  0
 11  9  1  0
 11 12  1  0
 11 13  1  0
 12 14  2  0
 12 15  1  0
 13 16  1  0
 15 17  1  0
 17 18  2  0
 28 29  1  0
  5  6  1  0
 16 17  1  0
 29 30  1  0
  9 10  1  0
 15 19  1  0
M  END
> <Molecule Name>
Compound 8

> <EC50 (µM) (Excel)>
6.8

> <Error (µM)>
1.0

> <HTRC CRBN-DDB1 EC50 (µM)>
6.77 ±  1.02

> <EC50 fitting (µM)>
7.19

> <Modèle Fitting>
4PL
$$$$

> <minimizedAffinity>
-7.98655

> <CNNscore>
0.2641283870

> <CNNaffinity>
4.9829974174

> <CNN_VS>
1.3161510229

> <CNNaffinity_variance>
0.0455448441

$$$$
Compound 8


 30 32  0  0  0  0  0  0  0  0999 V2000
   10.9858 -104.6526   28.5722 C   0  0  0  0  0  0  0  0  0  0  0  0
   11.1286 -104.8733   27.1134 C   0  0  0  0  0  0  0  0  0  0  0  0
   10.4858 -105.7312   29.5005 C   0  0  0  0  0  0  0  0  0  0  0  0
   10.7648 -106.2003   26.5646 C   0  0  0  0  0  0  0  0  0  0  0  0
   10.1220 -107.0583   28.9516 C   0  0  0  0  0  0  0  0  0  0  0  0
   10.2648 -107.2790   27.4928 C   0  0  0  0  0  0  0  0  0  0  0  0
   10.9076 -106.4210   25.1058 C   0  0  0  0  0  0  0  0  0  0  0  0
    9.6795 -106.4686   24.2786 O   0  0  0  0  0  0  0  0  0  0  0  0
   12.3022 -106.5921   24.4984 N   0  0  0  0  0  0  0  0  0  0  0  0
   13.1002 -106.5556   25.0737 H   0  0  0  0  0  0  0  0  0  0  0  0
   12.4451 -106.8128   23.0396 C   0  0  0  0  0  0  0  0  0  0  0  0
   13.3237 -105.8704   22.2132 C   0  0  0  0  0  0  0  0  0  0  0  0
   11.7229 -107.9522   22.4272 C   0  0  0  0  0  0  0  0  0  0  0  0
   14.0732 -104.6833   22.8653 O   0  0  0  0  0  0  0  0  0  0  0  0
   13.4665 -106.0912   20.7544 N   0  0  0  0  0  0  0  0  0  0  0  0
   11.8657 -108.1730   20.9685 C   0  0  0  0  0  0  0  0  0  0  0  0
   12.7443 -107.2306   20.1420 C   0  0  0  0  0  0  0  0  0  0  0  0
   12.8872 -107.4513   18.6833 O   0  0  0  0  0  0  0  0  0  0  0  0
   14.0271 -105.4958   20.2063 H   0  0  0  0  0  0  0  0  0  0  0  0
   11.3495 -103.3256   29.1211 C   0  0  0  0  0  0  0  0  0  0  0  0
   12.5861 -102.0847   30.8921 S   0  0  0  0  0  0  0  0  0  0  0  0
   11.8238 -100.8711   31.4539 O   0  0  0  0  0  0  0  0  0  0  0  0
   11.2092 -101.7234   30.3769 O   0  0  0  0  0  0  0  0  0  0  0  0
   12.5792 -103.2171   29.9417 N   0  0  0  0  0  0  0  0  0  0  0  0
   13.6728 -101.6640   31.8886 C   0  0  0  0  0  0  0  0  0  0  0  0
   13.6524 -104.2364   29.7268 C   0  0  0  0  0  0  0  0  0  0  0  0
   15.0124 -102.2965   32.1552 C   0  0  0  0  0  0  0  0  0  0  0  0
   15.0066 -104.3693   30.4195 C   0  0  0  0  0  0  0  0  0  0  0  0
   15.6051 -103.4883   31.5110 N   0  0  0  0  0  0  0  0  0  0  0  0
   16.5334 -103.7553   31.8388 H   0  0  0  0  0  0  0  0  0  0  0  0
 21 22  2  0
 21 23  2  0
 21 24  1  0
 21 25  1  0
 24 26  1  0
 24 20  1  0
 25 27  1  0
 26 28  1  0
 20  1  1  0
 27 29  1  0
  1  2  2  0
  1  3  1  0
  2  4  1  0
  3  5  2  0
  4  7  1  0
  4  6  2  0
  7  8  2  0
  7  9  1  0
 11  9  1  0
 11 12  1  0
 11 13  1  0
 12 14  2  0
 12 15  1  0
 13 16  1  0
 15 17  1  0
 17 18  2  0
 28 29  1  0
  5  6  1  0
 16 17  1  0
 29 30  1  0
  9 10  1  0
 15 19  1  0
M  END
> <Molecule Name>
Compound 8

> <EC50 (µM) (Excel)>
6.8

> <Error (µM)>
1.0

> <HTRC CRBN-DDB1 EC50 (µM)>
6.77 ±  1.02

> <EC50 fitting (µM)>
7.19

> <Modèle Fitting>
4PL
$$$$

> <minimizedAffinity>
-7.93430

> <CNNscore>
0.2413706332

> <CNNaffinity>
6.0175642967

> <CNN_VS>
1.4524632692

> <CNNaffinity_variance>
0.0907274112

$$$$
Compound 8


 30 32  0  0  0  0  0  0  0  0999 V2000
   11.5010 -106.1430   24.5665 C   0  0  0  0  0  0  0  0  0  0  0  0
   11.9885 -105.2631   25.6550 C   0  0  0  0  0  0  0  0  0  0  0  0
   10.1298 -106.7707   24.5969 C   0  0  0  0  0  0  0  0  0  0  0  0
   11.0892 -105.0011   26.8027 C   0  0  0  0  0  0  0  0  0  0  0  0
    9.2305 -106.5086   25.7446 C   0  0  0  0  0  0  0  0  0  0  0  0
    9.7179 -105.6287   26.8333 C   0  0  0  0  0  0  0  0  0  0  0  0
   11.5766 -104.1211   27.8914 C   0  0  0  0  0  0  0  0  0  0  0  0
   11.0960 -102.7204   27.9313 O   0  0  0  0  0  0  0  0  0  0  0  0
   12.5516 -104.6745   28.9336 N   0  0  0  0  0  0  0  0  0  0  0  0
   12.8534 -105.6102   28.8811 H   0  0  0  0  0  0  0  0  0  0  0  0
   13.0390 -103.7946   30.0224 C   0  0  0  0  0  0  0  0  0  0  0  0
   12.1223 -102.7048   30.5836 C   0  0  0  0  0  0  0  0  0  0  0  0
   14.4133 -104.0051   30.5340 C   0  0  0  0  0  0  0  0  0  0  0  0
   10.6881 -102.4951   30.0402 O   0  0  0  0  0  0  0  0  0  0  0  0
   12.6098 -101.8249   31.6723 N   0  0  0  0  0  0  0  0  0  0  0  0
   14.9008 -103.1253   31.6226 C   0  0  0  0  0  0  0  0  0  0  0  0
   13.9841 -102.0354   32.1839 C   0  0  0  0  0  0  0  0  0  0  0  0
   14.4715 -101.1556   33.2726 O   0  0  0  0  0  0  0  0  0  0  0  0
   12.0349 -101.1185   32.0460 H   0  0  0  0  0  0  0  0  0  0  0  0
   12.4003 -106.4051   23.4187 C   0  0  0  0  0  0  0  0  0  0  0  0
   14.6057 -105.3347   22.9766 S   0  0  0  0  0  0  0  0  0  0  0  0
   15.8072 -106.1314   23.5163 O   0  0  0  0  0  0  0  0  0  0  0  0
   14.4062 -106.6471   23.7042 O   0  0  0  0  0  0  0  0  0  0  0  0
   13.1367 -105.2628   22.8271 N   0  0  0  0  0  0  0  0  0  0  0  0
   15.6768 -104.3477   22.4977 C   0  0  0  0  0  0  0  0  0  0  0  0
   12.3374 -104.1888   22.1604 C   0  0  0  0  0  0  0  0  0  0  0  0
   15.5074 -103.0513   21.7518 C   0  0  0  0  0  0  0  0  0  0  0  0
   12.8216 -102.9133   21.4748 C   0  0  0  0  0  0  0  0  0  0  0  0
   14.2521 -102.4146   21.2986 N   0  0  0  0  0  0  0  0  0  0  0  0
   14.3562 -101.5282   20.8049 H   0  0  0  0  0  0  0  0  0  0  0  0
 21 22  2  0
 21 23  2  0
 21 24  1  0
 21 25  1  0
 24 26  1  0
 24 20  1  0
 25 27  1  0
 26 28  1  0
 20  1  1  0
 27 29  1  0
  1  2  2  0
  1  3  1  0
  2  4  1  0
  3  5  2  0
  4  7  1  0
  4  6  2  0
  7  8  2  0
  7  9  1  0
 11  9  1  0
 11 12  1  0
 11 13  1  0
 12 14  2  0
 12 15  1  0
 13 16  1  0
 15 17  1  0
 17 18  2  0
 28 29  1  0
  5  6  1  0
 16 17  1  0
 29 30  1  0
  9 10  1  0
 15 19  1  0
M  END
> <Molecule Name>
Compound 8

> <EC50 (µM) (Excel)>
6.8

> <Error (µM)>
1.0

> <HTRC CRBN-DDB1 EC50 (µM)>
6.77 ±  1.02

> <EC50 fitting (µM)>
7.19

> <Modèle Fitting>
4PL
$$$$

> <minimizedAffinity>
-9.25860

> <CNNscore>
0.2377694398

> <CNNaffinity>
5.5635089874

> <CNN_VS>
1.3228324652

> <CNNaffinity_variance>
0.2840014398

$$$$
