CTX-1020732
     RDKit          3D

 39 44  0  0  0  0  0  0  0  0999 V2000
   25.6128    1.9744  -24.8092 C   0  0  0  0  0  0  0  0  0  0  0  0
   24.8409    1.1076  -24.4020 O   0  0  0  0  0  0  0  0  0  0  0  0
   26.5183    2.6116  -23.9484 N   0  0  0  0  0  0  0  0  0  0  0  0
   27.1500    3.8965  -24.2952 C   0  0  0  0  0  0  0  0  0  0  0  0
   26.4457    2.2736  -22.5166 C   0  0  0  0  0  0  0  0  0  0  0  0
   28.3137    4.1863  -23.3954 C   0  0  0  0  0  0  0  0  0  0  0  0
   27.8318    2.2316  -21.8567 C   0  0  0  0  0  0  0  0  0  0  0  0
   28.6108    3.4328  -22.2791 C   0  0  0  0  0  0  0  0  0  0  0  0
   29.2499    5.2562  -23.5444 C   0  0  0  0  0  0  0  0  0  0  0  0
   29.9766    3.9872  -21.4408 S   0  0  0  0  0  0  0  0  0  0  0  0
   30.2160    5.2728  -22.5517 C   0  0  0  0  0  0  0  0  0  0  0  0
   27.1061    0.2600  -27.1745 Cl  0  0  0  0  0  0  0  0  0  0  0  0
   26.2098    1.7211  -27.2738 C   0  0  0  0  0  0  0  0  0  0  0  0
   25.6289    2.3637  -26.2012 C   0  0  0  0  0  0  0  0  0  0  0  0
   25.9955    2.4126  -28.5126 C   0  0  0  0  0  0  0  0  0  0  0  0
   24.7889    3.7721  -26.6738 S   0  0  0  0  0  0  0  0  0  0  0  0
   25.2323    3.5578  -28.3036 C   0  0  0  0  0  0  0  0  0  0  0  0
   26.3966    2.1574  -29.8438 C   0  0  0  0  0  0  0  0  0  0  0  0
   24.8455    4.4499  -29.2387 N   0  0  0  0  0  0  0  0  0  0  0  0
   26.0141    3.0516  -30.8410 C   0  0  0  0  0  0  0  0  0  0  0  0
   25.2571    4.1542  -30.4873 C   0  0  0  0  0  0  0  0  0  0  0  0
   31.3088    6.2286  -22.4214 C   0  0  0  0  0  0  0  0  0  0  0  0
   32.3837    5.9415  -21.8980 O   0  0  0  0  0  0  0  0  0  0  0  0
   31.0717    7.4871  -22.9236 N   0  0  0  0  0  0  0  0  0  0  0  0
   30.1945    7.6863  -23.3235 H   0  0  0  0  0  0  0  0  0  0  0  0
   32.0734    8.5210  -22.8794 C   0  0  0  0  0  0  0  0  0  0  0  0
   32.9910    8.4233  -24.0660 C   0  0  0  0  0  0  0  0  0  0  0  0
   32.5191    7.9544  -25.2956 C   0  0  0  0  0  0  0  0  0  0  0  0
   34.3447    8.7475  -23.9507 C   0  0  0  0  0  0  0  0  0  0  0  0
   33.3815    7.8327  -26.3934 C   0  0  0  0  0  0  0  0  0  0  0  0
   35.1987    8.6207  -25.0520 C   0  0  0  0  0  0  0  0  0  0  0  0
   34.7391    8.1635  -26.2980 C   0  0  0  0  0  0  0  0  0  0  0  0
   35.6422    8.0546  -27.3629 N   0  0  0  0  0  0  0  0  0  0  0  0
   35.1165    8.6263  -28.6294 C   0  0  0  0  0  0  0  0  0  0  0  0
   37.0832    8.2885  -27.1375 C   0  0  0  0  0  0  0  0  0  0  0  0
   36.2491    8.8646  -29.6544 C   0  0  0  0  0  0  0  0  0  0  0  0
   37.5373    9.6425  -27.7255 C   0  0  0  0  0  0  0  0  0  0  0  0
   37.2882    9.8061  -29.1768 N   0  0  0  0  0  0  0  0  0  0  0  0
   38.5118    9.6561  -29.9594 C   0  0  0  0  0  0  0  0  0  0  0  0
 12 13  1  0
 13 14  2  0
 13 15  1  0
 14 16  1  0
 14  1  1  0
 15 17  2  0
 15 18  1  0
  1  2  2  0
  1  3  1  0
 17 19  1  0
 18 20  2  0
  3  4  1  0
  3  5  1  0
 19 21  2  0
  4  6  1  0
  5  7  1  0
  6  8  2  0
  6  9  1  0
  8 10  1  0
  9 11  2  0
 11 22  1  0
 22 23  2  0
 22 24  1  0
 24 26  1  0
 26 27  1  0
 27 28  2  0
 27 29  1  0
 28 30  1  0
 29 31  2  0
 30 32  2  0
 32 33  1  0
 33 34  1  0
 33 35  1  0
 34 36  1  0
 35 37  1  0
 36 38  1  0
 38 39  1  0
 16 17  1  0
 20 21  1  0
  7  8  1  0
 10 11  1  0
 31 32  1  0
 37 38  1  0
 24 25  1  0
M  END
>  <Molecule Name>  (1) 
CTX-1020732

>  <SMILES>  (1) 
CN1CCN(CC1)C1=CC=C(CNC(=O)C2=CC3=C(CCN(C3)C(=O)C3=C(Cl)C4=CC=CN=C4S3)S2)C=C1

>  <Batch Name>  (1) 
CTX-1020732-1

>  <Batch Created Date>  (1) 
2021-12-16

>  <Batch ID>  (1) 
CTX-1020732-1

>  <External ID>  (1) 
CD-44-2-I

>  <Stereochemistry>  (1) 
Achiral

>  <Amount 1>  (1) 
18.9

>  <Unit 1>  (1) 
mg

>  <CRO 1>  (1) 
Pharmaron

>  <CRO 1 Total Amount>  (1) 
32.2

>  <CRO 1 Unit>  (1) 
mg

>  <pIC50>  (1) 
5.031984

>  <SMILES_std>  (1) 
CN1CCN(c2ccc(CNC(=O)c3cc4c(s3)CCN(C(=O)c3sc5ncccc5c3Cl)C4)cc2)CC1

>  <embed_status>  (1) 
0

>  <mmff_status>  (1) 
0

>  <minimizedAffinity>  (1) 
-14.02011

>  <CNNscore>  (1) 
0.9921600223

>  <CNNaffinity>  (1) 
8.9314947128

>  <CNN_VS>  (1) 
8.8614721298

>  <CNNaffinity_variance>  (1) 
0.5763589740

>  <Docking_Rank>  (1) 
1

>  <Vina_Affinity_kcal_mol>  (1) 
-14.020

>  <CNN_pKi>  (1) 
8.931

>  <CNN_Pose_Score>  (1) 
0.9922

>  <Num_Docked_Poses>  (1) 
5

>  <MMGBSA_Rank>  (1) 
1

>  <MMGBSA_dG_kcal_mol>  (1) 
-83.188

>  <MMGBSA_VdW_kcal_mol>  (1) 
-79.340

>  <MMGBSA_Elec_kcal_mol>  (1) 
-4.815

>  <MMGBSA_PolarSolv_kcal_mol>  (1) 
9.460

>  <MMGBSA_NonPolarSolv_kcal_mol>  (1) 
-8.492

>  <MMGBSA_Status>  (1) 
S

$$$$
CTX-1020811
     RDKit          3D

 41 46  0  0  0  0  0  0  0  0999 V2000
   29.9480    4.8653  -22.2857 C   0  0  0  0  0  0  0  0  0  0  0  0
   29.0455    4.7086  -23.2961 N   0  0  0  0  0  0  0  0  0  0  0  0
   29.9578    4.0987  -21.1306 C   0  0  0  0  0  0  0  0  0  0  0  0
   28.1059    3.7409  -23.1437 C   0  0  0  0  0  0  0  0  0  0  0  0
   28.9874    3.1134  -20.9924 C   0  0  0  0  0  0  0  0  0  0  0  0
   28.0362    2.9334  -22.0016 C   0  0  0  0  0  0  0  0  0  0  0  0
   27.1182    3.5738  -24.2850 C   0  0  0  0  0  0  0  0  0  0  0  0
   26.9894    1.8588  -21.8888 C   0  0  0  0  0  0  0  0  0  0  0  0
   26.1335    2.5035  -24.1038 N   0  0  0  0  0  0  0  0  0  0  0  0
   25.7601    2.1997  -22.7264 C   0  0  0  0  0  0  0  0  0  0  0  0
   25.4389    1.8815  -25.1489 C   0  0  0  0  0  0  0  0  0  0  0  0
   24.7159    0.9111  -24.9111 O   0  0  0  0  0  0  0  0  0  0  0  0
   25.5879    2.3820  -26.5110 C   0  0  0  0  0  0  0  0  0  0  0  0
   24.8096    3.4225  -26.9447 O   0  0  0  0  0  0  0  0  0  0  0  0
   26.3795    1.9256  -27.5630 C   0  0  0  0  0  0  0  0  0  0  0  0
   25.1138    3.6566  -28.2459 C   0  0  0  0  0  0  0  0  0  0  0  0
   26.0795    2.7627  -28.6832 C   0  0  0  0  0  0  0  0  0  0  0  0
   24.5422    4.6476  -29.0404 C   0  0  0  0  0  0  0  0  0  0  0  0
   26.5150    2.8535  -30.0188 C   0  0  0  0  0  0  0  0  0  0  0  0
   24.9910    4.7229  -30.3627 C   0  0  0  0  0  0  0  0  0  0  0  0
   25.9609    3.8413  -30.8458 C   0  0  0  0  0  0  0  0  0  0  0  0
   27.3532    0.7918  -27.5361 C   0  0  0  0  0  0  0  0  0  0  0  0
   26.6878   -0.5507  -27.7982 C   0  0  0  0  0  0  0  0  0  0  0  0
   32.1638    5.7404  -22.2740 O   0  0  0  0  0  0  0  0  0  0  0  0
   30.9721    5.9446  -22.4746 C   0  0  0  0  0  0  0  0  0  0  0  0
   30.4468    7.1534  -22.8742 N   0  0  0  0  0  0  0  0  0  0  0  0
   29.4966    7.1923  -23.1287 H   0  0  0  0  0  0  0  0  0  0  0  0
   31.2260    8.3631  -22.9361 C   0  0  0  0  0  0  0  0  0  0  0  0
   32.2980    8.2563  -23.9875 C   0  0  0  0  0  0  0  0  0  0  0  0
   31.9890    7.8921  -25.2991 C   0  0  0  0  0  0  0  0  0  0  0  0
   33.6258    8.5592  -23.6803 C   0  0  0  0  0  0  0  0  0  0  0  0
   32.9946    7.8176  -26.2738 C   0  0  0  0  0  0  0  0  0  0  0  0
   34.6217    8.4799  -24.6632 C   0  0  0  0  0  0  0  0  0  0  0  0
   34.3383    8.1039  -25.9857 C   0  0  0  0  0  0  0  0  0  0  0  0
   35.3286    8.0305  -26.9508 N   0  0  0  0  0  0  0  0  0  0  0  0
   35.0182    7.8140  -28.3729 C   0  0  0  0  0  0  0  0  0  0  0  0
   36.7561    8.0542  -26.5893 C   0  0  0  0  0  0  0  0  0  0  0  0
   36.1565    8.3616  -29.2651 C   0  0  0  0  0  0  0  0  0  0  0  0
   37.6118    7.2869  -27.6261 C   0  0  0  0  0  0  0  0  0  0  0  0
   37.4714    7.7256  -29.0307 N   0  0  0  0  0  0  0  0  0  0  0  0
   38.5524    8.6224  -29.4301 C   0  0  0  0  0  0  0  0  0  0  0  0
 24 25  2  0
 25 26  1  0
 25  1  1  0
 26 28  1  0
  1  2  2  0
  1  3  1  0
 28 29  1  0
  2  4  1  0
  3  5  2  0
 29 30  2  0
 29 31  1  0
  4  6  2  0
  4  7  1  0
 30 32  1  0
 31 33  2  0
  6  8  1  0
  7  9  1  0
 32 34  2  0
  8 10  1  0
  9 11  1  0
 34 35  1  0
 11 12  2  0
 11 13  1  0
 35 36  1  0
 35 37  1  0
 13 14  1  0
 13 15  2  0
 36 38  1  0
 37 39  1  0
 14 16  1  0
 15 17  1  0
 15 22  1  0
 38 40  1  0
 16 18  2  0
 17 19  2  0
 22 23  1  0
 40 41  1  0
 18 20  1  0
 19 21  1  0
  5  6  1  0
 33 34  1  0
  9 10  1  0
 39 40  1  0
 16 17  1  0
 20 21  2  0
 26 27  1  0
M  END
>  <Molecule Name>  (2) 
CTX-1020811

>  <SMILES>  (2) 
CCC1=C(OC2=C1C=CC=C2)C(=O)N1CCC2=C(C1)N=C(C=C2)C(=O)NCC1=CC=C(C=C1)N1CCN(C)CC1

>  <Batch Name>  (2) 
CTX-1020811-1

>  <Batch Created Date>  (2) 
2021-12-30

>  <Batch ID>  (2) 
CTX-1020811-1

>  <External ID>  (2) 
CD-42-R

>  <Stereochemistry>  (2) 
Achiral

>  <Amount 1>  (2) 
4.3

>  <Unit 1>  (2) 
mg

>  <CRO 1>  (2) 
Pharmaron

>  <CRO 1 Total Amount>  (2) 
19.3

>  <CRO 1 Unit>  (2) 
mg

>  <pIC50>  (2) 
4.906578

>  <SMILES_std>  (2) 
CCc1c(C(=O)N2CCc3ccc(C(=O)NCc4ccc(N5CCN(C)CC5)cc4)nc3C2)oc2ccccc12

>  <embed_status>  (2) 
0

>  <mmff_status>  (2) 
0

>  <minimizedAffinity>  (2) 
-13.16783

>  <CNNscore>  (2) 
0.9756630063

>  <CNNaffinity>  (2) 
8.5862636566

>  <CNN_VS>  (2) 
8.3773002625

>  <CNNaffinity_variance>  (2) 
0.6419815421

>  <Docking_Rank>  (2) 
3

>  <Vina_Affinity_kcal_mol>  (2) 
-13.170

>  <CNN_pKi>  (2) 
8.586

>  <CNN_Pose_Score>  (2) 
0.9757

>  <Num_Docked_Poses>  (2) 
5

>  <MMGBSA_Rank>  (2) 
2

>  <MMGBSA_dG_kcal_mol>  (2) 
-80.272

>  <MMGBSA_VdW_kcal_mol>  (2) 
-77.798

>  <MMGBSA_Elec_kcal_mol>  (2) 
-4.040

>  <MMGBSA_PolarSolv_kcal_mol>  (2) 
10.628

>  <MMGBSA_NonPolarSolv_kcal_mol>  (2) 
-9.062

>  <MMGBSA_Status>  (2) 
S

$$$$
CTX-1020521
     RDKit          3D

 46 52  0  0  0  0  0  0  0  0999 V2000
   28.6855    4.0139  -22.5848 C   0  0  0  0  0  0  0  0  0  0  0  0
   28.1108    3.3295  -21.5592 N   0  0  0  0  0  0  0  0  0  0  0  0
   28.1796    4.0450  -23.8714 C   0  0  0  0  0  0  0  0  0  0  0  0
   26.9708    2.6443  -21.8259 C   0  0  0  0  0  0  0  0  0  0  0  0
   27.0083    3.3352  -24.1351 C   0  0  0  0  0  0  0  0  0  0  0  0
   26.3673    2.6366  -23.0945 C   0  0  0  0  0  0  0  0  0  0  0  0
   26.3561    1.9031  -20.6525 C   0  0  0  0  0  0  0  0  0  0  0  0
   25.0889    1.8574  -23.3145 C   0  0  0  0  0  0  0  0  0  0  0  0
   25.2360    1.0430  -21.0117 N   0  0  0  0  0  0  0  0  0  0  0  0
   24.3353    1.6063  -22.0116 C   0  0  0  0  0  0  0  0  0  0  0  0
   24.8516    0.0747  -20.0782 C   0  0  0  0  0  0  0  0  0  0  0  0
   25.3678    0.0552  -18.9590 O   0  0  0  0  0  0  0  0  0  0  0  0
   23.8587   -0.9149  -20.4697 C   0  0  0  0  0  0  0  0  0  0  0  0
   24.2084   -1.9211  -21.3315 O   0  0  0  0  0  0  0  0  0  0  0  0
   22.5462   -1.0971  -20.0449 C   0  0  0  0  0  0  0  0  0  0  0  0
   23.1250   -2.7243  -21.4869 C   0  0  0  0  0  0  0  0  0  0  0  0
   22.0667   -2.2634  -20.7164 C   0  0  0  0  0  0  0  0  0  0  0  0
   21.8054   -0.2458  -19.0791 C   0  0  0  0  0  0  0  0  0  0  0  0
   23.0725   -3.8554  -22.2984 C   0  0  0  0  0  0  0  0  0  0  0  0
   20.8574   -2.9836  -20.7492 C   0  0  0  0  0  0  0  0  0  0  0  0
   21.8611   -4.5534  -22.3191 C   0  0  0  0  0  0  0  0  0  0  0  0
   20.7707   -4.1264  -21.5578 C   0  0  0  0  0  0  0  0  0  0  0  0
   26.4928    3.3513  -25.4873 C   0  0  0  0  0  0  0  0  0  0  0  0
   25.6649    4.2837  -26.1478 C   0  0  0  0  0  0  0  0  0  0  0  0
   26.7972    2.4156  -26.4525 C   0  0  0  0  0  0  0  0  0  0  0  0
   25.4341    3.9472  -27.4198 N   0  0  0  0  0  0  0  0  0  0  0  0
   26.1427    2.8145  -27.5821 N   0  0  0  0  0  0  0  0  0  0  0  0
   26.1539    2.1628  -28.8692 C   0  0  0  0  0  0  0  0  0  0  0  0
   31.0337    4.1937  -22.2198 O   0  0  0  0  0  0  0  0  0  0  0  0
   29.9461    4.7567  -22.2599 C   0  0  0  0  0  0  0  0  0  0  0  0
   29.7647    6.0971  -22.0096 N   0  0  0  0  0  0  0  0  0  0  0  0
   28.8714    6.4898  -22.1400 H   0  0  0  0  0  0  0  0  0  0  0  0
   30.8395    6.9436  -21.5634 C   0  0  0  0  0  0  0  0  0  0  0  0
   31.7485    7.2996  -22.7064 C   0  0  0  0  0  0  0  0  0  0  0  0
   31.2407    7.4560  -23.9988 C   0  0  0  0  0  0  0  0  0  0  0  0
   33.1103    7.5243  -22.4950 C   0  0  0  0  0  0  0  0  0  0  0  0
   32.0823    7.8179  -25.0598 C   0  0  0  0  0  0  0  0  0  0  0  0
   33.9424    7.8877  -23.5608 C   0  0  0  0  0  0  0  0  0  0  0  0
   33.4502    8.0564  -24.8659 C   0  0  0  0  0  0  0  0  0  0  0  0
   34.3298    8.4158  -25.9001 N   0  0  0  0  0  0  0  0  0  0  0  0
   35.7455    8.6585  -25.5566 C   0  0  0  0  0  0  0  0  0  0  0  0
   34.1590    7.6251  -27.1425 C   0  0  0  0  0  0  0  0  0  0  0  0
   36.5130    9.2534  -26.7618 C   0  0  0  0  0  0  0  0  0  0  0  0
   34.9811    8.2342  -28.3056 C   0  0  0  0  0  0  0  0  0  0  0  0
   36.4119    8.4835  -28.0217 N   0  0  0  0  0  0  0  0  0  0  0  0
   37.1722    7.2378  -27.9573 C   0  0  0  0  0  0  0  0  0  0  0  0
 29 30  2  0
 30 31  1  0
 30  1  1  0
 31 33  1  0
  1  2  2  0
  1  3  1  0
 33 34  1  0
  2  4  1  0
  3  5  2  0
 34 35  2  0
 34 36  1  0
  4  6  2  0
  4  7  1  0
  5 23  1  0
 35 37  1  0
 36 38  2  0
  6  8  1  0
  7  9  1  0
 23 24  1  0
 23 25  2  0
 37 39  2  0
  8 10  1  0
  9 11  1  0
 24 26  2  0
 25 27  1  0
 39 40  1  0
 11 12  2  0
 11 13  1  0
 27 28  1  0
 40 41  1  0
 40 42  1  0
 13 14  1  0
 13 15  2  0
 41 43  1  0
 42 44  1  0
 14 16  1  0
 15 17  1  0
 15 18  1  0
 43 45  1  0
 16 19  2  0
 17 20  2  0
 45 46  1  0
 19 21  1  0
 20 22  1  0
  5  6  1  0
 38 39  1  0
  9 10  1  0
 26 27  1  0
 44 45  1  0
 16 17  1  0
 21 22  2  0
 31 32  1  0
M  END
>  <Molecule Name>  (3) 
CTX-1020521

>  <SMILES>  (3) 
CN1C=C(C=N1)C1=C2CCN(CC2=NC(=C1)C(=O)NCC1=CC=C(C=C1)N1CCN(C)CC1)C(=O)C1=C(C)C2=C(O1)C=CC=C2

>  <Batch Name>  (3) 
CTX-1020521-1

>  <Batch Created Date>  (3) 
2021-11-04

>  <Batch ID>  (3) 
CTX-1020521-1

>  <External ID>  (3) 
610EDL131-3

>  <Stereochemistry>  (3) 
Achiral

>  <Amount 1>  (3) 
3.5

>  <Unit 1>  (3) 
mg

>  <CRO 1>  (3) 
Pharmaron

>  <CRO 1 Total Amount>  (3) 
24.1

>  <CRO 1 Unit>  (3) 
mg

>  <pIC50>  (3) 
5.2652

>  <SMILES_std>  (3) 
Cc1c(C(=O)N2CCc3c(-c4cnn(C)c4)cc(C(=O)NCc4ccc(N5CCN(C)CC5)cc4)nc3C2)oc2ccccc12

>  <embed_status>  (3) 
0

>  <mmff_status>  (3) 
0

>  <minimizedAffinity>  (3) 
-13.15168

>  <CNNscore>  (3) 
0.4201981723

>  <CNNaffinity>  (3) 
8.2325849533

>  <CNN_VS>  (3) 
3.4593172073

>  <CNNaffinity_variance>  (3) 
0.7066664100

>  <Docking_Rank>  (3) 
6

>  <Vina_Affinity_kcal_mol>  (3) 
-13.150

>  <CNN_pKi>  (3) 
8.233

>  <CNN_Pose_Score>  (3) 
0.4202

>  <Num_Docked_Poses>  (3) 
5

>  <MMGBSA_Rank>  (3) 
3

>  <MMGBSA_dG_kcal_mol>  (3) 
-80.075

>  <MMGBSA_VdW_kcal_mol>  (3) 
-79.361

>  <MMGBSA_Elec_kcal_mol>  (3) 
-2.617

>  <MMGBSA_PolarSolv_kcal_mol>  (3) 
11.585

>  <MMGBSA_NonPolarSolv_kcal_mol>  (3) 
-9.682

>  <MMGBSA_Status>  (3) 
S

$$$$
CTX-1020903
     RDKit          3D

 40 45  0  0  0  0  0  0  0  0999 V2000
   25.5666    0.7040  -24.6080 O   0  0  0  0  0  0  0  0  0  0  0  0
   26.0210    1.7772  -25.0125 C   0  0  0  0  0  0  0  0  0  0  0  0
   26.5683    2.6908  -24.1055 N   0  0  0  0  0  0  0  0  0  0  0  0
   27.3165    3.9050  -24.5072 C   0  0  0  0  0  0  0  0  0  0  0  0
   26.2928    2.5077  -22.6646 C   0  0  0  0  0  0  0  0  0  0  0  0
   28.3165    4.2606  -23.4539 C   0  0  0  0  0  0  0  0  0  0  0  0
   27.5746    2.4979  -21.8022 C   0  0  0  0  0  0  0  0  0  0  0  0
   29.2431    5.2627  -23.5630 N   0  0  0  0  0  0  0  0  0  0  0  0
   28.4322    3.6265  -22.2380 C   0  0  0  0  0  0  0  0  0  0  0  0
   29.9352    5.2361  -22.4261 C   0  0  0  0  0  0  0  0  0  0  0  0
   29.4712    4.2343  -21.5950 N   0  0  0  0  0  0  0  0  0  0  0  0
   30.0099    3.9011  -20.2987 C   0  0  0  0  0  0  0  0  0  0  0  0
   25.9947    2.1033  -26.4334 C   0  0  0  0  0  0  0  0  0  0  0  0
   25.2918    3.1926  -26.8746 O   0  0  0  0  0  0  0  0  0  0  0  0
   26.5271    1.4202  -27.5237 C   0  0  0  0  0  0  0  0  0  0  0  0
   25.3958    3.2322  -28.2273 C   0  0  0  0  0  0  0  0  0  0  0  0
   26.1485    2.1606  -28.6855 C   0  0  0  0  0  0  0  0  0  0  0  0
   27.3246    0.1678  -27.4760 C   0  0  0  0  0  0  0  0  0  0  0  0
   24.8279    4.2029  -29.0493 C   0  0  0  0  0  0  0  0  0  0  0  0
   26.3535    2.0370  -30.0729 C   0  0  0  0  0  0  0  0  0  0  0  0
   25.0466    4.0632  -30.4232 C   0  0  0  0  0  0  0  0  0  0  0  0
   25.7962    2.9986  -30.9287 C   0  0  0  0  0  0  0  0  0  0  0  0
   31.0314    6.1559  -22.1497 C   0  0  0  0  0  0  0  0  0  0  0  0
   32.0776    5.8377  -21.5901 O   0  0  0  0  0  0  0  0  0  0  0  0
   30.7748    7.4340  -22.5903 N   0  0  0  0  0  0  0  0  0  0  0  0
   29.8687    7.6471  -22.9110 H   0  0  0  0  0  0  0  0  0  0  0  0
   31.7697    8.4731  -22.6037 C   0  0  0  0  0  0  0  0  0  0  0  0
   32.6470    8.3631  -23.8220 C   0  0  0  0  0  0  0  0  0  0  0  0
   33.9954    8.7217  -23.7613 C   0  0  0  0  0  0  0  0  0  0  0  0
   32.1440    7.8688  -25.0283 C   0  0  0  0  0  0  0  0  0  0  0  0
   34.8151    8.5961  -24.8890 C   0  0  0  0  0  0  0  0  0  0  0  0
   32.9727    7.7483  -26.1530 C   0  0  0  0  0  0  0  0  0  0  0  0
   34.3308    8.0951  -26.1089 C   0  0  0  0  0  0  0  0  0  0  0  0
   35.1934    7.9951  -27.2129 N   0  0  0  0  0  0  0  0  0  0  0  0
   36.6179    7.6995  -26.9594 C   0  0  0  0  0  0  0  0  0  0  0  0
   34.9898    9.0470  -28.2376 C   0  0  0  0  0  0  0  0  0  0  0  0
   37.3671    7.4089  -28.2823 C   0  0  0  0  0  0  0  0  0  0  0  0
   35.7947    8.7333  -29.5234 C   0  0  0  0  0  0  0  0  0  0  0  0
   37.2333    8.4466  -29.3289 N   0  0  0  0  0  0  0  0  0  0  0  0
   37.9818    9.6548  -28.9922 C   0  0  0  0  0  0  0  0  0  0  0  0
  1  2  2  0
  2  3  1  0
  2 13  1  0
  3  4  1  0
  3  5  1  0
 13 14  1  0
 13 15  2  0
  4  6  1  0
  5  7  1  0
 14 16  1  0
 15 17  1  0
 15 18  1  0
  6  8  1  0
  6  9  2  0
 16 19  2  0
 17 20  2  0
  8 10  2  0
  9 11  1  0
 19 21  1  0
 20 22  1  0
 10 23  1  0
 11 12  1  0
 23 24  2  0
 23 25  1  0
 25 27  1  0
 27 28  1  0
 28 29  2  0
 28 30  1  0
 29 31  1  0
 30 32  2  0
 31 33  2  0
 33 34  1  0
 34 35  1  0
 34 36  1  0
 35 37  1  0
 36 38  1  0
 37 39  1  0
 39 40  1  0
  7  9  1  0
 16 17  1  0
 10 11  1  0
 21 22  2  0
 32 33  1  0
 38 39  1  0
 25 26  1  0
M  END
>  <Molecule Name>  (4) 
CTX-1020903

>  <SMILES>  (4) 
CN1C2=C(CN(CC2)C(=O)C2=C(C)C3=CC=CC=C3O2)N=C1C(=O)NCC1=CC=C(C=C1)N1CCN(C)CC1

>  <Batch Name>  (4) 
CTX-1020903-1

>  <Batch Created Date>  (4) 
2022-01-20

>  <Batch ID>  (4) 
CTX-1020903-1

>  <External ID>  (4) 
P841-0275

>  <Stereochemistry>  (4) 
Achiral

>  <Amount 1>  (4) 
9.1

>  <Unit 1>  (4) 
mg

>  <CRO 1>  (4) 
Pharmaron

>  <CRO 1 Total Amount>  (4) 
16.5

>  <CRO 1 Unit>  (4) 
mg

>  <pIC50>  (4) 
6.560667

>  <SMILES_std>  (4) 
Cc1c(C(=O)N2CCc3c(nc(C(=O)NCc4ccc(N5CCN(C)CC5)cc4)n3C)C2)oc2ccccc12

>  <embed_status>  (4) 
0

>  <mmff_status>  (4) 
0

>  <minimizedAffinity>  (4) 
-14.51665

>  <CNNscore>  (4) 
0.9871246219

>  <CNNaffinity>  (4) 
8.5855321884

>  <CNN_VS>  (4) 
8.4749898911

>  <CNNaffinity_variance>  (4) 
0.6854510307

>  <Docking_Rank>  (4) 
2

>  <Vina_Affinity_kcal_mol>  (4) 
-14.520

>  <CNN_pKi>  (4) 
8.586

>  <CNN_Pose_Score>  (4) 
0.9871

>  <Num_Docked_Poses>  (4) 
5

>  <MMGBSA_Rank>  (4) 
4

>  <MMGBSA_dG_kcal_mol>  (4) 
-79.956

>  <MMGBSA_VdW_kcal_mol>  (4) 
-78.319

>  <MMGBSA_Elec_kcal_mol>  (4) 
-3.001

>  <MMGBSA_PolarSolv_kcal_mol>  (4) 
10.053

>  <MMGBSA_NonPolarSolv_kcal_mol>  (4) 
-8.689

>  <MMGBSA_Status>  (4) 
S

$$$$
CTX-1020743
     RDKit          3D

 40 45  0  0  0  0  0  0  0  0999 V2000
   29.9154    4.3256  -21.1050 S   0  0  0  0  0  0  0  0  0  0  0  0
   30.1498    5.5619  -22.2720 C   0  0  0  0  0  0  0  0  0  0  0  0
   28.7124    3.5832  -22.0404 C   0  0  0  0  0  0  0  0  0  0  0  0
   29.3081    5.3840  -23.3578 C   0  0  0  0  0  0  0  0  0  0  0  0
   28.4702    4.2324  -23.2334 C   0  0  0  0  0  0  0  0  0  0  0  0
   27.9977    2.3432  -21.6149 C   0  0  0  0  0  0  0  0  0  0  0  0
   27.4520    3.7648  -24.2370 C   0  0  0  0  0  0  0  0  0  0  0  0
   26.6694    2.2624  -22.3793 C   0  0  0  0  0  0  0  0  0  0  0  0
   26.8469    2.4884  -23.8232 N   0  0  0  0  0  0  0  0  0  0  0  0
   26.3089    1.5530  -24.7168 C   0  0  0  0  0  0  0  0  0  0  0  0
   25.9579    0.4431  -24.3087 O   0  0  0  0  0  0  0  0  0  0  0  0
   26.1740    1.8989  -26.1271 C   0  0  0  0  0  0  0  0  0  0  0  0
   25.4786    3.0193  -26.4971 O   0  0  0  0  0  0  0  0  0  0  0  0
   26.5879    1.2121  -27.2655 C   0  0  0  0  0  0  0  0  0  0  0  0
   25.4698    3.0723  -27.8534 C   0  0  0  0  0  0  0  0  0  0  0  0
   26.1418    1.9816  -28.3835 C   0  0  0  0  0  0  0  0  0  0  0  0
   27.3407   -0.0683  -27.2983 C   0  0  0  0  0  0  0  0  0  0  0  0
   24.8716    4.0751  -28.6146 C   0  0  0  0  0  0  0  0  0  0  0  0
   26.2297    1.8728  -29.7831 C   0  0  0  0  0  0  0  0  0  0  0  0
   24.9559    3.9508  -30.0102 C   0  0  0  0  0  0  0  0  0  0  0  0
   25.6391    2.8663  -30.5797 C   0  0  0  0  0  0  0  0  0  0  0  0
   24.3625    5.0121  -30.8921 C   0  0  0  0  0  0  0  0  0  0  0  0
   31.1191    6.6370  -22.0927 C   0  0  0  0  0  0  0  0  0  0  0  0
   32.0228    6.5793  -21.2610 O   0  0  0  0  0  0  0  0  0  0  0  0
   30.9640    7.7278  -22.9202 N   0  0  0  0  0  0  0  0  0  0  0  0
   30.1616    7.7810  -23.4882 H   0  0  0  0  0  0  0  0  0  0  0  0
   31.9324    8.7946  -22.9860 C   0  0  0  0  0  0  0  0  0  0  0  0
   32.9466    8.5248  -24.0649 C   0  0  0  0  0  0  0  0  0  0  0  0
   34.3049    8.7491  -23.8333 C   0  0  0  0  0  0  0  0  0  0  0  0
   32.5630    7.9991  -25.3007 C   0  0  0  0  0  0  0  0  0  0  0  0
   35.2497    8.4740  -24.8293 C   0  0  0  0  0  0  0  0  0  0  0  0
   33.5189    7.7265  -26.2906 C   0  0  0  0  0  0  0  0  0  0  0  0
   34.8840    7.9736  -26.0907 C   0  0  0  0  0  0  0  0  0  0  0  0
   35.8686    7.7075  -27.0456 N   0  0  0  0  0  0  0  0  0  0  0  0
   35.5249    7.6146  -28.4785 C   0  0  0  0  0  0  0  0  0  0  0  0
   37.1881    8.3434  -26.8208 C   0  0  0  0  0  0  0  0  0  0  0  0
   35.6724    8.9771  -29.2006 C   0  0  0  0  0  0  0  0  0  0  0  0
   37.2849    9.7023  -27.5594 C   0  0  0  0  0  0  0  0  0  0  0  0
   36.9704    9.6642  -29.0076 N   0  0  0  0  0  0  0  0  0  0  0  0
   38.0375    9.0235  -29.7729 C   0  0  0  0  0  0  0  0  0  0  0  0
  1  2  1  0
  1  3  1  0
  2 23  1  0
  2  4  2  0
  3  5  2  0
  3  6  1  0
 23 24  2  0
 23 25  1  0
  5  7  1  0
  6  8  1  0
 25 27  1  0
  7  9  1  0
 27 28  1  0
  9 10  1  0
 28 29  2  0
 28 30  1  0
 10 11  2  0
 10 12  1  0
 29 31  1  0
 30 32  2  0
 12 13  1  0
 12 14  2  0
 31 33  2  0
 13 15  1  0
 14 16  1  0
 14 17  1  0
 33 34  1  0
 15 18  2  0
 16 19  2  0
 34 35  1  0
 34 36  1  0
 18 20  1  0
 19 21  1  0
 35 37  1  0
 36 38  1  0
 20 22  1  0
 37 39  1  0
 39 40  1  0
  4  5  1  0
  8  9  1  0
 32 33  1  0
 15 16  1  0
 20 21  2  0
 38 39  1  0
 25 26  1  0
M  END
>  <Molecule Name>  (5) 
CTX-1020743

>  <SMILES>  (5) 
CN1CCN(CC1)C1=CC=C(CNC(=O)C2=CC3=C(CCN(C3)C(=O)C3=C(C)C4=C(O3)C=C(C)C=C4)S2)C=C1

>  <Batch Name>  (5) 
CTX-1020743-1

>  <Batch Created Date>  (5) 
2021-12-16

>  <Batch ID>  (5) 
CTX-1020743-1

>  <External ID>  (5) 
P841-0358

>  <Stereochemistry>  (5) 
Achiral

>  <Amount 1>  (5) 
4.25

>  <Unit 1>  (5) 
mg

>  <CRO 1>  (5) 
Pharmaron

>  <CRO 1 Total Amount>  (5) 
22.1

>  <CRO 1 Unit>  (5) 
mg

>  <pIC50>  (5) 
5.847712

>  <SMILES_std>  (5) 
Cc1ccc2c(C)c(C(=O)N3CCc4sc(C(=O)NCc5ccc(N6CCN(C)CC6)cc5)cc4C3)oc2c1

>  <embed_status>  (5) 
0

>  <mmff_status>  (5) 
0

>  <minimizedAffinity>  (5) 
-13.72484

>  <CNNscore>  (5) 
0.9761029482

>  <CNNaffinity>  (5) 
8.5745553970

>  <CNN_VS>  (5) 
8.3696489334

>  <CNNaffinity_variance>  (5) 
0.6140029430

>  <Docking_Rank>  (5) 
4

>  <Vina_Affinity_kcal_mol>  (5) 
-13.720

>  <CNN_pKi>  (5) 
8.575

>  <CNN_Pose_Score>  (5) 
0.9761

>  <Num_Docked_Poses>  (5) 
5

>  <MMGBSA_Rank>  (5) 
5

>  <MMGBSA_dG_kcal_mol>  (5) 
-78.495

>  <MMGBSA_VdW_kcal_mol>  (5) 
-75.425

>  <MMGBSA_Elec_kcal_mol>  (5) 
-2.929

>  <MMGBSA_PolarSolv_kcal_mol>  (5) 
8.764

>  <MMGBSA_NonPolarSolv_kcal_mol>  (5) 
-8.905

>  <MMGBSA_Status>  (5) 
S

$$$$
CTX-1020748
     RDKit          3D

 40 45  0  0  0  0  0  0  0  0999 V2000
   25.2525    2.1174  -23.4068 C   0  0  0  0  0  0  0  0  0  0  0  0
   24.8092    2.6201  -24.4390 O   0  0  0  0  0  0  0  0  0  0  0  0
   26.5362    2.4262  -22.9493 N   0  0  0  0  0  0  0  0  0  0  0  0
   27.2569    3.4399  -23.7260 C   0  0  0  0  0  0  0  0  0  0  0  0
   27.3644    1.4647  -22.1933 C   0  0  0  0  0  0  0  0  0  0  0  0
   28.4620    3.9346  -22.9809 C   0  0  0  0  0  0  0  0  0  0  0  0
   28.2865    2.1586  -21.1795 C   0  0  0  0  0  0  0  0  0  0  0  0
   28.9351    3.3336  -21.8334 C   0  0  0  0  0  0  0  0  0  0  0  0
   29.2850    5.0480  -23.3457 C   0  0  0  0  0  0  0  0  0  0  0  0
   30.3272    4.0758  -21.2147 S   0  0  0  0  0  0  0  0  0  0  0  0
   30.3378    5.2531  -22.4667 C   0  0  0  0  0  0  0  0  0  0  0  0
   23.6113   -0.4967  -24.6938 Cl  0  0  0  0  0  0  0  0  0  0  0  0
   23.7608    0.0634  -23.0884 C   0  0  0  0  0  0  0  0  0  0  0  0
   24.4663    1.1692  -22.6477 C   0  0  0  0  0  0  0  0  0  0  0  0
   23.1750   -0.5814  -21.9635 C   0  0  0  0  0  0  0  0  0  0  0  0
   24.3750    1.1683  -21.2676 N   0  0  0  0  0  0  0  0  0  0  0  0
   23.5752    0.1302  -20.8293 C   0  0  0  0  0  0  0  0  0  0  0  0
   22.3525   -1.7174  -21.7990 C   0  0  0  0  0  0  0  0  0  0  0  0
   25.0281    2.1361  -20.4078 C   0  0  0  0  0  0  0  0  0  0  0  0
   23.1814   -0.2567  -19.5367 C   0  0  0  0  0  0  0  0  0  0  0  0
   21.9507   -2.1038  -20.5172 C   0  0  0  0  0  0  0  0  0  0  0  0
   22.3617   -1.3813  -19.4029 C   0  0  0  0  0  0  0  0  0  0  0  0
   31.3877    6.2655  -22.4746 C   0  0  0  0  0  0  0  0  0  0  0  0
   32.5455    6.0688  -22.1104 O   0  0  0  0  0  0  0  0  0  0  0  0
   30.9879    7.5108  -22.9178 N   0  0  0  0  0  0  0  0  0  0  0  0
   30.0776    7.6339  -23.2719 H   0  0  0  0  0  0  0  0  0  0  0  0
   31.8932    8.6330  -22.8662 C   0  0  0  0  0  0  0  0  0  0  0  0
   32.8684    8.5754  -24.0088 C   0  0  0  0  0  0  0  0  0  0  0  0
   32.5350    7.9390  -25.2053 C   0  0  0  0  0  0  0  0  0  0  0  0
   34.1511    9.1109  -23.8779 C   0  0  0  0  0  0  0  0  0  0  0  0
   33.4640    7.8604  -26.2521 C   0  0  0  0  0  0  0  0  0  0  0  0
   35.0713    9.0240  -24.9318 C   0  0  0  0  0  0  0  0  0  0  0  0
   34.7552    8.4028  -26.1498 C   0  0  0  0  0  0  0  0  0  0  0  0
   35.6657    8.3126  -27.1892 N   0  0  0  0  0  0  0  0  0  0  0  0
   35.2526    8.4121  -28.5988 C   0  0  0  0  0  0  0  0  0  0  0  0
   37.0669    7.9251  -26.9470 C   0  0  0  0  0  0  0  0  0  0  0  0
   36.4498    8.8298  -29.4839 C   0  0  0  0  0  0  0  0  0  0  0  0
   37.6650    7.1757  -28.1620 C   0  0  0  0  0  0  0  0  0  0  0  0
   37.5827    7.8791  -29.4590 N   0  0  0  0  0  0  0  0  0  0  0  0
   38.8313    8.5605  -29.7887 C   0  0  0  0  0  0  0  0  0  0  0  0
 12 13  1  0
 13 14  2  0
 13 15  1  0
 14 16  1  0
 14  1  1  0
 15 17  2  0
 15 18  1  0
 16 19  1  0
  1  2  2  0
  1  3  1  0
 17 20  1  0
 18 21  2  0
  3  4  1  0
  3  5  1  0
 20 22  2  0
  4  6  1  0
  5  7  1  0
  6  8  2  0
  6  9  1  0
  8 10  1  0
  9 11  2  0
 11 23  1  0
 23 24  2  0
 23 25  1  0
 25 27  1  0
 27 28  1  0
 28 29  2  0
 28 30  1  0
 29 31  1  0
 30 32  2  0
 31 33  2  0
 33 34  1  0
 34 35  1  0
 34 36  1  0
 35 37  1  0
 36 38  1  0
 37 39  1  0
 39 40  1  0
 16 17  1  0
 21 22  1  0
  7  8  1  0
 10 11  1  0
 32 33  1  0
 38 39  1  0
 25 26  1  0
M  END
>  <Molecule Name>  (6) 
CTX-1020748

>  <SMILES>  (6) 
CN1C2=C(C=CC=C2)C(Cl)=C1C(=O)N1CCC2=C(C1)C=C(S2)C(=O)NCC1=CC=C(C=C1)N1CCN(C)CC1

>  <Batch Name>  (6) 
CTX-1020748-1

>  <Batch Created Date>  (6) 
2021-12-16

>  <Batch ID>  (6) 
CTX-1020748-1

>  <External ID>  (6) 
P841-0362

>  <Stereochemistry>  (6) 
Achiral

>  <Amount 1>  (6) 
4.7

>  <Unit 1>  (6) 
mg

>  <CRO 1>  (6) 
Pharmaron

>  <CRO 1 Total Amount>  (6) 
22.05

>  <CRO 1 Unit>  (6) 
mg

>  <pIC50>  (6) 
5.555955

>  <SMILES_std>  (6) 
CN1CCN(c2ccc(CNC(=O)c3cc4c(s3)CCN(C(=O)c3c(Cl)c5ccccc5n3C)C4)cc2)CC1

>  <embed_status>  (6) 
0

>  <mmff_status>  (6) 
0

>  <minimizedAffinity>  (6) 
-10.86065

>  <CNNscore>  (6) 
0.4912232757

>  <CNNaffinity>  (6) 
7.4833278656

>  <CNN_VS>  (6) 
3.6759848595

>  <CNNaffinity_variance>  (6) 
1.1145762205

>  <Docking_Rank>  (6) 
20

>  <Vina_Affinity_kcal_mol>  (6) 
-10.860

>  <CNN_pKi>  (6) 
7.483

>  <CNN_Pose_Score>  (6) 
0.4912

>  <Num_Docked_Poses>  (6) 
5

>  <MMGBSA_Rank>  (6) 
6

>  <MMGBSA_dG_kcal_mol>  (6) 
-77.689

>  <MMGBSA_VdW_kcal_mol>  (6) 
-74.693

>  <MMGBSA_Elec_kcal_mol>  (6) 
-8.823

>  <MMGBSA_PolarSolv_kcal_mol>  (6) 
13.992

>  <MMGBSA_NonPolarSolv_kcal_mol>  (6) 
-8.166

>  <MMGBSA_Status>  (6) 
S

$$$$
CTX-1020555
     RDKit          3D

 39 44  0  0  0  0  0  0  0  0999 V2000
   25.7115    0.6725  -21.2899 C   0  0  0  0  0  0  0  0  0  0  0  0
   26.0771    0.3966  -20.1487 O   0  0  0  0  0  0  0  0  0  0  0  0
   26.3819    1.6258  -22.0620 N   0  0  0  0  0  0  0  0  0  0  0  0
   27.7220    1.9987  -21.5830 C   0  0  0  0  0  0  0  0  0  0  0  0
   25.9803    2.0581  -23.4159 C   0  0  0  0  0  0  0  0  0  0  0  0
   28.2141    3.2700  -22.2059 C   0  0  0  0  0  0  0  0  0  0  0  0
   26.1577    3.5679  -23.6406 C   0  0  0  0  0  0  0  0  0  0  0  0
   27.5016    3.9772  -23.1491 C   0  0  0  0  0  0  0  0  0  0  0  0
   29.4602    3.9149  -21.9306 C   0  0  0  0  0  0  0  0  0  0  0  0
   28.2956    5.3771  -23.6814 S   0  0  0  0  0  0  0  0  0  0  0  0
   29.6433    5.0768  -22.6624 C   0  0  0  0  0  0  0  0  0  0  0  0
   20.0580   -3.2454  -19.9496 Cl  0  0  0  0  0  0  0  0  0  0  0  0
   21.3994   -2.2982  -20.4539 C   0  0  0  0  0  0  0  0  0  0  0  0
   21.6071   -2.0066  -21.7456 C   0  0  0  0  0  0  0  0  0  0  0  0
   22.3307   -1.8077  -19.4534 C   0  0  0  0  0  0  0  0  0  0  0  0
   22.7071   -1.2335  -22.1102 N   0  0  0  0  0  0  0  0  0  0  0  0
   23.3948   -1.0574  -19.7967 C   0  0  0  0  0  0  0  0  0  0  0  0
   23.0566   -0.8545  -23.3666 N   0  0  0  0  0  0  0  0  0  0  0  0
   23.6128   -0.7354  -21.1692 C   0  0  0  0  0  0  0  0  0  0  0  0
   24.1808   -0.1564  -23.2076 C   0  0  0  0  0  0  0  0  0  0  0  0
   24.5581   -0.0001  -21.8584 C   0  0  0  0  0  0  0  0  0  0  0  0
   30.8016    5.9621  -22.6099 C   0  0  0  0  0  0  0  0  0  0  0  0
   31.9056    5.5816  -22.2260 O   0  0  0  0  0  0  0  0  0  0  0  0
   30.5817    7.2610  -23.0142 N   0  0  0  0  0  0  0  0  0  0  0  0
   29.7161    7.4903  -23.4235 H   0  0  0  0  0  0  0  0  0  0  0  0
   31.5736    8.2971  -22.8596 C   0  0  0  0  0  0  0  0  0  0  0  0
   32.5782    8.2405  -23.9791 C   0  0  0  0  0  0  0  0  0  0  0  0
   32.1783    7.8998  -25.2732 C   0  0  0  0  0  0  0  0  0  0  0  0
   33.9325    8.4938  -23.7467 C   0  0  0  0  0  0  0  0  0  0  0  0
   33.1162    7.8235  -26.3095 C   0  0  0  0  0  0  0  0  0  0  0  0
   34.8639    8.4164  -24.7922 C   0  0  0  0  0  0  0  0  0  0  0  0
   34.4833    8.0660  -26.0958 C   0  0  0  0  0  0  0  0  0  0  0  0
   35.3830    7.9863  -27.1707 N   0  0  0  0  0  0  0  0  0  0  0  0
   35.1079    8.7964  -28.3745 C   0  0  0  0  0  0  0  0  0  0  0  0
   36.8115    7.9948  -26.7738 C   0  0  0  0  0  0  0  0  0  0  0  0
   36.0629    8.4145  -29.5309 C   0  0  0  0  0  0  0  0  0  0  0  0
   37.7256    7.6511  -27.9761 C   0  0  0  0  0  0  0  0  0  0  0  0
   37.5050    8.4502  -29.2017 N   0  0  0  0  0  0  0  0  0  0  0  0
   37.9920    9.8185  -29.0474 C   0  0  0  0  0  0  0  0  0  0  0  0
 12 13  1  0
 13 14  2  0
 13 15  1  0
 14 16  1  0
 15 17  2  0
 16 18  1  0
 16 19  1  0
 18 20  2  0
 19 21  2  0
 21  1  1  0
  1  2  2  0
  1  3  1  0
  3  4  1  0
  3  5  1  0
  4  6  1  0
  5  7  1  0
  6  8  2  0
  6  9  1  0
  8 10  1  0
  9 11  2  0
 11 22  1  0
 22 23  2  0
 22 24  1  0
 24 26  1  0
 26 27  1  0
 27 28  2  0
 27 29  1  0
 28 30  1  0
 29 31  2  0
 30 32  2  0
 32 33  1  0
 33 34  1  0
 33 35  1  0
 34 36  1  0
 35 37  1  0
 36 38  1  0
 38 39  1  0
 17 19  1  0
 20 21  1  0
  7  8  1  0
 10 11  1  0
 31 32  1  0
 37 38  1  0
 24 25  1  0
M  END
>  <Molecule Name>  (7) 
CTX-1020555

>  <SMILES>  (7) 
CN1CCN(CC1)C1=CC=C(CNC(=O)C2=CC3=C(CCN(C3)C(=O)C3=C4C=CC(Cl)=CN4N=C3)S2)C=C1

>  <Batch Name>  (7) 
CTX-1020555-1

>  <Batch Created Date>  (7) 
2021-11-18

>  <Batch ID>  (7) 
CTX-1020555-1

>  <External ID>  (7) 
CD-44-K

>  <Stereochemistry>  (7) 
Achiral

>  <Amount 1>  (7) 
2.5

>  <Unit 1>  (7) 
mg

>  <CRO 1>  (7) 
Pharmaron

>  <CRO 1 Total Amount>  (7) 
12.2

>  <CRO 1 Unit>  (7) 
mg

>  <pIC50>  (7) 
5.189767

>  <SMILES_std>  (7) 
CN1CCN(c2ccc(CNC(=O)c3cc4c(s3)CCN(C(=O)c3cnn5cc(Cl)ccc35)C4)cc2)CC1

>  <embed_status>  (7) 
0

>  <mmff_status>  (7) 
0

>  <minimizedAffinity>  (7) 
-12.45134

>  <CNNscore>  (7) 
0.4651910663

>  <CNNaffinity>  (7) 
7.5945458412

>  <CNN_VS>  (7) 
3.5329148769

>  <CNNaffinity_variance>  (7) 
0.6694566607

>  <Docking_Rank>  (7) 
17

>  <Vina_Affinity_kcal_mol>  (7) 
-12.450

>  <CNN_pKi>  (7) 
7.595

>  <CNN_Pose_Score>  (7) 
0.4652

>  <Num_Docked_Poses>  (7) 
5

>  <MMGBSA_Rank>  (7) 
7

>  <MMGBSA_dG_kcal_mol>  (7) 
-76.526

>  <MMGBSA_VdW_kcal_mol>  (7) 
-74.586

>  <MMGBSA_Elec_kcal_mol>  (7) 
-4.481

>  <MMGBSA_PolarSolv_kcal_mol>  (7) 
10.539

>  <MMGBSA_NonPolarSolv_kcal_mol>  (7) 
-7.998

>  <MMGBSA_Status>  (7) 
S

$$$$
CTX-1019757
     RDKit          3D

 40 45  0  0  0  0  0  0  0  0999 V2000
   29.8596    5.0921  -22.2876 C   0  0  0  0  0  0  0  0  0  0  0  0
   29.1613    4.7040  -23.4391 C   0  0  0  0  0  0  0  0  0  0  0  0
   29.6136    4.4384  -21.0759 C   0  0  0  0  0  0  0  0  0  0  0  0
   28.2453    3.6397  -23.3922 C   0  0  0  0  0  0  0  0  0  0  0  0
   28.7004    3.3853  -21.0186 C   0  0  0  0  0  0  0  0  0  0  0  0
   28.0269    2.9755  -22.1748 C   0  0  0  0  0  0  0  0  0  0  0  0
   27.4566    3.2768  -24.6320 C   0  0  0  0  0  0  0  0  0  0  0  0
   27.0265    1.8544  -22.1313 C   0  0  0  0  0  0  0  0  0  0  0  0
   26.7806    1.9775  -24.6062 N   0  0  0  0  0  0  0  0  0  0  0  0
   27.0274    1.1037  -23.4592 C   0  0  0  0  0  0  0  0  0  0  0  0
   26.2470    1.3766  -25.7635 C   0  0  0  0  0  0  0  0  0  0  0  0
   25.9732    0.1729  -25.7509 O   0  0  0  0  0  0  0  0  0  0  0  0
   26.0313    2.1674  -26.9744 C   0  0  0  0  0  0  0  0  0  0  0  0
   26.4706    1.7222  -28.1915 O   0  0  0  0  0  0  0  0  0  0  0  0
   25.4443    3.4228  -27.1290 C   0  0  0  0  0  0  0  0  0  0  0  0
   26.1621    2.6628  -29.1190 C   0  0  0  0  0  0  0  0  0  0  0  0
   25.5234    3.7383  -28.5204 C   0  0  0  0  0  0  0  0  0  0  0  0
   24.8572    4.2629  -26.0527 C   0  0  0  0  0  0  0  0  0  0  0  0
   26.4434    2.5728  -30.4803 C   0  0  0  0  0  0  0  0  0  0  0  0
   25.1303    4.8162  -29.3363 C   0  0  0  0  0  0  0  0  0  0  0  0
   26.0433    3.6530  -31.2728 C   0  0  0  0  0  0  0  0  0  0  0  0
   25.3971    4.7572  -30.7122 C   0  0  0  0  0  0  0  0  0  0  0  0
   32.0408    5.9783  -22.3635 O   0  0  0  0  0  0  0  0  0  0  0  0
   30.8396    6.2135  -22.3013 C   0  0  0  0  0  0  0  0  0  0  0  0
   30.3070    7.4850  -22.2759 N   0  0  0  0  0  0  0  0  0  0  0  0
   29.3390    7.6000  -22.1381 H   0  0  0  0  0  0  0  0  0  0  0  0
   31.1424    8.6533  -22.4477 C   0  0  0  0  0  0  0  0  0  0  0  0
   32.1477    8.4321  -23.5462 C   0  0  0  0  0  0  0  0  0  0  0  0
   31.7478    7.9122  -24.7788 C   0  0  0  0  0  0  0  0  0  0  0  0
   33.4902    8.7745  -23.3768 C   0  0  0  0  0  0  0  0  0  0  0  0
   32.6768    7.7299  -25.8122 C   0  0  0  0  0  0  0  0  0  0  0  0
   34.4103    8.5847  -24.4180 C   0  0  0  0  0  0  0  0  0  0  0  0
   34.0333    8.0584  -25.6637 C   0  0  0  0  0  0  0  0  0  0  0  0
   34.9466    7.8747  -26.6877 N   0  0  0  0  0  0  0  0  0  0  0  0
   36.3881    7.7357  -26.4225 C   0  0  0  0  0  0  0  0  0  0  0  0
   34.5294    7.7855  -28.0968 C   0  0  0  0  0  0  0  0  0  0  0  0
   37.0882    6.9277  -27.5414 C   0  0  0  0  0  0  0  0  0  0  0  0
   35.6723    8.2426  -29.0332 C   0  0  0  0  0  0  0  0  0  0  0  0
   36.9103    7.4417  -28.9159 N   0  0  0  0  0  0  0  0  0  0  0  0
   38.0654    8.2171  -29.3596 C   0  0  0  0  0  0  0  0  0  0  0  0
 23 24  2  0
 24 25  1  0
 24  1  1  0
 25 27  1  0
  1  2  2  0
  1  3  1  0
 27 28  1  0
  2  4  1  0
  3  5  2  0
 28 29  2  0
 28 30  1  0
  4  6  2  0
  4  7  1  0
 29 31  1  0
 30 32  2  0
  6  8  1  0
  7  9  1  0
 31 33  2  0
  8 10  1  0
  9 11  1  0
 33 34  1  0
 11 12  2  0
 11 13  1  0
 34 35  1  0
 34 36  1  0
 13 14  1  0
 13 15  2  0
 35 37  1  0
 36 38  1  0
 14 16  1  0
 15 17  1  0
 15 18  1  0
 37 39  1  0
 16 19  2  0
 17 20  2  0
 39 40  1  0
 19 21  1  0
 20 22  1  0
  5  6  1  0
 32 33  1  0
  9 10  1  0
 38 39  1  0
 16 17  1  0
 21 22  2  0
 25 26  1  0
M  END
>  <Molecule Name>  (8) 
CTX-1019757

>  <SMILES>  (8) 
CN1CCN(CC1)C1=CC=C(CNC(=O)C2=CC3=C(CCN(C3)C(=O)C3=C(C)C4=C(O3)C=CC=C4)C=C2)C=C1

>  <Batch Name>  (8) 
CTX-1019757-1

>  <Batch Created Date>  (8) 
2021-09-09

>  <Batch ID>  (8) 
CTX-1019757-1

>  <External ID>  (8) 
S04-03-0002

>  <Stereochemistry>  (8) 
Achiral

>  <Amount 1>  (8) 
4.3

>  <Unit 1>  (8) 
mg

>  <CRO 1>  (8) 
Pharmaron

>  <CRO 1 Total Amount>  (8) 
23.8

>  <CRO 1 Unit>  (8) 
mg

>  <pIC50>  (8) 
5.354578

>  <SMILES_std>  (8) 
Cc1c(C(=O)N2CCc3ccc(C(=O)NCc4ccc(N5CCN(C)CC5)cc4)cc3C2)oc2ccccc12

>  <embed_status>  (8) 
0

>  <mmff_status>  (8) 
0

>  <minimizedAffinity>  (8) 
-11.24144

>  <CNNscore>  (8) 
0.8551794291

>  <CNNaffinity>  (8) 
8.1072092056

>  <CNN_VS>  (8) 
6.9331183434

>  <CNNaffinity_variance>  (8) 
0.4599796236

>  <Docking_Rank>  (8) 
7

>  <Vina_Affinity_kcal_mol>  (8) 
-11.240

>  <CNN_pKi>  (8) 
8.107

>  <CNN_Pose_Score>  (8) 
0.8552

>  <Num_Docked_Poses>  (8) 
5

>  <MMGBSA_Rank>  (8) 
8

>  <MMGBSA_dG_kcal_mol>  (8) 
-75.475

>  <MMGBSA_VdW_kcal_mol>  (8) 
-71.392

>  <MMGBSA_Elec_kcal_mol>  (8) 
-4.367

>  <MMGBSA_PolarSolv_kcal_mol>  (8) 
9.141

>  <MMGBSA_NonPolarSolv_kcal_mol>  (8) 
-8.857

>  <MMGBSA_Status>  (8) 
S

$$$$
CTX-1020759
     RDKit          3D

 43 48  0  0  0  0  0  0  0  0999 V2000
   28.9778    4.3479  -22.6195 C   0  0  0  0  0  0  0  0  0  0  0  0
   28.4957    3.5700  -21.6084 N   0  0  0  0  0  0  0  0  0  0  0  0
   28.3489    4.5004  -23.8457 C   0  0  0  0  0  0  0  0  0  0  0  0
   27.3331    2.9083  -21.8354 C   0  0  0  0  0  0  0  0  0  0  0  0
   27.1544    3.8216  -24.0565 C   0  0  0  0  0  0  0  0  0  0  0  0
   26.6240    3.0217  -23.0391 C   0  0  0  0  0  0  0  0  0  0  0  0
   26.8055    2.0568  -20.6972 C   0  0  0  0  0  0  0  0  0  0  0  0
   25.3508    2.2486  -23.2611 C   0  0  0  0  0  0  0  0  0  0  0  0
   25.6599    1.2199  -21.0490 N   0  0  0  0  0  0  0  0  0  0  0  0
   24.6897    1.8510  -21.9433 C   0  0  0  0  0  0  0  0  0  0  0  0
   25.3146    0.2261  -20.1342 C   0  0  0  0  0  0  0  0  0  0  0  0
   25.8987    0.1187  -19.0564 O   0  0  0  0  0  0  0  0  0  0  0  0
   24.2666   -0.7049  -20.5057 C   0  0  0  0  0  0  0  0  0  0  0  0
   23.0169   -0.7747  -19.9147 N   0  0  0  0  0  0  0  0  0  0  0  0
   24.3264   -1.7444  -21.4212 C   0  0  0  0  0  0  0  0  0  0  0  0
   22.2810   -1.8160  -20.4571 C   0  0  0  0  0  0  0  0  0  0  0  0
   23.0898   -2.4360  -21.4098 C   0  0  0  0  0  0  0  0  0  0  0  0
   20.9800   -2.2738  -20.1862 C   0  0  0  0  0  0  0  0  0  0  0  0
   22.5917   -3.5466  -22.1187 C   0  0  0  0  0  0  0  0  0  0  0  0
   20.5039   -3.3752  -20.9046 C   0  0  0  0  0  0  0  0  0  0  0  0
   21.2967   -4.0046  -21.8587 C   0  0  0  0  0  0  0  0  0  0  0  0
   22.5081    0.1443  -18.8982 C   0  0  0  0  0  0  0  0  0  0  0  0
   23.5252    1.2203  -18.5210 C   0  0  0  0  0  0  0  0  0  0  0  0
   23.4673    1.5346  -17.1320 O   0  0  0  0  0  0  0  0  0  0  0  0
   22.5859    1.8762  -16.9143 H   0  0  0  0  0  0  0  0  0  0  0  0
   31.2721    4.4474  -21.9862 O   0  0  0  0  0  0  0  0  0  0  0  0
   30.2724    5.0556  -22.3511 C   0  0  0  0  0  0  0  0  0  0  0  0
   30.2176    6.4188  -22.5408 N   0  0  0  0  0  0  0  0  0  0  0  0
   29.4164    6.8042  -22.9636 H   0  0  0  0  0  0  0  0  0  0  0  0
   31.2832    7.3041  -22.1467 C   0  0  0  0  0  0  0  0  0  0  0  0
   32.1923    7.6007  -23.3097 C   0  0  0  0  0  0  0  0  0  0  0  0
   33.5242    7.9619  -23.0944 C   0  0  0  0  0  0  0  0  0  0  0  0
   31.7152    7.5730  -24.6227 C   0  0  0  0  0  0  0  0  0  0  0  0
   34.3625    8.2621  -24.1747 C   0  0  0  0  0  0  0  0  0  0  0  0
   32.5623    7.8768  -25.6981 C   0  0  0  0  0  0  0  0  0  0  0  0
   33.9103    8.2120  -25.5038 C   0  0  0  0  0  0  0  0  0  0  0  0
   34.7893    8.5310  -26.5520 N   0  0  0  0  0  0  0  0  0  0  0  0
   34.7549    7.6957  -27.7693 C   0  0  0  0  0  0  0  0  0  0  0  0
   36.1644    8.8648  -26.1109 C   0  0  0  0  0  0  0  0  0  0  0  0
   35.6184    8.3179  -28.8930 C   0  0  0  0  0  0  0  0  0  0  0  0
   36.9995    9.4408  -27.2815 C   0  0  0  0  0  0  0  0  0  0  0  0
   37.0158    8.6321  -28.5205 N   0  0  0  0  0  0  0  0  0  0  0  0
   37.8187    7.4222  -28.3627 C   0  0  0  0  0  0  0  0  0  0  0  0
 26 27  2  0
 27 28  1  0
 27  1  1  0
 28 30  1  0
  1  2  2  0
  1  3  1  0
 30 31  1  0
  2  4  1  0
  3  5  2  0
 31 32  2  0
 31 33  1  0
  4  6  2  0
  4  7  1  0
 32 34  1  0
 33 35  2  0
  6  8  1  0
  7  9  1  0
 34 36  2  0
  8 10  1  0
  9 11  1  0
 36 37  1  0
 11 12  2  0
 11 13  1  0
 37 38  1  0
 37 39  1  0
 13 14  1  0
 13 15  2  0
 38 40  1  0
 39 41  1  0
 14 16  1  0
 14 22  1  0
 15 17  1  0
 40 42  1  0
 16 18  2  0
 22 23  1  0
 17 19  2  0
 42 43  1  0
 18 20  1  0
 23 24  1  0
 19 21  1  0
  5  6  1  0
 35 36  1  0
  9 10  1  0
 41 42  1  0
 16 17  1  0
 20 21  2  0
 28 29  1  0
 24 25  1  0
M  END
>  <Molecule Name>  (9) 
CTX-1020759

>  <SMILES>  (9) 
CN1CCN(CC1)C1=CC=C(CNC(=O)C2=NC3=C(CCN(C3)C(=O)C3=CC4=C(C=CC=C4)N3CCO)C=C2)C=C1

>  <Batch Name>  (9) 
CTX-1020759-1

>  <Batch Created Date>  (9) 
2021-12-16

>  <Batch ID>  (9) 
CTX-1020759-1

>  <External ID>  (9) 
P841-0381

>  <Stereochemistry>  (9) 
Achiral

>  <Amount 1>  (9) 
5.05

>  <Unit 1>  (9) 
mg

>  <CRO 1>  (9) 
Pharmaron

>  <CRO 1 Total Amount>  (9) 
20.45

>  <CRO 1 Unit>  (9) 
mg

>  <pIC50>  (9) 
4.354578

>  <SMILES_std>  (9) 
CN1CCN(c2ccc(CNC(=O)c3ccc4c(n3)CN(C(=O)c3cc5ccccc5n3CCO)CC4)cc2)CC1

>  <embed_status>  (9) 
0

>  <mmff_status>  (9) 
0

>  <minimizedAffinity>  (9) 
-11.55899

>  <CNNscore>  (9) 
0.5996414423

>  <CNNaffinity>  (9) 
7.4411349297

>  <CNN_VS>  (9) 
4.4620127678

>  <CNNaffinity_variance>  (9) 
0.6740603447

>  <Docking_Rank>  (9) 
25

>  <Vina_Affinity_kcal_mol>  (9) 
-11.560

>  <CNN_pKi>  (9) 
7.441

>  <CNN_Pose_Score>  (9) 
0.5996

>  <Num_Docked_Poses>  (9) 
5

>  <MMGBSA_Rank>  (9) 
9

>  <MMGBSA_dG_kcal_mol>  (9) 
-75.200

>  <MMGBSA_VdW_kcal_mol>  (9) 
-75.055

>  <MMGBSA_Elec_kcal_mol>  (9) 
-3.850

>  <MMGBSA_PolarSolv_kcal_mol>  (9) 
12.193

>  <MMGBSA_NonPolarSolv_kcal_mol>  (9) 
-8.488

>  <MMGBSA_Status>  (9) 
S

$$$$
CTX-1020800
     RDKit          3D

 40 45  0  0  0  0  0  0  0  0999 V2000
   25.3496    1.8335  -24.9373 O   0  0  0  0  0  0  0  0  0  0  0  0
   25.5041    1.5896  -23.7377 C   0  0  0  0  0  0  0  0  0  0  0  0
   26.4989    2.2634  -23.0082 N   0  0  0  0  0  0  0  0  0  0  0  0
   26.9697    3.5199  -23.6212 C   0  0  0  0  0  0  0  0  0  0  0  0
   26.7868    2.0198  -21.5762 C   0  0  0  0  0  0  0  0  0  0  0  0
   28.1759    4.0597  -22.9286 C   0  0  0  0  0  0  0  0  0  0  0  0
   28.2637    2.2376  -21.1847 C   0  0  0  0  0  0  0  0  0  0  0  0
   28.7492    3.4821  -21.8204 C   0  0  0  0  0  0  0  0  0  0  0  0
   28.9561    5.2037  -23.2284 C   0  0  0  0  0  0  0  0  0  0  0  0
   29.8386    4.2128  -21.4472 N   0  0  0  0  0  0  0  0  0  0  0  0
   29.9724    5.3023  -22.2859 C   0  0  0  0  0  0  0  0  0  0  0  0
   30.4372    3.9970  -20.6960 H   0  0  0  0  0  0  0  0  0  0  0  0
   24.6628    0.6021  -23.0751 C   0  0  0  0  0  0  0  0  0  0  0  0
   24.7897    0.3852  -21.7287 O   0  0  0  0  0  0  0  0  0  0  0  0
   23.6060   -0.1555  -23.5720 C   0  0  0  0  0  0  0  0  0  0  0  0
   23.8527   -0.5283  -21.3679 C   0  0  0  0  0  0  0  0  0  0  0  0
   23.0917   -0.9004  -22.4670 C   0  0  0  0  0  0  0  0  0  0  0  0
   23.1152   -0.1702  -24.9740 C   0  0  0  0  0  0  0  0  0  0  0  0
   23.6678   -1.0251  -20.0796 C   0  0  0  0  0  0  0  0  0  0  0  0
   22.0601   -1.8391  -22.2749 C   0  0  0  0  0  0  0  0  0  0  0  0
   22.6409   -1.9591  -19.9117 C   0  0  0  0  0  0  0  0  0  0  0  0
   21.8491   -2.3606  -20.9901 C   0  0  0  0  0  0  0  0  0  0  0  0
   31.0107    6.3091  -22.2079 C   0  0  0  0  0  0  0  0  0  0  0  0
   32.2007    6.0422  -22.0753 O   0  0  0  0  0  0  0  0  0  0  0  0
   30.5592    7.6055  -22.3251 N   0  0  0  0  0  0  0  0  0  0  0  0
   29.5929    7.7896  -22.3660 H   0  0  0  0  0  0  0  0  0  0  0  0
   31.5061    8.6935  -22.3878 C   0  0  0  0  0  0  0  0  0  0  0  0
   32.4596    8.4898  -23.5322 C   0  0  0  0  0  0  0  0  0  0  0  0
   32.0026    8.0662  -24.7813 C   0  0  0  0  0  0  0  0  0  0  0  0
   33.8187    8.7724  -23.3847 C   0  0  0  0  0  0  0  0  0  0  0  0
   32.8946    7.9139  -25.8523 C   0  0  0  0  0  0  0  0  0  0  0  0
   34.7000    8.6146  -24.4628 C   0  0  0  0  0  0  0  0  0  0  0  0
   34.2674    8.1763  -25.7247 C   0  0  0  0  0  0  0  0  0  0  0  0
   35.1483    8.0307  -26.7836 N   0  0  0  0  0  0  0  0  0  0  0  0
   36.5947    7.8626  -26.5512 C   0  0  0  0  0  0  0  0  0  0  0  0
   34.6812    7.8022  -28.1610 C   0  0  0  0  0  0  0  0  0  0  0  0
   37.2459    6.9782  -27.6420 C   0  0  0  0  0  0  0  0  0  0  0  0
   35.7825    8.1911  -29.1744 C   0  0  0  0  0  0  0  0  0  0  0  0
   37.0327    7.4124  -29.0382 N   0  0  0  0  0  0  0  0  0  0  0  0
   38.1691    8.1721  -29.5516 C   0  0  0  0  0  0  0  0  0  0  0  0
  1  2  2  0
  2  3  1  0
  2 13  1  0
  3  4  1  0
  3  5  1  0
 13 14  1  0
 13 15  2  0
  4  6  1  0
  5  7  1  0
 14 16  1  0
 15 17  1  0
 15 18  1  0
  6  8  2  0
  6  9  1  0
 16 19  2  0
 17 20  2  0
  8 10  1  0
  9 11  2  0
 19 21  1  0
 20 22  1  0
 11 23  1  0
 23 24  2  0
 23 25  1  0
 25 27  1  0
 27 28  1  0
 28 29  2  0
 28 30  1  0
 29 31  1  0
 30 32  2  0
 31 33  2  0
 33 34  1  0
 34 35  1  0
 34 36  1  0
 35 37  1  0
 36 38  1  0
 37 39  1  0
 39 40  1  0
  7  8  1  0
 16 17  1  0
 10 11  1  0
 21 22  2  0
 32 33  1  0
 38 39  1  0
 10 12  1  0
 25 26  1  0
M  END
>  <Molecule Name>  (10) 
CTX-1020800

>  <SMILES>  (10) 
CN1CCN(CC1)C1=CC=C(CNC(=O)C2=CC3=C(CCN(C3)C(=O)C3=C(C)C4=C(O3)C=CC=C4)N2)C=C1

>  <Batch Name>  (10) 
CTX-1020800-1

>  <Batch Created Date>  (10) 
2021-12-24

>  <Batch ID>  (10) 
CTX-1020800-1

>  <External ID>  (10) 
CD-44-Q

>  <Stereochemistry>  (10) 
Achiral

>  <Amount 1>  (10) 
2.6

>  <Unit 1>  (10) 
mg

>  <CRO 1>  (10) 
Pharmaron

>  <CRO 1 Total Amount>  (10) 
16.1

>  <CRO 1 Unit>  (10) 
mg

>  <pIC50>  (10) 
5.931814

>  <SMILES_std>  (10) 
Cc1c(C(=O)N2CCc3[nH]c(C(=O)NCc4ccc(N5CCN(C)CC5)cc4)cc3C2)oc2ccccc12

>  <embed_status>  (10) 
0

>  <mmff_status>  (10) 
0

>  <minimizedAffinity>  (10) 
-11.83755

>  <CNNscore>  (10) 
0.4878372848

>  <CNNaffinity>  (10) 
7.5983748436

>  <CNN_VS>  (10) 
3.7067706585

>  <CNNaffinity_variance>  (10) 
0.4907643497

>  <Docking_Rank>  (10) 
16

>  <Vina_Affinity_kcal_mol>  (10) 
-11.840

>  <CNN_pKi>  (10) 
7.598

>  <CNN_Pose_Score>  (10) 
0.4878

>  <Num_Docked_Poses>  (10) 
5

>  <MMGBSA_Rank>  (10) 
10

>  <MMGBSA_dG_kcal_mol>  (10) 
-74.601

>  <MMGBSA_VdW_kcal_mol>  (10) 
-72.741

>  <MMGBSA_Elec_kcal_mol>  (10) 
-7.069

>  <MMGBSA_PolarSolv_kcal_mol>  (10) 
13.377

>  <MMGBSA_NonPolarSolv_kcal_mol>  (10) 
-8.168

>  <MMGBSA_Status>  (10) 
S

$$$$
CTX-1020749
     RDKit          3D

 39 44  0  0  0  0  0  0  0  0999 V2000
   25.4568    1.6610  -23.5411 C   0  0  0  0  0  0  0  0  0  0  0  0
   25.2516    1.9640  -24.7182 O   0  0  0  0  0  0  0  0  0  0  0  0
   26.5076    2.2742  -22.8348 N   0  0  0  0  0  0  0  0  0  0  0  0
   27.0171    3.5135  -23.4376 C   0  0  0  0  0  0  0  0  0  0  0  0
   26.8357    1.9927  -21.4227 C   0  0  0  0  0  0  0  0  0  0  0  0
   28.2782    3.9955  -22.7876 C   0  0  0  0  0  0  0  0  0  0  0  0
   28.3356    2.1095  -21.1113 C   0  0  0  0  0  0  0  0  0  0  0  0
   28.8667    3.3589  -21.7189 C   0  0  0  0  0  0  0  0  0  0  0  0
   29.0274    5.1594  -23.1571 C   0  0  0  0  0  0  0  0  0  0  0  0
   30.2710    4.1285  -21.1679 S   0  0  0  0  0  0  0  0  0  0  0  0
   30.1492    5.3556  -22.3657 C   0  0  0  0  0  0  0  0  0  0  0  0
   23.0370   -0.2504  -24.9462 Cl  0  0  0  0  0  0  0  0  0  0  0  0
   23.5927   -0.1056  -23.3446 C   0  0  0  0  0  0  0  0  0  0  0  0
   24.6216    0.6863  -22.8690 C   0  0  0  0  0  0  0  0  0  0  0  0
   23.0657   -0.8237  -22.2369 C   0  0  0  0  0  0  0  0  0  0  0  0
   24.7323    0.5169  -21.5113 O   0  0  0  0  0  0  0  0  0  0  0  0
   23.8012   -0.4007  -21.1375 C   0  0  0  0  0  0  0  0  0  0  0  0
   22.0497   -1.7778  -22.0334 C   0  0  0  0  0  0  0  0  0  0  0  0
   23.6014   -0.8590  -19.8373 C   0  0  0  0  0  0  0  0  0  0  0  0
   21.8251   -2.2603  -20.7361 C   0  0  0  0  0  0  0  0  0  0  0  0
   22.5890   -1.8071  -19.6580 C   0  0  0  0  0  0  0  0  0  0  0  0
   31.1655    6.4024  -22.4085 C   0  0  0  0  0  0  0  0  0  0  0  0
   32.3730    6.1935  -22.3104 O   0  0  0  0  0  0  0  0  0  0  0  0
   30.6711    7.6819  -22.5828 N   0  0  0  0  0  0  0  0  0  0  0  0
   29.6982    7.8294  -22.5532 H   0  0  0  0  0  0  0  0  0  0  0  0
   31.5489    8.8078  -22.8073 C   0  0  0  0  0  0  0  0  0  0  0  0
   32.5815    8.4756  -23.8511 C   0  0  0  0  0  0  0  0  0  0  0  0
   33.9440    8.6548  -23.6015 C   0  0  0  0  0  0  0  0  0  0  0  0
   32.1938    8.0093  -25.1085 C   0  0  0  0  0  0  0  0  0  0  0  0
   34.8966    8.3667  -24.5901 C   0  0  0  0  0  0  0  0  0  0  0  0
   33.1537    7.7277  -26.0880 C   0  0  0  0  0  0  0  0  0  0  0  0
   34.5287    7.9132  -25.8642 C   0  0  0  0  0  0  0  0  0  0  0  0
   35.4453    7.6085  -26.8733 N   0  0  0  0  0  0  0  0  0  0  0  0
   36.8597    8.0153  -26.7572 C   0  0  0  0  0  0  0  0  0  0  0  0
   34.9434    7.6971  -28.2647 C   0  0  0  0  0  0  0  0  0  0  0  0
   37.1218    9.3960  -27.4089 C   0  0  0  0  0  0  0  0  0  0  0  0
   35.2255    9.0955  -28.8701 C   0  0  0  0  0  0  0  0  0  0  0  0
   36.6355    9.5479  -28.7999 N   0  0  0  0  0  0  0  0  0  0  0  0
   37.4800    8.8234  -29.7470 C   0  0  0  0  0  0  0  0  0  0  0  0
 12 13  1  0
 13 14  2  0
 13 15  1  0
 14 16  1  0
 14  1  1  0
 15 17  2  0
 15 18  1  0
  1  2  2  0
  1  3  1  0
 17 19  1  0
 18 20  2  0
  3  4  1  0
  3  5  1  0
 19 21  2  0
  4  6  1  0
  5  7  1  0
  6  8  2  0
  6  9  1  0
  8 10  1  0
  9 11  2  0
 11 22  1  0
 22 23  2  0
 22 24  1  0
 24 26  1  0
 26 27  1  0
 27 28  2  0
 27 29  1  0
 28 30  1  0
 29 31  2  0
 30 32  2  0
 32 33  1  0
 33 34  1  0
 33 35  1  0
 34 36  1  0
 35 37  1  0
 36 38  1  0
 38 39  1  0
 16 17  1  0
 20 21  1  0
  7  8  1  0
 10 11  1  0
 31 32  1  0
 37 38  1  0
 24 25  1  0
M  END
>  <Molecule Name>  (11) 
CTX-1020749

>  <SMILES>  (11) 
CN1CCN(CC1)C1=CC=C(CNC(=O)C2=CC3=C(CCN(C3)C(=O)C3=C(Cl)C4=C(O3)C=CC=C4)S2)C=C1

>  <Batch Name>  (11) 
CTX-1020749-1

>  <Batch Created Date>  (11) 
2021-12-16

>  <Batch ID>  (11) 
CTX-1020749-1

>  <External ID>  (11) 
P841-0370

>  <Stereochemistry>  (11) 
Achiral

>  <Amount 1>  (11) 
3.15

>  <Unit 1>  (11) 
mg

>  <CRO 1>  (11) 
Pharmaron

>  <CRO 1 Total Amount>  (11) 
0.0

>  <CRO 1 Unit>  (11) 
mg

>  <pIC50>  (11) 
5.787812

>  <SMILES_std>  (11) 
CN1CCN(c2ccc(CNC(=O)c3cc4c(s3)CCN(C(=O)c3oc5ccccc5c3Cl)C4)cc2)CC1

>  <embed_status>  (11) 
0

>  <mmff_status>  (11) 
0

>  <minimizedAffinity>  (11) 
-12.03406

>  <CNNscore>  (11) 
0.4041136801

>  <CNNaffinity>  (11) 
7.4675726891

>  <CNN_VS>  (11) 
3.0177483559

>  <CNNaffinity_variance>  (11) 
0.7305741310

>  <Docking_Rank>  (11) 
23

>  <Vina_Affinity_kcal_mol>  (11) 
-12.030

>  <CNN_pKi>  (11) 
7.468

>  <CNN_Pose_Score>  (11) 
0.4041

>  <Num_Docked_Poses>  (11) 
5

>  <MMGBSA_Rank>  (11) 
11

>  <MMGBSA_dG_kcal_mol>  (11) 
-74.571

>  <MMGBSA_VdW_kcal_mol>  (11) 
-72.172

>  <MMGBSA_Elec_kcal_mol>  (11) 
-8.101

>  <MMGBSA_PolarSolv_kcal_mol>  (11) 
13.648

>  <MMGBSA_NonPolarSolv_kcal_mol>  (11) 
-7.946

>  <MMGBSA_Status>  (11) 
S

$$$$
CTX-1019758
     RDKit          3D

 39 44  0  0  0  0  0  0  0  0999 V2000
   30.3617    4.0203  -21.2283 S   0  0  0  0  0  0  0  0  0  0  0  0
   30.1499    5.3644  -22.2791 C   0  0  0  0  0  0  0  0  0  0  0  0
   28.9280    3.2934  -21.7611 C   0  0  0  0  0  0  0  0  0  0  0  0
   28.9776    5.2365  -23.0091 C   0  0  0  0  0  0  0  0  0  0  0  0
   28.2637    4.0297  -22.7150 C   0  0  0  0  0  0  0  0  0  0  0  0
   28.4474    1.9803  -21.2546 C   0  0  0  0  0  0  0  0  0  0  0  0
   26.9652    3.5999  -23.3262 C   0  0  0  0  0  0  0  0  0  0  0  0
   26.9304    1.8756  -21.4738 C   0  0  0  0  0  0  0  0  0  0  0  0
   26.5012    2.3016  -22.8205 N   0  0  0  0  0  0  0  0  0  0  0  0
   25.3988    1.7616  -23.5068 C   0  0  0  0  0  0  0  0  0  0  0  0
   25.1333    2.1589  -24.6446 O   0  0  0  0  0  0  0  0  0  0  0  0
   24.5802    0.7376  -22.8733 C   0  0  0  0  0  0  0  0  0  0  0  0
   24.6402    0.5558  -21.5174 O   0  0  0  0  0  0  0  0  0  0  0  0
   23.6025   -0.0931  -23.4130 C   0  0  0  0  0  0  0  0  0  0  0  0
   23.7412   -0.4074  -21.1902 C   0  0  0  0  0  0  0  0  0  0  0  0
   23.0701   -0.8469  -22.3225 C   0  0  0  0  0  0  0  0  0  0  0  0
   23.1971   -0.1662  -24.8402 C   0  0  0  0  0  0  0  0  0  0  0  0
   23.5121   -0.8902  -19.9037 C   0  0  0  0  0  0  0  0  0  0  0  0
   22.0882   -1.8440  -22.1687 C   0  0  0  0  0  0  0  0  0  0  0  0
   22.5360   -1.8829  -19.7740 C   0  0  0  0  0  0  0  0  0  0  0  0
   21.8345   -2.3531  -20.8865 C   0  0  0  0  0  0  0  0  0  0  0  0
   31.1543    6.4235  -22.2801 C   0  0  0  0  0  0  0  0  0  0  0  0
   32.3672    6.2221  -22.2777 O   0  0  0  0  0  0  0  0  0  0  0  0
   30.6417    7.7076  -22.2957 N   0  0  0  0  0  0  0  0  0  0  0  0
   29.6714    7.8387  -22.1931 H   0  0  0  0  0  0  0  0  0  0  0  0
   31.4958    8.8619  -22.4588 C   0  0  0  0  0  0  0  0  0  0  0  0
   32.4689    8.6467  -23.5869 C   0  0  0  0  0  0  0  0  0  0  0  0
   32.0345    8.1333  -24.8104 C   0  0  0  0  0  0  0  0  0  0  0  0
   33.8155    8.9900  -23.4541 C   0  0  0  0  0  0  0  0  0  0  0  0
   32.9344    7.9562  -25.8699 C   0  0  0  0  0  0  0  0  0  0  0  0
   34.7057    8.8083  -24.5225 C   0  0  0  0  0  0  0  0  0  0  0  0
   34.2946    8.2846  -25.7582 C   0  0  0  0  0  0  0  0  0  0  0  0
   35.1760    8.1088  -26.8112 N   0  0  0  0  0  0  0  0  0  0  0  0
   36.2543    7.1078  -26.7689 C   0  0  0  0  0  0  0  0  0  0  0  0
   35.0204    8.8484  -28.0755 C   0  0  0  0  0  0  0  0  0  0  0  0
   37.4067    7.5119  -27.7178 C   0  0  0  0  0  0  0  0  0  0  0  0
   35.6002    8.0511  -29.2687 C   0  0  0  0  0  0  0  0  0  0  0  0
   37.0106    7.6285  -29.1382 N   0  0  0  0  0  0  0  0  0  0  0  0
   37.9150    8.5274  -29.8499 C   0  0  0  0  0  0  0  0  0  0  0  0
  1  2  1  0
  1  3  1  0
  2 22  1  0
  2  4  2  0
  3  5  2  0
  3  6  1  0
 22 23  2  0
 22 24  1  0
  5  7  1  0
  6  8  1  0
 24 26  1  0
  7  9  1  0
 26 27  1  0
  9 10  1  0
 27 28  2  0
 27 29  1  0
 10 11  2  0
 10 12  1  0
 28 30  1  0
 29 31  2  0
 12 13  1  0
 12 14  2  0
 30 32  2  0
 13 15  1  0
 14 16  1  0
 14 17  1  0
 32 33  1  0
 15 18  2  0
 16 19  2  0
 33 34  1  0
 33 35  1  0
 18 20  1  0
 19 21  1  0
 34 36  1  0
 35 37  1  0
 36 38  1  0
 38 39  1  0
  4  5  1  0
  8  9  1  0
 31 32  1  0
 15 16  1  0
 20 21  2  0
 37 38  1  0
 24 25  1  0
M  END
>  <Molecule Name>  (12) 
CTX-1019758

>  <SMILES>  (12) 
CN1CCN(CC1)C1=CC=C(CNC(=O)C2=CC3=C(CCN(C3)C(=O)C3=C(C)C4=C(O3)C=CC=C4)S2)C=C1

>  <Batch Name>  (12) 
CTX-1019758-1

>  <Batch Created Date>  (12) 
2021-09-09

>  <Batch ID>  (12) 
CTX-1019758-1

>  <External ID>  (12) 
S04-04-0004

>  <Stereochemistry>  (12) 
Achiral

>  <Amount 1>  (12) 
4.9

>  <Unit 1>  (12) 
mg

>  <CRO 1>  (12) 
Pharmaron

>  <CRO 1 Total Amount>  (12) 
64.3

>  <CRO 1 Unit>  (12) 
mg

>  <pIC50>  (12) 
6.101824

>  <SMILES_std>  (12) 
Cc1c(C(=O)N2CCc3sc(C(=O)NCc4ccc(N5CCN(C)CC5)cc4)cc3C2)oc2ccccc12

>  <embed_status>  (12) 
0

>  <mmff_status>  (12) 
0

>  <minimizedAffinity>  (12) 
-11.69846

>  <CNNscore>  (12) 
0.4480961561

>  <CNNaffinity>  (12) 
7.3773040771

>  <CNN_VS>  (12) 
3.3057415485

>  <CNNaffinity_variance>  (12) 
0.8777230382

>  <Docking_Rank>  (12) 
33

>  <Vina_Affinity_kcal_mol>  (12) 
-11.700

>  <CNN_pKi>  (12) 
7.377

>  <CNN_Pose_Score>  (12) 
0.4481

>  <Num_Docked_Poses>  (12) 
5

>  <MMGBSA_Rank>  (12) 
12

>  <MMGBSA_dG_kcal_mol>  (12) 
-74.240

>  <MMGBSA_VdW_kcal_mol>  (12) 
-71.397

>  <MMGBSA_Elec_kcal_mol>  (12) 
-8.437

>  <MMGBSA_PolarSolv_kcal_mol>  (12) 
13.895

>  <MMGBSA_NonPolarSolv_kcal_mol>  (12) 
-8.301

>  <MMGBSA_Status>  (12) 
S

$$$$
CTX-1020441
     RDKit          3D

 41 46  0  0  0  0  0  0  0  0999 V2000
   26.2749    4.1129  -25.9142 Cl  0  0  0  0  0  0  0  0  0  0  0  0
   27.0668    3.8689  -24.3981 C   0  0  0  0  0  0  0  0  0  0  0  0
   26.6204    2.9054  -23.4838 C   0  0  0  0  0  0  0  0  0  0  0  0
   28.1657    4.6676  -24.1115 C   0  0  0  0  0  0  0  0  0  0  0  0
   27.3054    2.8095  -22.2627 C   0  0  0  0  0  0  0  0  0  0  0  0
   25.4044    2.0449  -23.7518 C   0  0  0  0  0  0  0  0  0  0  0  0
   28.7876    4.4841  -22.8925 C   0  0  0  0  0  0  0  0  0  0  0  0
   28.3856    3.5729  -21.9635 N   0  0  0  0  0  0  0  0  0  0  0  0
   26.8980    1.7917  -21.2084 C   0  0  0  0  0  0  0  0  0  0  0  0
   25.3340    0.8338  -22.8198 C   0  0  0  0  0  0  0  0  0  0  0  0
   25.5640    1.2419  -21.4418 N   0  0  0  0  0  0  0  0  0  0  0  0
   24.4540    1.6160  -20.6710 C   0  0  0  0  0  0  0  0  0  0  0  0
   23.3269    1.6367  -21.1659 O   0  0  0  0  0  0  0  0  0  0  0  0
   24.6867    1.9405  -19.2765 C   0  0  0  0  0  0  0  0  0  0  0  0
   25.8574    2.5734  -18.9638 O   0  0  0  0  0  0  0  0  0  0  0  0
   23.9231    1.7570  -18.1274 C   0  0  0  0  0  0  0  0  0  0  0  0
   25.8710    2.7676  -17.6206 C   0  0  0  0  0  0  0  0  0  0  0  0
   24.7035    2.2796  -17.0496 C   0  0  0  0  0  0  0  0  0  0  0  0
   22.5681    1.1582  -18.0303 C   0  0  0  0  0  0  0  0  0  0  0  0
   26.9026    3.3705  -16.9049 C   0  0  0  0  0  0  0  0  0  0  0  0
   24.5425    2.4003  -15.6562 C   0  0  0  0  0  0  0  0  0  0  0  0
   26.7241    3.4775  -15.5222 C   0  0  0  0  0  0  0  0  0  0  0  0
   25.5643    3.0011  -14.9062 C   0  0  0  0  0  0  0  0  0  0  0  0
   29.9845    5.3114  -22.5341 C   0  0  0  0  0  0  0  0  0  0  0  0
   30.9235    4.8362  -21.9066 O   0  0  0  0  0  0  0  0  0  0  0  0
   29.9136    6.6192  -22.9584 N   0  0  0  0  0  0  0  0  0  0  0  0
   29.1805    6.8796  -23.5617 H   0  0  0  0  0  0  0  0  0  0  0  0
   30.8662    7.6233  -22.5573 C   0  0  0  0  0  0  0  0  0  0  0  0
   31.9554    7.7641  -23.5865 C   0  0  0  0  0  0  0  0  0  0  0  0
   31.6755    7.6722  -24.9509 C   0  0  0  0  0  0  0  0  0  0  0  0
   33.2691    8.0324  -23.1971 C   0  0  0  0  0  0  0  0  0  0  0  0
   32.6964    7.8290  -25.8993 C   0  0  0  0  0  0  0  0  0  0  0  0
   34.2801    8.1893  -24.1550 C   0  0  0  0  0  0  0  0  0  0  0  0
   34.0263    8.0899  -25.5320 C   0  0  0  0  0  0  0  0  0  0  0  0
   35.0282    8.2446  -26.4748 N   0  0  0  0  0  0  0  0  0  0  0  0
   34.7285    8.5503  -27.8837 C   0  0  0  0  0  0  0  0  0  0  0  0
   36.4501    8.0888  -26.1278 C   0  0  0  0  0  0  0  0  0  0  0  0
   35.8422    8.0083  -28.8097 C   0  0  0  0  0  0  0  0  0  0  0  0
   37.3534    8.8816  -27.1029 C   0  0  0  0  0  0  0  0  0  0  0  0
   37.1838    8.5686  -28.5375 N   0  0  0  0  0  0  0  0  0  0  0  0
   38.2235    7.6653  -29.0231 C   0  0  0  0  0  0  0  0  0  0  0  0
  1  2  1  0
  2  3  2  0
  2  4  1  0
  3  5  1  0
  3  6  1  0
  4  7  2  0
  5  8  2  0
  5  9  1  0
  6 10  1  0
  7 24  1  0
  9 11  1  0
 24 25  2  0
 24 26  1  0
 11 12  1  0
 26 28  1  0
 12 13  2  0
 12 14  1  0
 28 29  1  0
 14 15  1  0
 14 16  2  0
 29 30  2  0
 29 31  1  0
 15 17  1  0
 16 18  1  0
 16 19  1  0
 30 32  1  0
 31 33  2  0
 17 20  2  0
 18 21  2  0
 32 34  2  0
 20 22  1  0
 21 23  1  0
 34 35  1  0
 35 36  1  0
 35 37  1  0
 36 38  1  0
 37 39  1  0
 38 40  1  0
 40 41  1  0
  7  8  1  0
 10 11  1  0
 17 18  1  0
 33 34  1  0
 22 23  2  0
 39 40  1  0
 26 27  1  0
M  END
>  <Molecule Name>  (13) 
CTX-1020441

>  <SMILES>  (13) 
CN1CCN(CC1)C1=CC=C(CNC(=O)C2=CC(Cl)=C3CCN(CC3=N2)C(=O)C2=C(C)C3=C(O2)C=CC=C3)C=C1

>  <Batch Name>  (13) 
CTX-1020441-1

>  <Batch Created Date>  (13) 
2021-10-21

>  <Batch ID>  (13) 
CTX-1020441-1

>  <External ID>  (13) 
610EDL060-A

>  <Stereochemistry>  (13) 
Achiral

>  <Amount 1>  (13) 
4.3

>  <Unit 1>  (13) 
mg

>  <CRO 1>  (13) 
Pharmaron

>  <CRO 1 Total Amount>  (13) 
11.1

>  <CRO 1 Unit>  (13) 
mg

>  <pIC50>  (13) 
5.155523

>  <SMILES_std>  (13) 
Cc1c(C(=O)N2CCc3c(Cl)cc(C(=O)NCc4ccc(N5CCN(C)CC5)cc4)nc3C2)oc2ccccc12

>  <embed_status>  (13) 
0

>  <mmff_status>  (13) 
0

>  <minimizedAffinity>  (13) 
-12.42625

>  <CNNscore>  (13) 
0.7286490202

>  <CNNaffinity>  (13) 
7.8463320732

>  <CNN_VS>  (13) 
5.7172222137

>  <CNNaffinity_variance>  (13) 
0.8903712630

>  <Docking_Rank>  (13) 
9

>  <Vina_Affinity_kcal_mol>  (13) 
-12.430

>  <CNN_pKi>  (13) 
7.846

>  <CNN_Pose_Score>  (13) 
0.7286

>  <Num_Docked_Poses>  (13) 
5

>  <MMGBSA_Rank>  (13) 
13

>  <MMGBSA_dG_kcal_mol>  (13) 
-73.814

>  <MMGBSA_VdW_kcal_mol>  (13) 
-73.360

>  <MMGBSA_Elec_kcal_mol>  (13) 
-6.692

>  <MMGBSA_PolarSolv_kcal_mol>  (13) 
14.416

>  <MMGBSA_NonPolarSolv_kcal_mol>  (13) 
-8.178

>  <MMGBSA_Status>  (13) 
S

$$$$
CTX-1019613
     RDKit          3D

 40 45  0  0  0  0  0  0  0  0999 V2000
   25.5590    0.4529  -20.0635 C   0  0  0  0  0  0  0  0  0  0  0  0
   26.2131    0.4056  -19.0220 O   0  0  0  0  0  0  0  0  0  0  0  0
   25.9810    1.2400  -21.1439 N   0  0  0  0  0  0  0  0  0  0  0  0
   27.2467    1.9498  -20.9674 C   0  0  0  0  0  0  0  0  0  0  0  0
   25.6038    0.9655  -22.5300 C   0  0  0  0  0  0  0  0  0  0  0  0
   27.5346    3.0026  -22.0193 C   0  0  0  0  0  0  0  0  0  0  0  0
   25.5087    2.2601  -23.3348 C   0  0  0  0  0  0  0  0  0  0  0  0
   28.6248    3.7836  -21.8117 N   0  0  0  0  0  0  0  0  0  0  0  0
   26.7260    3.1263  -23.1565 C   0  0  0  0  0  0  0  0  0  0  0  0
   28.9057    4.7271  -22.7553 C   0  0  0  0  0  0  0  0  0  0  0  0
   27.0380    4.1136  -24.0971 C   0  0  0  0  0  0  0  0  0  0  0  0
   28.1483    4.9260  -23.8993 C   0  0  0  0  0  0  0  0  0  0  0  0
   24.2030   -1.4474  -21.4407 S   0  0  0  0  0  0  0  0  0  0  0  0
   24.3073   -0.2683  -20.2171 C   0  0  0  0  0  0  0  0  0  0  0  0
   22.5671   -1.8095  -21.0642 C   0  0  0  0  0  0  0  0  0  0  0  0
   23.1415   -0.1673  -19.4733 C   0  0  0  0  0  0  0  0  0  0  0  0
   22.1118   -1.0515  -19.9822 C   0  0  0  0  0  0  0  0  0  0  0  0
   21.7380   -2.7426  -21.7181 C   0  0  0  0  0  0  0  0  0  0  0  0
   22.9542    0.7357  -18.2946 C   0  0  0  0  0  0  0  0  0  0  0  0
   20.7736   -1.2531  -19.5547 C   0  0  0  0  0  0  0  0  0  0  0  0
   20.4261   -2.9135  -21.2733 C   0  0  0  0  0  0  0  0  0  0  0  0
   19.9462   -2.1764  -20.2013 C   0  0  0  0  0  0  0  0  0  0  0  0
   30.1176    5.5739  -22.5051 C   0  0  0  0  0  0  0  0  0  0  0  0
   31.1530    5.0945  -22.0573 O   0  0  0  0  0  0  0  0  0  0  0  0
   29.9456    6.9056  -22.8110 N   0  0  0  0  0  0  0  0  0  0  0  0
   29.1271    7.1778  -23.2856 H   0  0  0  0  0  0  0  0  0  0  0  0
   30.9110    7.9175  -22.4668 C   0  0  0  0  0  0  0  0  0  0  0  0
   31.9966    7.9979  -23.5063 C   0  0  0  0  0  0  0  0  0  0  0  0
   31.7370    7.6999  -24.8449 C   0  0  0  0  0  0  0  0  0  0  0  0
   33.2834    8.4137  -23.1585 C   0  0  0  0  0  0  0  0  0  0  0  0
   32.7521    7.8021  -25.8069 C   0  0  0  0  0  0  0  0  0  0  0  0
   34.2897    8.5106  -24.1293 C   0  0  0  0  0  0  0  0  0  0  0  0
   34.0556    8.2096  -25.4800 C   0  0  0  0  0  0  0  0  0  0  0  0
   35.0519    8.3026  -26.4372 N   0  0  0  0  0  0  0  0  0  0  0  0
   36.2538    9.1273  -26.2314 C   0  0  0  0  0  0  0  0  0  0  0  0
   34.9076    7.6764  -27.7621 C   0  0  0  0  0  0  0  0  0  0  0  0
   37.4209    8.6096  -27.1041 C   0  0  0  0  0  0  0  0  0  0  0  0
   35.7110    8.4451  -28.8387 C   0  0  0  0  0  0  0  0  0  0  0  0
   37.1499    8.6336  -28.5586 N   0  0  0  0  0  0  0  0  0  0  0  0
   37.9723    7.6439  -29.2486 C   0  0  0  0  0  0  0  0  0  0  0  0
 13 14  1  0
 13 15  1  0
 14 16  2  0
 14  1  1  0
 15 17  2  0
 15 18  1  0
 16 19  1  0
  1  2  2  0
  1  3  1  0
 17 20  1  0
 18 21  2  0
  3  4  1  0
  3  5  1  0
 20 22  2  0
  4  6  1  0
  5  7  1  0
  6  8  2  0
  6  9  1  0
  8 10  1  0
  9 11  2  0
 10 23  1  0
 10 12  2  0
 23 24  2  0
 23 25  1  0
 25 27  1  0
 27 28  1  0
 28 29  2  0
 28 30  1  0
 29 31  1  0
 30 32  2  0
 31 33  2  0
 33 34  1  0
 34 35  1  0
 34 36  1  0
 35 37  1  0
 36 38  1  0
 37 39  1  0
 39 40  1  0
 16 17  1  0
 21 22  1  0
  7  9  1  0
 11 12  1  0
 32 33  1  0
 38 39  1  0
 25 26  1  0
M  END
>  <Molecule Name>  (14) 
CTX-1019613

>  <SMILES>  (14) 
CN1CCN(CC1)C1=CC=C(CNC(=O)C2=CC=C3CCN(CC3=N2)C(=O)C2=C(C)C3=C(S2)C=CC=C3)C=C1

>  <Batch Name>  (14) 
CTX-1019613-1

>  <Batch Created Date>  (14) 
2021-08-19

>  <Batch ID>  (14) 
CTX-1019613-1

>  <External ID>  (14) 
P841-0128

>  <Stereochemistry>  (14) 
Achiral

>  <Amount 1>  (14) 
5.2

>  <Unit 1>  (14) 
mg

>  <CRO 1>  (14) 
Pharmaron

>  <CRO 1 Total Amount>  (14) 
23.9

>  <CRO 1 Unit>  (14) 
mg

>  <pIC50>  (14) 
5.617983

>  <SMILES_std>  (14) 
Cc1c(C(=O)N2CCc3ccc(C(=O)NCc4ccc(N5CCN(C)CC5)cc4)nc3C2)sc2ccccc12

>  <embed_status>  (14) 
0

>  <mmff_status>  (14) 
0

>  <minimizedAffinity>  (14) 
-12.79404

>  <CNNscore>  (14) 
0.5347322226

>  <CNNaffinity>  (14) 
7.5074553490

>  <CNN_VS>  (14) 
4.0144782066

>  <CNNaffinity_variance>  (14) 
0.9349327087

>  <Docking_Rank>  (14) 
19

>  <Vina_Affinity_kcal_mol>  (14) 
-12.790

>  <CNN_pKi>  (14) 
7.507

>  <CNN_Pose_Score>  (14) 
0.5347

>  <Num_Docked_Poses>  (14) 
5

>  <MMGBSA_Rank>  (14) 
14

>  <MMGBSA_dG_kcal_mol>  (14) 
-73.477

>  <MMGBSA_VdW_kcal_mol>  (14) 
-72.496

>  <MMGBSA_Elec_kcal_mol>  (14) 
-3.072

>  <MMGBSA_PolarSolv_kcal_mol>  (14) 
10.300

>  <MMGBSA_NonPolarSolv_kcal_mol>  (14) 
-8.209

>  <MMGBSA_Status>  (14) 
S

$$$$
CTX-1019813
     RDKit          3D

 39 44  0  0  0  0  0  0  0  0999 V2000
   29.8651    5.0284  -22.2315 C   0  0  0  0  0  0  0  0  0  0  0  0
   29.2440    4.6456  -23.3756 N   0  0  0  0  0  0  0  0  0  0  0  0
   29.6109    4.4453  -20.9959 C   0  0  0  0  0  0  0  0  0  0  0  0
   28.3330    3.6453  -23.2993 C   0  0  0  0  0  0  0  0  0  0  0  0
   28.6814    3.4120  -20.9340 C   0  0  0  0  0  0  0  0  0  0  0  0
   28.0382    2.9897  -22.1007 C   0  0  0  0  0  0  0  0  0  0  0  0
   27.6637    3.2467  -24.5991 C   0  0  0  0  0  0  0  0  0  0  0  0
   26.9977    1.9060  -22.0570 C   0  0  0  0  0  0  0  0  0  0  0  0
   26.5809    2.2623  -24.4628 N   0  0  0  0  0  0  0  0  0  0  0  0
   26.7926    1.2585  -23.4244 C   0  0  0  0  0  0  0  0  0  0  0  0
   25.8861    1.8307  -25.6039 C   0  0  0  0  0  0  0  0  0  0  0  0
   25.5402    0.6584  -25.7413 O   0  0  0  0  0  0  0  0  0  0  0  0
   25.5603    2.8132  -26.6237 C   0  0  0  0  0  0  0  0  0  0  0  0
   25.7735    2.7131  -28.0341 C   0  0  0  0  0  0  0  0  0  0  0  0
   24.8900    4.0073  -26.4373 C   0  0  0  0  0  0  0  0  0  0  0  0
   25.2585    3.8807  -28.5849 C   0  0  0  0  0  0  0  0  0  0  0  0
   26.3521    1.7668  -28.9021 C   0  0  0  0  0  0  0  0  0  0  0  0
   24.7248    4.6668  -27.6118 O   0  0  0  0  0  0  0  0  0  0  0  0
   25.2844    4.1849  -29.9440 C   0  0  0  0  0  0  0  0  0  0  0  0
   26.3913    2.0424  -30.2765 C   0  0  0  0  0  0  0  0  0  0  0  0
   25.8677    3.2331  -30.7864 C   0  0  0  0  0  0  0  0  0  0  0  0
   32.0503    5.9729  -22.1389 O   0  0  0  0  0  0  0  0  0  0  0  0
   30.8574    6.1470  -22.3638 C   0  0  0  0  0  0  0  0  0  0  0  0
   30.3387    7.3768  -22.7319 N   0  0  0  0  0  0  0  0  0  0  0  0
   29.3893    7.4565  -22.9799 H   0  0  0  0  0  0  0  0  0  0  0  0
   31.1908    8.5427  -22.7519 C   0  0  0  0  0  0  0  0  0  0  0  0
   32.3087    8.3573  -23.7401 C   0  0  0  0  0  0  0  0  0  0  0  0
   33.6302    8.6306  -23.3796 C   0  0  0  0  0  0  0  0  0  0  0  0
   32.0605    7.8504  -25.0163 C   0  0  0  0  0  0  0  0  0  0  0  0
   34.6785    8.4222  -24.2875 C   0  0  0  0  0  0  0  0  0  0  0  0
   33.1154    7.6483  -25.9151 C   0  0  0  0  0  0  0  0  0  0  0  0
   34.4494    7.9439  -25.5845 C   0  0  0  0  0  0  0  0  0  0  0  0
   35.4641    7.7110  -26.5167 N   0  0  0  0  0  0  0  0  0  0  0  0
   35.0438    7.6382  -27.9366 C   0  0  0  0  0  0  0  0  0  0  0  0
   36.7931    8.3353  -26.3553 C   0  0  0  0  0  0  0  0  0  0  0  0
   35.1558    9.0225  -28.6240 C   0  0  0  0  0  0  0  0  0  0  0  0
   36.8905    9.6959  -27.0894 C   0  0  0  0  0  0  0  0  0  0  0  0
   36.4772    9.6837  -28.5116 N   0  0  0  0  0  0  0  0  0  0  0  0
   37.4773    9.0371  -29.3580 C   0  0  0  0  0  0  0  0  0  0  0  0
 22 23  2  0
 23 24  1  0
 23  1  1  0
 24 26  1  0
  1  2  2  0
  1  3  1  0
 26 27  1  0
  2  4  1  0
  3  5  2  0
 27 28  2  0
 27 29  1  0
  4  6  2  0
  4  7  1  0
 28 30  1  0
 29 31  2  0
  6  8  1  0
  7  9  1  0
 30 32  2  0
  8 10  1  0
  9 11  1  0
 32 33  1  0
 11 12  2  0
 11 13  1  0
 33 34  1  0
 33 35  1  0
 13 14  1  0
 13 15  2  0
 34 36  1  0
 35 37  1  0
 14 16  2  0
 14 17  1  0
 15 18  1  0
 36 38  1  0
 16 19  1  0
 17 20  2  0
 38 39  1  0
 19 21  2  0
  5  6  1  0
 31 32  1  0
  9 10  1  0
 37 38  1  0
 16 18  1  0
 20 21  1  0
 24 25  1  0
M  END
>  <Molecule Name>  (15) 
CTX-1019813

>  <SMILES>  (15) 
CN1CCN(CC1)C1=CC=C(CNC(=O)C2=NC3=C(CCN(C3)C(=O)C3=COC4=C3C=CC=C4)C=C2)C=C1

>  <Batch Name>  (15) 
CTX-1019813-1

>  <Batch Created Date>  (15) 
2021-09-17

>  <Batch ID>  (15) 
CTX-1019813-1

>  <External ID>  (15) 
P841-0172

>  <Stereochemistry>  (15) 
Achiral

>  <Amount 1>  (15) 
4.3

>  <Unit 1>  (15) 
mg

>  <CRO 1>  (15) 
Pharmaron

>  <CRO 1 Total Amount>  (15) 
19.4

>  <CRO 1 Unit>  (15) 
mg

>  <pIC50>  (15) 
5.192465

>  <SMILES_std>  (15) 
CN1CCN(c2ccc(CNC(=O)c3ccc4c(n3)CN(C(=O)c3coc5ccccc35)CC4)cc2)CC1

>  <embed_status>  (15) 
0

>  <mmff_status>  (15) 
0

>  <minimizedAffinity>  (15) 
-12.10466

>  <CNNscore>  (15) 
0.9463648200

>  <CNNaffinity>  (15) 
8.3062057495

>  <CNN_VS>  (15) 
7.8607010841

>  <CNNaffinity_variance>  (15) 
0.4260126054

>  <Docking_Rank>  (15) 
5

>  <Vina_Affinity_kcal_mol>  (15) 
-12.100

>  <CNN_pKi>  (15) 
8.306

>  <CNN_Pose_Score>  (15) 
0.9464

>  <Num_Docked_Poses>  (15) 
5

>  <MMGBSA_Rank>  (15) 
15

>  <MMGBSA_dG_kcal_mol>  (15) 
-73.154

>  <MMGBSA_VdW_kcal_mol>  (15) 
-71.252

>  <MMGBSA_Elec_kcal_mol>  (15) 
-3.679

>  <MMGBSA_PolarSolv_kcal_mol>  (15) 
10.293

>  <MMGBSA_NonPolarSolv_kcal_mol>  (15) 
-8.515

>  <MMGBSA_Status>  (15) 
S

$$$$
CTX-1020842
     RDKit          3D

 40 45  0  0  0  0  0  0  0  0999 V2000
   29.5024    4.1193  -21.7161 S   0  0  0  0  0  0  0  0  0  0  0  0
   29.3285    5.1670  -23.0682 C   0  0  0  0  0  0  0  0  0  0  0  0
   28.0773    3.2855  -22.0944 C   0  0  0  0  0  0  0  0  0  0  0  0
   28.1745    4.8670  -23.7762 C   0  0  0  0  0  0  0  0  0  0  0  0
   27.4440    3.7687  -23.2171 C   0  0  0  0  0  0  0  0  0  0  0  0
   27.5775    2.1336  -21.2954 C   0  0  0  0  0  0  0  0  0  0  0  0
   26.1576    3.2054  -23.7402 C   0  0  0  0  0  0  0  0  0  0  0  0
   26.0727    1.9539  -21.5477 C   0  0  0  0  0  0  0  0  0  0  0  0
   25.7114    2.0326  -22.9778 N   0  0  0  0  0  0  0  0  0  0  0  0
   24.6640    1.3011  -23.5662 C   0  0  0  0  0  0  0  0  0  0  0  0
   24.4032    1.4540  -24.7610 O   0  0  0  0  0  0  0  0  0  0  0  0
   23.9115    0.3754  -22.7443 C   0  0  0  0  0  0  0  0  0  0  0  0
   23.9681   -0.9616  -23.0663 O   0  0  0  0  0  0  0  0  0  0  0  0
   23.1796    0.5244  -21.5749 C   0  0  0  0  0  0  0  0  0  0  0  0
   23.2902   -1.6474  -22.1091 C   0  0  0  0  0  0  0  0  0  0  0  0
   22.7892   -0.7761  -21.1538 C   0  0  0  0  0  0  0  0  0  0  0  0
   23.1202   -3.0295  -22.0744 C   0  0  0  0  0  0  0  0  0  0  0  0
   22.0631   -1.3106  -20.0734 C   0  0  0  0  0  0  0  0  0  0  0  0
   22.3941   -3.5417  -20.9938 C   0  0  0  0  0  0  0  0  0  0  0  0
   21.8740   -2.6983  -20.0083 C   0  0  0  0  0  0  0  0  0  0  0  0
   22.8852    1.6487  -20.8766 O   0  0  0  0  0  0  0  0  0  0  0  0
   21.7341    1.5547  -20.0473 C   0  0  0  0  0  0  0  0  0  0  0  0
   30.3417    6.1920  -23.2997 C   0  0  0  0  0  0  0  0  0  0  0  0
   31.0775    6.2228  -24.2843 O   0  0  0  0  0  0  0  0  0  0  0  0
   30.4182    7.1635  -22.3188 N   0  0  0  0  0  0  0  0  0  0  0  0
   29.8902    7.0565  -21.4948 H   0  0  0  0  0  0  0  0  0  0  0  0
   31.2543    8.3320  -22.4735 C   0  0  0  0  0  0  0  0  0  0  0  0
   32.2030    8.1563  -23.6295 C   0  0  0  0  0  0  0  0  0  0  0  0
   33.5767    8.0103  -23.4199 C   0  0  0  0  0  0  0  0  0  0  0  0
   31.7308    8.1827  -24.9437 C   0  0  0  0  0  0  0  0  0  0  0  0
   34.4551    7.8745  -24.5047 C   0  0  0  0  0  0  0  0  0  0  0  0
   32.6161    8.0470  -26.0196 C   0  0  0  0  0  0  0  0  0  0  0  0
   33.9972    7.8733  -25.8305 C   0  0  0  0  0  0  0  0  0  0  0  0
   34.8451    7.7506  -26.9430 N   0  0  0  0  0  0  0  0  0  0  0  0
   36.2463    7.4000  -26.6071 C   0  0  0  0  0  0  0  0  0  0  0  0
   34.7393    8.7581  -28.0178 C   0  0  0  0  0  0  0  0  0  0  0  0
   37.0506    7.0376  -27.8803 C   0  0  0  0  0  0  0  0  0  0  0  0
   35.5761    8.3441  -29.2522 C   0  0  0  0  0  0  0  0  0  0  0  0
   36.9950    8.0258  -28.9800 N   0  0  0  0  0  0  0  0  0  0  0  0
   37.7689    9.2242  -28.6666 C   0  0  0  0  0  0  0  0  0  0  0  0
  1  2  1  0
  1  3  1  0
  2 23  1  0
  2  4  2  0
  3  5  2  0
  3  6  1  0
 23 24  2  0
 23 25  1  0
  5  7  1  0
  6  8  1  0
 25 27  1  0
  7  9  1  0
 27 28  1  0
  9 10  1  0
 28 29  2  0
 28 30  1  0
 10 11  2  0
 10 12  1  0
 29 31  1  0
 30 32  2  0
 12 13  1  0
 12 14  2  0
 31 33  2  0
 13 15  1  0
 14 21  1  0
 14 16  1  0
 33 34  1  0
 15 17  2  0
 21 22  1  0
 16 18  2  0
 34 35  1  0
 34 36  1  0
 17 19  1  0
 18 20  1  0
 35 37  1  0
 36 38  1  0
 37 39  1  0
 39 40  1  0
  4  5  1  0
  8  9  1  0
 32 33  1  0
 15 16  1  0
 19 20  2  0
 38 39  1  0
 25 26  1  0
M  END
>  <Molecule Name>  (16) 
CTX-1020842

>  <SMILES>  (16) 
COC1=C(OC2=CC=CC=C12)C(=O)N1CCC2=C(C1)C=C(S2)C(=O)NCC1=CC=C(C=C1)N1CCN(C)CC1

>  <Batch Name>  (16) 
CTX-1020842-1

>  <Batch Created Date>  (16) 
2022-01-06

>  <Batch ID>  (16) 
CTX-1020842-1

>  <External ID>  (16) 
CD-44-2-B

>  <Stereochemistry>  (16) 
Achiral

>  <Amount 1>  (16) 
1.3

>  <Unit 1>  (16) 
mg

>  <CRO 1>  (16) 
Pharmaron

>  <CRO 1 Total Amount>  (16) 
9.7

>  <CRO 1 Unit>  (16) 
mg

>  <pIC50>  (16) 
5.220404

>  <SMILES_std>  (16) 
COc1c(C(=O)N2CCc3sc(C(=O)NCc4ccc(N5CCN(C)CC5)cc4)cc3C2)oc2ccccc12

>  <embed_status>  (16) 
0

>  <mmff_status>  (16) 
0

>  <minimizedAffinity>  (16) 
-11.20920

>  <CNNscore>  (16) 
0.3121161759

>  <CNNaffinity>  (16) 
6.9666900635

>  <CNN_VS>  (16) 
2.1744165421

>  <CNNaffinity_variance>  (16) 
1.2798743248

>  <Docking_Rank>  (16) 
56

>  <Vina_Affinity_kcal_mol>  (16) 
-11.210

>  <CNN_pKi>  (16) 
6.967

>  <CNN_Pose_Score>  (16) 
0.3121

>  <Num_Docked_Poses>  (16) 
5

>  <MMGBSA_Rank>  (16) 
16

>  <MMGBSA_dG_kcal_mol>  (16) 
-72.509

>  <MMGBSA_VdW_kcal_mol>  (16) 
-71.372

>  <MMGBSA_Elec_kcal_mol>  (16) 
-6.421

>  <MMGBSA_PolarSolv_kcal_mol>  (16) 
13.444

>  <MMGBSA_NonPolarSolv_kcal_mol>  (16) 
-8.161

>  <MMGBSA_Status>  (16) 
S

$$$$
CTX-1020685
     RDKit          3D

 40 45  0  0  0  0  0  0  0  0999 V2000
   29.3776    5.3276  -22.8078 C   0  0  0  0  0  0  0  0  0  0  0  0
   29.2332    4.2634  -21.9670 N   0  0  0  0  0  0  0  0  0  0  0  0
   28.5210    5.6032  -23.8627 C   0  0  0  0  0  0  0  0  0  0  0  0
   28.1789    3.4379  -22.1882 C   0  0  0  0  0  0  0  0  0  0  0  0
   27.4523    4.7413  -24.0794 C   0  0  0  0  0  0  0  0  0  0  0  0
   27.2770    3.6330  -23.2445 C   0  0  0  0  0  0  0  0  0  0  0  0
   28.0351    2.2550  -21.2488 C   0  0  0  0  0  0  0  0  0  0  0  0
   26.1057    2.7053  -23.4425 C   0  0  0  0  0  0  0  0  0  0  0  0
   26.7901    1.5098  -21.4130 N   0  0  0  0  0  0  0  0  0  0  0  0
   26.3522    1.3438  -22.7975 C   0  0  0  0  0  0  0  0  0  0  0  0
   26.4327    0.6384  -20.3783 C   0  0  0  0  0  0  0  0  0  0  0  0
   27.2137    0.4300  -19.4474 O   0  0  0  0  0  0  0  0  0  0  0  0
   25.1193    0.0125  -20.4163 C   0  0  0  0  0  0  0  0  0  0  0  0
   24.8604   -0.9635  -21.3423 O   0  0  0  0  0  0  0  0  0  0  0  0
   23.9636    0.2894  -19.6924 C   0  0  0  0  0  0  0  0  0  0  0  0
   23.5626   -1.3344  -21.1972 C   0  0  0  0  0  0  0  0  0  0  0  0
   22.9580   -0.5949  -20.1903 C   0  0  0  0  0  0  0  0  0  0  0  0
   23.8156    1.3102  -18.6234 C   0  0  0  0  0  0  0  0  0  0  0  0
   22.9173   -2.3136  -21.9491 C   0  0  0  0  0  0  0  0  0  0  0  0
   21.6015   -0.8432  -19.9062 C   0  0  0  0  0  0  0  0  0  0  0  0
   21.5719   -2.5465  -21.6481 C   0  0  0  0  0  0  0  0  0  0  0  0
   20.9230   -1.8245  -20.6438 C   0  0  0  0  0  0  0  0  0  0  0  0
   31.6477    5.7907  -22.2527 O   0  0  0  0  0  0  0  0  0  0  0  0
   30.5403    6.2344  -22.5339 C   0  0  0  0  0  0  0  0  0  0  0  0
   30.2440    7.5754  -22.6401 N   0  0  0  0  0  0  0  0  0  0  0  0
   29.3019    7.8436  -22.7389 H   0  0  0  0  0  0  0  0  0  0  0  0
   31.2541    8.6020  -22.6128 C   0  0  0  0  0  0  0  0  0  0  0  0
   32.3180    8.3345  -23.6436 C   0  0  0  0  0  0  0  0  0  0  0  0
   31.9684    7.9790  -24.9488 C   0  0  0  0  0  0  0  0  0  0  0  0
   33.6722    8.4672  -23.3330 C   0  0  0  0  0  0  0  0  0  0  0  0
   32.9542    7.7512  -25.9193 C   0  0  0  0  0  0  0  0  0  0  0  0
   34.6485    8.2396  -24.3113 C   0  0  0  0  0  0  0  0  0  0  0  0
   34.3185    7.8910  -25.6328 C   0  0  0  0  0  0  0  0  0  0  0  0
   35.3353    7.6671  -26.5661 N   0  0  0  0  0  0  0  0  0  0  0  0
   36.6207    8.3559  -26.3033 C   0  0  0  0  0  0  0  0  0  0  0  0
   35.0207    7.5827  -28.0069 C   0  0  0  0  0  0  0  0  0  0  0  0
   36.6769    9.7221  -27.0283 C   0  0  0  0  0  0  0  0  0  0  0  0
   35.1399    8.9575  -28.7069 C   0  0  0  0  0  0  0  0  0  0  0  0
   36.4425    9.6235  -28.4865 N   0  0  0  0  0  0  0  0  0  0  0  0
   37.1867    9.0760  -28.9187 H   0  0  0  0  0  0  0  0  0  0  0  0
 23 24  2  0
 24 25  1  0
 24  1  1  0
 25 27  1  0
  1  2  2  0
  1  3  1  0
 27 28  1  0
  2  4  1  0
  3  5  2  0
 28 29  2  0
 28 30  1  0
  4  6  2  0
  4  7  1  0
 29 31  1  0
 30 32  2  0
  6  8  1  0
  7  9  1  0
 31 33  2  0
  8 10  1  0
  9 11  1  0
 33 34  1  0
 11 12  2  0
 11 13  1  0
 34 35  1  0
 34 36  1  0
 13 14  1  0
 13 15  2  0
 35 37  1  0
 36 38  1  0
 14 16  1  0
 15 17  1  0
 15 18  1  0
 37 39  1  0
 16 19  2  0
 17 20  2  0
 19 21  1  0
 20 22  1  0
  5  6  1  0
 32 33  1  0
  9 10  1  0
 38 39  1  0
 16 17  1  0
 21 22  2  0
 25 26  1  0
 39 40  1  0
M  END
>  <Molecule Name>  (17) 
CTX-1020685

>  <SMILES>  (17) 
CC1=C(OC2=C1C=CC=C2)C(=O)N1CCC2=CC=C(N=C2C1)C(=O)NCC1=CC=C(C=C1)N1CCNCC1

>  <Batch Name>  (17) 
CTX-1020685-1

>  <Batch Created Date>  (17) 
2021-12-03

>  <Batch ID>  (17) 
CTX-1020685-1

>  <External ID>  (17) 
CD-42-H

>  <Stereochemistry>  (17) 
Achiral

>  <Amount 1>  (17) 
4.9

>  <Unit 1>  (17) 
mg

>  <CRO 1>  (17) 
Pharmaron

>  <CRO 1 Total Amount>  (17) 
16.4

>  <CRO 1 Unit>  (17) 
mg

>  <pIC50>  (17) 
4.274088

>  <SMILES_std>  (17) 
Cc1c(C(=O)N2CCc3ccc(C(=O)NCc4ccc(N5CCNCC5)cc4)nc3C2)oc2ccccc12

>  <embed_status>  (17) 
0

>  <mmff_status>  (17) 
0

>  <minimizedAffinity>  (17) 
-12.45147

>  <CNNscore>  (17) 
0.3611912727

>  <CNNaffinity>  (17) 
7.4487671852

>  <CNN_VS>  (17) 
2.6904296875

>  <CNNaffinity_variance>  (17) 
0.5051712394

>  <Docking_Rank>  (17) 
24

>  <Vina_Affinity_kcal_mol>  (17) 
-12.450

>  <CNN_pKi>  (17) 
7.449

>  <CNN_Pose_Score>  (17) 
0.3612

>  <Num_Docked_Poses>  (17) 
5

>  <MMGBSA_Rank>  (17) 
17

>  <MMGBSA_dG_kcal_mol>  (17) 
-71.348

>  <MMGBSA_VdW_kcal_mol>  (17) 
-70.088

>  <MMGBSA_Elec_kcal_mol>  (17) 
-3.322

>  <MMGBSA_PolarSolv_kcal_mol>  (17) 
9.856

>  <MMGBSA_NonPolarSolv_kcal_mol>  (17) 
-7.795

>  <MMGBSA_Status>  (17) 
S

$$$$
CTX-1020440
     RDKit          3D

 38 43  0  0  0  0  0  0  0  0999 V2000
   30.2555    4.2784  -20.8224 S   0  0  0  0  0  0  0  0  0  0  0  0
   30.2988    5.2110  -22.2663 C   0  0  0  0  0  0  0  0  0  0  0  0
   28.8939    3.4139  -21.3411 C   0  0  0  0  0  0  0  0  0  0  0  0
   29.2782    4.8344  -23.1266 C   0  0  0  0  0  0  0  0  0  0  0  0
   28.4535    3.7929  -22.5927 C   0  0  0  0  0  0  0  0  0  0  0  0
   28.2365    2.3639  -20.5055 C   0  0  0  0  0  0  0  0  0  0  0  0
   27.2774    3.1526  -23.2716 C   0  0  0  0  0  0  0  0  0  0  0  0
   27.3303    1.5062  -21.4019 C   0  0  0  0  0  0  0  0  0  0  0  0
   26.5190    2.3356  -22.3172 N   0  0  0  0  0  0  0  0  0  0  0  0
   25.2490    1.9444  -22.7444 C   0  0  0  0  0  0  0  0  0  0  0  0
   24.8607    2.1474  -23.8928 O   0  0  0  0  0  0  0  0  0  0  0  0
   24.3671    1.3222  -21.7747 C   0  0  0  0  0  0  0  0  0  0  0  0
   23.6470    0.1589  -21.9496 C   0  0  0  0  0  0  0  0  0  0  0  0
   23.9557    1.7615  -20.4969 C   0  0  0  0  0  0  0  0  0  0  0  0
   22.9143   -0.0617  -20.8056 N   0  0  0  0  0  0  0  0  0  0  0  0
   23.5339   -0.7913  -23.0209 C   0  0  0  0  0  0  0  0  0  0  0  0
   23.1122    0.9202  -19.8945 N   0  0  0  0  0  0  0  0  0  0  0  0
   22.1124   -1.1858  -20.7170 C   0  0  0  0  0  0  0  0  0  0  0  0
   22.7782   -1.8512  -22.9268 N   0  0  0  0  0  0  0  0  0  0  0  0
   22.0672   -2.0333  -21.7562 C   0  0  0  0  0  0  0  0  0  0  0  0
   31.3411    6.2215  -22.4204 C   0  0  0  0  0  0  0  0  0  0  0  0
   32.5298    6.0266  -22.1744 O   0  0  0  0  0  0  0  0  0  0  0  0
   30.8935    7.4526  -22.8629 N   0  0  0  0  0  0  0  0  0  0  0  0
   29.9572    7.5479  -23.1520 H   0  0  0  0  0  0  0  0  0  0  0  0
   31.7673    8.6029  -22.9111 C   0  0  0  0  0  0  0  0  0  0  0  0
   32.7716    8.4587  -24.0232 C   0  0  0  0  0  0  0  0  0  0  0  0
   32.3940    7.9828  -25.2800 C   0  0  0  0  0  0  0  0  0  0  0  0
   34.1019    8.8363  -23.8310 C   0  0  0  0  0  0  0  0  0  0  0  0
   33.3354    7.8789  -26.3142 C   0  0  0  0  0  0  0  0  0  0  0  0
   35.0330    8.7274  -24.8730 C   0  0  0  0  0  0  0  0  0  0  0  0
   34.6795    8.2477  -26.1435 C   0  0  0  0  0  0  0  0  0  0  0  0
   35.6019    8.1376  -27.1700 N   0  0  0  0  0  0  0  0  0  0  0  0
   37.0376    7.9495  -26.9025 C   0  0  0  0  0  0  0  0  0  0  0  0
   35.1911    8.1021  -28.5839 C   0  0  0  0  0  0  0  0  0  0  0  0
   37.7301    7.1850  -28.0563 C   0  0  0  0  0  0  0  0  0  0  0  0
   36.3427    8.5862  -29.4955 C   0  0  0  0  0  0  0  0  0  0  0  0
   37.5740    7.7714  -29.4036 N   0  0  0  0  0  0  0  0  0  0  0  0
   38.7400    8.5590  -29.7933 C   0  0  0  0  0  0  0  0  0  0  0  0
  1  2  1  0
  1  3  1  0
  2 21  1  0
  2  4  2  0
  3  5  2  0
  3  6  1  0
 21 22  2  0
 21 23  1  0
  5  7  1  0
  6  8  1  0
 23 25  1  0
  7  9  1  0
 25 26  1  0
  9 10  1  0
 26 27  2  0
 26 28  1  0
 10 11  2  0
 10 12  1  0
 27 29  1  0
 28 30  2  0
 12 13  2  0
 12 14  1  0
 29 31  2  0
 13 15  1  0
 13 16  1  0
 14 17  2  0
 31 32  1  0
 15 18  1  0
 16 19  2  0
 32 33  1  0
 32 34  1  0
 18 20  2  0
 33 35  1  0
 34 36  1  0
 35 37  1  0
 37 38  1  0
  4  5  1  0
  8  9  1  0
 30 31  1  0
 15 17  1  0
 19 20  1  0
 36 37  1  0
 23 24  1  0
M  END
>  <Molecule Name>  (18) 
CTX-1020440

>  <SMILES>  (18) 
CN1CCN(CC1)C1=CC=C(CNC(=O)C2=CC3=C(CCN(C3)C(=O)C3=C4C=NC=CN4N=C3)S2)C=C1

>  <Batch Name>  (18) 
CTX-1020440-1

>  <Batch Created Date>  (18) 
2021-10-21

>  <Batch ID>  (18) 
CTX-1020440-1

>  <External ID>  (18) 
610EDL021-E

>  <Stereochemistry>  (18) 
Achiral

>  <Amount 1>  (18) 
5.0

>  <Unit 1>  (18) 
mg

>  <CRO 1>  (18) 
Pharmaron

>  <CRO 1 Total Amount>  (18) 
6.9

>  <CRO 1 Unit>  (18) 
mg

>  <pIC50>  (18) 
5.216096

>  <SMILES_std>  (18) 
CN1CCN(c2ccc(CNC(=O)c3cc4c(s3)CCN(C(=O)c3cnn5ccncc35)C4)cc2)CC1

>  <embed_status>  (18) 
0

>  <mmff_status>  (18) 
0

>  <minimizedAffinity>  (18) 
-10.33400

>  <CNNscore>  (18) 
0.3029244840

>  <CNNaffinity>  (18) 
7.1839962006

>  <CNN_VS>  (18) 
2.1762082577

>  <CNNaffinity_variance>  (18) 
0.9159250259

>  <Docking_Rank>  (18) 
43

>  <Vina_Affinity_kcal_mol>  (18) 
-10.330

>  <CNN_pKi>  (18) 
7.184

>  <CNN_Pose_Score>  (18) 
0.3029

>  <Num_Docked_Poses>  (18) 
5

>  <MMGBSA_Rank>  (18) 
18

>  <MMGBSA_dG_kcal_mol>  (18) 
-70.464

>  <MMGBSA_VdW_kcal_mol>  (18) 
-68.770

>  <MMGBSA_Elec_kcal_mol>  (18) 
-6.648

>  <MMGBSA_PolarSolv_kcal_mol>  (18) 
12.649

>  <MMGBSA_NonPolarSolv_kcal_mol>  (18) 
-7.695

>  <MMGBSA_Status>  (18) 
S

$$$$
CTX-1020697
     RDKit          3D

 40 45  0  0  0  0  0  0  0  0999 V2000
   29.1542    5.0621  -22.8827 C   0  0  0  0  0  0  0  0  0  0  0  0
   28.9739    4.0416  -21.9955 N   0  0  0  0  0  0  0  0  0  0  0  0
   28.3208    5.3047  -23.9661 C   0  0  0  0  0  0  0  0  0  0  0  0
   27.9014    3.2379  -22.1964 C   0  0  0  0  0  0  0  0  0  0  0  0
   27.2307    4.4631  -24.1565 C   0  0  0  0  0  0  0  0  0  0  0  0
   27.0083    3.4204  -23.2562 C   0  0  0  0  0  0  0  0  0  0  0  0
   27.7175    2.0556  -21.2686 C   0  0  0  0  0  0  0  0  0  0  0  0
   25.8626    2.4634  -23.4025 C   0  0  0  0  0  0  0  0  0  0  0  0
   26.3338    1.6049  -21.0921 N   0  0  0  0  0  0  0  0  0  0  0  0
   25.3099    2.0845  -22.0262 C   0  0  0  0  0  0  0  0  0  0  0  0
   26.0952    0.7232  -20.0292 C   0  0  0  0  0  0  0  0  0  0  0  0
   27.0511    0.2109  -19.4405 O   0  0  0  0  0  0  0  0  0  0  0  0
   24.7245    0.4173  -19.6371 C   0  0  0  0  0  0  0  0  0  0  0  0
   24.0397   -0.5955  -20.2538 O   0  0  0  0  0  0  0  0  0  0  0  0
   23.8870    1.0562  -18.7258 C   0  0  0  0  0  0  0  0  0  0  0  0
   22.7879   -0.6286  -19.7310 C   0  0  0  0  0  0  0  0  0  0  0  0
   22.6354    0.3694  -18.7795 C   0  0  0  0  0  0  0  0  0  0  0  0
   24.2348    2.2243  -17.8758 C   0  0  0  0  0  0  0  0  0  0  0  0
   21.7886   -1.5291  -20.0931 C   0  0  0  0  0  0  0  0  0  0  0  0
   21.3898    0.4879  -18.1339 C   0  0  0  0  0  0  0  0  0  0  0  0
   20.5606   -1.3957  -19.4378 C   0  0  0  0  0  0  0  0  0  0  0  0
   20.3625   -0.4045  -18.4741 C   0  0  0  0  0  0  0  0  0  0  0  0
   31.3359    5.5349  -22.0517 O   0  0  0  0  0  0  0  0  0  0  0  0
   30.3442    5.9432  -22.6450 C   0  0  0  0  0  0  0  0  0  0  0  0
   30.2045    7.2212  -23.1388 N   0  0  0  0  0  0  0  0  0  0  0  0
   29.4266    7.4236  -23.7072 H   0  0  0  0  0  0  0  0  0  0  0  0
   31.1465    8.2746  -22.8603 C   0  0  0  0  0  0  0  0  0  0  0  0
   32.3152    8.2141  -23.8085 C   0  0  0  0  0  0  0  0  0  0  0  0
   33.5796    8.6557  -23.4005 C   0  0  0  0  0  0  0  0  0  0  0  0
   32.1527    7.7552  -25.1206 C   0  0  0  0  0  0  0  0  0  0  0  0
   34.6640    8.6233  -24.2811 C   0  0  0  0  0  0  0  0  0  0  0  0
   33.2382    7.7225  -26.0007 C   0  0  0  0  0  0  0  0  0  0  0  0
   34.5090    8.1542  -25.5929 C   0  0  0  0  0  0  0  0  0  0  0  0
   35.6700    8.1163  -26.5727 C   0  0  0  0  0  0  0  0  0  0  0  0
   35.2488    7.6639  -27.9853 C   0  0  0  0  0  0  0  0  0  0  0  0
   36.4451    9.4451  -26.6005 C   0  0  0  0  0  0  0  0  0  0  0  0
   35.2288    8.8197  -28.9850 C   0  0  0  0  0  0  0  0  0  0  0  0
   37.3076    9.5212  -27.8579 C   0  0  0  0  0  0  0  0  0  0  0  0
   36.4994    9.5487  -29.0843 N   0  0  0  0  0  0  0  0  0  0  0  0
   37.2901    9.1286  -30.2381 C   0  0  0  0  0  0  0  0  0  0  0  0
 23 24  2  0
 24 25  1  0
 24  1  1  0
 25 27  1  0
  1  2  2  0
  1  3  1  0
 27 28  1  0
  2  4  1  0
  3  5  2  0
 28 29  2  0
 28 30  1  0
  4  6  2  0
  4  7  1  0
 29 31  1  0
 30 32  2  0
  6  8  1  0
  7  9  1  0
 31 33  2  0
  8 10  1  0
  9 11  1  0
 33 34  1  0
 11 12  2  0
 11 13  1  0
 34 35  1  0
 34 36  1  0
 13 14  1  0
 13 15  2  0
 35 37  1  0
 36 38  1  0
 14 16  1  0
 15 17  1  0
 15 18  1  0
 37 39  1  0
 16 19  2  0
 17 20  2  0
 39 40  1  0
 19 21  1  0
 20 22  1  0
  5  6  1  0
 32 33  1  0
  9 10  1  0
 38 39  1  0
 16 17  1  0
 21 22  2  0
 25 26  1  0
M  END
>  <Molecule Name>  (19) 
CTX-1020697

>  <SMILES>  (19) 
CN1CCC(CC1)C1=CC=C(CNC(=O)C2=CC=C3CCN(CC3=N2)C(=O)C2=C(C)C3=C(O2)C=CC=C3)C=C1

>  <Batch Name>  (19) 
CTX-1020697-1

>  <Batch Created Date>  (19) 
2021-12-09

>  <Batch ID>  (19) 
CTX-1020697-1

>  <External ID>  (19) 
CD-42-C

>  <Stereochemistry>  (19) 
Achiral

>  <Amount 1>  (19) 
2.1

>  <Unit 1>  (19) 
mg

>  <CRO 1>  (19) 
Pharmaron

>  <CRO 1 Total Amount>  (19) 
17.1

>  <CRO 1 Unit>  (19) 
mg

>  <pIC50>  (19) 
5.412289

>  <SMILES_std>  (19) 
Cc1c(C(=O)N2CCc3ccc(C(=O)NCc4ccc(C5CCN(C)CC5)cc4)nc3C2)oc2ccccc12

>  <embed_status>  (19) 
0

>  <mmff_status>  (19) 
0

>  <minimizedAffinity>  (19) 
-12.88532

>  <CNNscore>  (19) 
0.3318890035

>  <CNNaffinity>  (19) 
7.2903161049

>  <CNN_VS>  (19) 
2.4195756912

>  <CNNaffinity_variance>  (19) 
0.5940531492

>  <Docking_Rank>  (19) 
35

>  <Vina_Affinity_kcal_mol>  (19) 
-12.890

>  <CNN_pKi>  (19) 
7.290

>  <CNN_Pose_Score>  (19) 
0.3319

>  <Num_Docked_Poses>  (19) 
5

>  <MMGBSA_Rank>  (19) 
19

>  <MMGBSA_dG_kcal_mol>  (19) 
-69.611

>  <MMGBSA_VdW_kcal_mol>  (19) 
-68.919

>  <MMGBSA_Elec_kcal_mol>  (19) 
-1.693

>  <MMGBSA_PolarSolv_kcal_mol>  (19) 
8.688

>  <MMGBSA_NonPolarSolv_kcal_mol>  (19) 
-7.687

>  <MMGBSA_Status>  (19) 
S

$$$$
CTX-1020562
     RDKit          3D

 44 49  0  0  0  0  0  0  0  0999 V2000
   30.2468    6.9313  -22.8304 N   0  0  0  0  0  0  0  0  0  0  0  0
   30.3541    5.5902  -22.5362 C   0  0  0  0  0  0  0  0  0  0  0  0
   31.3847    5.0450  -22.1579 O   0  0  0  0  0  0  0  0  0  0  0  0
   29.4123    7.2581  -23.2381 H   0  0  0  0  0  0  0  0  0  0  0  0
   29.0768    4.8227  -22.7054 C   0  0  0  0  0  0  0  0  0  0  0  0
   28.8601    3.8115  -21.8165 N   0  0  0  0  0  0  0  0  0  0  0  0
   28.2004    5.1576  -23.7264 C   0  0  0  0  0  0  0  0  0  0  0  0
   27.7101    3.1036  -21.9513 C   0  0  0  0  0  0  0  0  0  0  0  0
   27.0314    4.4166  -23.8538 C   0  0  0  0  0  0  0  0  0  0  0  0
   26.7793    3.3642  -22.9679 C   0  0  0  0  0  0  0  0  0  0  0  0
   27.4873    1.9760  -20.9606 C   0  0  0  0  0  0  0  0  0  0  0  0
   25.5033    2.5683  -23.0708 C   0  0  0  0  0  0  0  0  0  0  0  0
   26.1586    1.3742  -21.0314 N   0  0  0  0  0  0  0  0  0  0  0  0
   25.6310    1.2105  -22.3845 C   0  0  0  0  0  0  0  0  0  0  0  0
   25.7592    0.5899  -19.9439 C   0  0  0  0  0  0  0  0  0  0  0  0
   26.5586    0.3290  -19.0424 O   0  0  0  0  0  0  0  0  0  0  0  0
   24.3832    0.1184  -19.8923 C   0  0  0  0  0  0  0  0  0  0  0  0
   23.5265    0.6296  -18.9531 O   0  0  0  0  0  0  0  0  0  0  0  0
   23.7425   -0.8838  -20.6145 C   0  0  0  0  0  0  0  0  0  0  0  0
   22.3379   -0.0123  -19.0881 C   0  0  0  0  0  0  0  0  0  0  0  0
   22.4112   -0.9579  -20.1012 C   0  0  0  0  0  0  0  0  0  0  0  0
   24.3383   -1.7106  -21.6952 C   0  0  0  0  0  0  0  0  0  0  0  0
   21.2006    0.2318  -18.3215 C   0  0  0  0  0  0  0  0  0  0  0  0
   21.2648   -1.7277  -20.3765 C   0  0  0  0  0  0  0  0  0  0  0  0
   20.0727   -0.5411  -18.6138 C   0  0  0  0  0  0  0  0  0  0  0  0
   20.1023   -1.5052  -19.6240 C   0  0  0  0  0  0  0  0  0  0  0  0
   31.3009    7.8767  -22.5682 C   0  0  0  0  0  0  0  0  0  0  0  0
   34.0523    8.0476  -25.9355 C   0  0  0  0  0  0  0  0  0  0  0  0
   34.4785    8.3265  -24.6264 C   0  0  0  0  0  0  0  0  0  0  0  0
   32.7033    7.7155  -26.1109 C   0  0  0  0  0  0  0  0  0  0  0  0
   33.6001    8.2774  -23.5379 C   0  0  0  0  0  0  0  0  0  0  0  0
   31.8167    7.6663  -25.0273 C   0  0  0  0  0  0  0  0  0  0  0  0
   32.2546    7.9551  -23.7309 C   0  0  0  0  0  0  0  0  0  0  0  0
   37.8428    8.8955  -27.5207 N   0  0  0  0  0  0  0  0  0  0  0  0
   36.7778    9.8479  -27.1232 C   0  0  0  0  0  0  0  0  0  0  0  0
   37.2918    7.5367  -27.7429 C   0  0  0  0  0  0  0  0  0  0  0  0
   35.3498    9.4353  -27.5426 C   0  0  0  0  0  0  0  0  0  0  0  0
   36.1156    7.1812  -26.8034 C   0  0  0  0  0  0  0  0  0  0  0  0
   34.9796    8.1201  -26.9848 N   0  0  0  0  0  0  0  0  0  0  0  0
   38.6029    9.3794  -28.7029 C   0  0  0  0  0  0  0  0  0  0  0  0
   36.8026    9.1984  -30.2848 F   0  0  0  0  0  0  0  0  0  0  0  0
   38.1201    8.9614  -30.1080 C   0  0  0  0  0  0  0  0  0  0  0  0
   38.3229    7.6348  -30.2951 F   0  0  0  0  0  0  0  0  0  0  0  0
   38.7970    9.6086  -31.0839 F   0  0  0  0  0  0  0  0  0  0  0  0
 41 42  1  0
 42 43  1  0
 42 44  1  0
 42 40  1  0
 40 34  1  0
 34 35  1  0
 34 36  1  0
 35 37  1  0
 36 38  1  0
 37 39  1  0
 39 28  1  0
 28 29  2  0
 28 30  1  0
 29 31  1  0
 30 32  2  0
 31 33  2  0
 33 27  1  0
 27  1  1  0
  1  2  1  0
  2  3  2  0
  2  5  1  0
  5  6  2  0
  5  7  1  0
  6  8  1  0
  7  9  2  0
  8 10  2  0
  8 11  1  0
 10 12  1  0
 11 13  1  0
 12 14  1  0
 13 15  1  0
 15 16  2  0
 15 17  1  0
 17 18  1  0
 17 19  2  0
 18 20  1  0
 19 21  1  0
 19 22  1  0
 20 23  2  0
 21 24  2  0
 23 25  1  0
 24 26  1  0
 38 39  1  0
 32 33  1  0
  9 10  1  0
 13 14  1  0
 20 21  1  0
 25 26  2  0
  1  4  1  0
M  END
>  <Molecule Name>  (20) 
CTX-1020562

>  <SMILES>  (20) 
CC1=C(OC2=C1C=CC=C2)C(=O)N1CCC2=C(C1)N=C(C=C2)C(=O)NCC1=CC=C(C=C1)N1CCN(CC(F)(F)F)CC1

>  <Batch Name>  (20) 
CTX-1020562-1

>  <Batch Created Date>  (20) 
2021-11-18

>  <Batch ID>  (20) 
CTX-1020562-1

>  <External ID>  (20) 
P841-0237

>  <Stereochemistry>  (20) 
Achiral

>  <Amount 1>  (20) 
3.95

>  <Unit 1>  (20) 
mg

>  <CRO 1>  (20) 
Pharmaron

>  <CRO 1 Total Amount>  (20) 
40.2

>  <CRO 1 Unit>  (20) 
mg

>  <pIC50>  (20) 
5.66354

>  <SMILES_std>  (20) 
Cc1c(C(=O)N2CCc3ccc(C(=O)NCc4ccc(N5CCN(CC(F)(F)F)CC5)cc4)nc3C2)oc2ccccc12

>  <embed_status>  (20) 
0

>  <mmff_status>  (20) 
0

>  <minimizedAffinity>  (20) 
-11.49542

>  <CNNscore>  (20) 
0.4492048621

>  <CNNaffinity>  (20) 
7.6270651817

>  <CNN_VS>  (20) 
3.4261147976

>  <CNNaffinity_variance>  (20) 
0.7591821551

>  <Docking_Rank>  (20) 
15

>  <Vina_Affinity_kcal_mol>  (20) 
-11.500

>  <CNN_pKi>  (20) 
7.627

>  <CNN_Pose_Score>  (20) 
0.4492

>  <Num_Docked_Poses>  (20) 
5

>  <MMGBSA_Rank>  (20) 
20

>  <MMGBSA_dG_kcal_mol>  (20) 
-68.508

>  <MMGBSA_VdW_kcal_mol>  (20) 
-67.653

>  <MMGBSA_Elec_kcal_mol>  (20) 
-2.789

>  <MMGBSA_PolarSolv_kcal_mol>  (20) 
10.010

>  <MMGBSA_NonPolarSolv_kcal_mol>  (20) 
-8.076

>  <MMGBSA_Status>  (20) 
S

$$$$
CTX-1019630
     RDKit          3D

 36 40  0  0  0  0  0  0  0  0999 V2000
   31.7481    5.5590  -22.1503 O   0  0  0  0  0  0  0  0  0  0  0  0
   30.6801    6.0833  -22.4455 C   0  0  0  0  0  0  0  0  0  0  0  0
   30.4878    7.4420  -22.5639 N   0  0  0  0  0  0  0  0  0  0  0  0
   29.5706    7.7792  -22.6834 H   0  0  0  0  0  0  0  0  0  0  0  0
   29.4544    5.2649  -22.7229 C   0  0  0  0  0  0  0  0  0  0  0  0
   29.2428    4.1990  -21.8990 N   0  0  0  0  0  0  0  0  0  0  0  0
   28.6114    5.6163  -23.7661 C   0  0  0  0  0  0  0  0  0  0  0  0
   28.1329    3.4515  -22.1250 C   0  0  0  0  0  0  0  0  0  0  0  0
   27.4841    4.8339  -23.9875 C   0  0  0  0  0  0  0  0  0  0  0  0
   27.2390    3.7262  -23.1695 C   0  0  0  0  0  0  0  0  0  0  0  0
   27.9193    2.2602  -21.2110 C   0  0  0  0  0  0  0  0  0  0  0  0
   26.0041    2.8874  -23.3703 C   0  0  0  0  0  0  0  0  0  0  0  0
   26.6169    1.6145  -21.3594 N   0  0  0  0  0  0  0  0  0  0  0  0
   26.1464    1.5043  -22.7390 C   0  0  0  0  0  0  0  0  0  0  0  0
   26.2812    0.6763  -20.3795 C   0  0  0  0  0  0  0  0  0  0  0  0
   27.1015    0.3337  -19.5285 O   0  0  0  0  0  0  0  0  0  0  0  0
   24.9256    0.1483  -20.3843 C   0  0  0  0  0  0  0  0  0  0  0  0
   23.9061    0.5981  -19.5656 N   0  0  0  0  0  0  0  0  0  0  0  0
   24.3540   -0.8027  -21.2220 C   0  0  0  0  0  0  0  0  0  0  0  0
   22.7493   -0.0905  -19.8283 C   0  0  0  0  0  0  0  0  0  0  0  0
   24.0287    1.6315  -18.5583 C   0  0  0  0  0  0  0  0  0  0  0  0
   22.9976   -0.9643  -20.8597 C   0  0  0  0  0  0  0  0  0  0  0  0
   31.5705    8.3907  -22.5205 C   0  0  0  0  0  0  0  0  0  0  0  0
   32.4630    8.2461  -23.7244 C   0  0  0  0  0  0  0  0  0  0  0  0
   31.9372    7.8321  -24.9516 C   0  0  0  0  0  0  0  0  0  0  0  0
   33.8204    8.5665  -23.6576 C   0  0  0  0  0  0  0  0  0  0  0  0
   32.7580    7.7184  -26.0818 C   0  0  0  0  0  0  0  0  0  0  0  0
   34.6332    8.4469  -24.7917 C   0  0  0  0  0  0  0  0  0  0  0  0
   34.1290    8.0059  -26.0270 C   0  0  0  0  0  0  0  0  0  0  0  0
   34.9872    7.9127  -27.1353 N   0  0  0  0  0  0  0  0  0  0  0  0
   34.7769    8.9688  -28.1537 C   0  0  0  0  0  0  0  0  0  0  0  0
   36.4135    7.6215  -26.8862 C   0  0  0  0  0  0  0  0  0  0  0  0
   35.5797    8.6644  -29.4432 C   0  0  0  0  0  0  0  0  0  0  0  0
   37.1605    7.3402  -28.2124 C   0  0  0  0  0  0  0  0  0  0  0  0
   37.0199    8.3824  -29.2541 N   0  0  0  0  0  0  0  0  0  0  0  0
   37.7647    9.5918  -28.9129 C   0  0  0  0  0  0  0  0  0  0  0  0
  1  2  2  0
  2  3  1  0
  2  5  1  0
  3 23  1  0
  5  6  2  0
  5  7  1  0
 23 24  1  0
  6  8  1  0
  7  9  2  0
 24 25  2  0
 24 26  1  0
  8 10  2  0
  8 11  1  0
 25 27  1  0
 26 28  2  0
 10 12  1  0
 11 13  1  0
 27 29  2  0
 12 14  1  0
 13 15  1  0
 29 30  1  0
 15 16  2  0
 15 17  1  0
 30 31  1  0
 30 32  1  0
 17 18  1  0
 17 19  2  0
 31 33  1  0
 32 34  1  0
 18 20  1  0
 18 21  1  0
 19 22  1  0
 33 35  1  0
 35 36  1  0
  9 10  1  0
 28 29  1  0
 13 14  1  0
 34 35  1  0
 20 22  2  0
  3  4  1  0
M  END
>  <Molecule Name>  (21) 
CTX-1019630

>  <SMILES>  (21) 
CN1C=CC=C1C(=O)N1CCC2=C(C1)N=C(C=C2)C(=O)NCC1=CC=C(C=C1)N1CCN(C)CC1

>  <Batch Name>  (21) 
CTX-1019630-1

>  <Batch Created Date>  (21) 
2021-08-19

>  <Batch ID>  (21) 
CTX-1019630-1

>  <External ID>  (21) 
P841-0145

>  <Stereochemistry>  (21) 
Achiral

>  <Amount 1>  (21) 
4.4

>  <Unit 1>  (21) 
mg

>  <CRO 1>  (21) 
Pharmaron

>  <CRO 1 Total Amount>  (21) 
15.27

>  <CRO 1 Unit>  (21) 
mg

>  <pIC50>  (21) 
5.055517

>  <SMILES_std>  (21) 
CN1CCN(c2ccc(CNC(=O)c3ccc4c(n3)CN(C(=O)c3cccn3C)CC4)cc2)CC1

>  <embed_status>  (21) 
0

>  <mmff_status>  (21) 
0

>  <minimizedAffinity>  (21) 
-11.85542

>  <CNNscore>  (21) 
0.5753894448

>  <CNNaffinity>  (21) 
7.3945879936

>  <CNN_VS>  (21) 
4.2547678947

>  <CNNaffinity_variance>  (21) 
0.4324757755

>  <Docking_Rank>  (21) 
31

>  <Vina_Affinity_kcal_mol>  (21) 
-11.860

>  <CNN_pKi>  (21) 
7.395

>  <CNN_Pose_Score>  (21) 
0.5754

>  <Num_Docked_Poses>  (21) 
5

>  <MMGBSA_Rank>  (21) 
21

>  <MMGBSA_dG_kcal_mol>  (21) 
-68.142

>  <MMGBSA_VdW_kcal_mol>  (21) 
-66.736

>  <MMGBSA_Elec_kcal_mol>  (21) 
-3.611

>  <MMGBSA_PolarSolv_kcal_mol>  (21) 
9.543

>  <MMGBSA_NonPolarSolv_kcal_mol>  (21) 
-7.338

>  <MMGBSA_Status>  (21) 
S

$$$$
CTX-1020669
     RDKit          3D

 39 44  0  0  0  0  0  0  0  0999 V2000
   26.0215    2.3296  -24.7618 C   0  0  0  0  0  0  0  0  0  0  0  0
   26.9101    2.7769  -24.0379 O   0  0  0  0  0  0  0  0  0  0  0  0
   24.9676    1.5738  -24.2330 N   0  0  0  0  0  0  0  0  0  0  0  0
   24.9786    1.3852  -22.7773 C   0  0  0  0  0  0  0  0  0  0  0  0
   23.6745    1.3840  -24.9200 C   0  0  0  0  0  0  0  0  0  0  0  0
   24.0779    0.2528  -22.3773 C   0  0  0  0  0  0  0  0  0  0  0  0
   23.1096   -0.0278  -24.7028 C   0  0  0  0  0  0  0  0  0  0  0  0
   23.2208   -0.3779  -23.2559 C   0  0  0  0  0  0  0  0  0  0  0  0
   23.9633   -0.3127  -21.0695 C   0  0  0  0  0  0  0  0  0  0  0  0
   22.3160   -1.6174  -22.5350 S   0  0  0  0  0  0  0  0  0  0  0  0
   23.0401   -1.3434  -21.0035 C   0  0  0  0  0  0  0  0  0  0  0  0
   27.1866    0.1792  -26.9182 Cl  0  0  0  0  0  0  0  0  0  0  0  0
   26.4680    1.7167  -27.1855 C   0  0  0  0  0  0  0  0  0  0  0  0
   26.0326    2.5581  -26.1888 C   0  0  0  0  0  0  0  0  0  0  0  0
   26.2879    2.2711  -28.5021 C   0  0  0  0  0  0  0  0  0  0  0  0
   25.3638    3.9970  -26.8100 S   0  0  0  0  0  0  0  0  0  0  0  0
   25.6882    3.5334  -28.4363 C   0  0  0  0  0  0  0  0  0  0  0  0
   26.6075    1.7596  -29.7875 C   0  0  0  0  0  0  0  0  0  0  0  0
   25.4065    4.2816  -29.5968 C   0  0  0  0  0  0  0  0  0  0  0  0
   26.3306    2.4995  -30.9410 C   0  0  0  0  0  0  0  0  0  0  0  0
   25.7359    3.7485  -30.8441 C   0  0  0  0  0  0  0  0  0  0  0  0
   22.6889   -2.1194  -19.8193 C   0  0  0  0  0  0  0  0  0  0  0  0
   23.1725   -1.8909  -18.7123 O   0  0  0  0  0  0  0  0  0  0  0  0
   21.7705   -3.1282  -20.0145 N   0  0  0  0  0  0  0  0  0  0  0  0
   21.4986   -3.3500  -20.9344 H   0  0  0  0  0  0  0  0  0  0  0  0
   21.1927   -3.8713  -18.9217 C   0  0  0  0  0  0  0  0  0  0  0  0
   20.2283   -3.0124  -18.1479 C   0  0  0  0  0  0  0  0  0  0  0  0
   18.9134   -2.8455  -18.5930 C   0  0  0  0  0  0  0  0  0  0  0  0
   20.6083   -2.4011  -16.9511 C   0  0  0  0  0  0  0  0  0  0  0  0
   18.0018   -2.0721  -17.8620 C   0  0  0  0  0  0  0  0  0  0  0  0
   19.6913   -1.6273  -16.2300 C   0  0  0  0  0  0  0  0  0  0  0  0
   18.3686   -1.4414  -16.6666 C   0  0  0  0  0  0  0  0  0  0  0  0
   17.4966   -0.6561  -15.9024 N   0  0  0  0  0  0  0  0  0  0  0  0
   17.8051   -0.3583  -14.4880 C   0  0  0  0  0  0  0  0  0  0  0  0
   16.0628   -0.9345  -16.1727 C   0  0  0  0  0  0  0  0  0  0  0  0
   16.9253   -1.2055  -13.5447 C   0  0  0  0  0  0  0  0  0  0  0  0
   15.1498   -0.4204  -15.0342 C   0  0  0  0  0  0  0  0  0  0  0  0
   15.4749   -0.9278  -13.6820 N   0  0  0  0  0  0  0  0  0  0  0  0
   14.6931   -2.1140  -13.3443 C   0  0  0  0  0  0  0  0  0  0  0  0
 12 13  1  0
 13 14  2  0
 13 15  1  0
 14 16  1  0
 14  1  1  0
 15 17  2  0
 15 18  1  0
  1  2  2  0
  1  3  1  0
 17 19  1  0
 18 20  2  0
  3  4  1  0
  3  5  1  0
 19 21  2  0
  4  6  1  0
  5  7  1  0
  6  8  2  0
  6  9  1  0
  8 10  1  0
  9 11  2  0
 11 22  1  0
 22 23  2  0
 22 24  1  0
 24 26  1  0
 26 27  1  0
 27 28  2  0
 27 29  1  0
 28 30  1  0
 29 31  2  0
 30 32  2  0
 32 33  1  0
 33 34  1  0
 33 35  1  0
 34 36  1  0
 35 37  1  0
 36 38  1  0
 38 39  1  0
 16 17  1  0
 20 21  1  0
  7  8  1  0
 10 11  1  0
 31 32  1  0
 37 38  1  0
 24 25  1  0
M  END
>  <Molecule Name>  (22) 
CTX-1020669

>  <SMILES>  (22) 
CN1CCN(CC1)C1=CC=C(CNC(=O)C2=CC3=C(CCN(C3)C(=O)C3=C(Cl)C4=C(S3)C=CC=C4)S2)C=C1

>  <Batch Name>  (22) 
CTX-1020669-1

>  <Batch Created Date>  (22) 
2021-12-03

>  <Batch ID>  (22) 
CTX-1020669-1

>  <External ID>  (22) 
610EDL216-4

>  <Stereochemistry>  (22) 
Achiral

>  <Amount 1>  (22) 
5.2

>  <Unit 1>  (22) 
mg

>  <CRO 1>  (22) 
Pharmaron

>  <CRO 1 Total Amount>  (22) 
22.8

>  <CRO 1 Unit>  (22) 
mg

>  <pIC50>  (22) 
5.692504

>  <SMILES_std>  (22) 
CN1CCN(c2ccc(CNC(=O)c3cc4c(s3)CCN(C(=O)c3sc5ccccc5c3Cl)C4)cc2)CC1

>  <embed_status>  (22) 
0

>  <mmff_status>  (22) 
0

>  <minimizedAffinity>  (22) 
-9.58425

>  <CNNscore>  (22) 
0.2772484422

>  <CNNaffinity>  (22) 
6.8934650421

>  <CNN_VS>  (22) 
1.9112024307

>  <CNNaffinity_variance>  (22) 
0.8826602101

>  <Docking_Rank>  (22) 
60

>  <Vina_Affinity_kcal_mol>  (22) 
-9.580

>  <CNN_pKi>  (22) 
6.893

>  <CNN_Pose_Score>  (22) 
0.2772

>  <Num_Docked_Poses>  (22) 
5

>  <MMGBSA_Rank>  (22) 
22

>  <MMGBSA_dG_kcal_mol>  (22) 
-67.705

>  <MMGBSA_VdW_kcal_mol>  (22) 
-68.108

>  <MMGBSA_Elec_kcal_mol>  (22) 
0.185

>  <MMGBSA_PolarSolv_kcal_mol>  (22) 
8.734

>  <MMGBSA_NonPolarSolv_kcal_mol>  (22) 
-8.516

>  <MMGBSA_Status>  (22) 
S

$$$$
CTX-1020745
     RDKit          3D

 40 45  0  0  0  0  0  0  0  0999 V2000
   28.8351    5.1703  -21.4313 S   0  0  0  0  0  0  0  0  0  0  0  0
   29.8355    5.7021  -22.7204 C   0  0  0  0  0  0  0  0  0  0  0  0
   28.0716    4.0187  -22.4142 C   0  0  0  0  0  0  0  0  0  0  0  0
   29.5686    4.9922  -23.8795 C   0  0  0  0  0  0  0  0  0  0  0  0
   28.5413    4.0130  -23.7111 C   0  0  0  0  0  0  0  0  0  0  0  0
   26.9791    3.1280  -21.9223 C   0  0  0  0  0  0  0  0  0  0  0  0
   28.0276    3.0756  -24.7637 C   0  0  0  0  0  0  0  0  0  0  0  0
   26.8053    1.9520  -22.8949 C   0  0  0  0  0  0  0  0  0  0  0  0
   26.8115    2.3853  -24.3011 N   0  0  0  0  0  0  0  0  0  0  0  0
   26.0521    1.6252  -25.1993 C   0  0  0  0  0  0  0  0  0  0  0  0
   25.4643    0.6058  -24.8417 O   0  0  0  0  0  0  0  0  0  0  0  0
   25.9907    2.0815  -26.5776 C   0  0  0  0  0  0  0  0  0  0  0  0
   25.4452    3.2923  -26.9614 N   0  0  0  0  0  0  0  0  0  0  0  0
   26.5139    1.4880  -27.7243 C   0  0  0  0  0  0  0  0  0  0  0  0
   25.5232    3.4529  -28.3295 C   0  0  0  0  0  0  0  0  0  0  0  0
   24.8594    4.2476  -26.0420 C   0  0  0  0  0  0  0  0  0  0  0  0
   26.1867    2.3322  -28.8313 C   0  0  0  0  0  0  0  0  0  0  0  0
   27.2877    0.2159  -27.8070 C   0  0  0  0  0  0  0  0  0  0  0  0
   25.0841    4.4905  -29.1703 C   0  0  0  0  0  0  0  0  0  0  0  0
   26.4164    2.2436  -30.2211 C   0  0  0  0  0  0  0  0  0  0  0  0
   25.3189    4.3755  -30.5436 C   0  0  0  0  0  0  0  0  0  0  0  0
   25.9756    3.2672  -31.0652 C   0  0  0  0  0  0  0  0  0  0  0  0
   30.8238    6.7631  -22.5609 C   0  0  0  0  0  0  0  0  0  0  0  0
   31.0580    7.2887  -21.4745 O   0  0  0  0  0  0  0  0  0  0  0  0
   31.4804    7.1479  -23.7097 N   0  0  0  0  0  0  0  0  0  0  0  0
   31.3433    6.6240  -24.5319 H   0  0  0  0  0  0  0  0  0  0  0  0
   32.3612    8.2894  -23.7525 C   0  0  0  0  0  0  0  0  0  0  0  0
   33.4220    8.1019  -24.8039 C   0  0  0  0  0  0  0  0  0  0  0  0
   33.0823    7.9342  -26.1481 C   0  0  0  0  0  0  0  0  0  0  0  0
   34.7761    8.1314  -24.4576 C   0  0  0  0  0  0  0  0  0  0  0  0
   34.0819    7.7852  -27.1169 C   0  0  0  0  0  0  0  0  0  0  0  0
   35.7692    7.9791  -25.4344 C   0  0  0  0  0  0  0  0  0  0  0  0
   35.4476    7.8041  -26.7863 C   0  0  0  0  0  0  0  0  0  0  0  0
   36.4027    7.6511  -27.7984 N   0  0  0  0  0  0  0  0  0  0  0  0
   37.8363    7.5285  -27.4611 C   0  0  0  0  0  0  0  0  0  0  0  0
   36.1229    8.4685  -29.0061 C   0  0  0  0  0  0  0  0  0  0  0  0
   38.5855    8.8422  -27.7694 C   0  0  0  0  0  0  0  0  0  0  0  0
   37.3808    8.6432  -29.8900 C   0  0  0  0  0  0  0  0  0  0  0  0
   38.5635    9.2124  -29.2054 N   0  0  0  0  0  0  0  0  0  0  0  0
   38.6363   10.6625  -29.3610 C   0  0  0  0  0  0  0  0  0  0  0  0
  1  2  1  0
  1  3  1  0
  2 23  1  0
  2  4  2  0
  3  5  2  0
  3  6  1  0
 23 24  2  0
 23 25  1  0
  5  7  1  0
  6  8  1  0
 25 27  1  0
  7  9  1  0
 27 28  1  0
  9 10  1  0
 28 29  2  0
 28 30  1  0
 10 11  2  0
 10 12  1  0
 29 31  1  0
 30 32  2  0
 12 13  1  0
 12 14  2  0
 31 33  2  0
 13 15  1  0
 13 16  1  0
 14 17  1  0
 14 18  1  0
 33 34  1  0
 15 19  2  0
 17 20  2  0
 34 35  1  0
 34 36  1  0
 19 21  1  0
 20 22  1  0
 35 37  1  0
 36 38  1  0
 37 39  1  0
 39 40  1  0
  4  5  1  0
  8  9  1  0
 32 33  1  0
 15 17  1  0
 21 22  2  0
 38 39  1  0
 25 26  1  0
M  END
>  <Molecule Name>  (23) 
CTX-1020745

>  <SMILES>  (23) 
CN1C2=C(C=CC=C2)C(C)=C1C(=O)N1CCC2=C(C1)C=C(S2)C(=O)NCC1=CC=C(C=C1)N1CCN(C)CC1

>  <Batch Name>  (23) 
CTX-1020745-1

>  <Batch Created Date>  (23) 
2021-12-16

>  <Batch ID>  (23) 
CTX-1020745-1

>  <External ID>  (23) 
P841-0360

>  <Stereochemistry>  (23) 
Achiral

>  <Amount 1>  (23) 
3.45

>  <Unit 1>  (23) 
mg

>  <CRO 1>  (23) 
Pharmaron

>  <CRO 1 Total Amount>  (23) 
31.75

>  <CRO 1 Unit>  (23) 
mg

>  <pIC50>  (23) 
4.517126

>  <SMILES_std>  (23) 
Cc1c(C(=O)N2CCc3sc(C(=O)NCc4ccc(N5CCN(C)CC5)cc4)cc3C2)n(C)c2ccccc12

>  <embed_status>  (23) 
0

>  <mmff_status>  (23) 
0

>  <minimizedAffinity>  (23) 
-9.87962

>  <CNNscore>  (23) 
0.7617616057

>  <CNNaffinity>  (23) 
8.0017032623

>  <CNN_VS>  (23) 
6.0953903198

>  <CNNaffinity_variance>  (23) 
0.2805843651

>  <Docking_Rank>  (23) 
8

>  <Vina_Affinity_kcal_mol>  (23) 
-9.880

>  <CNN_pKi>  (23) 
8.002

>  <CNN_Pose_Score>  (23) 
0.7618

>  <Num_Docked_Poses>  (23) 
5

>  <MMGBSA_Rank>  (23) 
23

>  <MMGBSA_dG_kcal_mol>  (23) 
-67.427

>  <MMGBSA_VdW_kcal_mol>  (23) 
-66.752

>  <MMGBSA_Elec_kcal_mol>  (23) 
0.723

>  <MMGBSA_PolarSolv_kcal_mol>  (23) 
7.139

>  <MMGBSA_NonPolarSolv_kcal_mol>  (23) 
-8.537

>  <MMGBSA_Status>  (23) 
S

$$$$
CTX-1020912
     RDKit          3D

 38 43  0  0  0  0  0  0  0  0999 V2000
   25.5877    2.1819  -24.7807 C   0  0  0  0  0  0  0  0  0  0  0  0
   24.9227    1.0294  -24.3393 C   0  0  0  0  0  0  0  0  0  0  0  0
   26.1641    3.0433  -23.8453 C   0  0  0  0  0  0  0  0  0  0  0  0
   24.8241    0.7150  -22.9915 C   0  0  0  0  0  0  0  0  0  0  0  0
   26.0801    2.7492  -22.4856 C   0  0  0  0  0  0  0  0  0  0  0  0
   24.1747   -0.4021  -22.6257 N   0  0  0  0  0  0  0  0  0  0  0  0
   25.4144    1.5914  -22.0524 C   0  0  0  0  0  0  0  0  0  0  0  0
   24.0992   -0.6799  -21.2925 C   0  0  0  0  0  0  0  0  0  0  0  0
   25.3148    1.2715  -20.6918 C   0  0  0  0  0  0  0  0  0  0  0  0
   24.6475    0.1170  -20.3009 C   0  0  0  0  0  0  0  0  0  0  0  0
   24.9541    3.9413  -26.7582 S   0  0  0  0  0  0  0  0  0  0  0  0
   25.6598    2.4897  -26.2077 C   0  0  0  0  0  0  0  0  0  0  0  0
   25.3888    3.6322  -28.3898 C   0  0  0  0  0  0  0  0  0  0  0  0
   26.2335    1.7580  -27.2341 C   0  0  0  0  0  0  0  0  0  0  0  0
   26.0743    2.4216  -28.5139 C   0  0  0  0  0  0  0  0  0  0  0  0
   25.1194    4.4506  -29.5051 C   0  0  0  0  0  0  0  0  0  0  0  0
   26.9314    0.4437  -27.0715 C   0  0  0  0  0  0  0  0  0  0  0  0
   26.4958    2.0342  -29.8127 C   0  0  0  0  0  0  0  0  0  0  0  0
   25.5488    4.0395  -30.7681 C   0  0  0  0  0  0  0  0  0  0  0  0
   26.2310    2.8423  -30.9227 C   0  0  0  0  0  0  0  0  0  0  0  0
   23.3743   -1.9389  -20.9217 C   0  0  0  0  0  0  0  0  0  0  0  0
   23.3544   -2.9102  -21.6688 O   0  0  0  0  0  0  0  0  0  0  0  0
   22.7456   -1.8855  -19.6976 N   0  0  0  0  0  0  0  0  0  0  0  0
   22.9199   -1.1136  -19.1119 H   0  0  0  0  0  0  0  0  0  0  0  0
   21.8441   -2.9102  -19.2372 C   0  0  0  0  0  0  0  0  0  0  0  0
   20.4147   -2.4464  -19.3274 C   0  0  0  0  0  0  0  0  0  0  0  0
   19.7346   -2.4790  -20.5469 C   0  0  0  0  0  0  0  0  0  0  0  0
   19.7475   -1.9440  -18.2073 C   0  0  0  0  0  0  0  0  0  0  0  0
   18.4130   -2.0262  -20.6356 C   0  0  0  0  0  0  0  0  0  0  0  0
   18.4230   -1.4940  -18.3059 C   0  0  0  0  0  0  0  0  0  0  0  0
   17.7270   -1.5102  -19.5235 C   0  0  0  0  0  0  0  0  0  0  0  0
   16.3991   -1.0741  -19.6637 N   0  0  0  0  0  0  0  0  0  0  0  0
   16.0601    0.2866  -19.2012 C   0  0  0  0  0  0  0  0  0  0  0  0
   15.7829   -1.4179  -20.9674 C   0  0  0  0  0  0  0  0  0  0  0  0
   14.5295    0.5155  -19.2273 C   0  0  0  0  0  0  0  0  0  0  0  0
   14.2612   -1.1286  -20.9567 C   0  0  0  0  0  0  0  0  0  0  0  0
   13.8664    0.2287  -20.5189 N   0  0  0  0  0  0  0  0  0  0  0  0
   14.1890    1.2343  -21.5281 C   0  0  0  0  0  0  0  0  0  0  0  0
 11 12  1  0
 11 13  1  0
 12  1  1  0
 12 14  2  0
 13 15  2  0
 13 16  1  0
  1  2  2  0
  1  3  1  0
 14 17  1  0
 15 18  1  0
 16 19  2  0
  2  4  1  0
  3  5  2  0
 18 20  2  0
  4  6  2  0
  4  7  1  0
  6  8  1  0
  7  9  2  0
  8 21  1  0
  8 10  2  0
 21 22  2  0
 21 23  1  0
 23 25  1  0
 25 26  1  0
 26 27  2  0
 26 28  1  0
 27 29  1  0
 28 30  2  0
 29 31  2  0
 31 32  1  0
 32 33  1  0
 32 34  1  0
 33 35  1  0
 34 36  1  0
 35 37  1  0
 37 38  1  0
 14 15  1  0
 19 20  1  0
  5  7  1  0
  9 10  1  0
 30 31  1  0
 36 37  1  0
 23 24  1  0
M  END
>  <Molecule Name>  (24) 
CTX-1020912

>  <SMILES>  (24) 
CN1CCN(CC1)C1=CC=C(CNC(=O)C2=NC3=CC(=CC=C3C=C2)C2=C(C)C3=CC=CC=C3S2)C=C1

>  <Batch Name>  (24) 
CTX-1020912-1

>  <Batch Created Date>  (24) 
2022-01-20

>  <Batch ID>  (24) 
CTX-1020912-1

>  <External ID>  (24) 
P841-0314

>  <Stereochemistry>  (24) 
Achiral

>  <Amount 1>  (24) 
5.5

>  <Unit 1>  (24) 
mg

>  <CRO 1>  (24) 
Pharmaron

>  <CRO 1 Total Amount>  (24) 
3.8

>  <CRO 1 Unit>  (24) 
mg

>  <pIC50>  (24) 
4.322393

>  <SMILES_std>  (24) 
Cc1c(-c2ccc3ccc(C(=O)NCc4ccc(N5CCN(C)CC5)cc4)nc3c2)sc2ccccc12

>  <embed_status>  (24) 
0

>  <mmff_status>  (24) 
0

>  <minimizedAffinity>  (24) 
-12.40309

>  <CNNscore>  (24) 
0.7522839308

>  <CNNaffinity>  (24) 
7.4226913452

>  <CNN_VS>  (24) 
5.5839715004

>  <CNNaffinity_variance>  (24) 
0.2423587292

>  <Docking_Rank>  (24) 
26

>  <Vina_Affinity_kcal_mol>  (24) 
-12.400

>  <CNN_pKi>  (24) 
7.423

>  <CNN_Pose_Score>  (24) 
0.7523

>  <Num_Docked_Poses>  (24) 
5

>  <MMGBSA_Rank>  (24) 
24

>  <MMGBSA_dG_kcal_mol>  (24) 
-66.155

>  <MMGBSA_VdW_kcal_mol>  (24) 
-66.165

>  <MMGBSA_Elec_kcal_mol>  (24) 
-5.835

>  <MMGBSA_PolarSolv_kcal_mol>  (24) 
14.505

>  <MMGBSA_NonPolarSolv_kcal_mol>  (24) 
-8.659

>  <MMGBSA_Status>  (24) 
S

$$$$
CTX-1020752
     RDKit          3D

 41 46  0  0  0  0  0  0  0  0999 V2000
   29.7907    5.5644  -22.6486 C   0  0  0  0  0  0  0  0  0  0  0  0
   29.7865    4.3217  -22.0889 N   0  0  0  0  0  0  0  0  0  0  0  0
   28.7026    6.1240  -23.3015 C   0  0  0  0  0  0  0  0  0  0  0  0
   28.6369    3.6078  -22.1766 C   0  0  0  0  0  0  0  0  0  0  0  0
   27.5373    5.3715  -23.3954 C   0  0  0  0  0  0  0  0  0  0  0  0
   27.4957    4.0884  -22.8404 C   0  0  0  0  0  0  0  0  0  0  0  0
   28.6495    2.2096  -21.5811 C   0  0  0  0  0  0  0  0  0  0  0  0
   26.2242    3.2755  -22.8999 C   0  0  0  0  0  0  0  0  0  0  0  0
   27.3054    1.6639  -21.4047 N   0  0  0  0  0  0  0  0  0  0  0  0
   26.4671    1.7930  -22.5963 C   0  0  0  0  0  0  0  0  0  0  0  0
   26.7876    1.6147  -20.1084 C   0  0  0  0  0  0  0  0  0  0  0  0
   27.4300    2.0135  -19.1396 O   0  0  0  0  0  0  0  0  0  0  0  0
   25.4415    1.0939  -19.9473 C   0  0  0  0  0  0  0  0  0  0  0  0
   24.5859    1.4870  -18.9356 N   0  0  0  0  0  0  0  0  0  0  0  0
   24.7929    0.0924  -20.6653 C   0  0  0  0  0  0  0  0  0  0  0  0
   23.3753    0.8336  -19.0374 C   0  0  0  0  0  0  0  0  0  0  0  0
   24.9240    2.4657  -17.9210 C   0  0  0  0  0  0  0  0  0  0  0  0
   23.4795   -0.0455  -20.1166 C   0  0  0  0  0  0  0  0  0  0  0  0
   25.3495   -0.7087  -21.7920 C   0  0  0  0  0  0  0  0  0  0  0  0
   22.2027    0.9239  -18.2673 C   0  0  0  0  0  0  0  0  0  0  0  0
   22.3730   -0.8606  -20.4388 C   0  0  0  0  0  0  0  0  0  0  0  0
   21.1193    0.1100  -18.6111 C   0  0  0  0  0  0  0  0  0  0  0  0
   21.2004   -0.7714  -19.6828 C   0  0  0  0  0  0  0  0  0  0  0  0
   32.1254    5.8008  -22.2256 O   0  0  0  0  0  0  0  0  0  0  0  0
   31.0665    6.3418  -22.5226 C   0  0  0  0  0  0  0  0  0  0  0  0
   30.9354    7.6876  -22.7772 N   0  0  0  0  0  0  0  0  0  0  0  0
   30.0355    8.0603  -22.9201 H   0  0  0  0  0  0  0  0  0  0  0  0
   32.0717    8.5672  -22.8413 C   0  0  0  0  0  0  0  0  0  0  0  0
   32.8769    8.3131  -24.0850 C   0  0  0  0  0  0  0  0  0  0  0  0
   34.2565    8.5283  -24.0969 C   0  0  0  0  0  0  0  0  0  0  0  0
   32.2557    7.9093  -25.2701 C   0  0  0  0  0  0  0  0  0  0  0  0
   34.9961    8.3192  -25.2668 C   0  0  0  0  0  0  0  0  0  0  0  0
   33.0046    7.7055  -26.4375 C   0  0  0  0  0  0  0  0  0  0  0  0
   34.3918    7.8994  -26.4639 C   0  0  0  0  0  0  0  0  0  0  0  0
   35.1817    7.7058  -27.6033 N   0  0  0  0  0  0  0  0  0  0  0  0
   36.5184    7.0862  -27.4950 C   0  0  0  0  0  0  0  0  0  0  0  0
   35.0984    8.8218  -28.5800 C   0  0  0  0  0  0  0  0  0  0  0  0
   37.6268    8.1517  -27.6295 C   0  0  0  0  0  0  0  0  0  0  0  0
   36.2893    8.8161  -29.5679 C   0  0  0  0  0  0  0  0  0  0  0  0
   37.6320    8.8370  -28.9448 N   0  0  0  0  0  0  0  0  0  0  0  0
   38.1473   10.1969  -28.8110 C   0  0  0  0  0  0  0  0  0  0  0  0
 24 25  2  0
 25 26  1  0
 25  1  1  0
 26 28  1  0
  1  2  2  0
  1  3  1  0
 28 29  1  0
  2  4  1  0
  3  5  2  0
 29 30  2  0
 29 31  1  0
  4  6  2  0
  4  7  1  0
 30 32  1  0
 31 33  2  0
  6  8  1  0
  7  9  1  0
 32 34  2  0
  8 10  1  0
  9 11  1  0
 34 35  1  0
 11 12  2  0
 11 13  1  0
 35 36  1  0
 35 37  1  0
 13 14  1  0
 13 15  2  0
 36 38  1  0
 37 39  1  0
 14 16  1  0
 14 17  1  0
 15 18  1  0
 15 19  1  0
 38 40  1  0
 16 20  2  0
 18 21  2  0
 40 41  1  0
 20 22  1  0
 21 23  1  0
  5  6  1  0
 33 34  1  0
  9 10  1  0
 39 40  1  0
 16 18  1  0
 22 23  2  0
 26 27  1  0
M  END
>  <Molecule Name>  (25) 
CTX-1020752

>  <SMILES>  (25) 
CN1C2=C(C=CC=C2)C(C)=C1C(=O)N1CCC2=C(C1)N=C(C=C2)C(=O)NCC1=CC=C(C=C1)N1CCN(C)CC1

>  <Batch Name>  (25) 
CTX-1020752-1

>  <Batch Created Date>  (25) 
2021-12-16

>  <Batch ID>  (25) 
CTX-1020752-1

>  <External ID>  (25) 
P841-0368

>  <Stereochemistry>  (25) 
Achiral

>  <Amount 1>  (25) 
4.6

>  <Unit 1>  (25) 
mg

>  <CRO 1>  (25) 
Pharmaron

>  <CRO 1 Total Amount>  (25) 
25.65

>  <CRO 1 Unit>  (25) 
mg

>  <pIC50>  (25) 
4.060481

>  <SMILES_std>  (25) 
Cc1c(C(=O)N2CCc3ccc(C(=O)NCc4ccc(N5CCN(C)CC5)cc4)nc3C2)n(C)c2ccccc12

>  <embed_status>  (25) 
0

>  <mmff_status>  (25) 
0

>  <minimizedAffinity>  (25) 
-11.49776

>  <CNNscore>  (25) 
0.6050798893

>  <CNNaffinity>  (25) 
7.7152652740

>  <CNN_VS>  (25) 
4.6683516502

>  <CNNaffinity_variance>  (25) 
0.6813824177

>  <Docking_Rank>  (25) 
13

>  <Vina_Affinity_kcal_mol>  (25) 
-11.500

>  <CNN_pKi>  (25) 
7.715

>  <CNN_Pose_Score>  (25) 
0.6051

>  <Num_Docked_Poses>  (25) 
5

>  <MMGBSA_Rank>  (25) 
25

>  <MMGBSA_dG_kcal_mol>  (25) 
-66.006

>  <MMGBSA_VdW_kcal_mol>  (25) 
-65.627

>  <MMGBSA_Elec_kcal_mol>  (25) 
-4.212

>  <MMGBSA_PolarSolv_kcal_mol>  (25) 
11.418

>  <MMGBSA_NonPolarSolv_kcal_mol>  (25) 
-7.585

>  <MMGBSA_Status>  (25) 
S

$$$$
CTX-1020742
     RDKit          3D

 39 44  0  0  0  0  0  0  0  0999 V2000
   29.2957    3.8182  -21.1078 C   0  0  0  0  0  0  0  0  0  0  0  0
   29.6001    3.4371  -19.9767 O   0  0  0  0  0  0  0  0  0  0  0  0
   28.1239    3.3622  -21.7235 N   0  0  0  0  0  0  0  0  0  0  0  0
   27.3687    2.3411  -20.9913 C   0  0  0  0  0  0  0  0  0  0  0  0
   27.3607    4.1724  -22.6935 C   0  0  0  0  0  0  0  0  0  0  0  0
   26.3841    1.6586  -21.8973 C   0  0  0  0  0  0  0  0  0  0  0  0
   26.7365    3.3046  -23.7961 C   0  0  0  0  0  0  0  0  0  0  0  0
   26.0921    2.1124  -23.1670 C   0  0  0  0  0  0  0  0  0  0  0  0
   25.6221    0.4855  -21.5907 C   0  0  0  0  0  0  0  0  0  0  0  0
   24.9455    1.1584  -23.9699 S   0  0  0  0  0  0  0  0  0  0  0  0
   24.7840    0.0972  -22.6256 C   0  0  0  0  0  0  0  0  0  0  0  0
   31.6484    5.2124  -21.1888 S   0  0  0  0  0  0  0  0  0  0  0  0
   30.1355    4.7584  -21.8356 C   0  0  0  0  0  0  0  0  0  0  0  0
   31.9613    6.3073  -22.4723 C   0  0  0  0  0  0  0  0  0  0  0  0
   29.8236    5.4606  -22.9894 C   0  0  0  0  0  0  0  0  0  0  0  0
   30.8956    6.3573  -23.3743 C   0  0  0  0  0  0  0  0  0  0  0  0
   33.1038    7.0908  -22.6520 C   0  0  0  0  0  0  0  0  0  0  0  0
   28.5345    5.3158  -23.7380 C   0  0  0  0  0  0  0  0  0  0  0  0
   31.0127    7.2407  -24.4690 C   0  0  0  0  0  0  0  0  0  0  0  0
   33.2009    7.9211  -23.7148 N   0  0  0  0  0  0  0  0  0  0  0  0
   32.1760    7.9838  -24.5827 C   0  0  0  0  0  0  0  0  0  0  0  0
   23.8516   -1.0227  -22.7232 C   0  0  0  0  0  0  0  0  0  0  0  0
   22.9478   -1.0950  -23.5536 O   0  0  0  0  0  0  0  0  0  0  0  0
   24.0434   -2.0233  -21.7884 N   0  0  0  0  0  0  0  0  0  0  0  0
   24.8342   -1.9882  -21.2031 H   0  0  0  0  0  0  0  0  0  0  0  0
   23.1119   -3.1195  -21.6492 C   0  0  0  0  0  0  0  0  0  0  0  0
   21.9009   -2.6880  -20.8660 C   0  0  0  0  0  0  0  0  0  0  0  0
   22.0450   -2.0255  -19.6454 C   0  0  0  0  0  0  0  0  0  0  0  0
   20.6107   -2.9735  -21.3156 C   0  0  0  0  0  0  0  0  0  0  0  0
   20.9193   -1.6488  -18.9005 C   0  0  0  0  0  0  0  0  0  0  0  0
   19.4926   -2.5888  -20.5618 C   0  0  0  0  0  0  0  0  0  0  0  0
   19.6119   -1.9163  -19.3352 C   0  0  0  0  0  0  0  0  0  0  0  0
   18.5033   -1.5415  -18.5957 N   0  0  0  0  0  0  0  0  0  0  0  0
   17.5608   -0.5154  -19.0722 C   0  0  0  0  0  0  0  0  0  0  0  0
   18.2068   -2.1432  -17.2852 C   0  0  0  0  0  0  0  0  0  0  0  0
   16.8713    0.1885  -17.8801 C   0  0  0  0  0  0  0  0  0  0  0  0
   16.6948   -2.0673  -16.9641 C   0  0  0  0  0  0  0  0  0  0  0  0
   16.0934   -0.7178  -17.0078 N   0  0  0  0  0  0  0  0  0  0  0  0
   15.9488   -0.1438  -15.6728 C   0  0  0  0  0  0  0  0  0  0  0  0
 12 13  1  0
 12 14  1  0
 13 15  2  0
 13  1  1  0
 14 16  2  0
 14 17  1  0
 15 18  1  0
  1  2  2  0
  1  3  1  0
 16 19  1  0
 17 20  2  0
  3  4  1  0
  3  5  1  0
 19 21  2  0
  4  6  1  0
  5  7  1  0
  6  8  2  0
  6  9  1  0
  8 10  1  0
  9 11  2  0
 11 22  1  0
 22 23  2  0
 22 24  1  0
 24 26  1  0
 26 27  1  0
 27 28  2  0
 27 29  1  0
 28 30  1  0
 29 31  2  0
 30 32  2  0
 32 33  1  0
 33 34  1  0
 33 35  1  0
 34 36  1  0
 35 37  1  0
 36 38  1  0
 38 39  1  0
 15 16  1  0
 20 21  1  0
  7  8  1  0
 10 11  1  0
 31 32  1  0
 37 38  1  0
 24 25  1  0
M  END
>  <Molecule Name>  (26) 
CTX-1020742

>  <SMILES>  (26) 
CN1CCN(CC1)C1=CC=C(CNC(=O)C2=CC3=C(CCN(C3)C(=O)C3=C(C)C4=C(S3)C=NC=C4)S2)C=C1

>  <Batch Name>  (26) 
CTX-1020742-1

>  <Batch Created Date>  (26) 
2021-12-16

>  <Batch ID>  (26) 
CTX-1020742-1

>  <External ID>  (26) 
P841-0357

>  <Stereochemistry>  (26) 
Achiral

>  <Amount 1>  (26) 
5.1

>  <Unit 1>  (26) 
mg

>  <CRO 1>  (26) 
Pharmaron

>  <CRO 1 Total Amount>  (26) 
39.3

>  <CRO 1 Unit>  (26) 
mg

>  <pIC50>  (26) 
4.954677

>  <SMILES_std>  (26) 
Cc1c(C(=O)N2CCc3sc(C(=O)NCc4ccc(N5CCN(C)CC5)cc4)cc3C2)sc2cnccc12

>  <embed_status>  (26) 
0

>  <mmff_status>  (26) 
0

>  <minimizedAffinity>  (26) 
-11.15967

>  <CNNscore>  (26) 
0.2638521194

>  <CNNaffinity>  (26) 
7.2346782684

>  <CNN_VS>  (26) 
1.9088852406

>  <CNNaffinity_variance>  (26) 
0.2388104796

>  <Docking_Rank>  (26) 
39

>  <Vina_Affinity_kcal_mol>  (26) 
-11.160

>  <CNN_pKi>  (26) 
7.235

>  <CNN_Pose_Score>  (26) 
0.2639

>  <Num_Docked_Poses>  (26) 
5

>  <MMGBSA_Rank>  (26) 
26

>  <MMGBSA_dG_kcal_mol>  (26) 
-65.680

>  <MMGBSA_VdW_kcal_mol>  (26) 
-66.572

>  <MMGBSA_Elec_kcal_mol>  (26) 
-3.370

>  <MMGBSA_PolarSolv_kcal_mol>  (26) 
12.973

>  <MMGBSA_NonPolarSolv_kcal_mol>  (26) 
-8.711

>  <MMGBSA_Status>  (26) 
S

$$$$
CTX-1020459
     RDKit          3D

 41 46  0  0  0  0  0  0  0  0999 V2000
   19.6071    3.6432  -30.3131 C   0  0  0  0  0  0  0  0  0  0  0  0
   19.1373    2.9597  -31.2269 O   0  0  0  0  0  0  0  0  0  0  0  0
   20.9965    3.6361  -30.0887 N   0  0  0  0  0  0  0  0  0  0  0  0
   21.5965    4.1010  -28.8307 C   0  0  0  0  0  0  0  0  0  0  0  0
   21.8069    2.7747  -30.9492 C   0  0  0  0  0  0  0  0  0  0  0  0
   23.0459    3.7233  -28.5962 C   0  0  0  0  0  0  0  0  0  0  0  0
   23.2615    3.2305  -31.0392 C   0  0  0  0  0  0  0  0  0  0  0  0
   23.5157    3.8456  -27.3298 N   0  0  0  0  0  0  0  0  0  0  0  0
   23.8565    3.3319  -29.6654 C   0  0  0  0  0  0  0  0  0  0  0  0
   24.8385    3.5784  -27.1306 C   0  0  0  0  0  0  0  0  0  0  0  0
   25.2097    3.0788  -29.4293 C   0  0  0  0  0  0  0  0  0  0  0  0
   25.7129    3.2006  -28.1390 C   0  0  0  0  0  0  0  0  0  0  0  0
   14.4652    7.5621  -26.1416 Cl  0  0  0  0  0  0  0  0  0  0  0  0
   15.9011    6.9857  -26.8995 C   0  0  0  0  0  0  0  0  0  0  0  0
   15.8266    5.8713  -27.7462 C   0  0  0  0  0  0  0  0  0  0  0  0
   17.1120    7.6380  -26.6572 C   0  0  0  0  0  0  0  0  0  0  0  0
   17.0090    5.4107  -28.3572 C   0  0  0  0  0  0  0  0  0  0  0  0
   18.2959    7.1962  -27.2571 C   0  0  0  0  0  0  0  0  0  0  0  0
   18.1915    6.0863  -28.0928 C   0  0  0  0  0  0  0  0  0  0  0  0
   17.3545    4.3522  -29.2535 C   0  0  0  0  0  0  0  0  0  0  0  0
   19.2208    5.5135  -28.7636 O   0  0  0  0  0  0  0  0  0  0  0  0
   18.7291    4.4476  -29.4657 C   0  0  0  0  0  0  0  0  0  0  0  0
   16.4364    3.3455  -29.8483 C   0  0  0  0  0  0  0  0  0  0  0  0
   25.3383    3.7304  -25.7249 C   0  0  0  0  0  0  0  0  0  0  0  0
   25.5353    4.8340  -25.2299 O   0  0  0  0  0  0  0  0  0  0  0  0
   25.5353    2.5365  -25.0677 N   0  0  0  0  0  0  0  0  0  0  0  0
   25.4700    1.7003  -25.5833 H   0  0  0  0  0  0  0  0  0  0  0  0
   25.8325    2.4547  -23.6605 C   0  0  0  0  0  0  0  0  0  0  0  0
   27.0415    3.2855  -23.3233 C   0  0  0  0  0  0  0  0  0  0  0  0
   27.1695    4.5851  -23.8180 C   0  0  0  0  0  0  0  0  0  0  0  0
   28.0403    2.7975  -22.4794 C   0  0  0  0  0  0  0  0  0  0  0  0
   28.2826    5.3697  -23.4859 C   0  0  0  0  0  0  0  0  0  0  0  0
   29.1502    3.5911  -22.1570 C   0  0  0  0  0  0  0  0  0  0  0  0
   29.3077    4.8956  -22.6532 C   0  0  0  0  0  0  0  0  0  0  0  0
   30.4066    5.6710  -22.3201 N   0  0  0  0  0  0  0  0  0  0  0  0
   30.5593    7.0401  -22.8429 C   0  0  0  0  0  0  0  0  0  0  0  0
   31.3532    5.2661  -21.2679 C   0  0  0  0  0  0  0  0  0  0  0  0
   31.3114    7.9487  -21.8407 C   0  0  0  0  0  0  0  0  0  0  0  0
   32.7094    5.9839  -21.4597 C   0  0  0  0  0  0  0  0  0  0  0  0
   32.6308    7.4597  -21.3895 N   0  0  0  0  0  0  0  0  0  0  0  0
   33.7236    8.0679  -22.1430 C   0  0  0  0  0  0  0  0  0  0  0  0
 13 14  1  0
 14 15  2  0
 14 16  1  0
 15 17  1  0
 16 18  2  0
 17 19  2  0
 17 20  1  0
 19 21  1  0
 20 22  2  0
 20 23  1  0
 22  1  1  0
  1  2  2  0
  1  3  1  0
  3  4  1  0
  3  5  1  0
  4  6  1  0
  5  7  1  0
  6  8  2  0
  6  9  1  0
  8 10  1  0
  9 11  2  0
 10 24  1  0
 10 12  2  0
 24 25  2  0
 24 26  1  0
 26 28  1  0
 28 29  1  0
 29 30  2  0
 29 31  1  0
 30 32  1  0
 31 33  2  0
 32 34  2  0
 34 35  1  0
 35 36  1  0
 35 37  1  0
 36 38  1  0
 37 39  1  0
 38 40  1  0
 40 41  1  0
 18 19  1  0
 21 22  1  0
  7  9  1  0
 11 12  1  0
 33 34  1  0
 39 40  1  0
 26 27  1  0
M  END
>  <Molecule Name>  (27) 
CTX-1020459

>  <SMILES>  (27) 
CN1CCN(CC1)C1=CC=C(CNC(=O)C2=CC=C3CCN(CC3=N2)C(=O)C2=C(C)C3=C(O2)C=CC(Cl)=C3)C=C1

>  <Batch Name>  (27) 
CTX-1020459-1

>  <Batch Created Date>  (27) 
2021-10-21

>  <Batch ID>  (27) 
CTX-1020459-1

>  <External ID>  (27) 
P841-0208

>  <Stereochemistry>  (27) 
Achiral

>  <Amount 1>  (27) 
5.2

>  <Unit 1>  (27) 
mg

>  <CRO 1>  (27) 
Pharmaron

>  <CRO 1 Total Amount>  (27) 
32.2

>  <CRO 1 Unit>  (27) 
mg

>  <pIC50>  (27) 
5.739929

>  <SMILES_std>  (27) 
Cc1c(C(=O)N2CCc3ccc(C(=O)NCc4ccc(N5CCN(C)CC5)cc4)nc3C2)oc2ccc(Cl)cc12

>  <embed_status>  (27) 
0

>  <mmff_status>  (27) 
0

>  <minimizedAffinity>  (27) 
-6.54769

>  <CNNscore>  (27) 
0.3521655500

>  <CNNaffinity>  (27) 
6.7905540466

>  <CNN_VS>  (27) 
2.3913991451

>  <CNNaffinity_variance>  (27) 
1.1339122057

>  <Docking_Rank>  (27) 
62

>  <Vina_Affinity_kcal_mol>  (27) 
-6.550

>  <CNN_pKi>  (27) 
6.791

>  <CNN_Pose_Score>  (27) 
0.3522

>  <Num_Docked_Poses>  (27) 
5

>  <MMGBSA_Rank>  (27) 
27

>  <MMGBSA_dG_kcal_mol>  (27) 
-65.663

>  <MMGBSA_VdW_kcal_mol>  (27) 
-64.752

>  <MMGBSA_Elec_kcal_mol>  (27) 
-5.843

>  <MMGBSA_PolarSolv_kcal_mol>  (27) 
13.772

>  <MMGBSA_NonPolarSolv_kcal_mol>  (27) 
-8.840

>  <MMGBSA_Status>  (27) 
S

$$$$
CTX-1020751
     RDKit          3D

 37 41  0  0  0  0  0  0  0  0999 V2000
   29.6426    5.2871  -23.0567 C   0  0  0  0  0  0  0  0  0  0  0  0
   28.5310    5.0932  -23.8239 N   0  0  0  0  0  0  0  0  0  0  0  0
   29.9846    4.4943  -21.9716 C   0  0  0  0  0  0  0  0  0  0  0  0
   27.7292    4.0496  -23.4937 C   0  0  0  0  0  0  0  0  0  0  0  0
   29.1457    3.4353  -21.6447 C   0  0  0  0  0  0  0  0  0  0  0  0
   27.9919    3.2074  -22.4011 C   0  0  0  0  0  0  0  0  0  0  0  0
   26.4796    3.8604  -24.3403 C   0  0  0  0  0  0  0  0  0  0  0  0
   27.0919    2.0374  -22.0818 C   0  0  0  0  0  0  0  0  0  0  0  0
   25.8279    2.5683  -24.1141 N   0  0  0  0  0  0  0  0  0  0  0  0
   25.7064    2.2069  -22.7072 C   0  0  0  0  0  0  0  0  0  0  0  0
   25.8742    1.5324  -25.0578 C   0  0  0  0  0  0  0  0  0  0  0  0
   25.8605    0.3554  -24.6964 O   0  0  0  0  0  0  0  0  0  0  0  0
   25.9010    1.9048  -26.4599 C   0  0  0  0  0  0  0  0  0  0  0  0
   25.2563    3.0560  -26.8180 O   0  0  0  0  0  0  0  0  0  0  0  0
   26.4953    1.3253  -27.5770 C   0  0  0  0  0  0  0  0  0  0  0  0
   25.3984    3.2040  -28.1596 C   0  0  0  0  0  0  0  0  0  0  0  0
   26.1515    2.1624  -28.6839 C   0  0  0  0  0  0  0  0  0  0  0  0
   27.3321    0.0997  -27.6212 C   0  0  0  0  0  0  0  0  0  0  0  0
   24.8703    4.2485  -28.9147 C   0  0  0  0  0  0  0  0  0  0  0  0
   26.4053    2.1550  -30.0687 C   0  0  0  0  0  0  0  0  0  0  0  0
   25.1312    4.2205  -30.2881 C   0  0  0  0  0  0  0  0  0  0  0  0
   25.8858    3.1921  -30.8576 C   0  0  0  0  0  0  0  0  0  0  0  0
   30.5712    7.4458  -22.4988 N   0  0  0  0  0  0  0  0  0  0  0  0
   30.5178    6.4428  -23.4413 C   0  0  0  0  0  0  0  0  0  0  0  0
   31.1286    6.4609  -24.5036 O   0  0  0  0  0  0  0  0  0  0  0  0
   29.9689    7.3936  -21.7219 H   0  0  0  0  0  0  0  0  0  0  0  0
   31.4689    8.5673  -22.5993 C   0  0  0  0  0  0  0  0  0  0  0  0
   34.3725    8.0077  -25.7608 C   0  0  0  0  0  0  0  0  0  0  0  0
   33.0077    8.1316  -26.0617 C   0  0  0  0  0  0  0  0  0  0  0  0
   34.7760    8.0516  -24.4185 C   0  0  0  0  0  0  0  0  0  0  0  0
   32.0676    8.3095  -25.0433 C   0  0  0  0  0  0  0  0  0  0  0  0
   33.8359    8.2286  -23.4012 C   0  0  0  0  0  0  0  0  0  0  0  0
   32.4728    8.3527  -23.7031 C   0  0  0  0  0  0  0  0  0  0  0  0
   36.2593    6.7857  -26.5992 F   0  0  0  0  0  0  0  0  0  0  0  0
   35.3830    7.7960  -26.8603 C   0  0  0  0  0  0  0  0  0  0  0  0
   34.7984    7.4859  -28.0502 F   0  0  0  0  0  0  0  0  0  0  0  0
   36.1506    8.8973  -27.0980 F   0  0  0  0  0  0  0  0  0  0  0  0
 34 35  1  0
 35 36  1  0
 35 37  1  0
 35 28  1  0
 28 29  2  0
 28 30  1  0
 29 31  1  0
 30 32  2  0
 31 33  2  0
 33 27  1  0
 27 23  1  0
 23 24  1  0
 24 25  2  0
 24  1  1  0
  1  2  2  0
  1  3  1  0
  2  4  1  0
  3  5  2  0
  4  6  2  0
  4  7  1  0
  6  8  1  0
  7  9  1  0
  8 10  1  0
  9 11  1  0
 11 12  2  0
 11 13  1  0
 13 14  1  0
 13 15  2  0
 14 16  1  0
 15 17  1  0
 15 18  1  0
 16 19  2  0
 17 20  2  0
 19 21  1  0
 20 22  1  0
 32 33  1  0
  5  6  1  0
  9 10  1  0
 16 17  1  0
 21 22  2  0
 23 26  1  0
M  END
>  <Molecule Name>  (28) 
CTX-1020751

>  <SMILES>  (28) 
CC1=C(OC2=C1C=CC=C2)C(=O)N1CCC2=C(C1)N=C(C=C2)C(=O)NCC1=CC=C(C=C1)C(F)(F)F

>  <Batch Name>  (28) 
CTX-1020751-1

>  <Batch Created Date>  (28) 
2021-12-16

>  <Batch ID>  (28) 
CTX-1020751-1

>  <External ID>  (28) 
P841-0366

>  <Stereochemistry>  (28) 
Achiral

>  <Amount 1>  (28) 
4.55

>  <Unit 1>  (28) 
mg

>  <CRO 1>  (28) 
Pharmaron

>  <CRO 1 Total Amount>  (28) 
21.6

>  <CRO 1 Unit>  (28) 
mg

>  <pIC50>  (28) 
4.043832

>  <SMILES_std>  (28) 
Cc1c(C(=O)N2CCc3ccc(C(=O)NCc4ccc(C(F)(F)F)cc4)nc3C2)oc2ccccc12

>  <embed_status>  (28) 
0

>  <mmff_status>  (28) 
0

>  <minimizedAffinity>  (28) 
-13.64255

>  <CNNscore>  (28) 
0.9003399014

>  <CNNaffinity>  (28) 
7.7359938622

>  <CNN_VS>  (28) 
6.9650239944

>  <CNNaffinity_variance>  (28) 
0.6232867241

>  <Docking_Rank>  (28) 
12

>  <Vina_Affinity_kcal_mol>  (28) 
-13.640

>  <CNN_pKi>  (28) 
7.736

>  <CNN_Pose_Score>  (28) 
0.9003

>  <Num_Docked_Poses>  (28) 
5

>  <MMGBSA_Rank>  (28) 
28

>  <MMGBSA_dG_kcal_mol>  (28) 
-65.561

>  <MMGBSA_VdW_kcal_mol>  (28) 
-64.438

>  <MMGBSA_Elec_kcal_mol>  (28) 
-2.695

>  <MMGBSA_PolarSolv_kcal_mol>  (28) 
9.810

>  <MMGBSA_NonPolarSolv_kcal_mol>  (28) 
-8.239

>  <MMGBSA_Status>  (28) 
S

$$$$
CTX-1020517
     RDKit          3D

 39 44  0  0  0  0  0  0  0  0999 V2000
   29.8576    4.0163  -21.2770 C   0  0  0  0  0  0  0  0  0  0  0  0
   30.2706    3.5324  -20.2220 O   0  0  0  0  0  0  0  0  0  0  0  0
   28.6034    3.6559  -21.7848 N   0  0  0  0  0  0  0  0  0  0  0  0
   27.8838    2.6143  -21.0462 C   0  0  0  0  0  0  0  0  0  0  0  0
   27.7807    4.5621  -22.6104 C   0  0  0  0  0  0  0  0  0  0  0  0
   26.7836    2.0336  -21.8881 C   0  0  0  0  0  0  0  0  0  0  0  0
   27.0085    3.7995  -23.6968 C   0  0  0  0  0  0  0  0  0  0  0  0
   26.3805    2.5892  -23.0851 C   0  0  0  0  0  0  0  0  0  0  0  0
   26.0023    0.8741  -21.5794 C   0  0  0  0  0  0  0  0  0  0  0  0
   25.1033    1.7490  -23.8155 S   0  0  0  0  0  0  0  0  0  0  0  0
   25.0509    0.5896  -22.5475 C   0  0  0  0  0  0  0  0  0  0  0  0
   32.0480    5.6514  -21.3103 S   0  0  0  0  0  0  0  0  0  0  0  0
   30.6496    4.9819  -22.0234 C   0  0  0  0  0  0  0  0  0  0  0  0
   32.3535    6.6628  -22.6636 C   0  0  0  0  0  0  0  0  0  0  0  0
   30.3644    5.5463  -23.2567 C   0  0  0  0  0  0  0  0  0  0  0  0
   31.3668    6.5196  -23.6424 C   0  0  0  0  0  0  0  0  0  0  0  0
   33.4338    7.5539  -22.8222 C   0  0  0  0  0  0  0  0  0  0  0  0
   29.1661    5.2002  -24.0848 C   0  0  0  0  0  0  0  0  0  0  0  0
   31.4805    7.3175  -24.8107 C   0  0  0  0  0  0  0  0  0  0  0  0
   33.5186    8.3172  -23.9876 C   0  0  0  0  0  0  0  0  0  0  0  0
   32.5507    8.2028  -24.9735 C   0  0  0  0  0  0  0  0  0  0  0  0
   24.0707   -0.4885  -22.6180 C   0  0  0  0  0  0  0  0  0  0  0  0
   23.2298   -0.6058  -23.5073 O   0  0  0  0  0  0  0  0  0  0  0  0
   24.1533   -1.4151  -21.5975 N   0  0  0  0  0  0  0  0  0  0  0  0
   24.7863   -1.2708  -20.8575 H   0  0  0  0  0  0  0  0  0  0  0  0
   23.3199   -2.5929  -21.6064 C   0  0  0  0  0  0  0  0  0  0  0  0
   22.0573   -2.3501  -20.8277 C   0  0  0  0  0  0  0  0  0  0  0  0
   20.8740   -3.0083  -21.1670 C   0  0  0  0  0  0  0  0  0  0  0  0
   22.0247   -1.4246  -19.7834 C   0  0  0  0  0  0  0  0  0  0  0  0
   19.6895   -2.7545  -20.4615 C   0  0  0  0  0  0  0  0  0  0  0  0
   20.8330   -1.1788  -19.0869 C   0  0  0  0  0  0  0  0  0  0  0  0
   19.6326   -1.8347  -19.4026 C   0  0  0  0  0  0  0  0  0  0  0  0
   18.4604   -1.5878  -18.7094 N   0  0  0  0  0  0  0  0  0  0  0  0
   17.6805   -0.3565  -18.9175 C   0  0  0  0  0  0  0  0  0  0  0  0
   17.9096   -2.5545  -17.7442 C   0  0  0  0  0  0  0  0  0  0  0  0
   16.1853   -0.5762  -18.5836 C   0  0  0  0  0  0  0  0  0  0  0  0
   17.0525   -1.8324  -16.6784 C   0  0  0  0  0  0  0  0  0  0  0  0
   15.8967   -1.0922  -17.2291 N   0  0  0  0  0  0  0  0  0  0  0  0
   15.4882   -0.0277  -16.3168 C   0  0  0  0  0  0  0  0  0  0  0  0
 12 13  1  0
 12 14  1  0
 13 15  2  0
 13  1  1  0
 14 16  2  0
 14 17  1  0
 15 18  1  0
  1  2  2  0
  1  3  1  0
 16 19  1  0
 17 20  2  0
  3  4  1  0
  3  5  1  0
 19 21  2  0
  4  6  1  0
  5  7  1  0
  6  8  2  0
  6  9  1  0
  8 10  1  0
  9 11  2  0
 11 22  1  0
 22 23  2  0
 22 24  1  0
 24 26  1  0
 26 27  1  0
 27 28  2  0
 27 29  1  0
 28 30  1  0
 29 31  2  0
 30 32  2  0
 32 33  1  0
 33 34  1  0
 33 35  1  0
 34 36  1  0
 35 37  1  0
 36 38  1  0
 38 39  1  0
 15 16  1  0
 20 21  1  0
  7  8  1  0
 10 11  1  0
 31 32  1  0
 37 38  1  0
 24 25  1  0
M  END
>  <Molecule Name>  (29) 
CTX-1020517

>  <SMILES>  (29) 
CN1CCN(CC1)C1=CC=C(CNC(=O)C2=CC3=C(CCN(C3)C(=O)C3=C(C)C4=C(S3)C=CC=C4)S2)C=C1

>  <Batch Name>  (29) 
CTX-1020517-1

>  <Batch Created Date>  (29) 
2021-11-04

>  <Batch ID>  (29) 
CTX-1020517-1

>  <External ID>  (29) 
610EDL074-B

>  <Stereochemistry>  (29) 
Achiral

>  <Amount 1>  (29) 
5.04

>  <Unit 1>  (29) 
mg

>  <CRO 1>  (29) 
Pharmaron

>  <CRO 1 Total Amount>  (29) 
24.4

>  <CRO 1 Unit>  (29) 
mg

>  <pIC50>  (29) 
5.540607

>  <SMILES_std>  (29) 
Cc1c(C(=O)N2CCc3sc(C(=O)NCc4ccc(N5CCN(C)CC5)cc4)cc3C2)sc2ccccc12

>  <embed_status>  (29) 
0

>  <mmff_status>  (29) 
0

>  <minimizedAffinity>  (29) 
-10.98319

>  <CNNscore>  (29) 
0.3009044230

>  <CNNaffinity>  (29) 
7.0769119263

>  <CNN_VS>  (29) 
2.1294741631

>  <CNNaffinity_variance>  (29) 
0.2000613958

>  <Docking_Rank>  (29) 
48

>  <Vina_Affinity_kcal_mol>  (29) 
-10.980

>  <CNN_pKi>  (29) 
7.077

>  <CNN_Pose_Score>  (29) 
0.3009

>  <Num_Docked_Poses>  (29) 
5

>  <MMGBSA_Rank>  (29) 
29

>  <MMGBSA_dG_kcal_mol>  (29) 
-65.505

>  <MMGBSA_VdW_kcal_mol>  (29) 
-65.201

>  <MMGBSA_Elec_kcal_mol>  (29) 
-4.807

>  <MMGBSA_PolarSolv_kcal_mol>  (29) 
13.353

>  <MMGBSA_NonPolarSolv_kcal_mol>  (29) 
-8.850

>  <MMGBSA_Status>  (29) 
S

$$$$
CTX-1020744
     RDKit          3D

 39 44  0  0  0  0  0  0  0  0999 V2000
   24.9365   -0.2686  -20.6968 S   0  0  0  0  0  0  0  0  0  0  0  0
   23.8296   -0.9986  -21.7864 C   0  0  0  0  0  0  0  0  0  0  0  0
   25.3278    0.9483  -21.8101 C   0  0  0  0  0  0  0  0  0  0  0  0
   23.7810   -0.3028  -22.9833 C   0  0  0  0  0  0  0  0  0  0  0  0
   24.6527    0.8301  -23.0077 C   0  0  0  0  0  0  0  0  0  0  0  0
   26.3147    2.0312  -21.5214 C   0  0  0  0  0  0  0  0  0  0  0  0
   24.8323    1.7855  -24.1552 C   0  0  0  0  0  0  0  0  0  0  0  0
   26.0335    3.2075  -22.4662 C   0  0  0  0  0  0  0  0  0  0  0  0
   25.8866    2.7703  -23.8647 N   0  0  0  0  0  0  0  0  0  0  0  0
   26.6637    3.3985  -24.8459 C   0  0  0  0  0  0  0  0  0  0  0  0
   27.6319    4.0879  -24.5179 O   0  0  0  0  0  0  0  0  0  0  0  0
   26.3211    3.2279  -26.2526 C   0  0  0  0  0  0  0  0  0  0  0  0
   25.7532    4.2635  -26.9539 O   0  0  0  0  0  0  0  0  0  0  0  0
   26.5491    2.1505  -27.1069 C   0  0  0  0  0  0  0  0  0  0  0  0
   25.5909    3.8428  -28.2334 C   0  0  0  0  0  0  0  0  0  0  0  0
   26.0640    2.5483  -28.3786 C   0  0  0  0  0  0  0  0  0  0  0  0
   27.1750    0.8509  -26.7623 C   0  0  0  0  0  0  0  0  0  0  0  0
   25.0410    4.5636  -29.2841 C   0  0  0  0  0  0  0  0  0  0  0  0
   26.0292    1.8787  -29.5587 N   0  0  0  0  0  0  0  0  0  0  0  0
   24.9992    3.8854  -30.5018 C   0  0  0  0  0  0  0  0  0  0  0  0
   25.4918    2.5848  -30.5810 C   0  0  0  0  0  0  0  0  0  0  0  0
   23.0638   -2.1921  -21.4454 C   0  0  0  0  0  0  0  0  0  0  0  0
   22.9170   -3.1282  -22.2289 O   0  0  0  0  0  0  0  0  0  0  0  0
   22.5057   -2.2065  -20.1857 N   0  0  0  0  0  0  0  0  0  0  0  0
   22.7446   -1.4905  -19.5536 H   0  0  0  0  0  0  0  0  0  0  0  0
   21.5847   -3.2307  -19.7579 C   0  0  0  0  0  0  0  0  0  0  0  0
   20.1687   -2.7211  -19.7970 C   0  0  0  0  0  0  0  0  0  0  0  0
   19.5235   -2.2941  -18.6336 C   0  0  0  0  0  0  0  0  0  0  0  0
   19.4861   -2.6182  -21.0112 C   0  0  0  0  0  0  0  0  0  0  0  0
   18.2138   -1.7954  -18.6842 C   0  0  0  0  0  0  0  0  0  0  0  0
   18.1788   -2.1190  -21.0511 C   0  0  0  0  0  0  0  0  0  0  0  0
   17.5022   -1.7101  -19.8898 C   0  0  0  0  0  0  0  0  0  0  0  0
   16.1941   -1.2081  -19.9841 N   0  0  0  0  0  0  0  0  0  0  0  0
   16.0565    0.2130  -19.5841 C   0  0  0  0  0  0  0  0  0  0  0  0
   15.3962   -1.5564  -21.1771 C   0  0  0  0  0  0  0  0  0  0  0  0
   14.5656    0.6186  -19.4738 C   0  0  0  0  0  0  0  0  0  0  0  0
   13.9231   -1.1121  -21.0091 C   0  0  0  0  0  0  0  0  0  0  0  0
   13.7255    0.3101  -20.6520 N   0  0  0  0  0  0  0  0  0  0  0  0
   14.0245    1.1969  -21.7734 C   0  0  0  0  0  0  0  0  0  0  0  0
  1  2  1  0
  1  3  1  0
  2 22  1  0
  2  4  2  0
  3  5  2  0
  3  6  1  0
 22 23  2  0
 22 24  1  0
  5  7  1  0
  6  8  1  0
 24 26  1  0
  7  9  1  0
 26 27  1  0
  9 10  1  0
 27 28  2  0
 27 29  1  0
 10 11  2  0
 10 12  1  0
 28 30  1  0
 29 31  2  0
 12 13  1  0
 12 14  2  0
 30 32  2  0
 13 15  1  0
 14 16  1  0
 14 17  1  0
 32 33  1  0
 15 18  2  0
 16 19  2  0
 33 34  1  0
 33 35  1  0
 18 20  1  0
 19 21  1  0
 34 36  1  0
 35 37  1  0
 36 38  1  0
 38 39  1  0
  4  5  1  0
  8  9  1  0
 31 32  1  0
 15 16  1  0
 20 21  2  0
 37 38  1  0
 24 25  1  0
M  END
>  <Molecule Name>  (30) 
CTX-1020744

>  <SMILES>  (30) 
CN1CCN(CC1)C1=CC=C(CNC(=O)C2=CC3=C(CCN(C3)C(=O)C3=C(C)C4=C(O3)C=CC=N4)S2)C=C1

>  <Batch Name>  (30) 
CTX-1020744-1

>  <Batch Created Date>  (30) 
2021-12-16

>  <Batch ID>  (30) 
CTX-1020744-1

>  <External ID>  (30) 
P841-0359

>  <Stereochemistry>  (30) 
Achiral

>  <Amount 1>  (30) 
4.05

>  <Unit 1>  (30) 
mg

>  <CRO 1>  (30) 
Pharmaron

>  <CRO 1 Total Amount>  (30) 
26.95

>  <CRO 1 Unit>  (30) 
mg

>  <pIC50>  (30) 
4.427128

>  <SMILES_std>  (30) 
Cc1c(C(=O)N2CCc3sc(C(=O)NCc4ccc(N5CCN(C)CC5)cc4)cc3C2)oc2cccnc12

>  <embed_status>  (30) 
0

>  <mmff_status>  (30) 
0

>  <minimizedAffinity>  (30) 
-10.88325

>  <CNNscore>  (30) 
0.2930847704

>  <CNNaffinity>  (30) 
7.0367283821

>  <CNN_VS>  (30) 
2.0623579025

>  <CNNaffinity_variance>  (30) 
0.2637191713

>  <Docking_Rank>  (30) 
51

>  <Vina_Affinity_kcal_mol>  (30) 
-10.880

>  <CNN_pKi>  (30) 
7.037

>  <CNN_Pose_Score>  (30) 
0.2931

>  <Num_Docked_Poses>  (30) 
5

>  <MMGBSA_Rank>  (30) 
30

>  <MMGBSA_dG_kcal_mol>  (30) 
-65.203

>  <MMGBSA_VdW_kcal_mol>  (30) 
-66.053

>  <MMGBSA_Elec_kcal_mol>  (30) 
-2.332

>  <MMGBSA_PolarSolv_kcal_mol>  (30) 
12.051

>  <MMGBSA_NonPolarSolv_kcal_mol>  (30) 
-8.869

>  <MMGBSA_Status>  (30) 
S

$$$$
CTX-1020902
     RDKit          3D

 39 44  0  0  0  0  0  0  0  0999 V2000
   27.2979    3.6435  -24.3790 O   0  0  0  0  0  0  0  0  0  0  0  0
   26.4743    2.8758  -24.8811 C   0  0  0  0  0  0  0  0  0  0  0  0
   25.7429    2.0009  -24.0716 N   0  0  0  0  0  0  0  0  0  0  0  0
   25.8934    2.1500  -22.6258 C   0  0  0  0  0  0  0  0  0  0  0  0
   25.2821    0.6835  -24.5051 C   0  0  0  0  0  0  0  0  0  0  0  0
   24.8001    1.4764  -21.8192 C   0  0  0  0  0  0  0  0  0  0  0  0
   23.9057    0.3825  -23.9158 C   0  0  0  0  0  0  0  0  0  0  0  0
   24.7900    1.7264  -20.4856 N   0  0  0  0  0  0  0  0  0  0  0  0
   23.8758    0.6210  -22.4289 C   0  0  0  0  0  0  0  0  0  0  0  0
   23.8184    1.1508  -19.7270 C   0  0  0  0  0  0  0  0  0  0  0  0
   22.8898    0.0362  -21.6321 C   0  0  0  0  0  0  0  0  0  0  0  0
   22.8626    0.2967  -20.2658 C   0  0  0  0  0  0  0  0  0  0  0  0
   26.2215    2.8753  -26.3147 C   0  0  0  0  0  0  0  0  0  0  0  0
   25.6096    3.9547  -26.8958 O   0  0  0  0  0  0  0  0  0  0  0  0
   26.5802    1.9561  -27.2960 C   0  0  0  0  0  0  0  0  0  0  0  0
   25.5455    3.7212  -28.2315 C   0  0  0  0  0  0  0  0  0  0  0  0
   26.1286    2.4996  -28.5376 C   0  0  0  0  0  0  0  0  0  0  0  0
   27.2979    0.6732  -27.0823 C   0  0  0  0  0  0  0  0  0  0  0  0
   24.9812    4.5803  -29.1718 C   0  0  0  0  0  0  0  0  0  0  0  0
   26.1581    2.0962  -29.8862 C   0  0  0  0  0  0  0  0  0  0  0  0
   25.0181    4.1588  -30.5045 C   0  0  0  0  0  0  0  0  0  0  0  0
   25.5965    2.9375  -30.8579 C   0  0  0  0  0  0  0  0  0  0  0  0
   23.8254    1.4320  -18.2311 C   0  0  0  0  0  0  0  0  0  0  0  0
   22.6069    0.9951  -17.5325 N   0  0  0  0  0  0  0  0  0  0  0  0
   22.8332    0.8085  -16.5556 H   0  0  0  0  0  0  0  0  0  0  0  0
   21.5618    2.0177  -17.5923 C   0  0  0  0  0  0  0  0  0  0  0  0
   20.2319    1.3990  -17.9486 C   0  0  0  0  0  0  0  0  0  0  0  0
   19.0368    2.0203  -17.5705 C   0  0  0  0  0  0  0  0  0  0  0  0
   20.1644    0.1780  -18.6232 C   0  0  0  0  0  0  0  0  0  0  0  0
   17.7995    1.4420  -17.8828 C   0  0  0  0  0  0  0  0  0  0  0  0
   18.9239   -0.3913  -18.9333 C   0  0  0  0  0  0  0  0  0  0  0  0
   17.7147    0.2261  -18.5728 C   0  0  0  0  0  0  0  0  0  0  0  0
   16.5036   -0.3912  -18.9168 N   0  0  0  0  0  0  0  0  0  0  0  0
   15.2354    0.3522  -18.7716 C   0  0  0  0  0  0  0  0  0  0  0  0
   16.6077   -1.1942  -20.1618 C   0  0  0  0  0  0  0  0  0  0  0  0
   14.6682    0.7819  -20.1425 C   0  0  0  0  0  0  0  0  0  0  0  0
   15.2102   -1.5291  -20.7319 C   0  0  0  0  0  0  0  0  0  0  0  0
   14.4126   -0.3316  -21.0866 N   0  0  0  0  0  0  0  0  0  0  0  0
   12.9934   -0.6671  -21.1595 C   0  0  0  0  0  0  0  0  0  0  0  0
  1  2  2  0
  2  3  1  0
  2 13  1  0
  3  4  1  0
  3  5  1  0
 13 14  1  0
 13 15  2  0
  4  6  1  0
  5  7  1  0
 14 16  1  0
 15 17  1  0
 15 18  1  0
  6  8  2  0
  6  9  1  0
 16 19  2  0
 17 20  2  0
  8 10  1  0
  9 11  2  0
 19 21  1  0
 20 22  1  0
 10 12  2  0
 10 23  1  0
 23 24  1  0
 24 26  1  0
 26 27  1  0
 27 28  2  0
 27 29  1  0
 28 30  1  0
 29 31  2  0
 30 32  2  0
 32 33  1  0
 33 34  1  0
 33 35  1  0
 34 36  1  0
 35 37  1  0
 36 38  1  0
 38 39  1  0
  7  9  1  0
 16 17  1  0
 11 12  1  0
 21 22  2  0
 31 32  1  0
 37 38  1  0
 24 25  1  0
M  END
>  <Molecule Name>  (31) 
CTX-1020902

>  <SMILES>  (31) 
CN1CCN(CC1)C1=CC=C(CNCC2=CC=C3CCN(CC3=N2)C(=O)C2=C(C)C3=CC=CC=C3O2)C=C1

>  <Batch Name>  (31) 
CTX-1020902-1

>  <Batch Created Date>  (31) 
2022-01-20

>  <Batch ID>  (31) 
CTX-1020902-1

>  <External ID>  (31) 
P841-0274

>  <Stereochemistry>  (31) 
Achiral

>  <Amount 1>  (31) 
2.8

>  <Unit 1>  (31) 
mg

>  <CRO 1>  (31) 
Pharmaron

>  <CRO 1 Total Amount>  (31) 
2.1

>  <CRO 1 Unit>  (31) 
mg

>  <pIC50>  (31) 
4.341035

>  <SMILES_std>  (31) 
Cc1c(C(=O)N2CCc3ccc(CNCc4ccc(N5CCN(C)CC5)cc4)nc3C2)oc2ccccc12

>  <embed_status>  (31) 
0

>  <mmff_status>  (31) 
0

>  <minimizedAffinity>  (31) 
-12.17404

>  <CNNscore>  (31) 
0.6155257821

>  <CNNaffinity>  (31) 
7.2182407379

>  <CNN_VS>  (31) 
4.4430131912

>  <CNNaffinity_variance>  (31) 
0.4162392914

>  <Docking_Rank>  (31) 
41

>  <Vina_Affinity_kcal_mol>  (31) 
-12.170

>  <CNN_pKi>  (31) 
7.219

>  <CNN_Pose_Score>  (31) 
0.6159

>  <Num_Docked_Poses>  (31) 
5

>  <MMGBSA_Rank>  (31) 
31

>  <MMGBSA_dG_kcal_mol>  (31) 
-62.686

>  <MMGBSA_VdW_kcal_mol>  (31) 
-63.966

>  <MMGBSA_Elec_kcal_mol>  (31) 
-6.674

>  <MMGBSA_PolarSolv_kcal_mol>  (31) 
16.561

>  <MMGBSA_NonPolarSolv_kcal_mol>  (31) 
-8.607

>  <MMGBSA_Status>  (31) 
S

$$$$
CTX-1019473
     RDKit          3D

 36 40  0  0  0  0  0  0  0  0999 V2000
   30.5610    6.2100  -23.0164 C   0  0  0  0  0  0  0  0  0  0  0  0
   29.8964    5.4338  -23.9198 N   0  0  0  0  0  0  0  0  0  0  0  0
   30.4889    6.0336  -21.6431 C   0  0  0  0  0  0  0  0  0  0  0  0
   29.1249    4.4315  -23.4273 C   0  0  0  0  0  0  0  0  0  0  0  0
   29.6945    5.0013  -21.1579 C   0  0  0  0  0  0  0  0  0  0  0  0
   29.0100    4.1757  -22.0553 C   0  0  0  0  0  0  0  0  0  0  0  0
   28.3815    3.5883  -24.4480 C   0  0  0  0  0  0  0  0  0  0  0  0
   28.1251    3.0659  -21.5577 C   0  0  0  0  0  0  0  0  0  0  0  0
   27.5435    2.5244  -23.8874 N   0  0  0  0  0  0  0  0  0  0  0  0
   27.9769    1.9696  -22.6091 C   0  0  0  0  0  0  0  0  0  0  0  0
   26.4769    1.9175  -24.5628 C   0  0  0  0  0  0  0  0  0  0  0  0
   25.7587    1.1080  -23.9708 O   0  0  0  0  0  0  0  0  0  0  0  0
   26.2152    2.2562  -25.9576 C   0  0  0  0  0  0  0  0  0  0  0  0
   25.6544    3.4621  -26.2819 O   0  0  0  0  0  0  0  0  0  0  0  0
   26.5170    1.5566  -27.1237 C   0  0  0  0  0  0  0  0  0  0  0  0
   25.5663    3.5294  -27.6343 C   0  0  0  0  0  0  0  0  0  0  0  0
   26.0846    2.3783  -28.2096 C   0  0  0  0  0  0  0  0  0  0  0  0
   27.1645    0.2220  -27.2100 C   0  0  0  0  0  0  0  0  0  0  0  0
   25.0367    4.5984  -28.3535 C   0  0  0  0  0  0  0  0  0  0  0  0
   26.0816    2.2775  -29.6138 C   0  0  0  0  0  0  0  0  0  0  0  0
   25.0404    4.4764  -29.7464 C   0  0  0  0  0  0  0  0  0  0  0  0
   25.5541    3.3360  -30.3681 C   0  0  0  0  0  0  0  0  0  0  0  0
   30.9628    8.1127  -24.3923 O   0  0  0  0  0  0  0  0  0  0  0  0
   31.4111    7.3069  -23.5849 C   0  0  0  0  0  0  0  0  0  0  0  0
   32.7039    7.3187  -23.1104 N   0  0  0  0  0  0  0  0  0  0  0  0
   33.0097    6.5625  -22.5592 H   0  0  0  0  0  0  0  0  0  0  0  0
   33.6284    8.3886  -23.3850 C   0  0  0  0  0  0  0  0  0  0  0  0
   34.3080    8.1815  -24.7118 C   0  0  0  0  0  0  0  0  0  0  0  0
   35.6984    8.1424  -24.8133 C   0  0  0  0  0  0  0  0  0  0  0  0
   33.5583    8.0548  -25.8815 C   0  0  0  0  0  0  0  0  0  0  0  0
   36.3189    7.9686  -26.0601 C   0  0  0  0  0  0  0  0  0  0  0  0
   34.1898    7.8812  -27.1220 C   0  0  0  0  0  0  0  0  0  0  0  0
   35.5889    7.8446  -27.2561 C   0  0  0  0  0  0  0  0  0  0  0  0
   36.2176    7.6540  -28.4937 N   0  0  0  0  0  0  0  0  0  0  0  0
   35.7454    8.4089  -29.6527 C   0  0  0  0  0  0  0  0  0  0  0  0
   37.6323    7.2868  -28.5136 C   0  0  0  0  0  0  0  0  0  0  0  0
 23 24  2  0
 24 25  1  0
 24  1  1  0
 25 27  1  0
  1  2  2  0
  1  3  1  0
 27 28  1  0
  2  4  1  0
  3  5  2  0
 28 29  2  0
 28 30  1  0
  4  6  2  0
  4  7  1  0
 29 31  1  0
 30 32  2  0
  6  8  1  0
  7  9  1  0
 31 33  2  0
  8 10  1  0
  9 11  1  0
 33 34  1  0
 11 12  2  0
 11 13  1  0
 34 35  1  0
 34 36  1  0
 13 14  1  0
 13 15  2  0
 14 16  1  0
 15 17  1  0
 15 18  1  0
 16 19  2  0
 17 20  2  0
 19 21  1  0
 20 22  1  0
  5  6  1  0
 32 33  1  0
  9 10  1  0
 16 17  1  0
 21 22  2  0
 25 26  1  0
M  END
>  <Molecule Name>  (32) 
CTX-1019473

>  <SMILES>  (32) 
CN(C)C1=CC=C(CNC(=O)C2=NC3=C(CCN(C3)C(=O)C3=C(C)C4=C(O3)C=CC=C4)C=C2)C=C1

>  <Batch Name>  (32) 
CTX-1019473-1

>  <Batch Created Date>  (32) 
2021-07-30

>  <Batch ID>  (32) 
CTX-1019473-1

>  <External ID>  (32) 
P841-0086

>  <Stereochemistry>  (32) 
Achiral

>  <Amount 1>  (32) 
1.9

>  <Unit 1>  (32) 
mg

>  <CRO 1>  (32) 
Pharmaron

>  <CRO 1 Total Amount>  (32) 
10.9

>  <CRO 1 Unit>  (32) 
mg

>  <pIC50>  (32) 
6.057992

>  <SMILES_std>  (32) 
Cc1c(C(=O)N2CCc3ccc(C(=O)NCc4ccc(N(C)C)cc4)nc3C2)oc2ccccc12

>  <embed_status>  (32) 
0

>  <mmff_status>  (32) 
0

>  <minimizedAffinity>  (32) 
-10.14860

>  <CNNscore>  (32) 
0.6974368095

>  <CNNaffinity>  (32) 
7.7403588295

>  <CNN_VS>  (32) 
5.3984112740

>  <CNNaffinity_variance>  (32) 
0.1235584989

>  <Docking_Rank>  (32) 
11

>  <Vina_Affinity_kcal_mol>  (32) 
-10.150

>  <CNN_pKi>  (32) 
7.740

>  <CNN_Pose_Score>  (32) 
0.6974

>  <Num_Docked_Poses>  (32) 
5

>  <MMGBSA_Rank>  (32) 
32

>  <MMGBSA_dG_kcal_mol>  (32) 
-62.264

>  <MMGBSA_VdW_kcal_mol>  (32) 
-62.564

>  <MMGBSA_Elec_kcal_mol>  (32) 
-0.106

>  <MMGBSA_PolarSolv_kcal_mol>  (32) 
8.506

>  <MMGBSA_NonPolarSolv_kcal_mol>  (32) 
-8.101

>  <MMGBSA_Status>  (32) 
S

$$$$
CTX-1020696
     RDKit          3D

 39 44  0  0  0  0  0  0  0  0999 V2000
   30.7191    6.5164  -23.2267 C   0  0  0  0  0  0  0  0  0  0  0  0
   30.0262    5.6999  -24.0714 N   0  0  0  0  0  0  0  0  0  0  0  0
   30.6835    6.4103  -21.8448 C   0  0  0  0  0  0  0  0  0  0  0  0
   29.2622    4.7296  -23.5080 C   0  0  0  0  0  0  0  0  0  0  0  0
   29.8963    5.4100  -21.2867 C   0  0  0  0  0  0  0  0  0  0  0  0
   29.1826    4.5450  -22.1221 C   0  0  0  0  0  0  0  0  0  0  0  0
   28.4868    3.8407  -24.4643 C   0  0  0  0  0  0  0  0  0  0  0  0
   28.3039    3.4691  -21.5448 C   0  0  0  0  0  0  0  0  0  0  0  0
   27.6552    2.8157  -23.8273 N   0  0  0  0  0  0  0  0  0  0  0  0
   28.1186    2.3224  -22.5344 C   0  0  0  0  0  0  0  0  0  0  0  0
   26.5640    2.1873  -24.4409 C   0  0  0  0  0  0  0  0  0  0  0  0
   25.8529    1.4197  -23.7876 O   0  0  0  0  0  0  0  0  0  0  0  0
   26.2691    2.4546  -25.8444 C   0  0  0  0  0  0  0  0  0  0  0  0
   25.7859    3.6769  -26.2276 O   0  0  0  0  0  0  0  0  0  0  0  0
   26.4686    1.6608  -26.9714 C   0  0  0  0  0  0  0  0  0  0  0  0
   25.6465    3.6644  -27.5773 C   0  0  0  0  0  0  0  0  0  0  0  0
   26.0531    2.4424  -28.0930 C   0  0  0  0  0  0  0  0  0  0  0  0
   27.0114    0.2778  -26.9922 C   0  0  0  0  0  0  0  0  0  0  0  0
   25.1688    4.7230  -28.3463 C   0  0  0  0  0  0  0  0  0  0  0  0
   25.9839    2.2527  -29.4863 C   0  0  0  0  0  0  0  0  0  0  0  0
   25.1052    4.5124  -29.7271 C   0  0  0  0  0  0  0  0  0  0  0  0
   25.5058    3.2984  -30.2897 C   0  0  0  0  0  0  0  0  0  0  0  0
   31.2826    8.0303  -24.9779 O   0  0  0  0  0  0  0  0  0  0  0  0
   31.5590    7.5775  -23.8730 C   0  0  0  0  0  0  0  0  0  0  0  0
   32.6333    7.9839  -23.1132 N   0  0  0  0  0  0  0  0  0  0  0  0
   32.8449    7.4835  -22.2921 H   0  0  0  0  0  0  0  0  0  0  0  0
   33.4610    9.1085  -23.4663 C   0  0  0  0  0  0  0  0  0  0  0  0
   34.4056    8.7495  -24.5835 C   0  0  0  0  0  0  0  0  0  0  0  0
   35.0342    9.7556  -25.3272 C   0  0  0  0  0  0  0  0  0  0  0  0
   34.7027    7.4124  -24.8714 C   0  0  0  0  0  0  0  0  0  0  0  0
   35.9280    9.4314  -26.3507 C   0  0  0  0  0  0  0  0  0  0  0  0
   35.5967    7.0887  -25.8960 C   0  0  0  0  0  0  0  0  0  0  0  0
   36.2170    8.0932  -26.6526 C   0  0  0  0  0  0  0  0  0  0  0  0
   37.1885    7.7154  -27.7549 C   0  0  0  0  0  0  0  0  0  0  0  0
   36.8725    8.3942  -29.0917 C   0  0  0  0  0  0  0  0  0  0  0  0
   38.6488    7.9841  -27.3506 C   0  0  0  0  0  0  0  0  0  0  0  0
   37.8289    7.9055  -30.1796 C   0  0  0  0  0  0  0  0  0  0  0  0
   39.5379    8.2351  -28.5649 C   0  0  0  0  0  0  0  0  0  0  0  0
   39.0888    7.4614  -29.6715 O   0  0  0  0  0  0  0  0  0  0  0  0
 23 24  2  0
 24 25  1  0
 24  1  1  0
 25 27  1  0
  1  2  2  0
  1  3  1  0
 27 28  1  0
  2  4  1  0
  3  5  2  0
 28 29  2  0
 28 30  1  0
  4  6  2  0
  4  7  1  0
 29 31  1  0
 30 32  2  0
  6  8  1  0
  7  9  1  0
 31 33  2  0
  8 10  1  0
  9 11  1  0
 33 34  1  0
 11 12  2  0
 11 13  1  0
 34 35  1  0
 34 36  1  0
 13 14  1  0
 13 15  2  0
 35 37  1  0
 36 38  1  0
 14 16  1  0
 15 17  1  0
 15 18  1  0
 37 39  1  0
 16 19  2  0
 17 20  2  0
 19 21  1  0
 20 22  1  0
  5  6  1  0
 32 33  1  0
  9 10  1  0
 38 39  1  0
 16 17  1  0
 21 22  2  0
 25 26  1  0
M  END
>  <Molecule Name>  (33) 
CTX-1020696

>  <SMILES>  (33) 
CC1=C(OC2=C1C=CC=C2)C(=O)N1CCC2=CC=C(N=C2C1)C(=O)NCC1=CC=C(C=C1)C1CCOCC1

>  <Batch Name>  (33) 
CTX-1020696-1

>  <Batch Created Date>  (33) 
2021-12-09

>  <Batch ID>  (33) 
CTX-1020696-1

>  <External ID>  (33) 
CD-42-B

>  <Stereochemistry>  (33) 
Achiral

>  <Amount 1>  (33) 
2.3

>  <Unit 1>  (33) 
mg

>  <CRO 1>  (33) 
Pharmaron

>  <CRO 1 Total Amount>  (33) 
20.5

>  <CRO 1 Unit>  (33) 
mg

>  <pIC50>  (33) 
5.879426

>  <SMILES_std>  (33) 
Cc1c(C(=O)N2CCc3ccc(C(=O)NCc4ccc(C5CCOCC5)cc4)nc3C2)oc2ccccc12

>  <embed_status>  (33) 
0

>  <mmff_status>  (33) 
0

>  <minimizedAffinity>  (33) 
-9.30746

>  <CNNscore>  (33) 
0.4392003119

>  <CNNaffinity>  (33) 
7.5271487236

>  <CNN_VS>  (33) 
3.3059260845

>  <CNNaffinity_variance>  (33) 
0.2196160555

>  <Docking_Rank>  (33) 
18

>  <Vina_Affinity_kcal_mol>  (33) 
-9.310

>  <CNN_pKi>  (33) 
7.527

>  <CNN_Pose_Score>  (33) 
0.4392

>  <Num_Docked_Poses>  (33) 
5

>  <MMGBSA_Rank>  (33) 
33

>  <MMGBSA_dG_kcal_mol>  (33) 
-59.972

>  <MMGBSA_VdW_kcal_mol>  (33) 
-59.659

>  <MMGBSA_Elec_kcal_mol>  (33) 
-0.879

>  <MMGBSA_PolarSolv_kcal_mol>  (33) 
8.868

>  <MMGBSA_NonPolarSolv_kcal_mol>  (33) 
-8.302

>  <MMGBSA_Status>  (33) 
S

$$$$
CTX-1020670
     RDKit          3D

 32 36  0  0  0  0  0  0  0  0999 V2000
   24.9127    1.3534  -25.4025 C   0  0  0  0  0  0  0  0  0  0  0  0
   24.1696    0.3837  -25.2570 O   0  0  0  0  0  0  0  0  0  0  0  0
   25.5149    1.9768  -24.3022 N   0  0  0  0  0  0  0  0  0  0  0  0
   25.1766    1.4237  -22.9851 C   0  0  0  0  0  0  0  0  0  0  0  0
   26.0366    3.3575  -24.3314 C   0  0  0  0  0  0  0  0  0  0  0  0
   26.1632    1.8729  -21.9466 C   0  0  0  0  0  0  0  0  0  0  0  0
   27.3212    3.5047  -23.5022 C   0  0  0  0  0  0  0  0  0  0  0  0
   27.1288    2.8294  -22.1849 C   0  0  0  0  0  0  0  0  0  0  0  0
   26.2391    1.4066  -20.5975 C   0  0  0  0  0  0  0  0  0  0  0  0
   28.1026    3.1488  -20.8341 S   0  0  0  0  0  0  0  0  0  0  0  0
   27.2507    2.0125  -19.8705 C   0  0  0  0  0  0  0  0  0  0  0  0
   26.7548   -0.1951  -27.6026 Cl  0  0  0  0  0  0  0  0  0  0  0  0
   25.9845    1.3371  -27.7047 C   0  0  0  0  0  0  0  0  0  0  0  0
   25.2020    1.8844  -26.7150 C   0  0  0  0  0  0  0  0  0  0  0  0
   26.0745    2.1750  -28.8723 C   0  0  0  0  0  0  0  0  0  0  0  0
   24.6029    3.4203  -27.1460 S   0  0  0  0  0  0  0  0  0  0  0  0
   25.3515    3.3596  -28.6956 C   0  0  0  0  0  0  0  0  0  0  0  0
   26.7495    1.9931  -30.1080 C   0  0  0  0  0  0  0  0  0  0  0  0
   25.2865    4.3453  -29.7006 C   0  0  0  0  0  0  0  0  0  0  0  0
   26.6865    2.9682  -31.1080 C   0  0  0  0  0  0  0  0  0  0  0  0
   25.9611    4.1323  -30.9041 C   0  0  0  0  0  0  0  0  0  0  0  0
   27.5859    1.7604  -18.4733 C   0  0  0  0  0  0  0  0  0  0  0  0
   28.0893    2.6173  -17.7499 O   0  0  0  0  0  0  0  0  0  0  0  0
   27.3077    0.4927  -18.0099 N   0  0  0  0  0  0  0  0  0  0  0  0
   26.8034   -0.1233  -18.5891 H   0  0  0  0  0  0  0  0  0  0  0  0
   27.7273    0.0345  -16.7082 C   0  0  0  0  0  0  0  0  0  0  0  0
   28.7562    0.9667  -16.1236 C   0  0  0  0  0  0  0  0  0  0  0  0
   30.1068    0.8397  -16.4801 C   0  0  0  0  0  0  0  0  0  0  0  0
   28.3899    1.9454  -15.1888 C   0  0  0  0  0  0  0  0  0  0  0  0
   31.0686    1.6842  -15.9247 C   0  0  0  0  0  0  0  0  0  0  0  0
   29.3539    2.7898  -14.6349 C   0  0  0  0  0  0  0  0  0  0  0  0
   30.6917    2.6598  -15.0037 C   0  0  0  0  0  0  0  0  0  0  0  0
 12 13  1  0
 13 14  2  0
 13 15  1  0
 14 16  1  0
 14  1  1  0
 15 17  2  0
 15 18  1  0
  1  2  2  0
  1  3  1  0
 17 19  1  0
 18 20  2  0
  3  4  1  0
  3  5  1  0
 19 21  2  0
  4  6  1  0
  5  7  1  0
  6  8  2  0
  6  9  1  0
  8 10  1  0
  9 11  2  0
 11 22  1  0
 22 23  2  0
 22 24  1  0
 24 26  1  0
 26 27  1  0
 27 28  2  0
 27 29  1  0
 28 30  1  0
 29 31  2  0
 30 32  2  0
 16 17  1  0
 20 21  1  0
  7  8  1  0
 10 11  1  0
 31 32  1  0
 24 25  1  0
M  END
>  <Molecule Name>  (34) 
CTX-1020670

>  <SMILES>  (34) 
ClC1=C(SC2=C1C=CC=C2)C(=O)N1CCC2=C(C1)C=C(S2)C(=O)NCC1=CC=CC=C1

>  <Batch Name>  (34) 
CTX-1020670-1

>  <Batch Created Date>  (34) 
2021-12-03

>  <Batch ID>  (34) 
CTX-1020670-1

>  <External ID>  (34) 
610EDL217-3

>  <Stereochemistry>  (34) 
Achiral

>  <Amount 1>  (34) 
6.9

>  <Unit 1>  (34) 
mg

>  <CRO 1>  (34) 
Pharmaron

>  <CRO 1 Total Amount>  (34) 
35.5

>  <CRO 1 Unit>  (34) 
mg

>  <pIC50>  (34) 
5.90309

>  <SMILES_std>  (34) 
O=C(NCc1ccccc1)c1cc2c(s1)CCN(C(=O)c1sc3ccccc3c1Cl)C2

>  <embed_status>  (34) 
0

>  <mmff_status>  (34) 
0

>  <minimizedAffinity>  (34) 
-9.37095

>  <CNNscore>  (34) 
0.6342091560

>  <CNNaffinity>  (34) 
7.2543969154

>  <CNN_VS>  (34) 
4.6008048058

>  <CNNaffinity_variance>  (34) 
0.1164770722

>  <Docking_Rank>  (34) 
38

>  <Vina_Affinity_kcal_mol>  (34) 
-9.370

>  <CNN_pKi>  (34) 
7.254

>  <CNN_Pose_Score>  (34) 
0.6342

>  <Num_Docked_Poses>  (34) 
5

>  <MMGBSA_Rank>  (34) 
34

>  <MMGBSA_dG_kcal_mol>  (34) 
-58.850

>  <MMGBSA_VdW_kcal_mol>  (34) 
-57.611

>  <MMGBSA_Elec_kcal_mol>  (34) 
-3.272

>  <MMGBSA_PolarSolv_kcal_mol>  (34) 
9.428

>  <MMGBSA_NonPolarSolv_kcal_mol>  (34) 
-7.395

>  <MMGBSA_Status>  (34) 
S

$$$$
CTX-1020770
     RDKit          3D

 31 35  0  0  0  0  0  0  0  0999 V2000
   21.9522   -1.3275  -22.2381 S   0  0  0  0  0  0  0  0  0  0  0  0
   22.9522   -1.2366  -20.8425 C   0  0  0  0  0  0  0  0  0  0  0  0
   23.0012   -0.3462  -23.1350 C   0  0  0  0  0  0  0  0  0  0  0  0
   24.0632   -0.4430  -21.0862 C   0  0  0  0  0  0  0  0  0  0  0  0
   24.0986    0.0765  -22.4208 C   0  0  0  0  0  0  0  0  0  0  0  0
   22.7418    0.0405  -24.5472 C   0  0  0  0  0  0  0  0  0  0  0  0
   25.1644    0.9568  -22.9984 C   0  0  0  0  0  0  0  0  0  0  0  0
   24.0687    0.4259  -25.2190 C   0  0  0  0  0  0  0  0  0  0  0  0
   24.9047    1.3228  -24.3970 N   0  0  0  0  0  0  0  0  0  0  0  0
   25.7748    2.2946  -24.9227 C   0  0  0  0  0  0  0  0  0  0  0  0
   26.4125    3.0222  -24.1566 O   0  0  0  0  0  0  0  0  0  0  0  0
   25.9169    2.4376  -26.3647 C   0  0  0  0  0  0  0  0  0  0  0  0
   25.3274    3.4924  -27.0092 O   0  0  0  0  0  0  0  0  0  0  0  0
   26.5049    1.5894  -27.2986 C   0  0  0  0  0  0  0  0  0  0  0  0
   25.5648    3.3486  -28.3381 C   0  0  0  0  0  0  0  0  0  0  0  0
   26.2896    2.1897  -28.5770 C   0  0  0  0  0  0  0  0  0  0  0  0
   27.2072    0.3126  -27.0109 C   0  0  0  0  0  0  0  0  0  0  0  0
   25.1414    4.2295  -29.3306 C   0  0  0  0  0  0  0  0  0  0  0  0
   26.6196    1.8742  -29.9088 C   0  0  0  0  0  0  0  0  0  0  0  0
   25.4834    3.8995  -30.6457 C   0  0  0  0  0  0  0  0  0  0  0  0
   26.2101    2.7416  -30.9321 C   0  0  0  0  0  0  0  0  0  0  0  0
   22.5443   -1.9478  -19.6354 C   0  0  0  0  0  0  0  0  0  0  0  0
   22.8913   -1.6361  -18.4972 O   0  0  0  0  0  0  0  0  0  0  0  0
   21.7027   -3.0224  -19.8496 N   0  0  0  0  0  0  0  0  0  0  0  0
   21.5501   -3.3450  -20.7672 H   0  0  0  0  0  0  0  0  0  0  0  0
   21.0437   -3.6787  -18.7437 C   0  0  0  0  0  0  0  0  0  0  0  0
   19.9956   -2.7524  -18.2167 C   0  0  0  0  0  0  0  0  0  0  0  0
   20.0621   -2.3564  -16.8832 N   0  0  0  0  0  0  0  0  0  0  0  0
   18.9121   -2.2519  -18.9159 C   0  0  0  0  0  0  0  0  0  0  0  0
   19.0508   -1.5608  -16.6116 C   0  0  0  0  0  0  0  0  0  0  0  0
   17.9658   -1.2467  -17.9008 S   0  0  0  0  0  0  0  0  0  0  0  0
  1  2  1  0
  1  3  1  0
  2 22  1  0
  2  4  2  0
  3  5  2  0
  3  6  1  0
 22 23  2  0
 22 24  1  0
  5  7  1  0
  6  8  1  0
 24 26  1  0
  7  9  1  0
 26 27  1  0
  9 10  1  0
 27 28  1  0
 27 29  2  0
 10 11  2  0
 10 12  1  0
 28 30  2  0
 29 31  1  0
 12 13  1  0
 12 14  2  0
 13 15  1  0
 14 16  1  0
 14 17  1  0
 15 18  2  0
 16 19  2  0
 18 20  1  0
 19 21  1  0
  4  5  1  0
  8  9  1  0
 30 31  1  0
 15 16  1  0
 20 21  2  0
 24 25  1  0
M  END
>  <Molecule Name>  (35) 
CTX-1020770

>  <SMILES>  (35) 
CC1=C(OC2=C1C=CC=C2)C(=O)N1CCC2=C(C1)C=C(S2)C(=O)NCC1=CSC=N1

>  <Batch Name>  (35) 
CTX-1020770-1

>  <Batch Created Date>  (35) 
2021-12-16

>  <Batch ID>  (35) 
CTX-1020770-1

>  <External ID>  (35) 
P841-0351

>  <Stereochemistry>  (35) 
Achiral

>  <Amount 1>  (35) 
2.45

>  <Unit 1>  (35) 
mg

>  <CRO 1>  (35) 
Pharmaron

>  <CRO 1 Total Amount>  (35) 
11.65

>  <CRO 1 Unit>  (35) 
mg

>  <pIC50>  (35) 
4.548214

>  <SMILES_std>  (35) 
Cc1c(C(=O)N2CCc3sc(C(=O)NCc4cscn4)cc3C2)oc2ccccc12

>  <embed_status>  (35) 
0

>  <mmff_status>  (35) 
0

>  <minimizedAffinity>  (35) 
-10.57510

>  <CNNscore>  (35) 
0.3739886284

>  <CNNaffinity>  (35) 
6.5807061195

>  <CNN_VS>  (35) 
2.4611091614

>  <CNNaffinity_variance>  (35) 
0.0972878933

>  <Docking_Rank>  (35) 
65

>  <Vina_Affinity_kcal_mol>  (35) 
-10.580

>  <CNN_pKi>  (35) 
6.581

>  <CNN_Pose_Score>  (35) 
0.3743

>  <Num_Docked_Poses>  (35) 
5

>  <MMGBSA_Rank>  (35) 
35

>  <MMGBSA_dG_kcal_mol>  (35) 
-57.705

>  <MMGBSA_VdW_kcal_mol>  (35) 
-58.378

>  <MMGBSA_Elec_kcal_mol>  (35) 
2.377

>  <MMGBSA_PolarSolv_kcal_mol>  (35) 
5.150

>  <MMGBSA_NonPolarSolv_kcal_mol>  (35) 
-6.854

>  <MMGBSA_Status>  (35) 
S

$$$$
CTX-1020695
     RDKit          3D

 38 43  0  0  0  0  0  0  0  0999 V2000
   23.7484    2.0075  -17.4424 C   0  0  0  0  0  0  0  0  0  0  0  0
   23.4773    1.1499  -18.4674 N   0  0  0  0  0  0  0  0  0  0  0  0
   24.8966    2.7814  -17.3623 C   0  0  0  0  0  0  0  0  0  0  0  0
   24.3918    1.0735  -19.4664 C   0  0  0  0  0  0  0  0  0  0  0  0
   25.8281    2.6797  -18.3891 C   0  0  0  0  0  0  0  0  0  0  0  0
   25.5895    1.8070  -19.4555 C   0  0  0  0  0  0  0  0  0  0  0  0
   24.1055    0.0869  -20.5857 C   0  0  0  0  0  0  0  0  0  0  0  0
   26.5723    1.7150  -20.5978 C   0  0  0  0  0  0  0  0  0  0  0  0
   24.9358    0.3146  -21.7672 N   0  0  0  0  0  0  0  0  0  0  0  0
   26.3572    0.4611  -21.4534 C   0  0  0  0  0  0  0  0  0  0  0  0
   24.3270    0.8821  -22.8956 C   0  0  0  0  0  0  0  0  0  0  0  0
   23.1422    1.2192  -22.8640 O   0  0  0  0  0  0  0  0  0  0  0  0
   25.1175    1.0608  -24.1046 C   0  0  0  0  0  0  0  0  0  0  0  0
   25.1366    0.0771  -25.0565 O   0  0  0  0  0  0  0  0  0  0  0  0
   25.8474    2.1585  -24.5506 C   0  0  0  0  0  0  0  0  0  0  0  0
   25.8974    0.5195  -26.0903 C   0  0  0  0  0  0  0  0  0  0  0  0
   26.3655    1.8003  -25.8327 C   0  0  0  0  0  0  0  0  0  0  0  0
   26.0351    3.4442  -23.8305 C   0  0  0  0  0  0  0  0  0  0  0  0
   26.1728   -0.1991  -27.2515 C   0  0  0  0  0  0  0  0  0  0  0  0
   27.1696    2.4230  -26.8063 C   0  0  0  0  0  0  0  0  0  0  0  0
   26.9763    0.4361  -28.2033 C   0  0  0  0  0  0  0  0  0  0  0  0
   27.4675    1.7256  -27.9864 C   0  0  0  0  0  0  0  0  0  0  0  0
   22.6041    3.0802  -15.6499 O   0  0  0  0  0  0  0  0  0  0  0  0
   22.7203    2.0831  -16.3532 C   0  0  0  0  0  0  0  0  0  0  0  0
   21.9532    0.9468  -16.2259 N   0  0  0  0  0  0  0  0  0  0  0  0
   22.0398    0.2425  -16.9083 H   0  0  0  0  0  0  0  0  0  0  0  0
   21.0298    0.7418  -15.1398 C   0  0  0  0  0  0  0  0  0  0  0  0
   21.0681    1.9000  -14.1783 C   0  0  0  0  0  0  0  0  0  0  0  0
   20.0239    2.8381  -14.1635 C   0  0  0  0  0  0  0  0  0  0  0  0
   22.1527    2.0802  -13.3139 C   0  0  0  0  0  0  0  0  0  0  0  0
   20.0499    3.9471  -13.3084 C   0  0  0  0  0  0  0  0  0  0  0  0
   22.1745    3.1585  -12.4295 C   0  0  0  0  0  0  0  0  0  0  0  0
   18.9438    4.8122  -13.2788 N   0  0  0  0  0  0  0  0  0  0  0  0
   21.1173    4.0798  -12.4041 C   0  0  0  0  0  0  0  0  0  0  0  0
   19.1590    6.0996  -12.6338 C   0  0  0  0  0  0  0  0  0  0  0  0
   21.1710    5.2425  -11.4463 C   0  0  0  0  0  0  0  0  0  0  0  0
   19.8063    5.8996  -11.2721 C   0  0  0  0  0  0  0  0  0  0  0  0
   18.0756    4.5632  -13.6706 H   0  0  0  0  0  0  0  0  0  0  0  0
 23 24  2  0
 24 25  1  0
 24  1  1  0
 25 27  1  0
  1  2  2  0
  1  3  1  0
 27 28  1  0
  2  4  1  0
  3  5  2  0
 28 29  2  0
 28 30  1  0
  4  6  2  0
  4  7  1  0
 29 31  1  0
 30 32  2  0
  6  8  1  0
  7  9  1  0
 31 33  1  0
 31 34  2  0
  8 10  1  0
  9 11  1  0
 33 35  1  0
 34 36  1  0
 11 12  2  0
 11 13  1  0
 35 37  1  0
 13 14  1  0
 13 15  2  0
 14 16  1  0
 15 17  1  0
 15 18  1  0
 16 19  2  0
 17 20  2  0
 19 21  1  0
 20 22  1  0
  5  6  1  0
 32 34  1  0
  9 10  1  0
 36 37  1  0
 16 17  1  0
 21 22  2  0
 25 26  1  0
 33 38  1  0
M  END
>  <Molecule Name>  (36) 
CTX-1020695

>  <SMILES>  (36) 
CC1=C(OC2=C1C=CC=C2)C(=O)N1CCC2=CC=C(N=C2C1)C(=O)NCC1=CC=C2CCCNC2=C1

>  <Batch Name>  (36) 
CTX-1020695-1

>  <Batch Created Date>  (36) 
2021-12-09

>  <Batch ID>  (36) 
CTX-1020695-1

>  <External ID>  (36) 
CD-42-A

>  <Stereochemistry>  (36) 
Achiral

>  <Amount 1>  (36) 
7.6

>  <Unit 1>  (36) 
mg

>  <CRO 1>  (36) 
Pharmaron

>  <CRO 1 Total Amount>  (36) 
16.9

>  <CRO 1 Unit>  (36) 
mg

>  <pIC50>  (36) 
5.565431

>  <SMILES_std>  (36) 
Cc1c(C(=O)N2CCc3ccc(C(=O)NCc4ccc5c(c4)NCCC5)nc3C2)oc2ccccc12

>  <embed_status>  (36) 
0

>  <mmff_status>  (36) 
0

>  <minimizedAffinity>  (36) 
-9.87308

>  <CNNscore>  (36) 
0.3894360960

>  <CNNaffinity>  (36) 
6.5289363861

>  <CNN_VS>  (36) 
2.5426034927

>  <CNNaffinity_variance>  (36) 
0.4528156817

>  <Docking_Rank>  (36) 
68

>  <Vina_Affinity_kcal_mol>  (36) 
-9.870

>  <CNN_pKi>  (36) 
6.529

>  <CNN_Pose_Score>  (36) 
0.3894

>  <Num_Docked_Poses>  (36) 
5

>  <MMGBSA_Rank>  (36) 
36

>  <MMGBSA_dG_kcal_mol>  (36) 
-57.262

>  <MMGBSA_VdW_kcal_mol>  (36) 
-57.408

>  <MMGBSA_Elec_kcal_mol>  (36) 
-10.089

>  <MMGBSA_PolarSolv_kcal_mol>  (36) 
17.704

>  <MMGBSA_NonPolarSolv_kcal_mol>  (36) 
-7.469

>  <MMGBSA_Status>  (36) 
S

$$$$
CTX-1020771
     RDKit          3D

 32 36  0  0  0  0  0  0  0  0999 V2000
   30.7622    6.0557  -22.9131 S   0  0  0  0  0  0  0  0  0  0  0  0
   31.8753    7.3127  -22.5586 C   0  0  0  0  0  0  0  0  0  0  0  0
   30.6180    5.6345  -21.2768 C   0  0  0  0  0  0  0  0  0  0  0  0
   32.1143    7.3927  -21.1963 C   0  0  0  0  0  0  0  0  0  0  0  0
   31.3845    6.4223  -20.4423 C   0  0  0  0  0  0  0  0  0  0  0  0
   29.7248    4.5378  -20.7986 C   0  0  0  0  0  0  0  0  0  0  0  0
   31.4296    6.2377  -18.9535 C   0  0  0  0  0  0  0  0  0  0  0  0
   30.1310    4.1426  -19.3707 C   0  0  0  0  0  0  0  0  0  0  0  0
   30.3705    5.3217  -18.5155 N   0  0  0  0  0  0  0  0  0  0  0  0
   30.1254    5.2992  -17.1335 C   0  0  0  0  0  0  0  0  0  0  0  0
   30.7953    5.9871  -16.3628 O   0  0  0  0  0  0  0  0  0  0  0  0
   29.0355    4.4659  -16.6639 C   0  0  0  0  0  0  0  0  0  0  0  0
   27.7629    4.9407  -16.8200 O   0  0  0  0  0  0  0  0  0  0  0  0
   29.0051    3.2029  -16.0811 C   0  0  0  0  0  0  0  0  0  0  0  0
   26.9152    4.0093  -16.3134 C   0  0  0  0  0  0  0  0  0  0  0  0
   27.6261    2.9156  -15.8384 C   0  0  0  0  0  0  0  0  0  0  0  0
   30.1588    2.3175  -15.7833 C   0  0  0  0  0  0  0  0  0  0  0  0
   25.5275    4.1219  -16.2710 C   0  0  0  0  0  0  0  0  0  0  0  0
   26.9049    1.8442  -15.2779 C   0  0  0  0  0  0  0  0  0  0  0  0
   24.8306    3.0484  -15.7076 C   0  0  0  0  0  0  0  0  0  0  0  0
   25.5060    1.9276  -15.2187 C   0  0  0  0  0  0  0  0  0  0  0  0
   32.4603    8.1586  -23.5934 C   0  0  0  0  0  0  0  0  0  0  0  0
   32.6957    9.3522  -23.4145 O   0  0  0  0  0  0  0  0  0  0  0  0
   32.7324    7.5396  -24.7922 N   0  0  0  0  0  0  0  0  0  0  0  0
   32.7109    6.5564  -24.8386 H   0  0  0  0  0  0  0  0  0  0  0  0
   33.0482    8.2912  -25.9830 C   0  0  0  0  0  0  0  0  0  0  0  0
   34.5035    8.1220  -26.2559 C   0  0  0  0  0  0  0  0  0  0  0  0
   35.4422    8.4162  -25.2847 N   0  0  0  0  0  0  0  0  0  0  0  0
   35.1286    7.6549  -27.3943 C   0  0  0  0  0  0  0  0  0  0  0  0
   36.6058    8.1385  -25.8284 C   0  0  0  0  0  0  0  0  0  0  0  0
   36.4611    7.6737  -27.1029 N   0  0  0  0  0  0  0  0  0  0  0  0
   37.5350    7.2689  -27.9729 C   0  0  0  0  0  0  0  0  0  0  0  0
  1  2  1  0
  1  3  1  0
  2 22  1  0
  2  4  2  0
  3  5  2  0
  3  6  1  0
 22 23  2  0
 22 24  1  0
  5  7  1  0
  6  8  1  0
 24 26  1  0
  7  9  1  0
 26 27  1  0
  9 10  1  0
 27 28  1  0
 27 29  2  0
 10 11  2  0
 10 12  1  0
 28 30  2  0
 29 31  1  0
 12 13  1  0
 12 14  2  0
 31 32  1  0
 13 15  1  0
 14 16  1  0
 14 17  1  0
 15 18  2  0
 16 19  2  0
 18 20  1  0
 19 21  1  0
  4  5  1  0
  8  9  1  0
 30 31  1  0
 15 16  1  0
 20 21  2  0
 24 25  1  0
M  END
>  <Molecule Name>  (37) 
CTX-1020771

>  <SMILES>  (37) 
CN1C=NC(CNC(=O)C2=CC3=C(CCN(C3)C(=O)C3=C(C)C4=C(O3)C=CC=C4)S2)=C1

>  <Batch Name>  (37) 
CTX-1020771-1

>  <Batch Created Date>  (37) 
2021-12-16

>  <Batch ID>  (37) 
CTX-1020771-1

>  <External ID>  (37) 
P841-0352

>  <Stereochemistry>  (37) 
Achiral

>  <Amount 1>  (37) 
4.5

>  <Unit 1>  (37) 
mg

>  <CRO 1>  (37) 
Pharmaron

>  <CRO 1 Total Amount>  (37) 
20.05

>  <CRO 1 Unit>  (37) 
mg

>  <pIC50>  (37) 
4.950782

>  <SMILES_std>  (37) 
Cc1c(C(=O)N2CCc3sc(C(=O)NCc4cn(C)cn4)cc3C2)oc2ccccc12

>  <embed_status>  (37) 
0

>  <mmff_status>  (37) 
0

>  <minimizedAffinity>  (37) 
-9.64242

>  <CNNscore>  (37) 
0.4503073990

>  <CNNaffinity>  (37) 
6.9744048119

>  <CNN_VS>  (37) 
3.1406261921

>  <CNNaffinity_variance>  (37) 
0.2819240391

>  <Docking_Rank>  (37) 
55

>  <Vina_Affinity_kcal_mol>  (37) 
-9.640

>  <CNN_pKi>  (37) 
6.974

>  <CNN_Pose_Score>  (37) 
0.4503

>  <Num_Docked_Poses>  (37) 
5

>  <MMGBSA_Rank>  (37) 
37

>  <MMGBSA_dG_kcal_mol>  (37) 
-56.936

>  <MMGBSA_VdW_kcal_mol>  (37) 
-57.095

>  <MMGBSA_Elec_kcal_mol>  (37) 
-3.997

>  <MMGBSA_PolarSolv_kcal_mol>  (37) 
11.178

>  <MMGBSA_NonPolarSolv_kcal_mol>  (37) 
-7.023

>  <MMGBSA_Status>  (37) 
S

$$$$
CTX-1020735
     RDKit          3D

 37 42  0  0  0  0  0  0  0  0999 V2000
   18.7464    1.0438  -19.0290 S   0  0  0  0  0  0  0  0  0  0  0  0
   17.5566    0.8607  -17.8057 C   0  0  0  0  0  0  0  0  0  0  0  0
   19.9823    1.2494  -17.8862 C   0  0  0  0  0  0  0  0  0  0  0  0
   18.1208    0.9605  -16.5446 C   0  0  0  0  0  0  0  0  0  0  0  0
   19.5302    1.1917  -16.5806 C   0  0  0  0  0  0  0  0  0  0  0  0
   21.4110    1.4973  -18.2686 C   0  0  0  0  0  0  0  0  0  0  0  0
   20.4419    1.3401  -15.3901 C   0  0  0  0  0  0  0  0  0  0  0  0
   22.2976    1.2310  -17.0401 C   0  0  0  0  0  0  0  0  0  0  0  0
   21.7414    1.8667  -15.8369 N   0  0  0  0  0  0  0  0  0  0  0  0
   22.1623    3.1706  -15.5379 C   0  0  0  0  0  0  0  0  0  0  0  0
   22.9313    3.7703  -16.2899 O   0  0  0  0  0  0  0  0  0  0  0  0
   21.6911    3.7587  -14.2982 C   0  0  0  0  0  0  0  0  0  0  0  0
   20.7336    4.7306  -14.3847 O   0  0  0  0  0  0  0  0  0  0  0  0
   22.0425    3.5538  -12.9673 C   0  0  0  0  0  0  0  0  0  0  0  0
   20.4384    5.1272  -13.1206 C   0  0  0  0  0  0  0  0  0  0  0  0
   21.2131    4.4317  -12.2023 C   0  0  0  0  0  0  0  0  0  0  0  0
   23.0769    2.6293  -12.4388 C   0  0  0  0  0  0  0  0  0  0  0  0
   19.4956    6.0940  -12.7798 C   0  0  0  0  0  0  0  0  0  0  0  0
   21.0429    4.7184  -10.8344 C   0  0  0  0  0  0  0  0  0  0  0  0
   19.3396    6.3610  -11.4162 C   0  0  0  0  0  0  0  0  0  0  0  0
   20.0995    5.6859  -10.4580 C   0  0  0  0  0  0  0  0  0  0  0  0
   16.1490    0.6297  -18.1098 C   0  0  0  0  0  0  0  0  0  0  0  0
   15.2862    0.5588  -17.2372 O   0  0  0  0  0  0  0  0  0  0  0  0
   15.8355    0.5035  -19.4492 N   0  0  0  0  0  0  0  0  0  0  0  0
   16.5633    0.4604  -20.1108 H   0  0  0  0  0  0  0  0  0  0  0  0
   14.4651    0.4332  -19.9030 C   0  0  0  0  0  0  0  0  0  0  0  0
   14.3074   -0.8915  -20.6361 C   0  0  1  0  0  0  0  0  0  0  0  0
   12.9459   -1.1524  -21.3505 C   0  0  0  0  0  0  0  0  0  0  0  0
   14.9649   -0.9497  -22.0448 C   0  0  0  0  0  0  0  0  0  0  0  0
   13.5855   -0.5724  -22.6286 C   0  0  1  0  0  0  0  0  0  0  0  0
   13.3327   -1.2919  -23.8830 N   0  0  0  0  0  0  0  0  0  0  0  0
   13.6846   -0.6149  -25.1408 C   0  0  0  0  0  0  0  0  0  0  0  0
   13.9665   -2.6232  -23.8352 C   0  0  0  0  0  0  0  0  0  0  0  0
   13.3128   -1.4766  -26.3737 C   0  0  0  0  0  0  0  0  0  0  0  0
   13.6279   -3.4786  -25.0804 C   0  0  0  0  0  0  0  0  0  0  0  0
   13.8975   -2.8332  -26.3807 N   0  0  0  0  0  0  0  0  0  0  0  0
   15.3270   -2.8069  -26.6808 C   0  0  0  0  0  0  0  0  0  0  0  0
  1  2  1  0
  1  3  1  0
  2 22  1  0
  2  4  2  0
  3  5  2  0
  3  6  1  0
 22 23  2  0
 22 24  1  0
  5  7  1  0
  6  8  1  0
 24 26  1  0
  7  9  1  0
 27 26  1  6
  9 10  1  0
 27 28  1  0
 27 29  1  0
 10 11  2  0
 10 12  1  0
 28 30  1  0
 12 13  1  0
 12 14  2  0
 30 31  1  6
 13 15  1  0
 14 16  1  0
 14 17  1  0
 31 32  1  0
 31 33  1  0
 15 18  2  0
 16 19  2  0
 32 34  1  0
 33 35  1  0
 18 20  1  0
 19 21  1  0
 34 36  1  0
 36 37  1  0
  4  5  1  0
  8  9  1  0
 29 30  1  0
 15 16  1  0
 35 36  1  0
 20 21  2  0
 24 25  1  0
M  END
>  <Molecule Name>  (38) 
CTX-1020735

>  <SMILES>  (38) 
CN1CCN(CC1)C1CC(CNC(=O)C2=CC3=C(CCN(C3)C(=O)C3=C(C)C4=C(O3)C=CC=C4)S2)C1

>  <Batch Name>  (38) 
CTX-1020735-1

>  <Batch Created Date>  (38) 
2021-12-16

>  <Batch ID>  (38) 
CTX-1020735-1

>  <External ID>  (38) 
CD-44-M

>  <Stereochemistry>  (38) 
Achiral

>  <Amount 1>  (38) 
13.8

>  <Unit 1>  (38) 
mg

>  <CRO 1>  (38) 
Pharmaron

>  <CRO 1 Total Amount>  (38) 
21.4

>  <CRO 1 Unit>  (38) 
mg

>  <pIC50>  (38) 
4.380907

>  <SMILES_std>  (38) 
Cc1c(C(=O)N2CCc3sc(C(=O)NCC4CC(N5CCN(C)CC5)C4)cc3C2)oc2ccccc12

>  <embed_status>  (38) 
0

>  <mmff_status>  (38) 
0

>  <minimizedAffinity>  (38) 
-9.06040

>  <CNNscore>  (38) 
0.2224009335

>  <CNNaffinity>  (38) 
6.2455883026

>  <CNN_VS>  (38) 
1.3890246153

>  <CNNaffinity_variance>  (38) 
0.4856605232

>  <Docking_Rank>  (38) 
71

>  <Vina_Affinity_kcal_mol>  (38) 
-9.060

>  <CNN_pKi>  (38) 
6.246

>  <CNN_Pose_Score>  (38) 
0.2224

>  <Num_Docked_Poses>  (38) 
5

>  <MMGBSA_Rank>  (38) 
38

>  <MMGBSA_dG_kcal_mol>  (38) 
-56.024

>  <MMGBSA_VdW_kcal_mol>  (38) 
-56.799

>  <MMGBSA_Elec_kcal_mol>  (38) 
-7.438

>  <MMGBSA_PolarSolv_kcal_mol>  (38) 
16.002

>  <MMGBSA_NonPolarSolv_kcal_mol>  (38) 
-7.789

>  <MMGBSA_Status>  (38) 
S

$$$$
CTX-1020516
     RDKit          3D

 32 36  0  0  0  0  0  0  0  0999 V2000
   25.7008    3.0199  -24.9306 S   0  0  0  0  0  0  0  0  0  0  0  0
   25.5457    1.6626  -23.8913 C   0  0  0  0  0  0  0  0  0  0  0  0
   26.8774    3.7275  -23.9359 C   0  0  0  0  0  0  0  0  0  0  0  0
   26.3969    1.7706  -22.8036 C   0  0  0  0  0  0  0  0  0  0  0  0
   27.1787    2.9668  -22.8227 C   0  0  0  0  0  0  0  0  0  0  0  0
   27.5329    5.0345  -24.2535 C   0  0  0  0  0  0  0  0  0  0  0  0
   28.1882    3.3871  -21.7910 C   0  0  0  0  0  0  0  0  0  0  0  0
   28.1785    5.5842  -22.9734 C   0  0  0  0  0  0  0  0  0  0  0  0
   28.9518    4.5423  -22.2719 N   0  0  0  0  0  0  0  0  0  0  0  0
   30.1790    4.7869  -21.6457 C   0  0  0  0  0  0  0  0  0  0  0  0
   30.5020    4.1452  -20.6436 O   0  0  0  0  0  0  0  0  0  0  0  0
   31.0661    5.7892  -22.2179 C   0  0  0  0  0  0  0  0  0  0  0  0
   30.9871    6.0803  -23.5544 O   0  0  0  0  0  0  0  0  0  0  0  0
   32.1114    6.5062  -21.6437 C   0  0  0  0  0  0  0  0  0  0  0  0
   31.9485    6.9971  -23.8332 C   0  0  0  0  0  0  0  0  0  0  0  0
   32.6742    7.3001  -22.6898 C   0  0  0  0  0  0  0  0  0  0  0  0
   32.5501    6.4428  -20.2259 C   0  0  0  0  0  0  0  0  0  0  0  0
   32.1853    7.5580  -25.0862 C   0  0  0  0  0  0  0  0  0  0  0  0
   33.7230    8.2333  -22.7958 C   0  0  0  0  0  0  0  0  0  0  0  0
   33.2290    8.4849  -25.1683 C   0  0  0  0  0  0  0  0  0  0  0  0
   33.9864    8.8183  -24.0431 C   0  0  0  0  0  0  0  0  0  0  0  0
   24.6233    0.5675  -24.1656 C   0  0  0  0  0  0  0  0  0  0  0  0
   24.3836    0.1680  -25.3034 O   0  0  0  0  0  0  0  0  0  0  0  0
   24.0211   -0.0022  -23.0671 N   0  0  0  0  0  0  0  0  0  0  0  0
   24.2681    0.3116  -22.1673 H   0  0  0  0  0  0  0  0  0  0  0  0
   23.0385   -1.0463  -23.2018 C   0  0  0  0  0  0  0  0  0  0  0  0
   22.5606   -1.5049  -21.8512 C   0  0  0  0  0  0  0  0  0  0  0  0
   23.1280   -0.9840  -20.6798 C   0  0  0  0  0  0  0  0  0  0  0  0
   21.5762   -2.4980  -21.7465 C   0  0  0  0  0  0  0  0  0  0  0  0
   22.7045   -1.4339  -19.4283 C   0  0  0  0  0  0  0  0  0  0  0  0
   21.1542   -2.9464  -20.4940 C   0  0  0  0  0  0  0  0  0  0  0  0
   21.7170   -2.4132  -19.3359 C   0  0  0  0  0  0  0  0  0  0  0  0
  1  2  1  0
  1  3  1  0
  2 22  1  0
  2  4  2  0
  3  5  2  0
  3  6  1  0
 22 23  2  0
 22 24  1  0
  5  7  1  0
  6  8  1  0
 24 26  1  0
  7  9  1  0
 26 27  1  0
  9 10  1  0
 27 28  2  0
 27 29  1  0
 10 11  2  0
 10 12  1  0
 28 30  1  0
 29 31  2  0
 12 13  1  0
 12 14  2  0
 30 32  2  0
 13 15  1  0
 14 16  1  0
 14 17  1  0
 15 18  2  0
 16 19  2  0
 18 20  1  0
 19 21  1  0
  4  5  1  0
  8  9  1  0
 31 32  1  0
 15 16  1  0
 20 21  2  0
 24 25  1  0
M  END
>  <Molecule Name>  (39) 
CTX-1020516

>  <SMILES>  (39) 
CC1=C(OC2=C1C=CC=C2)C(=O)N1CCC2=C(C1)C=C(S2)C(=O)NCC1=CC=CC=C1

>  <Batch Name>  (39) 
CTX-1020516-1

>  <Batch Created Date>  (39) 
2021-11-04

>  <Batch ID>  (39) 
CTX-1020516-1

>  <External ID>  (39) 
610EDL073-C

>  <Stereochemistry>  (39) 
Achiral

>  <Amount 1>  (39) 
6.65

>  <Unit 1>  (39) 
mg

>  <CRO 1>  (39) 
Pharmaron

>  <CRO 1 Total Amount>  (39) 
6.4

>  <CRO 1 Unit>  (39) 
mg

>  <pIC50>  (39) 
6.124939

>  <SMILES_std>  (39) 
Cc1c(C(=O)N2CCc3sc(C(=O)NCc4ccccc4)cc3C2)oc2ccccc12

>  <embed_status>  (39) 
0

>  <mmff_status>  (39) 
0

>  <minimizedAffinity>  (39) 
-9.97060

>  <CNNscore>  (39) 
0.2923763692

>  <CNNaffinity>  (39) 
6.5629692078

>  <CNN_VS>  (39) 
1.9188570976

>  <CNNaffinity_variance>  (39) 
0.0558960475

>  <Docking_Rank>  (39) 
67

>  <Vina_Affinity_kcal_mol>  (39) 
-9.970

>  <CNN_pKi>  (39) 
6.563

>  <CNN_Pose_Score>  (39) 
0.2924

>  <Num_Docked_Poses>  (39) 
5

>  <MMGBSA_Rank>  (39) 
39

>  <MMGBSA_dG_kcal_mol>  (39) 
-55.307

>  <MMGBSA_VdW_kcal_mol>  (39) 
-53.374

>  <MMGBSA_Elec_kcal_mol>  (39) 
-4.863

>  <MMGBSA_PolarSolv_kcal_mol>  (39) 
10.448

>  <MMGBSA_NonPolarSolv_kcal_mol>  (39) 
-7.518

>  <MMGBSA_Status>  (39) 
S

$$$$
CTX-1020733
     RDKit          3D

 32 36  0  0  0  0  0  0  0  0999 V2000
   25.9617    2.3476  -24.5394 C   0  0  0  0  0  0  0  0  0  0  0  0
   26.7251    3.0058  -23.8334 O   0  0  0  0  0  0  0  0  0  0  0  0
   25.1502    1.3475  -23.9886 N   0  0  0  0  0  0  0  0  0  0  0  0
   25.2996    1.1217  -22.5472 C   0  0  0  0  0  0  0  0  0  0  0  0
   24.5622    0.2465  -24.7781 C   0  0  0  0  0  0  0  0  0  0  0  0
   24.1290    0.3580  -21.9987 C   0  0  0  0  0  0  0  0  0  0  0  0
   23.1546   -0.1254  -24.2892 C   0  0  0  0  0  0  0  0  0  0  0  0
   23.1665   -0.2205  -22.7993 C   0  0  0  0  0  0  0  0  0  0  0  0
   23.8550    0.1072  -20.6157 C   0  0  0  0  0  0  0  0  0  0  0  0
   21.9731   -1.0433  -21.9223 S   0  0  0  0  0  0  0  0  0  0  0  0
   22.7021   -0.6379  -20.4192 C   0  0  0  0  0  0  0  0  0  0  0  0
   27.2254    0.3481  -26.7829 Cl  0  0  0  0  0  0  0  0  0  0  0  0
   26.3811    1.8301  -26.9897 C   0  0  0  0  0  0  0  0  0  0  0  0
   25.8647    2.5834  -25.9616 C   0  0  0  0  0  0  0  0  0  0  0  0
   26.1156    2.3981  -28.2858 C   0  0  0  0  0  0  0  0  0  0  0  0
   25.0988    3.9978  -26.5241 S   0  0  0  0  0  0  0  0  0  0  0  0
   25.4088    3.6000  -28.1706 C   0  0  0  0  0  0  0  0  0  0  0  0
   26.4448    1.9499  -29.5922 C   0  0  0  0  0  0  0  0  0  0  0  0
   25.0298    4.3485  -29.3028 C   0  0  0  0  0  0  0  0  0  0  0  0
   26.0694    2.6892  -30.7179 C   0  0  0  0  0  0  0  0  0  0  0  0
   25.3686    3.8768  -30.5722 C   0  0  0  0  0  0  0  0  0  0  0  0
   22.0748   -1.0995  -19.1854 C   0  0  0  0  0  0  0  0  0  0  0  0
   22.1965   -2.2363  -18.7329 O   0  0  0  0  0  0  0  0  0  0  0  0
   21.2960   -0.1545  -18.5422 N   0  0  0  0  0  0  0  0  0  0  0  0
   21.2846    0.7700  -18.8805 H   0  0  0  0  0  0  0  0  0  0  0  0
   20.4989   -0.4923  -17.3856 C   0  0  0  0  0  0  0  0  0  0  0  0
   19.1096   -0.9010  -17.7937 C   0  0  0  0  0  0  0  0  0  0  0  0
   18.3242   -1.6882  -16.9459 C   0  0  0  0  0  0  0  0  0  0  0  0
   18.5856   -0.5371  -19.0373 C   0  0  0  0  0  0  0  0  0  0  0  0
   17.0597   -2.0646  -17.3687 C   0  0  0  0  0  0  0  0  0  0  0  0
   17.3078   -0.9616  -19.3689 C   0  0  0  0  0  0  0  0  0  0  0  0
   16.5333   -1.7169  -18.5625 N   0  0  0  0  0  0  0  0  0  0  0  0
 12 13  1  0
 13 14  2  0
 13 15  1  0
 14 16  1  0
 14  1  1  0
 15 17  2  0
 15 18  1  0
  1  2  2  0
  1  3  1  0
 17 19  1  0
 18 20  2  0
  3  4  1  0
  3  5  1  0
 19 21  2  0
  4  6  1  0
  5  7  1  0
  6  8  2  0
  6  9  1  0
  8 10  1  0
  9 11  2  0
 11 22  1  0
 22 23  2  0
 22 24  1  0
 24 26  1  0
 26 27  1  0
 27 28  2  0
 27 29  1  0
 28 30  1  0
 29 31  2  0
 30 32  2  0
 16 17  1  0
 20 21  1  0
  7  8  1  0
 10 11  1  0
 31 32  1  0
 24 25  1  0
M  END
>  <Molecule Name>  (40) 
CTX-1020733

>  <SMILES>  (40) 
ClC1=C(SC2=CC=CC=C12)C(=O)N1CCC2=C(C1)C=C(S2)C(=O)NCC1=CC=NC=C1

>  <Batch Name>  (40) 
CTX-1020733-1

>  <Batch Created Date>  (40) 
2021-12-16

>  <Batch ID>  (40) 
CTX-1020733-1

>  <External ID>  (40) 
CD-44-2-M

>  <Stereochemistry>  (40) 
Achiral

>  <Amount 1>  (40) 
2.7

>  <Unit 1>  (40) 
mg

>  <CRO 1>  (40) 
Pharmaron

>  <CRO 1 Total Amount>  (40) 
18.1

>  <CRO 1 Unit>  (40) 
mg

>  <pIC50>  (40) 
5.270835

>  <SMILES_std>  (40) 
O=C(NCc1ccncc1)c1cc2c(s1)CCN(C(=O)c1sc3ccccc3c1Cl)C2

>  <embed_status>  (40) 
0

>  <mmff_status>  (40) 
0

>  <minimizedAffinity>  (40) 
-11.55140

>  <CNNscore>  (40) 
0.5127733350

>  <CNNaffinity>  (40) 
6.9870247841

>  <CNN_VS>  (40) 
3.5827600956

>  <CNNaffinity_variance>  (40) 
0.1008837819

>  <Docking_Rank>  (40) 
54

>  <Vina_Affinity_kcal_mol>  (40) 
-11.550

>  <CNN_pKi>  (40) 
6.987

>  <CNN_Pose_Score>  (40) 
0.5128

>  <Num_Docked_Poses>  (40) 
5

>  <MMGBSA_Rank>  (40) 
40

>  <MMGBSA_dG_kcal_mol>  (40) 
-55.111

>  <MMGBSA_VdW_kcal_mol>  (40) 
-54.907

>  <MMGBSA_Elec_kcal_mol>  (40) 
-1.257

>  <MMGBSA_PolarSolv_kcal_mol>  (40) 
8.042

>  <MMGBSA_NonPolarSolv_kcal_mol>  (40) 
-6.988

>  <MMGBSA_Status>  (40) 
S

$$$$
CTX-1020818
     RDKit          3D

 31 36  0  0  0  0  0  0  0  0999 V2000
   29.1922    5.1483  -21.9777 S   0  0  0  0  0  0  0  0  0  0  0  0
   29.0741    3.9390  -20.7616 C   0  0  0  0  0  0  0  0  0  0  0  0
   28.1006    4.3353  -22.9866 C   0  0  0  0  0  0  0  0  0  0  0  0
   28.1887    2.9415  -21.1416 C   0  0  0  0  0  0  0  0  0  0  0  0
   27.6216    3.1627  -22.4373 C   0  0  0  0  0  0  0  0  0  0  0  0
   27.7147    4.8424  -24.3403 C   0  0  0  0  0  0  0  0  0  0  0  0
   26.6244    2.2809  -23.1364 C   0  0  0  0  0  0  0  0  0  0  0  0
   26.4128    4.1521  -24.7716 C   0  0  0  0  0  0  0  0  0  0  0  0
   26.4699    2.6971  -24.5321 N   0  0  0  0  0  0  0  0  0  0  0  0
   25.9310    1.7517  -25.4117 C   0  0  0  0  0  0  0  0  0  0  0  0
   25.4803    0.6891  -24.9770 O   0  0  0  0  0  0  0  0  0  0  0  0
   25.9421    2.0397  -26.8382 C   0  0  0  0  0  0  0  0  0  0  0  0
   25.3347    3.1760  -27.3038 O   0  0  0  0  0  0  0  0  0  0  0  0
   26.5650    1.3766  -27.8911 C   0  0  0  0  0  0  0  0  0  0  0  0
   25.5351    3.2294  -28.6453 C   0  0  0  0  0  0  0  0  0  0  0  0
   26.2884    2.1422  -29.0655 C   0  0  0  0  0  0  0  0  0  0  0  0
   27.3627    0.1272  -27.7982 C   0  0  0  0  0  0  0  0  0  0  0  0
   25.0607    4.2306  -29.4898 C   0  0  0  0  0  0  0  0  0  0  0  0
   26.6005    2.0389  -30.4344 C   0  0  0  0  0  0  0  0  0  0  0  0
   25.3789    4.1066  -30.8457 C   0  0  0  0  0  0  0  0  0  0  0  0
   26.1362    3.0296  -31.3122 C   0  0  0  0  0  0  0  0  0  0  0  0
   29.8595    4.0890  -19.5412 C   0  0  0  0  0  0  0  0  0  0  0  0
   30.2023    3.1536  -18.8210 O   0  0  0  0  0  0  0  0  0  0  0  0
   30.1896    5.3961  -19.2215 N   0  0  0  0  0  0  0  0  0  0  0  0
   29.9495    6.1170  -19.8475 H   0  0  0  0  0  0  0  0  0  0  0  0
   30.8768    5.7310  -17.9944 C   0  0  0  0  0  0  0  0  0  0  0  0
   29.8970    6.4154  -17.1187 C   0  0  0  0  0  0  0  0  0  0  0  0
   28.5635    5.8655  -16.4696 C   0  0  0  0  0  0  0  0  0  0  0  0
   29.0188    7.6771  -17.4876 C   0  0  0  0  0  0  0  0  0  0  0  0
   30.0964    7.1492  -15.7310 C   0  0  0  0  0  0  0  0  0  0  0  0
   28.5719    7.3663  -16.0193 C   0  0  0  0  0  0  0  0  0  0  0  0
  1  2  1  0
  1  3  1  0
  2 22  1  0
  2  4  2  0
  3  5  2  0
  3  6  1  0
 22 23  2  0
 22 24  1  0
  5  7  1  0
  6  8  1  0
 24 26  1  0
  7  9  1  0
 26 27  1  0
  9 10  1  0
 27 28  1  0
 27 29  1  0
 27 30  1  0
 10 11  2  0
 10 12  1  0
 28 31  1  0
 12 13  1  0
 12 14  2  0
 13 15  1  0
 14 16  1  0
 14 17  1  0
 15 18  2  0
 16 19  2  0
 18 20  1  0
 19 21  1  0
  4  5  1  0
  8  9  1  0
 29 31  1  0
 30 31  1  0
 15 16  1  0
 20 21  2  0
 24 25  1  0
M  END
>  <Molecule Name>  (41) 
CTX-1020818

>  <SMILES>  (41) 
CC1=C(OC2=C1C=CC=C2)C(=O)N1CCC2=C(C1)C=C(S2)C(=O)NCC12CC(C1)C2

>  <Batch Name>  (41) 
CTX-1020818-1

>  <Batch Created Date>  (41) 
2021-12-30

>  <Batch ID>  (41) 
CTX-1020818-1

>  <External ID>  (41) 
CD-44-L

>  <Stereochemistry>  (41) 
Achiral

>  <Amount 1>  (41) 
4.1

>  <Unit 1>  (41) 
mg

>  <CRO 1>  (41) 
Pharmaron

>  <CRO 1 Total Amount>  (41) 
30.3

>  <CRO 1 Unit>  (41) 
mg

>  <pIC50>  (41) 
4.510042

>  <SMILES_std>  (41) 
Cc1c(C(=O)N2CCc3sc(C(=O)NCC45CC(C4)C5)cc3C2)oc2ccccc12

>  <embed_status>  (41) 
0

>  <mmff_status>  (41) 
0

>  <minimizedAffinity>  (41) 
-9.35013

>  <CNNscore>  (41) 
0.6865627170

>  <CNNaffinity>  (41) 
7.1927237511

>  <CNN_VS>  (41) 
4.9382557869

>  <CNNaffinity_variance>  (41) 
0.1667928100

>  <Docking_Rank>  (41) 
42

>  <Vina_Affinity_kcal_mol>  (41) 
-9.350

>  <CNN_pKi>  (41) 
7.193

>  <CNN_Pose_Score>  (41) 
0.6866

>  <Num_Docked_Poses>  (41) 
5

>  <MMGBSA_Rank>  (41) 
41

>  <MMGBSA_dG_kcal_mol>  (41) 
-54.235

>  <MMGBSA_VdW_kcal_mol>  (41) 
-51.645

>  <MMGBSA_Elec_kcal_mol>  (41) 
1.360

>  <MMGBSA_PolarSolv_kcal_mol>  (41) 
3.289

>  <MMGBSA_NonPolarSolv_kcal_mol>  (41) 
-7.239

>  <MMGBSA_Status>  (41) 
S

$$$$
CTX-1020766
     RDKit          3D

 32 36  0  0  0  0  0  0  0  0999 V2000
   32.1821    7.5351  -22.9128 C   0  0  0  0  0  0  0  0  0  0  0  0
   32.2784    7.2690  -21.5794 N   0  0  0  0  0  0  0  0  0  0  0  0
   31.3007    6.8929  -23.7692 C   0  0  0  0  0  0  0  0  0  0  0  0
   31.4520    6.3177  -21.0756 C   0  0  0  0  0  0  0  0  0  0  0  0
   30.4686    5.9146  -23.2377 C   0  0  0  0  0  0  0  0  0  0  0  0
   30.5466    5.6054  -21.8760 C   0  0  0  0  0  0  0  0  0  0  0  0
   31.5751    6.0284  -19.5908 C   0  0  0  0  0  0  0  0  0  0  0  0
   29.6314    4.5698  -21.2745 C   0  0  0  0  0  0  0  0  0  0  0  0
   30.5430    5.1362  -19.0698 N   0  0  0  0  0  0  0  0  0  0  0  0
   30.1817    4.0319  -19.9562 C   0  0  0  0  0  0  0  0  0  0  0  0
   30.3794    5.0991  -17.6807 C   0  0  0  0  0  0  0  0  0  0  0  0
   31.1693    5.6983  -16.9483 O   0  0  0  0  0  0  0  0  0  0  0  0
   29.2490    4.3648  -17.1313 C   0  0  0  0  0  0  0  0  0  0  0  0
   27.9980    4.9225  -17.1643 O   0  0  0  0  0  0  0  0  0  0  0  0
   29.2019    3.1485  -16.4569 C   0  0  0  0  0  0  0  0  0  0  0  0
   27.1481    4.0626  -16.5469 C   0  0  0  0  0  0  0  0  0  0  0  0
   27.8358    2.9469  -16.0905 C   0  0  0  0  0  0  0  0  0  0  0  0
   30.3519    2.2522  -16.1731 C   0  0  0  0  0  0  0  0  0  0  0  0
   25.7791    4.2630  -16.3844 C   0  0  0  0  0  0  0  0  0  0  0  0
   27.1088    1.9482  -15.4149 C   0  0  0  0  0  0  0  0  0  0  0  0
   25.0759    3.2574  -15.7141 C   0  0  0  0  0  0  0  0  0  0  0  0
   25.7280    2.1183  -15.2366 C   0  0  0  0  0  0  0  0  0  0  0  0
   33.9459    8.1728  -24.4379 N   0  0  0  0  0  0  0  0  0  0  0  0
   33.0951    8.5995  -23.4432 C   0  0  0  0  0  0  0  0  0  0  0  0
   33.0765    9.7430  -23.0013 O   0  0  0  0  0  0  0  0  0  0  0  0
   33.8075    7.2804  -24.8299 H   0  0  0  0  0  0  0  0  0  0  0  0
   35.0320    8.9850  -24.9263 C   0  0  0  0  0  0  0  0  0  0  0  0
   35.6952    8.0255  -28.7647 S   0  0  0  0  0  0  0  0  0  0  0  0
   36.7014    7.2505  -27.6139 C   0  0  0  0  0  0  0  0  0  0  0  0
   34.9008    8.8445  -27.4869 C   0  0  0  0  0  0  0  0  0  0  0  0
   36.4850    7.5554  -26.3536 N   0  0  0  0  0  0  0  0  0  0  0  0
   35.4449    8.4750  -26.2690 C   0  0  0  0  0  0  0  0  0  0  0  0
 28 29  1  0
 28 30  1  0
 29 31  2  0
 30 32  2  0
 32 27  1  0
 27 23  1  0
 23 24  1  0
 24 25  2  0
 24  1  1  0
  1  2  2  0
  1  3  1  0
  2  4  1  0
  3  5  2  0
  4  6  2  0
  4  7  1  0
  6  8  1  0
  7  9  1  0
  8 10  1  0
  9 11  1  0
 11 12  2  0
 11 13  1  0
 13 14  1  0
 13 15  2  0
 14 16  1  0
 15 17  1  0
 15 18  1  0
 16 19  2  0
 17 20  2  0
 19 21  1  0
 20 22  1  0
 31 32  1  0
  5  6  1  0
  9 10  1  0
 16 17  1  0
 21 22  2  0
 23 26  1  0
M  END
>  <Molecule Name>  (42) 
CTX-1020766

>  <SMILES>  (42) 
CC1=C(OC2=C1C=CC=C2)C(=O)N1CCC2=C(C1)N=C(C=C2)C(=O)NCC1=CSC=N1

>  <Batch Name>  (42) 
CTX-1020766-1

>  <Batch Created Date>  (42) 
2021-12-16

>  <Batch ID>  (42) 
CTX-1020766-1

>  <External ID>  (42) 
P841-0371

>  <Stereochemistry>  (42) 
Achiral

>  <Amount 1>  (42) 
0.0

>  <Unit 1>  (42) 
mg

>  <CRO 1>  (42) 
Pharmaron

>  <CRO 1 Total Amount>  (42) 
0.0

>  <CRO 1 Unit>  (42) 
mg

>  <pIC50>  (42) 
4.39794

>  <SMILES_std>  (42) 
Cc1c(C(=O)N2CCc3ccc(C(=O)NCc4cscn4)nc3C2)oc2ccccc12

>  <embed_status>  (42) 
0

>  <mmff_status>  (42) 
0

>  <minimizedAffinity>  (42) 
-10.42680

>  <CNNscore>  (42) 
0.5268918276

>  <CNNaffinity>  (42) 
7.0955672264

>  <CNN_VS>  (42) 
3.7385964394

>  <CNNaffinity_variance>  (42) 
0.3466263115

>  <Docking_Rank>  (42) 
47

>  <Vina_Affinity_kcal_mol>  (42) 
-10.430

>  <CNN_pKi>  (42) 
7.096

>  <CNN_Pose_Score>  (42) 
0.5269

>  <Num_Docked_Poses>  (42) 
5

>  <MMGBSA_Rank>  (42) 
42

>  <MMGBSA_dG_kcal_mol>  (42) 
-54.234

>  <MMGBSA_VdW_kcal_mol>  (42) 
-53.959

>  <MMGBSA_Elec_kcal_mol>  (42) 
-5.581

>  <MMGBSA_PolarSolv_kcal_mol>  (42) 
12.532

>  <MMGBSA_NonPolarSolv_kcal_mol>  (42) 
-7.226

>  <MMGBSA_Status>  (42) 
S

$$$$
CTX-1020772
     RDKit          3D

 31 35  0  0  0  0  0  0  0  0999 V2000
   25.6698    2.5247  -23.9720 S   0  0  0  0  0  0  0  0  0  0  0  0
   25.7165    1.4474  -22.6325 C   0  0  0  0  0  0  0  0  0  0  0  0
   27.0460    3.3542  -23.4379 C   0  0  0  0  0  0  0  0  0  0  0  0
   26.7767    1.7549  -21.7929 C   0  0  0  0  0  0  0  0  0  0  0  0
   27.5565    2.8632  -22.2583 C   0  0  0  0  0  0  0  0  0  0  0  0
   27.6242    4.5171  -24.1623 C   0  0  0  0  0  0  0  0  0  0  0  0
   28.7668    3.4367  -21.5868 C   0  0  0  0  0  0  0  0  0  0  0  0
   29.1008    4.6764  -23.7693 C   0  0  0  0  0  0  0  0  0  0  0  0
   29.3356    4.5778  -22.3152 N   0  0  0  0  0  0  0  0  0  0  0  0
   30.3543    5.2644  -21.6306 C   0  0  0  0  0  0  0  0  0  0  0  0
   30.4555    5.1440  -20.4065 O   0  0  0  0  0  0  0  0  0  0  0  0
   31.2803    6.1123  -22.3678 C   0  0  0  0  0  0  0  0  0  0  0  0
   31.0294    6.4216  -23.6780 O   0  0  0  0  0  0  0  0  0  0  0  0
   32.5160    6.6321  -21.9937 C   0  0  0  0  0  0  0  0  0  0  0  0
   32.0705    7.1646  -24.1330 C   0  0  0  0  0  0  0  0  0  0  0  0
   33.0204    7.3281  -23.1346 C   0  0  0  0  0  0  0  0  0  0  0  0
   33.1724    6.4799  -20.6698 C   0  0  0  0  0  0  0  0  0  0  0  0
   32.1833    7.6890  -25.4186 C   0  0  0  0  0  0  0  0  0  0  0  0
   34.1797    8.0687  -23.4343 C   0  0  0  0  0  0  0  0  0  0  0  0
   33.3401    8.4246  -25.6937 C   0  0  0  0  0  0  0  0  0  0  0  0
   34.3232    8.6123  -24.7194 C   0  0  0  0  0  0  0  0  0  0  0  0
   24.6982    0.4076  -22.5309 C   0  0  0  0  0  0  0  0  0  0  0  0
   23.8826    0.1469  -23.4137 O   0  0  0  0  0  0  0  0  0  0  0  0
   24.7105   -0.3094  -21.3484 N   0  0  0  0  0  0  0  0  0  0  0  0
   25.3091   -0.0296  -20.6186 H   0  0  0  0  0  0  0  0  0  0  0  0
   23.8592   -1.4622  -21.1670 C   0  0  0  0  0  0  0  0  0  0  0  0
   22.8690   -1.1592  -20.1151 C   0  0  0  0  0  0  0  0  0  0  0  0
   22.7506    0.1424  -19.7041 O   0  0  0  0  0  0  0  0  0  0  0  0
   21.9793   -1.9110  -19.3831 C   0  0  0  0  0  0  0  0  0  0  0  0
   21.7797    0.0916  -18.7500 C   0  0  0  0  0  0  0  0  0  0  0  0
   21.2850   -1.1029  -18.5185 N   0  0  0  0  0  0  0  0  0  0  0  0
  1  2  1  0
  1  3  1  0
  2 22  1  0
  2  4  2  0
  3  5  2  0
  3  6  1  0
 22 23  2  0
 22 24  1  0
  5  7  1  0
  6  8  1  0
 24 26  1  0
  7  9  1  0
 26 27  1  0
  9 10  1  0
 27 28  1  0
 27 29  2  0
 10 11  2  0
 10 12  1  0
 28 30  1  0
 29 31  1  0
 12 13  1  0
 12 14  2  0
 13 15  1  0
 14 16  1  0
 14 17  1  0
 15 18  2  0
 16 19  2  0
 18 20  1  0
 19 21  1  0
  4  5  1  0
  8  9  1  0
 30 31  2  0
 15 16  1  0
 20 21  2  0
 24 25  1  0
M  END
>  <Molecule Name>  (43) 
CTX-1020772

>  <SMILES>  (43) 
CC1=C(OC2=C1C=CC=C2)C(=O)N1CCC2=C(C1)C=C(S2)C(=O)NCC1=CN=CO1

>  <Batch Name>  (43) 
CTX-1020772-1

>  <Batch Created Date>  (43) 
2021-12-16

>  <Batch ID>  (43) 
CTX-1020772-1

>  <External ID>  (43) 
P841-0353

>  <Stereochemistry>  (43) 
Achiral

>  <Amount 1>  (43) 
4.0

>  <Unit 1>  (43) 
mg

>  <CRO 1>  (43) 
Pharmaron

>  <CRO 1 Total Amount>  (43) 
14.8

>  <CRO 1 Unit>  (43) 
mg

>  <pIC50>  (43) 
4.958607

>  <SMILES_std>  (43) 
Cc1c(C(=O)N2CCc3sc(C(=O)NCc4cnco4)cc3C2)oc2ccccc12

>  <embed_status>  (43) 
0

>  <mmff_status>  (43) 
0

>  <minimizedAffinity>  (43) 
-9.72513

>  <CNNscore>  (43) 
0.3982622921

>  <CNNaffinity>  (43) 
6.8616175652

>  <CNN_VS>  (43) 
2.7327234745

>  <CNNaffinity_variance>  (43) 
0.0269556027

>  <Docking_Rank>  (43) 
61

>  <Vina_Affinity_kcal_mol>  (43) 
-9.730

>  <CNN_pKi>  (43) 
6.862

>  <CNN_Pose_Score>  (43) 
0.3983

>  <Num_Docked_Poses>  (43) 
5

>  <MMGBSA_Rank>  (43) 
43

>  <MMGBSA_dG_kcal_mol>  (43) 
-53.817

>  <MMGBSA_VdW_kcal_mol>  (43) 
-52.695

>  <MMGBSA_Elec_kcal_mol>  (43) 
-6.390

>  <MMGBSA_PolarSolv_kcal_mol>  (43) 
12.065

>  <MMGBSA_NonPolarSolv_kcal_mol>  (43) 
-6.797

>  <MMGBSA_Status>  (43) 
S

$$$$
CTX-1020838
     RDKit          3D

 41 46  0  0  0  0  0  0  0  0999 V2000
   34.5071    9.1439  -24.6029 C   0  0  0  0  0  0  0  0  0  0  0  0
   34.6709   10.2896  -24.1789 O   0  0  0  0  0  0  0  0  0  0  0  0
   35.3341    8.6659  -25.6297 N   0  0  0  0  0  0  0  0  0  0  0  0
   36.1805    9.6603  -26.2987 C   0  0  0  0  0  0  0  0  0  0  0  0
   35.3916    7.2720  -26.0835 C   0  0  0  0  0  0  0  0  0  0  0  0
   36.8359    9.2028  -27.5845 C   0  0  0  0  0  0  0  0  0  0  0  0
   36.7435    6.8795  -26.6840 C   0  0  0  0  0  0  0  0  0  0  0  0
   37.1666   10.1493  -28.4963 N   0  0  0  0  0  0  0  0  0  0  0  0
   37.1341    7.8486  -27.7598 C   0  0  0  0  0  0  0  0  0  0  0  0
   37.8140    9.7247  -29.6196 C   0  0  0  0  0  0  0  0  0  0  0  0
   37.8123    7.4490  -28.9124 C   0  0  0  0  0  0  0  0  0  0  0  0
   38.1560    8.4021  -29.8645 C   0  0  0  0  0  0  0  0  0  0  0  0
   31.7495    8.0049  -26.2273 Cl  0  0  0  0  0  0  0  0  0  0  0  0
   32.3373    7.7483  -24.6508 C   0  0  0  0  0  0  0  0  0  0  0  0
   33.4698    8.2835  -24.0610 C   0  0  0  0  0  0  0  0  0  0  0  0
   31.7012    6.9241  -23.6819 C   0  0  0  0  0  0  0  0  0  0  0  0
   33.5728    7.8065  -22.7782 O   0  0  0  0  0  0  0  0  0  0  0  0
   32.5034    6.9980  -22.5505 C   0  0  0  0  0  0  0  0  0  0  0  0
   30.5419    6.1220  -23.6282 C   0  0  0  0  0  0  0  0  0  0  0  0
   32.2203    6.3241  -21.3660 C   0  0  0  0  0  0  0  0  0  0  0  0
   30.2410    5.4340  -22.4418 C   0  0  0  0  0  0  0  0  0  0  0  0
   33.0124    6.4236  -20.2915 F   0  0  0  0  0  0  0  0  0  0  0  0
   31.0717    5.5356  -21.3242 C   0  0  0  0  0  0  0  0  0  0  0  0
   38.1728   10.7852  -30.6175 C   0  0  0  0  0  0  0  0  0  0  0  0
   39.2889   11.2913  -30.6417 O   0  0  0  0  0  0  0  0  0  0  0  0
   37.1453   11.1265  -31.4685 N   0  0  0  0  0  0  0  0  0  0  0  0
   36.3255   10.5814  -31.4591 H   0  0  0  0  0  0  0  0  0  0  0  0
   37.2174   12.2462  -32.3718 C   0  0  0  0  0  0  0  0  0  0  0  0
   36.2056   13.2984  -32.0034 C   0  0  0  0  0  0  0  0  0  0  0  0
   36.5745   14.3914  -31.2135 C   0  0  0  0  0  0  0  0  0  0  0  0
   34.8741   13.1907  -32.4108 C   0  0  0  0  0  0  0  0  0  0  0  0
   35.6329   15.3634  -30.8499 C   0  0  0  0  0  0  0  0  0  0  0  0
   33.9399   14.1658  -32.0411 C   0  0  0  0  0  0  0  0  0  0  0  0
   34.2918   15.2690  -31.2453 C   0  0  0  0  0  0  0  0  0  0  0  0
   33.3123   16.2201  -30.9137 N   0  0  0  0  0  0  0  0  0  0  0  0
   32.1124   15.6332  -30.2681 C   0  0  0  0  0  0  0  0  0  0  0  0
   33.7517   17.4581  -30.2357 C   0  0  0  0  0  0  0  0  0  0  0  0
   30.9798   16.6837  -30.1674 C   0  0  0  0  0  0  0  0  0  0  0  0
   32.5888   18.4749  -30.1584 C   0  0  0  0  0  0  0  0  0  0  0  0
   31.3984   17.9224  -29.4740 N   0  0  0  0  0  0  0  0  0  0  0  0
   30.3117   18.8986  -29.4627 C   0  0  0  0  0  0  0  0  0  0  0  0
 13 14  1  0
 14 15  2  0
 14 16  1  0
 15 17  1  0
 15  1  1  0
 16 18  2  0
 16 19  1  0
  1  2  2  0
  1  3  1  0
 18 20  1  0
 19 21  2  0
  3  4  1  0
  3  5  1  0
 20 22  1  0
 20 23  2  0
  4  6  1  0
  5  7  1  0
  6  8  2  0
  6  9  1  0
  8 10  1  0
  9 11  2  0
 10 24  1  0
 10 12  2  0
 24 25  2  0
 24 26  1  0
 26 28  1  0
 28 29  1  0
 29 30  2  0
 29 31  1  0
 30 32  1  0
 31 33  2  0
 32 34  2  0
 34 35  1  0
 35 36  1  0
 35 37  1  0
 36 38  1  0
 37 39  1  0
 38 40  1  0
 40 41  1  0
 17 18  1  0
 21 23  1  0
  7  9  1  0
 11 12  1  0
 33 34  1  0
 39 40  1  0
 26 27  1  0
M  END
>  <Molecule Name>  (44) 
CTX-1020838

>  <SMILES>  (44) 
CN1CCN(CC1)C1=CC=C(CNC(=O)C2=CC=C3CCN(CC3=N2)C(=O)C2=C(Cl)C3=C(O2)C(F)=CC=C3)C=C1

>  <Batch Name>  (44) 
CTX-1020838-1

>  <Batch Created Date>  (44) 
2022-01-06

>  <Batch ID>  (44) 
CTX-1020838-1

>  <External ID>  (44) 
CD-42-P

>  <Stereochemistry>  (44) 
Achiral

>  <Amount 1>  (44) 
6.2

>  <Unit 1>  (44) 
mg

>  <CRO 1>  (44) 
Pharmaron

>  <CRO 1 Total Amount>  (44) 
20.9

>  <CRO 1 Unit>  (44) 
mg

>  <pIC50>  (44) 
5.208309

>  <SMILES_std>  (44) 
CN1CCN(c2ccc(CNC(=O)c3ccc4c(n3)CN(C(=O)c3oc5c(F)cccc5c3Cl)CC4)cc2)CC1

>  <embed_status>  (44) 
0

>  <mmff_status>  (44) 
0

>  <minimizedAffinity>  (44) 
-8.02069

>  <CNNscore>  (44) 
0.3553645313

>  <CNNaffinity>  (44) 
7.3974552155

>  <CNN_VS>  (44) 
2.6287932396

>  <CNNaffinity_variance>  (44) 
0.3212605715

>  <Docking_Rank>  (44) 
30

>  <Vina_Affinity_kcal_mol>  (44) 
-8.020

>  <CNN_pKi>  (44) 
7.397

>  <CNN_Pose_Score>  (44) 
0.3554

>  <Num_Docked_Poses>  (44) 
5

>  <MMGBSA_Rank>  (44) 
44

>  <MMGBSA_dG_kcal_mol>  (44) 
-53.575

>  <MMGBSA_VdW_kcal_mol>  (44) 
-53.417

>  <MMGBSA_Elec_kcal_mol>  (44) 
-1.926

>  <MMGBSA_PolarSolv_kcal_mol>  (44) 
8.321

>  <MMGBSA_NonPolarSolv_kcal_mol>  (44) 
-6.554

>  <MMGBSA_Status>  (44) 
S

$$$$
CTX-1020753
     RDKit          3D

 41 46  0  0  0  0  0  0  0  0999 V2000
   33.7740    8.7819  -23.8030 C   0  0  0  0  0  0  0  0  0  0  0  0
   33.8881    9.7729  -23.0830 O   0  0  0  0  0  0  0  0  0  0  0  0
   34.6330    8.5751  -24.8842 N   0  0  0  0  0  0  0  0  0  0  0  0
   35.6091    9.6326  -25.1412 C   0  0  0  0  0  0  0  0  0  0  0  0
   35.0117    7.2462  -25.3632 C   0  0  0  0  0  0  0  0  0  0  0  0
   36.3467    9.5133  -26.4599 C   0  0  0  0  0  0  0  0  0  0  0  0
   35.2774    7.2604  -26.8673 C   0  0  0  0  0  0  0  0  0  0  0  0
   37.1610   10.5467  -26.7937 N   0  0  0  0  0  0  0  0  0  0  0  0
   36.2106    8.3732  -27.2621 C   0  0  0  0  0  0  0  0  0  0  0  0
   37.8385   10.4508  -27.9733 C   0  0  0  0  0  0  0  0  0  0  0  0
   36.9134    8.3149  -28.4700 C   0  0  0  0  0  0  0  0  0  0  0  0
   37.7450    9.3676  -28.8334 C   0  0  0  0  0  0  0  0  0  0  0  0
   31.2956    7.9299  -25.8837 Cl  0  0  0  0  0  0  0  0  0  0  0  0
   31.7048    7.3687  -24.3243 C   0  0  0  0  0  0  0  0  0  0  0  0
   32.7623    7.7829  -23.5339 C   0  0  0  0  0  0  0  0  0  0  0  0
   30.9620    6.3854  -23.6134 C   0  0  0  0  0  0  0  0  0  0  0  0
   32.6333    7.1187  -22.3272 N   0  0  0  0  0  0  0  0  0  0  0  0
   31.5639    6.2442  -22.3602 C   0  0  0  0  0  0  0  0  0  0  0  0
   29.8195    5.6104  -23.9108 C   0  0  0  0  0  0  0  0  0  0  0  0
   33.5121    7.3167  -21.1909 C   0  0  0  0  0  0  0  0  0  0  0  0
   31.0614    5.3549  -21.3948 C   0  0  0  0  0  0  0  0  0  0  0  0
   29.3185    4.7183  -22.9582 C   0  0  0  0  0  0  0  0  0  0  0  0
   29.9334    4.5947  -21.7176 C   0  0  0  0  0  0  0  0  0  0  0  0
   38.7207   11.6110  -28.3269 C   0  0  0  0  0  0  0  0  0  0  0  0
   39.8080   11.4478  -28.8686 O   0  0  0  0  0  0  0  0  0  0  0  0
   38.1923   12.8397  -27.9979 N   0  0  0  0  0  0  0  0  0  0  0  0
   37.3750   12.8698  -27.4499 H   0  0  0  0  0  0  0  0  0  0  0  0
   38.7845   14.0826  -28.4215 C   0  0  0  0  0  0  0  0  0  0  0  0
   37.7239   15.0835  -28.7942 C   0  0  0  0  0  0  0  0  0  0  0  0
   36.9461   14.9171  -29.9411 C   0  0  0  0  0  0  0  0  0  0  0  0
   37.5229   16.2269  -28.0186 C   0  0  0  0  0  0  0  0  0  0  0  0
   35.9774   15.8694  -30.2894 C   0  0  0  0  0  0  0  0  0  0  0  0
   36.5504   17.1706  -28.3767 C   0  0  0  0  0  0  0  0  0  0  0  0
   35.7483   17.0204  -29.5190 C   0  0  0  0  0  0  0  0  0  0  0  0
   34.7915   17.9582  -29.8680 N   0  0  0  0  0  0  0  0  0  0  0  0
   33.4623   17.5584  -30.3581 C   0  0  0  0  0  0  0  0  0  0  0  0
   35.0643   19.4040  -29.8216 C   0  0  0  0  0  0  0  0  0  0  0  0
   32.8518   18.6462  -31.2741 C   0  0  0  0  0  0  0  0  0  0  0  0
   33.7526   20.1980  -29.6189 C   0  0  0  0  0  0  0  0  0  0  0  0
   32.7501   19.9998  -30.6888 N   0  0  0  0  0  0  0  0  0  0  0  0
   31.4064   20.2754  -30.1878 C   0  0  0  0  0  0  0  0  0  0  0  0
 13 14  1  0
 14 15  2  0
 14 16  1  0
 15 17  1  0
 15  1  1  0
 16 18  2  0
 16 19  1  0
 17 20  1  0
  1  2  2  0
  1  3  1  0
 18 21  1  0
 19 22  2  0
  3  4  1  0
  3  5  1  0
 21 23  2  0
  4  6  1  0
  5  7  1  0
  6  8  2  0
  6  9  1  0
  8 10  1  0
  9 11  2  0
 10 24  1  0
 10 12  2  0
 24 25  2  0
 24 26  1  0
 26 28  1  0
 28 29  1  0
 29 30  2  0
 29 31  1  0
 30 32  1  0
 31 33  2  0
 32 34  2  0
 34 35  1  0
 35 36  1  0
 35 37  1  0
 36 38  1  0
 37 39  1  0
 38 40  1  0
 40 41  1  0
 17 18  1  0
 22 23  1  0
  7  9  1  0
 11 12  1  0
 33 34  1  0
 39 40  1  0
 26 27  1  0
M  END
>  <Molecule Name>  (45) 
CTX-1020753

>  <SMILES>  (45) 
CN1C2=C(C=CC=C2)C(Cl)=C1C(=O)N1CCC2=CC=C(N=C2C1)C(=O)NCC1=CC=C(C=C1)N1CCN(C)CC1

>  <Batch Name>  (45) 
CTX-1020753-1

>  <Batch Created Date>  (45) 
2021-12-16

>  <Batch ID>  (45) 
CTX-1020753-1

>  <External ID>  (45) 
P841-0369

>  <Stereochemistry>  (45) 
Achiral

>  <Amount 1>  (45) 
5.1

>  <Unit 1>  (45) 
mg

>  <CRO 1>  (45) 
Pharmaron

>  <CRO 1 Total Amount>  (45) 
26.75

>  <CRO 1 Unit>  (45) 
mg

>  <pIC50>  (45) 
5.468521

>  <SMILES_std>  (45) 
CN1CCN(c2ccc(CNC(=O)c3ccc4c(n3)CN(C(=O)c3c(Cl)c5ccccc5n3C)CC4)cc2)CC1

>  <embed_status>  (45) 
0

>  <mmff_status>  (45) 
0

>  <minimizedAffinity>  (45) 
-8.52594

>  <CNNscore>  (45) 
0.5633822680

>  <CNNaffinity>  (45) 
7.8261661530

>  <CNN_VS>  (45) 
4.4091234207

>  <CNNaffinity_variance>  (45) 
0.0769782662

>  <Docking_Rank>  (45) 
10

>  <Vina_Affinity_kcal_mol>  (45) 
-8.530

>  <CNN_pKi>  (45) 
7.826

>  <CNN_Pose_Score>  (45) 
0.5634

>  <Num_Docked_Poses>  (45) 
5

>  <MMGBSA_Rank>  (45) 
45

>  <MMGBSA_dG_kcal_mol>  (45) 
-53.209

>  <MMGBSA_VdW_kcal_mol>  (45) 
-53.720

>  <MMGBSA_Elec_kcal_mol>  (45) 
-2.303

>  <MMGBSA_PolarSolv_kcal_mol>  (45) 
8.899

>  <MMGBSA_NonPolarSolv_kcal_mol>  (45) 
-6.084

>  <MMGBSA_Status>  (45) 
S

$$$$
CTX-1020454
     RDKit          3D

 41 46  0  0  0  0  0  0  0  0999 V2000
   34.0501    8.9888  -24.1611 C   0  0  0  0  0  0  0  0  0  0  0  0
   34.3282   10.0638  -23.6229 O   0  0  0  0  0  0  0  0  0  0  0  0
   34.6934    8.6295  -25.3535 N   0  0  0  0  0  0  0  0  0  0  0  0
   35.8399    9.4533  -25.7504 C   0  0  0  0  0  0  0  0  0  0  0  0
   34.2957    7.5117  -26.2168 C   0  0  0  0  0  0  0  0  0  0  0  0
   36.7294    8.8527  -26.8183 C   0  0  0  0  0  0  0  0  0  0  0  0
   34.7048    7.6858  -27.6819 C   0  0  0  0  0  0  0  0  0  0  0  0
   38.0352    9.2144  -26.8354 N   0  0  0  0  0  0  0  0  0  0  0  0
   36.1665    8.0073  -27.7786 C   0  0  0  0  0  0  0  0  0  0  0  0
   38.8014    8.7084  -27.8446 C   0  0  0  0  0  0  0  0  0  0  0  0
   36.9732    7.5204  -28.8077 C   0  0  0  0  0  0  0  0  0  0  0  0
   38.3180    7.8717  -28.8412 C   0  0  0  0  0  0  0  0  0  0  0  0
   32.6685    6.4395  -19.7020 F   0  0  0  0  0  0  0  0  0  0  0  0
   31.8426    6.3074  -20.7475 C   0  0  0  0  0  0  0  0  0  0  0  0
   32.1014    6.9200  -21.9701 C   0  0  0  0  0  0  0  0  0  0  0  0
   30.6858    5.5376  -20.6378 C   0  0  0  0  0  0  0  0  0  0  0  0
   33.1683    7.7071  -22.2627 O   0  0  0  0  0  0  0  0  0  0  0  0
   31.2725    6.8003  -23.0774 C   0  0  0  0  0  0  0  0  0  0  0  0
   29.8244    5.3959  -21.7271 C   0  0  0  0  0  0  0  0  0  0  0  0
   33.0588    8.0951  -23.5708 C   0  0  0  0  0  0  0  0  0  0  0  0
   31.8875    7.5693  -24.1131 C   0  0  0  0  0  0  0  0  0  0  0  0
   30.1037    6.0216  -22.9532 C   0  0  0  0  0  0  0  0  0  0  0  0
   31.3840    7.7787  -25.4959 C   0  0  0  0  0  0  0  0  0  0  0  0
   40.2443    9.1173  -27.8483 C   0  0  0  0  0  0  0  0  0  0  0  0
   40.5856   10.2677  -27.5980 O   0  0  0  0  0  0  0  0  0  0  0  0
   41.1174    8.0936  -28.1426 N   0  0  0  0  0  0  0  0  0  0  0  0
   40.7484    7.2342  -28.4501 H   0  0  0  0  0  0  0  0  0  0  0  0
   42.5463    8.2251  -28.0203 C   0  0  0  0  0  0  0  0  0  0  0  0
   43.1833    6.8981  -27.7060 C   0  0  0  0  0  0  0  0  0  0  0  0
   43.7059    6.1020  -28.7270 C   0  0  0  0  0  0  0  0  0  0  0  0
   43.3040    6.4492  -26.3899 C   0  0  0  0  0  0  0  0  0  0  0  0
   44.3192    4.8764  -28.4338 C   0  0  0  0  0  0  0  0  0  0  0  0
   43.9183    5.2201  -26.1097 C   0  0  0  0  0  0  0  0  0  0  0  0
   44.4432    4.3983  -27.1197 C   0  0  0  0  0  0  0  0  0  0  0  0
   45.0471    3.1844  -26.8383 N   0  0  0  0  0  0  0  0  0  0  0  0
   46.1123    3.0701  -25.8284 C   0  0  0  0  0  0  0  0  0  0  0  0
   44.6071    1.9299  -27.4697 C   0  0  0  0  0  0  0  0  0  0  0  0
   46.1487    1.6525  -25.2082 C   0  0  0  0  0  0  0  0  0  0  0  0
   45.7632    0.9031  -27.4992 C   0  0  0  0  0  0  0  0  0  0  0  0
   46.2824    0.5330  -26.1641 N   0  0  0  0  0  0  0  0  0  0  0  0
   47.6620    0.0653  -26.2634 C   0  0  0  0  0  0  0  0  0  0  0  0
 13 14  1  0
 14 15  2  0
 14 16  1  0
 15 17  1  0
 15 18  1  0
 16 19  2  0
 17 20  1  0
 18 21  1  0
 18 22  2  0
 20  1  1  0
 21 23  1  0
  1  2  2  0
  1  3  1  0
  3  4  1  0
  3  5  1  0
  4  6  1  0
  5  7  1  0
  6  8  2  0
  6  9  1  0
  8 10  1  0
  9 11  2  0
 10 24  1  0
 10 12  2  0
 24 25  2  0
 24 26  1  0
 26 28  1  0
 28 29  1  0
 29 30  2  0
 29 31  1  0
 30 32  1  0
 31 33  2  0
 32 34  2  0
 34 35  1  0
 35 36  1  0
 35 37  1  0
 36 38  1  0
 37 39  1  0
 38 40  1  0
 40 41  1  0
 19 22  1  0
 20 21  2  0
  7  9  1  0
 11 12  1  0
 33 34  1  0
 39 40  1  0
 26 27  1  0
M  END
>  <Molecule Name>  (46) 
CTX-1020454

>  <SMILES>  (46) 
CN1CCN(CC1)C1=CC=C(CNC(=O)C2=CC=C3CCN(CC3=N2)C(=O)C2=C(C)C3=CC=CC(F)=C3O2)C=C1

>  <Batch Name>  (46) 
CTX-1020454-1

>  <Batch Created Date>  (46) 
2021-10-21

>  <Batch ID>  (46) 
CTX-1020454-1

>  <External ID>  (46) 
P841-0210

>  <Stereochemistry>  (46) 
Achiral

>  <Amount 1>  (46) 
4.9

>  <Unit 1>  (46) 
mg

>  <CRO 1>  (46) 
Pharmaron

>  <CRO 1 Total Amount>  (46) 
34.7

>  <CRO 1 Unit>  (46) 
mg

>  <pIC50>  (46) 
5.567031

>  <SMILES_std>  (46) 
Cc1c(C(=O)N2CCc3ccc(C(=O)NCc4ccc(N5CCN(C)CC5)cc4)nc3C2)oc2c(F)cccc12

>  <embed_status>  (46) 
0

>  <mmff_status>  (46) 
0

>  <minimizedAffinity>  (46) 
-8.90698

>  <CNNscore>  (46) 
0.4532894790

>  <CNNaffinity>  (46) 
7.2327461243

>  <CNN_VS>  (46) 
3.2785277367

>  <CNNaffinity_variance>  (46) 
0.0969752073

>  <Docking_Rank>  (46) 
40

>  <Vina_Affinity_kcal_mol>  (46) 
-8.910

>  <CNN_pKi>  (46) 
7.233

>  <CNN_Pose_Score>  (46) 
0.4533

>  <Num_Docked_Poses>  (46) 
5

>  <MMGBSA_Rank>  (46) 
46

>  <MMGBSA_dG_kcal_mol>  (46) 
-52.562

>  <MMGBSA_VdW_kcal_mol>  (46) 
-51.299

>  <MMGBSA_Elec_kcal_mol>  (46) 
-2.734

>  <MMGBSA_PolarSolv_kcal_mol>  (46) 
7.474

>  <MMGBSA_NonPolarSolv_kcal_mol>  (46) 
-6.003

>  <MMGBSA_Status>  (46) 
S

$$$$
CTX-1020458
     RDKit          3D

 41 46  0  0  0  0  0  0  0  0999 V2000
   37.2283    9.6792  -27.3798 C   0  0  0  0  0  0  0  0  0  0  0  0
   36.5479    9.8679  -26.2131 N   0  0  0  0  0  0  0  0  0  0  0  0
   36.8388    8.7883  -28.3683 C   0  0  0  0  0  0  0  0  0  0  0  0
   35.4264    9.1278  -26.0233 C   0  0  0  0  0  0  0  0  0  0  0  0
   35.6836    8.0440  -28.1594 C   0  0  0  0  0  0  0  0  0  0  0  0
   34.9521    8.2184  -26.9803 C   0  0  0  0  0  0  0  0  0  0  0  0
   34.6742    9.3565  -24.7253 C   0  0  0  0  0  0  0  0  0  0  0  0
   33.7129    7.4001  -26.7222 C   0  0  0  0  0  0  0  0  0  0  0  0
   33.5887    8.4085  -24.4901 N   0  0  0  0  0  0  0  0  0  0  0  0
   32.8133    8.0569  -25.6781 C   0  0  0  0  0  0  0  0  0  0  0  0
   33.0863    8.3311  -23.1866 C   0  0  0  0  0  0  0  0  0  0  0  0
   33.4694    9.1279  -22.3274 O   0  0  0  0  0  0  0  0  0  0  0  0
   32.1308    7.2801  -22.8691 C   0  0  0  0  0  0  0  0  0  0  0  0
   31.0291    7.1036  -23.6642 O   0  0  0  0  0  0  0  0  0  0  0  0
   32.1625    6.2942  -21.8878 C   0  0  0  0  0  0  0  0  0  0  0  0
   30.3404    6.0377  -23.1818 C   0  0  0  0  0  0  0  0  0  0  0  0
   30.9930    5.4974  -22.0837 C   0  0  0  0  0  0  0  0  0  0  0  0
   33.2137    6.1118  -20.8543 C   0  0  0  0  0  0  0  0  0  0  0  0
   29.1493    5.5441  -23.7113 C   0  0  0  0  0  0  0  0  0  0  0  0
   30.4234    4.3719  -21.4611 C   0  0  0  0  0  0  0  0  0  0  0  0
   28.5802    4.4321  -23.0711 C   0  0  0  0  0  0  0  0  0  0  0  0
   29.2222    3.8511  -21.9677 C   0  0  0  0  0  0  0  0  0  0  0  0
   27.3153    3.8262  -23.6090 C   0  0  0  0  0  0  0  0  0  0  0  0
   39.2921   10.2405  -28.4292 O   0  0  0  0  0  0  0  0  0  0  0  0
   38.4626   10.5101  -27.5681 C   0  0  0  0  0  0  0  0  0  0  0  0
   38.5557   11.5808  -26.7068 N   0  0  0  0  0  0  0  0  0  0  0  0
   37.9081   11.6484  -25.9684 H   0  0  0  0  0  0  0  0  0  0  0  0
   39.5588   12.6059  -26.8389 C   0  0  0  0  0  0  0  0  0  0  0  0
   38.9682   13.8617  -27.4230 C   0  0  0  0  0  0  0  0  0  0  0  0
   39.0981   15.0834  -26.7549 C   0  0  0  0  0  0  0  0  0  0  0  0
   38.3160   13.8436  -28.6583 C   0  0  0  0  0  0  0  0  0  0  0  0
   38.5697   16.2596  -27.3027 C   0  0  0  0  0  0  0  0  0  0  0  0
   37.7924   15.0237  -29.1987 C   0  0  0  0  0  0  0  0  0  0  0  0
   37.9038   16.2563  -28.5346 C   0  0  0  0  0  0  0  0  0  0  0  0
   37.3637   17.4045  -29.1306 N   0  0  0  0  0  0  0  0  0  0  0  0
   36.4445   17.2700  -30.2794 C   0  0  0  0  0  0  0  0  0  0  0  0
   36.9557   18.4268  -28.1328 C   0  0  0  0  0  0  0  0  0  0  0  0
   34.9834   17.5687  -29.8774 C   0  0  0  0  0  0  0  0  0  0  0  0
   36.0190   19.4834  -28.7623 C   0  0  0  0  0  0  0  0  0  0  0  0
   34.7601   18.9139  -29.2975 N   0  0  0  0  0  0  0  0  0  0  0  0
   34.1561   19.8285  -30.2623 C   0  0  0  0  0  0  0  0  0  0  0  0
 24 25  2  0
 25 26  1  0
 25  1  1  0
 26 28  1  0
  1  2  2  0
  1  3  1  0
 28 29  1  0
  2  4  1  0
  3  5  2  0
 29 30  2  0
 29 31  1  0
  4  6  2  0
  4  7  1  0
 30 32  1  0
 31 33  2  0
  6  8  1  0
  7  9  1  0
 32 34  2  0
  8 10  1  0
  9 11  1  0
 34 35  1  0
 11 12  2  0
 11 13  1  0
 35 36  1  0
 35 37  1  0
 13 14  1  0
 13 15  2  0
 36 38  1  0
 37 39  1  0
 14 16  1  0
 15 17  1  0
 15 18  1  0
 38 40  1  0
 16 19  2  0
 17 20  2  0
 40 41  1  0
 19 21  1  0
 20 22  1  0
 21 23  1  0
  5  6  1  0
 33 34  1  0
  9 10  1  0
 39 40  1  0
 16 17  1  0
 21 22  2  0
 26 27  1  0
M  END
>  <Molecule Name>  (47) 
CTX-1020458

>  <SMILES>  (47) 
CN1CCN(CC1)C1=CC=C(CNC(=O)C2=NC3=C(CCN(C3)C(=O)C3=C(C)C4=C(O3)C=C(C)C=C4)C=C2)C=C1

>  <Batch Name>  (47) 
CTX-1020458-1

>  <Batch Created Date>  (47) 
2021-10-21

>  <Batch ID>  (47) 
CTX-1020458-1

>  <External ID>  (47) 
P841-0212

>  <Stereochemistry>  (47) 
Achiral

>  <Amount 1>  (47) 
4.6

>  <Unit 1>  (47) 
mg

>  <CRO 1>  (47) 
Pharmaron

>  <CRO 1 Total Amount>  (47) 
28.0

>  <CRO 1 Unit>  (47) 
mg

>  <pIC50>  (47) 
5.323306

>  <SMILES_std>  (47) 
Cc1ccc2c(C)c(C(=O)N3CCc4ccc(C(=O)NCc5ccc(N6CCN(C)CC6)cc5)nc4C3)oc2c1

>  <embed_status>  (47) 
0

>  <mmff_status>  (47) 
0

>  <minimizedAffinity>  (47) 
-10.65185

>  <CNNscore>  (47) 
0.6249995828

>  <CNNaffinity>  (47) 
7.4731698036

>  <CNN_VS>  (47) 
4.6707282066

>  <CNNaffinity_variance>  (47) 
0.2387979031

>  <Docking_Rank>  (47) 
22

>  <Vina_Affinity_kcal_mol>  (47) 
-10.650

>  <CNN_pKi>  (47) 
7.473

>  <CNN_Pose_Score>  (47) 
0.6250

>  <Num_Docked_Poses>  (47) 
5

>  <MMGBSA_Rank>  (47) 
47

>  <MMGBSA_dG_kcal_mol>  (47) 
-52.338

>  <MMGBSA_VdW_kcal_mol>  (47) 
-53.526

>  <MMGBSA_Elec_kcal_mol>  (47) 
-0.516

>  <MMGBSA_PolarSolv_kcal_mol>  (47) 
8.099

>  <MMGBSA_NonPolarSolv_kcal_mol>  (47) 
-6.395

>  <MMGBSA_Status>  (47) 
S

$$$$
CTX-1019660
     RDKit          3D

 39 44  0  0  0  0  0  0  0  0999 V2000
   34.1540    8.1530  -25.4403 C   0  0  0  0  0  0  0  0  0  0  0  0
   34.2285    7.7488  -24.1396 N   0  0  0  0  0  0  0  0  0  0  0  0
   32.9860    8.1423  -26.1871 C   0  0  0  0  0  0  0  0  0  0  0  0
   33.0830    7.3117  -23.5589 C   0  0  0  0  0  0  0  0  0  0  0  0
   31.8235    7.6877  -25.5757 C   0  0  0  0  0  0  0  0  0  0  0  0
   31.8670    7.2528  -24.2478 C   0  0  0  0  0  0  0  0  0  0  0  0
   33.1764    6.8958  -22.1054 C   0  0  0  0  0  0  0  0  0  0  0  0
   30.6271    6.7759  -23.5481 C   0  0  0  0  0  0  0  0  0  0  0  0
   31.9711    6.2961  -21.5264 N   0  0  0  0  0  0  0  0  0  0  0  0
   30.9699    5.7656  -22.4541 C   0  0  0  0  0  0  0  0  0  0  0  0
   31.9731    6.1204  -20.1437 C   0  0  0  0  0  0  0  0  0  0  0  0
   32.8258    6.6266  -19.4209 O   0  0  0  0  0  0  0  0  0  0  0  0
   30.9264    5.3116  -19.5625 C   0  0  0  0  0  0  0  0  0  0  0  0
   30.0994    5.6161  -18.5034 C   0  0  0  0  0  0  0  0  0  0  0  0
   30.4462    4.0635  -20.0071 C   0  0  0  0  0  0  0  0  0  0  0  0
   29.2440    4.5512  -18.3248 N   0  0  0  0  0  0  0  0  0  0  0  0
   29.9645    6.7476  -17.6325 C   0  0  0  0  0  0  0  0  0  0  0  0
   29.4643    3.5796  -19.2410 N   0  0  0  0  0  0  0  0  0  0  0  0
   28.3202    4.5897  -17.2951 C   0  0  0  0  0  0  0  0  0  0  0  0
   29.0967    6.7734  -16.6604 N   0  0  0  0  0  0  0  0  0  0  0  0
   28.2750    5.6728  -16.5040 C   0  0  0  0  0  0  0  0  0  0  0  0
   35.8470    9.7751  -25.8568 O   0  0  0  0  0  0  0  0  0  0  0  0
   35.4306    8.6399  -26.0582 C   0  0  0  0  0  0  0  0  0  0  0  0
   36.0699    7.7045  -26.8413 N   0  0  0  0  0  0  0  0  0  0  0  0
   35.6010    6.8642  -27.0493 H   0  0  0  0  0  0  0  0  0  0  0  0
   37.3955    7.9037  -27.3689 C   0  0  0  0  0  0  0  0  0  0  0  0
   37.3618    8.7885  -28.5867 C   0  0  0  0  0  0  0  0  0  0  0  0
   38.3604    9.7451  -28.7958 C   0  0  0  0  0  0  0  0  0  0  0  0
   36.3609    8.6481  -29.5510 C   0  0  0  0  0  0  0  0  0  0  0  0
   38.3485   10.5556  -29.9384 C   0  0  0  0  0  0  0  0  0  0  0  0
   36.3555    9.4640  -30.6882 C   0  0  0  0  0  0  0  0  0  0  0  0
   37.3463   10.4349  -30.9088 C   0  0  0  0  0  0  0  0  0  0  0  0
   37.2832   11.2240  -32.0657 N   0  0  0  0  0  0  0  0  0  0  0  0
   36.0177   11.8940  -32.4292 C   0  0  0  0  0  0  0  0  0  0  0  0
   38.0087   10.6167  -33.2113 C   0  0  0  0  0  0  0  0  0  0  0  0
   35.3347   11.2063  -33.6317 C   0  0  0  0  0  0  0  0  0  0  0  0
   37.6013   11.2772  -34.5484 C   0  0  0  0  0  0  0  0  0  0  0  0
   36.1596   11.1394  -34.8607 N   0  0  0  0  0  0  0  0  0  0  0  0
   35.7525   12.1385  -35.8445 C   0  0  0  0  0  0  0  0  0  0  0  0
 22 23  2  0
 23 24  1  0
 23  1  1  0
 24 26  1  0
  1  2  2  0
  1  3  1  0
 26 27  1  0
  2  4  1  0
  3  5  2  0
 27 28  2  0
 27 29  1  0
  4  6  2  0
  4  7  1  0
 28 30  1  0
 29 31  2  0
  6  8  1  0
  7  9  1  0
 30 32  2  0
  8 10  1  0
  9 11  1  0
 32 33  1  0
 11 12  2  0
 11 13  1  0
 33 34  1  0
 33 35  1  0
 13 14  2  0
 13 15  1  0
 34 36  1  0
 35 37  1  0
 14 16  1  0
 14 17  1  0
 15 18  2  0
 36 38  1  0
 16 19  1  0
 17 20  2  0
 38 39  1  0
 19 21  2  0
  5  6  1  0
 31 32  1  0
  9 10  1  0
 37 38  1  0
 16 18  1  0
 20 21  1  0
 24 25  1  0
M  END
>  <Molecule Name>  (48) 
CTX-1019660

>  <SMILES>  (48) 
CN1CCN(CC1)C1=CC=C(CNC(=O)C2=NC3=C(CCN(C3)C(=O)C3=C4C=NC=CN4N=C3)C=C2)C=C1

>  <Batch Name>  (48) 
CTX-1019660-1

>  <Batch Created Date>  (48) 
2021-08-19

>  <Batch ID>  (48) 
CTX-1019660-1

>  <External ID>  (48) 
P841-0126

>  <Stereochemistry>  (48) 
Achiral

>  <Amount 1>  (48) 
2.45

>  <Unit 1>  (48) 
mg

>  <CRO 1>  (48) 
Pharmaron

>  <CRO 1 Total Amount>  (48) 
10.8

>  <CRO 1 Unit>  (48) 
mg

>  <pIC50>  (48) 
5.110698

>  <SMILES_std>  (48) 
CN1CCN(c2ccc(CNC(=O)c3ccc4c(n3)CN(C(=O)c3cnn5ccncc35)CC4)cc2)CC1

>  <embed_status>  (48) 
0

>  <mmff_status>  (48) 
0

>  <minimizedAffinity>  (48) 
-9.16709

>  <CNNscore>  (48) 
0.4036110044

>  <CNNaffinity>  (48) 
7.1512274742

>  <CNN_VS>  (48) 
2.8863141537

>  <CNNaffinity_variance>  (48) 
0.2586490214

>  <Docking_Rank>  (48) 
45

>  <Vina_Affinity_kcal_mol>  (48) 
-9.170

>  <CNN_pKi>  (48) 
7.151

>  <CNN_Pose_Score>  (48) 
0.4036

>  <Num_Docked_Poses>  (48) 
5

>  <MMGBSA_Rank>  (48) 
48

>  <MMGBSA_dG_kcal_mol>  (48) 
-51.465

>  <MMGBSA_VdW_kcal_mol>  (48) 
-53.226

>  <MMGBSA_Elec_kcal_mol>  (48) 
-1.070

>  <MMGBSA_PolarSolv_kcal_mol>  (48) 
9.346

>  <MMGBSA_NonPolarSolv_kcal_mol>  (48) 
-6.515

>  <MMGBSA_Status>  (48) 
S

$$$$
CTX-1020456
     RDKit          3D

 40 45  0  0  0  0  0  0  0  0999 V2000
   33.8266    8.9001  -23.9226 C   0  0  0  0  0  0  0  0  0  0  0  0
   33.9904    9.9519  -23.3061 O   0  0  0  0  0  0  0  0  0  0  0  0
   34.5446    8.6268  -25.0927 N   0  0  0  0  0  0  0  0  0  0  0  0
   35.6156    9.5649  -25.4295 C   0  0  0  0  0  0  0  0  0  0  0  0
   34.5981    7.3196  -25.7466 C   0  0  0  0  0  0  0  0  0  0  0  0
   36.1862    9.4260  -26.8264 C   0  0  0  0  0  0  0  0  0  0  0  0
   34.6610    7.4662  -27.2657 C   0  0  0  0  0  0  0  0  0  0  0  0
   37.1485   10.3162  -27.1775 N   0  0  0  0  0  0  0  0  0  0  0  0
   35.7476    8.4147  -27.6892 C   0  0  0  0  0  0  0  0  0  0  0  0
   37.6747   10.2051  -28.4309 C   0  0  0  0  0  0  0  0  0  0  0  0
   36.2999    8.3395  -28.9719 C   0  0  0  0  0  0  0  0  0  0  0  0
   37.2840    9.2448  -29.3510 C   0  0  0  0  0  0  0  0  0  0  0  0
   31.2411    7.9300  -25.6647 Cl  0  0  0  0  0  0  0  0  0  0  0  0
   31.7777    7.4089  -24.1181 C   0  0  0  0  0  0  0  0  0  0  0  0
   32.8843    7.9044  -23.4691 C   0  0  0  0  0  0  0  0  0  0  0  0
   31.0868    6.4041  -23.3530 C   0  0  0  0  0  0  0  0  0  0  0  0
   33.1349    7.1570  -21.9611 S   0  0  0  0  0  0  0  0  0  0  0  0
   31.7335    6.1706  -22.1343 C   0  0  0  0  0  0  0  0  0  0  0  0
   29.9142    5.6536  -23.6313 C   0  0  0  0  0  0  0  0  0  0  0  0
   31.2482    5.2277  -21.2064 C   0  0  0  0  0  0  0  0  0  0  0  0
   29.4292    4.7178  -22.7126 C   0  0  0  0  0  0  0  0  0  0  0  0
   30.0914    4.5087  -21.5123 C   0  0  0  0  0  0  0  0  0  0  0  0
   38.7402   11.1964  -28.7923 C   0  0  0  0  0  0  0  0  0  0  0  0
   39.8077   10.8411  -29.2788 O   0  0  0  0  0  0  0  0  0  0  0  0
   38.4076   12.5042  -28.5172 N   0  0  0  0  0  0  0  0  0  0  0  0
   37.4831   12.7080  -28.2471 H   0  0  0  0  0  0  0  0  0  0  0  0
   39.3533   13.5869  -28.6074 C   0  0  0  0  0  0  0  0  0  0  0  0
   40.2382   13.6278  -27.3906 C   0  0  0  0  0  0  0  0  0  0  0  0
   39.9809   12.8175  -26.2837 C   0  0  0  0  0  0  0  0  0  0  0  0
   41.3645   14.4525  -27.3591 C   0  0  0  0  0  0  0  0  0  0  0  0
   40.8272   12.8486  -25.1662 C   0  0  0  0  0  0  0  0  0  0  0  0
   42.2022   14.4754  -26.2356 C   0  0  0  0  0  0  0  0  0  0  0  0
   41.9606   13.6757  -25.1078 C   0  0  0  0  0  0  0  0  0  0  0  0
   42.7873   13.7020  -23.9972 N   0  0  0  0  0  0  0  0  0  0  0  0
   43.7267   14.8089  -23.7531 C   0  0  0  0  0  0  0  0  0  0  0  0
   42.8555   12.5680  -23.0607 C   0  0  0  0  0  0  0  0  0  0  0  0
   44.0567   14.9160  -22.2460 C   0  0  0  0  0  0  0  0  0  0  0  0
   44.2413   12.4853  -22.3765 C   0  0  0  0  0  0  0  0  0  0  0  0
   44.6886   13.7065  -21.6742 N   0  0  0  0  0  0  0  0  0  0  0  0
   44.4392   13.6293  -20.2375 C   0  0  0  0  0  0  0  0  0  0  0  0
 13 14  1  0
 14 15  2  0
 14 16  1  0
 15 17  1  0
 15  1  1  0
 16 18  2  0
 16 19  1  0
  1  2  2  0
  1  3  1  0
 18 20  1  0
 19 21  2  0
  3  4  1  0
  3  5  1  0
 20 22  2  0
  4  6  1  0
  5  7  1  0
  6  8  2  0
  6  9  1  0
  8 10  1  0
  9 11  2  0
 10 23  1  0
 10 12  2  0
 23 24  2  0
 23 25  1  0
 25 27  1  0
 27 28  1  0
 28 29  2  0
 28 30  1  0
 29 31  1  0
 30 32  2  0
 31 33  2  0
 33 34  1  0
 34 35  1  0
 34 36  1  0
 35 37  1  0
 36 38  1  0
 37 39  1  0
 39 40  1  0
 17 18  1  0
 21 22  1  0
  7  9  1  0
 11 12  1  0
 32 33  1  0
 38 39  1  0
 25 26  1  0
M  END
>  <Molecule Name>  (49) 
CTX-1020456

>  <SMILES>  (49) 
CN1CCN(CC1)C1=CC=C(CNC(=O)C2=CC=C3CCN(CC3=N2)C(=O)C2=C(Cl)C3=C(S2)C=CC=C3)C=C1

>  <Batch Name>  (49) 
CTX-1020456-1

>  <Batch Created Date>  (49) 
2021-10-21

>  <Batch ID>  (49) 
CTX-1020456-1

>  <External ID>  (49) 
P841-0209

>  <Stereochemistry>  (49) 
Achiral

>  <Amount 1>  (49) 
4.6

>  <Unit 1>  (49) 
mg

>  <CRO 1>  (49) 
Pharmaron

>  <CRO 1 Total Amount>  (49) 
37.7

>  <CRO 1 Unit>  (49) 
mg

>  <pIC50>  (49) 
5.958607

>  <SMILES_std>  (49) 
CN1CCN(c2ccc(CNC(=O)c3ccc4c(n3)CN(C(=O)c3sc5ccccc5c3Cl)CC4)cc2)CC1

>  <embed_status>  (49) 
0

>  <mmff_status>  (49) 
0

>  <minimizedAffinity>  (49) 
-7.99840

>  <CNNscore>  (49) 
0.5093038678

>  <CNNaffinity>  (49) 
7.6668262482

>  <CNN_VS>  (49) 
3.9047441483

>  <CNNaffinity_variance>  (49) 
0.3431596458

>  <Docking_Rank>  (49) 
14

>  <Vina_Affinity_kcal_mol>  (49) 
-8.000

>  <CNN_pKi>  (49) 
7.667

>  <CNN_Pose_Score>  (49) 
0.5093

>  <Num_Docked_Poses>  (49) 
5

>  <MMGBSA_Rank>  (49) 
49

>  <MMGBSA_dG_kcal_mol>  (49) 
-50.429

>  <MMGBSA_VdW_kcal_mol>  (49) 
-50.151

>  <MMGBSA_Elec_kcal_mol>  (49) 
-2.673

>  <MMGBSA_PolarSolv_kcal_mol>  (49) 
7.815

>  <MMGBSA_NonPolarSolv_kcal_mol>  (49) 
-5.420

>  <MMGBSA_Status>  (49) 
S

$$$$
CTX-1020746
     RDKit          3D

 40 45  0  0  0  0  0  0  0  0999 V2000
   29.5637    5.7331  -23.4993 O   0  0  0  0  0  0  0  0  0  0  0  0
   30.4291    6.0706  -22.6875 C   0  0  0  0  0  0  0  0  0  0  0  0
   31.5977    6.7082  -23.1370 N   0  0  0  0  0  0  0  0  0  0  0  0
   31.4866    7.3298  -24.4768 C   0  0  0  0  0  0  0  0  0  0  0  0
   32.7175    7.1162  -22.2518 C   0  0  0  0  0  0  0  0  0  0  0  0
   32.8156    7.7683  -24.9849 C   0  0  0  0  0  0  0  0  0  0  0  0
   34.1091    7.0890  -22.9287 C   0  0  0  0  0  0  0  0  0  0  0  0
   33.0426    8.3470  -26.2083 N   0  0  0  0  0  0  0  0  0  0  0  0
   33.9883    7.6658  -24.2788 C   0  0  0  0  0  0  0  0  0  0  0  0
   34.3495    8.5805  -26.2469 C   0  0  0  0  0  0  0  0  0  0  0  0
   34.9615    8.1740  -25.0826 N   0  0  0  0  0  0  0  0  0  0  0  0
   35.9209    8.2388  -24.8716 H   0  0  0  0  0  0  0  0  0  0  0  0
   30.2481    5.8064  -21.2666 C   0  0  0  0  0  0  0  0  0  0  0  0
   30.0204    6.8422  -20.4000 O   0  0  0  0  0  0  0  0  0  0  0  0
   30.1633    4.5977  -20.5814 C   0  0  0  0  0  0  0  0  0  0  0  0
   29.8284    6.3122  -19.1651 C   0  0  0  0  0  0  0  0  0  0  0  0
   29.9069    4.9277  -19.2155 C   0  0  0  0  0  0  0  0  0  0  0  0
   30.3044    3.2401  -21.1680 C   0  0  0  0  0  0  0  0  0  0  0  0
   29.5814    7.0437  -18.0054 C   0  0  0  0  0  0  0  0  0  0  0  0
   29.7223    4.2070  -18.0203 C   0  0  0  0  0  0  0  0  0  0  0  0
   29.4051    6.3086  -16.8291 C   0  0  0  0  0  0  0  0  0  0  0  0
   29.4739    4.9135  -16.8343 C   0  0  0  0  0  0  0  0  0  0  0  0
   35.0506    9.1784  -27.3666 C   0  0  0  0  0  0  0  0  0  0  0  0
   35.7271   10.1982  -27.2656 O   0  0  0  0  0  0  0  0  0  0  0  0
   34.8833    8.4849  -28.5408 N   0  0  0  0  0  0  0  0  0  0  0  0
   34.2279    7.7506  -28.5637 H   0  0  0  0  0  0  0  0  0  0  0  0
   35.6229    8.7832  -29.7385 C   0  0  0  0  0  0  0  0  0  0  0  0
   37.1047    8.7531  -29.4776 C   0  0  0  0  0  0  0  0  0  0  0  0
   37.6990    7.6429  -28.8738 C   0  0  0  0  0  0  0  0  0  0  0  0
   37.9239    9.8163  -29.8591 C   0  0  0  0  0  0  0  0  0  0  0  0
   39.0830    7.6028  -28.6504 C   0  0  0  0  0  0  0  0  0  0  0  0
   39.3055    9.7635  -29.6323 C   0  0  0  0  0  0  0  0  0  0  0  0
   39.9284    8.6506  -29.0412 C   0  0  0  0  0  0  0  0  0  0  0  0
   41.3092    8.6512  -28.8299 N   0  0  0  0  0  0  0  0  0  0  0  0
   42.0171    7.4131  -28.4403 C   0  0  0  0  0  0  0  0  0  0  0  0
   42.1270    9.4667  -29.7606 C   0  0  0  0  0  0  0  0  0  0  0  0
   42.4830    6.6044  -29.6763 C   0  0  0  0  0  0  0  0  0  0  0  0
   42.5613    8.6320  -30.9902 C   0  0  0  0  0  0  0  0  0  0  0  0
   43.3049    7.4079  -30.6105 N   0  0  0  0  0  0  0  0  0  0  0  0
   43.6517    6.6277  -31.7958 C   0  0  0  0  0  0  0  0  0  0  0  0
  1  2  2  0
  2  3  1  0
  2 13  1  0
  3  4  1  0
  3  5  1  0
 13 14  1  0
 13 15  2  0
  4  6  1  0
  5  7  1  0
 14 16  1  0
 15 17  1  0
 15 18  1  0
  6  8  1  0
  6  9  2  0
 16 19  2  0
 17 20  2  0
  8 10  2  0
  9 11  1  0
 19 21  1  0
 20 22  1  0
 10 23  1  0
 23 24  2  0
 23 25  1  0
 25 27  1  0
 27 28  1  0
 28 29  2  0
 28 30  1  0
 29 31  1  0
 30 32  2  0
 31 33  2  0
 33 34  1  0
 34 35  1  0
 34 36  1  0
 35 37  1  0
 36 38  1  0
 37 39  1  0
 39 40  1  0
  7  9  1  0
 16 17  1  0
 10 11  1  0
 21 22  2  0
 32 33  1  0
 38 39  1  0
 11 12  1  0
 25 26  1  0
M  END
>  <Molecule Name>  (50) 
CTX-1020746

>  <SMILES>  (50) 
CN1CCN(CC1)C1=CC=C(CNC(=O)C2=NC3=C(CN(CC3)C(=O)C3=C(C)C4=C(O3)C=CC=C4)N2)C=C1

>  <Batch Name>  (50) 
CTX-1020746-1

>  <Batch Created Date>  (50) 
2021-12-16

>  <Batch ID>  (50) 
CTX-1020746-1

>  <External ID>  (50) 
P841-0291

>  <Stereochemistry>  (50) 
Achiral

>  <Amount 1>  (50) 
4.5

>  <Unit 1>  (50) 
mg

>  <CRO 1>  (50) 
Pharmaron

>  <CRO 1 Total Amount>  (50) 
0.0

>  <CRO 1 Unit>  (50) 
mg

>  <pIC50>  (50) 
5.28567

>  <SMILES_std>  (50) 
Cc1c(C(=O)N2CCc3[nH]c(C(=O)NCc4ccc(N5CCN(C)CC5)cc4)nc3C2)oc2ccccc12

>  <embed_status>  (50) 
0

>  <mmff_status>  (50) 
0

>  <minimizedAffinity>  (50) 
-8.92645

>  <CNNscore>  (50) 
0.3462874293

>  <CNNaffinity>  (50) 
7.0606575012

>  <CNN_VS>  (50) 
2.4450168610

>  <CNNaffinity_variance>  (50) 
0.2478649169

>  <Docking_Rank>  (50) 
50

>  <Vina_Affinity_kcal_mol>  (50) 
-8.930

>  <CNN_pKi>  (50) 
7.061

>  <CNN_Pose_Score>  (50) 
0.3463

>  <Num_Docked_Poses>  (50) 
5

>  <MMGBSA_Rank>  (50) 
50

>  <MMGBSA_dG_kcal_mol>  (50) 
-50.173

>  <MMGBSA_VdW_kcal_mol>  (50) 
-50.524

>  <MMGBSA_Elec_kcal_mol>  (50) 
-1.487

>  <MMGBSA_PolarSolv_kcal_mol>  (50) 
7.953

>  <MMGBSA_NonPolarSolv_kcal_mol>  (50) 
-6.115

>  <MMGBSA_Status>  (50) 
S

$$$$
CTX-1017233
     RDKit          3D

 40 45  0  0  0  0  0  0  0  0999 V2000
   33.1911    7.8381  -24.3791 C   0  0  0  0  0  0  0  0  0  0  0  0
   32.3082    6.8280  -24.1782 N   0  0  0  0  0  0  0  0  0  0  0  0
   33.7715    8.5610  -23.3437 C   0  0  0  0  0  0  0  0  0  0  0  0
   31.9817    6.5156  -22.9000 C   0  0  0  0  0  0  0  0  0  0  0  0
   33.4287    8.2306  -22.0367 C   0  0  0  0  0  0  0  0  0  0  0  0
   32.5310    7.1859  -21.8018 C   0  0  0  0  0  0  0  0  0  0  0  0
   30.9792    5.3903  -22.7166 C   0  0  0  0  0  0  0  0  0  0  0  0
   32.1253    6.8154  -20.4019 C   0  0  0  0  0  0  0  0  0  0  0  0
   30.6323    5.0893  -21.3230 N   0  0  0  0  0  0  0  0  0  0  0  0
   31.6668    5.3614  -20.3308 C   0  0  0  0  0  0  0  0  0  0  0  0
   29.4677    4.4222  -20.9215 C   0  0  0  0  0  0  0  0  0  0  0  0
   29.2104    4.3126  -19.7197 O   0  0  0  0  0  0  0  0  0  0  0  0
   28.5612    3.8732  -21.9242 C   0  0  0  0  0  0  0  0  0  0  0  0
   28.1401    2.5743  -21.8369 O   0  0  0  0  0  0  0  0  0  0  0  0
   27.9362    4.4910  -23.0052 C   0  0  0  0  0  0  0  0  0  0  0  0
   27.2839    2.3437  -22.8636 C   0  0  0  0  0  0  0  0  0  0  0  0
   27.1170    3.4945  -23.6199 C   0  0  0  0  0  0  0  0  0  0  0  0
   28.0945    5.9073  -23.4253 C   0  0  0  0  0  0  0  0  0  0  0  0
   26.6537    1.1299  -23.1277 C   0  0  0  0  0  0  0  0  0  0  0  0
   26.2499    3.4417  -24.7280 C   0  0  0  0  0  0  0  0  0  0  0  0
   25.8000    1.0982  -24.2345 C   0  0  0  0  0  0  0  0  0  0  0  0
   25.5994    2.2342  -25.0224 C   0  0  0  0  0  0  0  0  0  0  0  0
   32.7187    7.9442  -26.7122 O   0  0  0  0  0  0  0  0  0  0  0  0
   33.5234    8.1474  -25.8095 C   0  0  0  0  0  0  0  0  0  0  0  0
   34.7779    8.6888  -26.0343 N   0  0  0  0  0  0  0  0  0  0  0  0
   35.4242    8.7576  -25.2949 H   0  0  0  0  0  0  0  0  0  0  0  0
   35.1377    9.1524  -27.3538 C   0  0  0  0  0  0  0  0  0  0  0  0
   36.6136    8.9831  -27.5843 C   0  0  0  0  0  0  0  0  0  0  0  0
   37.4860   10.0670  -27.4753 C   0  0  0  0  0  0  0  0  0  0  0  0
   37.1515    7.7250  -27.8613 C   0  0  0  0  0  0  0  0  0  0  0  0
   38.8649    9.8923  -27.6583 C   0  0  0  0  0  0  0  0  0  0  0  0
   38.5323    7.5637  -28.0411 C   0  0  0  0  0  0  0  0  0  0  0  0
   39.4289    8.6397  -27.9481 C   0  0  0  0  0  0  0  0  0  0  0  0
   40.7917    8.4755  -28.1269 N   0  0  0  0  0  0  0  0  0  0  0  0
   41.7746    9.1798  -27.2852 C   0  0  0  0  0  0  0  0  0  0  0  0
   41.3390    7.6158  -29.1889 C   0  0  0  0  0  0  0  0  0  0  0  0
   43.0956    9.4046  -28.0575 C   0  0  0  0  0  0  0  0  0  0  0  0
   42.7567    7.1125  -28.8259 C   0  0  0  0  0  0  0  0  0  0  0  0
   43.7513    8.1599  -28.5132 N   0  0  0  0  0  0  0  0  0  0  0  0
   44.6319    8.4301  -29.6462 C   0  0  0  0  0  0  0  0  0  0  0  0
 23 24  2  0
 24 25  1  0
 24  1  1  0
 25 27  1  0
  1  2  2  0
  1  3  1  0
 27 28  1  0
  2  4  1  0
  3  5  2  0
 28 29  2  0
 28 30  1  0
  4  6  2  0
  4  7  1  0
 29 31  1  0
 30 32  2  0
  6  8  1  0
  7  9  1  0
 31 33  2  0
  8 10  1  0
  9 11  1  0
 33 34  1  0
 11 12  2  0
 11 13  1  0
 34 35  1  0
 34 36  1  0
 13 14  1  0
 13 15  2  0
 35 37  1  0
 36 38  1  0
 14 16  1  0
 15 17  1  0
 15 18  1  0
 37 39  1  0
 16 19  2  0
 17 20  2  0
 39 40  1  0
 19 21  1  0
 20 22  1  0
  5  6  1  0
 32 33  1  0
  9 10  1  0
 38 39  1  0
 16 17  1  0
 21 22  2  0
 25 26  1  0
M  END
>  <Molecule Name>  (51) 
CTX-1017233

>  <SMILES>  (51) 
CN1CCN(CC1)C1=CC=C(CNC(=O)C2=NC3=C(CCN(C3)C(=O)C3=C(C)C4=CC=CC=C4O3)C=C2)C=C1

>  <Batch Name>  (51) 
CTX-1017233-3

>  <Batch Created Date>  (51) 
2021-11-18

>  <Batch ID>  (51) 
CTX-1017233-3

>  <External ID>  (51) 
P841-0235

>  <Stereochemistry>  (51) 
Achiral

>  <Amount 1>  (51) 
4.3

>  <Unit 1>  (51) 
mg

>  <CRO 1>  (51) 
Pharmaron

>  <CRO 1 Total Amount>  (51) 
36.5

>  <CRO 1 Unit>  (51) 
mg

>  <pIC50>  (51) 
5.59346

>  <SMILES_std>  (51) 
Cc1c(C(=O)N2CCc3ccc(C(=O)NCc4ccc(N5CCN(C)CC5)cc4)nc3C2)oc2ccccc12

>  <embed_status>  (51) 
0

>  <mmff_status>  (51) 
0

>  <minimizedAffinity>  (51) 
-7.49062

>  <CNNscore>  (51) 
0.3533551097

>  <CNNaffinity>  (51) 
7.1138572693

>  <CNN_VS>  (51) 
2.5137178898

>  <CNNaffinity_variance>  (51) 
0.0657757446

>  <Docking_Rank>  (51) 
46

>  <Vina_Affinity_kcal_mol>  (51) 
-7.490

>  <CNN_pKi>  (51) 
7.114

>  <CNN_Pose_Score>  (51) 
0.3534

>  <Num_Docked_Poses>  (51) 
5

>  <MMGBSA_Rank>  (51) 
51

>  <MMGBSA_dG_kcal_mol>  (51) 
-49.925

>  <MMGBSA_VdW_kcal_mol>  (51) 
-50.681

>  <MMGBSA_Elec_kcal_mol>  (51) 
-0.258

>  <MMGBSA_PolarSolv_kcal_mol>  (51) 
7.699

>  <MMGBSA_NonPolarSolv_kcal_mol>  (51) 
-6.686

>  <MMGBSA_Status>  (51) 
S

$$$$
CTX-1020582
     RDKit          3D

 40 45  0  0  0  0  0  0  0  0999 V2000
   33.6972    8.8511  -23.8206 C   0  0  0  0  0  0  0  0  0  0  0  0
   33.7631    9.9145  -23.2050 O   0  0  0  0  0  0  0  0  0  0  0  0
   34.5510    8.5888  -24.9005 N   0  0  0  0  0  0  0  0  0  0  0  0
   35.5327    9.6269  -25.2107 C   0  0  0  0  0  0  0  0  0  0  0  0
   34.9140    7.2370  -25.3249 C   0  0  0  0  0  0  0  0  0  0  0  0
   36.2421    9.4510  -26.5386 C   0  0  0  0  0  0  0  0  0  0  0  0
   35.1596    7.1863  -26.8315 C   0  0  0  0  0  0  0  0  0  0  0  0
   37.0490   10.4681  -26.9330 N   0  0  0  0  0  0  0  0  0  0  0  0
   36.0872    8.2787  -27.2898 C   0  0  0  0  0  0  0  0  0  0  0  0
   37.7058   10.3201  -28.1189 C   0  0  0  0  0  0  0  0  0  0  0  0
   36.7669    8.1677  -28.5073 C   0  0  0  0  0  0  0  0  0  0  0  0
   37.5948    9.2013  -28.9298 C   0  0  0  0  0  0  0  0  0  0  0  0
   31.5068    7.4766  -24.6347 S   0  0  0  0  0  0  0  0  0  0  0  0
   32.7142    7.8337  -23.4882 C   0  0  0  0  0  0  0  0  0  0  0  0
   30.7708    6.3081  -23.6158 C   0  0  0  0  0  0  0  0  0  0  0  0
   32.6178    7.0468  -22.3505 C   0  0  0  0  0  0  0  0  0  0  0  0
   31.4663    6.1681  -22.4123 C   0  0  0  0  0  0  0  0  0  0  0  0
   29.6284    5.5516  -23.8873 C   0  0  0  0  0  0  0  0  0  0  0  0
   33.5729    7.0884  -21.1984 C   0  0  0  0  0  0  0  0  0  0  0  0
   30.9724    5.2295  -21.4808 C   0  0  0  0  0  0  0  0  0  0  0  0
   29.1668    4.6641  -22.9772 N   0  0  0  0  0  0  0  0  0  0  0  0
   29.8326    4.5188  -21.8181 C   0  0  0  0  0  0  0  0  0  0  0  0
   38.5958   11.4550  -28.5294 C   0  0  0  0  0  0  0  0  0  0  0  0
   39.5013   11.2984  -29.3406 O   0  0  0  0  0  0  0  0  0  0  0  0
   38.3051   12.6499  -27.9092 N   0  0  0  0  0  0  0  0  0  0  0  0
   37.4808   12.7152  -27.3749 H   0  0  0  0  0  0  0  0  0  0  0  0
   39.1555   13.8081  -28.0089 C   0  0  0  0  0  0  0  0  0  0  0  0
   40.2327   13.7739  -26.9575 C   0  0  0  0  0  0  0  0  0  0  0  0
   40.2344   12.7797  -25.9764 C   0  0  0  0  0  0  0  0  0  0  0  0
   41.2219   14.7591  -26.9066 C   0  0  0  0  0  0  0  0  0  0  0  0
   41.2216   12.7623  -24.9840 C   0  0  0  0  0  0  0  0  0  0  0  0
   42.2062   14.7337  -25.9079 C   0  0  0  0  0  0  0  0  0  0  0  0
   42.2419   13.7268  -24.9323 C   0  0  0  0  0  0  0  0  0  0  0  0
   43.2045   13.6700  -23.9108 N   0  0  0  0  0  0  0  0  0  0  0  0
   42.9860   12.7230  -22.7989 C   0  0  0  0  0  0  0  0  0  0  0  0
   43.6921   14.9958  -23.4614 C   0  0  0  0  0  0  0  0  0  0  0  0
   44.2372   12.6340  -21.8922 C   0  0  0  0  0  0  0  0  0  0  0  0
   44.9154   14.8495  -22.5224 C   0  0  0  0  0  0  0  0  0  0  0  0
   44.7432   13.9264  -21.3789 N   0  0  0  0  0  0  0  0  0  0  0  0
   43.8580   14.4889  -20.3621 C   0  0  0  0  0  0  0  0  0  0  0  0
 13 14  1  0
 13 15  1  0
 14 16  2  0
 14  1  1  0
 15 17  2  0
 15 18  1  0
 16 19  1  0
  1  2  2  0
  1  3  1  0
 17 20  1  0
 18 21  2  0
  3  4  1  0
  3  5  1  0
 20 22  2  0
  4  6  1  0
  5  7  1  0
  6  8  2  0
  6  9  1  0
  8 10  1  0
  9 11  2  0
 10 23  1  0
 10 12  2  0
 23 24  2  0
 23 25  1  0
 25 27  1  0
 27 28  1  0
 28 29  2  0
 28 30  1  0
 29 31  1  0
 30 32  2  0
 31 33  2  0
 33 34  1  0
 34 35  1  0
 34 36  1  0
 35 37  1  0
 36 38  1  0
 37 39  1  0
 39 40  1  0
 16 17  1  0
 21 22  1  0
  7  9  1  0
 11 12  1  0
 32 33  1  0
 38 39  1  0
 25 26  1  0
M  END
>  <Molecule Name>  (52) 
CTX-1020582

>  <SMILES>  (52) 
CN1CCN(CC1)C1=CC=C(CNC(=O)C2=CC=C3CCN(CC3=N2)C(=O)C2=C(C)C3=C(S2)C=NC=C3)C=C1

>  <Batch Name>  (52) 
CTX-1020582-1

>  <Batch Created Date>  (52) 
2021-11-18

>  <Batch ID>  (52) 
CTX-1020582-1

>  <External ID>  (52) 
P841-0239

>  <Stereochemistry>  (52) 
Achiral

>  <Amount 1>  (52) 
4.6

>  <Unit 1>  (52) 
mg

>  <CRO 1>  (52) 
Pharmaron

>  <CRO 1 Total Amount>  (52) 
15.7

>  <CRO 1 Unit>  (52) 
mg

>  <pIC50>  (52) 
5.657577

>  <SMILES_std>  (52) 
Cc1c(C(=O)N2CCc3ccc(C(=O)NCc4ccc(N5CCN(C)CC5)cc4)nc3C2)sc2cnccc12

>  <embed_status>  (52) 
0

>  <mmff_status>  (52) 
0

>  <minimizedAffinity>  (52) 
-7.65352

>  <CNNscore>  (52) 
0.4598804712

>  <CNNaffinity>  (52) 
7.4730935097

>  <CNN_VS>  (52) 
3.4367296696

>  <CNNaffinity_variance>  (52) 
0.2342138141

>  <Docking_Rank>  (52) 
21

>  <Vina_Affinity_kcal_mol>  (52) 
-7.650

>  <CNN_pKi>  (52) 
7.473

>  <CNN_Pose_Score>  (52) 
0.4599

>  <Num_Docked_Poses>  (52) 
5

>  <MMGBSA_Rank>  (52) 
52

>  <MMGBSA_dG_kcal_mol>  (52) 
-49.443

>  <MMGBSA_VdW_kcal_mol>  (52) 
-49.884

>  <MMGBSA_Elec_kcal_mol>  (52) 
-2.171

>  <MMGBSA_PolarSolv_kcal_mol>  (52) 
8.270

>  <MMGBSA_NonPolarSolv_kcal_mol>  (52) 
-5.658

>  <MMGBSA_Status>  (52) 
S

$$$$
CTX-1019496
     RDKit          3D

 32 36  0  0  0  0  0  0  0  0999 V2000
   34.7391    8.4988  -26.6330 C   0  0  0  0  0  0  0  0  0  0  0  0
   33.5460    7.8899  -26.3773 N   0  0  0  0  0  0  0  0  0  0  0  0
   35.5319    9.0908  -25.6619 C   0  0  0  0  0  0  0  0  0  0  0  0
   33.1269    7.8676  -25.0864 C   0  0  0  0  0  0  0  0  0  0  0  0
   35.0819    9.0658  -24.3471 C   0  0  0  0  0  0  0  0  0  0  0  0
   33.8577    8.4600  -24.0460 C   0  0  0  0  0  0  0  0  0  0  0  0
   31.7940    7.1939  -24.8170 C   0  0  0  0  0  0  0  0  0  0  0  0
   33.3687    8.3934  -22.6218 C   0  0  0  0  0  0  0  0  0  0  0  0
   31.4820    7.0327  -23.3998 N   0  0  0  0  0  0  0  0  0  0  0  0
   31.8609    8.1638  -22.5552 C   0  0  0  0  0  0  0  0  0  0  0  0
   30.4613    6.1324  -23.0751 C   0  0  0  0  0  0  0  0  0  0  0  0
   29.7864    5.6150  -23.9676 O   0  0  0  0  0  0  0  0  0  0  0  0
   30.2382    5.8070  -21.6742 C   0  0  0  0  0  0  0  0  0  0  0  0
   30.1671    6.8140  -20.7479 O   0  0  0  0  0  0  0  0  0  0  0  0
   30.1559    4.5745  -21.0334 C   0  0  0  0  0  0  0  0  0  0  0  0
   30.0095    6.2400  -19.5278 C   0  0  0  0  0  0  0  0  0  0  0  0
   29.9934    4.8570  -19.6423 C   0  0  0  0  0  0  0  0  0  0  0  0
   30.2325    3.2383  -21.6778 C   0  0  0  0  0  0  0  0  0  0  0  0
   29.8849    6.9306  -18.3243 C   0  0  0  0  0  0  0  0  0  0  0  0
   29.8446    4.0944  -18.4682 C   0  0  0  0  0  0  0  0  0  0  0  0
   29.7347    6.1541  -17.1713 C   0  0  0  0  0  0  0  0  0  0  0  0
   29.7147    4.7592  -17.2399 C   0  0  0  0  0  0  0  0  0  0  0  0
   36.4123    7.9027  -28.2704 N   0  0  0  0  0  0  0  0  0  0  0  0
   35.1867    8.4969  -28.0638 C   0  0  0  0  0  0  0  0  0  0  0  0
   34.5087    8.9979  -28.9534 O   0  0  0  0  0  0  0  0  0  0  0  0
   36.8415    7.4321  -27.5196 H   0  0  0  0  0  0  0  0  0  0  0  0
   37.0912    7.9419  -29.5394 C   0  0  0  0  0  0  0  0  0  0  0  0
   37.8502   10.0780  -31.1852 S   0  0  0  0  0  0  0  0  0  0  0  0
   37.7693    9.2593  -29.6788 C   0  0  0  0  0  0  0  0  0  0  0  0
   38.7145   11.3509  -30.4276 C   0  0  0  0  0  0  0  0  0  0  0  0
   38.4088   10.0124  -28.7128 C   0  0  0  0  0  0  0  0  0  0  0  0
   38.9442   11.2123  -29.1410 N   0  0  0  0  0  0  0  0  0  0  0  0
 28 29  1  0
 28 30  1  0
 29 31  2  0
 29 27  1  0
 30 32  2  0
 27 23  1  0
 23 24  1  0
 24 25  2  0
 24  1  1  0
  1  2  2  0
  1  3  1  0
  2  4  1  0
  3  5  2  0
  4  6  2  0
  4  7  1  0
  6  8  1  0
  7  9  1  0
  8 10  1  0
  9 11  1  0
 11 12  2  0
 11 13  1  0
 13 14  1  0
 13 15  2  0
 14 16  1  0
 15 17  1  0
 15 18  1  0
 16 19  2  0
 17 20  2  0
 19 21  1  0
 20 22  1  0
 31 32  1  0
  5  6  1  0
  9 10  1  0
 16 17  1  0
 21 22  2  0
 23 26  1  0
M  END
>  <Molecule Name>  (53) 
CTX-1019496

>  <SMILES>  (53) 
CC1=C(OC2=C1C=CC=C2)C(=O)N1CCC2=C(C1)N=C(C=C2)C(=O)NCC1=CN=CS1

>  <Batch Name>  (53) 
CTX-1019496-1

>  <Batch Created Date>  (53) 
2021-07-30

>  <Batch ID>  (53) 
CTX-1019496-1

>  <External ID>  (53) 
P841-0109

>  <Stereochemistry>  (53) 
Achiral

>  <Amount 1>  (53) 
2.3

>  <Unit 1>  (53) 
mg

>  <CRO 1>  (53) 
Pharmaron

>  <CRO 1 Total Amount>  (53) 
13.7

>  <CRO 1 Unit>  (53) 
mg

>  <pIC50>  (53) 
5.262013

>  <SMILES_std>  (53) 
Cc1c(C(=O)N2CCc3ccc(C(=O)NCc4cncs4)nc3C2)oc2ccccc12

>  <embed_status>  (53) 
0

>  <mmff_status>  (53) 
0

>  <minimizedAffinity>  (53) 
-9.20857

>  <CNNscore>  (53) 
0.2321017534

>  <CNNaffinity>  (53) 
6.5777797699

>  <CNN_VS>  (53) 
1.5267142057

>  <CNNaffinity_variance>  (53) 
0.2006878406

>  <Docking_Rank>  (53) 
66

>  <Vina_Affinity_kcal_mol>  (53) 
-9.210

>  <CNN_pKi>  (53) 
6.578

>  <CNN_Pose_Score>  (53) 
0.2321

>  <Num_Docked_Poses>  (53) 
5

>  <MMGBSA_Rank>  (53) 
53

>  <MMGBSA_dG_kcal_mol>  (53) 
-49.345

>  <MMGBSA_VdW_kcal_mol>  (53) 
-49.396

>  <MMGBSA_Elec_kcal_mol>  (53) 
-2.745

>  <MMGBSA_PolarSolv_kcal_mol>  (53) 
8.643

>  <MMGBSA_NonPolarSolv_kcal_mol>  (53) 
-5.846

>  <MMGBSA_Status>  (53) 
S

$$$$
CTX-1020453
     RDKit          3D

 40 45  0  0  0  0  0  0  0  0999 V2000
   34.0783    9.4312  -24.2111 C   0  0  0  0  0  0  0  0  0  0  0  0
   33.9515   10.6523  -24.1142 O   0  0  0  0  0  0  0  0  0  0  0  0
   35.0059    8.8911  -25.1106 N   0  0  0  0  0  0  0  0  0  0  0  0
   35.7047    9.8321  -25.9832 C   0  0  0  0  0  0  0  0  0  0  0  0
   35.6966    7.6200  -24.8995 C   0  0  0  0  0  0  0  0  0  0  0  0
   36.3885    9.1851  -27.1733 C   0  0  0  0  0  0  0  0  0  0  0  0
   35.8863    6.8915  -26.2278 C   0  0  0  0  0  0  0  0  0  0  0  0
   36.9085   10.0245  -28.1039 N   0  0  0  0  0  0  0  0  0  0  0  0
   36.4959    7.7903  -27.2724 C   0  0  0  0  0  0  0  0  0  0  0  0
   37.5327    9.4572  -29.1755 C   0  0  0  0  0  0  0  0  0  0  0  0
   37.1333    7.2450  -28.3918 C   0  0  0  0  0  0  0  0  0  0  0  0
   37.6655    8.0893  -29.3593 C   0  0  0  0  0  0  0  0  0  0  0  0
   31.4326    7.6138  -25.3247 Cl  0  0  0  0  0  0  0  0  0  0  0  0
   32.1938    7.7172  -23.8065 C   0  0  0  0  0  0  0  0  0  0  0  0
   33.2584    8.5193  -23.4387 C   0  0  0  0  0  0  0  0  0  0  0  0
   31.8078    6.9745  -22.6573 C   0  0  0  0  0  0  0  0  0  0  0  0
   33.5662    8.2863  -22.1206 O   0  0  0  0  0  0  0  0  0  0  0  0
   32.6858    7.3616  -21.6535 C   0  0  0  0  0  0  0  0  0  0  0  0
   30.8220    6.0169  -22.3492 C   0  0  0  0  0  0  0  0  0  0  0  0
   32.6586    6.8633  -20.3530 C   0  0  0  0  0  0  0  0  0  0  0  0
   30.7672    5.4972  -21.0479 C   0  0  0  0  0  0  0  0  0  0  0  0
   31.6714    5.9146  -20.0683 C   0  0  0  0  0  0  0  0  0  0  0  0
   38.1011   10.4055  -30.1888 C   0  0  0  0  0  0  0  0  0  0  0  0
   39.2231   10.8828  -30.0621 O   0  0  0  0  0  0  0  0  0  0  0  0
   37.2515   10.6837  -31.2364 N   0  0  0  0  0  0  0  0  0  0  0  0
   36.4213   10.1614  -31.3206 H   0  0  0  0  0  0  0  0  0  0  0  0
   37.5245   11.7053  -32.2141 C   0  0  0  0  0  0  0  0  0  0  0  0
   36.3126   11.9703  -33.0674 C   0  0  0  0  0  0  0  0  0  0  0  0
   35.3481   12.9023  -32.6793 C   0  0  0  0  0  0  0  0  0  0  0  0
   36.1539   11.3213  -34.2952 C   0  0  0  0  0  0  0  0  0  0  0  0
   34.2377   13.1543  -33.4948 C   0  0  0  0  0  0  0  0  0  0  0  0
   35.0406   11.5821  -35.1056 C   0  0  0  0  0  0  0  0  0  0  0  0
   34.0460   12.4914  -34.7190 C   0  0  0  0  0  0  0  0  0  0  0  0
   32.9182   12.7886  -35.5023 N   0  0  0  0  0  0  0  0  0  0  0  0
   32.7512   14.1762  -35.9799 C   0  0  0  0  0  0  0  0  0  0  0  0
   32.6194   11.7750  -36.5417 C   0  0  0  0  0  0  0  0  0  0  0  0
   31.3626   14.3727  -36.6350 C   0  0  0  0  0  0  0  0  0  0  0  0
   31.2413   12.0411  -37.1971 C   0  0  0  0  0  0  0  0  0  0  0  0
   31.0254   13.4124  -37.7095 N   0  0  0  0  0  0  0  0  0  0  0  0
   31.8022   13.6621  -38.9212 C   0  0  0  0  0  0  0  0  0  0  0  0
 13 14  1  0
 14 15  2  0
 14 16  1  0
 15 17  1  0
 15  1  1  0
 16 18  2  0
 16 19  1  0
  1  2  2  0
  1  3  1  0
 18 20  1  0
 19 21  2  0
  3  4  1  0
  3  5  1  0
 20 22  2  0
  4  6  1  0
  5  7  1  0
  6  8  2  0
  6  9  1  0
  8 10  1  0
  9 11  2  0
 10 23  1  0
 10 12  2  0
 23 24  2  0
 23 25  1  0
 25 27  1  0
 27 28  1  0
 28 29  2  0
 28 30  1  0
 29 31  1  0
 30 32  2  0
 31 33  2  0
 33 34  1  0
 34 35  1  0
 34 36  1  0
 35 37  1  0
 36 38  1  0
 37 39  1  0
 39 40  1  0
 17 18  1  0
 21 22  1  0
  7  9  1  0
 11 12  1  0
 32 33  1  0
 38 39  1  0
 25 26  1  0
M  END
>  <Molecule Name>  (54) 
CTX-1020453

>  <SMILES>  (54) 
CN1CCN(CC1)C1=CC=C(CNC(=O)C2=CC=C3CCN(CC3=N2)C(=O)C2=C(Cl)C3=C(O2)C=CC=C3)C=C1

>  <Batch Name>  (54) 
CTX-1020453-1

>  <Batch Created Date>  (54) 
2021-10-21

>  <Batch ID>  (54) 
CTX-1020453-1

>  <External ID>  (54) 
P841-0206

>  <Stereochemistry>  (54) 
Achiral

>  <Amount 1>  (54) 
4.3

>  <Unit 1>  (54) 
mg

>  <CRO 1>  (54) 
Pharmaron

>  <CRO 1 Total Amount>  (54) 
33.3

>  <CRO 1 Unit>  (54) 
mg

>  <pIC50>  (54) 
5.761954

>  <SMILES_std>  (54) 
CN1CCN(c2ccc(CNC(=O)c3ccc4c(n3)CN(C(=O)c3oc5ccccc5c3Cl)CC4)cc2)CC1

>  <embed_status>  (54) 
0

>  <mmff_status>  (54) 
0

>  <minimizedAffinity>  (54) 
-7.55675

>  <CNNscore>  (54) 
0.4054431915

>  <CNNaffinity>  (54) 
7.3782887459

>  <CNN_VS>  (54) 
2.9914770126

>  <CNNaffinity_variance>  (54) 
0.2233995646

>  <Docking_Rank>  (54) 
32

>  <Vina_Affinity_kcal_mol>  (54) 
-7.560

>  <CNN_pKi>  (54) 
7.378

>  <CNN_Pose_Score>  (54) 
0.4054

>  <Num_Docked_Poses>  (54) 
5

>  <MMGBSA_Rank>  (54) 
54

>  <MMGBSA_dG_kcal_mol>  (54) 
-49.019

>  <MMGBSA_VdW_kcal_mol>  (54) 
-49.146

>  <MMGBSA_Elec_kcal_mol>  (54) 
-0.624

>  <MMGBSA_PolarSolv_kcal_mol>  (54) 
6.815

>  <MMGBSA_NonPolarSolv_kcal_mol>  (54) 
-6.064

>  <MMGBSA_Status>  (54) 
S

$$$$
CTX-1020698
     RDKit          3D

 39 44  0  0  0  0  0  0  0  0999 V2000
   37.0976    9.6609  -27.5311 C   0  0  0  0  0  0  0  0  0  0  0  0
   36.4492    9.8689  -26.3495 N   0  0  0  0  0  0  0  0  0  0  0  0
   36.7004    8.7308  -28.4797 C   0  0  0  0  0  0  0  0  0  0  0  0
   35.3532    9.1075  -26.1021 C   0  0  0  0  0  0  0  0  0  0  0  0
   35.5707    7.9663  -28.2126 C   0  0  0  0  0  0  0  0  0  0  0  0
   34.8724    8.1585  -27.0162 C   0  0  0  0  0  0  0  0  0  0  0  0
   34.6375    9.3556  -24.7873 C   0  0  0  0  0  0  0  0  0  0  0  0
   33.6641    7.3169  -26.6937 C   0  0  0  0  0  0  0  0  0  0  0  0
   33.5849    8.3885  -24.4889 N   0  0  0  0  0  0  0  0  0  0  0  0
   32.7816    7.9810  -25.6399 C   0  0  0  0  0  0  0  0  0  0  0  0
   33.1243    8.3420  -23.1684 C   0  0  0  0  0  0  0  0  0  0  0  0
   33.5107    9.1780  -22.3489 O   0  0  0  0  0  0  0  0  0  0  0  0
   32.2087    7.2769  -22.7867 C   0  0  0  0  0  0  0  0  0  0  0  0
   31.1620    6.9556  -23.6103 O   0  0  0  0  0  0  0  0  0  0  0  0
   32.2384    6.4027  -21.7045 C   0  0  0  0  0  0  0  0  0  0  0  0
   30.5054    5.9072  -23.0510 C   0  0  0  0  0  0  0  0  0  0  0  0
   31.1246    5.5233  -21.8697 C   0  0  0  0  0  0  0  0  0  0  0  0
   33.2398    6.3906  -20.6073 C   0  0  0  0  0  0  0  0  0  0  0  0
   29.3728    5.2929  -23.5805 C   0  0  0  0  0  0  0  0  0  0  0  0
   30.5793    4.4398  -21.1549 C   0  0  0  0  0  0  0  0  0  0  0  0
   28.8456    4.2216  -22.8528 C   0  0  0  0  0  0  0  0  0  0  0  0
   29.4375    3.8005  -21.6598 C   0  0  0  0  0  0  0  0  0  0  0  0
   39.3907   10.2449  -27.2523 O   0  0  0  0  0  0  0  0  0  0  0  0
   38.3133   10.5044  -27.7758 C   0  0  0  0  0  0  0  0  0  0  0  0
   38.0953   11.5743  -28.6155 N   0  0  0  0  0  0  0  0  0  0  0  0
   37.2310   11.6379  -29.0827 H   0  0  0  0  0  0  0  0  0  0  0  0
   39.0769   12.6039  -28.8397 C   0  0  0  0  0  0  0  0  0  0  0  0
   38.4290   13.9630  -28.8912 C   0  0  0  0  0  0  0  0  0  0  0  0
   38.1968   14.6023  -30.1142 C   0  0  0  0  0  0  0  0  0  0  0  0
   38.0102   14.5911  -27.7121 C   0  0  0  0  0  0  0  0  0  0  0  0
   37.5741   15.8545  -30.1534 C   0  0  0  0  0  0  0  0  0  0  0  0
   37.3865   15.8418  -27.7549 C   0  0  0  0  0  0  0  0  0  0  0  0
   37.1592   16.4963  -28.9754 C   0  0  0  0  0  0  0  0  0  0  0  0
   36.5011   17.8114  -29.0199 C   0  0  0  0  0  0  0  0  0  0  0  0
   37.1749   18.9728  -28.6247 C   0  0  0  0  0  0  0  0  0  0  0  0
   35.1789   17.9452  -29.4594 C   0  0  0  0  0  0  0  0  0  0  0  0
   36.5122   20.1892  -28.6832 C   0  0  0  0  0  0  0  0  0  0  0  0
   34.6018   19.2055  -29.4857 C   0  0  0  0  0  0  0  0  0  0  0  0
   35.2395   20.3319  -29.1063 N   0  0  0  0  0  0  0  0  0  0  0  0
 23 24  2  0
 24 25  1  0
 24  1  1  0
 25 27  1  0
  1  2  2  0
  1  3  1  0
 27 28  1  0
  2  4  1  0
  3  5  2  0
 28 29  2  0
 28 30  1  0
  4  6  2  0
  4  7  1  0
 29 31  1  0
 30 32  2  0
  6  8  1  0
  7  9  1  0
 31 33  2  0
  8 10  1  0
  9 11  1  0
 33 34  1  0
 11 12  2  0
 11 13  1  0
 34 35  2  0
 34 36  1  0
 13 14  1  0
 13 15  2  0
 35 37  1  0
 36 38  2  0
 14 16  1  0
 15 17  1  0
 15 18  1  0
 37 39  2  0
 16 19  2  0
 17 20  2  0
 19 21  1  0
 20 22  1  0
  5  6  1  0
 32 33  1  0
  9 10  1  0
 38 39  1  0
 16 17  1  0
 21 22  2  0
 25 26  1  0
M  END
>  <Molecule Name>  (55) 
CTX-1020698

>  <SMILES>  (55) 
CC1=C(OC2=C1C=CC=C2)C(=O)N1CCC2=CC=C(N=C2C1)C(=O)NCC1=CC=C(C=C1)C1=CC=NC=C1

>  <Batch Name>  (55) 
CTX-1020698-1

>  <Batch Created Date>  (55) 
2021-12-09

>  <Batch ID>  (55) 
CTX-1020698-1

>  <External ID>  (55) 
CD-42-D

>  <Stereochemistry>  (55) 
Achiral

>  <Amount 1>  (55) 
2.5

>  <Unit 1>  (55) 
mg

>  <CRO 1>  (55) 
Pharmaron

>  <CRO 1 Total Amount>  (55) 
19.2

>  <CRO 1 Unit>  (55) 
mg

>  <pIC50>  (55) 
5.954677

>  <SMILES_std>  (55) 
Cc1c(C(=O)N2CCc3ccc(C(=O)NCc4ccc(-c5ccncc5)cc4)nc3C2)oc2ccccc12

>  <embed_status>  (55) 
0

>  <mmff_status>  (55) 
0

>  <minimizedAffinity>  (55) 
-10.49673

>  <CNNscore>  (55) 
0.6462529302

>  <CNNaffinity>  (55) 
7.2688698769

>  <CNN_VS>  (55) 
4.6975283623

>  <CNNaffinity_variance>  (55) 
0.0792992935

>  <Docking_Rank>  (55) 
37

>  <Vina_Affinity_kcal_mol>  (55) 
-10.500

>  <CNN_pKi>  (55) 
7.269

>  <CNN_Pose_Score>  (55) 
0.6463

>  <Num_Docked_Poses>  (55) 
5

>  <MMGBSA_Rank>  (55) 
55

>  <MMGBSA_dG_kcal_mol>  (55) 
-48.616

>  <MMGBSA_VdW_kcal_mol>  (55) 
-48.542

>  <MMGBSA_Elec_kcal_mol>  (55) 
-1.218

>  <MMGBSA_PolarSolv_kcal_mol>  (55) 
7.101

>  <MMGBSA_NonPolarSolv_kcal_mol>  (55) 
-5.957

>  <MMGBSA_Status>  (55) 
S

$$$$
CTX-1020747
     RDKit          3D

 40 45  0  0  0  0  0  0  0  0999 V2000
   42.3995   -6.2660  -29.7370 S   0  0  0  0  0  0  0  0  0  0  0  0
   43.9308   -5.5226  -29.9561 C   0  0  0  0  0  0  0  0  0  0  0  0
   41.6599   -5.2106  -30.8378 C   0  0  0  0  0  0  0  0  0  0  0  0
   43.8477   -4.4793  -30.8636 C   0  0  0  0  0  0  0  0  0  0  0  0
   42.5277   -4.2899  -31.3801 C   0  0  0  0  0  0  0  0  0  0  0  0
   40.2104   -5.2618  -31.1654 C   0  0  0  0  0  0  0  0  0  0  0  0
   42.1111   -3.2539  -32.3782 C   0  0  0  0  0  0  0  0  0  0  0  0
   39.9744   -4.6036  -32.5337 C   0  0  0  0  0  0  0  0  0  0  0  0
   40.6773   -3.3159  -32.6969 N   0  0  0  0  0  0  0  0  0  0  0  0
   40.2049   -2.2497  -33.4836 C   0  0  0  0  0  0  0  0  0  0  0  0
   40.8483   -1.1982  -33.5378 O   0  0  0  0  0  0  0  0  0  0  0  0
   38.9600   -2.3877  -34.2288 C   0  0  0  0  0  0  0  0  0  0  0  0
   37.7682   -2.0575  -33.6420 O   0  0  0  0  0  0  0  0  0  0  0  0
   38.7244   -2.9229  -35.4928 C   0  0  0  0  0  0  0  0  0  0  0  0
   36.7780   -2.3369  -34.5288 C   0  0  0  0  0  0  0  0  0  0  0  0
   37.3104   -2.8769  -35.6923 C   0  0  0  0  0  0  0  0  0  0  0  0
   39.7497   -3.4431  -36.4342 C   0  0  0  0  0  0  0  0  0  0  0  0
   35.4157   -2.1300  -34.3325 C   0  0  0  0  0  0  0  0  0  0  0  0
   36.4222   -3.2406  -36.7252 C   0  0  0  0  0  0  0  0  0  0  0  0
   34.9372   -1.6012  -33.1993 F   0  0  0  0  0  0  0  0  0  0  0  0
   34.5481   -2.4893  -35.3624 C   0  0  0  0  0  0  0  0  0  0  0  0
   35.0439   -3.0396  -36.5457 C   0  0  0  0  0  0  0  0  0  0  0  0
   45.1280   -5.9679  -29.2519 C   0  0  0  0  0  0  0  0  0  0  0  0
   46.2619   -5.7515  -29.6747 O   0  0  0  0  0  0  0  0  0  0  0  0
   44.9115   -6.6474  -28.0727 N   0  0  0  0  0  0  0  0  0  0  0  0
   43.9902   -6.8979  -27.8327 H   0  0  0  0  0  0  0  0  0  0  0  0
   45.9838   -7.0054  -27.1769 C   0  0  0  0  0  0  0  0  0  0  0  0
   45.8627   -6.2550  -25.8778 C   0  0  0  0  0  0  0  0  0  0  0  0
   44.8994   -6.6035  -24.9298 C   0  0  0  0  0  0  0  0  0  0  0  0
   46.6914   -5.1639  -25.6091 C   0  0  0  0  0  0  0  0  0  0  0  0
   44.7826   -5.8797  -23.7345 C   0  0  0  0  0  0  0  0  0  0  0  0
   46.5646   -4.4489  -24.4103 C   0  0  0  0  0  0  0  0  0  0  0  0
   45.6082   -4.7829  -23.4391 C   0  0  0  0  0  0  0  0  0  0  0  0
   45.4873   -4.0781  -22.2533 N   0  0  0  0  0  0  0  0  0  0  0  0
   44.6003   -4.5288  -21.1679 C   0  0  0  0  0  0  0  0  0  0  0  0
   46.3311   -2.9067  -21.9634 C   0  0  0  0  0  0  0  0  0  0  0  0
   44.1908   -3.3356  -20.2731 C   0  0  0  0  0  0  0  0  0  0  0  0
   46.5504   -2.7329  -20.4412 C   0  0  0  0  0  0  0  0  0  0  0  0
   45.3259   -2.6489  -19.6183 N   0  0  0  0  0  0  0  0  0  0  0  0
   44.9756   -1.2670  -19.3030 C   0  0  0  0  0  0  0  0  0  0  0  0
  1  2  1  0
  1  3  1  0
  2 23  1  0
  2  4  2  0
  3  5  2  0
  3  6  1  0
 23 24  2  0
 23 25  1  0
  5  7  1  0
  6  8  1  0
 25 27  1  0
  7  9  1  0
 27 28  1  0
  9 10  1  0
 28 29  2  0
 28 30  1  0
 10 11  2  0
 10 12  1  0
 29 31  1  0
 30 32  2  0
 12 13  1  0
 12 14  2  0
 31 33  2  0
 13 15  1  0
 14 16  1  0
 14 17  1  0
 33 34  1  0
 15 18  2  0
 16 19  2  0
 34 35  1  0
 34 36  1  0
 18 20  1  0
 18 21  1  0
 19 22  1  0
 35 37  1  0
 36 38  1  0
 37 39  1  0
 39 40  1  0
  4  5  1  0
  8  9  1  0
 32 33  1  0
 15 16  1  0
 21 22  2  0
 38 39  1  0
 25 26  1  0
M  END
>  <Molecule Name>  (56) 
CTX-1020747

>  <SMILES>  (56) 
CN1CCN(CC1)C1=CC=C(CNC(=O)C2=CC3=C(CCN(C3)C(=O)C3=C(C)C4=C(O3)C(F)=CC=C4)S2)C=C1

>  <Batch Name>  (56) 
CTX-1020747-1

>  <Batch Created Date>  (56) 
2021-12-16

>  <Batch ID>  (56) 
CTX-1020747-1

>  <External ID>  (56) 
P841-0361

>  <Stereochemistry>  (56) 
Achiral

>  <Amount 1>  (56) 
3.85

>  <Unit 1>  (56) 
mg

>  <CRO 1>  (56) 
Pharmaron

>  <CRO 1 Total Amount>  (56) 
22.1

>  <CRO 1 Unit>  (56) 
mg

>  <pIC50>  (56) 
6.213959

>  <SMILES_std>  (56) 
Cc1c(C(=O)N2CCc3sc(C(=O)NCc4ccc(N5CCN(C)CC5)cc4)cc3C2)oc2c(F)cccc12

>  <embed_status>  (56) 
0

>  <mmff_status>  (56) 
0

>  <minimizedAffinity>  (56) 
-8.64438

>  <CNNscore>  (56) 
0.3983920813

>  <CNNaffinity>  (56) 
6.0138263702

>  <CNN_VS>  (56) 
2.3958609104

>  <CNNaffinity_variance>  (56) 
0.3165705502

>  <Docking_Rank>  (56) 
72

>  <Vina_Affinity_kcal_mol>  (56) 
-8.640

>  <CNN_pKi>  (56) 
6.014

>  <CNN_Pose_Score>  (56) 
0.3984

>  <Num_Docked_Poses>  (56) 
5

>  <MMGBSA_Rank>  (56) 
56

>  <MMGBSA_dG_kcal_mol>  (56) 
-48.374

>  <MMGBSA_VdW_kcal_mol>  (56) 
-46.922

>  <MMGBSA_Elec_kcal_mol>  (56) 
-4.560

>  <MMGBSA_PolarSolv_kcal_mol>  (56) 
8.859

>  <MMGBSA_NonPolarSolv_kcal_mol>  (56) 
-5.752

>  <MMGBSA_Status>  (56) 
S

$$$$
CTX-1020755
     RDKit          3D

 40 45  0  0  0  0  0  0  0  0999 V2000
   37.8178    9.0211  -27.4794 C   0  0  0  0  0  0  0  0  0  0  0  0
   37.1361    9.2943  -26.3298 N   0  0  0  0  0  0  0  0  0  0  0  0
   37.2572    8.3937  -28.5835 C   0  0  0  0  0  0  0  0  0  0  0  0
   35.8380    8.9081  -26.2810 C   0  0  0  0  0  0  0  0  0  0  0  0
   35.9220    8.0126  -28.5136 C   0  0  0  0  0  0  0  0  0  0  0  0
   35.2015    8.2620  -27.3448 C   0  0  0  0  0  0  0  0  0  0  0  0
   35.0387    9.2619  -25.0445 C   0  0  0  0  0  0  0  0  0  0  0  0
   33.7549    7.8933  -27.1990 C   0  0  0  0  0  0  0  0  0  0  0  0
   33.9217    8.3631  -24.7403 N   0  0  0  0  0  0  0  0  0  0  0  0
   33.4691    7.4233  -25.7704 C   0  0  0  0  0  0  0  0  0  0  0  0
   33.3554    8.4800  -23.4630 C   0  0  0  0  0  0  0  0  0  0  0  0
   33.6614    9.4416  -22.7521 O   0  0  0  0  0  0  0  0  0  0  0  0
   32.4105    7.4713  -22.9948 C   0  0  0  0  0  0  0  0  0  0  0  0
   31.3403    7.1073  -23.7766 O   0  0  0  0  0  0  0  0  0  0  0  0
   32.4273    6.6919  -21.8356 C   0  0  0  0  0  0  0  0  0  0  0  0
   30.6834    6.1353  -23.1119 C   0  0  0  0  0  0  0  0  0  0  0  0
   31.2905    5.8407  -21.9157 C   0  0  0  0  0  0  0  0  0  0  0  0
   33.4405    6.7443  -20.7501 C   0  0  0  0  0  0  0  0  0  0  0  0
   29.4563    5.5379  -23.6817 C   0  0  0  0  0  0  0  0  0  0  0  0
   30.7671    4.7825  -21.0087 C   0  0  0  0  0  0  0  0  0  0  0  0
   29.1258    4.2437  -22.9110 C   0  0  0  0  0  0  0  0  0  0  0  0
   29.3190    4.3996  -21.3871 C   0  0  0  0  0  0  0  0  0  0  0  0
   39.5709   10.6323  -27.4037 O   0  0  0  0  0  0  0  0  0  0  0  0
   39.2533    9.4537  -27.5160 C   0  0  0  0  0  0  0  0  0  0  0  0
   40.1478    8.4187  -27.6739 N   0  0  0  0  0  0  0  0  0  0  0  0
   39.7980    7.5216  -27.8792 H   0  0  0  0  0  0  0  0  0  0  0  0
   41.5726    8.5906  -27.5518 C   0  0  0  0  0  0  0  0  0  0  0  0
   42.2894    7.2797  -27.7335 C   0  0  0  0  0  0  0  0  0  0  0  0
   42.7100    6.5290  -26.6345 C   0  0  0  0  0  0  0  0  0  0  0  0
   42.5866    6.8041  -29.0121 C   0  0  0  0  0  0  0  0  0  0  0  0
   43.3964    5.3198  -26.8177 C   0  0  0  0  0  0  0  0  0  0  0  0
   43.2720    5.5935  -29.1820 C   0  0  0  0  0  0  0  0  0  0  0  0
   43.6936    4.8141  -28.0930 C   0  0  0  0  0  0  0  0  0  0  0  0
   44.3727    3.6205  -28.2703 N   0  0  0  0  0  0  0  0  0  0  0  0
   43.7908    2.5134  -29.0473 C   0  0  0  0  0  0  0  0  0  0  0  0
   45.6612    3.3510  -27.6120 C   0  0  0  0  0  0  0  0  0  0  0  0
   44.3207    1.1439  -28.5584 C   0  0  0  0  0  0  0  0  0  0  0  0
   46.4666    2.2982  -28.4087 C   0  0  0  0  0  0  0  0  0  0  0  0
   45.7907    0.9889  -28.5424 N   0  0  0  0  0  0  0  0  0  0  0  0
   46.2752    0.2811  -29.7241 C   0  0  0  0  0  0  0  0  0  0  0  0
 23 24  2  0
 24 25  1  0
 24  1  1  0
 25 27  1  0
  1  2  2  0
  1  3  1  0
 27 28  1  0
  2  4  1  0
  3  5  2  0
 28 29  2  0
 28 30  1  0
  4  6  2  0
  4  7  1  0
 29 31  1  0
 30 32  2  0
  6  8  1  0
  7  9  1  0
 31 33  2  0
  8 10  1  0
  9 11  1  0
 33 34  1  0
 11 12  2  0
 11 13  1  0
 34 35  1  0
 34 36  1  0
 13 14  1  0
 13 15  2  0
 35 37  1  0
 36 38  1  0
 14 16  1  0
 15 17  1  0
 15 18  1  0
 37 39  1  0
 16 19  1  0
 17 20  1  0
 39 40  1  0
 19 21  1  0
 20 22  1  0
  5  6  1  0
 32 33  1  0
  9 10  1  0
 38 39  1  0
 16 17  2  0
 21 22  1  0
 25 26  1  0
M  END
>  <Molecule Name>  (57) 
CTX-1020755

>  <SMILES>  (57) 
CN1CCN(CC1)C1=CC=C(CNC(=O)C2=NC3=C(CCN(C3)C(=O)C3=C(C)C4=C(CCCC4)O3)C=C2)C=C1

>  <Batch Name>  (57) 
CTX-1020755-1

>  <Batch Created Date>  (57) 
2021-12-16

>  <Batch ID>  (57) 
CTX-1020755-1

>  <External ID>  (57) 
P841-0382

>  <Stereochemistry>  (57) 
Achiral

>  <Amount 1>  (57) 
5.65

>  <Unit 1>  (57) 
mg

>  <CRO 1>  (57) 
Pharmaron

>  <CRO 1 Total Amount>  (57) 
14.2

>  <CRO 1 Unit>  (57) 
mg

>  <pIC50>  (57) 
4.970616

>  <SMILES_std>  (57) 
Cc1c(C(=O)N2CCc3ccc(C(=O)NCc4ccc(N5CCN(C)CC5)cc4)nc3C2)oc2c1CCCC2

>  <embed_status>  (57) 
0

>  <mmff_status>  (57) 
0

>  <minimizedAffinity>  (57) 
-9.58371

>  <CNNscore>  (57) 
0.4521730542

>  <CNNaffinity>  (57) 
7.0298953056

>  <CNN_VS>  (57) 
3.1787292957

>  <CNNaffinity_variance>  (57) 
0.2315540314

>  <Docking_Rank>  (57) 
53

>  <Vina_Affinity_kcal_mol>  (57) 
-9.580

>  <CNN_pKi>  (57) 
7.030

>  <CNN_Pose_Score>  (57) 
0.4522

>  <Num_Docked_Poses>  (57) 
5

>  <MMGBSA_Rank>  (57) 
57

>  <MMGBSA_dG_kcal_mol>  (57) 
-47.851

>  <MMGBSA_VdW_kcal_mol>  (57) 
-46.959

>  <MMGBSA_Elec_kcal_mol>  (57) 
-2.557

>  <MMGBSA_PolarSolv_kcal_mol>  (57) 
7.812

>  <MMGBSA_NonPolarSolv_kcal_mol>  (57) 
-6.147

>  <MMGBSA_Status>  (57) 
S

$$$$
CTX-1020741
     RDKit          3D

 34 38  0  0  0  0  0  0  0  0999 V2000
   18.8941   -0.3296  -18.9786 S   0  0  0  0  0  0  0  0  0  0  0  0
   17.5651    0.4847  -18.2530 C   0  0  0  0  0  0  0  0  0  0  0  0
   19.9998    0.8138  -18.3953 C   0  0  0  0  0  0  0  0  0  0  0  0
   17.9887    1.6268  -17.5900 C   0  0  0  0  0  0  0  0  0  0  0  0
   19.4049    1.8228  -17.6645 C   0  0  0  0  0  0  0  0  0  0  0  0
   21.4723    0.7186  -18.6427 C   0  0  0  0  0  0  0  0  0  0  0  0
   20.1799    2.9626  -17.0639 C   0  0  0  0  0  0  0  0  0  0  0  0
   22.1027    2.0966  -18.3960 C   0  0  0  0  0  0  0  0  0  0  0  0
   21.6178    2.6934  -17.1366 N   0  0  0  0  0  0  0  0  0  0  0  0
   22.4359    3.4251  -16.2684 C   0  0  0  0  0  0  0  0  0  0  0  0
   21.9603    4.3459  -15.5998 O   0  0  0  0  0  0  0  0  0  0  0  0
   23.8394    3.0571  -16.1562 C   0  0  0  0  0  0  0  0  0  0  0  0
   24.6374    3.0851  -17.2694 O   0  0  0  0  0  0  0  0  0  0  0  0
   24.5639    2.5695  -15.0729 C   0  0  0  0  0  0  0  0  0  0  0  0
   25.8703    2.6514  -16.9028 C   0  0  0  0  0  0  0  0  0  0  0  0
   25.8855    2.3197  -15.5553 C   0  0  0  0  0  0  0  0  0  0  0  0
   24.0516    2.3491  -13.6962 C   0  0  0  0  0  0  0  0  0  0  0  0
   26.9704    2.5459  -17.7509 C   0  0  0  0  0  0  0  0  0  0  0  0
   27.0885    1.8412  -15.0020 C   0  0  0  0  0  0  0  0  0  0  0  0
   28.1557    2.0721  -17.1802 C   0  0  0  0  0  0  0  0  0  0  0  0
   28.2158    1.7249  -15.8286 C   0  0  0  0  0  0  0  0  0  0  0  0
   16.2257   -0.0725  -18.4120 C   0  0  0  0  0  0  0  0  0  0  0  0
   15.6345   -0.7054  -17.5396 O   0  0  0  0  0  0  0  0  0  0  0  0
   15.6397    0.1730  -19.6404 N   0  0  0  0  0  0  0  0  0  0  0  0
   16.1738    0.5944  -20.3520 H   0  0  0  0  0  0  0  0  0  0  0  0
   14.2621   -0.1742  -19.9042 C   0  0  0  0  0  0  0  0  0  0  0  0
   13.8972    0.1434  -21.3312 C   0  0  0  0  0  0  0  0  0  0  0  0
   13.8245   -0.8680  -22.2981 C   0  0  0  0  0  0  0  0  0  0  0  0
   13.6607    1.4671  -21.7217 C   0  0  0  0  0  0  0  0  0  0  0  0
   13.5076   -0.5643  -23.6277 C   0  0  0  0  0  0  0  0  0  0  0  0
   13.3459    1.7665  -23.0489 C   0  0  0  0  0  0  0  0  0  0  0  0
   13.2660    0.7555  -24.0086 C   0  0  0  0  0  0  0  0  0  0  0  0
   12.9496    1.1856  -25.2676 O   0  0  0  0  0  0  0  0  0  0  0  0
   13.5983    0.5341  -26.3520 C   0  0  0  0  0  0  0  0  0  0  0  0
  1  2  1  0
  1  3  1  0
  2 22  1  0
  2  4  2  0
  3  5  2  0
  3  6  1  0
 22 23  2  0
 22 24  1  0
  5  7  1  0
  6  8  1  0
 24 26  1  0
  7  9  1  0
 26 27  1  0
  9 10  1  0
 27 28  2  0
 27 29  1  0
 10 11  2  0
 10 12  1  0
 28 30  1  0
 29 31  2  0
 12 13  1  0
 12 14  2  0
 30 32  2  0
 13 15  1  0
 14 16  1  0
 14 17  1  0
 32 33  1  0
 15 18  2  0
 16 19  2  0
 33 34  1  0
 18 20  1  0
 19 21  1  0
  4  5  1  0
  8  9  1  0
 31 32  1  0
 15 16  1  0
 20 21  2  0
 24 25  1  0
M  END
>  <Molecule Name>  (58) 
CTX-1020741

>  <SMILES>  (58) 
COC1=CC=C(CNC(=O)C2=CC3=C(CCN(C3)C(=O)C3=C(C)C4=C(O3)C=CC=C4)S2)C=C1

>  <Batch Name>  (58) 
CTX-1020741-1

>  <Batch Created Date>  (58) 
2021-12-16

>  <Batch ID>  (58) 
CTX-1020741-1

>  <External ID>  (58) 
P841-0356

>  <Stereochemistry>  (58) 
Achiral

>  <Amount 1>  (58) 
4.55

>  <Unit 1>  (58) 
mg

>  <CRO 1>  (58) 
Pharmaron

>  <CRO 1 Total Amount>  (58) 
19.75

>  <CRO 1 Unit>  (58) 
mg

>  <pIC50>  (58) 
6.116907

>  <SMILES_std>  (58) 
COc1ccc(CNC(=O)c2cc3c(s2)CCN(C(=O)c2oc4ccccc4c2C)C3)cc1

>  <embed_status>  (58) 
0

>  <mmff_status>  (58) 
0

>  <minimizedAffinity>  (58) 
-8.67340

>  <CNNscore>  (58) 
0.3308688998

>  <CNNaffinity>  (58) 
5.9624390602

>  <CNN_VS>  (58) 
1.9727857113

>  <CNNaffinity_variance>  (58) 
0.0594872423

>  <Docking_Rank>  (58) 
73

>  <Vina_Affinity_kcal_mol>  (58) 
-8.670

>  <CNN_pKi>  (58) 
5.962

>  <CNN_Pose_Score>  (58) 
0.3309

>  <Num_Docked_Poses>  (58) 
5

>  <MMGBSA_Rank>  (58) 
58

>  <MMGBSA_dG_kcal_mol>  (58) 
-47.763

>  <MMGBSA_VdW_kcal_mol>  (58) 
-49.473

>  <MMGBSA_Elec_kcal_mol>  (58) 
-4.204

>  <MMGBSA_PolarSolv_kcal_mol>  (58) 
12.450

>  <MMGBSA_NonPolarSolv_kcal_mol>  (58) 
-6.537

>  <MMGBSA_Status>  (58) 
S

$$$$
CTX-1020726
     RDKit          3D

 35 40  0  0  0  0  0  0  0  0999 V2000
   20.2769    1.2658  -18.3661 C   0  0  0  0  0  0  0  0  0  0  0  0
   21.0778    1.5068  -17.2871 N   0  0  0  0  0  0  0  0  0  0  0  0
   20.7344    1.2176  -19.6744 C   0  0  0  0  0  0  0  0  0  0  0  0
   22.3982    1.7137  -17.5296 C   0  0  0  0  0  0  0  0  0  0  0  0
   22.0901    1.4240  -19.9013 C   0  0  0  0  0  0  0  0  0  0  0  0
   22.9447    1.6631  -18.8204 C   0  0  0  0  0  0  0  0  0  0  0  0
   23.2794    1.9716  -16.3210 C   0  0  0  0  0  0  0  0  0  0  0  0
   24.4120    1.9218  -19.0508 C   0  0  0  0  0  0  0  0  0  0  0  0
   24.6422    2.3764  -16.6520 N   0  0  0  0  0  0  0  0  0  0  0  0
   25.2328    1.6718  -17.7881 C   0  0  0  0  0  0  0  0  0  0  0  0
   25.3951    2.9605  -15.6272 C   0  0  0  0  0  0  0  0  0  0  0  0
   24.9490    2.9991  -14.4786 O   0  0  0  0  0  0  0  0  0  0  0  0
   26.6898    3.5384  -15.9553 C   0  0  0  0  0  0  0  0  0  0  0  0
   26.7762    4.8672  -16.2779 O   0  0  0  0  0  0  0  0  0  0  0  0
   27.9639    2.9798  -15.9257 C   0  0  0  0  0  0  0  0  0  0  0  0
   28.0866    5.1557  -16.4847 C   0  0  0  0  0  0  0  0  0  0  0  0
   28.8681    4.0267  -16.2830 C   0  0  0  0  0  0  0  0  0  0  0  0
   28.3038    1.5755  -15.5805 C   0  0  0  0  0  0  0  0  0  0  0  0
   28.5879    6.4048  -16.8443 C   0  0  0  0  0  0  0  0  0  0  0  0
   30.2613    4.1444  -16.4481 C   0  0  0  0  0  0  0  0  0  0  0  0
   29.9735    6.4985  -17.0064 C   0  0  0  0  0  0  0  0  0  0  0  0
   30.7982    5.3881  -16.8119 C   0  0  0  0  0  0  0  0  0  0  0  0
   18.3860    1.3399  -16.9601 O   0  0  0  0  0  0  0  0  0  0  0  0
   18.8206    1.0479  -18.0649 C   0  0  0  0  0  0  0  0  0  0  0  0
   18.1422    0.5182  -19.1396 N   0  0  0  0  0  0  0  0  0  0  0  0
   18.6927    0.3567  -19.9396 H   0  0  0  0  0  0  0  0  0  0  0  0
   16.8068    0.1773  -19.2706 C   0  0  0  0  0  0  0  0  0  0  0  0
   16.1159   -0.6262  -20.1574 C   0  0  0  0  0  0  0  0  0  0  0  0
   15.8038    0.6626  -18.3990 C   0  0  0  0  0  0  0  0  0  0  0  0
   14.7634   -0.5738  -19.7717 N   0  0  0  0  0  0  0  0  0  0  0  0
   16.4176   -1.4421  -21.2920 C   0  0  0  0  0  0  0  0  0  0  0  0
   14.5839    0.2212  -18.6874 N   0  0  0  0  0  0  0  0  0  0  0  0
   13.7581   -1.2704  -20.4477 C   0  0  0  0  0  0  0  0  0  0  0  0
   15.4395   -2.1085  -21.9347 C   0  0  0  0  0  0  0  0  0  0  0  0
   14.0570   -2.0303  -21.5110 C   0  0  0  0  0  0  0  0  0  0  0  0
 23 24  2  0
 24 25  1  0
 24  1  1  0
 25 27  1  0
  1  2  2  0
  1  3  1  0
 27 28  2  0
 27 29  1  0
  2  4  1  0
  3  5  2  0
 28 30  1  0
 28 31  1  0
 29 32  2  0
  4  6  2  0
  4  7  1  0
 30 33  1  0
 31 34  2  0
  6  8  1  0
  7  9  1  0
 33 35  2  0
  8 10  1  0
  9 11  1  0
 11 12  2  0
 11 13  1  0
 13 14  1  0
 13 15  2  0
 14 16  1  0
 15 17  1  0
 15 18  1  0
 16 19  2  0
 17 20  2  0
 19 21  1  0
 20 22  1  0
  5  6  1  0
 30 32  1  0
 34 35  1  0
  9 10  1  0
 16 17  1  0
 21 22  2  0
 25 26  1  0
M  END
>  <Molecule Name>  (59) 
CTX-1020726

>  <SMILES>  (59) 
CC1=C(OC2=C1C=CC=C2)C(=O)N1CCC2=CC=C(N=C2C1)C(=O)NC1=C2C=CC=CN2N=C1

>  <Batch Name>  (59) 
CTX-1020726-1

>  <Batch Created Date>  (59) 
2021-12-16

>  <Batch ID>  (59) 
CTX-1020726-1

>  <External ID>  (59) 
CD-42-E

>  <Stereochemistry>  (59) 
Achiral

>  <Amount 1>  (59) 
3.3

>  <Unit 1>  (59) 
mg

>  <CRO 1>  (59) 
Pharmaron

>  <CRO 1 Total Amount>  (59) 
17.6

>  <CRO 1 Unit>  (59) 
mg

>  <pIC50>  (59) 
4.08831

>  <SMILES_std>  (59) 
Cc1c(C(=O)N2CCc3ccc(C(=O)Nc4cnn5ccccc45)nc3C2)oc2ccccc12

>  <embed_status>  (59) 
0

>  <mmff_status>  (59) 
0

>  <minimizedAffinity>  (59) 
-9.52986

>  <CNNscore>  (59) 
0.4516622424

>  <CNNaffinity>  (59) 
6.3601555824

>  <CNN_VS>  (59) 
2.8726420403

>  <CNNaffinity_variance>  (59) 
0.2954215705

>  <Docking_Rank>  (59) 
70

>  <Vina_Affinity_kcal_mol>  (59) 
-9.530

>  <CNN_pKi>  (59) 
6.360

>  <CNN_Pose_Score>  (59) 
0.4517

>  <Num_Docked_Poses>  (59) 
5

>  <MMGBSA_Rank>  (59) 
59

>  <MMGBSA_dG_kcal_mol>  (59) 
-46.957

>  <MMGBSA_VdW_kcal_mol>  (59) 
-48.287

>  <MMGBSA_Elec_kcal_mol>  (59) 
-7.606

>  <MMGBSA_PolarSolv_kcal_mol>  (59) 
15.809

>  <MMGBSA_NonPolarSolv_kcal_mol>  (59) 
-6.873

>  <MMGBSA_Status>  (59) 
S

$$$$
CTX-1020566
     RDKit          3D

 35 39  0  0  0  0  0  0  0  0999 V2000
   32.7816    7.6242  -22.7880 C   0  0  0  0  0  0  0  0  0  0  0  0
   33.6907    6.9917  -23.5839 N   0  0  0  0  0  0  0  0  0  0  0  0
   32.5938    8.9978  -22.7667 C   0  0  0  0  0  0  0  0  0  0  0  0
   34.4451    7.7690  -24.4015 C   0  0  0  0  0  0  0  0  0  0  0  0
   33.3810    9.7784  -23.6052 C   0  0  0  0  0  0  0  0  0  0  0  0
   34.3323    9.1669  -24.4281 C   0  0  0  0  0  0  0  0  0  0  0  0
   35.4578    7.0520  -25.2752 C   0  0  0  0  0  0  0  0  0  0  0  0
   35.1745    9.9933  -25.3663 C   0  0  0  0  0  0  0  0  0  0  0  0
   36.1047    7.9095  -26.2644 N   0  0  0  0  0  0  0  0  0  0  0  0
   36.4395    9.2502  -25.7883 C   0  0  0  0  0  0  0  0  0  0  0  0
   36.7704    7.2722  -27.3171 C   0  0  0  0  0  0  0  0  0  0  0  0
   36.9001    6.0463  -27.3152 O   0  0  0  0  0  0  0  0  0  0  0  0
   37.2760    8.0830  -28.4150 C   0  0  0  0  0  0  0  0  0  0  0  0
   38.6229    8.3079  -28.5268 O   0  0  0  0  0  0  0  0  0  0  0  0
   36.5991    8.7931  -29.4018 C   0  0  0  0  0  0  0  0  0  0  0  0
   38.8158    9.1276  -29.5916 C   0  0  0  0  0  0  0  0  0  0  0  0
   37.6002    9.4594  -30.1733 C   0  0  0  0  0  0  0  0  0  0  0  0
   35.1276    8.8468  -29.5976 C   0  0  0  0  0  0  0  0  0  0  0  0
   40.0530    9.5816  -30.0431 C   0  0  0  0  0  0  0  0  0  0  0  0
   37.6097   10.3134  -31.2925 C   0  0  0  0  0  0  0  0  0  0  0  0
   40.0398   10.4256  -31.1579 C   0  0  0  0  0  0  0  0  0  0  0  0
   38.8393   10.7866  -31.7738 C   0  0  0  0  0  0  0  0  0  0  0  0
   31.7339    7.0465  -20.7276 O   0  0  0  0  0  0  0  0  0  0  0  0
   31.9602    6.7442  -21.8937 C   0  0  0  0  0  0  0  0  0  0  0  0
   31.5118    5.5909  -22.4982 N   0  0  0  0  0  0  0  0  0  0  0  0
   31.6482    5.4843  -23.4674 H   0  0  0  0  0  0  0  0  0  0  0  0
   30.8525    4.5338  -21.7762 C   0  0  0  0  0  0  0  0  0  0  0  0
   29.4748    4.2803  -22.3318 C   0  0  0  0  0  0  0  0  0  0  0  0
   28.7496    3.1466  -21.9325 C   0  0  0  0  0  0  0  0  0  0  0  0
   28.9139    5.1464  -23.2815 C   0  0  0  0  0  0  0  0  0  0  0  0
   27.4810    2.8919  -22.4575 C   0  0  0  0  0  0  0  0  0  0  0  0
   27.6455    4.8922  -23.8062 C   0  0  0  0  0  0  0  0  0  0  0  0
   26.9393    3.7701  -23.3900 C   0  0  0  0  0  0  0  0  0  0  0  0
   25.7043    3.5602  -23.9289 O   0  0  0  0  0  0  0  0  0  0  0  0
   25.2011    2.8133  -23.6703 H   0  0  0  0  0  0  0  0  0  0  0  0
 23 24  2  0
 24 25  1  0
 24  1  1  0
 25 27  1  0
  1  2  2  0
  1  3  1  0
 27 28  1  0
  2  4  1  0
  3  5  2  0
 28 29  2  0
 28 30  1  0
  4  6  2  0
  4  7  1  0
 29 31  1  0
 30 32  2  0
  6  8  1  0
  7  9  1  0
 31 33  2  0
  8 10  1  0
  9 11  1  0
 33 34  1  0
 11 12  2  0
 11 13  1  0
 13 14  1  0
 13 15  2  0
 14 16  1  0
 15 17  1  0
 15 18  1  0
 16 19  2  0
 17 20  2  0
 19 21  1  0
 20 22  1  0
  5  6  1  0
 32 33  1  0
  9 10  1  0
 16 17  1  0
 21 22  2  0
 25 26  1  0
 34 35  1  0
M  END
>  <Molecule Name>  (60) 
CTX-1020566

>  <SMILES>  (60) 
CC1=C(OC2=C1C=CC=C2)C(=O)N1CCC2=C(C1)N=C(C=C2)C(=O)NCC1=CC=C(O)C=C1

>  <Batch Name>  (60) 
CTX-1020566-1

>  <Batch Created Date>  (60) 
2021-11-18

>  <Batch ID>  (60) 
CTX-1020566-1

>  <External ID>  (60) 
P841-0232

>  <Stereochemistry>  (60) 
Achiral

>  <Amount 1>  (60) 
3.9

>  <Unit 1>  (60) 
mg

>  <CRO 1>  (60) 
Pharmaron

>  <CRO 1 Total Amount>  (60) 
22.5

>  <CRO 1 Unit>  (60) 
mg

>  <pIC50>  (60) 
5.411168

>  <SMILES_std>  (60) 
Cc1c(C(=O)N2CCc3ccc(C(=O)NCc4ccc(O)cc4)nc3C2)oc2ccccc12

>  <embed_status>  (60) 
0

>  <mmff_status>  (60) 
0

>  <minimizedAffinity>  (60) 
-7.25341

>  <CNNscore>  (60) 
0.3050767183

>  <CNNaffinity>  (60) 
6.3772702217

>  <CNN_VS>  (60) 
1.9455566406

>  <CNNaffinity_variance>  (60) 
0.1583516300

>  <Docking_Rank>  (60) 
69

>  <Vina_Affinity_kcal_mol>  (60) 
-7.250

>  <CNN_pKi>  (60) 
6.377

>  <CNN_Pose_Score>  (60) 
0.3051

>  <Num_Docked_Poses>  (60) 
5

>  <MMGBSA_Rank>  (60) 
60

>  <MMGBSA_dG_kcal_mol>  (60) 
-46.620

>  <MMGBSA_VdW_kcal_mol>  (60) 
-46.272

>  <MMGBSA_Elec_kcal_mol>  (60) 
-3.603

>  <MMGBSA_PolarSolv_kcal_mol>  (60) 
9.329

>  <MMGBSA_NonPolarSolv_kcal_mol>  (60) 
-6.075

>  <MMGBSA_Status>  (60) 
S

$$$$
CTX-1020817
     RDKit          3D

 39 44  0  0  0  0  0  0  0  0999 V2000
   31.8812    6.7438  -22.6367 C   0  0  0  0  0  0  0  0  0  0  0  0
   32.4206    6.8513  -21.5362 O   0  0  0  0  0  0  0  0  0  0  0  0
   32.4620    7.2963  -23.7846 N   0  0  0  0  0  0  0  0  0  0  0  0
   33.7211    8.0221  -23.5823 C   0  0  0  0  0  0  0  0  0  0  0  0
   31.7054    7.6086  -25.0140 C   0  0  0  0  0  0  0  0  0  0  0  0
   34.4549    8.1938  -24.8810 C   0  0  0  0  0  0  0  0  0  0  0  0
   32.5262    7.3286  -26.2814 C   0  0  0  0  0  0  0  0  0  0  0  0
   33.8980    7.8905  -26.1057 C   0  0  0  0  0  0  0  0  0  0  0  0
   35.7854    8.6987  -25.0410 C   0  0  0  0  0  0  0  0  0  0  0  0
   34.9362    8.2012  -27.4081 S   0  0  0  0  0  0  0  0  0  0  0  0
   36.1889    8.7506  -26.3668 C   0  0  0  0  0  0  0  0  0  0  0  0
   31.1706    3.9868  -21.0446 Cl  0  0  0  0  0  0  0  0  0  0  0  0
   30.2410    4.8546  -22.1993 C   0  0  0  0  0  0  0  0  0  0  0  0
   30.6317    6.0334  -22.7904 C   0  0  0  0  0  0  0  0  0  0  0  0
   28.9373    4.4203  -22.6278 C   0  0  0  0  0  0  0  0  0  0  0  0
   29.4697    6.6117  -23.8954 S   0  0  0  0  0  0  0  0  0  0  0  0
   28.3974    5.3067  -23.5656 C   0  0  0  0  0  0  0  0  0  0  0  0
   28.1612    3.2965  -22.2687 C   0  0  0  0  0  0  0  0  0  0  0  0
   27.1365    5.0902  -24.1252 C   0  0  0  0  0  0  0  0  0  0  0  0
   26.9199    3.1507  -22.8634 C   0  0  0  0  0  0  0  0  0  0  0  0
   26.4078    4.0111  -23.7614 N   0  0  0  0  0  0  0  0  0  0  0  0
   37.4498    9.1913  -26.9533 C   0  0  0  0  0  0  0  0  0  0  0  0
   38.4818    8.5228  -26.9642 O   0  0  0  0  0  0  0  0  0  0  0  0
   37.4236   10.4571  -27.5043 N   0  0  0  0  0  0  0  0  0  0  0  0
   36.5748   10.9542  -27.5443 H   0  0  0  0  0  0  0  0  0  0  0  0
   38.6289   11.0577  -28.0218 C   0  0  0  0  0  0  0  0  0  0  0  0
   38.5302   12.5574  -27.9799 C   0  0  0  0  0  0  0  0  0  0  0  0
   38.6342   13.2426  -26.7674 C   0  0  0  0  0  0  0  0  0  0  0  0
   38.3884   13.3002  -29.1548 C   0  0  0  0  0  0  0  0  0  0  0  0
   38.5790   14.6408  -26.7372 C   0  0  0  0  0  0  0  0  0  0  0  0
   38.3357   14.7005  -29.1138 C   0  0  0  0  0  0  0  0  0  0  0  0
   38.4252   15.4053  -27.9061 C   0  0  0  0  0  0  0  0  0  0  0  0
   38.3781   16.8008  -27.8166 N   0  0  0  0  0  0  0  0  0  0  0  0
   39.3136   17.6401  -28.5934 C   0  0  0  0  0  0  0  0  0  0  0  0
   37.0000   17.3478  -27.7179 C   0  0  0  0  0  0  0  0  0  0  0  0
   38.5964   18.2837  -29.7988 C   0  0  0  0  0  0  0  0  0  0  0  0
   36.9447   18.8503  -28.0842 C   0  0  0  0  0  0  0  0  0  0  0  0
   37.4984   19.2019  -29.4111 N   0  0  0  0  0  0  0  0  0  0  0  0
   36.4641   19.2276  -30.4419 C   0  0  0  0  0  0  0  0  0  0  0  0
 12 13  1  0
 13 14  2  0
 13 15  1  0
 14 16  1  0
 14  1  1  0
 15 17  2  0
 15 18  1  0
  1  2  2  0
  1  3  1  0
 17 19  1  0
 18 20  2  0
  3  4  1  0
  3  5  1  0
 19 21  2  0
  4  6  1  0
  5  7  1  0
  6  8  2  0
  6  9  1  0
  8 10  1  0
  9 11  2  0
 11 22  1  0
 22 23  2  0
 22 24  1  0
 24 26  1  0
 26 27  1  0
 27 28  2  0
 27 29  1  0
 28 30  1  0
 29 31  2  0
 30 32  2  0
 32 33  1  0
 33 34  1  0
 33 35  1  0
 34 36  1  0
 35 37  1  0
 36 38  1  0
 38 39  1  0
 16 17  1  0
 20 21  1  0
  7  8  1  0
 10 11  1  0
 31 32  1  0
 37 38  1  0
 24 25  1  0
M  END
>  <Molecule Name>  (61) 
CTX-1020817

>  <SMILES>  (61) 
CN1CCN(CC1)C1=CC=C(CNC(=O)C2=CC3=C(CCN(C3)C(=O)C3=C(Cl)C4=CC=NC=C4S3)S2)C=C1

>  <Batch Name>  (61) 
CTX-1020817-1

>  <Batch Created Date>  (61) 
2021-12-30

>  <Batch ID>  (61) 
CTX-1020817-1

>  <External ID>  (61) 
CD-44-2-J

>  <Stereochemistry>  (61) 
Achiral

>  <Amount 1>  (61) 
9.1

>  <Unit 1>  (61) 
mg

>  <CRO 1>  (61) 
Pharmaron

>  <CRO 1 Total Amount>  (61) 
34.5

>  <CRO 1 Unit>  (61) 
mg

>  <pIC50>  (61) 
5.07263

>  <SMILES_std>  (61) 
CN1CCN(c2ccc(CNC(=O)c3cc4c(s3)CCN(C(=O)c3sc5cnccc5c3Cl)C4)cc2)CC1

>  <embed_status>  (61) 
0

>  <mmff_status>  (61) 
0

>  <minimizedAffinity>  (61) 
-8.06457

>  <CNNscore>  (61) 
0.2570965290

>  <CNNaffinity>  (61) 
7.1619772911

>  <CNN_VS>  (61) 
1.8413195610

>  <CNNaffinity_variance>  (61) 
0.4624834359

>  <Docking_Rank>  (61) 
44

>  <Vina_Affinity_kcal_mol>  (61) 
-8.060

>  <CNN_pKi>  (61) 
7.162

>  <CNN_Pose_Score>  (61) 
0.2571

>  <Num_Docked_Poses>  (61) 
5

>  <MMGBSA_Rank>  (61) 
61

>  <MMGBSA_dG_kcal_mol>  (61) 
-46.342

>  <MMGBSA_VdW_kcal_mol>  (61) 
-46.387

>  <MMGBSA_Elec_kcal_mol>  (61) 
-2.527

>  <MMGBSA_PolarSolv_kcal_mol>  (61) 
8.461

>  <MMGBSA_NonPolarSolv_kcal_mol>  (61) 
-5.889

>  <MMGBSA_Status>  (61) 
S

$$$$
CTX-1020799
     RDKit          3D

 40 46  0  0  0  0  0  0  0  0999 V2000
   33.8421    8.8661  -23.7814 C   0  0  0  0  0  0  0  0  0  0  0  0
   33.8658    9.9633  -23.2234 O   0  0  0  0  0  0  0  0  0  0  0  0
   34.7319    8.5717  -24.8238 N   0  0  0  0  0  0  0  0  0  0  0  0
   35.6620    9.6469  -25.1902 C   0  0  0  0  0  0  0  0  0  0  0  0
   35.1375    7.1961  -25.1754 C   0  0  0  0  0  0  0  0  0  0  0  0
   36.2964    9.3759  -26.5230 C   0  0  0  0  0  0  0  0  0  0  0  0
   35.3612    7.0257  -26.6857 C   0  0  0  0  0  0  0  0  0  0  0  0
   36.1665    8.1760  -27.1917 C   0  0  0  0  0  0  0  0  0  0  0  0
   37.1147   10.2810  -27.2678 C   0  0  0  0  0  0  0  0  0  0  0  0
   36.9927    8.1415  -28.6720 S   0  0  0  0  0  0  0  0  0  0  0  0
   37.5661    9.7455  -28.4629 C   0  0  0  0  0  0  0  0  0  0  0  0
   31.3092    7.8923  -25.6436 Cl  0  0  0  0  0  0  0  0  0  0  0  0
   31.8029    7.3585  -24.0855 C   0  0  0  0  0  0  0  0  0  0  0  0
   32.8928    7.8432  -23.3965 C   0  0  0  0  0  0  0  0  0  0  0  0
   31.0913    6.3367  -23.3614 C   0  0  0  0  0  0  0  0  0  0  0  0
   33.0427    7.1248  -21.8588 S   0  0  0  0  0  0  0  0  0  0  0  0
   31.6778    6.1080  -22.1126 C   0  0  0  0  0  0  0  0  0  0  0  0
   29.9441    5.5718  -23.7006 C   0  0  0  0  0  0  0  0  0  0  0  0
   31.1617    5.1522  -21.2150 C   0  0  0  0  0  0  0  0  0  0  0  0
   29.4297    4.6217  -22.8133 C   0  0  0  0  0  0  0  0  0  0  0  0
   30.0348    4.4151  -21.5828 C   0  0  0  0  0  0  0  0  0  0  0  0
   38.4136   10.4089  -29.4461 C   0  0  0  0  0  0  0  0  0  0  0  0
   39.2303   11.2768  -29.1437 O   0  0  0  0  0  0  0  0  0  0  0  0
   38.2455   10.0107  -30.7528 N   0  0  0  0  0  0  0  0  0  0  0  0
   37.6220    9.2761  -30.9549 H   0  0  0  0  0  0  0  0  0  0  0  0
   38.9600   10.6430  -31.8315 C   0  0  0  0  0  0  0  0  0  0  0  0
   38.0568   11.5723  -32.5945 C   0  0  0  0  0  0  0  0  0  0  0  0
   36.7214   11.2318  -32.8360 C   0  0  0  0  0  0  0  0  0  0  0  0
   38.5529   12.7676  -33.1269 C   0  0  0  0  0  0  0  0  0  0  0  0
   35.8945   12.0838  -33.5760 C   0  0  0  0  0  0  0  0  0  0  0  0
   37.7207   13.6152  -33.8658 C   0  0  0  0  0  0  0  0  0  0  0  0
   36.3773   13.2926  -34.0920 C   0  0  0  0  0  0  0  0  0  0  0  0
   35.5444   14.1431  -34.8447 N   0  0  0  0  0  0  0  0  0  0  0  0
   34.1015   14.2218  -34.8081 C   0  0  0  0  0  0  0  0  0  0  0  0
   35.7063   15.5588  -35.0736 C   0  0  0  0  0  0  0  0  0  0  0  0
   34.2631   15.5639  -35.4506 C   0  0  0  0  0  0  0  0  0  0  0  0
   33.8510   15.7473  -36.8837 C   0  0  0  0  0  0  0  0  0  0  0  0
   33.3637   16.6978  -35.0660 C   0  0  0  0  0  0  0  0  0  0  0  0
   32.6676   16.5002  -36.3705 N   0  0  0  0  0  0  0  0  0  0  0  0
   32.5262   17.7712  -37.0743 C   0  0  0  0  0  0  0  0  0  0  0  0
 12 13  1  0
 13 14  2  0
 13 15  1  0
 14 16  1  0
 14  1  1  0
 15 17  2  0
 15 18  1  0
  1  2  2  0
  1  3  1  0
 17 19  1  0
 18 20  2  0
  3  4  1  0
  3  5  1  0
 19 21  2  0
  4  6  1  0
  5  7  1  0
  6  8  2  0
  6  9  1  0
  8 10  1  0
  9 11  2  0
 11 22  1  0
 22 23  2  0
 22 24  1  0
 24 26  1  0
 26 27  1  0
 27 28  2  0
 27 29  1  0
 28 30  1  0
 29 31  2  0
 30 32  2  0
 32 33  1  0
 33 34  1  0
 33 35  1  0
 34 36  1  0
 36 37  1  0
 36 38  1  0
 37 39  1  0
 39 40  1  0
 16 17  1  0
 20 21  1  0
  7  8  1  0
 10 11  1  0
 31 32  1  0
 35 36  1  0
 38 39  1  0
 24 25  1  0
M  END
>  <Molecule Name>  (62) 
CTX-1020799

>  <SMILES>  (62) 
CN1CC2(C1)CN(C2)C1=CC=C(CNC(=O)C2=CC3=C(CCN(C3)C(=O)C3=C(Cl)C4=CC=CC=C4S3)S2)C=C1

>  <Batch Name>  (62) 
CTX-1020799-1

>  <Batch Created Date>  (62) 
2021-12-24

>  <Batch ID>  (62) 
CTX-1020799-1

>  <External ID>  (62) 
CD-44-2-N

>  <Stereochemistry>  (62) 
Achiral

>  <Amount 1>  (62) 
20.6

>  <Unit 1>  (62) 
mg

>  <CRO 1>  (62) 
Pharmaron

>  <CRO 1 Total Amount>  (62) 
29.2

>  <CRO 1 Unit>  (62) 
mg

>  <pIC50>  (62) 
5.103474

>  <SMILES_std>  (62) 
CN1CC2(C1)CN(c1ccc(CNC(=O)c3cc4c(s3)CCN(C(=O)c3sc5ccccc5c3Cl)C4)cc1)C2

>  <embed_status>  (62) 
0

>  <mmff_status>  (62) 
0

>  <minimizedAffinity>  (62) 
-6.06825

>  <CNNscore>  (62) 
0.4294115305

>  <CNNaffinity>  (62) 
7.4099259377

>  <CNN_VS>  (62) 
3.1819076538

>  <CNNaffinity_variance>  (62) 
0.1163505316

>  <Docking_Rank>  (62) 
28

>  <Vina_Affinity_kcal_mol>  (62) 
-6.070

>  <CNN_pKi>  (62) 
7.410

>  <CNN_Pose_Score>  (62) 
0.4294

>  <Num_Docked_Poses>  (62) 
5

>  <MMGBSA_Rank>  (62) 
62

>  <MMGBSA_dG_kcal_mol>  (62) 
-46.301

>  <MMGBSA_VdW_kcal_mol>  (62) 
-46.375

>  <MMGBSA_Elec_kcal_mol>  (62) 
-2.354

>  <MMGBSA_PolarSolv_kcal_mol>  (62) 
7.376

>  <MMGBSA_NonPolarSolv_kcal_mol>  (62) 
-4.948

>  <MMGBSA_Status>  (62) 
S

$$$$
CTX-1020671
     RDKit          3D

 31 35  0  0  0  0  0  0  0  0999 V2000
   35.1183    8.2269  -24.6992 S   0  0  0  0  0  0  0  0  0  0  0  0
   34.3803    8.4776  -26.2282 C   0  0  0  0  0  0  0  0  0  0  0  0
   33.6644    7.6854  -24.0145 C   0  0  0  0  0  0  0  0  0  0  0  0
   33.0370    8.1411  -26.1912 C   0  0  0  0  0  0  0  0  0  0  0  0
   32.6123    7.6759  -24.9086 C   0  0  0  0  0  0  0  0  0  0  0  0
   33.5540    7.2391  -22.5927 C   0  0  0  0  0  0  0  0  0  0  0  0
   31.2238    7.2448  -24.5348 C   0  0  0  0  0  0  0  0  0  0  0  0
   32.0712    7.2102  -22.1912 C   0  0  0  0  0  0  0  0  0  0  0  0
   31.2338    6.5739  -23.2286 N   0  0  0  0  0  0  0  0  0  0  0  0
   30.0726    5.8671  -22.9119 C   0  0  0  0  0  0  0  0  0  0  0  0
   29.0619    5.9320  -23.6080 O   0  0  0  0  0  0  0  0  0  0  0  0
   30.1009    5.0051  -21.7448 C   0  0  0  0  0  0  0  0  0  0  0  0
   30.0656    5.4083  -20.4263 C   0  0  0  0  0  0  0  0  0  0  0  0
   30.0791    3.5962  -21.6472 C   0  0  0  0  0  0  0  0  0  0  0  0
   30.0774    4.2799  -19.6381 N   0  0  0  0  0  0  0  0  0  0  0  0
   30.0262    6.6889  -19.7766 C   0  0  0  0  0  0  0  0  0  0  0  0
   30.1021    3.1526  -20.3882 N   0  0  0  0  0  0  0  0  0  0  0  0
   30.0661    4.4115  -18.2608 C   0  0  0  0  0  0  0  0  0  0  0  0
   30.0208    6.8033  -18.4767 N   0  0  0  0  0  0  0  0  0  0  0  0
   30.0403    5.6425  -17.7277 C   0  0  0  0  0  0  0  0  0  0  0  0
   35.1173    8.9784  -27.3834 C   0  0  0  0  0  0  0  0  0  0  0  0
   35.7621   10.0244  -27.3515 O   0  0  0  0  0  0  0  0  0  0  0  0
   35.0433    8.2063  -28.5225 N   0  0  0  0  0  0  0  0  0  0  0  0
   34.6141    7.3219  -28.4686 H   0  0  0  0  0  0  0  0  0  0  0  0
   35.5715    8.6461  -29.7908 C   0  0  0  0  0  0  0  0  0  0  0  0
   37.0761    8.7064  -29.7470 C   0  0  0  0  0  0  0  0  0  0  0  0
   37.8152    7.7178  -29.0821 C   0  0  0  0  0  0  0  0  0  0  0  0
   37.7605    9.7365  -30.4084 C   0  0  0  0  0  0  0  0  0  0  0  0
   39.2103    7.7688  -29.0665 C   0  0  0  0  0  0  0  0  0  0  0  0
   39.1549    9.7851  -30.3924 C   0  0  0  0  0  0  0  0  0  0  0  0
   39.8791    8.8023  -29.7203 C   0  0  0  0  0  0  0  0  0  0  0  0
  1  2  1  0
  1  3  1  0
  2 21  1  0
  2  4  2  0
  3  5  2  0
  3  6  1  0
 21 22  2  0
 21 23  1  0
  5  7  1  0
  6  8  1  0
 23 25  1  0
  7  9  1  0
 25 26  1  0
  9 10  1  0
 26 27  2  0
 26 28  1  0
 10 11  2  0
 10 12  1  0
 27 29  1  0
 28 30  2  0
 12 13  2  0
 12 14  1  0
 29 31  2  0
 13 15  1  0
 13 16  1  0
 14 17  2  0
 15 18  1  0
 16 19  2  0
 18 20  2  0
  4  5  1  0
  8  9  1  0
 30 31  1  0
 15 17  1  0
 19 20  1  0
 23 24  1  0
M  END
>  <Molecule Name>  (63) 
CTX-1020671

>  <SMILES>  (63) 
O=C(NCC1=CC=CC=C1)C1=CC2=C(CCN(C2)C(=O)C2=C3C=NC=CN3N=C2)S1

>  <Batch Name>  (63) 
CTX-1020671-1

>  <Batch Created Date>  (63) 
2021-12-03

>  <Batch ID>  (63) 
CTX-1020671-1

>  <External ID>  (63) 
610EDL218-3

>  <Stereochemistry>  (63) 
Achiral

>  <Amount 1>  (63) 
5.4

>  <Unit 1>  (63) 
mg

>  <CRO 1>  (63) 
Pharmaron

>  <CRO 1 Total Amount>  (63) 
21.2

>  <CRO 1 Unit>  (63) 
mg

>  <pIC50>  (63) 
5.463442

>  <SMILES_std>  (63) 
O=C(NCc1ccccc1)c1cc2c(s1)CCN(C(=O)c1cnn3ccncc13)C2

>  <embed_status>  (63) 
0

>  <mmff_status>  (63) 
0

>  <minimizedAffinity>  (63) 
-9.43736

>  <CNNscore>  (63) 
0.2971223891

>  <CNNaffinity>  (63) 
6.6594443321

>  <CNN_VS>  (63) 
1.9786700010

>  <CNNaffinity_variance>  (63) 
0.3139998019

>  <Docking_Rank>  (63) 
64

>  <Vina_Affinity_kcal_mol>  (63) 
-9.440

>  <CNN_pKi>  (63) 
6.659

>  <CNN_Pose_Score>  (63) 
0.2971

>  <Num_Docked_Poses>  (63) 
5

>  <MMGBSA_Rank>  (63) 
63

>  <MMGBSA_dG_kcal_mol>  (63) 
-45.967

>  <MMGBSA_VdW_kcal_mol>  (63) 
-46.208

>  <MMGBSA_Elec_kcal_mol>  (63) 
-0.376

>  <MMGBSA_PolarSolv_kcal_mol>  (63) 
6.313

>  <MMGBSA_NonPolarSolv_kcal_mol>  (63) 
-5.696

>  <MMGBSA_Status>  (63) 
S

$$$$
CTX-1020810
     RDKit          3D

 41 46  0  0  0  0  0  0  0  0999 V2000
   34.0941    9.3883  -24.2079 C   0  0  0  0  0  0  0  0  0  0  0  0
   34.0863   10.5886  -23.9375 O   0  0  0  0  0  0  0  0  0  0  0  0
   34.9421    8.8773  -25.2000 N   0  0  0  0  0  0  0  0  0  0  0  0
   35.8299    9.8429  -25.8457 C   0  0  0  0  0  0  0  0  0  0  0  0
   35.4009    7.4887  -25.2221 C   0  0  0  0  0  0  0  0  0  0  0  0
   36.5321    9.3285  -27.0866 C   0  0  0  0  0  0  0  0  0  0  0  0
   35.6236    7.0105  -26.6553 C   0  0  0  0  0  0  0  0  0  0  0  0
   37.2508   10.2354  -27.7953 N   0  0  0  0  0  0  0  0  0  0  0  0
   36.4586    7.9775  -27.4498 C   0  0  0  0  0  0  0  0  0  0  0  0
   37.8985    9.7869  -28.9083 C   0  0  0  0  0  0  0  0  0  0  0  0
   37.1276    7.5558  -28.6036 C   0  0  0  0  0  0  0  0  0  0  0  0
   37.8643    8.4718  -29.3453 C   0  0  0  0  0  0  0  0  0  0  0  0
   33.3989    8.1919  -21.8766 S   0  0  0  0  0  0  0  0  0  0  0  0
   32.1280    7.0393  -21.8229 C   0  0  0  0  0  0  0  0  0  0  0  0
   33.2043    8.4479  -23.5481 C   0  0  0  0  0  0  0  0  0  0  0  0
   31.6755    6.3154  -20.7056 C   0  0  0  0  0  0  0  0  0  0  0  0
   31.5343    6.8736  -23.0787 C   0  0  0  0  0  0  0  0  0  0  0  0
   32.1544    7.7164  -24.0819 C   0  0  0  0  0  0  0  0  0  0  0  0
   32.2489    6.4727  -19.5036 F   0  0  0  0  0  0  0  0  0  0  0  0
   30.6201    5.4169  -20.8355 C   0  0  0  0  0  0  0  0  0  0  0  0
   30.4573    5.9524  -23.1829 C   0  0  0  0  0  0  0  0  0  0  0  0
   31.7088    7.7794  -25.5096 C   0  0  0  0  0  0  0  0  0  0  0  0
   30.0114    5.2348  -22.0672 C   0  0  0  0  0  0  0  0  0  0  0  0
   38.6738   10.8112  -29.6819 C   0  0  0  0  0  0  0  0  0  0  0  0
   39.3928   10.4946  -30.6230 O   0  0  0  0  0  0  0  0  0  0  0  0
   38.4890   12.1042  -29.2449 N   0  0  0  0  0  0  0  0  0  0  0  0
   37.9963   12.2521  -28.4055 H   0  0  0  0  0  0  0  0  0  0  0  0
   38.9859   13.2493  -29.9635 C   0  0  0  0  0  0  0  0  0  0  0  0
   39.7320   14.1796  -29.0444 C   0  0  0  0  0  0  0  0  0  0  0  0
   39.3332   15.5084  -28.8860 C   0  0  0  0  0  0  0  0  0  0  0  0
   40.8703   13.7405  -28.3619 C   0  0  0  0  0  0  0  0  0  0  0  0
   40.0509   16.3671  -28.0446 C   0  0  0  0  0  0  0  0  0  0  0  0
   41.5837   14.6083  -27.5239 C   0  0  0  0  0  0  0  0  0  0  0  0
   41.1893   15.9397  -27.3397 C   0  0  0  0  0  0  0  0  0  0  0  0
   41.8656   16.8432  -26.5108 N   0  0  0  0  0  0  0  0  0  0  0  0
   41.6199   18.2953  -26.6270 C   0  0  0  0  0  0  0  0  0  0  0  0
   43.2846   16.4773  -26.2691 C   0  0  0  0  0  0  0  0  0  0  0  0
   42.7895   18.9907  -27.3552 C   0  0  0  0  0  0  0  0  0  0  0  0
   44.1156   17.6827  -25.7683 C   0  0  0  0  0  0  0  0  0  0  0  0
   44.0823   18.8820  -26.6358 N   0  0  0  0  0  0  0  0  0  0  0  0
   45.1957   18.8992  -27.5807 C   0  0  0  0  0  0  0  0  0  0  0  0
 13 14  1  0
 13 15  1  0
 14 16  2  0
 14 17  1  0
 15 18  2  0
 15  1  1  0
 16 19  1  0
 16 20  1  0
 17 21  2  0
 18 22  1  0
  1  2  2  0
  1  3  1  0
 20 23  2  0
  3  4  1  0
  3  5  1  0
  4  6  1  0
  5  7  1  0
  6  8  2  0
  6  9  1  0
  8 10  1  0
  9 11  2  0
 10 24  1  0
 10 12  2  0
 24 25  2  0
 24 26  1  0
 26 28  1  0
 28 29  1  0
 29 30  2  0
 29 31  1  0
 30 32  1  0
 31 33  2  0
 32 34  2  0
 34 35  1  0
 35 36  1  0
 35 37  1  0
 36 38  1  0
 37 39  1  0
 38 40  1  0
 40 41  1  0
 17 18  1  0
 21 23  1  0
  7  9  1  0
 11 12  1  0
 33 34  1  0
 39 40  1  0
 26 27  1  0
M  END
>  <Molecule Name>  (64) 
CTX-1020810

>  <SMILES>  (64) 
CN1CCN(CC1)C1=CC=C(CNC(=O)C2=CC=C3CCN(CC3=N2)C(=O)C2=C(C)C3=C(S2)C(F)=CC=C3)C=C1

>  <Batch Name>  (64) 
CTX-1020810-1

>  <Batch Created Date>  (64) 
2021-12-30

>  <Batch ID>  (64) 
CTX-1020810-1

>  <External ID>  (64) 
CD-42-Q

>  <Stereochemistry>  (64) 
Achiral

>  <Amount 1>  (64) 
13.8

>  <Unit 1>  (64) 
mg

>  <CRO 1>  (64) 
Pharmaron

>  <CRO 1 Total Amount>  (64) 
32.5

>  <CRO 1 Unit>  (64) 
mg

>  <pIC50>  (64) 
6.164944

>  <SMILES_std>  (64) 
Cc1c(C(=O)N2CCc3ccc(C(=O)NCc4ccc(N5CCN(C)CC5)cc4)nc3C2)sc2c(F)cccc12

>  <embed_status>  (64) 
0

>  <mmff_status>  (64) 
0

>  <minimizedAffinity>  (64) 
-7.34347

>  <CNNscore>  (64) 
0.5219527483

>  <CNNaffinity>  (64) 
7.4149575233

>  <CNN_VS>  (64) 
3.8702573776

>  <CNNaffinity_variance>  (64) 
0.4164552987

>  <Docking_Rank>  (64) 
27

>  <Vina_Affinity_kcal_mol>  (64) 
-7.340

>  <CNN_pKi>  (64) 
7.415

>  <CNN_Pose_Score>  (64) 
0.5220

>  <Num_Docked_Poses>  (64) 
5

>  <MMGBSA_Rank>  (64) 
64

>  <MMGBSA_dG_kcal_mol>  (64) 
-45.955

>  <MMGBSA_VdW_kcal_mol>  (64) 
-45.205

>  <MMGBSA_Elec_kcal_mol>  (64) 
-3.371

>  <MMGBSA_PolarSolv_kcal_mol>  (64) 
7.935

>  <MMGBSA_NonPolarSolv_kcal_mol>  (64) 
-5.315

>  <MMGBSA_Status>  (64) 
S

$$$$
CTX-1020882
     RDKit          3D

 41 46  0  0  0  0  0  0  0  0999 V2000
   35.4452    8.0348  -28.1587 S   0  0  0  0  0  0  0  0  0  0  0  0
   36.5976    9.1773  -27.5906 C   0  0  0  0  0  0  0  0  0  0  0  0
   34.5352    8.1433  -26.7337 C   0  0  0  0  0  0  0  0  0  0  0  0
   36.2576    9.6336  -26.3260 C   0  0  0  0  0  0  0  0  0  0  0  0
   35.0612    9.0329  -25.8185 C   0  0  0  0  0  0  0  0  0  0  0  0
   33.2979    7.3371  -26.4990 C   0  0  0  0  0  0  0  0  0  0  0  0
   34.4173    9.3141  -24.4901 C   0  0  0  0  0  0  0  0  0  0  0  0
   32.4965    7.9804  -25.3582 C   0  0  0  0  0  0  0  0  0  0  0  0
   33.3642    8.3328  -24.2173 N   0  0  0  0  0  0  0  0  0  0  0  0
   32.9475    8.2252  -22.8851 C   0  0  0  0  0  0  0  0  0  0  0  0
   33.3586    9.0216  -22.0388 O   0  0  0  0  0  0  0  0  0  0  0  0
   32.0469    7.1396  -22.5279 C   0  0  0  0  0  0  0  0  0  0  0  0
   30.8981    6.9500  -23.2523 O   0  0  0  0  0  0  0  0  0  0  0  0
   32.1728    6.1349  -21.5727 C   0  0  0  0  0  0  0  0  0  0  0  0
   30.2770    5.8528  -22.7463 C   0  0  0  0  0  0  0  0  0  0  0  0
   31.0139    5.3102  -21.7034 C   0  0  0  0  0  0  0  0  0  0  0  0
   33.2967    5.9631  -20.6166 C   0  0  0  0  0  0  0  0  0  0  0  0
   29.0680    5.3248  -23.1966 C   0  0  0  0  0  0  0  0  0  0  0  0
   30.5095    4.1601  -21.0640 C   0  0  0  0  0  0  0  0  0  0  0  0
   28.3652    5.8720  -24.2372 O   0  0  0  0  0  0  0  0  0  0  0  0
   28.5760    4.1939  -22.5533 C   0  0  0  0  0  0  0  0  0  0  0  0
   29.2884    3.6170  -21.4990 C   0  0  0  0  0  0  0  0  0  0  0  0
   28.6920    6.6338  -24.6740 H   0  0  0  0  0  0  0  0  0  0  0  0
   37.7263    9.5249  -28.4482 C   0  0  0  0  0  0  0  0  0  0  0  0
   37.9851   10.6692  -28.8158 O   0  0  0  0  0  0  0  0  0  0  0  0
   38.5037    8.4519  -28.8437 N   0  0  0  0  0  0  0  0  0  0  0  0
   38.3354    7.5654  -28.4499 H   0  0  0  0  0  0  0  0  0  0  0  0
   39.5574    8.6010  -29.8215 C   0  0  0  0  0  0  0  0  0  0  0  0
   40.8587    8.0670  -29.2849 C   0  0  0  0  0  0  0  0  0  0  0  0
   41.0460    7.8637  -27.9168 C   0  0  0  0  0  0  0  0  0  0  0  0
   41.9009    7.7340  -30.1537 C   0  0  0  0  0  0  0  0  0  0  0  0
   42.2546    7.3423  -27.4376 C   0  0  0  0  0  0  0  0  0  0  0  0
   43.1066    7.2142  -29.6622 C   0  0  0  0  0  0  0  0  0  0  0  0
   43.3115    6.9887  -28.2946 C   0  0  0  0  0  0  0  0  0  0  0  0
   44.5001    6.4844  -27.7607 N   0  0  0  0  0  0  0  0  0  0  0  0
   44.8918    5.0795  -27.9949 C   0  0  0  0  0  0  0  0  0  0  0  0
   44.8622    6.9546  -26.4033 C   0  0  0  0  0  0  0  0  0  0  0  0
   44.3893    4.1400  -26.8702 C   0  0  0  0  0  0  0  0  0  0  0  0
   44.3355    5.9838  -25.3166 C   0  0  0  0  0  0  0  0  0  0  0  0
   44.7216    4.5637  -25.4900 N   0  0  0  0  0  0  0  0  0  0  0  0
   46.1342    4.3479  -25.1860 C   0  0  0  0  0  0  0  0  0  0  0  0
  1  2  1  0
  1  3  1  0
  2 24  1  0
  2  4  2  0
  3  5  2  0
  3  6  1  0
 24 25  2  0
 24 26  1  0
  5  7  1  0
  6  8  1  0
 26 28  1  0
  7  9  1  0
 28 29  1  0
  9 10  1  0
 29 30  2  0
 29 31  1  0
 10 11  2  0
 10 12  1  0
 30 32  1  0
 31 33  2  0
 12 13  1  0
 12 14  2  0
 32 34  2  0
 13 15  1  0
 14 16  1  0
 14 17  1  0
 34 35  1  0
 15 18  2  0
 16 19  2  0
 35 36  1  0
 35 37  1  0
 18 20  1  0
 18 21  1  0
 19 22  1  0
 36 38  1  0
 37 39  1  0
 38 40  1  0
 40 41  1  0
  4  5  1  0
  8  9  1  0
 33 34  1  0
 15 16  1  0
 21 22  2  0
 39 40  1  0
 26 27  1  0
 20 23  1  0
M  END
>  <Molecule Name>  (65) 
CTX-1020882

>  <SMILES>  (65) 
CN1CCN(CC1)C1=CC=C(CNC(=O)C2=CC3=C(CCN(C3)C(=O)C3=C(C)C4=CC=CC(O)=C4O3)S2)C=C1

>  <Batch Name>  (65) 
CTX-1020882-1

>  <Batch Created Date>  (65) 
2022-01-13

>  <Batch ID>  (65) 
CTX-1020882-1

>  <External ID>  (65) 
CD-44-2-D

>  <Stereochemistry>  (65) 
Achiral

>  <Amount 1>  (65) 
7.2

>  <Unit 1>  (65) 
mg

>  <CRO 1>  (65) 
Pharmaron

>  <CRO 1 Total Amount>  (65) 
35.5

>  <CRO 1 Unit>  (65) 
mg

>  <pIC50>  (65) 
5.326058

>  <SMILES_std>  (65) 
Cc1c(C(=O)N2CCc3sc(C(=O)NCc4ccc(N5CCN(C)CC5)cc4)cc3C2)oc2c(O)cccc12

>  <embed_status>  (65) 
0

>  <mmff_status>  (65) 
0

>  <minimizedAffinity>  (65) 
-8.67156

>  <CNNscore>  (65) 
0.3443445861

>  <CNNaffinity>  (65) 
7.0349216461

>  <CNN_VS>  (65) 
2.4224371910

>  <CNNaffinity_variance>  (65) 
0.0668385029

>  <Docking_Rank>  (65) 
52

>  <Vina_Affinity_kcal_mol>  (65) 
-8.670

>  <CNN_pKi>  (65) 
7.035

>  <CNN_Pose_Score>  (65) 
0.3443

>  <Num_Docked_Poses>  (65) 
5

>  <MMGBSA_Rank>  (65) 
65

>  <MMGBSA_dG_kcal_mol>  (65) 
-45.159

>  <MMGBSA_VdW_kcal_mol>  (65) 
-43.931

>  <MMGBSA_Elec_kcal_mol>  (65) 
-4.999

>  <MMGBSA_PolarSolv_kcal_mol>  (65) 
9.724

>  <MMGBSA_NonPolarSolv_kcal_mol>  (65) 
-5.952

>  <MMGBSA_Status>  (65) 
S

$$$$
CTX-1020699
     RDKit          3D

 36 41  0  0  0  0  0  0  0  0999 V2000
   37.0125    9.7349  -27.4524 C   0  0  0  0  0  0  0  0  0  0  0  0
   36.3643    9.9156  -26.2665 N   0  0  0  0  0  0  0  0  0  0  0  0
   36.6139    8.8285  -28.4229 C   0  0  0  0  0  0  0  0  0  0  0  0
   35.2697    9.1475  -26.0351 C   0  0  0  0  0  0  0  0  0  0  0  0
   35.4847    8.0575  -28.1729 C   0  0  0  0  0  0  0  0  0  0  0  0
   34.7880    8.2204  -26.9712 C   0  0  0  0  0  0  0  0  0  0  0  0
   34.5568    9.3623  -24.7126 C   0  0  0  0  0  0  0  0  0  0  0  0
   33.5801    7.3712  -26.6679 C   0  0  0  0  0  0  0  0  0  0  0  0
   33.5053    8.3870  -24.4372 N   0  0  0  0  0  0  0  0  0  0  0  0
   32.6996    8.0095  -25.5966 C   0  0  0  0  0  0  0  0  0  0  0  0
   33.0503    8.3011  -23.1170 C   0  0  0  0  0  0  0  0  0  0  0  0
   33.4397    9.1121  -22.2743 O   0  0  0  0  0  0  0  0  0  0  0  0
   32.1366    7.2247  -22.7632 C   0  0  0  0  0  0  0  0  0  0  0  0
   31.0637    6.9535  -23.5712 O   0  0  0  0  0  0  0  0  0  0  0  0
   32.1896    6.2963  -21.7280 C   0  0  0  0  0  0  0  0  0  0  0  0
   30.4143    5.8830  -23.0467 C   0  0  0  0  0  0  0  0  0  0  0  0
   31.0637    5.4349  -21.9050 C   0  0  0  0  0  0  0  0  0  0  0  0
   33.2222    6.2213  -20.6627 C   0  0  0  0  0  0  0  0  0  0  0  0
   29.2614    5.3048  -23.5733 C   0  0  0  0  0  0  0  0  0  0  0  0
   30.5295    4.3206  -21.2303 C   0  0  0  0  0  0  0  0  0  0  0  0
   28.7458    4.2019  -22.8857 C   0  0  0  0  0  0  0  0  0  0  0  0
   29.3680    3.7163  -21.7334 C   0  0  0  0  0  0  0  0  0  0  0  0
   38.9222   10.4595  -28.6794 O   0  0  0  0  0  0  0  0  0  0  0  0
   38.2224   10.5899  -27.6819 C   0  0  0  0  0  0  0  0  0  0  0  0
   38.4549   11.5151  -26.6899 N   0  0  0  0  0  0  0  0  0  0  0  0
   37.8847   11.4953  -25.8876 H   0  0  0  0  0  0  0  0  0  0  0  0
   39.5002   12.5185  -26.7697 C   0  0  2  0  0  0  0  0  0  0  0  0
   39.0726   13.6801  -27.6550 C   0  0  0  0  0  0  0  0  0  0  0  0
   40.8066   11.8567  -27.2372 C   0  0  0  0  0  0  0  0  0  0  0  0
   39.9596   14.2672  -28.5795 C   0  0  0  0  0  0  0  0  0  0  0  0
   37.7872   14.2343  -27.5061 C   0  0  0  0  0  0  0  0  0  0  0  0
   41.8488   12.9034  -27.6022 C   0  0  0  0  0  0  0  0  0  0  0  0
   39.5265   15.3444  -29.3697 C   0  0  0  0  0  0  0  0  0  0  0  0
   41.3587   13.7396  -28.7795 C   0  0  0  0  0  0  0  0  0  0  0  0
   37.3732   15.3124  -28.2882 C   0  0  0  0  0  0  0  0  0  0  0  0
   38.2411   15.8633  -29.2245 C   0  0  0  0  0  0  0  0  0  0  0  0
 23 24  2  0
 24 25  1  0
 24  1  1  0
 27 25  1  6
  1  2  2  0
  1  3  1  0
 27 28  1  0
 27 29  1  0
  2  4  1  0
  3  5  2  0
 28 30  2  0
 28 31  1  0
 29 32  1  0
  4  6  2  0
  4  7  1  0
 30 33  1  0
 30 34  1  0
 31 35  2  0
  6  8  1  0
  7  9  1  0
 33 36  2  0
  8 10  1  0
  9 11  1  0
 11 12  2  0
 11 13  1  0
 13 14  1  0
 13 15  2  0
 14 16  1  0
 15 17  1  0
 15 18  1  0
 16 19  2  0
 17 20  2  0
 19 21  1  0
 20 22  1  0
  5  6  1  0
 32 34  1  0
 35 36  1  0
  9 10  1  0
 16 17  1  0
 21 22  2  0
 25 26  1  0
M  END
>  <Molecule Name>  (66) 
CTX-1020699

>  <SMILES>  (66) 
CC1=C(OC2=C1C=CC=C2)C(=O)N1CCC2=CC=C(N=C2C1)C(=O)NC1CCCC2=C1C=CC=C2

>  <Batch Name>  (66) 
CTX-1020699-1

>  <Batch Created Date>  (66) 
2021-12-09

>  <Batch ID>  (66) 
CTX-1020699-1

>  <External ID>  (66) 
CD-42-G

>  <Stereochemistry>  (66) 
Racemic or presumed racemic

>  <Amount 1>  (66) 
2.3

>  <Unit 1>  (66) 
mg

>  <CRO 1>  (66) 
Pharmaron

>  <CRO 1 Total Amount>  (66) 
15.7

>  <CRO 1 Unit>  (66) 
mg

>  <pIC50>  (66) 
4.721246

>  <SMILES_std>  (66) 
Cc1c(C(=O)N2CCc3ccc(C(=O)N[C@H]4CCCc5ccccc54)nc3C2)oc2ccccc12

>  <embed_status>  (66) 
0

>  <mmff_status>  (66) 
0

>  <minimizedAffinity>  (66) 
-10.45648

>  <CNNscore>  (66) 
0.4747544527

>  <CNNaffinity>  (66) 
7.2998824120

>  <CNN_VS>  (66) 
3.4656517506

>  <CNNaffinity_variance>  (66) 
0.0661577359

>  <Docking_Rank>  (66) 
34

>  <Vina_Affinity_kcal_mol>  (66) 
-10.460

>  <CNN_pKi>  (66) 
7.300

>  <CNN_Pose_Score>  (66) 
0.4748

>  <Num_Docked_Poses>  (66) 
5

>  <MMGBSA_Rank>  (66) 
66

>  <MMGBSA_dG_kcal_mol>  (66) 
-43.604

>  <MMGBSA_VdW_kcal_mol>  (66) 
-43.664

>  <MMGBSA_Elec_kcal_mol>  (66) 
-1.932

>  <MMGBSA_PolarSolv_kcal_mol>  (66) 
7.443

>  <MMGBSA_NonPolarSolv_kcal_mol>  (66) 
-5.452

>  <MMGBSA_Status>  (66) 
S

$$$$
CTX-1020734
     RDKit          3D

 39 45  0  0  0  0  0  0  0  0999 V2000
   33.2419    8.3302  -23.3375 C   0  0  0  0  0  0  0  0  0  0  0  0
   33.6360    9.0753  -22.4408 O   0  0  0  0  0  0  0  0  0  0  0  0
   33.7623    8.4219  -24.6345 N   0  0  0  0  0  0  0  0  0  0  0  0
   34.7600    9.4745  -24.8536 C   0  0  0  0  0  0  0  0  0  0  0  0
   33.0717    7.8993  -25.8310 C   0  0  0  0  0  0  0  0  0  0  0  0
   35.5419    9.2198  -26.1097 C   0  0  0  0  0  0  0  0  0  0  0  0
   34.0552    7.3037  -26.8492 C   0  0  0  0  0  0  0  0  0  0  0  0
   35.2050    8.2404  -27.0203 C   0  0  0  0  0  0  0  0  0  0  0  0
   36.6997    9.9404  -26.5465 C   0  0  0  0  0  0  0  0  0  0  0  0
   36.2418    8.1867  -28.3592 S   0  0  0  0  0  0  0  0  0  0  0  0
   37.1992    9.4802  -27.7556 C   0  0  0  0  0  0  0  0  0  0  0  0
   33.3461    6.2663  -20.8162 Cl  0  0  0  0  0  0  0  0  0  0  0  0
   32.1906    6.3899  -22.0814 C   0  0  0  0  0  0  0  0  0  0  0  0
   32.2338    7.3257  -23.0882 C   0  0  0  0  0  0  0  0  0  0  0  0
   31.0443    5.5236  -22.1736 C   0  0  0  0  0  0  0  0  0  0  0  0
   30.9365    7.1547  -24.1797 S   0  0  0  0  0  0  0  0  0  0  0  0
   30.2643    5.8421  -23.2906 C   0  0  0  0  0  0  0  0  0  0  0  0
   30.6086    4.4527  -21.3495 C   0  0  0  0  0  0  0  0  0  0  0  0
   29.0853    5.1341  -23.5977 C   0  0  0  0  0  0  0  0  0  0  0  0
   29.4389    3.7485  -21.6504 C   0  0  0  0  0  0  0  0  0  0  0  0
   28.6858    4.0879  -22.7642 C   0  0  0  0  0  0  0  0  0  0  0  0
   38.3485    9.9298  -28.5330 C   0  0  0  0  0  0  0  0  0  0  0  0
   39.0049   10.9387  -28.2822 O   0  0  0  0  0  0  0  0  0  0  0  0
   38.6606    9.1357  -29.6191 N   0  0  0  0  0  0  0  0  0  0  0  0
   38.1705    8.2945  -29.7662 H   0  0  0  0  0  0  0  0  0  0  0  0
   39.6992    9.5295  -30.5397 C   0  0  0  0  0  0  0  0  0  0  0  0
   40.9670    8.7695  -30.2605 C   0  0  0  0  0  0  0  0  0  0  0  0
   41.0080    7.7855  -29.2669 C   0  0  0  0  0  0  0  0  0  0  0  0
   42.1407    9.0653  -30.9629 C   0  0  0  0  0  0  0  0  0  0  0  0
   42.1985    7.1037  -28.9923 C   0  0  0  0  0  0  0  0  0  0  0  0
   43.3277    8.3799  -30.6834 C   0  0  0  0  0  0  0  0  0  0  0  0
   43.3774    7.3956  -29.6891 C   0  0  0  0  0  0  0  0  0  0  0  0
   44.5709    6.7002  -29.4169 N   0  0  0  0  0  0  0  0  0  0  0  0
   44.8609    5.3078  -29.6631 C   0  0  0  0  0  0  0  0  0  0  0  0
   45.3724    6.7518  -28.2175 C   0  0  0  0  0  0  0  0  0  0  0  0
   45.9857    5.4805  -28.6990 C   0  0  0  0  0  0  0  0  0  0  0  0
   46.3490    4.3987  -27.7472 C   0  0  0  0  0  0  0  0  0  0  0  0
   47.3944    5.4709  -29.1881 C   0  0  0  0  0  0  0  0  0  0  0  0
   47.7207    4.4061  -28.2433 O   0  0  0  0  0  0  0  0  0  0  0  0
 12 13  1  0
 13 14  2  0
 13 15  1  0
 14 16  1  0
 14  1  1  0
 15 17  2  0
 15 18  1  0
  1  2  2  0
  1  3  1  0
 17 19  1  0
 18 20  2  0
  3  4  1  0
  3  5  1  0
 19 21  2  0
  4  6  1  0
  5  7  1  0
  6  8  2  0
  6  9  1  0
  8 10  1  0
  9 11  2  0
 11 22  1  0
 22 23  2  0
 22 24  1  0
 24 26  1  0
 26 27  1  0
 27 28  2  0
 27 29  1  0
 28 30  1  0
 29 31  2  0
 30 32  2  0
 32 33  1  0
 33 34  1  0
 33 35  1  0
 34 36  1  0
 36 37  1  0
 36 38  1  0
 37 39  1  0
 16 17  1  0
 20 21  1  0
  7  8  1  0
 10 11  1  0
 31 32  1  0
 35 36  1  0
 38 39  1  0
 24 25  1  0
M  END
>  <Molecule Name>  (67) 
CTX-1020734

>  <SMILES>  (67) 
ClC1=C(SC2=CC=CC=C12)C(=O)N1CCC2=C(C1)C=C(S2)C(=O)NCC1=CC=C(C=C1)N1CC2(COC2)C1

>  <Batch Name>  (67) 
CTX-1020734-1

>  <Batch Created Date>  (67) 
2021-12-16

>  <Batch ID>  (67) 
CTX-1020734-1

>  <External ID>  (67) 
CD-44-2-O

>  <Stereochemistry>  (67) 
Achiral

>  <Amount 1>  (67) 
6.5

>  <Unit 1>  (67) 
mg

>  <CRO 1>  (67) 
Pharmaron

>  <CRO 1 Total Amount>  (67) 
22.1

>  <CRO 1 Unit>  (67) 
mg

>  <pIC50>  (67) 
6.103474

>  <SMILES_std>  (67) 
O=C(NCc1ccc(N2CC3(COC3)C2)cc1)c1cc2c(s1)CCN(C(=O)c1sc3ccccc3c1Cl)C2

>  <embed_status>  (67) 
0

>  <mmff_status>  (67) 
0

>  <minimizedAffinity>  (67) 
-7.50577

>  <CNNscore>  (67) 
0.4538582265

>  <CNNaffinity>  (67) 
7.4082741737

>  <CNN_VS>  (67) 
3.3623061180

>  <CNNaffinity_variance>  (67) 
0.0054657445

>  <Docking_Rank>  (67) 
29

>  <Vina_Affinity_kcal_mol>  (67) 
-7.510

>  <CNN_pKi>  (67) 
7.408

>  <CNN_Pose_Score>  (67) 
0.4539

>  <Num_Docked_Poses>  (67) 
5

>  <MMGBSA_Rank>  (67) 
67

>  <MMGBSA_dG_kcal_mol>  (67) 
-43.496

>  <MMGBSA_VdW_kcal_mol>  (67) 
-43.236

>  <MMGBSA_Elec_kcal_mol>  (67) 
-1.337

>  <MMGBSA_PolarSolv_kcal_mol>  (67) 
6.097

>  <MMGBSA_NonPolarSolv_kcal_mol>  (67) 
-5.020

>  <MMGBSA_Status>  (67) 
S

$$$$
CTX-1019904
     RDKit          3D

 42 47  0  0  0  0  0  0  0  0999 V2000
   36.5348    9.5977  -27.0407 C   0  0  0  0  0  0  0  0  0  0  0  0
   36.0076    9.5879  -25.7840 N   0  0  0  0  0  0  0  0  0  0  0  0
   35.9867    8.9138  -28.1151 C   0  0  0  0  0  0  0  0  0  0  0  0
   34.8806    8.8576  -25.5889 C   0  0  0  0  0  0  0  0  0  0  0  0
   34.8273    8.1783  -27.8992 C   0  0  0  0  0  0  0  0  0  0  0  0
   34.2508    8.1540  -26.6251 C   0  0  0  0  0  0  0  0  0  0  0  0
   34.3011    8.8653  -24.1870 C   0  0  0  0  0  0  0  0  0  0  0  0
   33.0144    7.3354  -26.3618 C   0  0  0  0  0  0  0  0  0  0  0  0
   33.2006    7.9250  -23.9847 N   0  0  0  0  0  0  0  0  0  0  0  0
   32.2768    7.8094  -25.1117 C   0  0  0  0  0  0  0  0  0  0  0  0
   32.8213    7.6862  -22.6576 C   0  0  0  0  0  0  0  0  0  0  0  0
   33.3368    8.3273  -21.7399 O   0  0  0  0  0  0  0  0  0  0  0  0
   31.8278    6.6568  -22.3916 C   0  0  0  0  0  0  0  0  0  0  0  0
   31.7353    6.1121  -21.1405 O   0  0  0  0  0  0  0  0  0  0  0  0
   30.8278    6.1361  -23.2029 C   0  0  0  0  0  0  0  0  0  0  0  0
   30.7016    5.2236  -21.1379 C   0  0  0  0  0  0  0  0  0  0  0  0
   30.1123    5.1944  -22.3999 C   0  0  0  0  0  0  0  0  0  0  0  0
   30.5640    6.4979  -24.6196 C   0  0  0  0  0  0  0  0  0  0  0  0
   30.2643    4.4386  -20.0602 C   0  0  0  0  0  0  0  0  0  0  0  0
   29.0217    4.3291  -22.6149 C   0  0  0  0  0  0  0  0  0  0  0  0
   29.1904    3.5738  -20.3123 C   0  0  0  0  0  0  0  0  0  0  0  0
   28.5754    3.5203  -21.5635 C   0  0  0  0  0  0  0  0  0  0  0  0
   30.7722    4.3840  -18.7731 O   0  0  0  0  0  0  0  0  0  0  0  0
   30.4643    5.4938  -17.9404 C   0  0  0  0  0  0  0  0  0  0  0  0
   38.8885    9.8668  -27.3008 O   0  0  0  0  0  0  0  0  0  0  0  0
   37.7872   10.4006  -27.2285 C   0  0  0  0  0  0  0  0  0  0  0  0
   37.5850   11.7603  -27.2932 N   0  0  0  0  0  0  0  0  0  0  0  0
   36.6629   12.0987  -27.3596 H   0  0  0  0  0  0  0  0  0  0  0  0
   38.6730   12.7110  -27.2674 C   0  0  0  0  0  0  0  0  0  0  0  0
   38.3767   13.9230  -28.1186 C   0  0  0  0  0  0  0  0  0  0  0  0
   37.5491   14.8613  -27.6054 N   0  0  0  0  0  0  0  0  0  0  0  0
   38.9790   14.0763  -29.3608 C   0  0  0  0  0  0  0  0  0  0  0  0
   37.3153   15.9620  -28.3698 C   0  0  0  0  0  0  0  0  0  0  0  0
   38.7084   15.2243  -30.1118 C   0  0  0  0  0  0  0  0  0  0  0  0
   37.8516   16.2223  -29.6367 C   0  0  0  0  0  0  0  0  0  0  0  0
   37.5685   17.3659  -30.3616 N   0  0  0  0  0  0  0  0  0  0  0  0
   38.6251   18.3206  -30.7375 C   0  0  0  0  0  0  0  0  0  0  0  0
   36.1962   17.7150  -30.7658 C   0  0  0  0  0  0  0  0  0  0  0  0
   38.0530   19.7469  -30.9213 C   0  0  0  0  0  0  0  0  0  0  0  0
   36.2103   18.5960  -32.0369 C   0  0  0  0  0  0  0  0  0  0  0  0
   36.9369   19.8744  -31.8813 N   0  0  0  0  0  0  0  0  0  0  0  0
   37.3886   20.3689  -33.1788 C   0  0  0  0  0  0  0  0  0  0  0  0
 25 26  2  0
 26 27  1  0
 26  1  1  0
 27 29  1  0
  1  2  2  0
  1  3  1  0
 29 30  1  0
  2  4  1  0
  3  5  2  0
 30 31  2  0
 30 32  1  0
  4  6  2  0
  4  7  1  0
 31 33  1  0
 32 34  2  0
  6  8  1  0
  7  9  1  0
 33 35  2  0
  8 10  1  0
  9 11  1  0
 35 36  1  0
 11 12  2  0
 11 13  1  0
 36 37  1  0
 36 38  1  0
 13 14  1  0
 13 15  2  0
 37 39  1  0
 38 40  1  0
 14 16  1  0
 15 17  1  0
 15 18  1  0
 39 41  1  0
 16 19  2  0
 17 20  2  0
 41 42  1  0
 19 23  1  0
 19 21  1  0
 20 22  1  0
 23 24  1  0
  5  6  1  0
 34 35  1  0
  9 10  1  0
 40 41  1  0
 16 17  1  0
 21 22  2  0
 27 28  1  0
M  END
>  <Molecule Name>  (68) 
CTX-1019904

>  <SMILES>  (68) 
COC1=CC=CC2=C1OC(C(=O)N1CCC3=C(C1)N=C(C=C3)C(=O)NCC1=CC=C(C=N1)N1CCN(C)CC1)=C2C

>  <Batch Name>  (68) 
CTX-1019904-1

>  <Batch Created Date>  (68) 
2021-10-07

>  <Batch ID>  (68) 
CTX-1019904-1

>  <External ID>  (68) 
610EDL010-B

>  <Stereochemistry>  (68) 
Achiral

>  <Amount 1>  (68) 
3.4

>  <Unit 1>  (68) 
mg

>  <CRO 1>  (68) 
Pharmaron

>  <CRO 1 Total Amount>  (68) 
16.4

>  <CRO 1 Unit>  (68) 
mg

>  <pIC50>  (68) 
5.073143

>  <SMILES_std>  (68) 
COc1cccc2c(C)c(C(=O)N3CCc4ccc(C(=O)NCc5ccc(N6CCN(C)CC6)cn5)nc4C3)oc12

>  <embed_status>  (68) 
0

>  <mmff_status>  (68) 
0

>  <minimizedAffinity>  (68) 
-8.14186

>  <CNNscore>  (68) 
0.3485516012

>  <CNNaffinity>  (68) 
6.9056339264

>  <CNN_VS>  (68) 
2.4069697857

>  <CNNaffinity_variance>  (68) 
0.3639642298

>  <Docking_Rank>  (68) 
59

>  <Vina_Affinity_kcal_mol>  (68) 
-8.140

>  <CNN_pKi>  (68) 
6.906

>  <CNN_Pose_Score>  (68) 
0.3486

>  <Num_Docked_Poses>  (68) 
5

>  <MMGBSA_Rank>  (68) 
68

>  <MMGBSA_dG_kcal_mol>  (68) 
-43.140

>  <MMGBSA_VdW_kcal_mol>  (68) 
-44.086

>  <MMGBSA_Elec_kcal_mol>  (68) 
-0.045

>  <MMGBSA_PolarSolv_kcal_mol>  (68) 
6.915

>  <MMGBSA_NonPolarSolv_kcal_mol>  (68) 
-5.924

>  <MMGBSA_Status>  (68) 
S

$$$$
CTX-1020767
     RDKit          3D

 33 37  0  0  0  0  0  0  0  0999 V2000
   38.2019   -2.8593  -33.3965 C   0  0  0  0  0  0  0  0  0  0  0  0
   38.0863   -2.8510  -34.7542 N   0  0  0  0  0  0  0  0  0  0  0  0
   37.2953   -2.2533  -32.5391 C   0  0  0  0  0  0  0  0  0  0  0  0
   37.0222   -2.1954  -35.2810 C   0  0  0  0  0  0  0  0  0  0  0  0
   36.2000   -1.6027  -33.0959 C   0  0  0  0  0  0  0  0  0  0  0  0
   36.0431   -1.5788  -34.4852 C   0  0  0  0  0  0  0  0  0  0  0  0
   36.8838   -2.2151  -36.7941 C   0  0  0  0  0  0  0  0  0  0  0  0
   34.8786   -0.8466  -35.1069 C   0  0  0  0  0  0  0  0  0  0  0  0
   35.9243   -1.2285  -37.2891 N   0  0  0  0  0  0  0  0  0  0  0  0
   34.6515   -1.2496  -36.5687 C   0  0  0  0  0  0  0  0  0  0  0  0
   36.4283   -0.0909  -37.9357 C   0  0  0  0  0  0  0  0  0  0  0  0
   37.6432    0.0925  -38.0255 O   0  0  0  0  0  0  0  0  0  0  0  0
   35.4896    0.8668  -38.5025 C   0  0  0  0  0  0  0  0  0  0  0  0
   35.2958    2.0748  -37.8881 O   0  0  0  0  0  0  0  0  0  0  0  0
   34.6241    0.7482  -39.5860 C   0  0  0  0  0  0  0  0  0  0  0  0
   34.3414    2.7428  -38.5852 C   0  0  0  0  0  0  0  0  0  0  0  0
   33.8902    1.9722  -39.6476 C   0  0  0  0  0  0  0  0  0  0  0  0
   34.4934   -0.4266  -40.4855 C   0  0  0  0  0  0  0  0  0  0  0  0
   33.8706    4.0189  -38.2842 C   0  0  0  0  0  0  0  0  0  0  0  0
   32.8877    2.5073  -40.4788 C   0  0  0  0  0  0  0  0  0  0  0  0
   32.8782    4.5328  -39.1245 C   0  0  0  0  0  0  0  0  0  0  0  0
   32.3934    3.7909  -40.2041 C   0  0  0  0  0  0  0  0  0  0  0  0
   40.2057   -4.1348  -33.5637 O   0  0  0  0  0  0  0  0  0  0  0  0
   39.3943   -3.5746  -32.8348 C   0  0  0  0  0  0  0  0  0  0  0  0
   39.4770   -3.5452  -31.4619 N   0  0  0  0  0  0  0  0  0  0  0  0
   38.8716   -2.9487  -30.9650 H   0  0  0  0  0  0  0  0  0  0  0  0
   40.4145   -4.3526  -30.7212 C   0  0  0  0  0  0  0  0  0  0  0  0
   39.7320   -5.6134  -30.3151 C   0  0  0  0  0  0  0  0  0  0  0  0
   39.4886   -5.8953  -28.9860 N   0  0  0  0  0  0  0  0  0  0  0  0
   39.2338   -6.6250  -31.1108 C   0  0  0  0  0  0  0  0  0  0  0  0
   38.8580   -7.0468  -28.9808 C   0  0  0  0  0  0  0  0  0  0  0  0
   38.6813   -7.5270  -30.2466 N   0  0  0  0  0  0  0  0  0  0  0  0
   38.2365   -8.3704  -30.4920 H   0  0  0  0  0  0  0  0  0  0  0  0
 23 24  2  0
 24 25  1  0
 24  1  1  0
 25 27  1  0
  1  2  2  0
  1  3  1  0
 27 28  1  0
  2  4  1  0
  3  5  2  0
 28 29  1  0
 28 30  2  0
  4  6  2  0
  4  7  1  0
 29 31  2  0
 30 32  1  0
  6  8  1  0
  7  9  1  0
  8 10  1  0
  9 11  1  0
 11 12  2  0
 11 13  1  0
 13 14  1  0
 13 15  2  0
 14 16  1  0
 15 17  1  0
 15 18  1  0
 16 19  2  0
 17 20  2  0
 19 21  1  0
 20 22  1  0
  5  6  1  0
 31 32  1  0
  9 10  1  0
 16 17  1  0
 21 22  2  0
 25 26  1  0
 32 33  1  0
M  END
>  <Molecule Name>  (69) 
CTX-1020767

>  <SMILES>  (69) 
CC1=C(OC2=C1C=CC=C2)C(=O)N1CCC2=C(C1)N=C(C=C2)C(=O)NCC1=CNC=N1

>  <Batch Name>  (69) 
CTX-1020767-1

>  <Batch Created Date>  (69) 
2021-12-16

>  <Batch ID>  (69) 
CTX-1020767-1

>  <External ID>  (69) 
P841-0365

>  <Stereochemistry>  (69) 
Achiral

>  <Amount 1>  (69) 
3.95

>  <Unit 1>  (69) 
mg

>  <CRO 1>  (69) 
Pharmaron

>  <CRO 1 Total Amount>  (69) 
24.15

>  <CRO 1 Unit>  (69) 
mg

>  <pIC50>  (69) 
4.05061

>  <SMILES_std>  (69) 
Cc1c(C(=O)N2CCc3ccc(C(=O)NCc4c[nH]cn4)nc3C2)oc2ccccc12

>  <embed_status>  (69) 
0

>  <mmff_status>  (69) 
0

>  <minimizedAffinity>  (69) 
-8.41694

>  <CNNscore>  (69) 
0.4950445592

>  <CNNaffinity>  (69) 
5.3611836433

>  <CNN_VS>  (69) 
2.6540248394

>  <CNNaffinity_variance>  (69) 
0.6126664877

>  <Docking_Rank>  (69) 
78

>  <Vina_Affinity_kcal_mol>  (69) 
-8.420

>  <CNN_pKi>  (69) 
5.361

>  <CNN_Pose_Score>  (69) 
0.4950

>  <Num_Docked_Poses>  (69) 
5

>  <MMGBSA_Rank>  (69) 
69

>  <MMGBSA_dG_kcal_mol>  (69) 
-41.886

>  <MMGBSA_VdW_kcal_mol>  (69) 
-42.026

>  <MMGBSA_Elec_kcal_mol>  (69) 
-8.313

>  <MMGBSA_PolarSolv_kcal_mol>  (69) 
13.731

>  <MMGBSA_NonPolarSolv_kcal_mol>  (69) 
-5.278

>  <MMGBSA_Status>  (69) 
S

$$$$
CTX-1020667
     RDKit          3D

 39 44  0  0  0  0  0  0  0  0999 V2000
   35.7320    8.0538  -28.0550 S   0  0  0  0  0  0  0  0  0  0  0  0
   36.7654    9.2393  -27.3367 C   0  0  0  0  0  0  0  0  0  0  0  0
   34.7138    8.1445  -26.7017 C   0  0  0  0  0  0  0  0  0  0  0  0
   36.3730    9.6783  -26.1522 N   0  0  0  0  0  0  0  0  0  0  0  0
   35.2045    9.0445  -25.7773 C   0  0  0  0  0  0  0  0  0  0  0  0
   33.4649    7.3527  -26.5148 C   0  0  0  0  0  0  0  0  0  0  0  0
   34.5250    9.3477  -24.4747 C   0  0  0  0  0  0  0  0  0  0  0  0
   32.6173    8.0314  -25.4242 C   0  0  0  0  0  0  0  0  0  0  0  0
   33.4338    8.3857  -24.2453 N   0  0  0  0  0  0  0  0  0  0  0  0
   32.9834    8.2526  -22.9279 C   0  0  0  0  0  0  0  0  0  0  0  0
   33.3814    9.0268  -22.0552 O   0  0  0  0  0  0  0  0  0  0  0  0
   32.0626    7.1703  -22.6129 C   0  0  0  0  0  0  0  0  0  0  0  0
   31.0159    6.9039  -23.4563 O   0  0  0  0  0  0  0  0  0  0  0  0
   32.0866    6.2319  -21.5856 C   0  0  0  0  0  0  0  0  0  0  0  0
   30.3542    5.8262  -22.9626 C   0  0  0  0  0  0  0  0  0  0  0  0
   30.9694    5.3690  -21.8057 C   0  0  0  0  0  0  0  0  0  0  0  0
   33.0862    6.1495  -20.4898 C   0  0  0  0  0  0  0  0  0  0  0  0
   29.2202    5.2496  -23.5303 C   0  0  0  0  0  0  0  0  0  0  0  0
   30.4183    4.2465  -21.1586 C   0  0  0  0  0  0  0  0  0  0  0  0
   28.6873    4.1384  -22.8697 C   0  0  0  0  0  0  0  0  0  0  0  0
   29.2751    3.6435  -21.7033 C   0  0  0  0  0  0  0  0  0  0  0  0
   37.9801    9.7243  -28.0053 C   0  0  0  0  0  0  0  0  0  0  0  0
   38.8464   10.3939  -27.4414 O   0  0  0  0  0  0  0  0  0  0  0  0
   38.1096    9.3901  -29.3457 N   0  0  0  0  0  0  0  0  0  0  0  0
   37.4723    8.7524  -29.7412 H   0  0  0  0  0  0  0  0  0  0  0  0
   39.1484    9.9470  -30.1790 C   0  0  0  0  0  0  0  0  0  0  0  0
   38.5853   11.0184  -31.0742 C   0  0  0  0  0  0  0  0  0  0  0  0
   38.0533   10.6885  -32.3248 C   0  0  0  0  0  0  0  0  0  0  0  0
   38.6186   12.3631  -30.6976 C   0  0  0  0  0  0  0  0  0  0  0  0
   37.5516   11.6827  -33.1747 C   0  0  0  0  0  0  0  0  0  0  0  0
   38.1157   13.3495  -31.5539 C   0  0  0  0  0  0  0  0  0  0  0  0
   37.5698   13.0343  -32.8093 C   0  0  0  0  0  0  0  0  0  0  0  0
   37.0850   14.0670  -33.6229 N   0  0  0  0  0  0  0  0  0  0  0  0
   38.0227   15.0599  -34.1875 C   0  0  0  0  0  0  0  0  0  0  0  0
   35.8080   14.6411  -33.1264 C   0  0  0  0  0  0  0  0  0  0  0  0
   37.9043   16.4239  -33.4723 C   0  0  0  0  0  0  0  0  0  0  0  0
   35.5132   16.0105  -33.7806 C   0  0  0  0  0  0  0  0  0  0  0  0
   36.5524   17.0300  -33.5083 N   0  0  0  0  0  0  0  0  0  0  0  0
   36.4695   18.1164  -34.4803 C   0  0  0  0  0  0  0  0  0  0  0  0
  1  2  1  0
  1  3  1  0
  2  4  2  0
  2 22  1  0
  3  5  2  0
  3  6  1  0
 22 23  2  0
 22 24  1  0
  5  7  1  0
  6  8  1  0
 24 26  1  0
  7  9  1  0
 26 27  1  0
  9 10  1  0
 27 28  2  0
 27 29  1  0
 10 11  2  0
 10 12  1  0
 28 30  1  0
 29 31  2  0
 12 13  1  0
 12 14  2  0
 30 32  2  0
 13 15  1  0
 14 16  1  0
 14 17  1  0
 32 33  1  0
 15 18  2  0
 16 19  2  0
 33 34  1  0
 33 35  1  0
 18 20  1  0
 19 21  1  0
 34 36  1  0
 35 37  1  0
 36 38  1  0
 38 39  1  0
  4  5  1  0
  8  9  1  0
 31 32  1  0
 15 16  1  0
 20 21  2  0
 37 38  1  0
 24 25  1  0
M  END
>  <Molecule Name>  (70) 
CTX-1020667

>  <SMILES>  (70) 
CN1CCN(CC1)C1=CC=C(CNC(=O)C2=NC3=C(CCN(C3)C(=O)C3=C(C)C4=C(O3)C=CC=C4)S2)C=C1

>  <Batch Name>  (70) 
CTX-1020667-1

>  <Batch Created Date>  (70) 
2021-12-03

>  <Batch ID>  (70) 
CTX-1020667-1

>  <External ID>  (70) 
610EDL180-C

>  <Stereochemistry>  (70) 
Achiral

>  <Amount 1>  (70) 
4.6

>  <Unit 1>  (70) 
mg

>  <CRO 1>  (70) 
Pharmaron

>  <CRO 1 Total Amount>  (70) 
7.8

>  <CRO 1 Unit>  (70) 
mg

>  <pIC50>  (70) 
6.416801

>  <SMILES_std>  (70) 
Cc1c(C(=O)N2CCc3sc(C(=O)NCc4ccc(N5CCN(C)CC5)cc4)nc3C2)oc2ccccc12

>  <embed_status>  (70) 
0

>  <mmff_status>  (70) 
0

>  <minimizedAffinity>  (70) 
-8.21476

>  <CNNscore>  (70) 
0.4096589386

>  <CNNaffinity>  (70) 
7.2709808350

>  <CNN_VS>  (70) 
2.9786221981

>  <CNNaffinity_variance>  (70) 
0.1124837175

>  <Docking_Rank>  (70) 
36

>  <Vina_Affinity_kcal_mol>  (70) 
-8.210

>  <CNN_pKi>  (70) 
7.271

>  <CNN_Pose_Score>  (70) 
0.4097

>  <Num_Docked_Poses>  (70) 
9

>  <MMGBSA_Rank>  (70) 
70

>  <MMGBSA_dG_kcal_mol>  (70) 
-41.491

>  <MMGBSA_VdW_kcal_mol>  (70) 
-42.401

>  <MMGBSA_Elec_kcal_mol>  (70) 
-0.609

>  <MMGBSA_PolarSolv_kcal_mol>  (70) 
6.612

>  <MMGBSA_NonPolarSolv_kcal_mol>  (70) 
-5.093

>  <MMGBSA_Status>  (70) 
S

$$$$
CTX-1019471
     RDKit          3D

 33 37  0  0  0  0  0  0  0  0999 V2000
   37.5960    9.2362  -27.3259 C   0  0  0  0  0  0  0  0  0  0  0  0
   36.9042    9.4521  -26.1700 N   0  0  0  0  0  0  0  0  0  0  0  0
   37.0561    8.6325  -28.4532 C   0  0  0  0  0  0  0  0  0  0  0  0
   35.6169    9.0294  -26.1401 C   0  0  0  0  0  0  0  0  0  0  0  0
   35.7312    8.2139  -28.4017 C   0  0  0  0  0  0  0  0  0  0  0  0
   35.0009    8.4037  -27.2278 C   0  0  0  0  0  0  0  0  0  0  0  0
   34.8030    9.3171  -24.8961 C   0  0  0  0  0  0  0  0  0  0  0  0
   33.5643    7.9917  -27.0988 C   0  0  0  0  0  0  0  0  0  0  0  0
   33.7236    8.3644  -24.6207 N   0  0  0  0  0  0  0  0  0  0  0  0
   33.2911    7.4581  -25.6898 C   0  0  0  0  0  0  0  0  0  0  0  0
   33.1603    8.4119  -23.3382 C   0  0  0  0  0  0  0  0  0  0  0  0
   33.4394    9.3511  -22.5883 O   0  0  0  0  0  0  0  0  0  0  0  0
   32.2490    7.3575  -22.9092 C   0  0  0  0  0  0  0  0  0  0  0  0
   31.1820    7.0062  -23.6924 O   0  0  0  0  0  0  0  0  0  0  0  0
   32.2997    6.5251  -21.7936 C   0  0  0  0  0  0  0  0  0  0  0  0
   30.5375    5.9806  -23.0803 C   0  0  0  0  0  0  0  0  0  0  0  0
   31.1828    5.6407  -21.9002 C   0  0  0  0  0  0  0  0  0  0  0  0
   33.3215    6.5556  -20.7152 C   0  0  0  0  0  0  0  0  0  0  0  0
   29.3928    5.3488  -23.5608 C   0  0  0  0  0  0  0  0  0  0  0  0
   30.6527    4.5863  -21.1324 C   0  0  0  0  0  0  0  0  0  0  0  0
   28.8813    4.3065  -22.7817 C   0  0  0  0  0  0  0  0  0  0  0  0
   29.4994    3.9299  -21.5871 C   0  0  0  0  0  0  0  0  0  0  0  0
   39.9577    8.9272  -27.2362 O   0  0  0  0  0  0  0  0  0  0  0  0
   39.0192    9.7085  -27.3406 C   0  0  0  0  0  0  0  0  0  0  0  0
   39.1573   11.0707  -27.4926 N   0  0  0  0  0  0  0  0  0  0  0  0
   38.3487   11.6316  -27.4653 H   0  0  0  0  0  0  0  0  0  0  0  0
   40.4320   11.7101  -27.6895 C   0  0  0  0  0  0  0  0  0  0  0  0
   40.3856   13.1487  -27.2527 C   0  0  0  0  0  0  0  0  0  0  0  0
   39.1752   13.8434  -27.1819 C   0  0  0  0  0  0  0  0  0  0  0  0
   41.5647   13.8350  -26.9467 C   0  0  0  0  0  0  0  0  0  0  0  0
   39.1957   15.1746  -26.7944 C   0  0  0  0  0  0  0  0  0  0  0  0
   41.4818   15.1659  -26.5707 C   0  0  0  0  0  0  0  0  0  0  0  0
   40.3216   15.8513  -26.4836 N   0  0  0  0  0  0  0  0  0  0  0  0
 23 24  2  0
 24 25  1  0
 24  1  1  0
 25 27  1  0
  1  2  2  0
  1  3  1  0
 27 28  1  0
  2  4  1  0
  3  5  2  0
 28 29  2  0
 28 30  1  0
  4  6  2  0
  4  7  1  0
 29 31  1  0
 30 32  2  0
  6  8  1  0
  7  9  1  0
 31 33  2  0
  8 10  1  0
  9 11  1  0
 11 12  2  0
 11 13  1  0
 13 14  1  0
 13 15  2  0
 14 16  1  0
 15 17  1  0
 15 18  1  0
 16 19  2  0
 17 20  2  0
 19 21  1  0
 20 22  1  0
  5  6  1  0
 32 33  1  0
  9 10  1  0
 16 17  1  0
 21 22  2  0
 25 26  1  0
M  END
>  <Molecule Name>  (71) 
CTX-1019471

>  <SMILES>  (71) 
CC1=C(OC2=C1C=CC=C2)C(=O)N1CCC2=C(C1)N=C(C=C2)C(=O)NCC1=CC=NC=C1

>  <Batch Name>  (71) 
CTX-1019471-1

>  <Batch Created Date>  (71) 
2021-07-30

>  <Batch ID>  (71) 
CTX-1019471-1

>  <External ID>  (71) 
P841-0084

>  <Stereochemistry>  (71) 
Achiral

>  <Amount 1>  (71) 
2.9

>  <Unit 1>  (71) 
mg

>  <CRO 1>  (71) 
Pharmaron

>  <CRO 1 Total Amount>  (71) 
11.9

>  <CRO 1 Unit>  (71) 
mg

>  <pIC50>  (71) 
5.488117

>  <SMILES_std>  (71) 
Cc1c(C(=O)N2CCc3ccc(C(=O)NCc4ccncc4)nc3C2)oc2ccccc12

>  <embed_status>  (71) 
0

>  <mmff_status>  (71) 
0

>  <minimizedAffinity>  (71) 
-9.56816

>  <CNNscore>  (71) 
0.3758383095

>  <CNNaffinity>  (71) 
6.9234008789

>  <CNN_VS>  (71) 
2.6020793915

>  <CNNaffinity_variance>  (71) 
0.0012197617

>  <Docking_Rank>  (71) 
58

>  <Vina_Affinity_kcal_mol>  (71) 
-9.570

>  <CNN_pKi>  (71) 
6.923

>  <CNN_Pose_Score>  (71) 
0.3758

>  <Num_Docked_Poses>  (71) 
5

>  <MMGBSA_Rank>  (71) 
71

>  <MMGBSA_dG_kcal_mol>  (71) 
-40.229

>  <MMGBSA_VdW_kcal_mol>  (71) 
-39.234

>  <MMGBSA_Elec_kcal_mol>  (71) 
-3.441

>  <MMGBSA_PolarSolv_kcal_mol>  (71) 
7.942

>  <MMGBSA_NonPolarSolv_kcal_mol>  (71) 
-5.496

>  <MMGBSA_Status>  (71) 
S

$$$$
CTX-1020816
     RDKit          3D

 41 46  0  0  0  0  0  0  0  0999 V2000
   37.7283    8.1985  -29.5559 S   0  0  0  0  0  0  0  0  0  0  0  0
   38.7644    9.4364  -28.9738 C   0  0  0  0  0  0  0  0  0  0  0  0
   36.7097    8.3308  -28.2077 C   0  0  0  0  0  0  0  0  0  0  0  0
   38.3108    9.9307  -27.7618 C   0  0  0  0  0  0  0  0  0  0  0  0
   37.1129    9.2931  -27.3101 C   0  0  0  0  0  0  0  0  0  0  0  0
   35.4884    7.5024  -28.0275 C   0  0  0  0  0  0  0  0  0  0  0  0
   36.3782    9.5946  -26.0407 C   0  0  0  0  0  0  0  0  0  0  0  0
   35.1209    7.4536  -26.5363 C   0  0  0  0  0  0  0  0  0  0  0  0
   35.1716    8.7711  -25.8711 N   0  0  0  0  0  0  0  0  0  0  0  0
   34.3556    9.1477  -24.7885 C   0  0  0  0  0  0  0  0  0  0  0  0
   34.4564   10.2823  -24.3140 O   0  0  0  0  0  0  0  0  0  0  0  0
   33.3972    8.2028  -24.2273 C   0  0  0  0  0  0  0  0  0  0  0  0
   33.5446    7.7524  -22.9442 O   0  0  0  0  0  0  0  0  0  0  0  0
   32.2112    7.7036  -24.7592 C   0  0  0  0  0  0  0  0  0  0  0  0
   32.4928    6.9397  -22.6593 C   0  0  0  0  0  0  0  0  0  0  0  0
   31.6314    6.8770  -23.7477 C   0  0  0  0  0  0  0  0  0  0  0  0
   31.6627    7.9900  -26.1108 C   0  0  0  0  0  0  0  0  0  0  0  0
   32.2738    6.2572  -21.4641 C   0  0  0  0  0  0  0  0  0  0  0  0
   30.4684    6.0893  -23.6339 C   0  0  0  0  0  0  0  0  0  0  0  0
   31.1173    5.4757  -21.3672 C   0  0  0  0  0  0  0  0  0  0  0  0
   30.2252    5.3950  -22.4386 C   0  0  0  0  0  0  0  0  0  0  0  0
   33.2268    6.3723  -20.4115 C   0  0  0  0  0  0  0  0  0  0  0  0
   34.0192    6.4608  -19.5677 N   0  0  0  0  0  0  0  0  0  0  0  0
   39.9517    9.8708  -29.6992 C   0  0  0  0  0  0  0  0  0  0  0  0
   39.9412   10.8120  -30.4902 O   0  0  0  0  0  0  0  0  0  0  0  0
   41.1049    9.1644  -29.4449 N   0  0  0  0  0  0  0  0  0  0  0  0
   41.0690    8.3882  -28.8404 H   0  0  0  0  0  0  0  0  0  0  0  0
   42.3631    9.5325  -30.0410 C   0  0  0  0  0  0  0  0  0  0  0  0
   43.1586   10.4027  -29.1085 C   0  0  0  0  0  0  0  0  0  0  0  0
   42.7643   10.5741  -27.7795 C   0  0  0  0  0  0  0  0  0  0  0  0
   44.3398   11.0147  -29.5388 C   0  0  0  0  0  0  0  0  0  0  0  0
   43.5302   11.3588  -26.9103 C   0  0  0  0  0  0  0  0  0  0  0  0
   45.1013   11.7970  -28.6604 C   0  0  0  0  0  0  0  0  0  0  0  0
   44.7143   11.9882  -27.3282 C   0  0  0  0  0  0  0  0  0  0  0  0
   45.4363   12.7636  -26.4116 N   0  0  0  0  0  0  0  0  0  0  0  0
   45.2426   12.3207  -25.0061 C   0  0  0  0  0  0  0  0  0  0  0  0
   45.5169   14.2284  -26.5851 C   0  0  0  0  0  0  0  0  0  0  0  0
   45.7019   13.4054  -24.0049 C   0  0  0  0  0  0  0  0  0  0  0  0
   44.6396   14.9721  -25.5542 C   0  0  0  0  0  0  0  0  0  0  0  0
   44.9635   14.6827  -24.1379 N   0  0  0  0  0  0  0  0  0  0  0  0
   45.7111   15.7721  -23.5165 C   0  0  0  0  0  0  0  0  0  0  0  0
  1  2  1  0
  1  3  1  0
  2 24  1  0
  2  4  2  0
  3  5  2  0
  3  6  1  0
 24 25  2  0
 24 26  1  0
  5  7  1  0
  6  8  1  0
 26 28  1  0
  7  9  1  0
 28 29  1  0
  9 10  1  0
 29 30  2  0
 29 31  1  0
 10 11  2  0
 10 12  1  0
 30 32  1  0
 31 33  2  0
 12 13  1  0
 12 14  2  0
 32 34  2  0
 13 15  1  0
 14 16  1  0
 14 17  1  0
 34 35  1  0
 15 18  2  0
 16 19  2  0
 35 36  1  0
 35 37  1  0
 18 22  1  0
 18 20  1  0
 19 21  1  0
 36 38  1  0
 37 39  1  0
 22 23  3  0
 38 40  1  0
 40 41  1  0
  4  5  1  0
  8  9  1  0
 33 34  1  0
 15 16  1  0
 20 21  2  0
 39 40  1  0
 26 27  1  0
M  END
>  <Molecule Name>  (72) 
CTX-1020816

>  <SMILES>  (72) 
CN1CCN(CC1)C1=CC=C(CNC(=O)C2=CC3=C(CCN(C3)C(=O)C3=C(C)C4=CC=CC(C#N)=C4O3)S2)C=C1

>  <Batch Name>  (72) 
CTX-1020816-1

>  <Batch Created Date>  (72) 
2021-12-30

>  <Batch ID>  (72) 
CTX-1020816-1

>  <External ID>  (72) 
CD-44-2-G-5

>  <Stereochemistry>  (72) 
Achiral

>  <Amount 1>  (72) 
2.0

>  <Unit 1>  (72) 
mg

>  <CRO 1>  (72) 
Pharmaron

>  <CRO 1 Total Amount>  (72) 
16.9

>  <CRO 1 Unit>  (72) 
mg

>  <pIC50>  (72) 
5.046724

>  <SMILES_std>  (72) 
Cc1c(C(=O)N2CCc3sc(C(=O)NCc4ccc(N5CCN(C)CC5)cc4)cc3C2)oc2c(C#N)cccc12

>  <embed_status>  (72) 
0

>  <mmff_status>  (72) 
0

>  <minimizedAffinity>  (72) 
-5.83699

>  <CNNscore>  (72) 
0.2975568473

>  <CNNaffinity>  (72) 
6.9635581970

>  <CNN_VS>  (72) 
2.0720543861

>  <CNNaffinity_variance>  (72) 
0.4008279145

>  <Docking_Rank>  (72) 
57

>  <Vina_Affinity_kcal_mol>  (72) 
-5.840

>  <CNN_pKi>  (72) 
6.964

>  <CNN_Pose_Score>  (72) 
0.2976

>  <Num_Docked_Poses>  (72) 
5

>  <MMGBSA_Rank>  (72) 
72

>  <MMGBSA_dG_kcal_mol>  (72) 
-39.279

>  <MMGBSA_VdW_kcal_mol>  (72) 
-39.107

>  <MMGBSA_Elec_kcal_mol>  (72) 
-1.738

>  <MMGBSA_PolarSolv_kcal_mol>  (72) 
6.349

>  <MMGBSA_NonPolarSolv_kcal_mol>  (72) 
-4.783

>  <MMGBSA_Status>  (72) 
S

$$$$
CTX-1020565
     RDKit          3D

 39 44  0  0  0  0  0  0  0  0999 V2000
   38.7887   -3.2641  -33.4004 C   0  0  0  0  0  0  0  0  0  0  0  0
   38.3190   -3.1395  -34.6752 N   0  0  0  0  0  0  0  0  0  0  0  0
   38.1254   -2.7856  -32.2790 C   0  0  0  0  0  0  0  0  0  0  0  0
   37.1385   -2.4927  -34.8328 C   0  0  0  0  0  0  0  0  0  0  0  0
   36.9118   -2.1330  -32.4638 C   0  0  0  0  0  0  0  0  0  0  0  0
   36.4129   -1.9724  -33.7573 C   0  0  0  0  0  0  0  0  0  0  0  0
   36.5638   -2.4014  -36.2306 C   0  0  0  0  0  0  0  0  0  0  0  0
   35.1067   -1.2890  -34.0335 C   0  0  0  0  0  0  0  0  0  0  0  0
   35.6744   -1.2622  -36.4755 N   0  0  0  0  0  0  0  0  0  0  0  0
   35.1946   -0.4815  -35.3309 C   0  0  0  0  0  0  0  0  0  0  0  0
   35.3543   -0.9988  -37.8142 C   0  0  0  0  0  0  0  0  0  0  0  0
   35.6338   -1.8331  -38.6794 O   0  0  0  0  0  0  0  0  0  0  0  0
   34.6907    0.2506  -38.1668 C   0  0  0  0  0  0  0  0  0  0  0  0
   35.2544    1.4512  -37.8260 O   0  0  0  0  0  0  0  0  0  0  0  0
   33.5315    0.4749  -38.9055 C   0  0  0  0  0  0  0  0  0  0  0  0
   34.4583    2.4365  -38.3132 C   0  0  0  0  0  0  0  0  0  0  0  0
   33.3757    1.8927  -38.9892 C   0  0  0  0  0  0  0  0  0  0  0  0
   32.6435   -0.5624  -39.4913 C   0  0  0  0  0  0  0  0  0  0  0  0
   34.6874    3.8025  -38.1653 C   0  0  0  0  0  0  0  0  0  0  0  0
   32.4432    2.7737  -39.5693 C   0  0  0  0  0  0  0  0  0  0  0  0
   33.7478    4.6597  -38.7462 C   0  0  0  0  0  0  0  0  0  0  0  0
   32.6435    4.1557  -39.4371 C   0  0  0  0  0  0  0  0  0  0  0  0
   40.6560   -4.5124  -34.1951 O   0  0  0  0  0  0  0  0  0  0  0  0
   40.1046   -3.9667  -33.2462 C   0  0  0  0  0  0  0  0  0  0  0  0
   40.6060   -3.9446  -31.9634 N   0  0  0  0  0  0  0  0  0  0  0  0
   40.1621   -3.3756  -31.2938 H   0  0  0  0  0  0  0  0  0  0  0  0
   41.7518   -4.7180  -31.5599 C   0  0  0  0  0  0  0  0  0  0  0  0
   43.0010   -3.8779  -31.5775 C   0  0  0  0  0  0  0  0  0  0  0  0
   44.2404   -4.4208  -31.2328 C   0  0  0  0  0  0  0  0  0  0  0  0
   42.9548   -2.5462  -31.9929 C   0  0  0  0  0  0  0  0  0  0  0  0
   45.4030   -3.6366  -31.2765 C   0  0  0  0  0  0  0  0  0  0  0  0
   44.1216   -1.7727  -32.0312 C   0  0  0  0  0  0  0  0  0  0  0  0
   45.3742   -2.2862  -31.6535 C   0  0  0  0  0  0  0  0  0  0  0  0
   46.5105   -1.4760  -31.7171 N   0  0  0  0  0  0  0  0  0  0  0  0
   46.4775   -0.3583  -32.6926 C   0  0  0  0  0  0  0  0  0  0  0  0
   47.2355   -1.0881  -30.4885 C   0  0  0  0  0  0  0  0  0  0  0  0
   45.9136    0.9100  -32.0285 C   0  0  0  0  0  0  0  0  0  0  0  0
   46.6686    0.2159  -29.9010 C   0  0  0  0  0  0  0  0  0  0  0  0
   46.6796    1.2805  -30.8681 O   0  0  0  0  0  0  0  0  0  0  0  0
 23 24  2  0
 24 25  1  0
 24  1  1  0
 25 27  1  0
  1  2  2  0
  1  3  1  0
 27 28  1  0
  2  4  1  0
  3  5  2  0
 28 29  2  0
 28 30  1  0
  4  6  2  0
  4  7  1  0
 29 31  1  0
 30 32  2  0
  6  8  1  0
  7  9  1  0
 31 33  2  0
  8 10  1  0
  9 11  1  0
 33 34  1  0
 11 12  2  0
 11 13  1  0
 34 35  1  0
 34 36  1  0
 13 14  1  0
 13 15  2  0
 35 37  1  0
 36 38  1  0
 14 16  1  0
 15 17  1  0
 15 18  1  0
 37 39  1  0
 16 19  2  0
 17 20  2  0
 19 21  1  0
 20 22  1  0
  5  6  1  0
 32 33  1  0
  9 10  1  0
 38 39  1  0
 16 17  1  0
 21 22  2  0
 25 26  1  0
M  END
>  <Molecule Name>  (73) 
CTX-1020565

>  <SMILES>  (73) 
CC1=C(OC2=C1C=CC=C2)C(=O)N1CCC2=C(C1)N=C(C=C2)C(=O)NCC1=CC=C(C=C1)N1CCOCC1

>  <Batch Name>  (73) 
CTX-1020565-1

>  <Batch Created Date>  (73) 
2021-11-18

>  <Batch ID>  (73) 
CTX-1020565-1

>  <External ID>  (73) 
P841-0233

>  <Stereochemistry>  (73) 
Achiral

>  <Amount 1>  (73) 
5.15

>  <Unit 1>  (73) 
mg

>  <CRO 1>  (73) 
Pharmaron

>  <CRO 1 Total Amount>  (73) 
11.5

>  <CRO 1 Unit>  (73) 
mg

>  <pIC50>  (73) 
5.809668

>  <SMILES_std>  (73) 
Cc1c(C(=O)N2CCc3ccc(C(=O)NCc4ccc(N5CCOCC5)cc4)nc3C2)oc2ccccc12

>  <embed_status>  (73) 
0

>  <mmff_status>  (73) 
0

>  <minimizedAffinity>  (73) 
-7.56074

>  <CNNscore>  (73) 
0.3382876515

>  <CNNaffinity>  (73) 
5.3737664223

>  <CNN_VS>  (73) 
1.8178788424

>  <CNNaffinity_variance>  (73) 
0.5968824029

>  <Docking_Rank>  (73) 
77

>  <Vina_Affinity_kcal_mol>  (73) 
-7.560

>  <CNN_pKi>  (73) 
5.374

>  <CNN_Pose_Score>  (73) 
0.3383

>  <Num_Docked_Poses>  (73) 
5

>  <MMGBSA_Rank>  (73) 
73

>  <MMGBSA_dG_kcal_mol>  (73) 
-36.149

>  <MMGBSA_VdW_kcal_mol>  (73) 
-37.486

>  <MMGBSA_Elec_kcal_mol>  (73) 
2.073

>  <MMGBSA_PolarSolv_kcal_mol>  (73) 
4.281

>  <MMGBSA_NonPolarSolv_kcal_mol>  (73) 
-5.017

>  <MMGBSA_Status>  (73) 
S

$$$$
CTX-1020845
     RDKit          3D

 39 44  0  0  0  0  0  0  0  0999 V2000
   35.0790    7.7567  -27.5184 C   0  0  0  0  0  0  0  0  0  0  0  0
   34.7112    6.9233  -28.3464 O   0  0  0  0  0  0  0  0  0  0  0  0
   36.2280    8.5286  -27.7369 N   0  0  0  0  0  0  0  0  0  0  0  0
   36.9433    8.2635  -28.9917 C   0  0  0  0  0  0  0  0  0  0  0  0
   36.4410    9.8536  -27.1206 C   0  0  0  0  0  0  0  0  0  0  0  0
   38.3214    8.8566  -28.9588 C   0  0  0  0  0  0  0  0  0  0  0  0
   37.9199   10.1108  -26.7933 C   0  0  0  0  0  0  0  0  0  0  0  0
   38.7547    9.7073  -27.9628 C   0  0  0  0  0  0  0  0  0  0  0  0
   39.3522    8.6495  -29.9272 C   0  0  0  0  0  0  0  0  0  0  0  0
   40.3526   10.2322  -28.1788 S   0  0  0  0  0  0  0  0  0  0  0  0
   40.5187    9.3361  -29.6329 C   0  0  0  0  0  0  0  0  0  0  0  0
   31.9110    6.9734  -27.0742 Cl  0  0  0  0  0  0  0  0  0  0  0  0
   33.0363    7.6822  -25.9848 C   0  0  0  0  0  0  0  0  0  0  0  0
   34.3512    7.9643  -26.2837 C   0  0  0  0  0  0  0  0  0  0  0  0
   32.6763    8.0487  -24.6405 C   0  0  0  0  0  0  0  0  0  0  0  0
   35.1495    8.7189  -24.9805 S   0  0  0  0  0  0  0  0  0  0  0  0
   33.7577    8.6303  -23.9733 C   0  0  0  0  0  0  0  0  0  0  0  0
   31.4669    7.9238  -23.9349 C   0  0  0  0  0  0  0  0  0  0  0  0
   33.6503    9.0715  -22.6488 C   0  0  0  0  0  0  0  0  0  0  0  0
   31.3535    8.3397  -22.6520 N   0  0  0  0  0  0  0  0  0  0  0  0
   32.4194    8.8948  -22.0478 C   0  0  0  0  0  0  0  0  0  0  0  0
   41.7495    9.3313  -30.4160 C   0  0  0  0  0  0  0  0  0  0  0  0
   42.6213   10.1873  -30.2807 O   0  0  0  0  0  0  0  0  0  0  0  0
   41.8762    8.3050  -31.3271 N   0  0  0  0  0  0  0  0  0  0  0  0
   41.2114    7.5790  -31.3188 H   0  0  0  0  0  0  0  0  0  0  0  0
   42.9469    8.2552  -32.2925 C   0  0  0  0  0  0  0  0  0  0  0  0
   43.3868    6.8345  -32.5244 C   0  0  0  0  0  0  0  0  0  0  0  0
   44.2362    6.1861  -31.6250 C   0  0  0  0  0  0  0  0  0  0  0  0
   42.9130    6.1162  -33.6236 C   0  0  0  0  0  0  0  0  0  0  0  0
   44.6199    4.8533  -31.8364 C   0  0  0  0  0  0  0  0  0  0  0  0
   43.3035    4.7866  -33.8244 C   0  0  0  0  0  0  0  0  0  0  0  0
   44.1810    4.1235  -32.9494 C   0  0  0  0  0  0  0  0  0  0  0  0
   44.5311    2.7928  -33.1916 N   0  0  0  0  0  0  0  0  0  0  0  0
   45.4974    2.1866  -32.2454 C   0  0  0  0  0  0  0  0  0  0  0  0
   43.5266    1.8223  -33.6698 C   0  0  0  0  0  0  0  0  0  0  0  0
   44.7638    1.4529  -31.0942 C   0  0  0  0  0  0  0  0  0  0  0  0
   42.8406    1.0732  -32.5002 C   0  0  0  0  0  0  0  0  0  0  0  0
   43.7567    0.4505  -31.5167 N   0  0  0  0  0  0  0  0  0  0  0  0
   44.3883   -0.7518  -32.0559 C   0  0  0  0  0  0  0  0  0  0  0  0
 12 13  1  0
 13 14  2  0
 13 15  1  0
 14 16  1  0
 14  1  1  0
 15 17  2  0
 15 18  1  0
  1  2  2  0
  1  3  1  0
 17 19  1  0
 18 20  2  0
  3  4  1  0
  3  5  1  0
 19 21  2  0
  4  6  1  0
  5  7  1  0
  6  8  2  0
  6  9  1  0
  8 10  1  0
  9 11  2  0
 11 22  1  0
 22 23  2  0
 22 24  1  0
 24 26  1  0
 26 27  1  0
 27 28  2  0
 27 29  1  0
 28 30  1  0
 29 31  2  0
 30 32  2  0
 32 33  1  0
 33 34  1  0
 33 35  1  0
 34 36  1  0
 35 37  1  0
 36 38  1  0
 38 39  1  0
 16 17  1  0
 20 21  1  0
  7  8  1  0
 10 11  1  0
 31 32  1  0
 37 38  1  0
 24 25  1  0
M  END
>  <Molecule Name>  (74) 
CTX-1020845

>  <SMILES>  (74) 
CN1CCN(CC1)C1=CC=C(CNC(=O)C2=CC3=C(CCN(C3)C(=O)C3=C(Cl)C4=CN=CC=C4S3)S2)C=C1

>  <Batch Name>  (74) 
CTX-1020845-1

>  <Batch Created Date>  (74) 
2022-01-06

>  <Batch ID>  (74) 
CTX-1020845-1

>  <External ID>  (74) 
CD-44-2-L

>  <Stereochemistry>  (74) 
Achiral

>  <Amount 1>  (74) 
4.0

>  <Unit 1>  (74) 
mg

>  <CRO 1>  (74) 
Pharmaron

>  <CRO 1 Total Amount>  (74) 
18.8

>  <CRO 1 Unit>  (74) 
mg

>  <pIC50>  (74) 
4.068542

>  <SMILES_std>  (74) 
CN1CCN(c2ccc(CNC(=O)c3cc4c(s3)CCN(C(=O)c3sc5ccncc5c3Cl)C4)cc2)CC1

>  <embed_status>  (74) 
0

>  <mmff_status>  (74) 
0

>  <minimizedAffinity>  (74) 
-5.17595

>  <CNNscore>  (74) 
0.3097825944

>  <CNNaffinity>  (74) 
7.0744495392

>  <CNN_VS>  (74) 
2.1915414333

>  <CNNaffinity_variance>  (74) 
0.0150271514

>  <Docking_Rank>  (74) 
49

>  <Vina_Affinity_kcal_mol>  (74) 
-5.180

>  <CNN_pKi>  (74) 
7.074

>  <CNN_Pose_Score>  (74) 
0.3098

>  <Num_Docked_Poses>  (74) 
5

>  <MMGBSA_Rank>  (74) 
74

>  <MMGBSA_dG_kcal_mol>  (74) 
-31.480

>  <MMGBSA_VdW_kcal_mol>  (74) 
-33.267

>  <MMGBSA_Elec_kcal_mol>  (74) 
0.240

>  <MMGBSA_PolarSolv_kcal_mol>  (74) 
5.813

>  <MMGBSA_NonPolarSolv_kcal_mol>  (74) 
-4.266

>  <MMGBSA_Status>  (74) 
S

$$$$
CTX-1020769
     RDKit          3D

 33 37  0  0  0  0  0  0  0  0999 V2000
   44.1984   -0.0937  -31.4193 C   0  0  0  0  0  0  0  0  0  0  0  0
   43.0276   -0.4125  -32.0397 N   0  0  0  0  0  0  0  0  0  0  0  0
   45.1956   -1.0132  -31.1324 C   0  0  0  0  0  0  0  0  0  0  0  0
   42.8431   -1.7097  -32.3922 C   0  0  0  0  0  0  0  0  0  0  0  0
   44.9899   -2.3375  -31.5019 C   0  0  0  0  0  0  0  0  0  0  0  0
   43.8059   -2.6973  -32.1532 C   0  0  0  0  0  0  0  0  0  0  0  0
   41.5248   -2.0438  -33.0667 C   0  0  0  0  0  0  0  0  0  0  0  0
   43.5445   -4.1254  -32.5452 C   0  0  0  0  0  0  0  0  0  0  0  0
   41.3491   -3.4518  -33.4364 N   0  0  0  0  0  0  0  0  0  0  0  0
   42.5692   -4.2021  -33.7168 C   0  0  0  0  0  0  0  0  0  0  0  0
   40.1105   -4.0504  -33.7050 C   0  0  0  0  0  0  0  0  0  0  0  0
   40.0528   -5.2635  -33.9224 O   0  0  0  0  0  0  0  0  0  0  0  0
   38.8967   -3.2403  -33.7132 C   0  0  0  0  0  0  0  0  0  0  0  0
   38.3969   -2.7550  -34.8912 O   0  0  0  0  0  0  0  0  0  0  0  0
   38.0405   -2.8944  -32.6701 C   0  0  0  0  0  0  0  0  0  0  0  0
   37.2555   -2.0771  -34.6123 C   0  0  0  0  0  0  0  0  0  0  0  0
   36.9829   -2.1304  -33.2533 C   0  0  0  0  0  0  0  0  0  0  0  0
   38.2029   -3.2552  -31.2379 C   0  0  0  0  0  0  0  0  0  0  0  0
   36.4609   -1.4206  -35.5493 C   0  0  0  0  0  0  0  0  0  0  0  0
   35.8245   -1.4840  -32.7818 C   0  0  0  0  0  0  0  0  0  0  0  0
   35.3177   -0.7819  -35.0594 C   0  0  0  0  0  0  0  0  0  0  0  0
   35.0024   -0.8125  -33.6990 C   0  0  0  0  0  0  0  0  0  0  0  0
   45.4838    1.8812  -31.0729 O   0  0  0  0  0  0  0  0  0  0  0  0
   44.3804    1.3473  -31.0459 C   0  0  0  0  0  0  0  0  0  0  0  0
   43.2163    1.9896  -30.6924 N   0  0  0  0  0  0  0  0  0  0  0  0
   42.4062    1.4506  -30.5423 H   0  0  0  0  0  0  0  0  0  0  0  0
   43.1346    3.4200  -30.5329 C   0  0  0  0  0  0  0  0  0  0  0  0
   42.9534    4.0326  -31.8791 C   0  0  0  0  0  0  0  0  0  0  0  0
   42.0651    3.4976  -32.7920 N   0  0  0  0  0  0  0  0  0  0  0  0
   43.5963    5.1248  -32.4279 C   0  0  0  0  0  0  0  0  0  0  0  0
   42.1668    4.2522  -33.8629 C   0  0  0  0  0  0  0  0  0  0  0  0
   43.0826    5.2474  -33.6850 N   0  0  0  0  0  0  0  0  0  0  0  0
   43.4393    6.2409  -34.6642 C   0  0  0  0  0  0  0  0  0  0  0  0
 23 24  2  0
 24 25  1  0
 24  1  1  0
 25 27  1  0
  1  2  2  0
  1  3  1  0
 27 28  1  0
  2  4  1  0
  3  5  2  0
 28 29  1  0
 28 30  2  0
  4  6  2  0
  4  7  1  0
 29 31  2  0
 30 32  1  0
  6  8  1  0
  7  9  1  0
 32 33  1  0
  8 10  1  0
  9 11  1  0
 11 12  2  0
 11 13  1  0
 13 14  1  0
 13 15  2  0
 14 16  1  0
 15 17  1  0
 15 18  1  0
 16 19  2  0
 17 20  2  0
 19 21  1  0
 20 22  1  0
  5  6  1  0
 31 32  1  0
  9 10  1  0
 16 17  1  0
 21 22  2  0
 25 26  1  0
M  END
>  <Molecule Name>  (75) 
CTX-1020769

>  <SMILES>  (75) 
CN1C=NC(CNC(=O)C2=NC3=C(CCN(C3)C(=O)C3=C(C)C4=C(O3)C=CC=C4)C=C2)=C1

>  <Batch Name>  (75) 
CTX-1020769-1

>  <Batch Created Date>  (75) 
2021-12-16

>  <Batch ID>  (75) 
CTX-1020769-1

>  <External ID>  (75) 
P841-0364

>  <Stereochemistry>  (75) 
Achiral

>  <Amount 1>  (75) 
5.95

>  <Unit 1>  (75) 
mg

>  <CRO 1>  (75) 
Pharmaron

>  <CRO 1 Total Amount>  (75) 
29.85

>  <CRO 1 Unit>  (75) 
mg

>  <pIC50>  (75) 
4.345823

>  <SMILES_std>  (75) 
Cc1c(C(=O)N2CCc3ccc(C(=O)NCc4cn(C)cn4)nc3C2)oc2ccccc12

>  <embed_status>  (75) 
0

>  <mmff_status>  (75) 
0

>  <minimizedAffinity>  (75) 
-6.83173

>  <CNNscore>  (75) 
0.3423313797

>  <CNNaffinity>  (75) 
5.0922369957

>  <CNN_VS>  (75) 
1.7432324886

>  <CNNaffinity_variance>  (75) 
0.8233833313

>  <Docking_Rank>  (75) 
80

>  <Vina_Affinity_kcal_mol>  (75) 
-6.830

>  <CNN_pKi>  (75) 
5.092

>  <CNN_Pose_Score>  (75) 
0.3423

>  <Num_Docked_Poses>  (75) 
5

>  <MMGBSA_Rank>  (75) 
75

>  <MMGBSA_dG_kcal_mol>  (75) 
-30.351

>  <MMGBSA_VdW_kcal_mol>  (75) 
-29.997

>  <MMGBSA_Elec_kcal_mol>  (75) 
-0.543

>  <MMGBSA_PolarSolv_kcal_mol>  (75) 
3.745

>  <MMGBSA_NonPolarSolv_kcal_mol>  (75) 
-3.557

>  <MMGBSA_Status>  (75) 
S

$$$$
CTX-1020754
     RDKit          3D

 32 36  0  0  0  0  0  0  0  0999 V2000
   43.7117    0.0616  -31.9677 C   0  0  0  0  0  0  0  0  0  0  0  0
   42.7087   -0.8578  -31.8853 N   0  0  0  0  0  0  0  0  0  0  0  0
   43.9124    0.8949  -33.0575 C   0  0  0  0  0  0  0  0  0  0  0  0
   41.8573   -0.9421  -32.9389 C   0  0  0  0  0  0  0  0  0  0  0  0
   43.0363    0.7880  -34.1313 C   0  0  0  0  0  0  0  0  0  0  0  0
   41.9987   -0.1489  -34.0872 C   0  0  0  0  0  0  0  0  0  0  0  0
   40.7488   -1.9732  -32.8354 C   0  0  0  0  0  0  0  0  0  0  0  0
   41.0192   -0.2579  -35.2277 C   0  0  0  0  0  0  0  0  0  0  0  0
   39.7588   -1.8951  -33.9060 N   0  0  0  0  0  0  0  0  0  0  0  0
   40.3076   -1.6085  -35.2300 C   0  0  0  0  0  0  0  0  0  0  0  0
   38.5495   -2.5682  -33.6997 C   0  0  0  0  0  0  0  0  0  0  0  0
   38.4061   -3.2935  -32.7133 O   0  0  0  0  0  0  0  0  0  0  0  0
   37.4696   -2.3700  -34.6551 C   0  0  0  0  0  0  0  0  0  0  0  0
   37.6133   -2.8168  -35.9425 O   0  0  0  0  0  0  0  0  0  0  0  0
   36.2603   -1.6937  -34.5265 C   0  0  0  0  0  0  0  0  0  0  0  0
   36.4970   -2.4609  -36.6282 C   0  0  0  0  0  0  0  0  0  0  0  0
   35.6238   -1.7656  -35.8036 C   0  0  0  0  0  0  0  0  0  0  0  0
   35.7488   -1.0264  -33.3019 C   0  0  0  0  0  0  0  0  0  0  0  0
   36.2535   -2.7440  -37.9704 C   0  0  0  0  0  0  0  0  0  0  0  0
   34.4103   -1.3102  -36.3536 C   0  0  0  0  0  0  0  0  0  0  0  0
   35.0412   -2.2859  -38.4952 C   0  0  0  0  0  0  0  0  0  0  0  0
   34.1335   -1.5805  -37.7018 C   0  0  0  0  0  0  0  0  0  0  0  0
   45.6963   -0.4771  -30.7596 O   0  0  0  0  0  0  0  0  0  0  0  0
   44.6361    0.1367  -30.7900 C   0  0  0  0  0  0  0  0  0  0  0  0
   44.1816    0.9320  -29.7623 N   0  0  0  0  0  0  0  0  0  0  0  0
   43.3910    1.5003  -29.9082 H   0  0  0  0  0  0  0  0  0  0  0  0
   44.8343    0.9527  -28.4799 C   0  0  0  0  0  0  0  0  0  0  0  0
   44.5185    2.2228  -27.8007 C   0  0  0  0  0  0  0  0  0  0  0  0
   43.8490    3.1822  -28.5152 O   0  0  0  0  0  0  0  0  0  0  0  0
   44.7436    2.7258  -26.5402 C   0  0  0  0  0  0  0  0  0  0  0  0
   43.7122    4.2080  -27.6303 C   0  0  0  0  0  0  0  0  0  0  0  0
   44.2216    3.9906  -26.4391 N   0  0  0  0  0  0  0  0  0  0  0  0
 23 24  2  0
 24 25  1  0
 24  1  1  0
 25 27  1  0
  1  2  2  0
  1  3  1  0
 27 28  1  0
  2  4  1  0
  3  5  2  0
 28 29  1  0
 28 30  2  0
  4  6  2  0
  4  7  1  0
 29 31  1  0
 30 32  1  0
  6  8  1  0
  7  9  1  0
  8 10  1  0
  9 11  1  0
 11 12  2  0
 11 13  1  0
 13 14  1  0
 13 15  2  0
 14 16  1  0
 15 17  1  0
 15 18  1  0
 16 19  2  0
 17 20  2  0
 19 21  1  0
 20 22  1  0
  5  6  1  0
 31 32  2  0
  9 10  1  0
 16 17  1  0
 21 22  2  0
 25 26  1  0
M  END
>  <Molecule Name>  (76) 
CTX-1020754

>  <SMILES>  (76) 
CC1=C(OC2=C1C=CC=C2)C(=O)N1CCC2=C(C1)N=C(C=C2)C(=O)NCC1=CN=CO1

>  <Batch Name>  (76) 
CTX-1020754-1

>  <Batch Created Date>  (76) 
2021-12-16

>  <Batch ID>  (76) 
CTX-1020754-1

>  <External ID>  (76) 
P841-0363

>  <Stereochemistry>  (76) 
Achiral

>  <Amount 1>  (76) 
4.45

>  <Unit 1>  (76) 
mg

>  <CRO 1>  (76) 
Pharmaron

>  <CRO 1 Total Amount>  (76) 
21.85

>  <CRO 1 Unit>  (76) 
mg

>  <pIC50>  (76) 
4.310691

>  <SMILES_std>  (76) 
Cc1c(C(=O)N2CCc3ccc(C(=O)NCc4cnco4)nc3C2)oc2ccccc12

>  <embed_status>  (76) 
0

>  <mmff_status>  (76) 
0

>  <minimizedAffinity>  (76) 
-6.10963

>  <CNNscore>  (76) 
0.3756256700

>  <CNNaffinity>  (76) 
4.7164030075

>  <CNN_VS>  (76) 
1.7716020346

>  <CNNaffinity_variance>  (76) 
0.5240199566

>  <Docking_Rank>  (76) 
84

>  <Vina_Affinity_kcal_mol>  (76) 
-6.110

>  <CNN_pKi>  (76) 
4.716

>  <CNN_Pose_Score>  (76) 
0.3756

>  <Num_Docked_Poses>  (76) 
5

>  <MMGBSA_Rank>  (76) 
76

>  <MMGBSA_dG_kcal_mol>  (76) 
-29.319

>  <MMGBSA_VdW_kcal_mol>  (76) 
-28.245

>  <MMGBSA_Elec_kcal_mol>  (76) 
-1.518

>  <MMGBSA_PolarSolv_kcal_mol>  (76) 
4.384

>  <MMGBSA_NonPolarSolv_kcal_mol>  (76) 
-3.940

>  <MMGBSA_Status>  (76) 
S

$$$$
CTX-1019480
     RDKit          3D

 33 37  0  0  0  0  0  0  0  0999 V2000
   41.5581   -0.9410  -34.5737 C   0  0  0  0  0  0  0  0  0  0  0  0
   41.8458    0.1375  -33.7902 N   0  0  0  0  0  0  0  0  0  0  0  0
   42.1971   -2.1671  -34.4688 C   0  0  0  0  0  0  0  0  0  0  0  0
   42.8156   -0.0182  -32.8536 C   0  0  0  0  0  0  0  0  0  0  0  0
   43.1928   -2.3056  -33.5088 C   0  0  0  0  0  0  0  0  0  0  0  0
   43.5239   -1.2183  -32.6939 C   0  0  0  0  0  0  0  0  0  0  0  0
   43.1313    1.1932  -31.9961 C   0  0  0  0  0  0  0  0  0  0  0  0
   44.5798   -1.3572  -31.6272 C   0  0  0  0  0  0  0  0  0  0  0  0
   44.0422    0.9188  -30.8882 N   0  0  0  0  0  0  0  0  0  0  0  0
   45.1347    0.0011  -31.2055 C   0  0  0  0  0  0  0  0  0  0  0  0
   44.1049    1.8741  -29.8679 C   0  0  0  0  0  0  0  0  0  0  0  0
   43.5084    2.9464  -29.9869 O   0  0  0  0  0  0  0  0  0  0  0  0
   44.8617    1.5606  -28.6648 C   0  0  0  0  0  0  0  0  0  0  0  0
   44.2118    1.0638  -27.5659 O   0  0  0  0  0  0  0  0  0  0  0  0
   46.2062    1.7568  -28.3649 C   0  0  0  0  0  0  0  0  0  0  0  0
   45.1310    0.9114  -26.5785 C   0  0  0  0  0  0  0  0  0  0  0  0
   46.3827    1.3221  -27.0155 C   0  0  0  0  0  0  0  0  0  0  0  0
   47.2401    2.3163  -29.2731 C   0  0  0  0  0  0  0  0  0  0  0  0
   44.8666    0.4181  -25.3028 C   0  0  0  0  0  0  0  0  0  0  0  0
   47.4613    1.2404  -26.1141 C   0  0  0  0  0  0  0  0  0  0  0  0
   45.9524    0.3422  -24.4251 C   0  0  0  0  0  0  0  0  0  0  0  0
   47.2292    0.7461  -24.8221 C   0  0  0  0  0  0  0  0  0  0  0  0
   40.5767    0.1145  -36.4705 O   0  0  0  0  0  0  0  0  0  0  0  0
   40.4837   -0.7448  -35.6013 C   0  0  0  0  0  0  0  0  0  0  0  0
   39.4111   -1.5973  -35.4626 N   0  0  0  0  0  0  0  0  0  0  0  0
   39.4753   -2.3318  -34.8102 H   0  0  0  0  0  0  0  0  0  0  0  0
   38.1996   -1.4622  -36.2295 C   0  0  0  0  0  0  0  0  0  0  0  0
   36.9865   -1.6012  -35.3469 C   0  0  0  0  0  0  0  0  0  0  0  0
   37.1226   -1.8009  -33.9659 C   0  0  0  0  0  0  0  0  0  0  0  0
   35.6996   -1.4933  -35.8936 C   0  0  0  0  0  0  0  0  0  0  0  0
   35.9932   -1.9088  -33.1523 C   0  0  0  0  0  0  0  0  0  0  0  0
   34.5718   -1.6011  -35.0789 C   0  0  0  0  0  0  0  0  0  0  0  0
   34.7190   -1.8109  -33.7090 C   0  0  0  0  0  0  0  0  0  0  0  0
 23 24  2  0
 24 25  1  0
 24  1  1  0
 25 27  1  0
  1  2  2  0
  1  3  1  0
 27 28  1  0
  2  4  1  0
  3  5  2  0
 28 29  2  0
 28 30  1  0
  4  6  2  0
  4  7  1  0
 29 31  1  0
 30 32  2  0
  6  8  1  0
  7  9  1  0
 31 33  2  0
  8 10  1  0
  9 11  1  0
 11 12  2  0
 11 13  1  0
 13 14  1  0
 13 15  2  0
 14 16  1  0
 15 17  1  0
 15 18  1  0
 16 19  2  0
 17 20  2  0
 19 21  1  0
 20 22  1  0
  5  6  1  0
 32 33  1  0
  9 10  1  0
 16 17  1  0
 21 22  2  0
 25 26  1  0
M  END
>  <Molecule Name>  (77) 
CTX-1019480

>  <SMILES>  (77) 
CC1=C(OC2=C1C=CC=C2)C(=O)N1CCC2=C(C1)N=C(C=C2)C(=O)NCC1=CC=CC=C1

>  <Batch Name>  (77) 
CTX-1019480-1

>  <Batch Created Date>  (77) 
2021-07-30

>  <Batch ID>  (77) 
CTX-1019480-1

>  <External ID>  (77) 
P841-0093

>  <Stereochemistry>  (77) 
Achiral

>  <Amount 1>  (77) 
3.1

>  <Unit 1>  (77) 
mg

>  <CRO 1>  (77) 
Pharmaron

>  <CRO 1 Total Amount>  (77) 
12.2

>  <CRO 1 Unit>  (77) 
mg

>  <pIC50>  (77) 
6.366532

>  <SMILES_std>  (77) 
Cc1c(C(=O)N2CCc3ccc(C(=O)NCc4ccccc4)nc3C2)oc2ccccc12

>  <embed_status>  (77) 
0

>  <mmff_status>  (77) 
0

>  <minimizedAffinity>  (77) 
-5.93989

>  <CNNscore>  (77) 
0.6221429706

>  <CNNaffinity>  (77) 
5.3023242950

>  <CNN_VS>  (77) 
3.2988038063

>  <CNNaffinity_variance>  (77) 
0.0368827917

>  <Docking_Rank>  (77) 
79

>  <Vina_Affinity_kcal_mol>  (77) 
-5.940

>  <CNN_pKi>  (77) 
5.302

>  <CNN_Pose_Score>  (77) 
0.6221

>  <Num_Docked_Poses>  (77) 
5

>  <MMGBSA_Rank>  (77) 
77

>  <MMGBSA_dG_kcal_mol>  (77) 
-28.880

>  <MMGBSA_VdW_kcal_mol>  (77) 
-27.960

>  <MMGBSA_Elec_kcal_mol>  (77) 
-8.900

>  <MMGBSA_PolarSolv_kcal_mol>  (77) 
11.748

>  <MMGBSA_NonPolarSolv_kcal_mol>  (77) 
-3.769

>  <MMGBSA_Status>  (77) 
S

$$$$
CTX-1020795
     RDKit          3D

 41 46  0  0  0  0  0  0  0  0999 V2000
   36.2724    8.2289  -25.5824 C   0  0  0  0  0  0  0  0  0  0  0  0
   37.2623    8.1244  -24.8532 O   0  0  0  0  0  0  0  0  0  0  0  0
   36.4462    8.5398  -26.9383 N   0  0  0  0  0  0  0  0  0  0  0  0
   37.7908    8.9618  -27.3443 C   0  0  0  0  0  0  0  0  0  0  0  0
   35.3938    8.4622  -27.9583 C   0  0  0  0  0  0  0  0  0  0  0  0
   37.8748    9.6395  -28.6956 C   0  0  0  0  0  0  0  0  0  0  0  0
   35.9227    8.2514  -29.3796 C   0  0  0  0  0  0  0  0  0  0  0  0
   38.8693   10.5377  -28.8963 N   0  0  0  0  0  0  0  0  0  0  0  0
   36.9742    9.2718  -29.6993 C   0  0  0  0  0  0  0  0  0  0  0  0
   38.9604   11.0879  -30.1413 C   0  0  0  0  0  0  0  0  0  0  0  0
   37.1048    9.8401  -30.9671 C   0  0  0  0  0  0  0  0  0  0  0  0
   38.1130   10.7702  -31.1941 C   0  0  0  0  0  0  0  0  0  0  0  0
   33.6802    7.5455  -20.7748 Cl  0  0  0  0  0  0  0  0  0  0  0  0
   32.7943    7.5040  -22.2434 C   0  0  0  0  0  0  0  0  0  0  0  0
   33.4101    7.6800  -23.4827 C   0  0  0  0  0  0  0  0  0  0  0  0
   31.4122    7.2956  -22.2399 C   0  0  0  0  0  0  0  0  0  0  0  0
   34.7359    7.8878  -23.7005 O   0  0  0  0  0  0  0  0  0  0  0  0
   32.7273    7.6631  -24.6924 C   0  0  0  0  0  0  0  0  0  0  0  0
   30.6917    7.2670  -23.4361 C   0  0  0  0  0  0  0  0  0  0  0  0
   34.9294    8.0299  -25.0468 C   0  0  0  0  0  0  0  0  0  0  0  0
   33.7115    7.8812  -25.7061 C   0  0  0  0  0  0  0  0  0  0  0  0
   31.3348    7.4487  -24.6697 C   0  0  0  0  0  0  0  0  0  0  0  0
   33.4912    7.9351  -27.1751 C   0  0  0  0  0  0  0  0  0  0  0  0
   40.0653   12.0810  -30.3465 C   0  0  0  0  0  0  0  0  0  0  0  0
   40.9623   11.8839  -31.1585 O   0  0  0  0  0  0  0  0  0  0  0  0
   39.9739   13.1967  -29.5443 N   0  0  0  0  0  0  0  0  0  0  0  0
   39.1570   13.3268  -29.0106 H   0  0  0  0  0  0  0  0  0  0  0  0
   41.0209   14.1813  -29.4518 C   0  0  0  0  0  0  0  0  0  0  0  0
   40.7250   15.3655  -30.3334 C   0  0  0  0  0  0  0  0  0  0  0  0
   39.7394   16.2896  -29.9721 C   0  0  0  0  0  0  0  0  0  0  0  0
   41.3960   15.5464  -31.5452 C   0  0  0  0  0  0  0  0  0  0  0  0
   39.4430   17.3814  -30.7985 C   0  0  0  0  0  0  0  0  0  0  0  0
   41.0953   16.6415  -32.3633 C   0  0  0  0  0  0  0  0  0  0  0  0
   40.1144   17.5831  -32.0107 C   0  0  0  0  0  0  0  0  0  0  0  0
   39.8627   18.6612  -32.8706 N   0  0  0  0  0  0  0  0  0  0  0  0
   40.2702   18.5788  -34.2882 C   0  0  0  0  0  0  0  0  0  0  0  0
   38.5235   19.2653  -32.6498 C   0  0  0  0  0  0  0  0  0  0  0  0
   39.0542   18.3795  -35.2195 C   0  0  0  0  0  0  0  0  0  0  0  0
   38.1096   20.1634  -33.8382 C   0  0  0  0  0  0  0  0  0  0  0  0
   38.0197   19.4362  -35.1259 N   0  0  0  0  0  0  0  0  0  0  0  0
   38.0926   20.3699  -36.2459 C   0  0  0  0  0  0  0  0  0  0  0  0
 13 14  1  0
 14 15  2  0
 14 16  1  0
 15 17  1  0
 15 18  1  0
 16 19  2  0
 17 20  1  0
 18 21  1  0
 18 22  2  0
 20  1  1  0
 21 23  1  0
  1  2  2  0
  1  3  1  0
  3  4  1  0
  3  5  1  0
  4  6  1  0
  5  7  1  0
  6  8  2  0
  6  9  1  0
  8 10  1  0
  9 11  2  0
 10 24  1  0
 10 12  2  0
 24 25  2  0
 24 26  1  0
 26 28  1  0
 28 29  1  0
 29 30  2  0
 29 31  1  0
 30 32  1  0
 31 33  2  0
 32 34  2  0
 34 35  1  0
 35 36  1  0
 35 37  1  0
 36 38  1  0
 37 39  1  0
 38 40  1  0
 40 41  1  0
 19 22  1  0
 20 21  2  0
  7  9  1  0
 11 12  1  0
 33 34  1  0
 39 40  1  0
 26 27  1  0
M  END
>  <Molecule Name>  (78) 
CTX-1020795

>  <SMILES>  (78) 
CN1CCN(CC1)C1=CC=C(CNC(=O)C2=CC=C3CCN(CC3=N2)C(=O)C2=C(C)C3=C(O2)C(Cl)=CC=C3)C=C1

>  <Batch Name>  (78) 
CTX-1020795-1

>  <Batch Created Date>  (78) 
2021-12-24

>  <Batch ID>  (78) 
CTX-1020795-1

>  <External ID>  (78) 
CD-42-O

>  <Stereochemistry>  (78) 
Achiral

>  <Amount 1>  (78) 
2.3

>  <Unit 1>  (78) 
mg

>  <CRO 1>  (78) 
Pharmaron

>  <CRO 1 Total Amount>  (78) 
13.3

>  <CRO 1 Unit>  (78) 
mg

>  <pIC50>  (78) 
4.728158

>  <SMILES_std>  (78) 
Cc1c(C(=O)N2CCc3ccc(C(=O)NCc4ccc(N5CCN(C)CC5)cc4)nc3C2)oc2c(Cl)cccc12

>  <embed_status>  (78) 
0

>  <mmff_status>  (78) 
0

>  <minimizedAffinity>  (78) 
-6.93216

>  <CNNscore>  (78) 
0.3840578198

>  <CNNaffinity>  (78) 
6.6887474060

>  <CNN_VS>  (78) 
2.5688657761

>  <CNNaffinity_variance>  (78) 
0.0412905850

>  <Docking_Rank>  (78) 
63

>  <Vina_Affinity_kcal_mol>  (78) 
-6.930

>  <CNN_pKi>  (78) 
6.689

>  <CNN_Pose_Score>  (78) 
0.3841

>  <Num_Docked_Poses>  (78) 
5

>  <MMGBSA_Rank>  (78) 
78

>  <MMGBSA_dG_kcal_mol>  (78) 
-28.611

>  <MMGBSA_VdW_kcal_mol>  (78) 
-28.909

>  <MMGBSA_Elec_kcal_mol>  (78) 
0.481

>  <MMGBSA_PolarSolv_kcal_mol>  (78) 
3.739

>  <MMGBSA_NonPolarSolv_kcal_mol>  (78) 
-3.923

>  <MMGBSA_Status>  (78) 
S

$$$$
CTX-1020740
     RDKit          3D

 36 40  0  0  0  0  0  0  0  0999 V2000
   46.8833    0.6064  -29.0858 S   0  0  0  0  0  0  0  0  0  0  0  0
   45.3524    1.3300  -29.3895 C   0  0  0  0  0  0  0  0  0  0  0  0
   46.5719    0.4821  -27.4254 C   0  0  0  0  0  0  0  0  0  0  0  0
   44.6243    1.4509  -28.2149 C   0  0  0  0  0  0  0  0  0  0  0  0
   45.3282    0.9624  -27.0676 C   0  0  0  0  0  0  0  0  0  0  0  0
   47.5451   -0.1176  -26.4601 C   0  0  0  0  0  0  0  0  0  0  0  0
   44.8276    0.9578  -25.6498 C   0  0  0  0  0  0  0  0  0  0  0  0
   47.1604    0.3183  -25.0391 C   0  0  0  0  0  0  0  0  0  0  0  0
   45.7131    0.1590  -24.7997 N   0  0  0  0  0  0  0  0  0  0  0  0
   45.1805   -0.2814  -23.5826 C   0  0  0  0  0  0  0  0  0  0  0  0
   44.0786    0.1257  -23.2070 O   0  0  0  0  0  0  0  0  0  0  0  0
   45.9399   -1.2412  -22.7952 C   0  0  0  0  0  0  0  0  0  0  0  0
   45.8924   -2.5712  -23.1200 O   0  0  0  0  0  0  0  0  0  0  0  0
   46.6985   -1.0677  -21.6416 C   0  0  0  0  0  0  0  0  0  0  0  0
   46.6371   -3.2448  -22.2065 C   0  0  0  0  0  0  0  0  0  0  0  0
   47.1620   -2.3668  -21.2686 C   0  0  0  0  0  0  0  0  0  0  0  0
   46.9599    0.2164  -20.9423 C   0  0  0  0  0  0  0  0  0  0  0  0
   46.8480   -4.6217  -22.1991 C   0  0  0  0  0  0  0  0  0  0  0  0
   47.9593   -2.8960  -20.2358 C   0  0  0  0  0  0  0  0  0  0  0  0
   47.6455   -5.1255  -21.1671 C   0  0  0  0  0  0  0  0  0  0  0  0
   48.1929   -4.2787  -20.2006 C   0  0  0  0  0  0  0  0  0  0  0  0
   45.0116    1.7018  -30.7598 C   0  0  0  0  0  0  0  0  0  0  0  0
   44.9511    2.8613  -31.1648 O   0  0  0  0  0  0  0  0  0  0  0  0
   44.7362    0.6390  -31.6009 N   0  0  0  0  0  0  0  0  0  0  0  0
   44.8768   -0.2795  -31.2757 H   0  0  0  0  0  0  0  0  0  0  0  0
   44.2475    0.8434  -32.9448 C   0  0  0  0  0  0  0  0  0  0  0  0
   42.9850    0.0531  -33.1788 C   0  0  0  0  0  0  0  0  0  0  0  0
   42.6072   -0.9537  -32.2798 C   0  0  0  0  0  0  0  0  0  0  0  0
   42.1916    0.2858  -34.3096 C   0  0  0  0  0  0  0  0  0  0  0  0
   41.4521   -1.7070  -32.5005 C   0  0  0  0  0  0  0  0  0  0  0  0
   41.0352   -0.4671  -34.5303 C   0  0  0  0  0  0  0  0  0  0  0  0
   40.6569   -1.4763  -33.6320 C   0  0  0  0  0  0  0  0  0  0  0  0
   39.3965   -2.2730  -33.8612 C   0  0  0  0  0  0  0  0  0  0  0  0
   38.7402   -1.8918  -34.9914 F   0  0  0  0  0  0  0  0  0  0  0  0
   39.6291   -3.6092  -33.9978 F   0  0  0  0  0  0  0  0  0  0  0  0
   38.4944   -2.1575  -32.8467 F   0  0  0  0  0  0  0  0  0  0  0  0
  1  2  1  0
  1  3  1  0
  2 22  1  0
  2  4  2  0
  3  5  2  0
  3  6  1  0
 22 23  2  0
 22 24  1  0
  5  7  1  0
  6  8  1  0
 24 26  1  0
  7  9  1  0
 26 27  1  0
  9 10  1  0
 27 28  2  0
 27 29  1  0
 10 11  2  0
 10 12  1  0
 28 30  1  0
 29 31  2  0
 12 13  1  0
 12 14  2  0
 30 32  2  0
 13 15  1  0
 14 16  1  0
 14 17  1  0
 32 33  1  0
 15 18  2  0
 16 19  2  0
 33 34  1  0
 33 35  1  0
 33 36  1  0
 18 20  1  0
 19 21  1  0
  4  5  1  0
  8  9  1  0
 31 32  1  0
 15 16  1  0
 20 21  2  0
 24 25  1  0
M  END
>  <Molecule Name>  (79) 
CTX-1020740

>  <SMILES>  (79) 
CC1=C(OC2=C1C=CC=C2)C(=O)N1CCC2=C(C1)C=C(S2)C(=O)NCC1=CC=C(C=C1)C(F)(F)F

>  <Batch Name>  (79) 
CTX-1020740-1

>  <Batch Created Date>  (79) 
2021-12-16

>  <Batch ID>  (79) 
CTX-1020740-1

>  <External ID>  (79) 
P841-0355

>  <Stereochemistry>  (79) 
Achiral

>  <Amount 1>  (79) 
3.95

>  <Unit 1>  (79) 
mg

>  <CRO 1>  (79) 
Pharmaron

>  <CRO 1 Total Amount>  (79) 
16.75

>  <CRO 1 Unit>  (79) 
mg

>  <pIC50>  (79) 
5.5157

>  <SMILES_std>  (79) 
Cc1c(C(=O)N2CCc3sc(C(=O)NCc4ccc(C(F)(F)F)cc4)cc3C2)oc2ccccc12

>  <embed_status>  (79) 
0

>  <mmff_status>  (79) 
0

>  <minimizedAffinity>  (79) 
-5.80801

>  <CNNscore>  (79) 
0.3844059408

>  <CNNaffinity>  (79) 
5.0016808510

>  <CNN_VS>  (79) 
1.9226758480

>  <CNNaffinity_variance>  (79) 
0.1790749282

>  <Docking_Rank>  (79) 
82

>  <Vina_Affinity_kcal_mol>  (79) 
-5.810

>  <CNN_pKi>  (79) 
5.002

>  <CNN_Pose_Score>  (79) 
0.3844

>  <Num_Docked_Poses>  (79) 
5

>  <MMGBSA_Rank>  (79) 
79

>  <MMGBSA_dG_kcal_mol>  (79) 
-27.681

>  <MMGBSA_VdW_kcal_mol>  (79) 
-26.282

>  <MMGBSA_Elec_kcal_mol>  (79) 
-4.391

>  <MMGBSA_PolarSolv_kcal_mol>  (79) 
6.770

>  <MMGBSA_NonPolarSolv_kcal_mol>  (79) 
-3.777

>  <MMGBSA_Status>  (79) 
S

$$$$
CTX-1020518
     RDKit          3D

 35 39  0  0  0  0  0  0  0  0999 V2000
   43.9672    1.6785  -32.7143 S   0  0  0  0  0  0  0  0  0  0  0  0
   44.8650    0.8666  -31.4914 C   0  0  0  0  0  0  0  0  0  0  0  0
   42.9644    0.3368  -32.9654 C   0  0  0  0  0  0  0  0  0  0  0  0
   44.3708   -0.4135  -31.2879 C   0  0  0  0  0  0  0  0  0  0  0  0
   43.2671   -0.7301  -32.1435 C   0  0  0  0  0  0  0  0  0  0  0  0
   41.8488    0.3328  -33.9621 C   0  0  0  0  0  0  0  0  0  0  0  0
   42.5157   -2.0318  -32.1841 C   0  0  0  0  0  0  0  0  0  0  0  0
   41.4503   -1.1220  -34.2482 C   0  0  0  0  0  0  0  0  0  0  0  0
   41.3071   -1.8968  -33.0005 N   0  0  0  0  0  0  0  0  0  0  0  0
   40.3092   -2.8580  -32.8039 C   0  0  0  0  0  0  0  0  0  0  0  0
   40.5275   -3.8385  -32.0884 O   0  0  0  0  0  0  0  0  0  0  0  0
   39.0138   -2.6585  -33.4367 C   0  0  0  0  0  0  0  0  0  0  0  0
   37.9921   -2.0900  -32.7227 O   0  0  0  0  0  0  0  0  0  0  0  0
   38.5534   -3.0336  -34.6952 C   0  0  0  0  0  0  0  0  0  0  0  0
   36.8944   -2.0690  -33.5207 C   0  0  0  0  0  0  0  0  0  0  0  0
   37.1817   -2.6379  -34.7536 C   0  0  0  0  0  0  0  0  0  0  0  0
   39.3393   -3.7164  -35.7546 C   0  0  0  0  0  0  0  0  0  0  0  0
   35.6498   -1.5559  -33.1625 C   0  0  0  0  0  0  0  0  0  0  0  0
   36.1508   -2.7074  -35.7100 C   0  0  0  0  0  0  0  0  0  0  0  0
   34.6416   -1.6318  -34.1284 C   0  0  0  0  0  0  0  0  0  0  0  0
   34.8860   -2.1977  -35.3818 C   0  0  0  0  0  0  0  0  0  0  0  0
   45.9666    1.5734  -30.8435 C   0  0  0  0  0  0  0  0  0  0  0  0
   46.8586    2.1629  -31.4510 O   0  0  0  0  0  0  0  0  0  0  0  0
   45.9547    1.5292  -29.4615 N   0  0  0  0  0  0  0  0  0  0  0  0
   45.1774    1.1382  -29.0008 H   0  0  0  0  0  0  0  0  0  0  0  0
   47.0538    2.0424  -28.6761 C   0  0  0  0  0  0  0  0  0  0  0  0
   46.5581    3.0331  -27.6570 C   0  0  0  0  0  0  0  0  0  0  0  0
   46.4594    2.6778  -26.3113 C   0  0  0  0  0  0  0  0  0  0  0  0
   46.1420    4.3100  -28.0333 C   0  0  0  0  0  0  0  0  0  0  0  0
   45.9699    3.5889  -25.3639 C   0  0  0  0  0  0  0  0  0  0  0  0
   45.6563    5.2136  -27.0757 C   0  0  0  0  0  0  0  0  0  0  0  0
   45.5671    4.8907  -25.7096 C   0  0  0  0  0  0  0  0  0  0  0  0
   45.0630    5.7955  -24.7654 N   0  0  0  0  0  0  0  0  0  0  0  0
   45.4965    5.6657  -23.3748 C   0  0  0  0  0  0  0  0  0  0  0  0
   43.7218    6.3450  -24.9562 C   0  0  0  0  0  0  0  0  0  0  0  0
  1  2  1  0
  1  3  1  0
  2 22  1  0
  2  4  2  0
  3  5  2  0
  3  6  1  0
 22 23  2  0
 22 24  1  0
  5  7  1  0
  6  8  1  0
 24 26  1  0
  7  9  1  0
 26 27  1  0
  9 10  1  0
 27 28  2  0
 27 29  1  0
 10 11  2  0
 10 12  1  0
 28 30  1  0
 29 31  2  0
 12 13  1  0
 12 14  2  0
 30 32  2  0
 13 15  1  0
 14 16  1  0
 14 17  1  0
 32 33  1  0
 15 18  2  0
 16 19  2  0
 33 34  1  0
 33 35  1  0
 18 20  1  0
 19 21  1  0
  4  5  1  0
  8  9  1  0
 31 32  1  0
 15 16  1  0
 20 21  2  0
 24 25  1  0
M  END
>  <Molecule Name>  (80) 
CTX-1020518

>  <SMILES>  (80) 
CN(C)C1=CC=C(CNC(=O)C2=CC3=C(CCN(C3)C(=O)C3=C(C)C4=C(O3)C=CC=C4)S2)C=C1

>  <Batch Name>  (80) 
CTX-1020518-1

>  <Batch Created Date>  (80) 
2021-11-04

>  <Batch ID>  (80) 
CTX-1020518-1

>  <External ID>  (80) 
610EDL099-C

>  <Stereochemistry>  (80) 
Achiral

>  <Amount 1>  (80) 
4.99

>  <Unit 1>  (80) 
mg

>  <CRO 1>  (80) 
Pharmaron

>  <CRO 1 Total Amount>  (80) 
4.5

>  <CRO 1 Unit>  (80) 
mg

>  <pIC50>  (80) 
6.203426

>  <SMILES_std>  (80) 
Cc1c(C(=O)N2CCc3sc(C(=O)NCc4ccc(N(C)C)cc4)cc3C2)oc2ccccc12

>  <embed_status>  (80) 
0

>  <mmff_status>  (80) 
0

>  <minimizedAffinity>  (80) 
-5.60070

>  <CNNscore>  (80) 
0.3560945094

>  <CNNaffinity>  (80) 
4.9519829750

>  <CNN_VS>  (80) 
1.7633739710

>  <CNNaffinity_variance>  (80) 
0.1694486886

>  <Docking_Rank>  (80) 
83

>  <Vina_Affinity_kcal_mol>  (80) 
-5.600

>  <CNN_pKi>  (80) 
4.952

>  <CNN_Pose_Score>  (80) 
0.3561

>  <Num_Docked_Poses>  (80) 
5

>  <MMGBSA_Rank>  (80) 
80

>  <MMGBSA_dG_kcal_mol>  (80) 
-27.654

>  <MMGBSA_VdW_kcal_mol>  (80) 
-27.301

>  <MMGBSA_Elec_kcal_mol>  (80) 
-0.898

>  <MMGBSA_PolarSolv_kcal_mol>  (80) 
4.071

>  <MMGBSA_NonPolarSolv_kcal_mol>  (80) 
-3.526

>  <MMGBSA_Status>  (80) 
S

$$$$
CTX-1020750
     RDKit          3D

 35 39  0  0  0  0  0  0  0  0999 V2000
   44.0429   -2.9497  -32.0150 C   0  0  0  0  0  0  0  0  0  0  0  0
   42.8543   -2.2825  -32.0263 N   0  0  0  0  0  0  0  0  0  0  0  0
   44.2146   -4.2360  -32.5042 C   0  0  0  0  0  0  0  0  0  0  0  0
   41.7885   -2.9281  -32.5622 C   0  0  0  0  0  0  0  0  0  0  0  0
   43.1074   -4.8875  -33.0359 C   0  0  0  0  0  0  0  0  0  0  0  0
   41.8683   -4.2393  -33.0589 C   0  0  0  0  0  0  0  0  0  0  0  0
   40.4579   -2.1951  -32.5386 C   0  0  0  0  0  0  0  0  0  0  0  0
   40.6661   -4.9178  -33.6704 C   0  0  0  0  0  0  0  0  0  0  0  0
   39.4681   -2.7929  -33.4329 N   0  0  0  0  0  0  0  0  0  0  0  0
   39.3484   -4.2421  -33.2723 C   0  0  0  0  0  0  0  0  0  0  0  0
   39.1758   -2.1198  -34.6279 C   0  0  0  0  0  0  0  0  0  0  0  0
   39.7777   -1.0874  -34.9280 O   0  0  0  0  0  0  0  0  0  0  0  0
   38.1463   -2.6604  -35.5036 C   0  0  0  0  0  0  0  0  0  0  0  0
   38.4429   -3.7038  -36.3388 O   0  0  0  0  0  0  0  0  0  0  0  0
   36.7932   -2.3505  -35.6034 C   0  0  0  0  0  0  0  0  0  0  0  0
   37.3037   -4.0422  -36.9952 C   0  0  0  0  0  0  0  0  0  0  0  0
   36.2507   -3.2381  -36.5825 C   0  0  0  0  0  0  0  0  0  0  0  0
   36.0681   -1.3079  -34.8328 C   0  0  0  0  0  0  0  0  0  0  0  0
   37.1942   -5.0538  -37.9468 C   0  0  0  0  0  0  0  0  0  0  0  0
   34.9836   -3.4551  -37.1565 C   0  0  0  0  0  0  0  0  0  0  0  0
   35.9280   -5.2498  -38.5068 C   0  0  0  0  0  0  0  0  0  0  0  0
   34.8397   -4.4648  -38.1194 C   0  0  0  0  0  0  0  0  0  0  0  0
   46.3415   -2.6819  -31.4396 O   0  0  0  0  0  0  0  0  0  0  0  0
   45.2107   -2.2091  -31.4360 C   0  0  0  0  0  0  0  0  0  0  0  0
   44.8966   -0.9717  -30.9223 N   0  0  0  0  0  0  0  0  0  0  0  0
   43.9515   -0.6999  -30.8772 H   0  0  0  0  0  0  0  0  0  0  0  0
   45.9064   -0.0634  -30.4493 C   0  0  0  0  0  0  0  0  0  0  0  0
   45.3345    0.8980  -29.4438 C   0  0  0  0  0  0  0  0  0  0  0  0
   44.2832    1.7558  -29.7933 C   0  0  0  0  0  0  0  0  0  0  0  0
   45.8097    0.9158  -28.1274 C   0  0  0  0  0  0  0  0  0  0  0  0
   43.7299    2.6302  -28.8507 C   0  0  0  0  0  0  0  0  0  0  0  0
   45.2560    1.7900  -27.1892 C   0  0  0  0  0  0  0  0  0  0  0  0
   44.2160    2.6520  -27.5437 C   0  0  0  0  0  0  0  0  0  0  0  0
   43.7664    3.4528  -26.5300 O   0  0  0  0  0  0  0  0  0  0  0  0
   44.1759    4.8141  -26.5581 C   0  0  0  0  0  0  0  0  0  0  0  0
 23 24  2  0
 24 25  1  0
 24  1  1  0
 25 27  1  0
  1  2  2  0
  1  3  1  0
 27 28  1  0
  2  4  1  0
  3  5  2  0
 28 29  2  0
 28 30  1  0
  4  6  2  0
  4  7  1  0
 29 31  1  0
 30 32  2  0
  6  8  1  0
  7  9  1  0
 31 33  2  0
  8 10  1  0
  9 11  1  0
 33 34  1  0
 11 12  2  0
 11 13  1  0
 34 35  1  0
 13 14  1  0
 13 15  2  0
 14 16  1  0
 15 17  1  0
 15 18  1  0
 16 19  2  0
 17 20  2  0
 19 21  1  0
 20 22  1  0
  5  6  1  0
 32 33  1  0
  9 10  1  0
 16 17  1  0
 21 22  2  0
 25 26  1  0
M  END
>  <Molecule Name>  (81) 
CTX-1020750

>  <SMILES>  (81) 
COC1=CC=C(CNC(=O)C2=NC3=C(CCN(C3)C(=O)C3=C(C)C4=C(O3)C=CC=C4)C=C2)C=C1

>  <Batch Name>  (81) 
CTX-1020750-1

>  <Batch Created Date>  (81) 
2021-12-16

>  <Batch ID>  (81) 
CTX-1020750-1

>  <External ID>  (81) 
P841-0367

>  <Stereochemistry>  (81) 
Achiral

>  <Amount 1>  (81) 
5.0

>  <Unit 1>  (81) 
mg

>  <CRO 1>  (81) 
Pharmaron

>  <CRO 1 Total Amount>  (81) 
13.85

>  <CRO 1 Unit>  (81) 
mg

>  <pIC50>  (81) 
6.116339

>  <SMILES_std>  (81) 
COc1ccc(CNC(=O)c2ccc3c(n2)CN(C(=O)c2oc4ccccc4c2C)CC3)cc1

>  <embed_status>  (81) 
0

>  <mmff_status>  (81) 
0

>  <minimizedAffinity>  (81) 
-5.76533

>  <CNNscore>  (81) 
0.4361670613

>  <CNNaffinity>  (81) 
5.0390353203

>  <CNN_VS>  (81) 
2.1978611946

>  <CNNaffinity_variance>  (81) 
0.1404228061

>  <Docking_Rank>  (81) 
81

>  <Vina_Affinity_kcal_mol>  (81) 
-5.770

>  <CNN_pKi>  (81) 
5.039

>  <CNN_Pose_Score>  (81) 
0.4362

>  <Num_Docked_Poses>  (81) 
5

>  <MMGBSA_Rank>  (81) 
81

>  <MMGBSA_dG_kcal_mol>  (81) 
-27.021

>  <MMGBSA_VdW_kcal_mol>  (81) 
-25.845

>  <MMGBSA_Elec_kcal_mol>  (81) 
-5.510

>  <MMGBSA_PolarSolv_kcal_mol>  (81) 
8.314

>  <MMGBSA_NonPolarSolv_kcal_mol>  (81) 
-3.979

>  <MMGBSA_Status>  (81) 
S

$$$$
CTX-1020520
     RDKit          3D

 45 51  0  0  0  0  0  0  0  0999 V2000
   42.9206    0.8939  -33.0440 C   0  0  0  0  0  0  0  0  0  0  0  0
   42.1722   -0.1929  -32.7318 N   0  0  0  0  0  0  0  0  0  0  0  0
   42.9150    1.5052  -34.2875 C   0  0  0  0  0  0  0  0  0  0  0  0
   41.4125   -0.7226  -33.7202 C   0  0  0  0  0  0  0  0  0  0  0  0
   42.1069    0.9683  -35.2986 C   0  0  0  0  0  0  0  0  0  0  0  0
   41.3772   -0.2115  -35.0292 C   0  0  0  0  0  0  0  0  0  0  0  0
   40.4998   -1.8679  -33.3306 C   0  0  0  0  0  0  0  0  0  0  0  0
   40.5514   -0.9873  -36.0271 C   0  0  0  0  0  0  0  0  0  0  0  0
   40.2599   -2.8554  -34.3749 N   0  0  0  0  0  0  0  0  0  0  0  0
   40.5883   -2.4957  -35.7508 C   0  0  0  0  0  0  0  0  0  0  0  0
   39.6962   -4.0736  -33.9762 C   0  0  0  0  0  0  0  0  0  0  0  0
   39.2473   -4.1884  -32.8325 O   0  0  0  0  0  0  0  0  0  0  0  0
   39.6427   -5.1867  -34.9164 C   0  0  0  0  0  0  0  0  0  0  0  0
   38.6152   -5.2799  -35.8168 O   0  0  0  0  0  0  0  0  0  0  0  0
   40.5480   -6.2220  -35.1362 C   0  0  0  0  0  0  0  0  0  0  0  0
   38.8378   -6.3738  -36.5884 C   0  0  0  0  0  0  0  0  0  0  0  0
   40.0188   -6.9976  -36.2131 C   0  0  0  0  0  0  0  0  0  0  0  0
   41.8135   -6.4600  -34.3949 C   0  0  0  0  0  0  0  0  0  0  0  0
   38.0078   -6.8152  -37.6165 C   0  0  0  0  0  0  0  0  0  0  0  0
   40.4130   -8.1526  -36.9151 C   0  0  0  0  0  0  0  0  0  0  0  0
   38.4162   -7.9654  -38.2986 C   0  0  0  0  0  0  0  0  0  0  0  0
   39.5988   -8.6246  -37.9552 C   0  0  0  0  0  0  0  0  0  0  0  0
   42.0239    1.6698  -36.5425 N   0  0  0  0  0  0  0  0  0  0  0  0
   41.0733    2.6100  -36.7710 N   0  0  0  0  0  0  0  0  0  0  0  0
   42.8779    1.5737  -37.6267 C   0  0  0  0  0  0  0  0  0  0  0  0
   41.3383    3.0891  -37.9855 C   0  0  0  0  0  0  0  0  0  0  0  0
   42.4526    2.4787  -38.5695 C   0  0  0  0  0  0  0  0  0  0  0  0
   44.9963    1.4131  -32.0040 O   0  0  0  0  0  0  0  0  0  0  0  0
   43.7727    1.4506  -31.9428 C   0  0  0  0  0  0  0  0  0  0  0  0
   43.0599    1.9770  -30.8893 N   0  0  0  0  0  0  0  0  0  0  0  0
   42.0849    2.0760  -30.9830 H   0  0  0  0  0  0  0  0  0  0  0  0
   43.6792    2.3890  -29.6557 C   0  0  0  0  0  0  0  0  0  0  0  0
   43.4930    3.8655  -29.4290 C   0  0  0  0  0  0  0  0  0  0  0  0
   43.1108    4.7022  -30.4790 C   0  0  0  0  0  0  0  0  0  0  0  0
   43.7289    4.4381  -28.1772 C   0  0  0  0  0  0  0  0  0  0  0  0
   42.9602    6.0787  -30.2713 C   0  0  0  0  0  0  0  0  0  0  0  0
   43.5732    5.8183  -27.9803 C   0  0  0  0  0  0  0  0  0  0  0  0
   43.2008    6.6779  -29.0229 C   0  0  0  0  0  0  0  0  0  0  0  0
   43.0254    8.0554  -28.8671 N   0  0  0  0  0  0  0  0  0  0  0  0
   43.7212    8.6782  -27.7170 C   0  0  0  0  0  0  0  0  0  0  0  0
   41.7193    8.6848  -29.1462 C   0  0  0  0  0  0  0  0  0  0  0  0
   42.7971    8.7450  -26.4750 C   0  0  0  0  0  0  0  0  0  0  0  0
   40.8355    8.7782  -27.8773 C   0  0  0  0  0  0  0  0  0  0  0  0
   41.4816    9.3920  -26.6939 N   0  0  0  0  0  0  0  0  0  0  0  0
   41.6114   10.8397  -26.8418 C   0  0  0  0  0  0  0  0  0  0  0  0
 28 29  2  0
 29 30  1  0
 29  1  1  0
 30 32  1  0
  1  2  2  0
  1  3  1  0
 32 33  1  0
  2  4  1  0
  3  5  2  0
 33 34  2  0
 33 35  1  0
  4  6  2  0
  4  7  1  0
  5 23  1  0
 34 36  1  0
 35 37  2  0
  6  8  1  0
  7  9  1  0
 23 24  1  0
 23 25  1  0
 36 38  2  0
  8 10  1  0
  9 11  1  0
 24 26  2  0
 25 27  2  0
 38 39  1  0
 11 12  2  0
 11 13  1  0
 39 40  1  0
 39 41  1  0
 13 14  1  0
 13 15  2  0
 40 42  1  0
 41 43  1  0
 14 16  1  0
 15 17  1  0
 15 18  1  0
 42 44  1  0
 16 19  2  0
 17 20  2  0
 44 45  1  0
 19 21  1  0
 20 22  1  0
  5  6  1  0
 37 38  1  0
  9 10  1  0
 26 27  1  0
 43 44  1  0
 16 17  1  0
 21 22  2  0
 30 31  1  0
M  END
>  <Molecule Name>  (82) 
CTX-1020520

>  <SMILES>  (82) 
CN1CCN(CC1)C1=CC=C(CNC(=O)C2=CC(N3C=CC=N3)=C3CCN(CC3=N2)C(=O)C2=C(C)C3=C(O2)C=CC=C3)C=C1

>  <Batch Name>  (82) 
CTX-1020520-1

>  <Batch Created Date>  (82) 
2021-11-04

>  <Batch ID>  (82) 
CTX-1020520-1

>  <External ID>  (82) 
610EDL127-2

>  <Stereochemistry>  (82) 
Achiral

>  <Amount 1>  (82) 
5.0

>  <Unit 1>  (82) 
mg

>  <CRO 1>  (82) 
Pharmaron

>  <CRO 1 Total Amount>  (82) 
22.6

>  <CRO 1 Unit>  (82) 
mg

>  <pIC50>  (82) 
5.533132

>  <SMILES_std>  (82) 
Cc1c(C(=O)N2CCc3c(-n4cccn4)cc(C(=O)NCc4ccc(N5CCN(C)CC5)cc4)nc3C2)oc2ccccc12

>  <embed_status>  (82) 
0

>  <mmff_status>  (82) 
0

>  <minimizedAffinity>  (82) 
-5.72731

>  <CNNscore>  (82) 
0.2154235989

>  <CNNaffinity>  (82) 
5.7544350624

>  <CNN_VS>  (82) 
1.2396410704

>  <CNNaffinity_variance>  (82) 
0.2768267691

>  <Docking_Rank>  (82) 
74

>  <Vina_Affinity_kcal_mol>  (82) 
-5.730

>  <CNN_pKi>  (82) 
5.754

>  <CNN_Pose_Score>  (82) 
0.2154

>  <Num_Docked_Poses>  (82) 
5

>  <MMGBSA_Rank>  (82) 
82

>  <MMGBSA_dG_kcal_mol>  (82) 
-25.198

>  <MMGBSA_VdW_kcal_mol>  (82) 
-25.260

>  <MMGBSA_Elec_kcal_mol>  (82) 
-3.786

>  <MMGBSA_PolarSolv_kcal_mol>  (82) 
6.518

>  <MMGBSA_NonPolarSolv_kcal_mol>  (82) 
-2.670

>  <MMGBSA_Status>  (82) 
S

$$$$
CTX-1020523
     RDKit          3D

 40 45  0  0  0  0  0  0  0  0999 V2000
   42.3551   -0.3940  -33.7589 C   0  0  0  0  0  0  0  0  0  0  0  0
   41.6174   -0.6940  -34.8568 N   0  0  0  0  0  0  0  0  0  0  0  0
   42.1471   -0.8668  -32.5148 N   0  0  0  0  0  0  0  0  0  0  0  0
   40.5962   -1.5559  -34.6650 C   0  0  0  0  0  0  0  0  0  0  0  0
   41.1156   -1.7151  -32.3775 C   0  0  0  0  0  0  0  0  0  0  0  0
   40.3090   -2.1052  -33.4254 C   0  0  0  0  0  0  0  0  0  0  0  0
   39.7003   -1.8711  -35.8424 C   0  0  0  0  0  0  0  0  0  0  0  0
   39.1516   -3.0365  -33.2760 C   0  0  0  0  0  0  0  0  0  0  0  0
   38.9970   -3.1562  -35.7756 N   0  0  0  0  0  0  0  0  0  0  0  0
   39.0214   -3.9166  -34.5216 C   0  0  0  0  0  0  0  0  0  0  0  0
   38.3690   -3.5801  -36.9558 C   0  0  0  0  0  0  0  0  0  0  0  0
   38.2380   -2.7843  -37.8896 O   0  0  0  0  0  0  0  0  0  0  0  0
   37.8765   -4.9478  -37.0627 C   0  0  0  0  0  0  0  0  0  0  0  0
   38.7541   -5.9989  -37.0555 O   0  0  0  0  0  0  0  0  0  0  0  0
   36.5824   -5.4242  -37.2570 C   0  0  0  0  0  0  0  0  0  0  0  0
   38.0361   -7.1396  -37.2150 C   0  0  0  0  0  0  0  0  0  0  0  0
   36.6861   -6.8466  -37.3434 C   0  0  0  0  0  0  0  0  0  0  0  0
   35.3463   -4.6061  -37.3594 C   0  0  0  0  0  0  0  0  0  0  0  0
   38.5682   -8.4266  -37.2506 C   0  0  0  0  0  0  0  0  0  0  0  0
   35.7879   -7.9154  -37.5242 C   0  0  0  0  0  0  0  0  0  0  0  0
   37.6585   -9.4736  -37.4280 C   0  0  0  0  0  0  0  0  0  0  0  0
   36.2908   -9.2243  -37.5628 C   0  0  0  0  0  0  0  0  0  0  0  0
   44.1661    0.5991  -34.9970 O   0  0  0  0  0  0  0  0  0  0  0  0
   43.5007    0.5725  -33.9665 C   0  0  0  0  0  0  0  0  0  0  0  0
   43.7376    1.4125  -32.8899 N   0  0  0  0  0  0  0  0  0  0  0  0
   43.0871    1.4308  -32.1512 H   0  0  0  0  0  0  0  0  0  0  0  0
   44.9004    2.2603  -32.8109 C   0  0  0  0  0  0  0  0  0  0  0  0
   44.4995    3.7095  -32.7418 C   0  0  0  0  0  0  0  0  0  0  0  0
   45.1791    4.5939  -31.9019 C   0  0  0  0  0  0  0  0  0  0  0  0
   43.4187    4.1959  -33.4790 C   0  0  0  0  0  0  0  0  0  0  0  0
   44.7932    5.9385  -31.8192 C   0  0  0  0  0  0  0  0  0  0  0  0
   43.0418    5.5435  -33.3866 C   0  0  0  0  0  0  0  0  0  0  0  0
   43.7182    6.4546  -32.5601 C   0  0  0  0  0  0  0  0  0  0  0  0
   43.3426    7.7843  -32.4696 N   0  0  0  0  0  0  0  0  0  0  0  0
   42.4949    8.2835  -31.3750 C   0  0  0  0  0  0  0  0  0  0  0  0
   43.6699    8.7477  -33.5345 C   0  0  0  0  0  0  0  0  0  0  0  0
   42.7175    9.7997  -31.1669 C   0  0  0  0  0  0  0  0  0  0  0  0
   42.6238    9.8862  -33.6048 C   0  0  0  0  0  0  0  0  0  0  0  0
   42.3928   10.6295  -32.3480 N   0  0  0  0  0  0  0  0  0  0  0  0
   43.1400   11.8835  -32.3137 C   0  0  0  0  0  0  0  0  0  0  0  0
 23 24  2  0
 24 25  1  0
 24  1  1  0
 25 27  1  0
  1  2  2  0
  1  3  1  0
 27 28  1  0
  2  4  1  0
  3  5  2  0
 28 29  2  0
 28 30  1  0
  4  6  2  0
  4  7  1  0
 29 31  1  0
 30 32  2  0
  6  8  1  0
  7  9  1  0
 31 33  2  0
  8 10  1  0
  9 11  1  0
 33 34  1  0
 11 12  2  0
 11 13  1  0
 34 35  1  0
 34 36  1  0
 13 14  1  0
 13 15  2  0
 35 37  1  0
 36 38  1  0
 14 16  1  0
 15 17  1  0
 15 18  1  0
 37 39  1  0
 16 19  2  0
 17 20  2  0
 39 40  1  0
 19 21  1  0
 20 22  1  0
  5  6  1  0
 32 33  1  0
  9 10  1  0
 38 39  1  0
 16 17  1  0
 21 22  2  0
 25 26  1  0
M  END
>  <Molecule Name>  (83) 
CTX-1020523

>  <SMILES>  (83) 
CN1CCN(CC1)C1=CC=C(CNC(=O)C2=NC=C3CCN(CC3=N2)C(=O)C2=C(C)C3=C(O2)C=CC=C3)C=C1

>  <Batch Name>  (83) 
CTX-1020523-1

>  <Batch Created Date>  (83) 
2021-11-04

>  <Batch ID>  (83) 
CTX-1020523-1

>  <External ID>  (83) 
610EDL081-B

>  <Stereochemistry>  (83) 
Achiral

>  <Amount 1>  (83) 
5.3

>  <Unit 1>  (83) 
mg

>  <CRO 1>  (83) 
Pharmaron

>  <CRO 1 Total Amount>  (83) 
23.0

>  <CRO 1 Unit>  (83) 
mg

>  <pIC50>  (83) 
5.185752

>  <SMILES_std>  (83) 
Cc1c(C(=O)N2CCc3cnc(C(=O)NCc4ccc(N5CCN(C)CC5)cc4)nc3C2)oc2ccccc12

>  <embed_status>  (83) 
0

>  <mmff_status>  (83) 
0

>  <minimizedAffinity>  (83) 
-5.24990

>  <CNNscore>  (83) 
0.3923667371

>  <CNNaffinity>  (83) 
5.4941043854

>  <CNN_VS>  (83) 
2.1557037830

>  <CNNaffinity_variance>  (83) 
0.5311124921

>  <Docking_Rank>  (83) 
76

>  <Vina_Affinity_kcal_mol>  (83) 
-5.250

>  <CNN_pKi>  (83) 
5.494

>  <CNN_Pose_Score>  (83) 
0.3924

>  <Num_Docked_Poses>  (83) 
5

>  <MMGBSA_Rank>  (83) 
83

>  <MMGBSA_dG_kcal_mol>  (83) 
-24.860

>  <MMGBSA_VdW_kcal_mol>  (83) 
-25.261

>  <MMGBSA_Elec_kcal_mol>  (83) 
-4.547

>  <MMGBSA_PolarSolv_kcal_mol>  (83) 
7.776

>  <MMGBSA_NonPolarSolv_kcal_mol>  (83) 
-2.829

>  <MMGBSA_Status>  (83) 
S

$$$$
CTX-1020739
     RDKit          3D

 32 36  0  0  0  0  0  0  0  0999 V2000
   34.6807   11.3663  -34.1176 S   0  0  0  0  0  0  0  0  0  0  0  0
   35.9074   11.6991  -32.9638 C   0  0  0  0  0  0  0  0  0  0  0  0
   34.0939   12.9554  -34.0468 C   0  0  0  0  0  0  0  0  0  0  0  0
   35.8504   13.0185  -32.5457 C   0  0  0  0  0  0  0  0  0  0  0  0
   34.8014   13.7587  -33.1735 C   0  0  0  0  0  0  0  0  0  0  0  0
   32.9385   13.4344  -34.8685 C   0  0  0  0  0  0  0  0  0  0  0  0
   34.4675   15.2053  -32.9364 C   0  0  0  0  0  0  0  0  0  0  0  0
   32.3995   14.7319  -34.2493 C   0  0  0  0  0  0  0  0  0  0  0  0
   33.4930   15.6683  -33.9286 N   0  0  0  0  0  0  0  0  0  0  0  0
   33.4005   17.0516  -34.1182 C   0  0  0  0  0  0  0  0  0  0  0  0
   34.0046   17.8214  -33.3679 O   0  0  0  0  0  0  0  0  0  0  0  0
   32.6031   17.5514  -35.2286 C   0  0  0  0  0  0  0  0  0  0  0  0
   33.1516   17.6139  -36.4827 O   0  0  0  0  0  0  0  0  0  0  0  0
   31.3213   18.0928  -35.2508 C   0  0  0  0  0  0  0  0  0  0  0  0
   32.2244   18.1598  -37.3104 C   0  0  0  0  0  0  0  0  0  0  0  0
   31.0715   18.4744  -36.6048 C   0  0  0  0  0  0  0  0  0  0  0  0
   30.4084   18.2459  -34.0891 C   0  0  0  0  0  0  0  0  0  0  0  0
   32.3960   18.3815  -38.6750 C   0  0  0  0  0  0  0  0  0  0  0  0
   30.0009   19.0595  -37.3074 C   0  0  0  0  0  0  0  0  0  0  0  0
   31.3193   18.9600  -39.3540 C   0  0  0  0  0  0  0  0  0  0  0  0
   30.1406   19.2942  -38.6832 C   0  0  0  0  0  0  0  0  0  0  0  0
   36.8556   10.6866  -32.5141 C   0  0  0  0  0  0  0  0  0  0  0  0
   37.7461   10.2451  -33.2378 O   0  0  0  0  0  0  0  0  0  0  0  0
   36.7004   10.2540  -31.2145 N   0  0  0  0  0  0  0  0  0  0  0  0
   35.9197   10.5650  -30.7016 H   0  0  0  0  0  0  0  0  0  0  0  0
   37.6385    9.3630  -30.5781 C   0  0  0  0  0  0  0  0  0  0  0  0
   37.0005    8.6633  -29.4092 C   0  0  0  0  0  0  0  0  0  0  0  0
   35.6202    8.7451  -29.2015 C   0  0  0  0  0  0  0  0  0  0  0  0
   37.7602    7.8870  -28.5297 C   0  0  0  0  0  0  0  0  0  0  0  0
   35.0673    8.0654  -28.1282 C   0  0  0  0  0  0  0  0  0  0  0  0
   37.1144    7.2455  -27.4838 C   0  0  0  0  0  0  0  0  0  0  0  0
   35.7851    7.3181  -27.2626 N   0  0  0  0  0  0  0  0  0  0  0  0
  1  2  1  0
  1  3  1  0
  2 22  1  0
  2  4  2  0
  3  5  2  0
  3  6  1  0
 22 23  2  0
 22 24  1  0
  5  7  1  0
  6  8  1  0
 24 26  1  0
  7  9  1  0
 26 27  1  0
  9 10  1  0
 27 28  2  0
 27 29  1  0
 10 11  2  0
 10 12  1  0
 28 30  1  0
 29 31  2  0
 12 13  1  0
 12 14  2  0
 30 32  2  0
 13 15  1  0
 14 16  1  0
 14 17  1  0
 15 18  2  0
 16 19  2  0
 18 20  1  0
 19 21  1  0
  4  5  1  0
  8  9  1  0
 31 32  1  0
 15 16  1  0
 20 21  2  0
 24 25  1  0
M  END
>  <Molecule Name>  (84) 
CTX-1020739

>  <SMILES>  (84) 
CC1=C(OC2=C1C=CC=C2)C(=O)N1CCC2=C(C1)C=C(S2)C(=O)NCC1=CC=NC=C1

>  <Batch Name>  (84) 
CTX-1020739-1

>  <Batch Created Date>  (84) 
2021-12-16

>  <Batch ID>  (84) 
CTX-1020739-1

>  <External ID>  (84) 
P841-0354

>  <Stereochemistry>  (84) 
Achiral

>  <Amount 1>  (84) 
3.85

>  <Unit 1>  (84) 
mg

>  <CRO 1>  (84) 
Pharmaron

>  <CRO 1 Total Amount>  (84) 
27.55

>  <CRO 1 Unit>  (84) 
mg

>  <pIC50>  (84) 
5.051098

>  <SMILES_std>  (84) 
Cc1c(C(=O)N2CCc3sc(C(=O)NCc4ccncc4)cc3C2)oc2ccccc12

>  <embed_status>  (84) 
0

>  <mmff_status>  (84) 
0

>  <minimizedAffinity>  (84) 
-5.44868

>  <CNNscore>  (84) 
0.3489882350

>  <CNNaffinity>  (84) 
5.6021151543

>  <CNN_VS>  (84) 
1.9550722837

>  <CNNaffinity_variance>  (84) 
0.0373210050

>  <Docking_Rank>  (84) 
75

>  <Vina_Affinity_kcal_mol>  (84) 
-5.450

>  <CNN_pKi>  (84) 
5.602

>  <CNN_Pose_Score>  (84) 
0.3490

>  <Num_Docked_Poses>  (84) 
5

>  <MMGBSA_Rank>  (84) 
84

>  <MMGBSA_dG_kcal_mol>  (84) 
-24.691

>  <MMGBSA_VdW_kcal_mol>  (84) 
-24.370

>  <MMGBSA_Elec_kcal_mol>  (84) 
-3.216

>  <MMGBSA_PolarSolv_kcal_mol>  (84) 
6.221

>  <MMGBSA_NonPolarSolv_kcal_mol>  (84) 
-3.326

>  <MMGBSA_Status>  (84) 
S

$$$$
