
     RDKit          3D

 72 77  0  0  0  0  0  0  0  0999 V2000
   26.9470    0.3540  -27.3300 C   0  0  2  0  0  0  0  0  0  0  0  0
   29.8250    4.9020  -22.3860 C   0  0  0  0  0  0  0  0  0  0  0  0
   30.8430    5.9470  -22.4770 C   0  0  1  0  0  0  0  0  0  0  0  0
   31.2020    8.3460  -22.8270 C   0  0  1  0  0  0  0  0  0  0  0  0
   32.2700    8.3030  -23.8870 C   0  0  0  0  0  0  0  0  0  0  0  0
   32.0290    7.7170  -25.1190 C   0  0  0  0  0  0  0  0  0  0  0  0
   33.0080    7.6670  -26.0860 C   0  0  0  0  0  0  0  0  0  0  0  0
   34.2710    8.1990  -25.8400 C   0  0  0  0  0  0  0  0  0  0  0  0
   35.0710    8.7310  -28.1420 C   0  0  2  0  0  0  0  0  0  0  0  0
   36.0940    8.1960  -29.1140 C   0  0  2  0  0  0  0  0  0  0  0  0
   38.4270    7.6480  -29.3690 C   0  0  2  0  0  0  0  0  0  0  0  0
   26.2700    1.6820  -27.4130 C   0  0  0  0  0  0  0  0  0  0  0  0
   37.6270    8.5250  -27.2540 C   0  0  1  0  0  0  0  0  0  0  0  0
   36.6010    7.6670  -26.5560 C   0  0  1  0  0  0  0  0  0  0  0  0
   34.5060    8.7930  -24.6020 C   0  0  0  0  0  0  0  0  0  0  0  0
   33.5220    8.8320  -23.6400 C   0  0  0  0  0  0  0  0  0  0  0  0
   27.8490    3.9970  -23.1470 C   0  0  0  0  0  0  0  0  0  0  0  0
   26.7260    4.0550  -24.1530 C   0  0  1  0  0  0  0  0  0  0  0  0
   25.4430    3.6200  -28.2350 C   0  0  0  0  0  0  0  0  0  0  0  0
   25.1130    4.6370  -29.1050 C   0  0  0  0  0  0  0  0  0  0  0  0
   25.5190    4.4740  -30.4090 C   0  0  0  0  0  0  0  0  0  0  0  0
   26.2170    3.3450  -30.8170 C   0  0  0  0  0  0  0  0  0  0  0  0
   25.6560    2.3880  -26.4310 C   0  0  0  0  0  0  0  0  0  0  0  0
   26.5310    2.3400  -29.9350 C   0  0  0  0  0  0  0  0  0  0  0  0
   26.1380    2.4780  -28.6040 C   0  0  0  0  0  0  0  0  0  0  0  0
   25.4990    2.0520  -25.0560 C   0  0  0  0  0  0  0  0  0  0  0  0
   25.5300    2.5380  -22.6500 C   0  0  2  0  0  0  0  0  0  0  0  0
   26.7880    1.9710  -22.0500 C   0  0  2  0  0  0  0  0  0  0  0  0
   27.8800    2.9940  -22.1750 C   0  0  0  0  0  0  0  0  0  0  0  0
   28.9380    2.9900  -21.2810 C   0  0  0  0  0  0  0  0  0  0  0  0
   29.9270    3.9370  -21.3670 C   0  0  0  0  0  0  0  0  0  0  0  0
   25.8620    2.8690  -24.0380 N   0  0  0  0  0  0  0  0  0  0  0  0
   30.3790    7.1480  -22.8190 N   0  0  0  0  0  0  0  0  0  0  0  0
   35.2500    8.1760  -26.7970 N   0  0  0  0  0  0  0  0  0  0  0  0
   37.4620    8.5250  -28.7100 N   0  0  0  0  0  0  0  0  0  0  0  0
   28.8120    4.9270  -23.2350 N   0  0  0  0  0  0  0  0  0  0  0  0
   25.0460    0.9370  -24.8260 O   0  0  0  0  0  0  0  0  0  0  0  0
   32.0130    5.7190  -22.1870 O   0  0  0  0  0  0  0  0  0  0  0  0
   25.1410    3.5860  -26.9030 O   0  0  0  0  0  0  0  0  0  0  0  0
   27.5820    0.2630  -28.0600 H   0  0  0  0  0  0  0  0  0  0  0  0
   26.2830   -0.3540  -27.3910 H   0  0  0  0  0  0  0  0  0  0  0  0
   27.4190    0.2800  -26.4840 H   0  0  0  0  0  0  0  0  0  0  0  0
   29.5380    7.2160  -23.0540 H   0  0  0  0  0  0  0  0  0  0  0  0
   31.6220    8.4530  -21.9480 H   0  0  0  0  0  0  0  0  0  0  0  0
   30.6320    9.1260  -22.9800 H   0  0  0  0  0  0  0  0  0  0  0  0
   31.1840    7.3430  -25.3050 H   0  0  0  0  0  0  0  0  0  0  0  0
   32.8260    7.2620  -26.9070 H   0  0  0  0  0  0  0  0  0  0  0  0
   34.1830    8.5100  -28.4730 H   0  0  0  0  0  0  0  0  0  0  0  0
   35.1390    9.7040  -28.1000 H   0  0  0  0  0  0  0  0  0  0  0  0
   35.9220    8.5850  -29.9940 H   0  0  0  0  0  0  0  0  0  0  0  0
   35.9920    7.2270  -29.1940 H   0  0  0  0  0  0  0  0  0  0  0  0
   38.2150    7.5880  -30.3180 H   0  0  0  0  0  0  0  0  0  0  0  0
   38.3860    6.7590  -28.9730 H   0  0  0  0  0  0  0  0  0  0  0  0
   39.3260    8.0110  -29.2630 H   0  0  0  0  0  0  0  0  0  0  0  0
   37.5560    9.4430  -26.9220 H   0  0  0  0  0  0  0  0  0  0  0  0
   38.5200    8.1970  -27.0260 H   0  0  0  0  0  0  0  0  0  0  0  0
   36.6660    6.7410  -26.8750 H   0  0  0  0  0  0  0  0  0  0  0  0
   36.7880    7.6650  -25.5980 H   0  0  0  0  0  0  0  0  0  0  0  0
   35.3410    9.1650  -24.4210 H   0  0  0  0  0  0  0  0  0  0  0  0
   33.7060    9.2400  -22.8100 H   0  0  0  0  0  0  0  0  0  0  0  0
   26.1970    4.8630  -23.9970 H   0  0  0  0  0  0  0  0  0  0  0  0
   27.1120    4.1150  -25.0470 H   0  0  0  0  0  0  0  0  0  0  0  0
   24.6490    5.3980  -28.8210 H   0  0  0  0  0  0  0  0  0  0  0  0
   25.3220    5.1460  -31.0400 H   0  0  0  0  0  0  0  0  0  0  0  0
   26.4850    3.2680  -31.7140 H   0  0  0  0  0  0  0  0  0  0  0  0
   27.0040    1.5860  -30.2190 H   0  0  0  0  0  0  0  0  0  0  0  0
   25.2640    3.3410  -22.1700 H   0  0  0  0  0  0  0  0  0  0  0  0
   24.8030    1.8950  -22.5950 H   0  0  0  0  0  0  0  0  0  0  0  0
   27.0450    1.1530  -22.5240 H   0  0  0  0  0  0  0  0  0  0  0  0
   26.6390    1.7530  -21.1060 H   0  0  0  0  0  0  0  0  0  0  0  0
   28.9600    2.3460  -20.6050 H   0  0  0  0  0  0  0  0  0  0  0  0
   30.6400    3.9460  -20.7560 H   0  0  0  0  0  0  0  0  0  0  0  0
  3  2  1  0
  5  4  1  0
  6  5  1  0
  7  6  1  0
  8  7  1  0
 10  9  1  0
 12  1  1  0
 14 13  1  0
 15  8  1  0
 16  5  1  0
 16 15  1  0
 18 17  1  0
 20 19  1  0
 21 20  1  0
 22 21  1  0
 23 12  1  0
 24 22  1  0
 25 24  1  0
 25 19  1  0
 25 12  1  0
 26 23  1  0
 28 27  1  0
 29 28  1  0
 29 17  1  0
 30 29  1  0
 31  2  1  0
 31 30  1  0
 32 27  1  0
 32 26  1  0
 32 18  1  0
 33  4  1  0
 33  3  1  0
 34  9  1  0
 34 14  1  0
 34  8  1  0
 35 13  1  0
 35 10  1  0
 35 11  1  0
 36 17  1  0
 36  2  1  0
 37 26  1  0
  3 38  1  1
 39 19  1  0
 39 23  1  0
  1 40  1  6
 41  1  1  0
 42  1  1  0
 43 33  1  0
  4 44  1  1
 45  4  1  0
 46  6  1  0
 47  7  1  0
  9 48  1  6
 49  9  1  0
 10 50  1  6
 51 10  1  0
 11 52  1  6
 53 11  1  0
 54 11  1  0
 13 55  1  1
 56 13  1  0
 14 57  1  6
 58 14  1  0
 59 15  1  0
 60 16  1  0
 18 61  1  1
 62 18  1  0
 63 20  1  0
 64 21  1  0
 65 22  1  0
 66 24  1  0
 27 67  1  1
 68 27  1  0
 28 69  1  6
 70 28  1  0
 71 30  1  0
 72 31  1  0
M  END
$$$$
