Compound 11
     RDKit          3D

 37 40  0  0  0  0  0  0  0  0999 V2000
   11.0430 -105.5652   26.8370 C   0  0  0  0  0  0  0  0  0  0  0  0
   12.1376 -105.2632   27.8328 C   0  0  0  0  0  0  0  0  0  0  0  0
    9.6619 -105.1215   27.0674 C   0  0  0  0  0  0  0  0  0  0  0  0
   11.8218 -104.5048   29.0696 C   0  0  0  0  0  0  0  0  0  0  0  0
    9.3461 -104.3631   28.3042 C   0  0  0  0  0  0  0  0  0  0  0  0
   10.4407 -104.0610   29.3000 C   0  0  0  0  0  0  0  0  0  0  0  0
   12.9165 -104.2028   30.0654 C   0  0  0  0  0  0  0  0  0  0  0  0
   14.1867 -104.9704   30.0213 O   0  0  0  0  0  0  0  0  0  0  0  0
   12.7315 -103.1084   31.1258 N   0  0  0  0  0  0  0  0  0  0  0  0
   11.8902 -102.5979   31.1573 H   0  0  0  0  0  0  0  0  0  0  0  0
   13.8262 -102.8065   32.1215 C   0  0  0  0  0  0  0  0  0  0  0  0
   15.2056 -102.3266   31.6483 C   0  0  0  0  0  0  0  0  0  0  0  0
   13.5697 -102.9743   33.5743 C   0  0  0  0  0  0  0  0  0  0  0  0
   15.5180 -102.1387   30.1634 O   0  0  0  0  0  0  0  0  0  0  0  0
   16.3004 -102.0247   32.6438 N   0  0  0  0  0  0  0  0  0  0  0  0
   14.6646 -102.6723   34.5699 C   0  0  0  0  0  0  0  0  0  0  0  0
   16.0438 -102.1925   34.0966 C   0  0  0  0  0  0  0  0  0  0  0  0
   17.1387 -101.8906   35.0923 O   0  0  0  0  0  0  0  0  0  0  0  0
   17.1817 -101.7176   32.3304 H   0  0  0  0  0  0  0  0  0  0  0  0
   11.3588 -106.3237   25.6002 C   0  0  0  0  0  0  0  0  0  0  0  0
   10.9988 -105.8052   23.1496 S   0  0  0  0  0  0  0  0  0  0  0  0
    9.7737 -106.5354   22.5818 O   0  0  0  0  0  0  0  0  0  0  0  0
   10.1424 -106.7232   24.0224 O   0  0  0  0  0  0  0  0  0  0  0  0
   11.8153 -105.5867   24.3635 N   0  0  0  0  0  0  0  0  0  0  0  0
   11.1403 -105.2572   21.7708 C   0  0  0  0  0  0  0  0  0  0  0  0
   13.0016 -104.7456   24.4960 C   0  0  0  0  0  0  0  0  0  0  0  0
   12.1683 -104.3282   21.2617 C   0  0  0  0  0  0  0  0  0  0  0  0
   13.6545 -103.9218   23.4443 C   0  0  0  0  0  0  0  0  0  0  0  0
   13.2857 -103.7340   22.0036 N   0  0  0  0  0  0  0  0  0  0  0  0
   14.1473 -102.8358   21.2043 C   0  0  0  0  0  0  0  0  0  0  0  0
   15.3015 -102.1837   21.8510 O   0  0  0  0  0  0  0  0  0  0  0  0
   13.8342 -102.6007   19.7454 C   0  0  0  0  0  0  0  0  0  0  0  0
   12.4667 -102.2051   19.3435 N   0  0  0  0  0  0  0  0  0  0  0  0
   14.9171 -102.7668   18.6714 C   0  0  0  0  0  0  0  0  0  0  0  0
   12.1535 -101.9699   17.8844 C   0  0  0  0  0  0  0  0  0  0  0  0
   14.6040 -102.5317   17.2123 C   0  0  0  0  0  0  0  0  0  0  0  0
   13.2365 -102.1361   16.8105 C   0  0  0  0  0  0  0  0  0  0  0  0
 21 22  2  0
 21 23  2  0
 21 24  1  0
 21 25  1  0
 24 26  1  0
 24 20  1  0
 25 27  1  0
 26 28  1  0
 20  1  1  0
 27 29  1  0
  1  2  2  0
  1  3  1  0
 29 30  1  0
  2  4  1  0
  3  5  2  0
 30 31  2  0
 30 32  1  0
  4  7  1  0
  4  6  2  0
 32 33  2  0
 32 34  1  0
  7  8  2  0
  7  9  1  0
 33 35  1  0
 34 36  2  0
 11  9  1  0
 35 37  2  0
 11 12  1  0
 11 13  1  0
 12 14  2  0
 12 15  1  0
 13 16  1  0
 15 17  1  0
 17 18  2  0
 28 29  1  0
  5  6  1  0
 36 37  1  0
 16 17  1  0
  9 10  1  0
 15 19  1  0
M  END
>  <Molecule Name>  (1) 
Compound 11

>  <EC50 (µM) (Excel)>  (1) 
37.7

>  <Error (µM)>  (1) 
0.8

>  <HTRC CRBN-DDB1 EC50 (µM)>  (1) 
37.72 ±  0.78

>  <EC50 fitting (µM)>  (1) 
52.96

>  <Modèle Fitting>  (1) 
3PL
$$$$

>  <minimizedAffinity>  (1) 
-8.03617

>  <CNNscore>  (1) 
0.7261142135

>  <CNNaffinity>  (1) 
7.2562489510

>  <CNN_VS>  (1) 
5.2688655853

>  <CNNaffinity_variance>  (1) 
0.2845494449

$$$$
