Compound 1
     RDKit          3D

 34 36  0  0  0  0  0  0  0  0999 V2000
   12.9874 -106.0913   21.6413 N   0  0  0  0  0  0  0  0  0  0  0  0
   13.4925 -105.5159   22.9158 C   0  0  0  0  0  0  0  0  0  0  0  0
   11.7367 -106.8605   21.3437 C   0  0  0  0  0  0  0  0  0  0  0  0
   12.8526 -105.5718   24.2357 C   0  0  0  0  0  0  0  0  0  0  0  0
   10.6568 -107.2500   22.2839 C   0  0  0  0  0  0  0  0  0  0  0  0
   11.5534 -106.2174   24.5952 N   0  0  0  0  0  0  0  0  0  0  0  0
   10.5738 -106.9652   23.7284 C   0  0  0  0  0  0  0  0  0  0  0  0
   11.1872 -106.0978   26.0116 C   0  0  0  0  0  0  0  0  0  0  0  0
    9.9037 -106.7106   26.4755 O   0  0  0  0  0  0  0  0  0  0  0  0
   14.8231 -104.7904   22.8281 C   0  0  0  0  0  0  0  0  0  0  0  0
   16.0967 -105.5656   22.8932 O   0  0  0  0  0  0  0  0  0  0  0  0
   14.8750 -103.2562   22.6719 O   0  0  0  0  0  0  0  0  0  0  0  0
   16.1959 -102.5450   22.4386 C   0  0  0  0  0  0  0  0  0  0  0  0
   13.8639 -105.8672   20.4766 C   0  0  0  0  0  0  0  0  0  0  0  0
   12.4821 -102.5446   18.9542 C   0  0  0  0  0  0  0  0  0  0  0  0
   12.5229 -103.8669   19.6375 C   0  0  0  0  0  0  0  0  0  0  0  0
   13.7185 -101.8772   18.4179 C   0  0  0  0  0  0  0  0  0  0  0  0
   13.8231 -104.5450   19.7933 C   0  0  0  0  0  0  0  0  0  0  0  0
   15.0186 -102.5554   18.5737 C   0  0  0  0  0  0  0  0  0  0  0  0
   15.0595 -103.8777   19.2571 C   0  0  0  0  0  0  0  0  0  0  0  0
   11.0002 -101.7266   21.4336 O   0  0  0  0  0  0  0  0  0  0  0  0
   10.4275 -101.4505   20.0308 C   0  0  0  0  0  0  0  0  0  0  0  0
   11.1819 -101.8664   18.7984 N   0  0  0  0  0  0  0  0  0  0  0  0
    9.0729 -100.7443   19.8457 N   0  0  0  0  0  0  0  0  0  0  0  0
   10.6092 -101.5903   17.3955 C   0  0  0  0  0  0  0  0  0  0  0  0
    8.5000 -100.4681   18.4428 C   0  0  0  0  0  0  0  0  0  0  0  0
    9.2546 -100.8841   17.2104 C   0  0  0  0  0  0  0  0  0  0  0  0
    7.1455  -99.7620   18.2579 O   0  0  0  0  0  0  0  0  0  0  0  0
    8.5625 -100.4635   20.6394 H   0  0  0  0  0  0  0  0  0  0  0  0
   12.1062 -105.3703   26.9380 O   0  0  0  0  0  0  0  0  0  0  0  0
   11.5330 -104.5964   28.0459 C   0  0  0  0  0  0  0  0  0  0  0  0
   12.7413 -104.9414   28.8619 C   0  0  0  0  0  0  0  0  0  0  0  0
   10.9600 -103.8226   29.1540 C   0  0  0  0  0  0  0  0  0  0  0  0
   10.3449 -104.2853   27.1747 C   0  0  0  0  0  0  0  0  0  0  0  0
 21 22  2  0
 22 23  1  0
 22 24  1  0
 23 15  1  0
 23 25  1  0
 24 26  1  0
 15 16  2  0
 15 17  1  0
 25 27  1  0
 26 28  2  0
 16 18  1  0
 17 19  2  0
 18 20  2  0
 18 14  1  0
 14  1  1  0
  1  2  1  0
  1  3  1  0
  2 10  1  0
  2  4  1  0
  3  5  1  0
 10 11  2  0
 10 12  1  0
  4  6  1  0
  5  7  1  0
 12 13  1  0
  6  8  1  0
  8  9  2  0
  8 30  1  0
 30 31  1  0
 31 32  1  0
 31 33  1  0
 31 34  1  0
 26 27  1  0
 19 20  1  0
  6  7  1  0
 24 29  1  0
M  END
>  <Molecule Name>  (1) 
Compound 1

>  <EC50 (µM) (Excel)>  (1) 
49.5

>  <Error (µM)>  (1) 
6.2

>  <HTRC CRBN-DDB1 EC50 (µM)>  (1) 
49.46 ±  6.19

>  <EC50 fitting (µM)>  (1) 
60.01

>  <Modèle Fitting>  (1) 
3PL
$$$$

>  <minimizedAffinity>  (1) 
-7.68030

>  <CNNscore>  (1) 
0.3641695082

>  <CNNaffinity>  (1) 
6.0815753937

>  <CNN_VS>  (1) 
2.2147243023

>  <CNNaffinity_variance>  (1) 
0.6884779334

$$$$
