Compound 4
     RDKit          3D

 31 34  0  0  0  0  0  0  0  0999 V2000
   20.8164 -107.8165   23.7012 C   0  0  0  0  0  0  0  0  0  0  0  0
   19.6618 -108.6364   23.7826 C   0  0  0  0  0  0  0  0  0  0  0  0
   21.7015 -107.6501   24.7844 C   0  0  0  0  0  0  0  0  0  0  0  0
   19.3750 -109.3080   24.9635 C   0  0  0  0  0  0  0  0  0  0  0  0
   21.4147 -108.3217   25.9650 C   0  0  0  0  0  0  0  0  0  0  0  0
   20.2601 -109.1415   26.0465 C   0  0  0  0  0  0  0  0  0  0  0  0
   18.3172 -110.1728   25.3200 C   0  0  0  0  0  0  0  0  0  0  0  0
   19.7378 -109.9148   27.0814 C   0  0  0  0  0  0  0  0  0  0  0  0
   18.5507 -110.5480   26.6451 N   0  0  0  0  0  0  0  0  0  0  0  0
   17.4649 -111.2869   26.6421 C   0  0  0  0  0  0  0  0  0  0  0  0
   18.3686 -111.1172   27.7486 C   0  0  0  0  0  0  0  0  0  0  0  0
   17.5786 -111.5596   27.5105 C   0  0  0  0  0  0  0  0  0  0  0  0
   16.0865 -112.1141   26.3638 O   0  0  0  0  0  0  0  0  0  0  0  0
   18.3277 -111.7007   29.1264 O   0  0  0  0  0  0  0  0  0  0  0  0
   17.8451 -111.8754   28.7439 O   0  0  0  0  0  0  0  0  0  0  0  0
   15.6991 -112.6610   27.0650 H   0  0  0  0  0  0  0  0  0  0  0  0
   19.0241 -111.4839   29.7658 H   0  0  0  0  0  0  0  0  0  0  0  0
   19.8162 -104.9981   23.3649 O   0  0  0  0  0  0  0  0  0  0  0  0
   20.6297 -105.6930   22.2523 C   0  0  0  0  0  0  0  0  0  0  0  0
   21.1188 -107.1038   22.4450 N   0  0  0  0  0  0  0  0  0  0  0  0
   20.9601 -104.9594   20.9188 N   0  0  0  0  0  0  0  0  0  0  0  0
   21.9322 -107.7986   21.3324 C   0  0  0  0  0  0  0  0  0  0  0  0
   21.7735 -105.6542   19.8062 C   0  0  0  0  0  0  0  0  0  0  0  0
   22.2626 -107.0652   19.9990 C   0  0  0  0  0  0  0  0  0  0  0  0
   22.1039 -104.9206   18.4727 O   0  0  0  0  0  0  0  0  0  0  0  0
   20.6447 -104.0366   20.7832 H   0  0  0  0  0  0  0  0  0  0  0  0
   16.4320 -112.1089   26.9349 O   0  0  0  0  0  0  0  0  0  0  0  0
   16.2281 -113.4374   26.6606 C   0  0  0  0  0  0  0  0  0  0  0  0
   16.6430 -113.0217   25.2982 C   0  0  0  0  0  0  0  0  0  0  0  0
   16.0431 -114.8478   26.2393 C   0  0  0  0  0  0  0  0  0  0  0  0
   15.8037 -113.8120   28.0966 C   0  0  0  0  0  0  0  0  0  0  0  0
 18 19  2  0
 19 20  1  0
 19 21  1  0
 20  1  1  0
 20 22  1  0
 21 23  1  0
  1  2  2  0
  1  3  1  0
 22 24  1  0
 23 25  2  0
  2  4  1  0
  3  5  2  0
  4  6  2  0
  4  7  1  0
  6  8  1  0
  7  9  1  0
  7 10  1  0
  8 11  1  0
  9 12  1  0
 10 13  1  0
 11 14  1  0
 12 15  2  0
 12 27  1  0
 27 28  1  0
 28 29  1  0
 28 30  1  0
 28 31  1  0
 23 24  1  0
  5  6  1  0
  8  9  1  0
 10 11  1  0
 21 26  1  0
 13 16  1  0
 14 17  1  0
M  END
>  <Molecule Name>  (1) 
Compound 4

>  <EC50 (µM) (Excel)>  (1) 
11.8

>  <Error (µM)>  (1) 
7.4

>  <HTRC CRBN-DDB1 EC50 (µM)>  (1) 
11.78 ±  7.41

>  <EC50 fitting (µM)>  (1) 
15.10

>  <Modèle Fitting>  (1) 
4PL
$$$$

>  <minimizedAffinity>  (1) 
-8.03179

>  <CNNscore>  (1) 
0.4647165239

>  <CNNaffinity>  (1) 
4.3481888771

>  <CNN_VS>  (1) 
2.0206751823

>  <CNNaffinity_variance>  (1) 
0.3602370024

$$$$
