Compound 7
     RDKit          3D

 36 38  0  0  0  0  0  0  0  0999 V2000
   10.7777 -105.3811   26.8861 C   0  0  0  0  0  0  0  0  0  0  0  0
   11.8788 -105.1769   27.9029 C   0  0  0  0  0  0  0  0  0  0  0  0
    9.5700 -104.5410   26.8922 C   0  0  0  0  0  0  0  0  0  0  0  0
   11.7474 -104.1103   28.9309 C   0  0  0  0  0  0  0  0  0  0  0  0
    9.4387 -103.4745   27.9202 C   0  0  0  0  0  0  0  0  0  0  0  0
   10.5398 -103.2702   28.9369 C   0  0  0  0  0  0  0  0  0  0  0  0
   12.8486 -103.9060   29.9477 C   0  0  0  0  0  0  0  0  0  0  0  0
   14.0812 -104.7351   29.8794 O   0  0  0  0  0  0  0  0  0  0  0  0
   12.7085 -102.8481   31.0546 N   0  0  0  0  0  0  0  0  0  0  0  0
   11.8935 -102.2978   31.1021 H   0  0  0  0  0  0  0  0  0  0  0  0
   13.8096 -102.6437   32.0714 C   0  0  0  0  0  0  0  0  0  0  0  0
   15.1949 -102.1372   31.6374 C   0  0  0  0  0  0  0  0  0  0  0  0
   13.5534 -102.9345   33.5071 C   0  0  0  0  0  0  0  0  0  0  0  0
   15.5071 -101.8241   30.1713 O   0  0  0  0  0  0  0  0  0  0  0  0
   16.2959 -101.9329   32.6543 N   0  0  0  0  0  0  0  0  0  0  0  0
   14.6544 -102.7301   34.5241 C   0  0  0  0  0  0  0  0  0  0  0  0
   16.0397 -102.2237   34.0900 C   0  0  0  0  0  0  0  0  0  0  0  0
   17.1408 -102.0194   35.1069 O   0  0  0  0  0  0  0  0  0  0  0  0
   17.1796 -101.6082   32.3664 H   0  0  0  0  0  0  0  0  0  0  0  0
   10.9091 -106.4477   25.8582 C   0  0  0  0  0  0  0  0  0  0  0  0
   12.2518 -107.3373   23.9012 S   0  0  0  0  0  0  0  0  0  0  0  0
   12.4594 -108.8581   23.9897 O   0  0  0  0  0  0  0  0  0  0  0  0
   11.6843 -108.1542   25.0655 O   0  0  0  0  0  0  0  0  0  0  0  0
   11.6446 -106.1617   24.5676 N   0  0  0  0  0  0  0  0  0  0  0  0
   13.0385 -107.4416   22.6369 C   0  0  0  0  0  0  0  0  0  0  0  0
   11.6778 -104.7699   24.1196 C   0  0  0  0  0  0  0  0  0  0  0  0
   13.4174 -106.3565   21.7069 C   0  0  0  0  0  0  0  0  0  0  0  0
   12.3272 -104.2219   22.8967 C   0  0  0  0  0  0  0  0  0  0  0  0
   13.1024 -104.9259   21.8207 N   0  0  0  0  0  0  0  0  0  0  0  0
   13.6291 -104.0887   20.7178 C   0  0  0  0  0  0  0  0  0  0  0  0
   14.4195 -104.7320   19.5996 O   0  0  0  0  0  0  0  0  0  0  0  0
   13.3708 -102.6342   20.7315 O   0  0  0  0  0  0  0  0  0  0  0  0
   13.0475 -101.9464   19.4598 C   0  0  0  0  0  0  0  0  0  0  0  0
   11.6217 -102.4955   19.5244 C   0  0  0  0  0  0  0  0  0  0  0  0
   12.7242 -101.2585   18.1882 C   0  0  0  0  0  0  0  0  0  0  0  0
   14.4384 -101.4365   19.4377 C   0  0  0  0  0  0  0  0  0  0  0  0
 21 22  2  0
 21 23  2  0
 21 24  1  0
 21 25  1  0
 24 26  1  0
 24 20  1  0
 25 27  1  0
 26 28  1  0
 20  1  1  0
 27 29  1  0
  1  2  2  0
  1  3  1  0
 29 30  1  0
  2  4  1  0
  3  5  2  0
 30 31  2  0
 30 32  1  0
  4  7  1  0
  4  6  2  0
 32 33  1  0
  7  8  2  0
  7  9  1  0
 33 34  1  0
 33 35  1  0
 33 36  1  0
 11  9  1  0
 11 12  1  0
 11 13  1  0
 12 14  2  0
 12 15  1  0
 13 16  1  0
 15 17  1  0
 17 18  2  0
 28 29  1  0
  5  6  1  0
 16 17  1  0
  9 10  1  0
 15 19  1  0
M  END
>  <Molecule Name>  (1) 
Compound 7

>  <EC50 (µM) (Excel)>  (1) 
4.1

>  <Error (µM)>  (1) 
0.2

>  <HTRC CRBN-DDB1 EC50 (µM)>  (1) 
4.06 ±  0.18

>  <EC50 fitting (µM)>  (1) 
3.77

>  <Modèle Fitting>  (1) 
4PL
$$$$

>  <minimizedAffinity>  (1) 
-8.09286

>  <CNNscore>  (1) 
0.7780340910

>  <CNNaffinity>  (1) 
7.3516020775

>  <CNN_VS>  (1) 
5.7197971344

>  <CNNaffinity_variance>  (1) 
0.1144292057

$$$$
