Compound 8
     RDKit          3D

 30 32  0  0  0  0  0  0  0  0999 V2000
   10.8611 -105.3832   27.2775 C   0  0  0  0  0  0  0  0  0  0  0  0
   11.9738 -105.1853   28.2364 C   0  0  0  0  0  0  0  0  0  0  0  0
    9.6291 -104.5130   27.2889 C   0  0  0  0  0  0  0  0  0  0  0  0
   11.8580 -104.0942   29.2317 C   0  0  0  0  0  0  0  0  0  0  0  0
    9.5134 -103.4219   28.2843 C   0  0  0  0  0  0  0  0  0  0  0  0
   10.6261 -103.2239   29.2433 C   0  0  0  0  0  0  0  0  0  0  0  0
   12.9708 -103.8962   30.1907 C   0  0  0  0  0  0  0  0  0  0  0  0
   14.1688 -104.7585   30.0651 O   0  0  0  0  0  0  0  0  0  0  0  0
   12.8557 -102.8197   31.2729 N   0  0  0  0  0  0  0  0  0  0  0  0
   12.0467 -102.2618   31.3316 H   0  0  0  0  0  0  0  0  0  0  0  0
   13.9684 -102.6216   32.2320 C   0  0  0  0  0  0  0  0  0  0  0  0
   15.3321 -102.1479   31.7230 C   0  0  0  0  0  0  0  0  0  0  0  0
   13.7165 -102.8930   33.6664 C   0  0  0  0  0  0  0  0  0  0  0  0
   15.5824 -101.8678   30.2213 O   0  0  0  0  0  0  0  0  0  0  0  0
   16.4447 -101.9498   32.6821 N   0  0  0  0  0  0  0  0  0  0  0  0
   14.8291 -102.6949   34.6255 C   0  0  0  0  0  0  0  0  0  0  0  0
   16.1928 -102.2211   34.1166 C   0  0  0  0  0  0  0  0  0  0  0  0
   17.3055 -102.0231   35.0756 O   0  0  0  0  0  0  0  0  0  0  0  0
   17.3288 -101.6457   32.3737 H   0  0  0  0  0  0  0  0  0  0  0  0
   10.9769 -106.4743   26.2821 C   0  0  0  0  0  0  0  0  0  0  0  0
   10.9472 -106.5741   23.7932 S   0  0  0  0  0  0  0  0  0  0  0  0
    9.6577 -107.1763   23.2066 O   0  0  0  0  0  0  0  0  0  0  0  0
    9.8281 -107.0477   24.6961 O   0  0  0  0  0  0  0  0  0  0  0  0
   11.6912 -106.1961   25.0135 N   0  0  0  0  0  0  0  0  0  0  0  0
   11.3639 -106.4371   22.3240 C   0  0  0  0  0  0  0  0  0  0  0  0
   13.0511 -105.5795   25.1004 C   0  0  0  0  0  0  0  0  0  0  0  0
   12.6384 -105.8822   21.7467 C   0  0  0  0  0  0  0  0  0  0  0  0
   14.0048 -105.1883   23.9740 C   0  0  0  0  0  0  0  0  0  0  0  0
   13.8050 -105.3307   22.4687 N   0  0  0  0  0  0  0  0  0  0  0  0
   14.5750 -105.0036   21.8852 H   0  0  0  0  0  0  0  0  0  0  0  0
 21 22  2  0
 21 23  2  0
 21 24  1  0
 21 25  1  0
 24 26  1  0
 24 20  1  0
 25 27  1  0
 26 28  1  0
 20  1  1  0
 27 29  1  0
  1  2  2  0
  1  3  1  0
  2  4  1  0
  3  5  2  0
  4  7  1  0
  4  6  2  0
  7  8  2  0
  7  9  1  0
 11  9  1  0
 11 12  1  0
 11 13  1  0
 12 14  2  0
 12 15  1  0
 13 16  1  0
 15 17  1  0
 17 18  2  0
 28 29  1  0
  5  6  1  0
 16 17  1  0
 29 30  1  0
  9 10  1  0
 15 19  1  0
M  END
>  <Molecule Name>  (1) 
Compound 8

>  <EC50 (µM) (Excel)>  (1) 
6.8

>  <Error (µM)>  (1) 
1.0

>  <HTRC CRBN-DDB1 EC50 (µM)>  (1) 
6.77 ±  1.02

>  <EC50 fitting (µM)>  (1) 
7.19

>  <Modèle Fitting>  (1) 
4PL
$$$$

>  <minimizedAffinity>  (1) 
-9.36214

>  <CNNscore>  (1) 
0.7834596038

>  <CNNaffinity>  (1) 
6.9123101234

>  <CNN_VS>  (1) 
5.4155158997

>  <CNNaffinity_variance>  (1) 
0.0045036753

$$$$
