
     RDKit          3D

 31 34  0  0  0  0  0  0  0  0999 V2000
    9.8860 -103.5490   28.4760 C   0  0  0  0  0  0  0  0  0  0  0  0
   10.5430 -104.7750   28.4430 C   0  0  0  0  0  0  0  0  0  0  0  0
   11.6480 -104.9800   29.2600 C   0  0  0  0  0  0  0  0  0  0  0  0
   10.3330 -102.5410   29.3250 C   0  0  0  0  0  0  0  0  0  0  0  0
   11.4270 -102.7540   30.1540 C   0  0  0  0  0  0  0  0  0  0  0  0
   12.0870 -103.9760   30.1130 C   0  0  0  0  0  0  0  0  0  0  0  0
   13.0570 -102.5830   31.7010 N   0  0  0  0  0  0  0  0  0  0  0  0
   16.5720 -101.9670   32.4240 N   0  0  0  0  0  0  0  0  0  0  0  0
   11.1970 -106.2240   26.5830 N   0  0  0  0  0  0  0  0  0  0  0  0
   11.7540 -100.7770   31.3310 O   0  0  0  0  0  0  0  0  0  0  0  0
   13.2340 -103.9120   31.1140 C   0  0  0  0  0  0  0  0  0  0  0  0
   12.0830 -101.9340   31.0750 C   0  0  2  0  0  0  0  0  0  0  0  0
   14.0220 -101.9600   32.6110 C   0  0  1  0  0  0  0  0  0  0  0  0
   14.2610 -102.8880   33.8000 C   0  0  0  0  0  0  0  0  0  0  0  0
   15.4400 -102.4040   34.6410 C   0  0  0  0  0  0  0  0  0  0  0  0
   16.6900 -102.2490   33.7810 C   0  0  0  0  0  0  0  0  0  0  0  0
   15.3170 -101.7810   31.8320 C   0  0  2  0  0  0  0  0  0  0  0  0
   10.0780 -105.8940   27.4880 C   0  0  0  0  0  0  0  0  0  0  0  0
   11.1210 -106.1360   25.2540 C   0  0  0  0  0  0  0  0  0  0  0  0
   15.2460 -101.5480   30.6300 O   0  0  0  0  0  0  0  0  0  0  0  0
   12.6410 -107.4620   22.5400 C   0  0  0  0  0  0  0  0  0  0  0  0
   12.6760 -107.4070   21.1540 C   0  0  0  0  0  0  0  0  0  0  0  0
   13.1280 -108.7970   20.2350 Cl  0  0  0  0  0  0  0  0  0  0  0  0
   12.3470 -106.2320   20.4920 C   0  0  0  0  0  0  0  0  0  0  0  0
   12.3920 -106.1900   18.9640 C   0  0  0  0  0  0  0  0  0  0  0  0
   11.9830 -105.1020   21.2180 C   0  0  0  0  0  0  0  0  0  0  0  0
   11.9450 -105.1550   22.6060 C   0  0  0  0  0  0  0  0  0  0  0  0
   12.2650 -106.3400   23.2660 C   0  0  0  0  0  0  0  0  0  0  0  0
   12.2460 -106.3970   24.5910 N   0  0  0  0  0  0  0  0  0  0  0  0
   10.0780 -105.8420   24.6720 O   0  0  0  0  0  0  0  0  0  0  0  0
   17.8050 -102.3820   34.2780 O   0  0  0  0  0  0  0  0  0  0  0  0
  2  1  1  0
  3  2  1  0
  4  1  1  0
  5  4  1  0
  6  3  1  0
  6  5  1  0
 11  6  1  0
 11  7  1  0
 12 10  1  1
 12  7  1  0
 12  5  1  0
 13  7  1  6
 14 13  1  0
 15 14  1  0
 16 15  1  0
 16  8  1  0
 17 13  1  0
 17  8  1  0
 18  2  1  0
 18  9  1  0
 19  9  1  0
 17 20  1  6
 22 21  1  0
 23 22  1  0
 24 22  1  0
 25 24  1  0
 26 24  1  0
 27 26  1  0
 28 27  1  0
 28 21  1  0
 29 28  1  0
 29 19  1  0
 30 19  1  0
 31 16  1  0
M  END
$$$$
