MCUF651
OCL MolfileCreator  2D

  0  0  0  0  0  0              0 V3000
M  V30 BEGIN CTAB
M  V30 COUNTS 25 27 0 0 0
M  V30 BEGIN ATOM
M  V30 1 S 0.0 0.0 0.0 0
M  V30 2 C 0.8858 -1.2165 0.0 0
M  V30 3 C -1.4291 -0.4606 0.0 0
M  V30 4 N 0.0 -2.4331 0.0 0
M  V30 5 N 2.3859 -1.2165 0.0 0
M  V30 6 C -1.4291 -1.9607 0.0 0
M  V30 7 C -2.7284 0.2834 0.0 0
M  V30 8 C 3.6852 -1.9607 0.0 0
M  V30 9 C -2.7284 -2.7166 0.0 0
M  V30 10 C -4.0277 -0.4724 0.0 0
M  V30 11 O 3.6852 -3.4607 0.0 0
M  V30 12 C 4.9844 -1.2165 0.0 0 CFG=2
M  V30 13 F -2.7284 -4.2167 0.0 0
M  V30 14 C -4.0277 -1.9725 0.0 0
M  V30 15 F -5.327 0.2716 0.0 0
M  V30 16 C 6.2837 -1.9607 0.0 0
M  V30 17 C 4.9844 0.2834 0.0 0
M  V30 18 N 7.583 -1.2047 0.0 0
M  V30 19 C 6.2837 1.0394 0.0 0
M  V30 20 C 7.583 0.2952 0.0 0
M  V30 21 C 8.8822 -1.9489 0.0 0
M  V30 22 C 10.1815 -1.2047 0.0 0
M  V30 23 N 11.4808 -1.9489 0.0 0
M  V30 24 C 12.78 -1.2047 0.0 0
M  V30 25 C 11.4808 -3.4489 0.0 0
M  V30 END ATOM
M  V30 BEGIN BOND
M  V30 1 1 1 2
M  V30 2 1 1 3
M  V30 3 2 2 4
M  V30 4 1 2 5
M  V30 5 2 3 6
M  V30 6 1 3 7
M  V30 7 1 5 8
M  V30 8 1 6 9
M  V30 9 2 7 10
M  V30 10 2 8 11
M  V30 11 1 12 8 CFG=1
M  V30 12 1 9 13
M  V30 13 2 9 14
M  V30 14 1 10 15
M  V30 15 1 12 16
M  V30 16 1 12 17
M  V30 17 1 16 18
M  V30 18 1 17 19
M  V30 19 1 18 20
M  V30 20 1 18 21
M  V30 21 1 21 22
M  V30 22 1 22 23
M  V30 23 1 23 24
M  V30 24 1 23 25
M  V30 25 1 4 6
M  V30 26 1 10 14
M  V30 27 1 19 20
M  V30 END BOND
M  V30 BEGIN COLLECTION
M  V30 MDLV30/STERAC1 ATOMS=(1 12)
M  V30 END COLLECTION
M  V30 END CTAB
M  END
>  <Column 2>
MCUF651

>  <Scale (g)>
0.5

>  <Project>
917

$$$$
A317
OCL MolfileCreator  2D

  0  0  0  0  0  0              0 V3000
M  V30 BEGIN CTAB
M  V30 COUNTS 31 35 0 0 0
M  V30 BEGIN ATOM
M  V30 1 S 0.0 0.0 0.0 0
M  V30 2 C -0.3839 1.5239 0.0 0
M  V30 3 C 1.4999 0.0 0.0 0
M  V30 4 N 0.8759 2.3399 0.0 0
M  V30 5 N -1.8359 1.9079 0.0 0
M  V30 6 C 2.0399 1.3919 0.0 0
M  V30 7 C -2.8918 0.8519 0.0 0
M  V30 8 C 3.4918 1.7759 0.0 0 CFG=2
M  V30 9 O -2.5078 -0.5999 0.0 0
M  V30 10 C -4.3438 1.2359 0.0 0
M  V30 11 N 4.6558 0.8399 0.0 0
M  V30 12 C 4.0318 3.1678 0.0 0
M  V30 13 N -5.5077 0.2999 0.0 0
M  V30 14 C -4.8837 2.5558 0.0 0
M  V30 15 C 4.6558 -0.6599 0.0 0
M  V30 16 C 5.9157 1.6559 0.0 0
M  V30 17 C 5.5317 3.1678 0.0 0
M  V30 18 C -6.7677 1.1159 0.0 0
M  V30 19 C -5.5077 -1.1999 0.0 0
M  V30 20 C -6.3837 2.5558 0.0 0
M  V30 21 N 5.9517 -1.4039 0.0 0
M  V30 22 C 3.3478 -1.4159 0.0 0
M  V30 23 C -6.8037 -1.9439 0.0 0
M  V30 24 C 5.9517 -2.8918 0.0 0
M  V30 25 C 3.3478 -2.9158 0.0 0
M  V30 26 C -6.8037 -3.4438 0.0 0
M  V30 27 C -8.1116 -1.1879 0.0 0
M  V30 28 C 4.6558 -3.6358 0.0 0
M  V30 29 C -8.0996 -4.1878 0.0 0
M  V30 30 C -9.4076 -1.9439 0.0 0
M  V30 31 N -9.3956 -3.4438 0.0 0
M  V30 END ATOM
M  V30 BEGIN BOND
M  V30 1 1 1 2
M  V30 2 1 1 3
M  V30 3 2 2 4
M  V30 4 1 2 5
M  V30 5 2 3 6
M  V30 6 1 5 7
M  V30 7 1 8 6 CFG=1
M  V30 8 2 7 9
M  V30 9 1 7 10
M  V30 10 1 8 11
M  V30 11 1 8 12
M  V30 12 1 10 13
M  V30 13 2 10 14
M  V30 14 1 11 15
M  V30 15 1 11 16
M  V30 16 1 12 17
M  V30 17 1 13 18
M  V30 18 1 13 19
M  V30 19 1 14 20
M  V30 20 2 15 21
M  V30 21 1 15 22
M  V30 22 1 19 23
M  V30 23 1 21 24
M  V30 24 2 22 25
M  V30 25 2 23 26
M  V30 26 1 23 27
M  V30 27 2 24 28
M  V30 28 1 26 29
M  V30 29 2 27 30
M  V30 30 2 29 31
M  V30 31 1 4 6
M  V30 32 1 16 17
M  V30 33 2 18 20
M  V30 34 1 25 28
M  V30 35 1 30 31
M  V30 END BOND
M  V30 BEGIN COLLECTION
M  V30 MDLV30/STEABS ATOMS=(1 8)
M  V30 END COLLECTION
M  V30 END CTAB
M  END
>  <Column 2>
A317

>  <Scale (g)>
0.5

>  <Project>
915

$$$$
7877
OCL MolfileCreator  2D

  0  0  0  0  0  0              0 V3000
M  V30 BEGIN CTAB
M  V30 COUNTS 30 34 0 0 0
M  V30 BEGIN ATOM
M  V30 1 O 0.0 0.0 0.0 0
M  V30 2 C 1.0622 -1.0622 0.0 0
M  V30 3 O 2.5107 -0.6759 0.0 0
M  V30 4 C 0.6759 -2.5107 0.0 0
M  V30 5 C 1.7382 -3.5609 0.0 0
M  V30 6 C -0.7725 -2.897 0.0 0
M  V30 7 C 1.3519 -5.0094 0.0 0
M  V30 8 C 3.1867 -3.1746 0.0 0
M  V30 9 C -1.1588 -4.3455 0.0 0
M  V30 10 C -0.1086 -5.3957 0.0 0
M  V30 11 C 4.4542 -3.9713 0.0 0
M  V30 12 C 3.573 -1.7261 0.0 0
M  V30 13 C -0.4949 -6.8442 0.0 0
M  V30 14 C 5.6371 -3.0298 0.0 0
M  V30 15 C 5.106 -1.7261 0.0 0
M  V30 16 C -1.9675 -7.3029 0.0 0
M  V30 17 C 0.3621 -8.0393 0.0 0
M  V30 18 C -1.9675 -8.8118 0.0 0
M  V30 19 C -3.2712 -6.5545 0.0 0
M  V30 20 O -0.5311 -9.2584 0.0 0
M  V30 21 N -3.2591 -9.5602 0.0 0
M  V30 22 C -4.5749 -7.3029 0.0 0
M  V30 23 C -4.5628 -8.8118 0.0 0
M  V30 24 C -5.8786 -6.5545 0.0 0
M  V30 25 C -7.1822 -7.3029 0.0 0
M  V30 26 C -5.8786 -5.0457 0.0 0
M  V30 27 C -8.4738 -6.5545 0.0 0
M  V30 28 C -7.1822 -4.2972 0.0 0
M  V30 29 C -8.4738 -5.0457 0.0 0
M  V30 30 C -9.7775 -7.3029 0.0 0
M  V30 END ATOM
M  V30 BEGIN BOND
M  V30 1 2 1 2
M  V30 2 1 2 3
M  V30 3 1 2 4
M  V30 4 2 4 5
M  V30 5 1 4 6
M  V30 6 1 5 7
M  V30 7 1 5 8
M  V30 8 2 6 9
M  V30 9 2 7 10
M  V30 10 1 8 11
M  V30 11 1 8 12
M  V30 12 1 10 13
M  V30 13 1 11 14
M  V30 14 1 12 15
M  V30 15 1 13 16
M  V30 16 2 13 17
M  V30 17 2 16 18
M  V30 18 1 16 19
M  V30 19 1 17 20
M  V30 20 1 18 21
M  V30 21 2 19 22
M  V30 22 2 21 23
M  V30 23 1 22 24
M  V30 24 2 24 25
M  V30 25 1 24 26
M  V30 26 1 25 27
M  V30 27 2 26 28
M  V30 28 2 27 29
M  V30 29 1 27 30
M  V30 30 1 9 10
M  V30 31 1 14 15
M  V30 32 1 18 20
M  V30 33 1 22 23
M  V30 34 1 28 29
M  V30 END BOND
M  V30 END CTAB
M  END
>  <Column 2>
7877

>  <Scale (g)>
2

>  <Project>
944

$$$$
8008
OCL MolfileCreator  2D

  0  0  0  0  0  0              0 V3000
M  V30 BEGIN CTAB
M  V30 COUNTS 37 40 0 0 0
M  V30 BEGIN ATOM
M  V30 1 Cl 0.0 0.0 0.0 0
M  V30 2 C 1.3054 -0.7476 0.0 0
M  V30 3 C 2.5989 0.0118 0.0 0
M  V30 4 C 1.3054 -2.2429 0.0 0
M  V30 5 C 3.9043 -0.7357 0.0 0
M  V30 6 C 2.6108 -2.9905 0.0 0
M  V30 7 C 5.2097 0.0118 0.0 0
M  V30 8 C 3.9043 -2.231 0.0 0
M  V30 9 C 6.5151 0.7595 0.0 0
M  V30 10 N 5.2097 -2.9787 0.0 0
M  V30 11 C 7.8206 1.5071 0.0 0
M  V30 12 S 5.2097 -4.474 0.0 0
M  V30 13 C 7.8206 3.0024 0.0 0
M  V30 14 C 9.126 0.7595 0.0 0
M  V30 15 O 3.9043 -5.2216 0.0 0
M  V30 16 O 4.8181 -5.9218 0.0 0
M  V30 17 C 6.5151 -5.2216 0.0 0
M  V30 18 O 6.527 3.75 0.0 0
M  V30 19 C 9.1141 3.75 0.0 0
M  V30 20 N 10.4195 1.519 0.0 0
M  V30 21 C 7.8206 -4.474 0.0 0
M  V30 22 C 6.5151 -6.7288 0.0 0
M  V30 23 C 5.2216 3.0024 0.0 0
M  V30 24 C 10.4195 3.0024 0.0 0
M  V30 25 N 7.8206 -2.9787 0.0 0
M  V30 26 C 9.1141 -5.2216 0.0 0
M  V30 27 C 7.8206 -7.4764 0.0 0
M  V30 28 C 11.7249 3.75 0.0 0
M  V30 29 C 9.1141 -2.231 0.0 0
M  V30 30 C 9.1141 -6.7169 0.0 0
M  V30 31 C 10.4195 -4.474 0.0 0
M  V30 32 O 11.7249 5.2453 0.0 0
M  V30 33 O 13.0303 3.0024 0.0 0
M  V30 34 C 10.4076 -2.9787 0.0 0
M  V30 35 O 10.4076 -7.4645 0.0 0
M  V30 36 C 11.7131 -6.7169 0.0 0
M  V30 37 C 13.0185 -7.4645 0.0 0
M  V30 END ATOM
M  V30 BEGIN BOND
M  V30 1 1 1 2
M  V30 2 2 2 3
M  V30 3 1 2 4
M  V30 4 1 3 5
M  V30 5 2 4 6
M  V30 6 1 5 7
M  V30 7 2 5 8
M  V30 8 3 7 9
M  V30 9 1 8 10
M  V30 10 1 9 11
M  V30 11 1 10 12
M  V30 12 2 11 13
M  V30 13 1 11 14
M  V30 14 2 12 15
M  V30 15 2 12 16
M  V30 16 1 12 17
M  V30 17 1 13 18
M  V30 18 1 13 19
M  V30 19 2 14 20
M  V30 20 1 17 21
M  V30 21 2 17 22
M  V30 22 1 18 23
M  V30 23 2 19 24
M  V30 24 1 21 25
M  V30 25 2 21 26
M  V30 26 1 22 27
M  V30 27 1 24 28
M  V30 28 2 25 29
M  V30 29 1 26 30
M  V30 30 1 26 31
M  V30 31 2 28 32
M  V30 32 1 28 33
M  V30 33 1 29 34
M  V30 34 1 30 35
M  V30 35 1 35 36
M  V30 36 1 36 37
M  V30 37 1 6 8
M  V30 38 1 20 24
M  V30 39 2 27 30
M  V30 40 2 31 34
M  V30 END BOND
M  V30 END CTAB
M  END
>  <Column 2>
8008

>  <Scale (g)>
2

>  <Project>
944

$$$$
7977
OCL MolfileCreator  2D

  0  0  0  0  0  0              0 V3000
M  V30 BEGIN CTAB
M  V30 COUNTS 29 32 0 0 0
M  V30 BEGIN ATOM
M  V30 1 Cl 0.0 0.0 0.0 0
M  V30 2 C -1.0043 -1.1106 0.0 0
M  V30 3 C -2.4695 -0.8034 0.0 0
M  V30 4 C -0.5435 -2.5404 0.0 0
M  V30 5 C -3.4738 -1.9141 0.0 0
M  V30 6 C -1.5478 -3.6511 0.0 0
M  V30 7 C -3.013 -3.3438 0.0 0
M  V30 8 C -4.939 -1.6069 0.0 0
M  V30 9 F -4.0174 -4.4545 0.0 0
M  V30 10 N -5.9433 -2.7176 0.0 0
M  V30 11 C -5.3998 -0.1772 0.0 0
M  V30 12 C -7.4085 -2.4104 0.0 0
M  V30 13 C -6.865 0.1299 0.0 0
M  V30 14 C -7.8693 -0.9807 0.0 0
M  V30 15 N -7.3258 1.5596 0.0 0
M  V30 16 C -9.3345 -0.6735 0.0 0
M  V30 17 C -6.4396 2.7767 0.0 0
M  V30 18 C -8.7555 2.0205 0.0 0
M  V30 19 O -4.939 2.7767 0.0 0
M  V30 20 N -7.3258 3.9937 0.0 0
M  V30 21 C -8.7555 3.5211 0.0 0
M  V30 22 C -10.0553 1.2761 0.0 0
M  V30 23 C -6.865 5.4234 0.0 0
M  V30 24 C -10.0553 4.2655 0.0 0
M  V30 25 C -11.355 2.0205 0.0 0
M  V30 26 C -5.5652 6.1797 0.0 0
M  V30 27 N -11.355 3.5211 0.0 0
M  V30 28 O -5.5652 7.6803 0.0 0
M  V30 29 N -4.2655 5.4234 0.0 0
M  V30 END ATOM
M  V30 BEGIN BOND
M  V30 1 1 1 2
M  V30 2 2 2 3
M  V30 3 1 2 4
M  V30 4 1 3 5
M  V30 5 2 4 6
M  V30 6 2 5 7
M  V30 7 1 5 8
M  V30 8 1 7 9
M  V30 9 2 8 10
M  V30 10 1 8 11
M  V30 11 1 10 12
M  V30 12 2 11 13
M  V30 13 2 12 14
M  V30 14 1 13 15
M  V30 15 1 14 16
M  V30 16 1 15 17
M  V30 17 1 15 18
M  V30 18 2 17 19
M  V30 19 1 17 20
M  V30 20 2 18 21
M  V30 21 1 18 22
M  V30 22 1 20 23
M  V30 23 1 21 24
M  V30 24 2 22 25
M  V30 25 1 23 26
M  V30 26 2 24 27
M  V30 27 2 26 28
M  V30 28 1 26 29
M  V30 29 1 6 7
M  V30 30 1 13 14
M  V30 31 1 20 21
M  V30 32 1 25 27
M  V30 END BOND
M  V30 END CTAB
M  END
>  <Column 2>
7977

>  <Scale (g)>
2

>  <Project>
944

$$$$
