BX912
 OpenBabel09072615513D

 34 37  0  0  0  0  0  0  0  0999 V2000
   -9.5062   44.3401   43.1496 Br  0  0  0  0  0  0  0  0  0  0  0  0
   -8.1785   43.1439   43.7578 C   0  0  0  0  0  0  0  0  0  0  0  0
   -6.8884   43.5331   44.0865 C   0  0  0  0  0  0  0  0  0  0  0  0
   -8.4546   41.8016   43.8661 C   0  0  0  0  0  0  0  0  0  0  0  0
   -5.9846   42.6332   44.5274 N   0  0  0  0  0  0  0  0  0  0  0  0
   -7.5578   40.8864   44.2825 N   0  0  0  0  0  0  0  0  0  0  0  0
   -6.3483   41.3431   44.6318 C   0  0  0  0  0  0  0  0  0  0  0  0
   -6.5251   44.8932   44.0289 N   0  0  0  0  0  0  0  0  0  0  0  0
   -7.2904   45.4793   44.3541 H   0  0  0  0  0  0  0  0  0  0  0  0
   -5.9487   45.3605   42.7644 C   0  0  0  0  0  0  0  0  0  0  0  0
   -4.4623   44.9826   42.6335 C   0  0  0  0  0  0  0  0  0  0  0  0
   -3.5623   46.1477   42.8399 C   0  0  0  0  0  0  0  0  0  0  0  0
   -2.4440   46.3568   42.0696 N   0  0  0  0  0  0  0  0  0  0  0  0
   -3.5819   47.2046   43.7223 C   0  0  0  0  0  0  0  0  0  0  0  0
   -1.8446   47.4989   42.5167 C   0  0  0  0  0  0  0  0  0  0  0  0
   -2.5099   48.0342   43.5150 N   0  0  0  0  0  0  0  0  0  0  0  0
   -2.1037   45.7526   41.3297 H   0  0  0  0  0  0  0  0  0  0  0  0
   -5.4370   40.3819   45.0572 N   0  0  0  0  0  0  0  0  0  0  0  0
   -5.9347   39.6022   45.4690 H   0  0  0  0  0  0  0  0  0  0  0  0
   -4.0767   40.4634   45.3919 C   0  0  0  0  0  0  0  0  0  0  0  0
   -3.6550   39.9031   46.6112 C   0  0  0  0  0  0  0  0  0  0  0  0
   -3.1037   40.9879   44.5362 C   0  0  0  0  0  0  0  0  0  0  0  0
   -2.3066   39.8835   46.9829 C   0  0  0  0  0  0  0  0  0  0  0  0
   -1.7544   40.9721   44.8905 C   0  0  0  0  0  0  0  0  0  0  0  0
   -1.3582   40.4203   46.1074 C   0  0  0  0  0  0  0  0  0  0  0  0
   -1.8276   39.3242   48.1856 N   0  0  0  0  0  0  0  0  0  0  0  0
   -1.3150   38.0625   48.3863 C   0  0  0  0  0  0  0  0  0  0  0  0
   -1.2717   37.1733   47.5403 O   0  0  0  0  0  0  0  0  0  0  0  0
   -0.8332   37.8478   49.6638 N   0  0  0  0  0  0  0  0  0  0  0  0
   -0.6598   38.8127   50.7403 C   0  0  0  0  0  0  0  0  0  0  0  0
   -0.2960   36.5498   50.0359 C   0  0  0  0  0  0  0  0  0  0  0  0
    0.2436   38.1109   51.7452 C   0  0  0  0  0  0  0  0  0  0  0  0
   -0.0942   36.6404   51.5407 C   0  0  0  0  0  0  0  0  0  0  0  0
   -1.9840   39.8680   49.0177 H   0  0  0  0  0  0  0  0  0  0  0  0
  1  2  1  0  0  0  0
  2  3  2  0  0  0  0
  2  4  1  0  0  0  0
  3  5  1  0  0  0  0
  3  8  1  0  0  0  0
  4  6  2  0  0  0  0
  5  7  2  0  0  0  0
  6  7  1  0  0  0  0
  7 18  1  0  0  0  0
  8 10  1  0  0  0  0
  8  9  1  0  0  0  0
 10 11  1  0  0  0  0
 11 12  1  0  0  0  0
 12 13  1  0  0  0  0
 12 14  2  0  0  0  0
 13 15  1  0  0  0  0
 13 17  1  0  0  0  0
 14 16  1  0  0  0  0
 15 16  2  0  0  0  0
 18 20  1  0  0  0  0
 18 19  1  0  0  0  0
 20 21  2  0  0  0  0
 20 22  1  0  0  0  0
 21 23  1  0  0  0  0
 22 24  2  0  0  0  0
 23 26  1  0  0  0  0
 23 25  2  0  0  0  0
 24 25  1  0  0  0  0
 26 27  1  0  0  0  0
 26 34  1  0  0  0  0
 27 28  2  0  0  0  0
 27 29  1  0  0  0  0
 29 30  1  0  0  0  0
 29 31  1  0  0  0  0
 30 32  1  0  0  0  0
 31 33  1  0  0  0  0
 32 33  1  0  0  0  0
M  END
