BX912
 OpenBabel09072615513D

 34 37  0  0  0  0  0  0  0  0999 V2000
   -7.4287   45.7447   43.2070 Br  0  0  0  0  0  0  0  0  0  0  0  0
   -6.9904   43.9636   43.6534 C   0  0  0  0  0  0  0  0  0  0  0  0
   -5.7063   43.4460   43.5694 C   0  0  0  0  0  0  0  0  0  0  0  0
   -7.9721   43.0910   44.0590 C   0  0  0  0  0  0  0  0  0  0  0  0
   -5.4514   42.1663   43.9136 N   0  0  0  0  0  0  0  0  0  0  0  0
   -7.7392   41.8044   44.3843 N   0  0  0  0  0  0  0  0  0  0  0  0
   -6.4670   41.3894   44.3288 C   0  0  0  0  0  0  0  0  0  0  0  0
   -4.6342   44.2763   43.1867 N   0  0  0  0  0  0  0  0  0  0  0  0
   -3.9520   43.7491   42.6466 H   0  0  0  0  0  0  0  0  0  0  0  0
   -4.0207   45.0792   44.2490 C   0  0  0  0  0  0  0  0  0  0  0  0
   -3.2020   46.2540   43.6843 C   0  0  0  0  0  0  0  0  0  0  0  0
   -4.0576   47.4096   43.3067 C   0  0  0  0  0  0  0  0  0  0  0  0
   -4.4332   47.6511   42.0074 N   0  0  0  0  0  0  0  0  0  0  0  0
   -4.6440   48.4211   44.0341 C   0  0  0  0  0  0  0  0  0  0  0  0
   -5.2037   48.7780   42.0049 C   0  0  0  0  0  0  0  0  0  0  0  0
   -5.3494   49.2658   43.2159 N   0  0  0  0  0  0  0  0  0  0  0  0
   -4.1567   47.1136   41.1932 H   0  0  0  0  0  0  0  0  0  0  0  0
   -6.2485   40.0578   44.6669 N   0  0  0  0  0  0  0  0  0  0  0  0
   -7.1071   39.5337   44.5511 H   0  0  0  0  0  0  0  0  0  0  0  0
   -5.2804   39.4429   45.4753 C   0  0  0  0  0  0  0  0  0  0  0  0
   -4.2429   40.2377   45.9954 C   0  0  0  0  0  0  0  0  0  0  0  0
   -5.3441   38.1028   45.8680 C   0  0  0  0  0  0  0  0  0  0  0  0
   -3.2805   39.7124   46.8641 C   0  0  0  0  0  0  0  0  0  0  0  0
   -4.3943   37.5650   46.7371 C   0  0  0  0  0  0  0  0  0  0  0  0
   -3.3689   38.3673   47.2341 C   0  0  0  0  0  0  0  0  0  0  0  0
   -2.2281   40.4657   47.4242 N   0  0  0  0  0  0  0  0  0  0  0  0
   -1.7540   40.4260   48.7160 C   0  0  0  0  0  0  0  0  0  0  0  0
   -2.2444   39.7684   49.6300 O   0  0  0  0  0  0  0  0  0  0  0  0
   -0.6400   41.2153   48.9308 N   0  0  0  0  0  0  0  0  0  0  0  0
    0.1632   41.9338   47.9517 C   0  0  0  0  0  0  0  0  0  0  0  0
   -0.0496   41.3048   50.2557 C   0  0  0  0  0  0  0  0  0  0  0  0
    1.4436   42.2937   48.6930 C   0  0  0  0  0  0  0  0  0  0  0  0
    0.9794   42.4186   50.1377 C   0  0  0  0  0  0  0  0  0  0  0  0
   -1.8549   41.1998   46.8459 H   0  0  0  0  0  0  0  0  0  0  0  0
  1  2  1  0  0  0  0
  2  3  2  0  0  0  0
  2  4  1  0  0  0  0
  3  5  1  0  0  0  0
  3  8  1  0  0  0  0
  4  6  2  0  0  0  0
  5  7  2  0  0  0  0
  6  7  1  0  0  0  0
  7 18  1  0  0  0  0
  8 10  1  0  0  0  0
  8  9  1  0  0  0  0
 10 11  1  0  0  0  0
 11 12  1  0  0  0  0
 12 13  1  0  0  0  0
 12 14  2  0  0  0  0
 13 15  1  0  0  0  0
 13 17  1  0  0  0  0
 14 16  1  0  0  0  0
 15 16  2  0  0  0  0
 18 20  1  0  0  0  0
 18 19  1  0  0  0  0
 20 21  2  0  0  0  0
 20 22  1  0  0  0  0
 21 23  1  0  0  0  0
 22 24  2  0  0  0  0
 23 26  1  0  0  0  0
 23 25  2  0  0  0  0
 24 25  1  0  0  0  0
 26 27  1  0  0  0  0
 26 34  1  0  0  0  0
 27 28  2  0  0  0  0
 27 29  1  0  0  0  0
 29 30  1  0  0  0  0
 29 31  1  0  0  0  0
 30 32  1  0  0  0  0
 31 33  1  0  0  0  0
 32 33  1  0  0  0  0
M  END
