EL2003A-A4U1


 41 45  0  0  0  0  0  0  0  0999 V2000
   -6.5996   40.0160   44.8152 N   0  0  0  0  0  0  0  0  0  0  0  0
   -7.2894   39.3606   44.4751 H   0  0  0  0  0  0  0  0  0  0  0  0
   -6.9867   41.3092   44.4663 C   0  0  0  0  0  0  0  0  0  0  0  0
   -6.2050   42.3713   44.7628 N   0  0  0  0  0  0  0  0  0  0  0  0
   -8.1854   41.3744   43.8509 N   0  0  0  0  0  0  0  0  0  0  0  0
   -6.5865   43.6338   44.4310 C   0  0  0  0  0  0  0  0  0  0  0  0
   -8.5340   42.6281   43.5456 C   0  0  0  0  0  0  0  0  0  0  0  0
   -7.8253   43.7862   43.7896 C   0  0  0  0  0  0  0  0  0  0  0  0
   -9.6786   43.0338   42.9240 N   0  0  0  0  0  0  0  0  0  0  0  0
   -8.5299   44.8914   43.3502 N   0  0  0  0  0  0  0  0  0  0  0  0
   -9.6334   44.3985   42.8276 C   0  0  0  0  0  0  0  0  0  0  0  0
  -10.4152   42.4244   42.6018 H   0  0  0  0  0  0  0  0  0  0  0  0
   -5.7741   44.7313   44.7253 N   0  0  0  0  0  0  0  0  0  0  0  0
   -5.0022   44.4474   45.3277 H   0  0  0  0  0  0  0  0  0  0  0  0
   -5.3721   45.5705   43.5960 C   0  0  0  0  0  0  0  0  0  0  0  0
   -4.0219   45.1721   42.9884 C   0  0  0  0  0  0  0  0  0  0  0  0
   -3.3712   46.2873   42.2444 C   0  0  0  0  0  0  0  0  0  0  0  0
   -2.0721   46.6510   42.5162 N   0  0  0  0  0  0  0  0  0  0  0  0
   -3.8868   47.0800   41.2407 C   0  0  0  0  0  0  0  0  0  0  0  0
   -1.8048   47.6395   41.6948 C   0  0  0  0  0  0  0  0  0  0  0  0
   -2.8754   47.9335   40.9003 N   0  0  0  0  0  0  0  0  0  0  0  0
   -2.9071   48.6503   40.1889 H   0  0  0  0  0  0  0  0  0  0  0  0
   -3.1199   38.4773   46.6828 C   0  0  0  0  0  0  0  0  0  0  0  0
   -3.0866   39.7131   46.0100 C   0  0  0  0  0  0  0  0  0  0  0  0
   -4.3285   37.7565   46.7254 C   0  0  0  0  0  0  0  0  0  0  0  0
   -4.2700   40.1851   45.4161 C   0  0  0  0  0  0  0  0  0  0  0  0
   -5.4874   38.2466   46.1205 C   0  0  0  0  0  0  0  0  0  0  0  0
   -5.4831   39.4712   45.4596 C   0  0  0  0  0  0  0  0  0  0  0  0
   -1.8790   40.4529   45.9638 N   0  0  0  0  0  0  0  0  0  0  0  0
   -0.8166   40.3202   45.0966 C   0  0  0  0  0  0  0  0  0  0  0  0
   -0.7079   39.4555   44.2319 O   0  0  0  0  0  0  0  0  0  0  0  0
    0.1743   41.2678   45.2756 N   0  0  0  0  0  0  0  0  0  0  0  0
    1.3808   41.2276   44.4662 C   0  0  0  0  0  0  0  0  0  0  0  0
    0.1709   42.4343   46.1488 C   0  0  0  0  0  0  0  0  0  0  0  0
    2.3113   42.2374   45.1205 C   0  0  0  0  0  0  0  0  0  0  0  0
    1.3446   43.2774   45.6698 C   0  0  0  0  0  0  0  0  0  0  0  0
   -1.7211   41.1065   46.7175 H   0  0  0  0  0  0  0  0  0  0  0  0
   -2.2565   36.7519   48.0934 F   0  0  0  0  0  0  0  0  0  0  0  0
   -1.9281   37.8554   47.3643 C   0  0  0  0  0  0  0  0  0  0  0  0
   -1.2822   38.6859   48.2373 F   0  0  0  0  0  0  0  0  0  0  0  0
   -0.9743   37.4466   46.4816 F   0  0  0  0  0  0  0  0  0  0  0  0
 38 39  1  0
 39 40  1  0
 39 41  1  0
 39 23  1  0
 23 24  2  0
 23 25  1  0
 24 29  1  0
 24 26  1  0
 25 27  2  0
 29 30  1  0
 26 28  2  0
 30 31  2  0
 30 32  1  0
 28  1  1  0
 32 33  1  0
 32 34  1  0
  1  3  1  0
 33 35  1  0
 34 36  1  0
  3  4  2  0
  3  5  1  0
  4  6  1  0
  5  7  2  0
  6 13  1  0
  6  8  2  0
  7  9  1  0
 13 15  1  0
  8 10  1  0
  9 11  1  0
 15 16  1  0
 16 17  1  0
 17 18  1  0
 17 19  2  0
 18 20  2  0
 19 21  1  0
 27 28  1  0
 35 36  1  0
  7  8  1  0
 10 11  2  0
 20 21  1  0
 29 37  1  0
  1  2  1  0
 13 14  1  0
  9 12  1  0
 21 22  1  0
M  END
> <Molecule Name>
EL2003A-A4U1

> <Name>
EL2003A-A4U1

> <pIC50 PDK>
7.3

> <selection>
Y

> <MMFF94_energy_kcal_mol>
-61.7183

> <Note>
No stereocenters; achiral molecule

> <minimizedAffinity>
-9.80193

> <CNNscore>
0.9429221153

> <CNNaffinity>
7.7598137856

> <CNN_VS>
7.3169002533

> <CNNaffinity_variance>
0.6359955668
$$$$
