EL2003A-A4U1


 41 45  0  0  0  0  0  0  0  0999 V2000
   -6.3183   40.6643   45.0711 N   0  0  0  0  0  0  0  0  0  0  0  0
   -7.0859   40.0452   45.2910 H   0  0  0  0  0  0  0  0  0  0  0  0
   -6.8249   41.8504   44.5415 C   0  0  0  0  0  0  0  0  0  0  0  0
   -6.1129   42.9977   44.6028 N   0  0  0  0  0  0  0  0  0  0  0  0
   -8.0588   41.7292   44.0097 N   0  0  0  0  0  0  0  0  0  0  0  0
   -6.6105   44.1568   44.0947 C   0  0  0  0  0  0  0  0  0  0  0  0
   -8.5215   42.8864   43.5268 C   0  0  0  0  0  0  0  0  0  0  0  0
   -7.8925   44.1142   43.5257 C   0  0  0  0  0  0  0  0  0  0  0  0
   -9.7284   43.1026   42.9287 N   0  0  0  0  0  0  0  0  0  0  0  0
   -8.7058   45.0787   42.9605 N   0  0  0  0  0  0  0  0  0  0  0  0
   -9.7958   44.4310   42.6054 C   0  0  0  0  0  0  0  0  0  0  0  0
  -10.4325   42.3992   42.7643 H   0  0  0  0  0  0  0  0  0  0  0  0
   -5.8708   45.3406   44.1458 N   0  0  0  0  0  0  0  0  0  0  0  0
   -5.0371   45.2112   44.7182 H   0  0  0  0  0  0  0  0  0  0  0  0
   -5.6203   46.0123   42.8702 C   0  0  0  0  0  0  0  0  0  0  0  0
   -6.1785   47.4392   42.8108 C   0  0  0  0  0  0  0  0  0  0  0  0
   -5.1433   48.4504   42.4549 C   0  0  0  0  0  0  0  0  0  0  0  0
   -3.8644   48.0626   42.1267 N   0  0  0  0  0  0  0  0  0  0  0  0
   -5.2569   49.8229   42.3843 C   0  0  0  0  0  0  0  0  0  0  0  0
   -3.2177   49.1737   41.8607 C   0  0  0  0  0  0  0  0  0  0  0  0
   -4.0227   50.2673   42.0018 N   0  0  0  0  0  0  0  0  0  0  0  0
   -3.7509   51.2280   41.8465 H   0  0  0  0  0  0  0  0  0  0  0  0
   -2.4841   39.0311   45.8426 C   0  0  0  0  0  0  0  0  0  0  0  0
   -3.6459   38.2644   46.0503 C   0  0  0  0  0  0  0  0  0  0  0  0
   -2.6139   40.3528   45.3750 C   0  0  0  0  0  0  0  0  0  0  0  0
   -4.8934   38.8480   45.7694 C   0  0  0  0  0  0  0  0  0  0  0  0
   -3.8668   40.9091   45.1107 C   0  0  0  0  0  0  0  0  0  0  0  0
   -5.0294   40.1677   45.2968 C   0  0  0  0  0  0  0  0  0  0  0  0
   -3.5309   36.9306   46.5147 N   0  0  0  0  0  0  0  0  0  0  0  0
   -4.3148   36.2637   47.4307 C   0  0  0  0  0  0  0  0  0  0  0  0
   -5.2353   36.7597   48.0741 O   0  0  0  0  0  0  0  0  0  0  0  0
   -3.9772   34.9327   47.5931 N   0  0  0  0  0  0  0  0  0  0  0  0
   -4.6841   34.1107   48.5611 C   0  0  0  0  0  0  0  0  0  0  0  0
   -3.0148   34.1395   46.8395 C   0  0  0  0  0  0  0  0  0  0  0  0
   -3.8744   32.8250   48.6313 C   0  0  0  0  0  0  0  0  0  0  0  0
   -3.3240   32.6975   47.2176 C   0  0  0  0  0  0  0  0  0  0  0  0
   -2.7157   36.4163   46.2127 H   0  0  0  0  0  0  0  0  0  0  0  0
   -0.1344   39.4684   45.8301 F   0  0  0  0  0  0  0  0  0  0  0  0
   -1.0858   38.5308   46.1000 C   0  0  0  0  0  0  0  0  0  0  0  0
   -0.7345   37.4364   45.3599 F   0  0  0  0  0  0  0  0  0  0  0  0
   -0.8905   38.1670   47.3983 F   0  0  0  0  0  0  0  0  0  0  0  0
 38 39  1  0
 39 40  1  0
 39 41  1  0
 39 23  1  0
 23 24  2  0
 23 25  1  0
 24 29  1  0
 24 26  1  0
 25 27  2  0
 29 30  1  0
 26 28  2  0
 30 31  2  0
 30 32  1  0
 28  1  1  0
 32 33  1  0
 32 34  1  0
  1  3  1  0
 33 35  1  0
 34 36  1  0
  3  4  2  0
  3  5  1  0
  4  6  1  0
  5  7  2  0
  6 13  1  0
  6  8  2  0
  7  9  1  0
 13 15  1  0
  8 10  1  0
  9 11  1  0
 15 16  1  0
 16 17  1  0
 17 18  1  0
 17 19  2  0
 18 20  2  0
 19 21  1  0
 27 28  1  0
 35 36  1  0
  7  8  1  0
 10 11  2  0
 20 21  1  0
 29 37  1  0
  1  2  1  0
 13 14  1  0
  9 12  1  0
 21 22  1  0
M  END
> <Molecule Name>
EL2003A-A4U1

> <Name>
EL2003A-A4U1

> <pIC50 PDK>
7.3

> <selection>
Y

> <MMFF94_energy_kcal_mol>
-61.7183

> <Note>
No stereocenters; achiral molecule

> <minimizedAffinity>
-8.94159

> <CNNscore>
0.9352845550

> <CNNaffinity>
7.7143683434

> <CNN_VS>
7.2151293755

> <CNNaffinity_variance>
0.2234843224
$$$$
