EL2003A


 37 41  0  0  0  0  0  0  0  0999 V2000
   -6.7473   41.6503   44.5476 C   0  0  0  0  0  0  0  0  0  0  0  0
   -6.0091   42.7837   44.6069 N   0  0  0  0  0  0  0  0  0  0  0  0
   -8.0028   41.5669   44.0610 N   0  0  0  0  0  0  0  0  0  0  0  0
   -6.5055   43.9593   44.1423 C   0  0  0  0  0  0  0  0  0  0  0  0
   -8.4635   42.7447   43.6276 C   0  0  0  0  0  0  0  0  0  0  0  0
   -7.8099   43.9590   43.6313 C   0  0  0  0  0  0  0  0  0  0  0  0
   -9.6903   43.0034   43.0892 N   0  0  0  0  0  0  0  0  0  0  0  0
   -8.6105   44.9510   43.1029 N   0  0  0  0  0  0  0  0  0  0  0  0
   -9.7346   44.3392   42.7904 C   0  0  0  0  0  0  0  0  0  0  0  0
  -10.4218   42.3231   42.9469 H   0  0  0  0  0  0  0  0  0  0  0  0
   -6.2477   40.4497   45.0476 N   0  0  0  0  0  0  0  0  0  0  0  0
   -7.0121   39.8231   45.2574 H   0  0  0  0  0  0  0  0  0  0  0  0
   -3.5715   38.0806   46.0435 C   0  0  0  0  0  0  0  0  0  0  0  0
   -4.8203   38.6282   45.7292 C   0  0  0  0  0  0  0  0  0  0  0  0
   -2.4357   38.8876   45.9360 C   0  0  0  0  0  0  0  0  0  0  0  0
   -4.9586   39.9596   45.2923 C   0  0  0  0  0  0  0  0  0  0  0  0
   -2.5496   40.2079   45.5070 C   0  0  0  0  0  0  0  0  0  0  0  0
   -3.8020   40.7338   45.1852 C   0  0  0  0  0  0  0  0  0  0  0  0
   -2.2264   37.0677   48.4755 O   0  0  0  0  0  0  0  0  0  0  0  0
   -2.7099   36.3330   47.6179 C   0  0  0  0  0  0  0  0  0  0  0  0
   -2.6157   34.9583   47.7313 N   0  0  0  0  0  0  0  0  0  0  0  0
   -3.3798   36.7574   46.4930 N   0  0  0  0  0  0  0  0  0  0  0  0
   -1.9710   34.3606   48.8881 C   0  0  0  0  0  0  0  0  0  0  0  0
   -2.9904   33.9419   46.7587 C   0  0  0  0  0  0  0  0  0  0  0  0
   -2.2749   32.8753   48.7662 C   0  0  0  0  0  0  0  0  0  0  0  0
   -2.3256   32.6666   47.2587 C   0  0  0  0  0  0  0  0  0  0  0  0
   -3.8846   36.0470   45.9903 H   0  0  0  0  0  0  0  0  0  0  0  0
   -5.7450   45.1319   44.2541 N   0  0  0  0  0  0  0  0  0  0  0  0
   -6.3632   45.8820   44.5709 H   0  0  0  0  0  0  0  0  0  0  0  0
   -5.0125   45.4938   43.0347 C   0  0  0  0  0  0  0  0  0  0  0  0
   -5.2893   46.9589   42.6621 C   0  0  0  0  0  0  0  0  0  0  0  0
   -4.3398   47.9285   43.2857 C   0  0  0  0  0  0  0  0  0  0  0  0
   -4.4311   48.3439   44.5929 N   0  0  0  0  0  0  0  0  0  0  0  0
   -3.2475   48.6036   42.7855 C   0  0  0  0  0  0  0  0  0  0  0  0
   -3.4022   49.2096   44.8252 C   0  0  0  0  0  0  0  0  0  0  0  0
   -2.6696   49.3891   43.7496 N   0  0  0  0  0  0  0  0  0  0  0  0
   -5.1078   48.0135   45.2737 H   0  0  0  0  0  0  0  0  0  0  0  0
 19 20  2  0
 20 21  1  0
 20 22  1  0
 21 23  1  0
 21 24  1  0
 22 13  1  0
 23 25  1  0
 24 26  1  0
 13 14  2  0
 13 15  1  0
 14 16  1  0
 15 17  2  0
 16 11  1  0
 16 18  2  0
 11  1  1  0
  1  2  2  0
  1  3  1  0
  2  4  1  0
  3  5  2  0
  4 28  1  0
  4  6  2  0
  5  7  1  0
 28 30  1  0
  6  8  1  0
  7  9  1  0
 30 31  1  0
 31 32  1  0
 32 33  1  0
 32 34  2  0
 33 35  1  0
 34 36  1  0
 25 26  1  0
 17 18  1  0
  5  6  1  0
  8  9  2  0
 35 36  2  0
 22 27  1  0
 11 12  1  0
 28 29  1  0
  7 10  1  0
 33 37  1  0
M  END
> <Molecule Name>
EL2003A

> <Name>
EL2003A

> <pIC50 PDK>
7.9

> <selection>
Y

> <MMFF94_energy_kcal_mol>
-85.8421

> <Note>
No stereocenters; achiral molecule

> <minimizedAffinity>
-8.06575

> <CNNscore>
0.9403848052

> <CNNaffinity>
7.4355473518

> <CNN_VS>
6.9922757149

> <CNNaffinity_variance>
0.0668012202
$$$$
