EL2003A
 OpenBabel09072615493D

 37 41  0  0  0  0  0  0  0  0999 V2000
   -6.4423   41.1513   44.8820 C   0  0  0  0  0  0  0  0  0  0  0  0
   -5.2333   41.7395   44.7234 N   0  0  0  0  0  0  0  0  0  0  0  0
   -6.6400   39.8897   45.3172 N   0  0  0  0  0  0  0  0  0  0  0  0
   -4.0913   41.0685   45.0233 C   0  0  0  0  0  0  0  0  0  0  0  0
   -5.4945   39.2557   45.5875 C   0  0  0  0  0  0  0  0  0  0  0  0
   -4.2111   39.7464   45.4707 C   0  0  0  0  0  0  0  0  0  0  0  0
   -5.3458   37.9754   46.0352 N   0  0  0  0  0  0  0  0  0  0  0  0
   -3.2839   38.7941   45.8416 N   0  0  0  0  0  0  0  0  0  0  0  0
   -4.0034   37.7413   46.1724 C   0  0  0  0  0  0  0  0  0  0  0  0
   -6.0986   37.3303   46.2231 H   0  0  0  0  0  0  0  0  0  0  0  0
   -7.6124   41.8308   44.5500 N   0  0  0  0  0  0  0  0  0  0  0  0
   -8.4096   41.3486   44.9411 H   0  0  0  0  0  0  0  0  0  0  0  0
   -7.1138   45.2160   43.1154 C   0  0  0  0  0  0  0  0  0  0  0  0
   -6.8973   43.9998   43.7727 C   0  0  0  0  0  0  0  0  0  0  0  0
   -8.3545   45.4458   42.5148 C   0  0  0  0  0  0  0  0  0  0  0  0
   -7.8868   42.9995   43.8283 C   0  0  0  0  0  0  0  0  0  0  0  0
   -9.3481   44.4707   42.5589 C   0  0  0  0  0  0  0  0  0  0  0  0
   -9.1102   43.2578   43.2078 C   0  0  0  0  0  0  0  0  0  0  0  0
   -7.4711   48.0998   42.5617 O   0  0  0  0  0  0  0  0  0  0  0  0
   -6.3727   47.5790   42.7378 C   0  0  0  0  0  0  0  0  0  0  0  0
   -5.2139   48.3278   42.6481 N   0  0  0  0  0  0  0  0  0  0  0  0
   -6.1603   46.2527   43.0381 N   0  0  0  0  0  0  0  0  0  0  0  0
   -5.2815   49.7537   42.3771 C   0  0  0  0  0  0  0  0  0  0  0  0
   -3.8333   47.8666   42.6779 C   0  0  0  0  0  0  0  0  0  0  0  0
   -3.8591   50.2480   42.5904 C   0  0  0  0  0  0  0  0  0  0  0  0
   -3.0210   49.0490   42.1677 C   0  0  0  0  0  0  0  0  0  0  0  0
   -5.2316   46.0168   43.3446 H   0  0  0  0  0  0  0  0  0  0  0  0
   -2.8464   41.6770   44.8091 N   0  0  0  0  0  0  0  0  0  0  0  0
   -2.9088   42.2351   43.9548 H   0  0  0  0  0  0  0  0  0  0  0  0
   -1.7155   40.7418   44.7800 C   0  0  0  0  0  0  0  0  0  0  0  0
   -0.7790   41.0014   45.9706 C   0  0  0  0  0  0  0  0  0  0  0  0
    0.1384   42.1632   45.7729 C   0  0  0  0  0  0  0  0  0  0  0  0
   -0.1599   43.4418   46.1800 N   0  0  0  0  0  0  0  0  0  0  0  0
    1.3827   42.2692   45.1899 C   0  0  0  0  0  0  0  0  0  0  0  0
    0.9000   44.2378   45.8558 C   0  0  0  0  0  0  0  0  0  0  0  0
    1.8484   43.5574   45.2530 N   0  0  0  0  0  0  0  0  0  0  0  0
   -0.9939   43.7230   46.6860 H   0  0  0  0  0  0  0  0  0  0  0  0
  1  2  2  0  0  0  0
  1  3  1  0  0  0  0
  2  4  1  0  0  0  0
  3  5  2  0  0  0  0
  4 28  1  0  0  0  0
  4  6  2  0  0  0  0
  5  7  1  0  0  0  0
  5  6  1  0  0  0  0
  6  8  1  0  0  0  0
  7  9  1  0  0  0  0
  7 10  1  0  0  0  0
  8  9  2  0  0  0  0
 11  1  1  0  0  0  0
 11 12  1  0  0  0  0
 13 14  2  0  0  0  0
 13 15  1  0  0  0  0
 14 16  1  0  0  0  0
 15 17  2  0  0  0  0
 16 11  1  0  0  0  0
 16 18  2  0  0  0  0
 17 18  1  0  0  0  0
 19 20  2  0  0  0  0
 20 21  1  0  0  0  0
 20 22  1  0  0  0  0
 21 23  1  0  0  0  0
 21 24  1  0  0  0  0
 22 13  1  0  0  0  0
 22 27  1  0  0  0  0
 23 25  1  0  0  0  0
 24 26  1  0  0  0  0
 25 26  1  0  0  0  0
 28 30  1  0  0  0  0
 28 29  1  0  0  0  0
 30 31  1  0  0  0  0
 31 32  1  0  0  0  0
 32 33  1  0  0  0  0
 32 34  2  0  0  0  0
 33 35  1  0  0  0  0
 33 37  1  0  0  0  0
 34 36  1  0  0  0  0
 35 36  2  0  0  0  0
M  END
