EL2003A-A4U1
 OpenBabel09072615503D

 41 45  0  0  0  0  0  0  0  0999 V2000
   -6.6317   40.3190   44.8644 N   0  0  0  0  0  0  0  0  0  0  0  0
   -7.4580   39.7522   44.7347 H   0  0  0  0  0  0  0  0  0  0  0  0
   -6.8649   41.5923   44.3463 C   0  0  0  0  0  0  0  0  0  0  0  0
   -5.8474   42.4619   44.1579 N   0  0  0  0  0  0  0  0  0  0  0  0
   -8.1644   41.8499   44.0915 N   0  0  0  0  0  0  0  0  0  0  0  0
   -6.0755   43.7072   43.6613 C   0  0  0  0  0  0  0  0  0  0  0  0
   -8.3550   43.0830   43.6124 C   0  0  0  0  0  0  0  0  0  0  0  0
   -7.4045   44.0536   43.3731 C   0  0  0  0  0  0  0  0  0  0  0  0
   -9.5434   43.6513   43.2575 N   0  0  0  0  0  0  0  0  0  0  0  0
   -7.9964   45.2110   42.9029 N   0  0  0  0  0  0  0  0  0  0  0  0
   -9.2805   44.9274   42.8377 C   0  0  0  0  0  0  0  0  0  0  0  0
  -10.4437   43.1987   43.3042 H   0  0  0  0  0  0  0  0  0  0  0  0
   -5.0237   44.6026   43.4541 N   0  0  0  0  0  0  0  0  0  0  0  0
   -4.8338   44.6992   42.4571 H   0  0  0  0  0  0  0  0  0  0  0  0
   -5.0946   45.8746   44.1739 C   0  0  0  0  0  0  0  0  0  0  0  0
   -4.7792   47.0919   43.2965 C   0  0  0  0  0  0  0  0  0  0  0  0
   -4.9622   48.3848   44.0145 C   0  0  0  0  0  0  0  0  0  0  0  0
   -4.4520   48.5655   45.2798 N   0  0  0  0  0  0  0  0  0  0  0  0
   -5.6019   49.5310   43.5917 C   0  0  0  0  0  0  0  0  0  0  0  0
   -4.7723   49.7934   45.6158 C   0  0  0  0  0  0  0  0  0  0  0  0
   -5.4690   50.4186   44.6221 N   0  0  0  0  0  0  0  0  0  0  0  0
   -5.8173   51.3668   44.6477 H   0  0  0  0  0  0  0  0  0  0  0  0
   -3.1823   38.5260   46.5528 C   0  0  0  0  0  0  0  0  0  0  0  0
   -3.1147   39.8065   45.9728 C   0  0  0  0  0  0  0  0  0  0  0  0
   -4.4153   37.8462   46.5628 C   0  0  0  0  0  0  0  0  0  0  0  0
   -4.2890   40.3622   45.4360 C   0  0  0  0  0  0  0  0  0  0  0  0
   -5.5646   38.4199   46.0158 C   0  0  0  0  0  0  0  0  0  0  0  0
   -5.5261   39.6894   45.4474 C   0  0  0  0  0  0  0  0  0  0  0  0
   -1.8823   40.5056   45.9608 N   0  0  0  0  0  0  0  0  0  0  0  0
   -0.8238   40.3764   45.0882 C   0  0  0  0  0  0  0  0  0  0  0  0
   -0.7437   39.5493   44.1846 O   0  0  0  0  0  0  0  0  0  0  0  0
    0.1990   41.2799   45.3107 N   0  0  0  0  0  0  0  0  0  0  0  0
    1.4047   41.2354   44.5002 C   0  0  0  0  0  0  0  0  0  0  0  0
    0.2346   42.4043   46.2368 C   0  0  0  0  0  0  0  0  0  0  0  0
    2.3684   42.1812   45.2003 C   0  0  0  0  0  0  0  0  0  0  0  0
    1.4374   43.2276   45.7971 C   0  0  0  0  0  0  0  0  0  0  0  0
   -1.7030   41.1178   46.7438 H   0  0  0  0  0  0  0  0  0  0  0  0
   -1.2803   38.6156   47.9972 F   0  0  0  0  0  0  0  0  0  0  0  0
   -2.0037   37.8141   47.1658 C   0  0  0  0  0  0  0  0  0  0  0  0
   -1.1039   37.3302   46.2574 F   0  0  0  0  0  0  0  0  0  0  0  0
   -2.3737   36.7387   47.9159 F   0  0  0  0  0  0  0  0  0  0  0  0
  1  3  1  0  0  0  0
  1  2  1  0  0  0  0
  3  4  2  0  0  0  0
  3  5  1  0  0  0  0
  4  6  1  0  0  0  0
  5  7  2  0  0  0  0
  6 13  1  0  0  0  0
  6  8  2  0  0  0  0
  7  9  1  0  0  0  0
  7  8  1  0  0  0  0
  8 10  1  0  0  0  0
  9 11  1  0  0  0  0
  9 12  1  0  0  0  0
 10 11  2  0  0  0  0
 13 15  1  0  0  0  0
 13 14  1  0  0  0  0
 15 16  1  0  0  0  0
 16 17  1  0  0  0  0
 17 18  1  0  0  0  0
 17 19  2  0  0  0  0
 18 20  2  0  0  0  0
 19 21  1  0  0  0  0
 20 21  1  0  0  0  0
 21 22  1  0  0  0  0
 23 24  2  0  0  0  0
 23 25  1  0  0  0  0
 24 29  1  0  0  0  0
 24 26  1  0  0  0  0
 25 27  2  0  0  0  0
 26 28  2  0  0  0  0
 27 28  1  0  0  0  0
 28  1  1  0  0  0  0
 29 30  1  0  0  0  0
 29 37  1  0  0  0  0
 30 31  2  0  0  0  0
 30 32  1  0  0  0  0
 32 33  1  0  0  0  0
 32 34  1  0  0  0  0
 33 35  1  0  0  0  0
 34 36  1  0  0  0  0
 35 36  1  0  0  0  0
 38 39  1  0  0  0  0
 39 40  1  0  0  0  0
 39 41  1  0  0  0  0
 39 23  1  0  0  0  0
M  END
