EL5003A
 OpenBabel09072615533D

 33 36  0  0  0  0  0  0  0  0999 V2000
   -4.8303   38.5280   45.9961 Br  0  0  0  0  0  0  0  0  0  0  0  0
   -4.3923   40.1873   45.2093 C   0  0  0  0  0  0  0  0  0  0  0  0
   -5.3365   41.1041   44.7717 C   0  0  0  0  0  0  0  0  0  0  0  0
   -3.0743   40.5427   45.0357 C   0  0  0  0  0  0  0  0  0  0  0  0
   -4.9566   42.2735   44.2227 N   0  0  0  0  0  0  0  0  0  0  0  0
   -2.6789   41.7106   44.4928 N   0  0  0  0  0  0  0  0  0  0  0  0
   -3.6513   42.5501   44.1239 C   0  0  0  0  0  0  0  0  0  0  0  0
   -6.7119   40.8028   44.8650 N   0  0  0  0  0  0  0  0  0  0  0  0
   -6.9851   40.8191   45.8447 H   0  0  0  0  0  0  0  0  0  0  0  0
   -7.6060   41.6153   44.0239 C   0  0  0  0  0  0  0  0  0  0  0  0
   -7.7141   43.0504   44.5567 C   0  0  0  0  0  0  0  0  0  0  0  0
   -8.3397   43.9904   43.5877 C   0  0  0  0  0  0  0  0  0  0  0  0
   -9.3401   43.5820   42.7346 N   0  0  0  0  0  0  0  0  0  0  0  0
   -8.0458   45.3190   43.3735 C   0  0  0  0  0  0  0  0  0  0  0  0
   -9.6633   44.6501   42.0394 C   0  0  0  0  0  0  0  0  0  0  0  0
   -8.9067   45.7302   42.3936 N   0  0  0  0  0  0  0  0  0  0  0  0
   -8.9872   46.6751   42.0238 H   0  0  0  0  0  0  0  0  0  0  0  0
   -3.3548   43.8067   43.6268 N   0  0  0  0  0  0  0  0  0  0  0  0
   -2.4751   44.0750   44.0588 H   0  0  0  0  0  0  0  0  0  0  0  0
   -4.4275   44.7897   43.6236 C   0  0  1  0  0  0  0  0  0  0  0  0
   -3.9358   46.1797   44.0268 C   0  0  0  0  0  0  0  0  0  0  0  0
   -4.9184   44.9957   42.1836 C   0  0  0  0  0  0  0  0  0  0  0  0
   -3.2555   46.6901   42.7619 C   0  0  1  0  0  0  0  0  0  0  0  0
   -4.1411   46.1895   41.6200 C   0  0  0  0  0  0  0  0  0  0  0  0
   -3.0751   48.1269   42.7552 N   0  0  0  0  0  0  0  0  0  0  0  0
   -4.1519   48.9740   42.8078 C   0  0  0  0  0  0  0  0  0  0  0  0
   -5.3145   48.5767   42.7561 O   0  0  0  0  0  0  0  0  0  0  0  0
   -3.8303   50.3041   42.8896 N   0  0  0  0  0  0  0  0  0  0  0  0
   -2.5119   50.9123   42.7833 C   0  0  0  0  0  0  0  0  0  0  0  0
   -4.8691   51.3169   42.9586 C   0  0  0  0  0  0  0  0  0  0  0  0
   -2.7890   52.3901   42.5431 C   0  0  0  0  0  0  0  0  0  0  0  0
   -4.1201   52.6080   43.2504 C   0  0  0  0  0  0  0  0  0  0  0  0
   -2.2293   48.4804   43.1742 H   0  0  0  0  0  0  0  0  0  0  0  0
  1  2  1  0  0  0  0
  2  3  2  0  0  0  0
  2  4  1  0  0  0  0
  3  5  1  0  0  0  0
  3  8  1  0  0  0  0
  4  6  2  0  0  0  0
  5  7  2  0  0  0  0
  6  7  1  0  0  0  0
  7 18  1  0  0  0  0
  8 10  1  0  0  0  0
  8  9  1  0  0  0  0
 10 11  1  0  0  0  0
 11 12  1  0  0  0  0
 12 13  1  0  0  0  0
 12 14  2  0  0  0  0
 13 15  2  0  0  0  0
 14 16  1  0  0  0  0
 15 16  1  0  0  0  0
 16 17  1  0  0  0  0
 18 19  1  0  0  0  0
 20 18  1  6  0  0  0
 20 21  1  0  0  0  0
 20 22  1  0  0  0  0
 21 23  1  0  0  0  0
 22 24  1  0  0  0  0
 23 25  1  1  0  0  0
 23 24  1  0  0  0  0
 25 26  1  0  0  0  0
 25 33  1  0  0  0  0
 26 27  2  0  0  0  0
 26 28  1  0  0  0  0
 28 29  1  0  0  0  0
 28 30  1  0  0  0  0
 29 31  1  0  0  0  0
 30 32  1  0  0  0  0
 31 32  1  0  0  0  0
M  END
