BX912


 34 37  0  0  0  0  0  0  0  0999 V2000
   -9.0634   45.3846   42.8389 Br  0  0  0  0  0  0  0  0  0  0  0  0
   -8.3047   43.7770   43.4742 C   0  0  0  0  0  0  0  0  0  0  0  0
   -7.0456   43.6988   44.0509 C   0  0  0  0  0  0  0  0  0  0  0  0
   -8.9911   42.5923   43.3503 C   0  0  0  0  0  0  0  0  0  0  0  0
   -6.5603   42.5215   44.4977 N   0  0  0  0  0  0  0  0  0  0  0  0
   -8.5122   41.4049   43.7700 N   0  0  0  0  0  0  0  0  0  0  0  0
   -7.3118   41.4148   44.3636 C   0  0  0  0  0  0  0  0  0  0  0  0
   -6.2822   44.8677   44.2405 N   0  0  0  0  0  0  0  0  0  0  0  0
   -6.8128   45.6882   43.9571 H   0  0  0  0  0  0  0  0  0  0  0  0
   -4.9220   44.8533   43.6935 C   0  0  0  0  0  0  0  0  0  0  0  0
   -4.5707   46.1746   42.9862 C   0  0  0  0  0  0  0  0  0  0  0  0
   -3.5107   46.9338   43.7003 C   0  0  0  0  0  0  0  0  0  0  0  0
   -2.2123   46.4905   43.7722 N   0  0  0  0  0  0  0  0  0  0  0  0
   -3.5118   48.1262   44.3891 C   0  0  0  0  0  0  0  0  0  0  0  0
   -1.5040   47.4078   44.4936 C   0  0  0  0  0  0  0  0  0  0  0  0
   -2.2627   48.4083   44.8797 N   0  0  0  0  0  0  0  0  0  0  0  0
   -1.8533   45.6214   43.3926 H   0  0  0  0  0  0  0  0  0  0  0  0
   -6.8352   40.1787   44.7879 N   0  0  0  0  0  0  0  0  0  0  0  0
   -7.6155   39.5633   44.9819 H   0  0  0  0  0  0  0  0  0  0  0  0
   -5.6149   39.7918   45.3625 C   0  0  0  0  0  0  0  0  0  0  0  0
   -5.4925   38.4767   45.8462 C   0  0  0  0  0  0  0  0  0  0  0  0
   -4.4847   40.6138   45.3949 C   0  0  0  0  0  0  0  0  0  0  0  0
   -4.2875   37.9958   46.3693 C   0  0  0  0  0  0  0  0  0  0  0  0
   -3.2744   40.1477   45.9095 C   0  0  0  0  0  0  0  0  0  0  0  0
   -3.1765   38.8440   46.3922 C   0  0  0  0  0  0  0  0  0  0  0  0
   -4.1056   36.6846   46.8553 N   0  0  0  0  0  0  0  0  0  0  0  0
   -2.9348   36.0912   47.2701 C   0  0  0  0  0  0  0  0  0  0  0  0
   -1.8195   36.6009   47.2001 O   0  0  0  0  0  0  0  0  0  0  0  0
   -3.1013   34.8220   47.7911 N   0  0  0  0  0  0  0  0  0  0  0  0
   -4.3421   34.1229   48.0936 C   0  0  0  0  0  0  0  0  0  0  0  0
   -1.9494   34.0552   48.2352 C   0  0  0  0  0  0  0  0  0  0  0  0
   -3.9222   32.9591   48.9811 C   0  0  0  0  0  0  0  0  0  0  0  0
   -2.5032   32.6662   48.5133 C   0  0  0  0  0  0  0  0  0  0  0  0
   -4.9017   36.0734   46.7833 H   0  0  0  0  0  0  0  0  0  0  0  0
  1  2  1  0
  2  3  2  0
  2  4  1  0
  3  5  1  0
  3  8  1  0
  4  6  2  0
  5  7  2  0
  8 10  1  0
  7 18  1  0
 10 11  1  0
 18 20  1  0
 11 12  1  0
 20 21  2  0
 20 22  1  0
 12 13  1  0
 12 14  2  0
 21 23  1  0
 22 24  2  0
 13 15  1  0
 14 16  1  0
 23 26  1  0
 23 25  2  0
 26 27  1  0
 27 28  2  0
 27 29  1  0
 29 30  1  0
 29 31  1  0
 30 32  1  0
 31 33  1  0
  6  7  1  0
 24 25  1  0
 15 16  2  0
 32 33  1  0
  8  9  1  0
 18 19  1  0
 13 17  1  0
 26 34  1  0
M  END
> <Molecule Name>
BX912

> <Name>
BX912

> <pIC50 PDK>
7.327902

> <selection>
Y

> <MMFF94_energy_kcal_mol>
-102.6324

> <Note>
No stereocenters; achiral molecule

> <minimizedAffinity>
-8.56269

> <CNNscore>
0.9672747850

> <CNNaffinity>
7.6688499451

> <CNN_VS>
7.4178853035

> <CNNaffinity_variance>
0.0664887950
$$$$
