EL2003A-A4U1
 OpenBabel09072615503D

 41 45  0  0  0  0  0  0  0  0999 V2000
   -5.7321   41.8417   44.9704 N   0  0  0  0  0  0  0  0  0  0  0  0
   -6.3692   41.3759   45.6013 H   0  0  0  0  0  0  0  0  0  0  0  0
   -6.4229   42.8305   44.2710 C   0  0  0  0  0  0  0  0  0  0  0  0
   -5.7960   43.9544   43.8576 N   0  0  0  0  0  0  0  0  0  0  0  0
   -7.7312   42.5579   44.0867 N   0  0  0  0  0  0  0  0  0  0  0  0
   -6.4715   44.9233   43.1834 C   0  0  0  0  0  0  0  0  0  0  0  0
   -8.3670   43.5322   43.4287 C   0  0  0  0  0  0  0  0  0  0  0  0
   -7.8402   44.7156   42.9541 C   0  0  0  0  0  0  0  0  0  0  0  0
   -9.6869   43.5655   43.0855 N   0  0  0  0  0  0  0  0  0  0  0  0
   -8.8218   45.4795   42.3508 N   0  0  0  0  0  0  0  0  0  0  0  0
   -9.9150   44.7512   42.4408 C   0  0  0  0  0  0  0  0  0  0  0  0
  -10.3592   42.8393   43.2812 H   0  0  0  0  0  0  0  0  0  0  0  0
   -5.8225   46.0797   42.7443 N   0  0  0  0  0  0  0  0  0  0  0  0
   -5.4168   45.9276   41.8214 H   0  0  0  0  0  0  0  0  0  0  0  0
   -6.5634   47.3351   42.8709 C   0  0  0  0  0  0  0  0  0  0  0  0
   -6.1880   48.3762   41.8096 C   0  0  0  0  0  0  0  0  0  0  0  0
   -5.3034   49.4509   42.3417 C   0  0  0  0  0  0  0  0  0  0  0  0
   -5.7542   50.7471   42.4441 N   0  0  0  0  0  0  0  0  0  0  0  0
   -4.0038   49.3623   42.7945 C   0  0  0  0  0  0  0  0  0  0  0  0
   -4.7525   51.4286   42.9496 C   0  0  0  0  0  0  0  0  0  0  0  0
   -3.6697   50.6298   43.1804 N   0  0  0  0  0  0  0  0  0  0  0  0
   -2.7857   50.9266   43.5698 H   0  0  0  0  0  0  0  0  0  0  0  0
   -1.7871   40.2930   45.0143 C   0  0  0  0  0  0  0  0  0  0  0  0
   -2.7827   39.7447   45.8442 C   0  0  0  0  0  0  0  0  0  0  0  0
   -2.1206   41.3676   44.1679 C   0  0  0  0  0  0  0  0  0  0  0  0
   -4.0783   40.2866   45.7848 C   0  0  0  0  0  0  0  0  0  0  0  0
   -3.4147   41.8904   44.1347 C   0  0  0  0  0  0  0  0  0  0  0  0
   -4.4193   41.3579   44.9368 C   0  0  0  0  0  0  0  0  0  0  0  0
   -2.4637   38.6589   46.6970 N   0  0  0  0  0  0  0  0  0  0  0  0
   -2.6869   37.3132   46.5032 C   0  0  0  0  0  0  0  0  0  0  0  0
   -3.2886   36.8215   45.5529 O   0  0  0  0  0  0  0  0  0  0  0  0
   -2.1693   36.5100   47.5028 N   0  0  0  0  0  0  0  0  0  0  0  0
   -2.3670   35.0707   47.4616 C   0  0  0  0  0  0  0  0  0  0  0  0
   -1.3256   36.8884   48.6289 C   0  0  0  0  0  0  0  0  0  0  0  0
   -1.8968   34.5834   48.8236 C   0  0  0  0  0  0  0  0  0  0  0  0
   -0.7896   35.5697   49.1689 C   0  0  0  0  0  0  0  0  0  0  0  0
   -2.1084   38.8937   47.6128 H   0  0  0  0  0  0  0  0  0  0  0  0
   -0.2478   38.5468   44.4726 F   0  0  0  0  0  0  0  0  0  0  0  0
   -0.3604   39.8086   44.9749 C   0  0  0  0  0  0  0  0  0  0  0  0
    0.2539   39.7675   46.1955 F   0  0  0  0  0  0  0  0  0  0  0  0
    0.4370   40.5910   44.1952 F   0  0  0  0  0  0  0  0  0  0  0  0
  1  3  1  0  0  0  0
  1  2  1  0  0  0  0
  3  4  2  0  0  0  0
  3  5  1  0  0  0  0
  4  6  1  0  0  0  0
  5  7  2  0  0  0  0
  6 13  1  0  0  0  0
  6  8  2  0  0  0  0
  7  9  1  0  0  0  0
  7  8  1  0  0  0  0
  8 10  1  0  0  0  0
  9 11  1  0  0  0  0
  9 12  1  0  0  0  0
 10 11  2  0  0  0  0
 13 15  1  0  0  0  0
 13 14  1  0  0  0  0
 15 16  1  0  0  0  0
 16 17  1  0  0  0  0
 17 18  1  0  0  0  0
 17 19  2  0  0  0  0
 18 20  2  0  0  0  0
 19 21  1  0  0  0  0
 20 21  1  0  0  0  0
 21 22  1  0  0  0  0
 23 24  2  0  0  0  0
 23 25  1  0  0  0  0
 24 29  1  0  0  0  0
 24 26  1  0  0  0  0
 25 27  2  0  0  0  0
 26 28  2  0  0  0  0
 27 28  1  0  0  0  0
 28  1  1  0  0  0  0
 29 30  1  0  0  0  0
 29 37  1  0  0  0  0
 30 31  2  0  0  0  0
 30 32  1  0  0  0  0
 32 33  1  0  0  0  0
 32 34  1  0  0  0  0
 33 35  1  0  0  0  0
 34 36  1  0  0  0  0
 35 36  1  0  0  0  0
 38 39  1  0  0  0  0
 39 40  1  0  0  0  0
 39 41  1  0  0  0  0
 39 23  1  0  0  0  0
M  END
