EL2003A-A4U1


 41 45  0  0  0  0  0  0  0  0999 V2000
   -7.0365   42.1424   44.3775 N   0  0  0  0  0  0  0  0  0  0  0  0
   -7.8940   41.6419   44.5647 H   0  0  0  0  0  0  0  0  0  0  0  0
   -5.9520   41.3314   44.7093 C   0  0  0  0  0  0  0  0  0  0  0  0
   -6.1353   40.0431   45.0751 N   0  0  0  0  0  0  0  0  0  0  0  0
   -4.7599   41.9601   44.6496 N   0  0  0  0  0  0  0  0  0  0  0  0
   -5.0786   39.2543   45.4078 C   0  0  0  0  0  0  0  0  0  0  0  0
   -3.7444   41.1604   44.9895 C   0  0  0  0  0  0  0  0  0  0  0  0
   -3.8024   39.8367   45.3734 C   0  0  0  0  0  0  0  0  0  0  0  0
   -2.4207   41.4874   45.0327 N   0  0  0  0  0  0  0  0  0  0  0  0
   -2.5400   39.3599   45.6739 N   0  0  0  0  0  0  0  0  0  0  0  0
   -1.7356   40.3776   45.4479 C   0  0  0  0  0  0  0  0  0  0  0  0
   -2.0346   42.3897   44.7992 H   0  0  0  0  0  0  0  0  0  0  0  0
   -5.2649   37.9192   45.7737 N   0  0  0  0  0  0  0  0  0  0  0  0
   -4.9780   37.3020   45.0147 H   0  0  0  0  0  0  0  0  0  0  0  0
   -4.7588   37.5233   47.0884 C   0  0  0  0  0  0  0  0  0  0  0  0
   -3.5887   36.5347   47.0205 C   0  0  0  0  0  0  0  0  0  0  0  0
   -3.9045   35.2213   47.6498 C   0  0  0  0  0  0  0  0  0  0  0  0
   -5.0148   35.0729   48.4493 N   0  0  0  0  0  0  0  0  0  0  0  0
   -3.2232   34.0261   47.5557 C   0  0  0  0  0  0  0  0  0  0  0  0
   -5.0087   33.8163   48.8292 C   0  0  0  0  0  0  0  0  0  0  0  0
   -3.9414   33.1416   48.3101 N   0  0  0  0  0  0  0  0  0  0  0  0
   -3.7284   32.1649   48.4571 H   0  0  0  0  0  0  0  0  0  0  0  0
   -7.2708   46.1493   43.0159 C   0  0  0  0  0  0  0  0  0  0  0  0
   -6.0238   45.5528   43.2803 C   0  0  0  0  0  0  0  0  0  0  0  0
   -8.4430   45.3945   43.2122 C   0  0  0  0  0  0  0  0  0  0  0  0
   -5.9989   44.2178   43.7197 C   0  0  0  0  0  0  0  0  0  0  0  0
   -8.3886   44.0720   43.6563 C   0  0  0  0  0  0  0  0  0  0  0  0
   -7.1675   43.4562   43.9131 C   0  0  0  0  0  0  0  0  0  0  0  0
   -4.8350   46.2979   43.0815 N   0  0  0  0  0  0  0  0  0  0  0  0
   -4.1763   47.1261   43.9638 C   0  0  0  0  0  0  0  0  0  0  0  0
   -4.5679   47.4222   45.0891 O   0  0  0  0  0  0  0  0  0  0  0  0
   -2.9877   47.6349   43.4735 N   0  0  0  0  0  0  0  0  0  0  0  0
   -2.2036   48.5626   44.2717 C   0  0  0  0  0  0  0  0  0  0  0  0
   -2.3003   47.3056   42.2317 C   0  0  0  0  0  0  0  0  0  0  0  0
   -1.1418   49.0834   43.3153 C   0  0  0  0  0  0  0  0  0  0  0  0
   -0.9054   47.8931   42.3960 C   0  0  0  0  0  0  0  0  0  0  0  0
   -4.4588   46.3058   42.1442 H   0  0  0  0  0  0  0  0  0  0  0  0
   -6.7773   47.8160   41.3755 F   0  0  0  0  0  0  0  0  0  0  0  0
   -7.4430   47.5685   42.5386 C   0  0  0  0  0  0  0  0  0  0  0  0
   -6.9980   48.5159   43.4180 F   0  0  0  0  0  0  0  0  0  0  0  0
   -8.7456   47.8848   42.2952 F   0  0  0  0  0  0  0  0  0  0  0  0
 38 39  1  0
 39 40  1  0
 39 41  1  0
 39 23  1  0
 23 24  2  0
 23 25  1  0
 24 29  1  0
 24 26  1  0
 25 27  2  0
 29 30  1  0
 26 28  2  0
 30 31  2  0
 30 32  1  0
 28  1  1  0
 32 33  1  0
 32 34  1  0
  1  3  1  0
 33 35  1  0
 34 36  1  0
  3  4  2  0
  3  5  1  0
  4  6  1  0
  5  7  2  0
  6 13  1  0
  6  8  2  0
  7  9  1  0
 13 15  1  0
  8 10  1  0
  9 11  1  0
 15 16  1  0
 16 17  1  0
 17 18  1  0
 17 19  2  0
 18 20  2  0
 19 21  1  0
 27 28  1  0
 35 36  1  0
  7  8  1  0
 10 11  2  0
 20 21  1  0
 29 37  1  0
  1  2  1  0
 13 14  1  0
  9 12  1  0
 21 22  1  0
M  END
> <Molecule Name>
EL2003A-A4U1

> <Name>
EL2003A-A4U1

> <pIC50 PDK>
7.3

> <selection>
Y

> <MMFF94_energy_kcal_mol>
-61.7183

> <Note>
No stereocenters; achiral molecule

> <minimizedAffinity>
-9.20286

> <CNNscore>
0.4920539558

> <CNNaffinity>
7.1838550568

> <CNN_VS>
3.5348443985

> <CNNaffinity_variance>
0.2038888484
$$$$
