EL2003A


 37 41  0  0  0  0  0  0  0  0999 V2000
   -7.1137   41.4727   44.4765 C   0  0  0  0  0  0  0  0  0  0  0  0
   -6.3094   42.5365   44.7095 N   0  0  0  0  0  0  0  0  0  0  0  0
   -8.3040   41.5240   43.8438 N   0  0  0  0  0  0  0  0  0  0  0  0
   -6.6614   43.7776   44.2850 C   0  0  0  0  0  0  0  0  0  0  0  0
   -8.6242   42.7622   43.4545 C   0  0  0  0  0  0  0  0  0  0  0  0
   -7.8913   43.9172   43.6289 C   0  0  0  0  0  0  0  0  0  0  0  0
   -9.7556   43.1549   42.8006 N   0  0  0  0  0  0  0  0  0  0  0  0
   -8.5498   45.0043   43.0918 N   0  0  0  0  0  0  0  0  0  0  0  0
   -9.6686   44.5076   42.6048 C   0  0  0  0  0  0  0  0  0  0  0  0
  -10.5111   42.5468   42.5220 H   0  0  0  0  0  0  0  0  0  0  0  0
   -6.7646   40.2040   44.9345 N   0  0  0  0  0  0  0  0  0  0  0  0
   -7.5536   39.5794   44.8435 H   0  0  0  0  0  0  0  0  0  0  0  0
   -3.1965   39.9312   45.9146 C   0  0  0  0  0  0  0  0  0  0  0  0
   -4.4203   40.4318   45.4565 C   0  0  0  0  0  0  0  0  0  0  0  0
   -3.1359   38.6107   46.3678 C   0  0  0  0  0  0  0  0  0  0  0  0
   -5.5903   39.6482   45.4578 C   0  0  0  0  0  0  0  0  0  0  0  0
   -4.2806   37.8173   46.3766 C   0  0  0  0  0  0  0  0  0  0  0  0
   -5.4961   38.3372   45.9282 C   0  0  0  0  0  0  0  0  0  0  0  0
   -0.7985   39.7037   44.1976 O   0  0  0  0  0  0  0  0  0  0  0  0
   -0.8873   40.5007   45.1281 C   0  0  0  0  0  0  0  0  0  0  0  0
    0.1714   41.3292   45.4513 N   0  0  0  0  0  0  0  0  0  0  0  0
   -1.9954   40.6708   45.9265 N   0  0  0  0  0  0  0  0  0  0  0  0
    1.3960   41.2926   44.6703 C   0  0  0  0  0  0  0  0  0  0  0  0
    0.3071   42.2205   46.5944 C   0  0  0  0  0  0  0  0  0  0  0  0
    2.2009   42.4818   45.1715 C   0  0  0  0  0  0  0  0  0  0  0  0
    1.7878   42.5732   46.6342 C   0  0  0  0  0  0  0  0  0  0  0  0
   -1.9902   41.4876   46.5138 H   0  0  0  0  0  0  0  0  0  0  0  0
   -5.8386   44.8751   44.5755 N   0  0  0  0  0  0  0  0  0  0  0  0
   -6.3678   45.7282   44.3826 H   0  0  0  0  0  0  0  0  0  0  0  0
   -4.5434   44.8569   43.8852 C   0  0  0  0  0  0  0  0  0  0  0  0
   -4.6987   45.3774   42.4476 C   0  0  0  0  0  0  0  0  0  0  0  0
   -3.7801   46.5066   42.1135 C   0  0  0  0  0  0  0  0  0  0  0  0
   -2.4102   46.3933   42.1108 N   0  0  0  0  0  0  0  0  0  0  0  0
   -4.0175   47.8193   41.7674 C   0  0  0  0  0  0  0  0  0  0  0  0
   -1.8951   47.6039   41.7485 C   0  0  0  0  0  0  0  0  0  0  0  0
   -2.8430   48.4883   41.5365 N   0  0  0  0  0  0  0  0  0  0  0  0
   -1.8858   45.5421   42.2869 H   0  0  0  0  0  0  0  0  0  0  0  0
 19 20  2  0
 20 21  1  0
 20 22  1  0
 21 23  1  0
 21 24  1  0
 22 13  1  0
 23 25  1  0
 24 26  1  0
 13 14  2  0
 13 15  1  0
 14 16  1  0
 15 17  2  0
 16 11  1  0
 16 18  2  0
 11  1  1  0
  1  2  2  0
  1  3  1  0
  2  4  1  0
  3  5  2  0
  4 28  1  0
  4  6  2  0
  5  7  1  0
 28 30  1  0
  6  8  1  0
  7  9  1  0
 30 31  1  0
 31 32  1  0
 32 33  1  0
 32 34  2  0
 33 35  1  0
 34 36  1  0
 25 26  1  0
 17 18  1  0
  5  6  1  0
  8  9  2  0
 35 36  2  0
 22 27  1  0
 11 12  1  0
 28 29  1  0
  7 10  1  0
 33 37  1  0
M  END
> <Molecule Name>
EL2003A

> <Name>
EL2003A

> <pIC50 PDK>
7.9

> <selection>
Y

> <MMFF94_energy_kcal_mol>
-85.8421

> <Note>
No stereocenters; achiral molecule

> <minimizedAffinity>
-9.73532

> <CNNscore>
0.9759162664

> <CNNaffinity>
7.7116127014

> <CNN_VS>
7.5258884430

> <CNNaffinity_variance>
0.2957966626
$$$$
EL2003A


 37 41  0  0  0  0  0  0  0  0999 V2000
   -7.1166   41.4528   44.4448 C   0  0  0  0  0  0  0  0  0  0  0  0
   -6.3172   42.5186   44.6851 N   0  0  0  0  0  0  0  0  0  0  0  0
   -8.3138   41.5050   43.8252 N   0  0  0  0  0  0  0  0  0  0  0  0
   -6.6819   43.7633   44.2825 C   0  0  0  0  0  0  0  0  0  0  0  0
   -8.6464   42.7466   43.4575 C   0  0  0  0  0  0  0  0  0  0  0  0
   -7.9196   43.9039   43.6413 C   0  0  0  0  0  0  0  0  0  0  0  0
   -9.7872   43.1410   42.8212 N   0  0  0  0  0  0  0  0  0  0  0  0
   -8.5910   44.9943   43.1271 N   0  0  0  0  0  0  0  0  0  0  0  0
   -9.7114   44.4970   42.6445 C   0  0  0  0  0  0  0  0  0  0  0  0
  -10.5414   42.5319   42.5415 H   0  0  0  0  0  0  0  0  0  0  0  0
   -6.7542   40.1800   44.8805 N   0  0  0  0  0  0  0  0  0  0  0  0
   -7.5229   39.5394   44.7397 H   0  0  0  0  0  0  0  0  0  0  0  0
   -3.1940   39.9183   45.8921 C   0  0  0  0  0  0  0  0  0  0  0  0
   -4.4105   40.4090   45.4048 C   0  0  0  0  0  0  0  0  0  0  0  0
   -3.1487   38.6194   46.4055 C   0  0  0  0  0  0  0  0  0  0  0  0
   -5.5881   39.6375   45.4352 C   0  0  0  0  0  0  0  0  0  0  0  0
   -4.3012   37.8381   46.4440 C   0  0  0  0  0  0  0  0  0  0  0  0
   -5.5091   38.3486   45.9655 C   0  0  0  0  0  0  0  0  0  0  0  0
   -0.7722   39.5616   44.2316 O   0  0  0  0  0  0  0  0  0  0  0  0
   -0.8673   40.4162   45.1088 C   0  0  0  0  0  0  0  0  0  0  0  0
    0.1945   41.2537   45.3965 N   0  0  0  0  0  0  0  0  0  0  0  0
   -1.9858   40.6462   45.8771 N   0  0  0  0  0  0  0  0  0  0  0  0
    1.4307   41.1570   44.6391 C   0  0  0  0  0  0  0  0  0  0  0  0
    0.3215   42.2137   46.4836 C   0  0  0  0  0  0  0  0  0  0  0  0
    2.2397   42.3679   45.0778 C   0  0  0  0  0  0  0  0  0  0  0  0
    1.8049   42.5547   46.5250 C   0  0  0  0  0  0  0  0  0  0  0  0
   -1.9816   41.4981   46.4121 H   0  0  0  0  0  0  0  0  0  0  0  0
   -5.8636   44.8621   44.5806 N   0  0  0  0  0  0  0  0  0  0  0  0
   -6.1574   45.2408   45.4836 H   0  0  0  0  0  0  0  0  0  0  0  0
   -5.8282   45.8891   43.5326 C   0  0  0  0  0  0  0  0  0  0  0  0
   -4.8715   47.0240   43.9312 C   0  0  0  0  0  0  0  0  0  0  0  0
   -5.2126   48.3423   43.3179 C   0  0  0  0  0  0  0  0  0  0  0  0
   -4.9701   49.5485   43.9311 N   0  0  0  0  0  0  0  0  0  0  0  0
   -5.8026   48.6785   42.1186 C   0  0  0  0  0  0  0  0  0  0  0  0
   -5.3906   50.5345   43.0866 C   0  0  0  0  0  0  0  0  0  0  0  0
   -5.9015   50.0393   41.9823 N   0  0  0  0  0  0  0  0  0  0  0  0
   -4.5047   49.6761   44.8242 H   0  0  0  0  0  0  0  0  0  0  0  0
 19 20  2  0
 20 21  1  0
 20 22  1  0
 21 23  1  0
 21 24  1  0
 22 13  1  0
 23 25  1  0
 24 26  1  0
 13 14  2  0
 13 15  1  0
 14 16  1  0
 15 17  2  0
 16 11  1  0
 16 18  2  0
 11  1  1  0
  1  2  2  0
  1  3  1  0
  2  4  1  0
  3  5  2  0
  4 28  1  0
  4  6  2  0
  5  7  1  0
 28 30  1  0
  6  8  1  0
  7  9  1  0
 30 31  1  0
 31 32  1  0
 32 33  1  0
 32 34  2  0
 33 35  1  0
 34 36  1  0
 25 26  1  0
 17 18  1  0
  5  6  1  0
  8  9  2  0
 35 36  2  0
 22 27  1  0
 11 12  1  0
 28 29  1  0
  7 10  1  0
 33 37  1  0
M  END
> <Molecule Name>
EL2003A

> <Name>
EL2003A

> <pIC50 PDK>
7.9

> <selection>
Y

> <MMFF94_energy_kcal_mol>
-85.8421

> <Note>
No stereocenters; achiral molecule

> <minimizedAffinity>
-9.80011

> <CNNscore>
0.9702720046

> <CNNaffinity>
7.6332154274

> <CNN_VS>
7.4062952995

> <CNNaffinity_variance>
0.1295842230
$$$$
EL2003A


 37 41  0  0  0  0  0  0  0  0999 V2000
   -6.7473   41.6503   44.5476 C   0  0  0  0  0  0  0  0  0  0  0  0
   -6.0091   42.7837   44.6069 N   0  0  0  0  0  0  0  0  0  0  0  0
   -8.0028   41.5669   44.0610 N   0  0  0  0  0  0  0  0  0  0  0  0
   -6.5055   43.9593   44.1423 C   0  0  0  0  0  0  0  0  0  0  0  0
   -8.4635   42.7447   43.6276 C   0  0  0  0  0  0  0  0  0  0  0  0
   -7.8099   43.9590   43.6313 C   0  0  0  0  0  0  0  0  0  0  0  0
   -9.6903   43.0034   43.0892 N   0  0  0  0  0  0  0  0  0  0  0  0
   -8.6105   44.9510   43.1029 N   0  0  0  0  0  0  0  0  0  0  0  0
   -9.7346   44.3392   42.7904 C   0  0  0  0  0  0  0  0  0  0  0  0
  -10.4218   42.3231   42.9469 H   0  0  0  0  0  0  0  0  0  0  0  0
   -6.2477   40.4497   45.0476 N   0  0  0  0  0  0  0  0  0  0  0  0
   -7.0121   39.8231   45.2574 H   0  0  0  0  0  0  0  0  0  0  0  0
   -3.5715   38.0806   46.0435 C   0  0  0  0  0  0  0  0  0  0  0  0
   -4.8203   38.6282   45.7292 C   0  0  0  0  0  0  0  0  0  0  0  0
   -2.4357   38.8876   45.9360 C   0  0  0  0  0  0  0  0  0  0  0  0
   -4.9586   39.9596   45.2923 C   0  0  0  0  0  0  0  0  0  0  0  0
   -2.5496   40.2079   45.5070 C   0  0  0  0  0  0  0  0  0  0  0  0
   -3.8020   40.7338   45.1852 C   0  0  0  0  0  0  0  0  0  0  0  0
   -2.2264   37.0677   48.4755 O   0  0  0  0  0  0  0  0  0  0  0  0
   -2.7099   36.3330   47.6179 C   0  0  0  0  0  0  0  0  0  0  0  0
   -2.6157   34.9583   47.7313 N   0  0  0  0  0  0  0  0  0  0  0  0
   -3.3798   36.7574   46.4930 N   0  0  0  0  0  0  0  0  0  0  0  0
   -1.9710   34.3606   48.8881 C   0  0  0  0  0  0  0  0  0  0  0  0
   -2.9904   33.9419   46.7587 C   0  0  0  0  0  0  0  0  0  0  0  0
   -2.2749   32.8753   48.7662 C   0  0  0  0  0  0  0  0  0  0  0  0
   -2.3256   32.6666   47.2587 C   0  0  0  0  0  0  0  0  0  0  0  0
   -3.8846   36.0470   45.9903 H   0  0  0  0  0  0  0  0  0  0  0  0
   -5.7450   45.1319   44.2541 N   0  0  0  0  0  0  0  0  0  0  0  0
   -6.3632   45.8820   44.5709 H   0  0  0  0  0  0  0  0  0  0  0  0
   -5.0125   45.4938   43.0347 C   0  0  0  0  0  0  0  0  0  0  0  0
   -5.2893   46.9589   42.6621 C   0  0  0  0  0  0  0  0  0  0  0  0
   -4.3398   47.9285   43.2857 C   0  0  0  0  0  0  0  0  0  0  0  0
   -4.4311   48.3439   44.5929 N   0  0  0  0  0  0  0  0  0  0  0  0
   -3.2475   48.6036   42.7855 C   0  0  0  0  0  0  0  0  0  0  0  0
   -3.4022   49.2096   44.8252 C   0  0  0  0  0  0  0  0  0  0  0  0
   -2.6696   49.3891   43.7496 N   0  0  0  0  0  0  0  0  0  0  0  0
   -5.1078   48.0135   45.2737 H   0  0  0  0  0  0  0  0  0  0  0  0
 19 20  2  0
 20 21  1  0
 20 22  1  0
 21 23  1  0
 21 24  1  0
 22 13  1  0
 23 25  1  0
 24 26  1  0
 13 14  2  0
 13 15  1  0
 14 16  1  0
 15 17  2  0
 16 11  1  0
 16 18  2  0
 11  1  1  0
  1  2  2  0
  1  3  1  0
  2  4  1  0
  3  5  2  0
  4 28  1  0
  4  6  2  0
  5  7  1  0
 28 30  1  0
  6  8  1  0
  7  9  1  0
 30 31  1  0
 31 32  1  0
 32 33  1  0
 32 34  2  0
 33 35  1  0
 34 36  1  0
 25 26  1  0
 17 18  1  0
  5  6  1  0
  8  9  2  0
 35 36  2  0
 22 27  1  0
 11 12  1  0
 28 29  1  0
  7 10  1  0
 33 37  1  0
M  END
> <Molecule Name>
EL2003A

> <Name>
EL2003A

> <pIC50 PDK>
7.9

> <selection>
Y

> <MMFF94_energy_kcal_mol>
-85.8421

> <Note>
No stereocenters; achiral molecule

> <minimizedAffinity>
-8.06575

> <CNNscore>
0.9403848052

> <CNNaffinity>
7.4355473518

> <CNN_VS>
6.9922757149

> <CNNaffinity_variance>
0.0668012202
$$$$
EL2003A


 37 41  0  0  0  0  0  0  0  0999 V2000
   -5.7489   40.6110   44.8863 C   0  0  0  0  0  0  0  0  0  0  0  0
   -4.9241   41.6838   44.8440 N   0  0  0  0  0  0  0  0  0  0  0  0
   -7.0567   40.6246   44.5554 N   0  0  0  0  0  0  0  0  0  0  0  0
   -5.3811   42.8936   44.4297 C   0  0  0  0  0  0  0  0  0  0  0  0
   -7.4745   41.8339   44.1678 C   0  0  0  0  0  0  0  0  0  0  0  0
   -6.7339   42.9938   44.0795 C   0  0  0  0  0  0  0  0  0  0  0  0
   -8.7338   42.1861   43.7782 N   0  0  0  0  0  0  0  0  0  0  0  0
   -7.5139   44.0441   43.6407 N   0  0  0  0  0  0  0  0  0  0  0  0
   -8.7112   43.5209   43.4724 C   0  0  0  0  0  0  0  0  0  0  0  0
   -9.5273   41.5645   43.7325 H   0  0  0  0  0  0  0  0  0  0  0  0
   -5.2863   39.3760   45.3356 N   0  0  0  0  0  0  0  0  0  0  0  0
   -5.8931   38.6414   44.9991 H   0  0  0  0  0  0  0  0  0  0  0  0
   -2.2626   39.6413   47.4694 C   0  0  0  0  0  0  0  0  0  0  0  0
   -3.4004   39.9627   46.7209 C   0  0  0  0  0  0  0  0  0  0  0  0
   -1.8977   38.2984   47.5975 C   0  0  0  0  0  0  0  0  0  0  0  0
   -4.1931   38.9710   46.1119 C   0  0  0  0  0  0  0  0  0  0  0  0
   -2.6666   37.3012   47.0023 C   0  0  0  0  0  0  0  0  0  0  0  0
   -3.8060   37.6391   46.2701 C   0  0  0  0  0  0  0  0  0  0  0  0
   -0.0186   41.2234   46.3688 O   0  0  0  0  0  0  0  0  0  0  0  0
   -0.3696   41.2802   47.5446 C   0  0  0  0  0  0  0  0  0  0  0  0
    0.3076   42.0811   48.4455 N   0  0  0  0  0  0  0  0  0  0  0  0
   -1.4309   40.5957   48.0916 N   0  0  0  0  0  0  0  0  0  0  0  0
    1.4268   42.8961   48.0049 C   0  0  0  0  0  0  0  0  0  0  0  0
    0.1360   42.1654   49.8888 C   0  0  0  0  0  0  0  0  0  0  0  0
    1.7391   43.7875   49.1970 C   0  0  0  0  0  0  0  0  0  0  0  0
    1.3736   42.9030   50.3813 C   0  0  0  0  0  0  0  0  0  0  0  0
   -1.7146   40.8903   49.0107 H   0  0  0  0  0  0  0  0  0  0  0  0
   -4.5249   44.0039   44.4364 N   0  0  0  0  0  0  0  0  0  0  0  0
   -4.4806   44.3647   45.3918 H   0  0  0  0  0  0  0  0  0  0  0  0
   -4.8809   45.0454   43.4653 C   0  0  0  0  0  0  0  0  0  0  0  0
   -3.7464   45.2331   42.4457 C   0  0  0  0  0  0  0  0  0  0  0  0
   -3.2626   46.6418   42.3358 C   0  0  0  0  0  0  0  0  0  0  0  0
   -2.6590   47.1498   41.2100 N   0  0  0  0  0  0  0  0  0  0  0  0
   -3.2739   47.6946   43.2250 C   0  0  0  0  0  0  0  0  0  0  0  0
   -2.3630   48.4594   41.4538 C   0  0  0  0  0  0  0  0  0  0  0  0
   -2.7207   48.8179   42.6660 N   0  0  0  0  0  0  0  0  0  0  0  0
   -2.5191   46.6514   40.3367 H   0  0  0  0  0  0  0  0  0  0  0  0
 19 20  2  0
 20 21  1  0
 20 22  1  0
 21 23  1  0
 21 24  1  0
 22 13  1  0
 23 25  1  0
 24 26  1  0
 13 14  2  0
 13 15  1  0
 14 16  1  0
 15 17  2  0
 16 11  1  0
 16 18  2  0
 11  1  1  0
  1  2  2  0
  1  3  1  0
  2  4  1  0
  3  5  2  0
  4 28  1  0
  4  6  2  0
  5  7  1  0
 28 30  1  0
  6  8  1  0
  7  9  1  0
 30 31  1  0
 31 32  1  0
 32 33  1  0
 32 34  2  0
 33 35  1  0
 34 36  1  0
 25 26  1  0
 17 18  1  0
  5  6  1  0
  8  9  2  0
 35 36  2  0
 22 27  1  0
 11 12  1  0
 28 29  1  0
  7 10  1  0
 33 37  1  0
M  END
> <Molecule Name>
EL2003A

> <Name>
EL2003A

> <pIC50 PDK>
7.9

> <selection>
Y

> <MMFF94_energy_kcal_mol>
-85.8421

> <Note>
No stereocenters; achiral molecule

> <minimizedAffinity>
-7.85874

> <CNNscore>
0.8123434782

> <CNNaffinity>
7.1894454956

> <CNN_VS>
5.8402991295

> <CNNaffinity_variance>
0.0549248867
$$$$
EL2003A


 37 41  0  0  0  0  0  0  0  0999 V2000
   -6.4423   41.1513   44.8820 C   0  0  0  0  0  0  0  0  0  0  0  0
   -5.2333   41.7395   44.7234 N   0  0  0  0  0  0  0  0  0  0  0  0
   -6.6400   39.8897   45.3172 N   0  0  0  0  0  0  0  0  0  0  0  0
   -4.0913   41.0685   45.0233 C   0  0  0  0  0  0  0  0  0  0  0  0
   -5.4945   39.2557   45.5875 C   0  0  0  0  0  0  0  0  0  0  0  0
   -4.2111   39.7464   45.4707 C   0  0  0  0  0  0  0  0  0  0  0  0
   -5.3458   37.9754   46.0352 N   0  0  0  0  0  0  0  0  0  0  0  0
   -3.2839   38.7941   45.8416 N   0  0  0  0  0  0  0  0  0  0  0  0
   -4.0034   37.7413   46.1724 C   0  0  0  0  0  0  0  0  0  0  0  0
   -6.0986   37.3303   46.2231 H   0  0  0  0  0  0  0  0  0  0  0  0
   -7.6124   41.8308   44.5500 N   0  0  0  0  0  0  0  0  0  0  0  0
   -8.4096   41.3486   44.9411 H   0  0  0  0  0  0  0  0  0  0  0  0
   -7.1138   45.2160   43.1154 C   0  0  0  0  0  0  0  0  0  0  0  0
   -6.8973   43.9998   43.7727 C   0  0  0  0  0  0  0  0  0  0  0  0
   -8.3545   45.4458   42.5148 C   0  0  0  0  0  0  0  0  0  0  0  0
   -7.8868   42.9995   43.8283 C   0  0  0  0  0  0  0  0  0  0  0  0
   -9.3481   44.4707   42.5589 C   0  0  0  0  0  0  0  0  0  0  0  0
   -9.1102   43.2578   43.2078 C   0  0  0  0  0  0  0  0  0  0  0  0
   -7.4711   48.0998   42.5617 O   0  0  0  0  0  0  0  0  0  0  0  0
   -6.3727   47.5790   42.7378 C   0  0  0  0  0  0  0  0  0  0  0  0
   -5.2139   48.3278   42.6481 N   0  0  0  0  0  0  0  0  0  0  0  0
   -6.1603   46.2527   43.0381 N   0  0  0  0  0  0  0  0  0  0  0  0
   -5.2815   49.7537   42.3771 C   0  0  0  0  0  0  0  0  0  0  0  0
   -3.8333   47.8666   42.6779 C   0  0  0  0  0  0  0  0  0  0  0  0
   -3.8591   50.2480   42.5904 C   0  0  0  0  0  0  0  0  0  0  0  0
   -3.0210   49.0490   42.1677 C   0  0  0  0  0  0  0  0  0  0  0  0
   -5.2316   46.0168   43.3446 H   0  0  0  0  0  0  0  0  0  0  0  0
   -2.8464   41.6770   44.8091 N   0  0  0  0  0  0  0  0  0  0  0  0
   -2.9088   42.2351   43.9548 H   0  0  0  0  0  0  0  0  0  0  0  0
   -1.7155   40.7418   44.7800 C   0  0  0  0  0  0  0  0  0  0  0  0
   -0.7790   41.0014   45.9706 C   0  0  0  0  0  0  0  0  0  0  0  0
    0.1384   42.1632   45.7729 C   0  0  0  0  0  0  0  0  0  0  0  0
   -0.1599   43.4418   46.1800 N   0  0  0  0  0  0  0  0  0  0  0  0
    1.3827   42.2692   45.1899 C   0  0  0  0  0  0  0  0  0  0  0  0
    0.9000   44.2378   45.8558 C   0  0  0  0  0  0  0  0  0  0  0  0
    1.8484   43.5574   45.2530 N   0  0  0  0  0  0  0  0  0  0  0  0
   -0.9939   43.7230   46.6860 H   0  0  0  0  0  0  0  0  0  0  0  0
 19 20  2  0
 20 21  1  0
 20 22  1  0
 21 23  1  0
 21 24  1  0
 22 13  1  0
 23 25  1  0
 24 26  1  0
 13 14  2  0
 13 15  1  0
 14 16  1  0
 15 17  2  0
 16 11  1  0
 16 18  2  0
 11  1  1  0
  1  2  2  0
  1  3  1  0
  2  4  1  0
  3  5  2  0
  4 28  1  0
  4  6  2  0
  5  7  1  0
 28 30  1  0
  6  8  1  0
  7  9  1  0
 30 31  1  0
 31 32  1  0
 32 33  1  0
 32 34  2  0
 33 35  1  0
 34 36  1  0
 25 26  1  0
 17 18  1  0
  5  6  1  0
  8  9  2  0
 35 36  2  0
 22 27  1  0
 11 12  1  0
 28 29  1  0
  7 10  1  0
 33 37  1  0
M  END
> <Molecule Name>
EL2003A

> <Name>
EL2003A

> <pIC50 PDK>
7.9

> <selection>
Y

> <MMFF94_energy_kcal_mol>
-85.8421

> <Note>
No stereocenters; achiral molecule

> <minimizedAffinity>
-9.36212

> <CNNscore>
0.6380789876

> <CNNaffinity>
7.2967429161

> <CNN_VS>
4.6558985710

> <CNNaffinity_variance>
0.0426598340
$$$$
