EL5001A
 OpenBabel09072615523D

 30 32  0  0  0  0  0  0  0  0999 V2000
   -9.5675   44.3386   42.9005 Br  0  0  0  0  0  0  0  0  0  0  0  0
   -8.3459   43.1115   43.6534 C   0  0  0  0  0  0  0  0  0  0  0  0
   -7.0853   43.4635   44.1128 C   0  0  0  0  0  0  0  0  0  0  0  0
   -8.6916   41.7873   43.7850 C   0  0  0  0  0  0  0  0  0  0  0  0
   -6.2515   42.5365   44.6307 N   0  0  0  0  0  0  0  0  0  0  0  0
   -7.8800   40.8518   44.3154 N   0  0  0  0  0  0  0  0  0  0  0  0
   -6.6749   41.2682   44.7157 C   0  0  0  0  0  0  0  0  0  0  0  0
   -6.6292   44.7859   43.9672 N   0  0  0  0  0  0  0  0  0  0  0  0
   -6.0827   45.0567   44.7957 H   0  0  0  0  0  0  0  0  0  0  0  0
   -5.8496   45.0562   42.7572 C   0  0  0  0  0  0  0  0  0  0  0  0
   -4.3491   45.0433   43.0771 C   0  0  0  0  0  0  0  0  0  0  0  0
   -3.5819   46.0714   42.3106 C   0  0  0  0  0  0  0  0  0  0  0  0
   -2.3549   46.5193   42.7559 N   0  0  0  0  0  0  0  0  0  0  0  0
   -3.9220   46.7128   41.1385 C   0  0  0  0  0  0  0  0  0  0  0  0
   -1.9642   47.4105   41.8748 C   0  0  0  0  0  0  0  0  0  0  0  0
   -2.8821   47.5609   40.8754 N   0  0  0  0  0  0  0  0  0  0  0  0
   -2.8029   48.1906   40.0887 H   0  0  0  0  0  0  0  0  0  0  0  0
   -5.8514   40.2835   45.2410 N   0  0  0  0  0  0  0  0  0  0  0  0
   -6.2679   40.0274   46.1307 H   0  0  0  0  0  0  0  0  0  0  0  0
   -4.4314   40.6297   45.3187 C   0  0  0  0  0  0  0  0  0  0  0  0
   -3.6719   39.6850   46.2653 C   0  0  0  0  0  0  0  0  0  0  0  0
   -2.5219   40.3340   46.8760 N   0  0  0  0  0  0  0  0  0  0  0  0
   -2.1570   40.0203   48.1583 C   0  0  0  0  0  0  0  0  0  0  0  0
   -2.8335   39.2887   48.8767 O   0  0  0  0  0  0  0  0  0  0  0  0
   -0.9923   40.6082   48.5833 N   0  0  0  0  0  0  0  0  0  0  0  0
   -0.1667   41.5668   47.8647 C   0  0  0  0  0  0  0  0  0  0  0  0
   -0.5213   40.4247   49.9443 C   0  0  0  0  0  0  0  0  0  0  0  0
    1.0474   41.7688   48.7605 C   0  0  0  0  0  0  0  0  0  0  0  0
    0.4809   41.5501   50.1567 C   0  0  0  0  0  0  0  0  0  0  0  0
   -1.7521   40.4491   46.2345 H   0  0  0  0  0  0  0  0  0  0  0  0
  1  2  1  0  0  0  0
  2  3  2  0  0  0  0
  2  4  1  0  0  0  0
  3  5  1  0  0  0  0
  3  8  1  0  0  0  0
  4  6  2  0  0  0  0
  5  7  2  0  0  0  0
  6  7  1  0  0  0  0
  7 18  1  0  0  0  0
  8 10  1  0  0  0  0
  8  9  1  0  0  0  0
 10 11  1  0  0  0  0
 11 12  1  0  0  0  0
 12 13  1  0  0  0  0
 12 14  2  0  0  0  0
 13 15  2  0  0  0  0
 14 16  1  0  0  0  0
 15 16  1  0  0  0  0
 16 17  1  0  0  0  0
 18 20  1  0  0  0  0
 18 19  1  0  0  0  0
 20 21  1  0  0  0  0
 21 22  1  0  0  0  0
 22 23  1  0  0  0  0
 22 30  1  0  0  0  0
 23 24  2  0  0  0  0
 23 25  1  0  0  0  0
 25 26  1  0  0  0  0
 25 27  1  0  0  0  0
 26 28  1  0  0  0  0
 27 29  1  0  0  0  0
 28 29  1  0  0  0  0
M  END
