EL5003A


 33 36  0  0  0  0  0  0  0  0999 V2000
   -9.3447   44.6114   42.5419 Br  0  0  0  0  0  0  0  0  0  0  0  0
   -8.3615   43.2812   43.4518 C   0  0  0  0  0  0  0  0  0  0  0  0
   -7.1110   43.4967   44.0115 C   0  0  0  0  0  0  0  0  0  0  0  0
   -8.8754   42.0114   43.5835 C   0  0  0  0  0  0  0  0  0  0  0  0
   -6.4642   42.5047   44.6524 N   0  0  0  0  0  0  0  0  0  0  0  0
   -8.2426   41.0104   44.2258 N   0  0  0  0  0  0  0  0  0  0  0  0
   -7.0552   41.3093   44.7614 C   0  0  0  0  0  0  0  0  0  0  0  0
   -6.4852   44.7549   43.8823 N   0  0  0  0  0  0  0  0  0  0  0  0
   -7.1657   45.4820   44.0894 H   0  0  0  0  0  0  0  0  0  0  0  0
   -5.2345   44.9309   44.6387 C   0  0  0  0  0  0  0  0  0  0  0  0
   -4.7332   46.3786   44.5496 C   0  0  0  0  0  0  0  0  0  0  0  0
   -3.7232   46.5848   43.4766 C   0  0  0  0  0  0  0  0  0  0  0  0
   -2.9858   47.7447   43.3976 N   0  0  0  0  0  0  0  0  0  0  0  0
   -3.3843   45.7353   42.4466 C   0  0  0  0  0  0  0  0  0  0  0  0
   -2.1972   47.5864   42.3576 C   0  0  0  0  0  0  0  0  0  0  0  0
   -2.4005   46.3810   41.7494 N   0  0  0  0  0  0  0  0  0  0  0  0
   -1.8940   46.0129   40.9468 H   0  0  0  0  0  0  0  0  0  0  0  0
   -6.3569   40.3767   45.5075 N   0  0  0  0  0  0  0  0  0  0  0  0
   -6.2826   40.7690   46.4420 H   0  0  0  0  0  0  0  0  0  0  0  0
   -5.1491   39.8220   44.9154 C   0  0  0  0  0  0  0  0  0  0  0  0
   -3.8956   40.5854   45.3424 C   0  0  0  0  0  0  0  0  0  0  0  0
   -4.9115   38.4143   45.4800 C   0  0  0  0  0  0  0  0  0  0  0  0
   -3.6310   40.0631   46.7497 C   0  0  0  0  0  0  0  0  0  0  0  0
   -3.9687   38.5734   46.6771 C   0  0  0  0  0  0  0  0  0  0  0  0
   -2.2806   40.3198   47.2053 N   0  0  0  0  0  0  0  0  0  0  0  0
   -1.9184   40.0872   48.5072 C   0  0  0  0  0  0  0  0  0  0  0  0
   -2.7259   39.7564   49.3737 O   0  0  0  0  0  0  0  0  0  0  0  0
   -0.5886   40.2842   48.7752 N   0  0  0  0  0  0  0  0  0  0  0  0
    0.4279   40.8378   47.8922 C   0  0  0  0  0  0  0  0  0  0  0  0
   -0.0600   40.0697   50.1110 C   0  0  0  0  0  0  0  0  0  0  0  0
    1.5853   41.1943   48.8152 C   0  0  0  0  0  0  0  0  0  0  0  0
    1.4475   40.1811   49.9439 C   0  0  0  0  0  0  0  0  0  0  0  0
   -1.5433   40.2070   46.5274 H   0  0  0  0  0  0  0  0  0  0  0  0
  1  2  1  0
  2  3  2  0
  2  4  1  0
  3  5  1  0
  3  8  1  0
  4  6  2  0
  5  7  2  0
  8 10  1  0
  7 18  1  0
 10 11  1  0
 20 18  1  0
 11 12  1  0
 20 21  1  0
 20 22  1  0
 12 13  1  0
 12 14  2  0
 21 23  1  0
 22 24  1  0
 13 15  2  0
 14 16  1  0
 23 25  1  0
 25 26  1  0
 26 27  2  0
 26 28  1  0
 28 29  1  0
 28 30  1  0
 29 31  1  0
 30 32  1  0
  6  7  1  0
 23 24  1  0
 15 16  1  0
 31 32  1  0
  8  9  1  0
 18 19  1  0
 16 17  1  0
 25 33  1  0
M  END
> <Molecule Name>
EL5003A

> <Name>
EL5003A

> <pIC50 PDK>
4

> <selection>
Y

> <MMFF94_energy_kcal_mol>
-154.3111

> <Note>
Stereocenters: [(11, 'R'), (17, 'R')]; absolute config retained

> <minimizedAffinity>
-7.59185

> <CNNscore>
0.8556323051

> <CNNaffinity>
7.3520793915

> <CNN_VS>
6.2906765938

> <CNNaffinity_variance>
0.0223511737
$$$$
