CTX-1020912
 OpenBabel08272613263D

 68 73  0  0  0  0  0  0  0  0999 V2000
    8.0943    4.8585    4.5625 S   0  0  0  0  0  0  0  0  0  0  0  0
    7.3956    4.9580    2.9957 C   0  0  0  0  0  0  0  0  0  0  0  0
    6.9010    5.8710    5.3026 C   0  0  0  0  0  0  0  0  0  0  0  0
    7.9739    4.2027    1.8180 C   0  0  0  0  0  0  0  0  0  0  0  0
    6.2439    5.7821    3.0420 C   0  0  0  0  0  0  0  0  0  0  0  0
    5.9634    6.3016    4.3705 C   0  0  0  0  0  0  0  0  0  0  0  0
    6.7910    6.2612    6.6581 C   0  0  0  0  0  0  0  0  0  0  0  0
    8.7683    3.0004    1.7731 C   0  0  0  0  0  0  0  0  0  0  0  0
    7.6024    4.6722    0.5766 C   0  0  0  0  0  0  0  0  0  0  0  0
    5.2799    6.1600    1.9425 C   0  0  0  0  0  0  0  0  0  0  0  0
    4.8956    7.1405    4.8162 C   0  0  0  0  0  0  0  0  0  0  0  0
    5.7198    7.0733    7.0664 C   0  0  0  0  0  0  0  0  0  0  0  0
    8.8943    2.2305    0.5474 C   0  0  0  0  0  0  0  0  0  0  0  0
    7.3228    3.7549   -0.4010 C   0  0  0  0  0  0  0  0  0  0  0  0
    4.7766    7.5162    6.1537 C   0  0  0  0  0  0  0  0  0  0  0  0
    9.8546    1.3572   -0.0248 N   0  0  0  0  0  0  0  0  0  0  0  0
    7.7951    2.4690   -0.2534 C   0  0  0  0  0  0  0  0  0  0  0  0
    9.5841    0.8535   -1.2958 C   0  0  0  0  0  0  0  0  0  0  0  0
    7.3367    1.5171   -1.1304 C   0  0  0  0  0  0  0  0  0  0  0  0
   10.5823    0.2583   -2.2680 C   0  0  0  0  0  0  0  0  0  0  0  0
    8.3143    0.9022   -1.8507 C   0  0  0  0  0  0  0  0  0  0  0  0
   10.1306   -0.4364   -3.1985 O   0  0  0  0  0  0  0  0  0  0  0  0
   11.9233    0.5833   -2.2692 N   0  0  0  0  0  0  0  0  0  0  0  0
   12.7418    0.0876   -3.3766 C   0  0  0  0  0  0  0  0  0  0  0  0
   14.0863    0.7487   -3.5535 C   0  0  0  0  0  0  0  0  0  0  0  0
   15.2448    0.1785   -3.0286 C   0  0  0  0  0  0  0  0  0  0  0  0
   14.2346    1.9065   -4.3225 C   0  0  0  0  0  0  0  0  0  0  0  0
   16.5050    0.7763   -3.2316 C   0  0  0  0  0  0  0  0  0  0  0  0
   15.5035    2.4900   -4.5263 C   0  0  0  0  0  0  0  0  0  0  0  0
   16.6814    1.9585   -3.9731 C   0  0  0  0  0  0  0  0  0  0  0  0
   17.9227    2.5895   -4.0685 N   0  0  0  0  0  0  0  0  0  0  0  0
   19.1734    1.7960   -4.1226 C   0  0  0  0  0  0  0  0  0  0  0  0
   18.0723    3.8889   -4.7612 C   0  0  0  0  0  0  0  0  0  0  0  0
   20.3640    2.6173   -3.5614 C   0  0  0  0  0  0  0  0  0  0  0  0
   19.2887    4.6735   -4.2008 C   0  0  0  0  0  0  0  0  0  0  0  0
   20.5590    3.9095   -4.2543 N   0  3  0  0  0  0  0  0  0  0  0  0
   21.6429    4.6741   -3.6339 C   0  0  0  0  0  0  0  0  0  0  0  0
    7.4956    5.9502    7.3449 H   0  0  0  0  0  0  0  0  0  0  0  0
    9.2554    2.6816    2.6253 H   0  0  0  0  0  0  0  0  0  0  0  0
    7.5368    5.6850    0.3893 H   0  0  0  0  0  0  0  0  0  0  0  0
    5.5975    5.7167    1.0218 H   0  0  0  0  0  0  0  0  0  0  0  0
    5.2586    7.2246    1.8371 H   0  0  0  0  0  0  0  0  0  0  0  0
    4.3007    5.8063    2.1895 H   0  0  0  0  0  0  0  0  0  0  0  0
    4.1978    7.4752    4.1336 H   0  0  0  0  0  0  0  0  0  0  0  0
    5.6344    7.3432    8.0588 H   0  0  0  0  0  0  0  0  0  0  0  0
    6.7701    4.0211   -1.2308 H   0  0  0  0  0  0  0  0  0  0  0  0
    3.9954    8.1170    6.4599 H   0  0  0  0  0  0  0  0  0  0  0  0
    6.3360    1.2875   -1.2346 H   0  0  0  0  0  0  0  0  0  0  0  0
    8.1178    0.4877   -2.7751 H   0  0  0  0  0  0  0  0  0  0  0  0
   12.3158    1.1296   -1.5503 H   0  0  0  0  0  0  0  0  0  0  0  0
   12.1873    0.2265   -4.2811 H   0  0  0  0  0  0  0  0  0  0  0  0
   12.9520   -0.9355   -3.1443 H   0  0  0  0  0  0  0  0  0  0  0  0
   15.1788   -0.6949   -2.4829 H   0  0  0  0  0  0  0  0  0  0  0  0
   13.4018    2.3422   -4.7487 H   0  0  0  0  0  0  0  0  0  0  0  0
   17.3361    0.3262   -2.8173 H   0  0  0  0  0  0  0  0  0  0  0  0
   15.5692    3.3418   -5.1052 H   0  0  0  0  0  0  0  0  0  0  0  0
   19.3775    1.5296   -5.1386 H   0  0  0  0  0  0  0  0  0  0  0  0
   19.0500    0.9154   -3.5274 H   0  0  0  0  0  0  0  0  0  0  0  0
   17.1842    4.4680   -4.6168 H   0  0  0  0  0  0  0  0  0  0  0  0
   18.2316    3.7064   -5.8034 H   0  0  0  0  0  0  0  0  0  0  0  0
   21.2568    2.0371   -3.6664 H   0  0  0  0  0  0  0  0  0  0  0  0
   20.1446    2.8359   -2.5372 H   0  0  0  0  0  0  0  0  0  0  0  0
   19.0881    4.9265   -3.1807 H   0  0  0  0  0  0  0  0  0  0  0  0
   19.4156    5.5400   -4.8155 H   0  0  0  0  0  0  0  0  0  0  0  0
   20.8185    3.7383   -5.2258 H   0  0  0  0  0  0  0  0  0  0  0  0
   21.4004    4.8706   -2.6104 H   0  0  0  0  0  0  0  0  0  0  0  0
   21.7696    5.6002   -4.1546 H   0  0  0  0  0  0  0  0  0  0  0  0
   22.5509    4.1101   -3.6833 H   0  0  0  0  0  0  0  0  0  0  0  0
  1  2  1  0  0  0  0
  1  3  1  0  0  0  0
  2  4  1  0  0  0  0
  2  5  2  0  0  0  0
  3  6  2  0  0  0  0
  3  7  1  0  0  0  0
  4  8  2  0  0  0  0
  4  9  1  0  0  0  0
  5 10  1  0  0  0  0
  5  6  1  0  0  0  0
  6 11  1  0  0  0  0
  7 12  2  0  0  0  0
  7 38  1  0  0  0  0
  8 13  1  0  0  0  0
  8 39  1  0  0  0  0
  9 14  2  0  0  0  0
  9 40  1  0  0  0  0
 10 41  1  0  0  0  0
 10 42  1  0  0  0  0
 10 43  1  0  0  0  0
 11 15  2  0  0  0  0
 11 44  1  0  0  0  0
 12 15  1  0  0  0  0
 12 45  1  0  0  0  0
 13 16  2  0  0  0  0
 13 17  1  0  0  0  0
 14 17  1  0  0  0  0
 14 46  1  0  0  0  0
 15 47  1  0  0  0  0
 16 18  1  0  0  0  0
 17 19  2  0  0  0  0
 18 20  1  0  0  0  0
 18 21  2  0  0  0  0
 19 21  1  0  0  0  0
 19 48  1  0  0  0  0
 20 22  2  0  0  0  0
 20 23  1  0  0  0  0
 21 49  1  0  0  0  0
 23 24  1  0  0  0  0
 23 50  1  0  0  0  0
 24 25  1  0  0  0  0
 24 51  1  0  0  0  0
 24 52  1  0  0  0  0
 25 26  2  0  0  0  0
 25 27  1  0  0  0  0
 26 28  1  0  0  0  0
 26 53  1  0  0  0  0
 27 29  2  0  0  0  0
 27 54  1  0  0  0  0
 28 30  2  0  0  0  0
 28 55  1  0  0  0  0
 29 30  1  0  0  0  0
 29 56  1  0  0  0  0
 30 31  1  0  0  0  0
 31 32  1  0  0  0  0
 31 33  1  0  0  0  0
 32 34  1  0  0  0  0
 32 57  1  0  0  0  0
 32 58  1  0  0  0  0
 33 35  1  0  0  0  0
 33 59  1  0  0  0  0
 33 60  1  0  0  0  0
 34 36  1  0  0  0  0
 34 61  1  0  0  0  0
 34 62  1  0  0  0  0
 35 36  1  0  0  0  0
 35 63  1  0  0  0  0
 35 64  1  0  0  0  0
 36 37  1  0  0  0  0
 36 65  1  0  0  0  0
 37 66  1  0  0  0  0
 37 67  1  0  0  0  0
 37 68  1  0  0  0  0
M  CHG  1  36   1
M  END
>  <Molecule Name>
CTX-1020912

>  <SMILES>
CN1CCN(CC1)C1=CC=C(CNC(=O)C2=NC3=CC(=CC=C3C=C2)C2=C(C)C3=CC=CC=C3S2)C=C1

>  <Batch Name>
CTX-1020912-1

>  <Batch Created Date>
2022-01-20

>  <Batch ID>
CTX-1020912-1

>  <External ID>
P841-0314

>  <Stereochemistry>
Achiral

>  <Amount 1>
5.5

>  <Unit 1>
mg

>  <CRO 1>
Pharmaron

>  <CRO 1 Total Amount>
3.8

>  <CRO 1 Unit>
mg

>  <Pharmaron Solubility (PBS, pH 7.4): Aqueous Solubility - Batch Mean (uM)>
0.0037

>  <Pharmaron Solubility (PBS, pH 7.4): Aqueous Solubility - Batch Mean (uM) Standard Deviation (±)>


>  <Pharmaron Solubility (PBS, pH 7.4): Aqueous Solubility - Batch Mean (uM) Count>
1.0

>  <log P>
6.3

>  <log D>
5.67

>  <Pharmaron Caliper Assay (CDK2/CCNE1): Minimum measured (%)>
84.1

>  <Pharmaron Caliper Assay (CDK2/CCNE1): IC50 - Batch Mean (uM)>
47.6

>  <Pharmaron ADPGLO (CDK2/E1-25C): Minimum measured (%)>
93.2

>  <Pharmaron ADPGLO (CDK2/E1-25C): IC50 - Batch Mean (uM)>
100

>  <Pharmaron ADPGLO (CDK2/E1-37C): Minimum measured (%)>
93.2

>  <Pharmaron ADPGLO (CDK2/E1-37C): IC50 - Batch Mean (uM)>
100

>  <IncuCyte Kuramochi RB-WT: IC50 - Batch Mean (uM)>
4.19

>  <IncuCyte Kuramochi RB-KO: IC50 - Batch Mean (uM)>
5.41

>  <DSF (npCDK2/CCNE1): dTm D - Batch Mean [Concentration: 100]>


>  <DSF (npCDK2/CCNE1): dTm D - Batch Mean [Concentration: 20.0]>
-0.302

>  <DSF (pCDK2/CCNE1): dTm D - Batch Mean [Concentration: 100]>


>  <DSF (pCDK2/CCNE1): dTm D - Batch Mean [Concentration: 20.0]>
-0.243

>  <RLM: t1/2 - Batch Mean (Min)>


>  <RLM: Cl int - Batch Mean (uL/min/mg protein)>


>  <RLM: ER (Hepatic extraction ratio) - Batch Mean>


>  <HLM: t1/2 - Batch Mean (Min)>


>  <HLM: Cl int - Batch Mean (uL/min/mg protein)>


>  <HLM: ER (Hepatic extraction ratio) - Batch Mean>


>  <MDCK-WT 4% BSA: Papp (A-B) - Batch Mean (10-6, cm/s)>


>  <MDCK-WT 4% BSA: Papp (B-A) - Batch Mean (10-6, cm/s)>


>  <MDCK-WT 4% BSA: Efflux Ratio - Batch Mean>


>  <MDCK-WT 4% BSA: ~Net A_B - Batch Mean (10-6, cm/s)>


>  <pIC50>
4.322393

>  <Selection_1>
Y

>  <Selection_N>
N

>  <Serie>
Other

>  <Selection_T>
N

>  <Train_Vs_Test>


$$$$
CTX-1020903
 OpenBabel08272613263D

 74 79  0  0  0  0  0  0  0  0999 V2000
    1.4659    0.0492    0.7094 O   0  0  0  0  0  0  0  0  0  0  0  0
    2.1263   -0.5950   -0.1153 C   0  0  0  0  0  0  0  0  0  0  0  0
    2.8706    0.1369   -1.0743 N   0  0  0  0  0  0  0  0  0  0  0  0
    2.0515   -2.0532   -0.0531 C   0  0  0  0  0  0  0  0  0  0  0  0
    3.9366   -0.3127   -2.0370 C   0  0  0  0  0  0  0  0  0  0  0  0
    2.6511    1.6026   -1.0648 C   0  0  0  0  0  0  0  0  0  0  0  0
    0.8969   -2.5399    0.5960 O   0  0  0  0  0  0  0  0  0  0  0  0
    2.4369   -3.1597   -0.8121 C   0  0  0  0  0  0  0  0  0  0  0  0
    3.7633    0.4049   -3.3910 C   0  0  0  0  0  0  0  0  0  0  0  0
    2.1189    2.1078   -2.4203 C   0  0  0  0  0  0  0  0  0  0  0  0
    0.9150   -3.8972    0.4692 C   0  0  0  0  0  0  0  0  0  0  0  0
    2.1848   -4.2822    0.0767 C   0  0  0  0  0  0  0  0  0  0  0  0
    2.0061   -3.1853   -2.2640 C   0  0  0  0  0  0  0  0  0  0  0  0
    4.3860    0.1340   -4.6096 N   0  0  0  0  0  0  0  0  0  0  0  0
    2.9257    1.5019   -3.4910 C   0  0  0  0  0  0  0  0  0  0  0  0
   -0.1819   -4.7618    0.3963 C   0  0  0  0  0  0  0  0  0  0  0  0
    2.4726   -5.6687    0.1581 C   0  0  0  0  0  0  0  0  0  0  0  0
    3.9070    1.0520   -5.4662 C   0  0  0  0  0  0  0  0  0  0  0  0
    3.0022    1.8912   -4.8196 N   0  0  0  0  0  0  0  0  0  0  0  0
    0.1719   -6.0646    0.7693 C   0  0  0  0  0  0  0  0  0  0  0  0
    1.4549   -6.5537    0.5542 C   0  0  0  0  0  0  0  0  0  0  0  0
    4.2619    1.1640   -6.8915 C   0  0  0  0  0  0  0  0  0  0  0  0
    2.2149    2.9281   -5.4504 C   0  0  0  0  0  0  0  0  0  0  0  0
    3.7682    2.0213   -7.6216 O   0  0  0  0  0  0  0  0  0  0  0  0
    5.1785    0.2535   -7.3787 N   0  0  0  0  0  0  0  0  0  0  0  0
    5.6262    0.2431   -8.7679 C   0  0  0  0  0  0  0  0  0  0  0  0
    5.4484   -1.1120   -9.4088 C   0  0  0  0  0  0  0  0  0  0  0  0
    4.1740   -1.6679   -9.5227 C   0  0  0  0  0  0  0  0  0  0  0  0
    6.5206   -1.8377   -9.9256 C   0  0  0  0  0  0  0  0  0  0  0  0
    3.9885   -2.9418  -10.0841 C   0  0  0  0  0  0  0  0  0  0  0  0
    6.3194   -3.1230  -10.4883 C   0  0  0  0  0  0  0  0  0  0  0  0
    5.0548   -3.7224  -10.5633 C   0  0  0  0  0  0  0  0  0  0  0  0
    4.8499   -5.0165  -11.0086 N   0  0  0  0  0  0  0  0  0  0  0  0
    3.6091   -5.4305  -11.6958 C   0  0  0  0  0  0  0  0  0  0  0  0
    5.9437   -5.9917  -11.1595 C   0  0  0  0  0  0  0  0  0  0  0  0
    3.1814   -6.8413  -11.2231 C   0  0  0  0  0  0  0  0  0  0  0  0
    5.4654   -7.3990  -10.7131 C   0  0  0  0  0  0  0  0  0  0  0  0
    4.2467   -7.8497  -11.4226 N   0  3  0  0  0  0  0  0  0  0  0  0
    3.8171   -9.1596  -10.9384 C   0  0  0  0  0  0  0  0  0  0  0  0
    3.8581   -1.3697   -2.1838 H   0  0  0  0  0  0  0  0  0  0  0  0
    4.8978   -0.0721   -1.6331 H   0  0  0  0  0  0  0  0  0  0  0  0
    3.5793    2.0910   -0.8528 H   0  0  0  0  0  0  0  0  0  0  0  0
    1.9207    1.8258   -0.3154 H   0  0  0  0  0  0  0  0  0  0  0  0
    2.2001    3.1738   -2.4659 H   0  0  0  0  0  0  0  0  0  0  0  0
    1.0906    1.8357   -2.5361 H   0  0  0  0  0  0  0  0  0  0  0  0
    2.2864   -2.2666   -2.7354 H   0  0  0  0  0  0  0  0  0  0  0  0
    0.9443   -3.3050   -2.3190 H   0  0  0  0  0  0  0  0  0  0  0  0
    2.4835   -4.0025   -2.7633 H   0  0  0  0  0  0  0  0  0  0  0  0
   -1.1300   -4.4765    0.1051 H   0  0  0  0  0  0  0  0  0  0  0  0
    3.4149   -6.0224   -0.0701 H   0  0  0  0  0  0  0  0  0  0  0  0
   -0.5339   -6.6732    1.2125 H   0  0  0  0  0  0  0  0  0  0  0  0
    1.6584   -7.5571    0.6842 H   0  0  0  0  0  0  0  0  0  0  0  0
    1.6083    3.4130   -4.7143 H   0  0  0  0  0  0  0  0  0  0  0  0
    1.5871    2.4932   -6.1998 H   0  0  0  0  0  0  0  0  0  0  0  0
    2.8671    3.6451   -5.9037 H   0  0  0  0  0  0  0  0  0  0  0  0
    5.5466   -0.4191   -6.7611 H   0  0  0  0  0  0  0  0  0  0  0  0
    6.6628    0.5065   -8.7988 H   0  0  0  0  0  0  0  0  0  0  0  0
    5.0318    0.9469   -9.3121 H   0  0  0  0  0  0  0  0  0  0  0  0
    3.3554   -1.1352   -9.1895 H   0  0  0  0  0  0  0  0  0  0  0  0
    7.4704   -1.4351   -9.8982 H   0  0  0  0  0  0  0  0  0  0  0  0
    3.0304   -3.3201  -10.1474 H   0  0  0  0  0  0  0  0  0  0  0  0
    7.1350   -3.6369  -10.8568 H   0  0  0  0  0  0  0  0  0  0  0  0
    3.7790   -5.4480  -12.7521 H   0  0  0  0  0  0  0  0  0  0  0  0
    2.8315   -4.7334  -11.4625 H   0  0  0  0  0  0  0  0  0  0  0  0
    6.7729   -5.6907  -10.5539 H   0  0  0  0  0  0  0  0  0  0  0  0
    6.2402   -6.0309  -12.1869 H   0  0  0  0  0  0  0  0  0  0  0  0
    2.3161   -7.1415  -11.7763 H   0  0  0  0  0  0  0  0  0  0  0  0
    2.9764   -6.7861  -10.1744 H   0  0  0  0  0  0  0  0  0  0  0  0
    5.2580   -7.3714   -9.6638 H   0  0  0  0  0  0  0  0  0  0  0  0
    6.2464   -8.0913  -10.9488 H   0  0  0  0  0  0  0  0  0  0  0  0
    4.4473   -7.9435  -12.4183 H   0  0  0  0  0  0  0  0  0  0  0  0
    3.5973   -9.0989   -9.8930 H   0  0  0  0  0  0  0  0  0  0  0  0
    4.5989   -9.8727  -11.0977 H   0  0  0  0  0  0  0  0  0  0  0  0
    2.9407   -9.4665  -11.4699 H   0  0  0  0  0  0  0  0  0  0  0  0
  1  2  2  0  0  0  0
  2  3  1  0  0  0  0
  2  4  1  0  0  0  0
  3  5  1  0  0  0  0
  3  6  1  0  0  0  0
  4  7  1  0  0  0  0
  4  8  2  0  0  0  0
  5  9  1  0  0  0  0
  5 40  1  0  0  0  0
  5 41  1  0  0  0  0
  6 10  1  0  0  0  0
  6 42  1  0  0  0  0
  6 43  1  0  0  0  0
  7 11  1  0  0  0  0
  8 12  1  0  0  0  0
  8 13  1  0  0  0  0
  9 14  1  0  0  0  0
  9 15  2  0  0  0  0
 10 15  1  0  0  0  0
 10 44  1  0  0  0  0
 10 45  1  0  0  0  0
 11 16  2  0  0  0  0
 11 12  1  0  0  0  0
 12 17  2  0  0  0  0
 13 46  1  0  0  0  0
 13 47  1  0  0  0  0
 13 48  1  0  0  0  0
 14 18  2  0  0  0  0
 15 19  1  0  0  0  0
 16 20  1  0  0  0  0
 16 49  1  0  0  0  0
 17 21  1  0  0  0  0
 17 50  1  0  0  0  0
 18 22  1  0  0  0  0
 18 19  1  0  0  0  0
 19 23  1  0  0  0  0
 20 21  2  0  0  0  0
 20 51  1  0  0  0  0
 21 52  1  0  0  0  0
 22 24  2  0  0  0  0
 22 25  1  0  0  0  0
 23 53  1  0  0  0  0
 23 54  1  0  0  0  0
 23 55  1  0  0  0  0
 25 26  1  0  0  0  0
 25 56  1  0  0  0  0
 26 27  1  0  0  0  0
 26 57  1  0  0  0  0
 26 58  1  0  0  0  0
 27 28  2  0  0  0  0
 27 29  1  0  0  0  0
 28 30  1  0  0  0  0
 28 59  1  0  0  0  0
 29 31  2  0  0  0  0
 29 60  1  0  0  0  0
 30 32  2  0  0  0  0
 30 61  1  0  0  0  0
 31 32  1  0  0  0  0
 31 62  1  0  0  0  0
 32 33  1  0  0  0  0
 33 34  1  0  0  0  0
 33 35  1  0  0  0  0
 34 36  1  0  0  0  0
 34 63  1  0  0  0  0
 34 64  1  0  0  0  0
 35 37  1  0  0  0  0
 35 65  1  0  0  0  0
 35 66  1  0  0  0  0
 36 38  1  0  0  0  0
 36 67  1  0  0  0  0
 36 68  1  0  0  0  0
 37 38  1  0  0  0  0
 37 69  1  0  0  0  0
 37 70  1  0  0  0  0
 38 39  1  0  0  0  0
 38 71  1  0  0  0  0
 39 72  1  0  0  0  0
 39 73  1  0  0  0  0
 39 74  1  0  0  0  0
M  CHG  1  38   1
M  END
>  <Molecule Name>
CTX-1020903

>  <SMILES>
CN1C2=C(CN(CC2)C(=O)C2=C(C)C3=CC=CC=C3O2)N=C1C(=O)NCC1=CC=C(C=C1)N1CCN(C)CC1

>  <Batch Name>
CTX-1020903-1

>  <Batch Created Date>
2022-01-20

>  <Batch ID>
CTX-1020903-1

>  <External ID>
P841-0275

>  <Stereochemistry>
Achiral

>  <Amount 1>
9.1

>  <Unit 1>
mg

>  <CRO 1>
Pharmaron

>  <CRO 1 Total Amount>
16.5

>  <CRO 1 Unit>
mg

>  <Pharmaron Solubility (PBS, pH 7.4): Aqueous Solubility - Batch Mean (uM)>
52.8358

>  <Pharmaron Solubility (PBS, pH 7.4): Aqueous Solubility - Batch Mean (uM) Standard Deviation (±)>


>  <Pharmaron Solubility (PBS, pH 7.4): Aqueous Solubility - Batch Mean (uM) Count>
1.0

>  <log P>
2.64

>  <log D>
2.0

>  <Pharmaron Caliper Assay (CDK2/CCNE1): Minimum measured (%)>
17.4

>  <Pharmaron Caliper Assay (CDK2/CCNE1): IC50 - Batch Mean (uM)>
0.275

>  <Pharmaron ADPGLO (CDK2/E1-25C): Minimum measured (%)>
30.6

>  <Pharmaron ADPGLO (CDK2/E1-25C): IC50 - Batch Mean (uM)>
2.67

>  <Pharmaron ADPGLO (CDK2/E1-37C): Minimum measured (%)>
71.8

>  <Pharmaron ADPGLO (CDK2/E1-37C): IC50 - Batch Mean (uM)>
16.8

>  <IncuCyte Kuramochi RB-WT: IC50 - Batch Mean (uM)>
7.7

>  <IncuCyte Kuramochi RB-KO: IC50 - Batch Mean (uM)>
7.41

>  <DSF (npCDK2/CCNE1): dTm D - Batch Mean [Concentration: 100]>


>  <DSF (npCDK2/CCNE1): dTm D - Batch Mean [Concentration: 20.0]>
3.807

>  <DSF (pCDK2/CCNE1): dTm D - Batch Mean [Concentration: 100]>


>  <DSF (pCDK2/CCNE1): dTm D - Batch Mean [Concentration: 20.0]>
2.451

>  <RLM: t1/2 - Batch Mean (Min)>


>  <RLM: Cl int - Batch Mean (uL/min/mg protein)>


>  <RLM: ER (Hepatic extraction ratio) - Batch Mean>


>  <HLM: t1/2 - Batch Mean (Min)>


>  <HLM: Cl int - Batch Mean (uL/min/mg protein)>


>  <HLM: ER (Hepatic extraction ratio) - Batch Mean>


>  <MDCK-WT 4% BSA: Papp (A-B) - Batch Mean (10-6, cm/s)>


>  <MDCK-WT 4% BSA: Papp (B-A) - Batch Mean (10-6, cm/s)>


>  <MDCK-WT 4% BSA: Efflux Ratio - Batch Mean>


>  <MDCK-WT 4% BSA: ~Net A_B - Batch Mean (10-6, cm/s)>


>  <pIC50>
6.560667

>  <Selection_1>
Y

>  <Selection_N>
N

>  <Serie>
Other

>  <Selection_T>
N

>  <Train_Vs_Test>


$$$$
CTX-1020902
 OpenBabel08272613263D

 75 80  0  0  0  0  0  0  0  0999 V2000
    1.5197    0.4290   -0.6058 O   0  0  0  0  0  0  0  0  0  0  0  0
    2.5920   -0.1227   -0.3681 C   0  0  0  0  0  0  0  0  0  0  0  0
    3.0132   -1.1495   -1.2195 N   0  0  0  0  0  0  0  0  0  0  0  0
    3.4619    0.3595    0.7139 C   0  0  0  0  0  0  0  0  0  0  0  0
    4.0982   -2.0814   -0.9673 C   0  0  0  0  0  0  0  0  0  0  0  0
    2.4947   -1.1932   -2.5821 C   0  0  0  0  0  0  0  0  0  0  0  0
    2.8133    1.2260    1.5884 O   0  0  0  0  0  0  0  0  0  0  0  0
    4.7887    0.7995    0.6868 C   0  0  0  0  0  0  0  0  0  0  0  0
    5.1998   -1.9559   -1.9978 C   0  0  0  0  0  0  0  0  0  0  0  0
    3.5948   -0.7357   -3.5480 C   0  0  0  0  0  0  0  0  0  0  0  0
    3.5156    2.3957    1.5403 C   0  0  0  0  0  0  0  0  0  0  0  0
    4.6601    2.2207    0.7766 C   0  0  0  0  0  0  0  0  0  0  0  0
    6.0305    0.1057    1.1256 C   0  0  0  0  0  0  0  0  0  0  0  0
    6.4179   -2.4563   -1.6629 N   0  0  0  0  0  0  0  0  0  0  0  0
    4.9321   -1.3744   -3.2452 C   0  0  0  0  0  0  0  0  0  0  0  0
    3.1561    3.5880    2.1474 C   0  0  0  0  0  0  0  0  0  0  0  0
    5.4801    3.3331    0.5176 C   0  0  0  0  0  0  0  0  0  0  0  0
    7.4202   -2.3776   -2.5764 C   0  0  0  0  0  0  0  0  0  0  0  0
    5.9723   -1.3075   -4.1722 C   0  0  0  0  0  0  0  0  0  0  0  0
    3.9749    4.6852    1.8710 C   0  0  0  0  0  0  0  0  0  0  0  0
    5.0926    4.5726    1.0373 C   0  0  0  0  0  0  0  0  0  0  0  0
    7.2261   -1.8158   -3.8374 C   0  0  0  0  0  0  0  0  0  0  0  0
    8.8220   -2.7913   -2.1457 C   0  0  0  0  0  0  0  0  0  0  0  0
    8.9544   -4.1977   -1.7453 N   0  3  0  0  0  0  0  0  0  0  0  0
   10.3284   -4.4780   -1.3248 C   0  0  0  0  0  0  0  0  0  0  0  0
   10.5329   -5.9266   -0.9502 C   0  0  0  0  0  0  0  0  0  0  0  0
   11.4680   -6.7128   -1.6256 C   0  0  0  0  0  0  0  0  0  0  0  0
    9.8346   -6.5019    0.1193 C   0  0  0  0  0  0  0  0  0  0  0  0
   11.6968   -8.0390   -1.2370 C   0  0  0  0  0  0  0  0  0  0  0  0
   10.0818   -7.8262    0.5095 C   0  0  0  0  0  0  0  0  0  0  0  0
   11.0182   -8.6249   -0.1564 C   0  0  0  0  0  0  0  0  0  0  0  0
   11.3570   -9.9089    0.2418 N   0  0  0  0  0  0  0  0  0  0  0  0
   11.1194  -10.3667    1.6183 C   0  0  0  0  0  0  0  0  0  0  0  0
   11.2581  -10.9988   -0.7447 C   0  0  0  0  0  0  0  0  0  0  0  0
   12.1403  -11.4818    1.9572 C   0  0  0  0  0  0  0  0  0  0  0  0
   12.2643  -12.1165   -0.3756 C   0  0  0  0  0  0  0  0  0  0  0  0
   12.0939  -12.6212    1.0090 N   0  3  0  0  0  0  0  0  0  0  0  0
   13.1397  -13.5908    1.3287 C   0  0  0  0  0  0  0  0  0  0  0  0
    3.7111   -3.0785   -0.9942 H   0  0  0  0  0  0  0  0  0  0  0  0
    4.5139   -1.8551   -0.0077 H   0  0  0  0  0  0  0  0  0  0  0  0
    1.6498   -0.5420   -2.6659 H   0  0  0  0  0  0  0  0  0  0  0  0
    2.1931   -2.1911   -2.8231 H   0  0  0  0  0  0  0  0  0  0  0  0
    3.6971    0.3268   -3.4735 H   0  0  0  0  0  0  0  0  0  0  0  0
    3.3071   -1.0344   -4.5343 H   0  0  0  0  0  0  0  0  0  0  0  0
    5.9222   -0.9482    0.9756 H   0  0  0  0  0  0  0  0  0  0  0  0
    6.2013    0.3026    2.1634 H   0  0  0  0  0  0  0  0  0  0  0  0
    6.8605    0.4640    0.5533 H   0  0  0  0  0  0  0  0  0  0  0  0
    2.3334    3.6609    2.7662 H   0  0  0  0  0  0  0  0  0  0  0  0
    6.3432    3.2378   -0.0400 H   0  0  0  0  0  0  0  0  0  0  0  0
    5.8144   -0.8844   -5.1001 H   0  0  0  0  0  0  0  0  0  0  0  0
    3.7501    5.6003    2.2918 H   0  0  0  0  0  0  0  0  0  0  0  0
    5.6389    5.4160    0.8023 H   0  0  0  0  0  0  0  0  0  0  0  0
    8.0028   -1.7767   -4.5159 H   0  0  0  0  0  0  0  0  0  0  0  0
    9.1087   -2.1805   -1.3152 H   0  0  0  0  0  0  0  0  0  0  0  0
    9.4502   -2.6620   -3.0022 H   0  0  0  0  0  0  0  0  0  0  0  0
    8.7153   -4.7967   -2.5356 H   0  0  0  0  0  0  0  0  0  0  0  0
    8.3239   -4.3817   -0.9649 H   0  0  0  0  0  0  0  0  0  0  0  0
   10.5591   -3.8681   -0.4764 H   0  0  0  0  0  0  0  0  0  0  0  0
   10.9727   -4.2611   -2.1511 H   0  0  0  0  0  0  0  0  0  0  0  0
   11.9951   -6.3137   -2.4180 H   0  0  0  0  0  0  0  0  0  0  0  0
    9.1297   -5.9443    0.6264 H   0  0  0  0  0  0  0  0  0  0  0  0
   12.3848   -8.6024   -1.7606 H   0  0  0  0  0  0  0  0  0  0  0  0
    9.5601   -8.2214    1.3074 H   0  0  0  0  0  0  0  0  0  0  0  0
   10.1248  -10.7522    1.7023 H   0  0  0  0  0  0  0  0  0  0  0  0
   11.2353   -9.5489    2.2984 H   0  0  0  0  0  0  0  0  0  0  0  0
   11.4859  -10.6205   -1.7193 H   0  0  0  0  0  0  0  0  0  0  0  0
   10.2645  -11.3959   -0.7415 H   0  0  0  0  0  0  0  0  0  0  0  0
   11.9305  -11.8482    2.9403 H   0  0  0  0  0  0  0  0  0  0  0  0
   13.1174  -11.0507    1.8902 H   0  0  0  0  0  0  0  0  0  0  0  0
   13.2562  -11.7282   -0.4765 H   0  0  0  0  0  0  0  0  0  0  0  0
   12.0852  -12.9375   -1.0379 H   0  0  0  0  0  0  0  0  0  0  0  0
   11.1904  -13.0878    1.0879 H   0  0  0  0  0  0  0  0  0  0  0  0
   14.0977  -13.1206    1.2517 H   0  0  0  0  0  0  0  0  0  0  0  0
   13.0883  -14.4101    0.6423 H   0  0  0  0  0  0  0  0  0  0  0  0
   12.9986  -13.9518    2.3260 H   0  0  0  0  0  0  0  0  0  0  0  0
  1  2  2  0  0  0  0
  2  3  1  0  0  0  0
  2  4  1  0  0  0  0
  3  5  1  0  0  0  0
  3  6  1  0  0  0  0
  4  7  1  0  0  0  0
  4  8  2  0  0  0  0
  5  9  1  0  0  0  0
  5 39  1  0  0  0  0
  5 40  1  0  0  0  0
  6 10  1  0  0  0  0
  6 41  1  0  0  0  0
  6 42  1  0  0  0  0
  7 11  1  0  0  0  0
  8 12  1  0  0  0  0
  8 13  1  0  0  0  0
  9 14  2  0  0  0  0
  9 15  1  0  0  0  0
 10 15  1  0  0  0  0
 10 43  1  0  0  0  0
 10 44  1  0  0  0  0
 11 16  2  0  0  0  0
 11 12  1  0  0  0  0
 12 17  2  0  0  0  0
 13 45  1  0  0  0  0
 13 46  1  0  0  0  0
 13 47  1  0  0  0  0
 14 18  1  0  0  0  0
 15 19  2  0  0  0  0
 16 20  1  0  0  0  0
 16 48  1  0  0  0  0
 17 21  1  0  0  0  0
 17 49  1  0  0  0  0
 18 22  2  0  0  0  0
 18 23  1  0  0  0  0
 19 22  1  0  0  0  0
 19 50  1  0  0  0  0
 20 21  2  0  0  0  0
 20 51  1  0  0  0  0
 21 52  1  0  0  0  0
 22 53  1  0  0  0  0
 23 24  1  0  0  0  0
 23 54  1  0  0  0  0
 23 55  1  0  0  0  0
 24 25  1  0  0  0  0
 24 56  1  0  0  0  0
 24 57  1  0  0  0  0
 25 26  1  0  0  0  0
 25 58  1  0  0  0  0
 25 59  1  0  0  0  0
 26 27  2  0  0  0  0
 26 28  1  0  0  0  0
 27 29  1  0  0  0  0
 27 60  1  0  0  0  0
 28 30  2  0  0  0  0
 28 61  1  0  0  0  0
 29 31  2  0  0  0  0
 29 62  1  0  0  0  0
 30 31  1  0  0  0  0
 30 63  1  0  0  0  0
 31 32  1  0  0  0  0
 32 33  1  0  0  0  0
 32 34  1  0  0  0  0
 33 35  1  0  0  0  0
 33 64  1  0  0  0  0
 33 65  1  0  0  0  0
 34 36  1  0  0  0  0
 34 66  1  0  0  0  0
 34 67  1  0  0  0  0
 35 37  1  0  0  0  0
 35 68  1  0  0  0  0
 35 69  1  0  0  0  0
 36 37  1  0  0  0  0
 36 70  1  0  0  0  0
 36 71  1  0  0  0  0
 37 38  1  0  0  0  0
 37 72  1  0  0  0  0
 38 73  1  0  0  0  0
 38 74  1  0  0  0  0
 38 75  1  0  0  0  0
M  CHG  2  24   1  37   1
M  END
>  <Molecule Name>
CTX-1020902

>  <SMILES>
CN1CCN(CC1)C1=CC=C(CNCC2=CC=C3CCN(CC3=N2)C(=O)C2=C(C)C3=CC=CC=C3O2)C=C1

>  <Batch Name>
CTX-1020902-1

>  <Batch Created Date>
2022-01-20

>  <Batch ID>
CTX-1020902-1

>  <External ID>
P841-0274

>  <Stereochemistry>
Achiral

>  <Amount 1>
2.8

>  <Unit 1>
mg

>  <CRO 1>
Pharmaron

>  <CRO 1 Total Amount>
2.1

>  <CRO 1 Unit>
mg

>  <Pharmaron Solubility (PBS, pH 7.4): Aqueous Solubility - Batch Mean (uM)>
239.5833

>  <Pharmaron Solubility (PBS, pH 7.4): Aqueous Solubility - Batch Mean (uM) Standard Deviation (±)>


>  <Pharmaron Solubility (PBS, pH 7.4): Aqueous Solubility - Batch Mean (uM) Count>
1.0

>  <log P>
3.81

>  <log D>
2.67

>  <Pharmaron Caliper Assay (CDK2/CCNE1): Minimum measured (%)>
76.3

>  <Pharmaron Caliper Assay (CDK2/CCNE1): IC50 - Batch Mean (uM)>
45.6

>  <Pharmaron ADPGLO (CDK2/E1-25C): Minimum measured (%)>
94.3

>  <Pharmaron ADPGLO (CDK2/E1-25C): IC50 - Batch Mean (uM)>
100

>  <Pharmaron ADPGLO (CDK2/E1-37C): Minimum measured (%)>
98.0

>  <Pharmaron ADPGLO (CDK2/E1-37C): IC50 - Batch Mean (uM)>
100

>  <IncuCyte Kuramochi RB-WT: IC50 - Batch Mean (uM)>
5.57

>  <IncuCyte Kuramochi RB-KO: IC50 - Batch Mean (uM)>
5.79

>  <DSF (npCDK2/CCNE1): dTm D - Batch Mean [Concentration: 100]>


>  <DSF (npCDK2/CCNE1): dTm D - Batch Mean [Concentration: 20.0]>
-0.034

>  <DSF (pCDK2/CCNE1): dTm D - Batch Mean [Concentration: 100]>


>  <DSF (pCDK2/CCNE1): dTm D - Batch Mean [Concentration: 20.0]>
-0.021

>  <RLM: t1/2 - Batch Mean (Min)>
2.1

>  <RLM: Cl int - Batch Mean (uL/min/mg protein)>
659.88

>  <RLM: ER (Hepatic extraction ratio) - Batch Mean>
0.9590000000000001

>  <HLM: t1/2 - Batch Mean (Min)>
9.86

>  <HLM: Cl int - Batch Mean (uL/min/mg protein)>
141.27

>  <HLM: ER (Hepatic extraction ratio) - Batch Mean>
0.873

>  <MDCK-WT 4% BSA: Papp (A-B) - Batch Mean (10-6, cm/s)>


>  <MDCK-WT 4% BSA: Papp (B-A) - Batch Mean (10-6, cm/s)>


>  <MDCK-WT 4% BSA: Efflux Ratio - Batch Mean>


>  <MDCK-WT 4% BSA: ~Net A_B - Batch Mean (10-6, cm/s)>


>  <pIC50>
4.341035

>  <Selection_1>
Y

>  <Selection_N>


>  <Serie>
Naphthyridine

>  <Selection_T>
N

>  <Train_Vs_Test>


$$$$
CTX-1020882
 OpenBabel08272613263D

 72 77  0  0  0  0  0  0  0  0999 V2000
    1.8798   -0.7391    0.0022 S   0  0  0  0  0  0  0  0  0  0  0  0
    2.2035    0.9403    0.0924 C   0  0  0  0  0  0  0  0  0  0  0  0
    0.1980   -0.4790    0.0265 C   0  0  0  0  0  0  0  0  0  0  0  0
    3.5416    1.5069    0.0818 C   0  0  0  0  0  0  0  0  0  0  0  0
    1.0318    1.6689    0.1678 C   0  0  0  0  0  0  0  0  0  0  0  0
   -0.1361    0.8474    0.1317 C   0  0  0  0  0  0  0  0  0  0  0  0
   -0.8069   -1.5731   -0.1305 C   0  0  0  0  0  0  0  0  0  0  0  0
    3.7342    2.7206    0.1142 O   0  0  0  0  0  0  0  0  0  0  0  0
    4.5878    0.6156    0.0328 N   0  0  0  0  0  0  0  0  0  0  0  0
   -1.5338    1.3601    0.1451 C   0  0  0  0  0  0  0  0  0  0  0  0
   -2.2125   -1.0382    0.1868 C   0  0  0  0  0  0  0  0  0  0  0  0
    5.9653    1.0490    0.0272 C   0  0  0  0  0  0  0  0  0  0  0  0
   -2.4507    0.3345   -0.3015 N   0  0  0  0  0  0  0  0  0  0  0  0
    6.6708    0.6224   -1.2334 C   0  0  0  0  0  0  0  0  0  0  0  0
   -3.7003    0.6116   -0.8463 C   0  0  0  0  0  0  0  0  0  0  0  0
    6.2183    1.0553   -2.4778 C   0  0  0  0  0  0  0  0  0  0  0  0
    7.8251   -0.1669   -1.1696 C   0  0  0  0  0  0  0  0  0  0  0  0
   -4.3868   -0.3435   -1.2296 O   0  0  0  0  0  0  0  0  0  0  0  0
   -4.2450    1.9851   -0.9704 C   0  0  0  0  0  0  0  0  0  0  0  0
    6.8892    0.6700   -3.6375 C   0  0  0  0  0  0  0  0  0  0  0  0
    8.5012   -0.5374   -2.3455 C   0  0  0  0  0  0  0  0  0  0  0  0
   -5.6261    1.9186   -1.1566 O   0  0  0  0  0  0  0  0  0  0  0  0
   -3.8556    3.1190   -1.7050 C   0  0  0  0  0  0  0  0  0  0  0  0
    8.0345   -0.1410   -3.6037 C   0  0  0  0  0  0  0  0  0  0  0  0
   -5.7897    2.2924   -2.4531 C   0  0  0  0  0  0  0  0  0  0  0  0
   -4.6969    3.0374   -2.8594 C   0  0  0  0  0  0  0  0  0  0  0  0
   -2.8031    4.1479   -1.5033 C   0  0  0  0  0  0  0  0  0  0  0  0
    8.6504   -0.4715   -4.8033 N   0  0  0  0  0  0  0  0  0  0  0  0
   -6.8465    1.9236   -3.2694 C   0  0  0  0  0  0  0  0  0  0  0  0
   -4.6677    3.5064   -4.1811 C   0  0  0  0  0  0  0  0  0  0  0  0
   10.0719   -0.8468   -4.8580 C   0  0  0  0  0  0  0  0  0  0  0  0
    7.8265   -1.2753   -5.7308 C   0  0  0  0  0  0  0  0  0  0  0  0
   -7.8730    1.1398   -2.8194 O   0  0  0  0  0  0  0  0  0  0  0  0
   -6.7449    2.2732   -4.6090 C   0  0  0  0  0  0  0  0  0  0  0  0
   -5.6686    3.0526   -5.0594 C   0  0  0  0  0  0  0  0  0  0  0  0
   10.5789   -0.6778   -6.3163 C   0  0  0  0  0  0  0  0  0  0  0  0
    8.3525   -1.0865   -7.1695 C   0  0  0  0  0  0  0  0  0  0  0  0
    9.7825   -1.4503   -7.3021 N   0  3  0  0  0  0  0  0  0  0  0  0
   10.2439   -1.1849   -8.6628 C   0  0  0  0  0  0  0  0  0  0  0  0
    1.0036    2.6979    0.2422 H   0  0  0  0  0  0  0  0  0  0  0  0
   -0.5706   -2.3717    0.5413 H   0  0  0  0  0  0  0  0  0  0  0  0
   -0.7844   -1.9316   -1.1384 H   0  0  0  0  0  0  0  0  0  0  0  0
    4.3914   -0.3485    0.0006 H   0  0  0  0  0  0  0  0  0  0  0  0
   -1.6056    2.2055   -0.5069 H   0  0  0  0  0  0  0  0  0  0  0  0
   -1.7901    1.6441    1.1443 H   0  0  0  0  0  0  0  0  0  0  0  0
   -2.3451   -1.0466    1.2485 H   0  0  0  0  0  0  0  0  0  0  0  0
   -2.9097   -1.6743   -0.3174 H   0  0  0  0  0  0  0  0  0  0  0  0
    6.4682    0.6213    0.8693 H   0  0  0  0  0  0  0  0  0  0  0  0
    5.9822    2.1177    0.0773 H   0  0  0  0  0  0  0  0  0  0  0  0
    5.3856    1.6616   -2.5412 H   0  0  0  0  0  0  0  0  0  0  0  0
    8.1824   -0.4789   -0.2531 H   0  0  0  0  0  0  0  0  0  0  0  0
    6.5323    0.9917   -4.5509 H   0  0  0  0  0  0  0  0  0  0  0  0
    9.3561   -1.1116   -2.2795 H   0  0  0  0  0  0  0  0  0  0  0  0
   -2.3213    3.9856   -0.5619 H   0  0  0  0  0  0  0  0  0  0  0  0
   -3.2488    5.1207   -1.5128 H   0  0  0  0  0  0  0  0  0  0  0  0
   -2.0813    4.0787   -2.2901 H   0  0  0  0  0  0  0  0  0  0  0  0
   -3.9367    4.1622   -4.4984 H   0  0  0  0  0  0  0  0  0  0  0  0
   10.1866   -1.8660   -4.5533 H   0  0  0  0  0  0  0  0  0  0  0  0
   10.6386   -0.2202   -4.2014 H   0  0  0  0  0  0  0  0  0  0  0  0
    6.8079   -0.9520   -5.6767 H   0  0  0  0  0  0  0  0  0  0  0  0
    7.8839   -2.3087   -5.4595 H   0  0  0  0  0  0  0  0  0  0  0  0
   -7.9263    0.9133   -1.9118 H   0  0  0  0  0  0  0  0  0  0  0  0
   -7.4651    1.9580   -5.2776 H   0  0  0  0  0  0  0  0  0  0  0  0
   -5.6097    3.2991   -6.0598 H   0  0  0  0  0  0  0  0  0  0  0  0
   11.5950   -1.0097   -6.3642 H   0  0  0  0  0  0  0  0  0  0  0  0
   10.4835    0.3574   -6.5696 H   0  0  0  0  0  0  0  0  0  0  0  0
    8.2322   -0.0601   -7.4471 H   0  0  0  0  0  0  0  0  0  0  0  0
    7.7909   -1.7349   -7.8091 H   0  0  0  0  0  0  0  0  0  0  0  0
    9.9010   -2.4461   -7.1156 H   0  0  0  0  0  0  0  0  0  0  0  0
   10.1289   -0.1438   -8.8817 H   0  0  0  0  0  0  0  0  0  0  0  0
    9.6652   -1.7608   -9.3544 H   0  0  0  0  0  0  0  0  0  0  0  0
   11.2755   -1.4556   -8.7488 H   0  0  0  0  0  0  0  0  0  0  0  0
  1  2  1  0  0  0  0
  1  3  1  0  0  0  0
  2  4  1  0  0  0  0
  2  5  2  0  0  0  0
  3  6  2  0  0  0  0
  3  7  1  0  0  0  0
  4  8  2  0  0  0  0
  4  9  1  0  0  0  0
  5  6  1  0  0  0  0
  5 40  1  0  0  0  0
  6 10  1  0  0  0  0
  7 11  1  0  0  0  0
  7 41  1  0  0  0  0
  7 42  1  0  0  0  0
  9 12  1  0  0  0  0
  9 43  1  0  0  0  0
 10 13  1  0  0  0  0
 10 44  1  0  0  0  0
 10 45  1  0  0  0  0
 11 13  1  0  0  0  0
 11 46  1  0  0  0  0
 11 47  1  0  0  0  0
 12 14  1  0  0  0  0
 12 48  1  0  0  0  0
 12 49  1  0  0  0  0
 13 15  1  0  0  0  0
 14 16  2  0  0  0  0
 14 17  1  0  0  0  0
 15 18  2  0  0  0  0
 15 19  1  0  0  0  0
 16 20  1  0  0  0  0
 16 50  1  0  0  0  0
 17 21  2  0  0  0  0
 17 51  1  0  0  0  0
 19 22  1  0  0  0  0
 19 23  2  0  0  0  0
 20 24  2  0  0  0  0
 20 52  1  0  0  0  0
 21 24  1  0  0  0  0
 21 53  1  0  0  0  0
 22 25  1  0  0  0  0
 23 26  1  0  0  0  0
 23 27  1  0  0  0  0
 24 28  1  0  0  0  0
 25 29  2  0  0  0  0
 25 26  1  0  0  0  0
 26 30  2  0  0  0  0
 27 54  1  0  0  0  0
 27 55  1  0  0  0  0
 27 56  1  0  0  0  0
 28 31  1  0  0  0  0
 28 32  1  0  0  0  0
 29 33  1  0  0  0  0
 29 34  1  0  0  0  0
 30 35  1  0  0  0  0
 30 57  1  0  0  0  0
 31 36  1  0  0  0  0
 31 58  1  0  0  0  0
 31 59  1  0  0  0  0
 32 37  1  0  0  0  0
 32 60  1  0  0  0  0
 32 61  1  0  0  0  0
 33 62  1  0  0  0  0
 34 35  2  0  0  0  0
 34 63  1  0  0  0  0
 35 64  1  0  0  0  0
 36 38  1  0  0  0  0
 36 65  1  0  0  0  0
 36 66  1  0  0  0  0
 37 38  1  0  0  0  0
 37 67  1  0  0  0  0
 37 68  1  0  0  0  0
 38 39  1  0  0  0  0
 38 69  1  0  0  0  0
 39 70  1  0  0  0  0
 39 71  1  0  0  0  0
 39 72  1  0  0  0  0
M  CHG  1  38   1
M  END
>  <Molecule Name>
CTX-1020882

>  <SMILES>
CN1CCN(CC1)C1=CC=C(CNC(=O)C2=CC3=C(CCN(C3)C(=O)C3=C(C)C4=CC=CC(O)=C4O3)S2)C=C1

>  <Batch Name>
CTX-1020882-1

>  <Batch Created Date>
2022-01-13

>  <Batch ID>
CTX-1020882-1

>  <External ID>
CD-44-2-D

>  <Stereochemistry>
Achiral

>  <Amount 1>
7.2

>  <Unit 1>
mg

>  <CRO 1>
Pharmaron

>  <CRO 1 Total Amount>
35.5

>  <CRO 1 Unit>
mg

>  <Pharmaron Solubility (PBS, pH 7.4): Aqueous Solubility - Batch Mean (uM)>
7.6644

>  <Pharmaron Solubility (PBS, pH 7.4): Aqueous Solubility - Batch Mean (uM) Standard Deviation (±)>


>  <Pharmaron Solubility (PBS, pH 7.4): Aqueous Solubility - Batch Mean (uM) Count>
1.0

>  <log P>
3.51

>  <log D>
3.38

>  <Pharmaron Caliper Assay (CDK2/CCNE1): Minimum measured (%)>
30.0

>  <Pharmaron Caliper Assay (CDK2/CCNE1): IC50 - Batch Mean (uM)>
4.72

>  <Pharmaron ADPGLO (CDK2/E1-25C): Minimum measured (%)>
71.5

>  <Pharmaron ADPGLO (CDK2/E1-25C): IC50 - Batch Mean (uM)>
5.03

>  <Pharmaron ADPGLO (CDK2/E1-37C): Minimum measured (%)>
101.0

>  <Pharmaron ADPGLO (CDK2/E1-37C): IC50 - Batch Mean (uM)>
100

>  <IncuCyte Kuramochi RB-WT: IC50 - Batch Mean (uM)>
8.68

>  <IncuCyte Kuramochi RB-KO: IC50 - Batch Mean (uM)>
11.0

>  <DSF (npCDK2/CCNE1): dTm D - Batch Mean [Concentration: 100]>


>  <DSF (npCDK2/CCNE1): dTm D - Batch Mean [Concentration: 20.0]>
1.117

>  <DSF (pCDK2/CCNE1): dTm D - Batch Mean [Concentration: 100]>


>  <DSF (pCDK2/CCNE1): dTm D - Batch Mean [Concentration: 20.0]>
0.517

>  <RLM: t1/2 - Batch Mean (Min)>


>  <RLM: Cl int - Batch Mean (uL/min/mg protein)>


>  <RLM: ER (Hepatic extraction ratio) - Batch Mean>


>  <HLM: t1/2 - Batch Mean (Min)>


>  <HLM: Cl int - Batch Mean (uL/min/mg protein)>


>  <HLM: ER (Hepatic extraction ratio) - Batch Mean>


>  <MDCK-WT 4% BSA: Papp (A-B) - Batch Mean (10-6, cm/s)>


>  <MDCK-WT 4% BSA: Papp (B-A) - Batch Mean (10-6, cm/s)>


>  <MDCK-WT 4% BSA: Efflux Ratio - Batch Mean>


>  <MDCK-WT 4% BSA: ~Net A_B - Batch Mean (10-6, cm/s)>


>  <pIC50>
5.326058

>  <Selection_1>
Y

>  <Selection_N>
N

>  <Serie>
Tetrahydrothienopyridine

>  <Selection_T>


>  <Train_Vs_Test>


$$$$
CTX-1020845
 OpenBabel08272613263D

 67 72  0  0  0  0  0  0  0  0999 V2000
   10.9593  -13.1566   -0.4960 Cl  0  0  0  0  0  0  0  0  0  0  0  0
   11.0476  -11.8031    0.5649 C   0  0  0  0  0  0  0  0  0  0  0  0
   10.1592  -10.7248    0.5695 C   0  0  0  0  0  0  0  0  0  0  0  0
   12.0936  -11.7308    1.5859 C   0  0  0  0  0  0  0  0  0  0  0  0
   10.5500   -9.6809    1.8800 S   0  0  0  0  0  0  0  0  0  0  0  0
    9.0343  -10.3685   -0.3624 C   0  0  0  0  0  0  0  0  0  0  0  0
   11.9163  -10.5935    2.3845 C   0  0  0  0  0  0  0  0  0  0  0  0
   13.1796  -12.5644    1.8848 C   0  0  0  0  0  0  0  0  0  0  0  0
    9.0538  -10.6526   -1.5592 O   0  0  0  0  0  0  0  0  0  0  0  0
    7.8634   -9.7526    0.2005 N   0  0  0  0  0  0  0  0  0  0  0  0
   12.8044  -10.3026    3.4606 C   0  0  0  0  0  0  0  0  0  0  0  0
   14.0358  -12.2850    2.9149 N   0  0  0  0  0  0  0  0  0  0  0  0
    6.9174   -8.8566   -0.6298 C   0  0  0  0  0  0  0  0  0  0  0  0
    7.2116  -10.6991    1.0953 C   0  0  0  0  0  0  0  0  0  0  0  0
   13.8518  -11.1825    3.6593 C   0  0  0  0  0  0  0  0  0  0  0  0
    5.4566   -8.8687   -0.0905 C   0  0  0  0  0  0  0  0  0  0  0  0
    6.1688  -10.0807    2.0080 C   0  0  0  0  0  0  0  0  0  0  0  0
    5.2149   -9.3124    1.1934 C   0  0  0  0  0  0  0  0  0  0  0  0
    4.1411   -8.6267   -0.7158 C   0  0  0  0  0  0  0  0  0  0  0  0
    3.6314   -9.0517    1.7393 S   0  0  0  0  0  0  0  0  0  0  0  0
    3.1233   -9.1288    0.1046 C   0  0  0  0  0  0  0  0  0  0  0  0
    1.8680   -9.8249   -0.1468 C   0  0  0  0  0  0  0  0  0  0  0  0
    0.7877   -9.2793   -0.3567 O   0  0  0  0  0  0  0  0  0  0  0  0
    1.9334  -11.2156   -0.0721 N   0  0  0  0  0  0  0  0  0  0  0  0
    3.1343  -11.9947    0.2156 C   0  0  0  0  0  0  0  0  0  0  0  0
    3.1389  -13.3423   -0.4313 C   0  0  0  0  0  0  0  0  0  0  0  0
    3.2701  -13.4443   -1.8183 C   0  0  0  0  0  0  0  0  0  0  0  0
    3.0834  -14.5160    0.3175 C   0  0  0  0  0  0  0  0  0  0  0  0
    3.3049  -14.6940   -2.4454 C   0  0  0  0  0  0  0  0  0  0  0  0
    3.1175  -15.7594   -0.3229 C   0  0  0  0  0  0  0  0  0  0  0  0
    3.1860  -15.8837   -1.7207 C   0  0  0  0  0  0  0  0  0  0  0  0
    3.0565  -17.1018   -2.3581 N   0  0  0  0  0  0  0  0  0  0  0  0
    3.8357  -17.4501   -3.5595 C   0  0  0  0  0  0  0  0  0  0  0  0
    2.4422  -18.2517   -1.6788 C   0  0  0  0  0  0  0  0  0  0  0  0
    2.9776  -18.3146   -4.5161 C   0  0  0  0  0  0  0  0  0  0  0  0
    1.6318  -19.0970   -2.6873 C   0  0  0  0  0  0  0  0  0  0  0  0
    2.4426  -19.5233   -3.8479 N   0  3  0  0  0  0  0  0  0  0  0  0
    1.6423  -20.3220   -4.7702 C   0  0  0  0  0  0  0  0  0  0  0  0
   13.3375  -13.4097    1.3141 H   0  0  0  0  0  0  0  0  0  0  0  0
   12.6720   -9.4748    4.0624 H   0  0  0  0  0  0  0  0  0  0  0  0
    6.9126   -9.2071   -1.6408 H   0  0  0  0  0  0  0  0  0  0  0  0
    7.2799   -7.8521   -0.5628 H   0  0  0  0  0  0  0  0  0  0  0  0
    7.9630  -11.1548    1.7057 H   0  0  0  0  0  0  0  0  0  0  0  0
    6.6965  -11.4021    0.4745 H   0  0  0  0  0  0  0  0  0  0  0  0
   14.5246  -10.9827    4.4160 H   0  0  0  0  0  0  0  0  0  0  0  0
    6.6470   -9.4298    2.7098 H   0  0  0  0  0  0  0  0  0  0  0  0
    5.6513  -10.8513    2.5401 H   0  0  0  0  0  0  0  0  0  0  0  0
    3.9936   -8.1572   -1.6230 H   0  0  0  0  0  0  0  0  0  0  0  0
    1.0989  -11.7147   -0.2265 H   0  0  0  0  0  0  0  0  0  0  0  0
    3.2065  -12.1271    1.2749 H   0  0  0  0  0  0  0  0  0  0  0  0
    3.9654  -11.4512   -0.1827 H   0  0  0  0  0  0  0  0  0  0  0  0
    3.3422  -12.5866   -2.3876 H   0  0  0  0  0  0  0  0  0  0  0  0
    3.0170  -14.4680    1.3462 H   0  0  0  0  0  0  0  0  0  0  0  0
    3.4215  -14.7392   -3.4698 H   0  0  0  0  0  0  0  0  0  0  0  0
    3.0914  -16.6161    0.2521 H   0  0  0  0  0  0  0  0  0  0  0  0
    4.7064  -18.0004   -3.2698 H   0  0  0  0  0  0  0  0  0  0  0  0
    4.1249  -16.5513   -4.0630 H   0  0  0  0  0  0  0  0  0  0  0  0
    1.7892  -17.8992   -0.9079 H   0  0  0  0  0  0  0  0  0  0  0  0
    3.2138  -18.8595   -1.2545 H   0  0  0  0  0  0  0  0  0  0  0  0
    3.5838  -18.6180   -5.3439 H   0  0  0  0  0  0  0  0  0  0  0  0
    2.1470  -17.7223   -4.8388 H   0  0  0  0  0  0  0  0  0  0  0  0
    0.8075  -18.5132   -3.0403 H   0  0  0  0  0  0  0  0  0  0  0  0
    1.3002  -19.9790   -2.1803 H   0  0  0  0  0  0  0  0  0  0  0  0
    3.2163  -20.1092   -3.5341 H   0  0  0  0  0  0  0  0  0  0  0  0
    0.8171  -19.7395   -5.1230 H   0  0  0  0  0  0  0  0  0  0  0  0
    1.2754  -21.1905   -4.2641 H   0  0  0  0  0  0  0  0  0  0  0  0
    2.2477  -20.6219   -5.6000 H   0  0  0  0  0  0  0  0  0  0  0  0
  1  2  1  0  0  0  0
  2  3  2  0  0  0  0
  2  4  1  0  0  0  0
  3  5  1  0  0  0  0
  3  6  1  0  0  0  0
  4  7  2  0  0  0  0
  4  8  1  0  0  0  0
  5  7  1  0  0  0  0
  6  9  2  0  0  0  0
  6 10  1  0  0  0  0
  7 11  1  0  0  0  0
  8 12  2  0  0  0  0
  8 39  1  0  0  0  0
 10 13  1  0  0  0  0
 10 14  1  0  0  0  0
 11 15  2  0  0  0  0
 11 40  1  0  0  0  0
 12 15  1  0  0  0  0
 13 16  1  0  0  0  0
 13 41  1  0  0  0  0
 13 42  1  0  0  0  0
 14 17  1  0  0  0  0
 14 43  1  0  0  0  0
 14 44  1  0  0  0  0
 15 45  1  0  0  0  0
 16 18  2  0  0  0  0
 16 19  1  0  0  0  0
 17 18  1  0  0  0  0
 17 46  1  0  0  0  0
 17 47  1  0  0  0  0
 18 20  1  0  0  0  0
 19 21  2  0  0  0  0
 19 48  1  0  0  0  0
 20 21  1  0  0  0  0
 21 22  1  0  0  0  0
 22 23  2  0  0  0  0
 22 24  1  0  0  0  0
 24 25  1  0  0  0  0
 24 49  1  0  0  0  0
 25 26  1  0  0  0  0
 25 50  1  0  0  0  0
 25 51  1  0  0  0  0
 26 27  2  0  0  0  0
 26 28  1  0  0  0  0
 27 29  1  0  0  0  0
 27 52  1  0  0  0  0
 28 30  2  0  0  0  0
 28 53  1  0  0  0  0
 29 31  2  0  0  0  0
 29 54  1  0  0  0  0
 30 31  1  0  0  0  0
 30 55  1  0  0  0  0
 31 32  1  0  0  0  0
 32 33  1  0  0  0  0
 32 34  1  0  0  0  0
 33 35  1  0  0  0  0
 33 56  1  0  0  0  0
 33 57  1  0  0  0  0
 34 36  1  0  0  0  0
 34 58  1  0  0  0  0
 34 59  1  0  0  0  0
 35 37  1  0  0  0  0
 35 60  1  0  0  0  0
 35 61  1  0  0  0  0
 36 37  1  0  0  0  0
 36 62  1  0  0  0  0
 36 63  1  0  0  0  0
 37 38  1  0  0  0  0
 37 64  1  0  0  0  0
 38 65  1  0  0  0  0
 38 66  1  0  0  0  0
 38 67  1  0  0  0  0
M  CHG  1  37   1
M  END
>  <Molecule Name>
CTX-1020845

>  <SMILES>
CN1CCN(CC1)C1=CC=C(CNC(=O)C2=CC3=C(CCN(C3)C(=O)C3=C(Cl)C4=CN=CC=C4S3)S2)C=C1

>  <Batch Name>
CTX-1020845-1

>  <Batch Created Date>
2022-01-06

>  <Batch ID>
CTX-1020845-1

>  <External ID>
CD-44-2-L

>  <Stereochemistry>
Achiral

>  <Amount 1>
4.0

>  <Unit 1>
mg

>  <CRO 1>
Pharmaron

>  <CRO 1 Total Amount>
18.8

>  <CRO 1 Unit>
mg

>  <Pharmaron Solubility (PBS, pH 7.4): Aqueous Solubility - Batch Mean (uM)>
107.46

>  <Pharmaron Solubility (PBS, pH 7.4): Aqueous Solubility - Batch Mean (uM) Standard Deviation (±)>


>  <Pharmaron Solubility (PBS, pH 7.4): Aqueous Solubility - Batch Mean (uM) Count>
1.0

>  <log P>
4.23

>  <log D>
3.6

>  <Pharmaron Caliper Assay (CDK2/CCNE1): Minimum measured (%)>
37.0

>  <Pharmaron Caliper Assay (CDK2/CCNE1): IC50 - Batch Mean (uM)>
85.4

>  <Pharmaron ADPGLO (CDK2/E1-25C): Minimum measured (%)>
61.1

>  <Pharmaron ADPGLO (CDK2/E1-25C): IC50 - Batch Mean (uM)>
100

>  <Pharmaron ADPGLO (CDK2/E1-37C): Minimum measured (%)>
89.8

>  <Pharmaron ADPGLO (CDK2/E1-37C): IC50 - Batch Mean (uM)>
100

>  <IncuCyte Kuramochi RB-WT: IC50 - Batch Mean (uM)>
7.94

>  <IncuCyte Kuramochi RB-KO: IC50 - Batch Mean (uM)>
9.53

>  <DSF (npCDK2/CCNE1): dTm D - Batch Mean [Concentration: 100]>


>  <DSF (npCDK2/CCNE1): dTm D - Batch Mean [Concentration: 20.0]>
0.635

>  <DSF (pCDK2/CCNE1): dTm D - Batch Mean [Concentration: 100]>


>  <DSF (pCDK2/CCNE1): dTm D - Batch Mean [Concentration: 20.0]>
0.267

>  <RLM: t1/2 - Batch Mean (Min)>


>  <RLM: Cl int - Batch Mean (uL/min/mg protein)>


>  <RLM: ER (Hepatic extraction ratio) - Batch Mean>


>  <HLM: t1/2 - Batch Mean (Min)>


>  <HLM: Cl int - Batch Mean (uL/min/mg protein)>


>  <HLM: ER (Hepatic extraction ratio) - Batch Mean>


>  <MDCK-WT 4% BSA: Papp (A-B) - Batch Mean (10-6, cm/s)>


>  <MDCK-WT 4% BSA: Papp (B-A) - Batch Mean (10-6, cm/s)>


>  <MDCK-WT 4% BSA: Efflux Ratio - Batch Mean>


>  <MDCK-WT 4% BSA: ~Net A_B - Batch Mean (10-6, cm/s)>


>  <pIC50>
4.068542

>  <Selection_1>
Y

>  <Selection_N>
N

>  <Serie>
Tetrahydrothienopyridine

>  <Selection_T>
Y

>  <Train_Vs_Test>


$$$$
CTX-1020842
 OpenBabel08272613263D

 72 77  0  0  0  0  0  0  0  0999 V2000
    1.6990   -0.8301    0.0706 S   0  0  0  0  0  0  0  0  0  0  0  0
    1.9382    0.8726    0.0873 C   0  0  0  0  0  0  0  0  0  0  0  0
    0.0034   -0.6648   -0.0028 C   0  0  0  0  0  0  0  0  0  0  0  0
    3.2758    1.4821    0.0994 C   0  0  0  0  0  0  0  0  0  0  0  0
    0.7128    1.5344    0.0601 C   0  0  0  0  0  0  0  0  0  0  0  0
   -0.4171    0.6454   -0.0100 C   0  0  0  0  0  0  0  0  0  0  0  0
   -0.9238   -1.8408   -0.1007 C   0  0  0  0  0  0  0  0  0  0  0  0
    3.4320    2.7066    0.0596 O   0  0  0  0  0  0  0  0  0  0  0  0
    4.3624    0.6258    0.1334 N   0  0  0  0  0  0  0  0  0  0  0  0
   -1.8832    1.0158   -0.0848 C   0  0  0  0  0  0  0  0  0  0  0  0
   -2.3625   -1.4138    0.2497 C   0  0  0  0  0  0  0  0  0  0  0  0
    5.7311    1.0801    0.0247 C   0  0  0  0  0  0  0  0  0  0  0  0
   -2.7217   -0.1728   -0.4295 N   0  0  0  0  0  0  0  0  0  0  0  0
    6.4219    1.1696    1.3611 C   0  0  0  0  0  0  0  0  0  0  0  0
   -3.9722    0.0760   -1.0187 C   0  0  0  0  0  0  0  0  0  0  0  0
    7.0762    0.0605    1.9023 C   0  0  0  0  0  0  0  0  0  0  0  0
    6.4335    2.3656    2.0939 C   0  0  0  0  0  0  0  0  0  0  0  0
   -4.2467    1.2641   -1.2455 O   0  0  0  0  0  0  0  0  0  0  0  0
   -5.0173   -0.9538   -1.2733 C   0  0  0  0  0  0  0  0  0  0  0  0
    7.6985    0.1479    3.1509 C   0  0  0  0  0  0  0  0  0  0  0  0
    7.0729    2.4468    3.3438 C   0  0  0  0  0  0  0  0  0  0  0  0
   -4.8390   -2.2191   -1.9332 O   0  0  0  0  0  0  0  0  0  0  0  0
   -6.3809   -0.7204   -1.1984 C   0  0  0  0  0  0  0  0  0  0  0  0
    7.6968    1.3316    3.9087 C   0  0  0  0  0  0  0  0  0  0  0  0
   -6.1064   -2.6311   -2.4357 C   0  0  0  0  0  0  0  0  0  0  0  0
   -7.0657    0.3649   -0.7461 O   0  0  0  0  0  0  0  0  0  0  0  0
   -6.9968   -1.6630   -2.0358 C   0  0  0  0  0  0  0  0  0  0  0  0
    8.3211    1.3198    5.1511 N   0  0  0  0  0  0  0  0  0  0  0  0
   -6.6348   -3.7344   -3.1990 C   0  0  0  0  0  0  0  0  0  0  0  0
   -6.7146    0.8422    0.5439 C   0  0  0  0  0  0  0  0  0  0  0  0
   -8.2852   -1.7477   -2.5183 C   0  0  0  0  0  0  0  0  0  0  0  0
    8.8204    2.5584    5.7773 C   0  0  0  0  0  0  0  0  0  0  0  0
    7.6925    0.4213    6.1430 C   0  0  0  0  0  0  0  0  0  0  0  0
   -7.9483   -3.6749   -3.7346 C   0  0  0  0  0  0  0  0  0  0  0  0
   -8.7310   -2.6047   -3.4722 C   0  0  0  0  0  0  0  0  0  0  0  0
    9.8377    2.1843    6.9017 C   0  0  0  0  0  0  0  0  0  0  0  0
    8.7256    0.0750    7.2341 C   0  0  0  0  0  0  0  0  0  0  0  0
    9.2757    1.2805    7.8910 N   0  3  0  0  0  0  0  0  0  0  0  0
   10.2696    0.8959    8.8870 C   0  0  0  0  0  0  0  0  0  0  0  0
    0.6236    2.5622    0.0876 H   0  0  0  0  0  0  0  0  0  0  0  0
   -0.6044   -2.6006    0.5817 H   0  0  0  0  0  0  0  0  0  0  0  0
   -0.9052   -2.2181   -1.1018 H   0  0  0  0  0  0  0  0  0  0  0  0
    4.1957   -0.3390    0.2366 H   0  0  0  0  0  0  0  0  0  0  0  0
   -2.0161    1.7667   -0.8354 H   0  0  0  0  0  0  0  0  0  0  0  0
   -2.1903    1.3822    0.8724 H   0  0  0  0  0  0  0  0  0  0  0  0
   -2.4360   -1.2675    1.3071 H   0  0  0  0  0  0  0  0  0  0  0  0
   -3.0333   -2.1833   -0.0707 H   0  0  0  0  0  0  0  0  0  0  0  0
    5.7351    2.0495   -0.4284 H   0  0  0  0  0  0  0  0  0  0  0  0
    6.2631    0.3647   -0.5670 H   0  0  0  0  0  0  0  0  0  0  0  0
    7.1004   -0.8278    1.3776 H   0  0  0  0  0  0  0  0  0  0  0  0
    5.9646    3.2005    1.7091 H   0  0  0  0  0  0  0  0  0  0  0  0
    8.1755   -0.6853    3.5293 H   0  0  0  0  0  0  0  0  0  0  0  0
    7.0815    3.3449    3.8521 H   0  0  0  0  0  0  0  0  0  0  0  0
   -6.0543   -4.5729   -3.3570 H   0  0  0  0  0  0  0  0  0  0  0  0
   -7.3178    1.6921    0.7860 H   0  0  0  0  0  0  0  0  0  0  0  0
   -5.6823    1.1237    0.5513 H   0  0  0  0  0  0  0  0  0  0  0  0
   -6.8791    0.0705    1.2666 H   0  0  0  0  0  0  0  0  0  0  0  0
   -8.9777   -1.0971   -2.1156 H   0  0  0  0  0  0  0  0  0  0  0  0
    8.0016    3.1019    6.2004 H   0  0  0  0  0  0  0  0  0  0  0  0
    9.3025    3.1671    5.0411 H   0  0  0  0  0  0  0  0  0  0  0  0
    7.3678   -0.4760    5.6589 H   0  0  0  0  0  0  0  0  0  0  0  0
    6.8484    0.9071    6.5862 H   0  0  0  0  0  0  0  0  0  0  0  0
   -8.3039   -4.4455   -4.3217 H   0  0  0  0  0  0  0  0  0  0  0  0
   -9.6208   -2.4472   -3.9707 H   0  0  0  0  0  0  0  0  0  0  0  0
   10.1471    3.0819    7.3952 H   0  0  0  0  0  0  0  0  0  0  0  0
   10.6610    1.6826    6.4377 H   0  0  0  0  0  0  0  0  0  0  0  0
    9.5300   -0.4695    6.7855 H   0  0  0  0  0  0  0  0  0  0  0  0
    8.2284   -0.5066    7.9821 H   0  0  0  0  0  0  0  0  0  0  0  0
    8.5225    1.7747    8.3694 H   0  0  0  0  0  0  0  0  0  0  0  0
   11.0717    0.3746    8.4076 H   0  0  0  0  0  0  0  0  0  0  0  0
    9.8154    0.2583    9.6164 H   0  0  0  0  0  0  0  0  0  0  0  0
   10.6509    1.7726    9.3675 H   0  0  0  0  0  0  0  0  0  0  0  0
  1  2  1  0  0  0  0
  1  3  1  0  0  0  0
  2  4  1  0  0  0  0
  2  5  2  0  0  0  0
  3  6  2  0  0  0  0
  3  7  1  0  0  0  0
  4  8  2  0  0  0  0
  4  9  1  0  0  0  0
  5  6  1  0  0  0  0
  5 40  1  0  0  0  0
  6 10  1  0  0  0  0
  7 11  1  0  0  0  0
  7 41  1  0  0  0  0
  7 42  1  0  0  0  0
  9 12  1  0  0  0  0
  9 43  1  0  0  0  0
 10 13  1  0  0  0  0
 10 44  1  0  0  0  0
 10 45  1  0  0  0  0
 11 13  1  0  0  0  0
 11 46  1  0  0  0  0
 11 47  1  0  0  0  0
 12 14  1  0  0  0  0
 12 48  1  0  0  0  0
 12 49  1  0  0  0  0
 13 15  1  0  0  0  0
 14 16  2  0  0  0  0
 14 17  1  0  0  0  0
 15 18  2  0  0  0  0
 15 19  1  0  0  0  0
 16 20  1  0  0  0  0
 16 50  1  0  0  0  0
 17 21  2  0  0  0  0
 17 51  1  0  0  0  0
 19 22  1  0  0  0  0
 19 23  2  0  0  0  0
 20 24  2  0  0  0  0
 20 52  1  0  0  0  0
 21 24  1  0  0  0  0
 21 53  1  0  0  0  0
 22 25  1  0  0  0  0
 23 26  1  0  0  0  0
 23 27  1  0  0  0  0
 24 28  1  0  0  0  0
 25 29  2  0  0  0  0
 25 27  1  0  0  0  0
 26 30  1  0  0  0  0
 27 31  2  0  0  0  0
 28 32  1  0  0  0  0
 28 33  1  0  0  0  0
 29 34  1  0  0  0  0
 29 54  1  0  0  0  0
 30 55  1  0  0  0  0
 30 56  1  0  0  0  0
 30 57  1  0  0  0  0
 31 35  1  0  0  0  0
 31 58  1  0  0  0  0
 32 36  1  0  0  0  0
 32 59  1  0  0  0  0
 32 60  1  0  0  0  0
 33 37  1  0  0  0  0
 33 61  1  0  0  0  0
 33 62  1  0  0  0  0
 34 35  2  0  0  0  0
 34 63  1  0  0  0  0
 35 64  1  0  0  0  0
 36 38  1  0  0  0  0
 36 65  1  0  0  0  0
 36 66  1  0  0  0  0
 37 38  1  0  0  0  0
 37 67  1  0  0  0  0
 37 68  1  0  0  0  0
 38 39  1  0  0  0  0
 38 69  1  0  0  0  0
 39 70  1  0  0  0  0
 39 71  1  0  0  0  0
 39 72  1  0  0  0  0
M  CHG  1  38   1
M  END
>  <Molecule Name>
CTX-1020842

>  <SMILES>
COC1=C(OC2=CC=CC=C12)C(=O)N1CCC2=C(C1)C=C(S2)C(=O)NCC1=CC=C(C=C1)N1CCN(C)CC1

>  <Batch Name>
CTX-1020842-1

>  <Batch Created Date>
2022-01-06

>  <Batch ID>
CTX-1020842-1

>  <External ID>
CD-44-2-B

>  <Stereochemistry>
Achiral

>  <Amount 1>
1.3

>  <Unit 1>
mg

>  <CRO 1>
Pharmaron

>  <CRO 1 Total Amount>
9.7

>  <CRO 1 Unit>
mg

>  <Pharmaron Solubility (PBS, pH 7.4): Aqueous Solubility - Batch Mean (uM)>
16.61

>  <Pharmaron Solubility (PBS, pH 7.4): Aqueous Solubility - Batch Mean (uM) Standard Deviation (±)>


>  <Pharmaron Solubility (PBS, pH 7.4): Aqueous Solubility - Batch Mean (uM) Count>
1.0

>  <log P>
3.76

>  <log D>
3.12

>  <Pharmaron Caliper Assay (CDK2/CCNE1): Minimum measured (%)>
38.4

>  <Pharmaron Caliper Assay (CDK2/CCNE1): IC50 - Batch Mean (uM)>
6.02

>  <Pharmaron ADPGLO (CDK2/E1-25C): Minimum measured (%)>
33.3

>  <Pharmaron ADPGLO (CDK2/E1-25C): IC50 - Batch Mean (uM)>
30.9

>  <Pharmaron ADPGLO (CDK2/E1-37C): Minimum measured (%)>
96.7

>  <Pharmaron ADPGLO (CDK2/E1-37C): IC50 - Batch Mean (uM)>
100

>  <IncuCyte Kuramochi RB-WT: IC50 - Batch Mean (uM)>
7.44

>  <IncuCyte Kuramochi RB-KO: IC50 - Batch Mean (uM)>
5.37

>  <DSF (npCDK2/CCNE1): dTm D - Batch Mean [Concentration: 100]>


>  <DSF (npCDK2/CCNE1): dTm D - Batch Mean [Concentration: 20.0]>
2.238

>  <DSF (pCDK2/CCNE1): dTm D - Batch Mean [Concentration: 100]>


>  <DSF (pCDK2/CCNE1): dTm D - Batch Mean [Concentration: 20.0]>
1.186

>  <RLM: t1/2 - Batch Mean (Min)>


>  <RLM: Cl int - Batch Mean (uL/min/mg protein)>


>  <RLM: ER (Hepatic extraction ratio) - Batch Mean>


>  <HLM: t1/2 - Batch Mean (Min)>


>  <HLM: Cl int - Batch Mean (uL/min/mg protein)>


>  <HLM: ER (Hepatic extraction ratio) - Batch Mean>


>  <MDCK-WT 4% BSA: Papp (A-B) - Batch Mean (10-6, cm/s)>


>  <MDCK-WT 4% BSA: Papp (B-A) - Batch Mean (10-6, cm/s)>


>  <MDCK-WT 4% BSA: Efflux Ratio - Batch Mean>


>  <MDCK-WT 4% BSA: ~Net A_B - Batch Mean (10-6, cm/s)>


>  <pIC50>
5.220404

>  <Selection_1>
Y

>  <Selection_N>
N

>  <Serie>
Tetrahydrothienopyridine

>  <Selection_T>


>  <Train_Vs_Test>


$$$$
CTX-1020838
 OpenBabel08272613263D

 70 75  0  0  0  0  0  0  0  0999 V2000
    1.3401    0.0150   -0.6163 Cl  0  0  0  0  0  0  0  0  0  0  0  0
    0.3830   -1.4050   -0.5287 C   0  0  0  0  0  0  0  0  0  0  0  0
    0.7706   -2.7382   -0.3430 C   0  0  0  0  0  0  0  0  0  0  0  0
   -1.0179   -1.3483   -0.6909 C   0  0  0  0  0  0  0  0  0  0  0  0
   -0.3722   -3.5157   -0.3478 O   0  0  0  0  0  0  0  0  0  0  0  0
    2.1631   -3.2010   -0.2440 C   0  0  0  0  0  0  0  0  0  0  0  0
   -1.4507   -2.6679   -0.5527 C   0  0  0  0  0  0  0  0  0  0  0  0
   -1.9588   -0.3230   -0.9442 C   0  0  0  0  0  0  0  0  0  0  0  0
    3.0260   -2.3117   -0.3325 O   0  0  0  0  0  0  0  0  0  0  0  0
    2.6973   -4.5274   -0.1041 N   0  0  0  0  0  0  0  0  0  0  0  0
   -2.8106   -2.9914   -0.6405 C   0  0  0  0  0  0  0  0  0  0  0  0
   -3.3144   -0.6332   -1.0461 C   0  0  0  0  0  0  0  0  0  0  0  0
    2.0170   -5.8388    0.1659 C   0  0  0  0  0  0  0  0  0  0  0  0
    4.1472   -4.5182   -0.3319 C   0  0  0  0  0  0  0  0  0  0  0  0
   -3.2534   -4.2431   -0.4864 F   0  0  0  0  0  0  0  0  0  0  0  0
   -3.7362   -1.9519   -0.8872 C   0  0  0  0  0  0  0  0  0  0  0  0
    2.8838   -7.1448    0.0524 C   0  0  0  0  0  0  0  0  0  0  0  0
    4.9819   -5.7237   -0.0008 C   0  0  0  0  0  0  0  0  0  0  0  0
    2.2978   -8.4035    0.1435 N   0  0  0  0  0  0  0  0  0  0  0  0
    4.2741   -7.0258   -0.0731 C   0  0  0  0  0  0  0  0  0  0  0  0
    3.1400   -9.5085    0.0779 C   0  0  0  0  0  0  0  0  0  0  0  0
    5.0827   -8.1655   -0.1574 C   0  0  0  0  0  0  0  0  0  0  0  0
    2.6510  -10.9329    0.2297 C   0  0  0  0  0  0  0  0  0  0  0  0
    4.5143   -9.4143   -0.0873 C   0  0  0  0  0  0  0  0  0  0  0  0
    3.4694  -11.8652    0.2466 O   0  0  0  0  0  0  0  0  0  0  0  0
    1.3027  -11.1820    0.3421 N   0  0  0  0  0  0  0  0  0  0  0  0
    0.7910  -12.5425    0.4498 C   0  0  0  0  0  0  0  0  0  0  0  0
   -0.1225  -12.8734   -0.7000 C   0  0  0  0  0  0  0  0  0  0  0  0
    0.3629  -13.4974   -1.8527 C   0  0  0  0  0  0  0  0  0  0  0  0
   -1.4706  -12.5160   -0.6575 C   0  0  0  0  0  0  0  0  0  0  0  0
   -0.4836  -13.7297   -2.9454 C   0  0  0  0  0  0  0  0  0  0  0  0
   -2.3015  -12.7379   -1.7631 C   0  0  0  0  0  0  0  0  0  0  0  0
   -1.8325  -13.3449   -2.9367 C   0  0  0  0  0  0  0  0  0  0  0  0
   -2.6566  -13.6275   -4.0091 N   0  0  0  0  0  0  0  0  0  0  0  0
   -4.1170  -13.7034   -3.8660 C   0  0  0  0  0  0  0  0  0  0  0  0
   -2.2165  -13.3935   -5.3970 C   0  0  0  0  0  0  0  0  0  0  0  0
   -4.6629  -14.8024   -4.8072 C   0  0  0  0  0  0  0  0  0  0  0  0
   -2.8050  -14.4906   -6.3187 C   0  0  0  0  0  0  0  0  0  0  0  0
   -4.2815  -14.5923   -6.2230 N   0  3  0  0  0  0  0  0  0  0  0  0
   -4.7766  -15.6914   -7.0485 C   0  0  0  0  0  0  0  0  0  0  0  0
   -1.6425    0.6533   -1.0533 H   0  0  0  0  0  0  0  0  0  0  0  0
   -4.0029    0.1110   -1.2386 H   0  0  0  0  0  0  0  0  0  0  0  0
    1.2089   -5.9293   -0.5295 H   0  0  0  0  0  0  0  0  0  0  0  0
    1.7324   -5.7902    1.1962 H   0  0  0  0  0  0  0  0  0  0  0  0
    4.5420   -3.7058    0.2417 H   0  0  0  0  0  0  0  0  0  0  0  0
    4.2217   -4.4609   -1.3978 H   0  0  0  0  0  0  0  0  0  0  0  0
   -4.7421   -2.1734   -0.9507 H   0  0  0  0  0  0  0  0  0  0  0  0
    5.3536   -5.6046    0.9955 H   0  0  0  0  0  0  0  0  0  0  0  0
    5.7507   -5.7638   -0.7440 H   0  0  0  0  0  0  0  0  0  0  0  0
    6.1037   -8.0678   -0.2720 H   0  0  0  0  0  0  0  0  0  0  0  0
    5.0967  -10.2635   -0.1559 H   0  0  0  0  0  0  0  0  0  0  0  0
    0.6713  -10.4267    0.3500 H   0  0  0  0  0  0  0  0  0  0  0  0
    0.2475  -12.6394    1.3663 H   0  0  0  0  0  0  0  0  0  0  0  0
    1.6200  -13.2187    0.4292 H   0  0  0  0  0  0  0  0  0  0  0  0
    1.3517  -13.7892   -1.8996 H   0  0  0  0  0  0  0  0  0  0  0  0
   -1.8588  -12.0845    0.1958 H   0  0  0  0  0  0  0  0  0  0  0  0
   -0.1027  -14.1984   -3.7822 H   0  0  0  0  0  0  0  0  0  0  0  0
   -3.2899  -12.4454   -1.7122 H   0  0  0  0  0  0  0  0  0  0  0  0
   -4.5516  -12.7609   -4.1262 H   0  0  0  0  0  0  0  0  0  0  0  0
   -4.3675  -13.9401   -2.8531 H   0  0  0  0  0  0  0  0  0  0  0  0
   -1.1479  -13.4254   -5.4422 H   0  0  0  0  0  0  0  0  0  0  0  0
   -2.5593  -12.4335   -5.7222 H   0  0  0  0  0  0  0  0  0  0  0  0
   -5.7307  -14.8103   -4.7391 H   0  0  0  0  0  0  0  0  0  0  0  0
   -4.2364  -15.7327   -4.4950 H   0  0  0  0  0  0  0  0  0  0  0  0
   -2.3791  -15.4328   -6.0432 H   0  0  0  0  0  0  0  0  0  0  0  0
   -2.5656  -14.2257   -7.3273 H   0  0  0  0  0  0  0  0  0  0  0  0
   -4.6999  -13.7272   -6.5649 H   0  0  0  0  0  0  0  0  0  0  0  0
   -4.3510  -16.6124   -6.7087 H   0  0  0  0  0  0  0  0  0  0  0  0
   -4.4987  -15.5248   -8.0682 H   0  0  0  0  0  0  0  0  0  0  0  0
   -5.8428  -15.7419   -6.9731 H   0  0  0  0  0  0  0  0  0  0  0  0
  1  2  1  0  0  0  0
  2  3  2  0  0  0  0
  2  4  1  0  0  0  0
  3  5  1  0  0  0  0
  3  6  1  0  0  0  0
  4  7  2  0  0  0  0
  4  8  1  0  0  0  0
  5  7  1  0  0  0  0
  6  9  2  0  0  0  0
  6 10  1  0  0  0  0
  7 11  1  0  0  0  0
  8 12  2  0  0  0  0
  8 41  1  0  0  0  0
 10 13  1  0  0  0  0
 10 14  1  0  0  0  0
 11 15  1  0  0  0  0
 11 16  2  0  0  0  0
 12 16  1  0  0  0  0
 12 42  1  0  0  0  0
 13 17  1  0  0  0  0
 13 43  1  0  0  0  0
 13 44  1  0  0  0  0
 14 18  1  0  0  0  0
 14 45  1  0  0  0  0
 14 46  1  0  0  0  0
 16 47  1  0  0  0  0
 17 19  2  0  0  0  0
 17 20  1  0  0  0  0
 18 20  1  0  0  0  0
 18 48  1  0  0  0  0
 18 49  1  0  0  0  0
 19 21  1  0  0  0  0
 20 22  2  0  0  0  0
 21 23  1  0  0  0  0
 21 24  2  0  0  0  0
 22 24  1  0  0  0  0
 22 50  1  0  0  0  0
 23 25  2  0  0  0  0
 23 26  1  0  0  0  0
 24 51  1  0  0  0  0
 26 27  1  0  0  0  0
 26 52  1  0  0  0  0
 27 28  1  0  0  0  0
 27 53  1  0  0  0  0
 27 54  1  0  0  0  0
 28 29  2  0  0  0  0
 28 30  1  0  0  0  0
 29 31  1  0  0  0  0
 29 55  1  0  0  0  0
 30 32  2  0  0  0  0
 30 56  1  0  0  0  0
 31 33  2  0  0  0  0
 31 57  1  0  0  0  0
 32 33  1  0  0  0  0
 32 58  1  0  0  0  0
 33 34  1  0  0  0  0
 34 35  1  0  0  0  0
 34 36  1  0  0  0  0
 35 37  1  0  0  0  0
 35 59  1  0  0  0  0
 35 60  1  0  0  0  0
 36 38  1  0  0  0  0
 36 61  1  0  0  0  0
 36 62  1  0  0  0  0
 37 39  1  0  0  0  0
 37 63  1  0  0  0  0
 37 64  1  0  0  0  0
 38 39  1  0  0  0  0
 38 65  1  0  0  0  0
 38 66  1  0  0  0  0
 39 40  1  0  0  0  0
 39 67  1  0  0  0  0
 40 68  1  0  0  0  0
 40 69  1  0  0  0  0
 40 70  1  0  0  0  0
M  CHG  1  39   1
M  END
>  <Molecule Name>
CTX-1020838

>  <SMILES>
CN1CCN(CC1)C1=CC=C(CNC(=O)C2=CC=C3CCN(CC3=N2)C(=O)C2=C(Cl)C3=C(O2)C(F)=CC=C3)C=C1

>  <Batch Name>
CTX-1020838-1

>  <Batch Created Date>
2022-01-06

>  <Batch ID>
CTX-1020838-1

>  <External ID>
CD-42-P

>  <Stereochemistry>
Achiral

>  <Amount 1>
6.2

>  <Unit 1>
mg

>  <CRO 1>
Pharmaron

>  <CRO 1 Total Amount>
20.9

>  <CRO 1 Unit>
mg

>  <Pharmaron Solubility (PBS, pH 7.4): Aqueous Solubility - Batch Mean (uM)>
134.72

>  <Pharmaron Solubility (PBS, pH 7.4): Aqueous Solubility - Batch Mean (uM) Standard Deviation (±)>


>  <Pharmaron Solubility (PBS, pH 7.4): Aqueous Solubility - Batch Mean (uM) Count>
1.0

>  <log P>
3.87

>  <log D>
3.23

>  <Pharmaron Caliper Assay (CDK2/CCNE1): Minimum measured (%)>
23.5

>  <Pharmaron Caliper Assay (CDK2/CCNE1): IC50 - Batch Mean (uM)>
6.19

>  <Pharmaron ADPGLO (CDK2/E1-25C): Minimum measured (%)>
32.3

>  <Pharmaron ADPGLO (CDK2/E1-25C): IC50 - Batch Mean (uM)>
7.79

>  <Pharmaron ADPGLO (CDK2/E1-37C): Minimum measured (%)>
88.1

>  <Pharmaron ADPGLO (CDK2/E1-37C): IC50 - Batch Mean (uM)>
100

>  <IncuCyte Kuramochi RB-WT: IC50 - Batch Mean (uM)>
6.97

>  <IncuCyte Kuramochi RB-KO: IC50 - Batch Mean (uM)>
6.95

>  <DSF (npCDK2/CCNE1): dTm D - Batch Mean [Concentration: 100]>


>  <DSF (npCDK2/CCNE1): dTm D - Batch Mean [Concentration: 20.0]>
1.57

>  <DSF (pCDK2/CCNE1): dTm D - Batch Mean [Concentration: 100]>


>  <DSF (pCDK2/CCNE1): dTm D - Batch Mean [Concentration: 20.0]>
0.46799999999999997

>  <RLM: t1/2 - Batch Mean (Min)>


>  <RLM: Cl int - Batch Mean (uL/min/mg protein)>


>  <RLM: ER (Hepatic extraction ratio) - Batch Mean>


>  <HLM: t1/2 - Batch Mean (Min)>


>  <HLM: Cl int - Batch Mean (uL/min/mg protein)>


>  <HLM: ER (Hepatic extraction ratio) - Batch Mean>


>  <MDCK-WT 4% BSA: Papp (A-B) - Batch Mean (10-6, cm/s)>


>  <MDCK-WT 4% BSA: Papp (B-A) - Batch Mean (10-6, cm/s)>


>  <MDCK-WT 4% BSA: Efflux Ratio - Batch Mean>


>  <MDCK-WT 4% BSA: ~Net A_B - Batch Mean (10-6, cm/s)>


>  <pIC50>
5.208309

>  <Selection_1>
Y

>  <Selection_N>


>  <Serie>
Naphthyridine

>  <Selection_T>
N

>  <Train_Vs_Test>


$$$$
CTX-1020818
 OpenBabel08272613263D

 54 59  0  0  0  0  0  0  0  0999 V2000
    1.9511   -0.8001   -0.0542 S   0  0  0  0  0  0  0  0  0  0  0  0
    2.3391    0.8748   -0.0208 C   0  0  0  0  0  0  0  0  0  0  0  0
    0.2697   -0.5004   -0.0645 C   0  0  0  0  0  0  0  0  0  0  0  0
    3.7228    1.3894    0.0145 C   0  0  0  0  0  0  0  0  0  0  0  0
    1.1654    1.6282   -0.0199 C   0  0  0  0  0  0  0  0  0  0  0  0
   -0.0446    0.8451   -0.0716 C   0  0  0  0  0  0  0  0  0  0  0  0
   -0.7613   -1.5912   -0.0956 C   0  0  0  0  0  0  0  0  0  0  0  0
    3.9605    2.6036    0.0368 O   0  0  0  0  0  0  0  0  0  0  0  0
    4.7759    0.4778    0.0246 N   0  0  0  0  0  0  0  0  0  0  0  0
   -1.4815    1.3493   -0.0900 C   0  0  0  0  0  0  0  0  0  0  0  0
   -2.1226   -1.0158    0.3247 C   0  0  0  0  0  0  0  0  0  0  0  0
    6.2058    0.8699    0.0359 C   0  0  0  0  0  0  0  0  0  0  0  0
   -2.4124    0.2411   -0.3858 N   0  0  0  0  0  0  0  0  0  0  0  0
    6.6909    1.0050   -1.3850 C   0  0  3  0  0  0  0  0  0  0  0  0
   -3.3950    0.3867   -1.3724 C   0  0  0  0  0  0  0  0  0  0  0  0
    6.1069    2.0598   -2.4476 C   0  0  0  0  0  0  0  0  0  0  0  0
    6.0894   -0.0695   -2.3614 C   0  0  0  0  0  0  0  0  0  0  0  0
    8.0512    0.7064   -2.3401 C   0  0  0  0  0  0  0  0  0  0  0  0
   -3.4703    1.4472   -2.0346 O   0  0  0  0  0  0  0  0  0  0  0  0
   -4.3088   -0.7223   -1.6327 C   0  0  0  0  0  0  0  0  0  0  0  0
    6.8070    0.9268   -3.3207 C   0  0  3  0  0  0  0  0  0  0  0  0
   -4.6990   -1.5168   -0.5809 O   0  0  0  0  0  0  0  0  0  0  0  0
   -4.9437   -1.1774   -2.7844 C   0  0  0  0  0  0  0  0  0  0  0  0
   -5.5236   -2.4831   -1.0420 C   0  0  0  0  0  0  0  0  0  0  0  0
   -5.7517   -2.2927   -2.3922 C   0  0  0  0  0  0  0  0  0  0  0  0
   -4.8105   -0.6558   -4.1673 C   0  0  0  0  0  0  0  0  0  0  0  0
   -6.0924   -3.4985   -0.2783 C   0  0  0  0  0  0  0  0  0  0  0  0
   -6.6480   -3.1649   -3.0399 C   0  0  0  0  0  0  0  0  0  0  0  0
   -6.9812   -4.3501   -0.9417 C   0  0  0  0  0  0  0  0  0  0  0  0
   -7.2641   -4.1848   -2.3003 C   0  0  0  0  0  0  0  0  0  0  0  0
    1.1630    2.6596    0.0148 H   0  0  0  0  0  0  0  0  0  0  0  0
   -0.4781   -2.3700    0.5812 H   0  0  0  0  0  0  0  0  0  0  0  0
   -0.8312   -1.9900   -1.0861 H   0  0  0  0  0  0  0  0  0  0  0  0
    4.5583   -0.4824    0.0242 H   0  0  0  0  0  0  0  0  0  0  0  0
   -1.5808    2.1035   -0.8425 H   0  0  0  0  0  0  0  0  0  0  0  0
   -1.7192    1.7552    0.8710 H   0  0  0  0  0  0  0  0  0  0  0  0
   -2.1113   -0.8267    1.3778 H   0  0  0  0  0  0  0  0  0  0  0  0
   -2.8821   -1.7276    0.0771 H   0  0  0  0  0  0  0  0  0  0  0  0
    6.7790    0.1204    0.5406 H   0  0  0  0  0  0  0  0  0  0  0  0
    6.3198    1.8034    0.5463 H   0  0  0  0  0  0  0  0  0  0  0  0
    6.5470    3.0350   -2.4643 H   0  0  0  0  0  0  0  0  0  0  0  0
    5.1081    2.4352   -2.5276 H   0  0  0  0  0  0  0  0  0  0  0  0
    5.0227   -0.1219   -2.4266 H   0  0  0  0  0  0  0  0  0  0  0  0
    6.2174   -1.1308   -2.3153 H   0  0  0  0  0  0  0  0  0  0  0  0
    8.4859   -0.2704   -2.2976 H   0  0  0  0  0  0  0  0  0  0  0  0
    9.0050    1.1911   -2.3338 H   0  0  0  0  0  0  0  0  0  0  0  0
    6.8804    0.9663   -4.3875 H   0  0  0  0  0  0  0  0  0  0  0  0
   -4.1444    0.1816   -4.1700 H   0  0  0  0  0  0  0  0  0  0  0  0
   -5.7705   -0.3490   -4.5268 H   0  0  0  0  0  0  0  0  0  0  0  0
   -4.4206   -1.4238   -4.8022 H   0  0  0  0  0  0  0  0  0  0  0  0
   -5.8703   -3.6163    0.7226 H   0  0  0  0  0  0  0  0  0  0  0  0
   -6.8488   -3.0549   -4.0462 H   0  0  0  0  0  0  0  0  0  0  0  0
   -7.4364   -5.1145   -0.4186 H   0  0  0  0  0  0  0  0  0  0  0  0
   -7.9329   -4.8195   -2.7638 H   0  0  0  0  0  0  0  0  0  0  0  0
  1  2  1  0  0  0  0
  1  3  1  0  0  0  0
  2  4  1  0  0  0  0
  2  5  2  0  0  0  0
  3  6  2  0  0  0  0
  3  7  1  0  0  0  0
  4  8  2  0  0  0  0
  4  9  1  0  0  0  0
  5  6  1  0  0  0  0
  5 31  1  0  0  0  0
  6 10  1  0  0  0  0
  7 11  1  0  0  0  0
  7 32  1  0  0  0  0
  7 33  1  0  0  0  0
  9 12  1  0  0  0  0
  9 34  1  0  0  0  0
 10 13  1  0  0  0  0
 10 35  1  0  0  0  0
 10 36  1  0  0  0  0
 11 13  1  0  0  0  0
 11 37  1  0  0  0  0
 11 38  1  0  0  0  0
 12 14  1  0  0  0  0
 12 39  1  0  0  0  0
 12 40  1  0  0  0  0
 13 15  1  0  0  0  0
 14 16  1  0  0  0  0
 14 17  1  0  0  0  0
 14 18  1  0  0  0  0
 15 19  2  0  0  0  0
 15 20  1  0  0  0  0
 16 21  1  0  0  0  0
 16 41  1  0  0  0  0
 16 42  1  0  0  0  0
 17 21  1  0  0  0  0
 17 43  1  0  0  0  0
 17 44  1  0  0  0  0
 18 21  1  0  0  0  0
 18 45  1  0  0  0  0
 18 46  1  0  0  0  0
 20 22  1  0  0  0  0
 20 23  2  0  0  0  0
 21 47  1  0  0  0  0
 22 24  1  0  0  0  0
 23 25  1  0  0  0  0
 23 26  1  0  0  0  0
 24 27  2  0  0  0  0
 24 25  1  0  0  0  0
 25 28  2  0  0  0  0
 26 48  1  0  0  0  0
 26 49  1  0  0  0  0
 26 50  1  0  0  0  0
 27 29  1  0  0  0  0
 27 51  1  0  0  0  0
 28 30  1  0  0  0  0
 28 52  1  0  0  0  0
 29 30  2  0  0  0  0
 29 53  1  0  0  0  0
 30 54  1  0  0  0  0
M  END
>  <Molecule Name>
CTX-1020818

>  <SMILES>
CC1=C(OC2=C1C=CC=C2)C(=O)N1CCC2=C(C1)C=C(S2)C(=O)NCC12CC(C1)C2

>  <Batch Name>
CTX-1020818-1

>  <Batch Created Date>
2021-12-30

>  <Batch ID>
CTX-1020818-1

>  <External ID>
CD-44-L

>  <Stereochemistry>
Achiral

>  <Amount 1>
4.1

>  <Unit 1>
mg

>  <CRO 1>
Pharmaron

>  <CRO 1 Total Amount>
30.3

>  <CRO 1 Unit>
mg

>  <Pharmaron Solubility (PBS, pH 7.4): Aqueous Solubility - Batch Mean (uM)>
0.0335

>  <Pharmaron Solubility (PBS, pH 7.4): Aqueous Solubility - Batch Mean (uM) Standard Deviation (±)>


>  <Pharmaron Solubility (PBS, pH 7.4): Aqueous Solubility - Batch Mean (uM) Count>
1.0

>  <log P>
3.73

>  <log D>
3.73

>  <Pharmaron Caliper Assay (CDK2/CCNE1): Minimum measured (%)>
85.3

>  <Pharmaron Caliper Assay (CDK2/CCNE1): IC50 - Batch Mean (uM)>
30.9

>  <Pharmaron ADPGLO (CDK2/E1-25C): Minimum measured (%)>
94.5

>  <Pharmaron ADPGLO (CDK2/E1-25C): IC50 - Batch Mean (uM)>
100

>  <Pharmaron ADPGLO (CDK2/E1-37C): Minimum measured (%)>
97.0

>  <Pharmaron ADPGLO (CDK2/E1-37C): IC50 - Batch Mean (uM)>
100

>  <IncuCyte Kuramochi RB-WT: IC50 - Batch Mean (uM)>
20.0

>  <IncuCyte Kuramochi RB-KO: IC50 - Batch Mean (uM)>
15.5

>  <DSF (npCDK2/CCNE1): dTm D - Batch Mean [Concentration: 100]>


>  <DSF (npCDK2/CCNE1): dTm D - Batch Mean [Concentration: 20.0]>
0.33399999999999996

>  <DSF (pCDK2/CCNE1): dTm D - Batch Mean [Concentration: 100]>


>  <DSF (pCDK2/CCNE1): dTm D - Batch Mean [Concentration: 20.0]>
-0.11699999999999999

>  <RLM: t1/2 - Batch Mean (Min)>


>  <RLM: Cl int - Batch Mean (uL/min/mg protein)>


>  <RLM: ER (Hepatic extraction ratio) - Batch Mean>


>  <HLM: t1/2 - Batch Mean (Min)>


>  <HLM: Cl int - Batch Mean (uL/min/mg protein)>


>  <HLM: ER (Hepatic extraction ratio) - Batch Mean>


>  <MDCK-WT 4% BSA: Papp (A-B) - Batch Mean (10-6, cm/s)>


>  <MDCK-WT 4% BSA: Papp (B-A) - Batch Mean (10-6, cm/s)>


>  <MDCK-WT 4% BSA: Efflux Ratio - Batch Mean>


>  <MDCK-WT 4% BSA: ~Net A_B - Batch Mean (10-6, cm/s)>


>  <pIC50>
4.510042

>  <Selection_1>
Y

>  <Selection_N>
N

>  <Serie>
Tetrahydrothienopyridine

>  <Selection_T>


>  <Train_Vs_Test>


$$$$
CTX-1020817
 OpenBabel08272613263D

 67 72  0  0  0  0  0  0  0  0999 V2000
    4.0782    1.6754    3.6533 Cl  0  0  0  0  0  0  0  0  0  0  0  0
    2.5088    0.8758    3.6329 C   0  0  0  0  0  0  0  0  0  0  0  0
    1.3349    1.2121    2.9276 C   0  0  0  0  0  0  0  0  0  0  0  0
    2.3473   -0.2986    4.4336 C   0  0  0  0  0  0  0  0  0  0  0  0
    0.0934    0.1084    3.3227 S   0  0  0  0  0  0  0  0  0  0  0  0
    1.2116    2.3503    1.9715 C   0  0  0  0  0  0  0  0  0  0  0  0
    1.0724   -0.8720    4.3894 C   0  0  0  0  0  0  0  0  0  0  0  0
    3.2788   -0.9333    5.2517 C   0  0  0  0  0  0  0  0  0  0  0  0
    2.3110    2.9432    1.8863 O   0  0  0  0  0  0  0  0  0  0  0  0
   -0.0786    3.1542    1.5777 N   0  0  0  0  0  0  0  0  0  0  0  0
    0.8153   -2.0784    5.1250 C   0  0  0  0  0  0  0  0  0  0  0  0
    3.0045   -2.0643    5.9612 C   0  0  0  0  0  0  0  0  0  0  0  0
   -1.4984    3.6820    0.4402 C   0  0  0  0  0  0  0  0  0  0  0  0
    0.6364    4.3612    1.9066 C   0  0  0  0  0  0  0  0  0  0  0  0
    1.8060   -2.6423    5.9003 N   0  0  0  0  0  0  0  0  0  0  0  0
   -1.7843    5.4931   -0.0449 C   0  0  0  0  0  0  0  0  0  0  0  0
   -0.3889    5.2686    1.7298 C   0  0  0  0  0  0  0  0  0  0  0  0
   -0.8125    6.0745    0.7256 C   0  0  0  0  0  0  0  0  0  0  0  0
   -1.9342    7.0226   -0.4407 C   0  0  0  0  0  0  0  0  0  0  0  0
    0.2035    7.3317    0.7957 S   0  0  0  0  0  0  0  0  0  0  0  0
   -0.9580    8.0457   -0.1177 C   0  0  0  0  0  0  0  0  0  0  0  0
   -0.6123    9.4682   -0.0601 C   0  0  0  0  0  0  0  0  0  0  0  0
    0.5406    9.9135    0.0352 O   0  0  0  0  0  0  0  0  0  0  0  0
   -1.6041   10.3505    0.1637 N   0  0  0  0  0  0  0  0  0  0  0  0
   -2.9292    9.8685    0.2215 C   0  0  0  0  0  0  0  0  0  0  0  0
   -3.8868   10.9637    0.3397 C   0  0  0  0  0  0  0  0  0  0  0  0
   -4.3333   11.6143   -0.7997 C   0  0  0  0  0  0  0  0  0  0  0  0
   -4.2476   11.3612    1.6187 C   0  0  0  0  0  0  0  0  0  0  0  0
   -5.0797   12.7591   -0.6426 C   0  0  0  0  0  0  0  0  0  0  0  0
   -5.0588   12.4599    1.7515 C   0  0  0  0  0  0  0  0  0  0  0  0
   -5.4198   13.2247    0.6352 C   0  0  0  0  0  0  0  0  0  0  0  0
   -6.0364   14.4352    0.7966 N   0  0  0  0  0  0  0  0  0  0  0  0
   -6.9980   14.9430   -0.1621 C   0  0  0  0  0  0  0  0  0  0  0  0
   -5.8562   15.2468    1.9966 C   0  0  0  0  0  0  0  0  0  0  0  0
   -6.7631   16.4061   -0.4599 C   0  0  0  0  0  0  0  0  0  0  0  0
   -5.6967   16.7232    1.5874 C   0  0  0  0  0  0  0  0  0  0  0  0
   -6.7956   17.1867    0.7653 N   0  3  0  0  0  0  0  0  0  0  0  0
   -6.6822   18.6149    0.4904 C   0  0  0  0  0  0  0  0  0  0  0  0
    4.2246   -0.5268    5.3243 H   0  0  0  0  0  0  0  0  0  0  0  0
   -0.1138   -2.5246    5.0730 H   0  0  0  0  0  0  0  0  0  0  0  0
    3.7382   -2.4801    6.5561 H   0  0  0  0  0  0  0  0  0  0  0  0
   -2.3994    3.3543    0.9155 H   0  0  0  0  0  0  0  0  0  0  0  0
   -1.2109    3.2442   -0.4928 H   0  0  0  0  0  0  0  0  0  0  0  0
    1.4519    4.5405    1.2375 H   0  0  0  0  0  0  0  0  0  0  0  0
    1.1038    4.3737    2.8691 H   0  0  0  0  0  0  0  0  0  0  0  0
   -0.2271    5.9604    2.5299 H   0  0  0  0  0  0  0  0  0  0  0  0
   -1.1339    4.5204    1.5567 H   0  0  0  0  0  0  0  0  0  0  0  0
   -2.7792    7.3071   -0.9604 H   0  0  0  0  0  0  0  0  0  0  0  0
   -1.4098   11.3081    0.2840 H   0  0  0  0  0  0  0  0  0  0  0  0
   -3.0293    9.2247    1.0702 H   0  0  0  0  0  0  0  0  0  0  0  0
   -3.1349    9.3360   -0.6836 H   0  0  0  0  0  0  0  0  0  0  0  0
   -4.1120   11.2501   -1.7396 H   0  0  0  0  0  0  0  0  0  0  0  0
   -3.9151   10.8445    2.4479 H   0  0  0  0  0  0  0  0  0  0  0  0
   -5.3931   13.2816   -1.4756 H   0  0  0  0  0  0  0  0  0  0  0  0
   -5.4072   12.7261    2.6857 H   0  0  0  0  0  0  0  0  0  0  0  0
   -7.9835   14.8233    0.2371 H   0  0  0  0  0  0  0  0  0  0  0  0
   -6.8867   14.3928   -1.0730 H   0  0  0  0  0  0  0  0  0  0  0  0
   -4.9807   14.9234    2.5197 H   0  0  0  0  0  0  0  0  0  0  0  0
   -6.7080   15.1398    2.6353 H   0  0  0  0  0  0  0  0  0  0  0  0
   -7.5268   16.7577   -1.1217 H   0  0  0  0  0  0  0  0  0  0  0  0
   -5.8009   16.5163   -0.9149 H   0  0  0  0  0  0  0  0  0  0  0  0
   -4.7855   16.8314    1.0370 H   0  0  0  0  0  0  0  0  0  0  0  0
   -5.6850   17.3116    2.4811 H   0  0  0  0  0  0  0  0  0  0  0  0
   -7.6860   17.0604    1.2465 H   0  0  0  0  0  0  0  0  0  0  0  0
   -5.7603   18.8083   -0.0173 H   0  0  0  0  0  0  0  0  0  0  0  0
   -6.7027   19.1582    1.4119 H   0  0  0  0  0  0  0  0  0  0  0  0
   -7.5004   18.9256   -0.1252 H   0  0  0  0  0  0  0  0  0  0  0  0
  1  2  1  0  0  0  0
  2  3  2  0  0  0  0
  2  4  1  0  0  0  0
  3  5  1  0  0  0  0
  3  6  1  0  0  0  0
  4  7  2  0  0  0  0
  4  8  1  0  0  0  0
  5  7  1  0  0  0  0
  6  9  2  0  0  0  0
  6 10  1  0  0  0  0
  7 11  1  0  0  0  0
  8 12  2  0  0  0  0
  8 39  1  0  0  0  0
 10 13  1  0  0  0  0
 10 14  1  0  0  0  0
 11 15  2  0  0  0  0
 11 40  1  0  0  0  0
 12 15  1  0  0  0  0
 12 41  1  0  0  0  0
 13 16  1  0  0  0  0
 13 42  1  0  0  0  0
 13 43  1  0  0  0  0
 14 17  1  0  0  0  0
 14 44  1  0  0  0  0
 14 45  1  0  0  0  0
 16 18  2  0  0  0  0
 16 19  1  0  0  0  0
 17 18  1  0  0  0  0
 17 46  1  0  0  0  0
 17 47  1  0  0  0  0
 18 20  1  0  0  0  0
 19 21  2  0  0  0  0
 19 48  1  0  0  0  0
 20 21  1  0  0  0  0
 21 22  1  0  0  0  0
 22 23  2  0  0  0  0
 22 24  1  0  0  0  0
 24 25  1  0  0  0  0
 24 49  1  0  0  0  0
 25 26  1  0  0  0  0
 25 50  1  0  0  0  0
 25 51  1  0  0  0  0
 26 27  2  0  0  0  0
 26 28  1  0  0  0  0
 27 29  1  0  0  0  0
 27 52  1  0  0  0  0
 28 30  2  0  0  0  0
 28 53  1  0  0  0  0
 29 31  2  0  0  0  0
 29 54  1  0  0  0  0
 30 31  1  0  0  0  0
 30 55  1  0  0  0  0
 31 32  1  0  0  0  0
 32 33  1  0  0  0  0
 32 34  1  0  0  0  0
 33 35  1  0  0  0  0
 33 56  1  0  0  0  0
 33 57  1  0  0  0  0
 34 36  1  0  0  0  0
 34 58  1  0  0  0  0
 34 59  1  0  0  0  0
 35 37  1  0  0  0  0
 35 60  1  0  0  0  0
 35 61  1  0  0  0  0
 36 37  1  0  0  0  0
 36 62  1  0  0  0  0
 36 63  1  0  0  0  0
 37 38  1  0  0  0  0
 37 64  1  0  0  0  0
 38 65  1  0  0  0  0
 38 66  1  0  0  0  0
 38 67  1  0  0  0  0
M  CHG  1  37   1
M  END
>  <Molecule Name>
CTX-1020817

>  <SMILES>
CN1CCN(CC1)C1=CC=C(CNC(=O)C2=CC3=C(CCN(C3)C(=O)C3=C(Cl)C4=CC=NC=C4S3)S2)C=C1

>  <Batch Name>
CTX-1020817-1

>  <Batch Created Date>
2021-12-30

>  <Batch ID>
CTX-1020817-1

>  <External ID>
CD-44-2-J

>  <Stereochemistry>
Achiral

>  <Amount 1>
9.1

>  <Unit 1>
mg

>  <CRO 1>
Pharmaron

>  <CRO 1 Total Amount>
34.5

>  <CRO 1 Unit>
mg

>  <Pharmaron Solubility (PBS, pH 7.4): Aqueous Solubility - Batch Mean (uM)>
9.6667

>  <Pharmaron Solubility (PBS, pH 7.4): Aqueous Solubility - Batch Mean (uM) Standard Deviation (±)>


>  <Pharmaron Solubility (PBS, pH 7.4): Aqueous Solubility - Batch Mean (uM) Count>
1.0

>  <log P>
4.23

>  <log D>
3.6

>  <Pharmaron Caliper Assay (CDK2/CCNE1): Minimum measured (%)>
15.7

>  <Pharmaron Caliper Assay (CDK2/CCNE1): IC50 - Batch Mean (uM)>
8.46

>  <Pharmaron ADPGLO (CDK2/E1-25C): Minimum measured (%)>
30.9

>  <Pharmaron ADPGLO (CDK2/E1-25C): IC50 - Batch Mean (uM)>
17.2

>  <Pharmaron ADPGLO (CDK2/E1-37C): Minimum measured (%)>
55.5

>  <Pharmaron ADPGLO (CDK2/E1-37C): IC50 - Batch Mean (uM)>
37.5

>  <IncuCyte Kuramochi RB-WT: IC50 - Batch Mean (uM)>
12.6

>  <IncuCyte Kuramochi RB-KO: IC50 - Batch Mean (uM)>
8.69

>  <DSF (npCDK2/CCNE1): dTm D - Batch Mean [Concentration: 100]>


>  <DSF (npCDK2/CCNE1): dTm D - Batch Mean [Concentration: 20.0]>
0.835

>  <DSF (pCDK2/CCNE1): dTm D - Batch Mean [Concentration: 100]>


>  <DSF (pCDK2/CCNE1): dTm D - Batch Mean [Concentration: 20.0]>
0.5329999999999999

>  <RLM: t1/2 - Batch Mean (Min)>


>  <RLM: Cl int - Batch Mean (uL/min/mg protein)>


>  <RLM: ER (Hepatic extraction ratio) - Batch Mean>


>  <HLM: t1/2 - Batch Mean (Min)>


>  <HLM: Cl int - Batch Mean (uL/min/mg protein)>


>  <HLM: ER (Hepatic extraction ratio) - Batch Mean>


>  <MDCK-WT 4% BSA: Papp (A-B) - Batch Mean (10-6, cm/s)>


>  <MDCK-WT 4% BSA: Papp (B-A) - Batch Mean (10-6, cm/s)>


>  <MDCK-WT 4% BSA: Efflux Ratio - Batch Mean>


>  <MDCK-WT 4% BSA: ~Net A_B - Batch Mean (10-6, cm/s)>


>  <pIC50>
5.07263

>  <Selection_1>
Y

>  <Selection_N>
N

>  <Serie>
Tetrahydrothienopyridine

>  <Selection_T>


>  <Train_Vs_Test>


$$$$
CTX-1020816
 OpenBabel08272613263D

 72 77  0  0  0  0  0  0  0  0999 V2000
    1.8710   -0.7227   -0.0066 S   0  0  0  0  0  0  0  0  0  0  0  0
    2.1978    0.9584    0.0840 C   0  0  0  0  0  0  0  0  0  0  0  0
    0.1903   -0.4606    0.0192 C   0  0  0  0  0  0  0  0  0  0  0  0
    3.5377    1.5271    0.0793 C   0  0  0  0  0  0  0  0  0  0  0  0
    1.0265    1.6886    0.1561 C   0  0  0  0  0  0  0  0  0  0  0  0
   -0.1388    0.8738    0.1307 C   0  0  0  0  0  0  0  0  0  0  0  0
   -0.8178   -1.5543   -0.1346 C   0  0  0  0  0  0  0  0  0  0  0  0
    3.7263    2.7420    0.1019 O   0  0  0  0  0  0  0  0  0  0  0  0
    4.5841    0.6357    0.0550 N   0  0  0  0  0  0  0  0  0  0  0  0
   -1.5408    1.3808    0.1528 C   0  0  0  0  0  0  0  0  0  0  0  0
   -2.2243   -1.0125    0.1715 C   0  0  0  0  0  0  0  0  0  0  0  0
    5.9630    1.0664    0.0839 C   0  0  0  0  0  0  0  0  0  0  0  0
   -2.4499    0.3607   -0.3195 N   0  0  0  0  0  0  0  0  0  0  0  0
    6.7024    0.6405   -1.1554 C   0  0  0  0  0  0  0  0  0  0  0  0
   -3.6674    0.6362   -0.9293 C   0  0  0  0  0  0  0  0  0  0  0  0
    6.2759    1.0750   -2.4122 C   0  0  0  0  0  0  0  0  0  0  0  0
    7.8555   -0.1503   -1.0781 C   0  0  0  0  0  0  0  0  0  0  0  0
   -4.3152   -0.3107   -1.3906 O   0  0  0  0  0  0  0  0  0  0  0  0
   -4.2157    2.0133   -1.0313 C   0  0  0  0  0  0  0  0  0  0  0  0
    6.9716    0.6951   -3.5598 C   0  0  0  0  0  0  0  0  0  0  0  0
    8.5546   -0.5180   -2.2385 C   0  0  0  0  0  0  0  0  0  0  0  0
   -5.5973    1.9457   -1.2340 O   0  0  0  0  0  0  0  0  0  0  0  0
   -3.8299    3.1260   -1.7983 C   0  0  0  0  0  0  0  0  0  0  0  0
    8.1128   -0.1211   -3.5035 C   0  0  0  0  0  0  0  0  0  0  0  0
   -5.7382    2.2345   -2.5599 C   0  0  0  0  0  0  0  0  0  0  0  0
   -4.6383    2.9785   -2.9682 C   0  0  0  0  0  0  0  0  0  0  0  0
   -2.7888    4.1698   -1.6164 C   0  0  0  0  0  0  0  0  0  0  0  0
    8.7478   -0.4542   -4.6917 N   0  0  0  0  0  0  0  0  0  0  0  0
   -6.7563    1.8148   -3.4051 C   0  0  0  0  0  0  0  0  0  0  0  0
   -4.5615    3.3894   -4.3070 C   0  0  0  0  0  0  0  0  0  0  0  0
   10.1683   -0.8349   -4.7307 C   0  0  0  0  0  0  0  0  0  0  0  0
    7.9337   -1.2286   -5.6514 C   0  0  0  0  0  0  0  0  0  0  0  0
   -7.8395    1.0455   -2.8940 C   0  0  0  0  0  0  0  0  0  0  0  0
   -6.5932    2.1087   -4.7590 C   0  0  0  0  0  0  0  0  0  0  0  0
   -5.5143    2.8837   -5.2039 C   0  0  0  0  0  0  0  0  0  0  0  0
   10.6990   -0.6363   -6.1776 C   0  0  0  0  0  0  0  0  0  0  0  0
    8.4849   -1.0078   -7.0755 C   0  0  0  0  0  0  0  0  0  0  0  0
   -8.7404    0.4367   -2.4915 N   0  0  0  0  0  0  0  0  0  0  0  0
    9.9131   -1.3844   -7.1908 N   0  3  0  0  0  0  0  0  0  0  0  0
   10.4009   -1.1037   -8.5389 C   0  0  0  0  0  0  0  0  0  0  0  0
    1.0002    2.7182    0.2215 H   0  0  0  0  0  0  0  0  0  0  0  0
   -0.5872   -2.3482    0.5448 H   0  0  0  0  0  0  0  0  0  0  0  0
   -0.7912   -1.9209   -1.1395 H   0  0  0  0  0  0  0  0  0  0  0  0
    4.3874   -0.3282    0.0167 H   0  0  0  0  0  0  0  0  0  0  0  0
   -1.6153    2.2406   -0.4797 H   0  0  0  0  0  0  0  0  0  0  0  0
   -1.8012    1.6415    1.1574 H   0  0  0  0  0  0  0  0  0  0  0  0
   -2.3659   -1.0198    1.2321 H   0  0  0  0  0  0  0  0  0  0  0  0
   -2.9211   -1.6454   -0.3372 H   0  0  0  0  0  0  0  0  0  0  0  0
    6.4428    0.6380    0.9390 H   0  0  0  0  0  0  0  0  0  0  0  0
    5.9787    2.1352    0.1322 H   0  0  0  0  0  0  0  0  0  0  0  0
    5.4431    1.6792   -2.4920 H   0  0  0  0  0  0  0  0  0  0  0  0
    8.1955   -0.4668   -0.1565 H   0  0  0  0  0  0  0  0  0  0  0  0
    6.6372    1.0241   -4.4790 H   0  0  0  0  0  0  0  0  0  0  0  0
    9.4089   -1.0910   -2.1561 H   0  0  0  0  0  0  0  0  0  0  0  0
   -2.3344    4.0564   -0.6543 H   0  0  0  0  0  0  0  0  0  0  0  0
   -3.2386    5.1381   -1.6865 H   0  0  0  0  0  0  0  0  0  0  0  0
   -2.0436    4.0667   -2.3772 H   0  0  0  0  0  0  0  0  0  0  0  0
   -3.8276    4.0429   -4.6222 H   0  0  0  0  0  0  0  0  0  0  0  0
   10.2738   -1.8611   -4.4465 H   0  0  0  0  0  0  0  0  0  0  0  0
   10.7272   -0.2261   -4.0511 H   0  0  0  0  0  0  0  0  0  0  0  0
    6.9166   -0.8993   -5.6058 H   0  0  0  0  0  0  0  0  0  0  0  0
    7.9788   -2.2689   -5.4049 H   0  0  0  0  0  0  0  0  0  0  0  0
   -7.2775    1.7498   -5.4430 H   0  0  0  0  0  0  0  0  0  0  0  0
   -5.4186    3.0866   -6.2112 H   0  0  0  0  0  0  0  0  0  0  0  0
   11.7142   -0.9718   -6.2176 H   0  0  0  0  0  0  0  0  0  0  0  0
   10.6132    0.4046   -6.4102 H   0  0  0  0  0  0  0  0  0  0  0  0
    8.3804    0.0267   -7.3283 H   0  0  0  0  0  0  0  0  0  0  0  0
    7.9272   -1.6315   -7.7425 H   0  0  0  0  0  0  0  0  0  0  0  0
   10.0190   -2.3844   -7.0199 H   0  0  0  0  0  0  0  0  0  0  0  0
   10.3007   -0.0583   -8.7439 H   0  0  0  0  0  0  0  0  0  0  0  0
    9.8284   -1.6629   -9.2490 H   0  0  0  0  0  0  0  0  0  0  0  0
   11.4310   -1.3841   -8.6110 H   0  0  0  0  0  0  0  0  0  0  0  0
  1  2  1  0  0  0  0
  1  3  1  0  0  0  0
  2  4  1  0  0  0  0
  2  5  2  0  0  0  0
  3  6  2  0  0  0  0
  3  7  1  0  0  0  0
  4  8  2  0  0  0  0
  4  9  1  0  0  0  0
  5  6  1  0  0  0  0
  5 41  1  0  0  0  0
  6 10  1  0  0  0  0
  7 11  1  0  0  0  0
  7 42  1  0  0  0  0
  7 43  1  0  0  0  0
  9 12  1  0  0  0  0
  9 44  1  0  0  0  0
 10 13  1  0  0  0  0
 10 45  1  0  0  0  0
 10 46  1  0  0  0  0
 11 13  1  0  0  0  0
 11 47  1  0  0  0  0
 11 48  1  0  0  0  0
 12 14  1  0  0  0  0
 12 49  1  0  0  0  0
 12 50  1  0  0  0  0
 13 15  1  0  0  0  0
 14 16  2  0  0  0  0
 14 17  1  0  0  0  0
 15 18  2  0  0  0  0
 15 19  1  0  0  0  0
 16 20  1  0  0  0  0
 16 51  1  0  0  0  0
 17 21  2  0  0  0  0
 17 52  1  0  0  0  0
 19 22  1  0  0  0  0
 19 23  2  0  0  0  0
 20 24  2  0  0  0  0
 20 53  1  0  0  0  0
 21 24  1  0  0  0  0
 21 54  1  0  0  0  0
 22 25  1  0  0  0  0
 23 26  1  0  0  0  0
 23 27  1  0  0  0  0
 24 28  1  0  0  0  0
 25 29  2  0  0  0  0
 25 26  1  0  0  0  0
 26 30  2  0  0  0  0
 27 55  1  0  0  0  0
 27 56  1  0  0  0  0
 27 57  1  0  0  0  0
 28 31  1  0  0  0  0
 28 32  1  0  0  0  0
 29 33  1  0  0  0  0
 29 34  1  0  0  0  0
 30 35  1  0  0  0  0
 30 58  1  0  0  0  0
 31 36  1  0  0  0  0
 31 59  1  0  0  0  0
 31 60  1  0  0  0  0
 32 37  1  0  0  0  0
 32 61  1  0  0  0  0
 32 62  1  0  0  0  0
 33 38  3  0  0  0  0
 34 35  2  0  0  0  0
 34 63  1  0  0  0  0
 35 64  1  0  0  0  0
 36 39  1  0  0  0  0
 36 65  1  0  0  0  0
 36 66  1  0  0  0  0
 37 39  1  0  0  0  0
 37 67  1  0  0  0  0
 37 68  1  0  0  0  0
 39 40  1  0  0  0  0
 39 69  1  0  0  0  0
 40 70  1  0  0  0  0
 40 71  1  0  0  0  0
 40 72  1  0  0  0  0
M  CHG  1  39   1
M  END
>  <Molecule Name>
CTX-1020816

>  <SMILES>
CN1CCN(CC1)C1=CC=C(CNC(=O)C2=CC3=C(CCN(C3)C(=O)C3=C(C)C4=CC=CC(C#N)=C4O3)S2)C=C1

>  <Batch Name>
CTX-1020816-1

>  <Batch Created Date>
2021-12-30

>  <Batch ID>
CTX-1020816-1

>  <External ID>
CD-44-2-G-5

>  <Stereochemistry>
Achiral

>  <Amount 1>
2.0

>  <Unit 1>
mg

>  <CRO 1>
Pharmaron

>  <CRO 1 Total Amount>
16.9

>  <CRO 1 Unit>
mg

>  <Pharmaron Solubility (PBS, pH 7.4): Aqueous Solubility - Batch Mean (uM)>
4.5678

>  <Pharmaron Solubility (PBS, pH 7.4): Aqueous Solubility - Batch Mean (uM) Standard Deviation (±)>


>  <Pharmaron Solubility (PBS, pH 7.4): Aqueous Solubility - Batch Mean (uM) Count>
1.0

>  <log P>
4.28

>  <log D>
3.65

>  <Pharmaron Caliper Assay (CDK2/CCNE1): Minimum measured (%)>
27.1

>  <Pharmaron Caliper Assay (CDK2/CCNE1): IC50 - Batch Mean (uM)>
8.98

>  <Pharmaron ADPGLO (CDK2/E1-25C): Minimum measured (%)>
58.7

>  <Pharmaron ADPGLO (CDK2/E1-25C): IC50 - Batch Mean (uM)>
9.95

>  <Pharmaron ADPGLO (CDK2/E1-37C): Minimum measured (%)>
108.0

>  <Pharmaron ADPGLO (CDK2/E1-37C): IC50 - Batch Mean (uM)>
100

>  <IncuCyte Kuramochi RB-WT: IC50 - Batch Mean (uM)>
10.8

>  <IncuCyte Kuramochi RB-KO: IC50 - Batch Mean (uM)>
7.9

>  <DSF (npCDK2/CCNE1): dTm D - Batch Mean [Concentration: 100]>


>  <DSF (npCDK2/CCNE1): dTm D - Batch Mean [Concentration: 20.0]>
1.77

>  <DSF (pCDK2/CCNE1): dTm D - Batch Mean [Concentration: 100]>


>  <DSF (pCDK2/CCNE1): dTm D - Batch Mean [Concentration: 20.0]>
0.9

>  <RLM: t1/2 - Batch Mean (Min)>


>  <RLM: Cl int - Batch Mean (uL/min/mg protein)>


>  <RLM: ER (Hepatic extraction ratio) - Batch Mean>


>  <HLM: t1/2 - Batch Mean (Min)>


>  <HLM: Cl int - Batch Mean (uL/min/mg protein)>


>  <HLM: ER (Hepatic extraction ratio) - Batch Mean>


>  <MDCK-WT 4% BSA: Papp (A-B) - Batch Mean (10-6, cm/s)>


>  <MDCK-WT 4% BSA: Papp (B-A) - Batch Mean (10-6, cm/s)>


>  <MDCK-WT 4% BSA: Efflux Ratio - Batch Mean>


>  <MDCK-WT 4% BSA: ~Net A_B - Batch Mean (10-6, cm/s)>


>  <pIC50>
5.046724

>  <Selection_1>
Y

>  <Selection_N>
N

>  <Serie>
Tetrahydrothienopyridine

>  <Selection_T>


>  <Train_Vs_Test>


$$$$
CTX-1020811
 OpenBabel08272613263D

 76 81  0  0  0  0  0  0  0  0999 V2000
    1.7715    0.8272   -0.8534 O   0  0  0  0  0  0  0  0  0  0  0  0
    2.4001    0.0435   -0.1510 C   0  0  0  0  0  0  0  0  0  0  0  0
    2.4188    0.0995    1.2206 N   0  0  0  0  0  0  0  0  0  0  0  0
    3.1516   -1.1022   -0.7605 C   0  0  0  0  0  0  0  0  0  0  0  0
    1.6664    1.0879    1.9620 C   0  0  0  0  0  0  0  0  0  0  0  0
    4.0814   -1.7533    0.0031 N   0  0  0  0  0  0  0  0  0  0  0  0
    2.8207   -1.4657   -2.0589 C   0  0  0  0  0  0  0  0  0  0  0  0
    2.5706    1.8466    2.9011 C   0  0  0  0  0  0  0  0  0  0  0  0
    4.7228   -2.8139   -0.5715 C   0  0  0  0  0  0  0  0  0  0  0  0
    3.4600   -2.5610   -2.6166 C   0  0  0  0  0  0  0  0  0  0  0  0
    3.2419    2.9780    2.4539 C   0  0  0  0  0  0  0  0  0  0  0  0
    2.7595    1.4206    4.2130 C   0  0  0  0  0  0  0  0  0  0  0  0
    4.4303   -3.2460   -1.8775 C   0  0  0  0  0  0  0  0  0  0  0  0
    5.8243   -3.5075    0.2343 C   0  0  0  0  0  0  0  0  0  0  0  0
    4.0847    3.6865    3.3087 C   0  0  0  0  0  0  0  0  0  0  0  0
    3.6017    2.1395    5.0757 C   0  0  0  0  0  0  0  0  0  0  0  0
    5.0639   -4.4804   -2.4670 C   0  0  0  0  0  0  0  0  0  0  0  0
    6.1661   -4.8301   -0.2906 N   0  0  0  0  0  0  0  0  0  0  0  0
    4.2781    3.2880    4.6471 C   0  0  0  0  0  0  0  0  0  0  0  0
    6.3263   -4.9183   -1.7343 C   0  0  0  0  0  0  0  0  0  0  0  0
    6.5773   -5.8499    0.5729 C   0  0  0  0  0  0  0  0  0  0  0  0
    5.0645    4.0640    5.4788 N   0  0  0  0  0  0  0  0  0  0  0  0
    7.0637   -5.5938    1.6755 O   0  0  0  0  0  0  0  0  0  0  0  0
    6.1558   -7.2097    0.1900 C   0  0  0  0  0  0  0  0  0  0  0  0
    4.8966    4.0253    6.9389 C   0  0  0  0  0  0  0  0  0  0  0  0
    6.4562    4.3339    5.0725 C   0  0  0  0  0  0  0  0  0  0  0  0
    5.0087   -7.2382   -0.5883 O   0  0  0  0  0  0  0  0  0  0  0  0
    6.1130   -8.3810    0.9487 C   0  0  0  0  0  0  0  0  0  0  0  0
    5.3600    5.3804    7.5265 C   0  0  0  0  0  0  0  0  0  0  0  0
    6.9166    5.6749    5.6930 C   0  0  0  0  0  0  0  0  0  0  0  0
    4.0996   -7.9020    0.1682 C   0  0  0  0  0  0  0  0  0  0  0  0
    4.7260   -8.5158    1.2389 C   0  0  0  0  0  0  0  0  0  0  0  0
    7.1601   -9.4037    1.2337 C   0  0  0  0  0  0  0  0  0  0  0  0
    6.7574    5.7222    7.1683 N   0  3  0  0  0  0  0  0  0  0  0  0
    2.7340   -7.9309   -0.0706 C   0  0  0  0  0  0  0  0  0  0  0  0
    3.9419   -9.1761    2.1952 C   0  0  0  0  0  0  0  0  0  0  0  0
    6.8992  -10.6446    0.3585 C   0  0  0  0  0  0  0  0  0  0  0  0
    7.0986    7.0511    7.6720 C   0  0  0  0  0  0  0  0  0  0  0  0
    1.9640   -8.5516    0.9087 C   0  0  0  0  0  0  0  0  0  0  0  0
    2.5494   -9.1409    2.0349 C   0  0  0  0  0  0  0  0  0  0  0  0
    2.9623   -0.5549    1.7161 H   0  0  0  0  0  0  0  0  0  0  0  0
    0.9030    0.5968    2.5286 H   0  0  0  0  0  0  0  0  0  0  0  0
    1.2280    1.7778    1.2716 H   0  0  0  0  0  0  0  0  0  0  0  0
    2.1170   -0.9338   -2.5946 H   0  0  0  0  0  0  0  0  0  0  0  0
    3.2216   -2.8700   -3.5720 H   0  0  0  0  0  0  0  0  0  0  0  0
    3.1155    3.2964    1.4805 H   0  0  0  0  0  0  0  0  0  0  0  0
    2.2784    0.5731    4.5525 H   0  0  0  0  0  0  0  0  0  0  0  0
    5.4907   -3.6169    1.2451 H   0  0  0  0  0  0  0  0  0  0  0  0
    6.7021   -2.8990    0.1688 H   0  0  0  0  0  0  0  0  0  0  0  0
    4.5777    4.5209    2.9541 H   0  0  0  0  0  0  0  0  0  0  0  0
    3.7250    1.8144    6.0473 H   0  0  0  0  0  0  0  0  0  0  0  0
    5.3160   -4.2786   -3.4871 H   0  0  0  0  0  0  0  0  0  0  0  0
    4.3533   -5.2752   -2.3770 H   0  0  0  0  0  0  0  0  0  0  0  0
    7.1375   -4.2876   -2.0328 H   0  0  0  0  0  0  0  0  0  0  0  0
    6.5228   -5.9393   -1.9873 H   0  0  0  0  0  0  0  0  0  0  0  0
    5.4883    3.2336    7.3487 H   0  0  0  0  0  0  0  0  0  0  0  0
    3.8693    3.8533    7.1838 H   0  0  0  0  0  0  0  0  0  0  0  0
    6.5121    4.3954    4.0057 H   0  0  0  0  0  0  0  0  0  0  0  0
    7.0904    3.5430    5.4147 H   0  0  0  0  0  0  0  0  0  0  0  0
    5.2836    5.3332    8.5927 H   0  0  0  0  0  0  0  0  0  0  0  0
    4.7298    6.1398    7.1128 H   0  0  0  0  0  0  0  0  0  0  0  0
    6.3374    6.4652    5.2630 H   0  0  0  0  0  0  0  0  0  0  0  0
    7.9603    5.7809    5.4824 H   0  0  0  0  0  0  0  0  0  0  0  0
    7.1214   -9.6787    2.2670 H   0  0  0  0  0  0  0  0  0  0  0  0
    8.1272   -9.0024    1.0135 H   0  0  0  0  0  0  0  0  0  0  0  0
    7.3884    5.0441    7.5955 H   0  0  0  0  0  0  0  0  0  0  0  0
    2.3158   -7.5190   -0.9194 H   0  0  0  0  0  0  0  0  0  0  0  0
    4.3749   -9.6714    2.9903 H   0  0  0  0  0  0  0  0  0  0  0  0
    5.9313  -11.0419    0.5824 H   0  0  0  0  0  0  0  0  0  0  0  0
    7.6442  -11.3859    0.5595 H   0  0  0  0  0  0  0  0  0  0  0  0
    6.9410  -10.3679   -0.6743 H   0  0  0  0  0  0  0  0  0  0  0  0
    6.4458    7.7769    7.2340 H   0  0  0  0  0  0  0  0  0  0  0  0
    8.1114    7.2809    7.4146 H   0  0  0  0  0  0  0  0  0  0  0  0
    6.9883    7.0683    8.7362 H   0  0  0  0  0  0  0  0  0  0  0  0
    0.9379   -8.5778    0.8018 H   0  0  0  0  0  0  0  0  0  0  0  0
    1.9452   -9.5571    2.7606 H   0  0  0  0  0  0  0  0  0  0  0  0
  1  2  2  0  0  0  0
  2  3  1  0  0  0  0
  2  4  1  0  0  0  0
  3  5  1  0  0  0  0
  3 41  1  0  0  0  0
  4  6  2  0  0  0  0
  4  7  1  0  0  0  0
  5  8  1  0  0  0  0
  5 42  1  0  0  0  0
  5 43  1  0  0  0  0
  6  9  1  0  0  0  0
  7 10  2  0  0  0  0
  7 44  1  0  0  0  0
  8 11  2  0  0  0  0
  8 12  1  0  0  0  0
  9 13  2  0  0  0  0
  9 14  1  0  0  0  0
 10 13  1  0  0  0  0
 10 45  1  0  0  0  0
 11 15  1  0  0  0  0
 11 46  1  0  0  0  0
 12 16  2  0  0  0  0
 12 47  1  0  0  0  0
 13 17  1  0  0  0  0
 14 18  1  0  0  0  0
 14 48  1  0  0  0  0
 14 49  1  0  0  0  0
 15 19  2  0  0  0  0
 15 50  1  0  0  0  0
 16 19  1  0  0  0  0
 16 51  1  0  0  0  0
 17 20  1  0  0  0  0
 17 52  1  0  0  0  0
 17 53  1  0  0  0  0
 18 21  1  0  0  0  0
 18 20  1  0  0  0  0
 19 22  1  0  0  0  0
 20 54  1  0  0  0  0
 20 55  1  0  0  0  0
 21 23  2  0  0  0  0
 21 24  1  0  0  0  0
 22 25  1  0  0  0  0
 22 26  1  0  0  0  0
 24 27  1  0  0  0  0
 24 28  2  0  0  0  0
 25 29  1  0  0  0  0
 25 56  1  0  0  0  0
 25 57  1  0  0  0  0
 26 30  1  0  0  0  0
 26 58  1  0  0  0  0
 26 59  1  0  0  0  0
 27 31  1  0  0  0  0
 28 32  1  0  0  0  0
 28 33  1  0  0  0  0
 29 34  1  0  0  0  0
 29 60  1  0  0  0  0
 29 61  1  0  0  0  0
 30 34  1  0  0  0  0
 30 62  1  0  0  0  0
 30 63  1  0  0  0  0
 31 35  2  0  0  0  0
 31 32  1  0  0  0  0
 32 36  2  0  0  0  0
 33 37  1  0  0  0  0
 33 64  1  0  0  0  0
 33 65  1  0  0  0  0
 34 38  1  0  0  0  0
 34 66  1  0  0  0  0
 35 39  1  0  0  0  0
 35 67  1  0  0  0  0
 36 40  1  0  0  0  0
 36 68  1  0  0  0  0
 37 69  1  0  0  0  0
 37 70  1  0  0  0  0
 37 71  1  0  0  0  0
 38 72  1  0  0  0  0
 38 73  1  0  0  0  0
 38 74  1  0  0  0  0
 39 40  2  0  0  0  0
 39 75  1  0  0  0  0
 40 76  1  0  0  0  0
M  CHG  1  34   1
M  END
>  <Molecule Name>
CTX-1020811

>  <SMILES>
CCC1=C(OC2=C1C=CC=C2)C(=O)N1CCC2=C(C1)N=C(C=C2)C(=O)NCC1=CC=C(C=C1)N1CCN(C)CC1

>  <Batch Name>
CTX-1020811-1

>  <Batch Created Date>
2021-12-30

>  <Batch ID>
CTX-1020811-1

>  <External ID>
CD-42-R

>  <Stereochemistry>
Achiral

>  <Amount 1>
4.3

>  <Unit 1>
mg

>  <CRO 1>
Pharmaron

>  <CRO 1 Total Amount>
19.3

>  <CRO 1 Unit>
mg

>  <Pharmaron Solubility (PBS, pH 7.4): Aqueous Solubility - Batch Mean (uM)>
72.0524

>  <Pharmaron Solubility (PBS, pH 7.4): Aqueous Solubility - Batch Mean (uM) Standard Deviation (±)>


>  <Pharmaron Solubility (PBS, pH 7.4): Aqueous Solubility - Batch Mean (uM) Count>
1.0

>  <log P>
4.08

>  <log D>
3.44

>  <Pharmaron Caliper Assay (CDK2/CCNE1): Minimum measured (%)>
41.0

>  <Pharmaron Caliper Assay (CDK2/CCNE1): IC50 - Batch Mean (uM)>
12.4

>  <Pharmaron ADPGLO (CDK2/E1-25C): Minimum measured (%)>
48.9

>  <Pharmaron ADPGLO (CDK2/E1-25C): IC50 - Batch Mean (uM)>
100

>  <Pharmaron ADPGLO (CDK2/E1-37C): Minimum measured (%)>
102.0

>  <Pharmaron ADPGLO (CDK2/E1-37C): IC50 - Batch Mean (uM)>
100

>  <IncuCyte Kuramochi RB-WT: IC50 - Batch Mean (uM)>
8.82

>  <IncuCyte Kuramochi RB-KO: IC50 - Batch Mean (uM)>
7.03

>  <DSF (npCDK2/CCNE1): dTm D - Batch Mean [Concentration: 100]>


>  <DSF (npCDK2/CCNE1): dTm D - Batch Mean [Concentration: 20.0]>
0.46799999999999997

>  <DSF (pCDK2/CCNE1): dTm D - Batch Mean [Concentration: 100]>


>  <DSF (pCDK2/CCNE1): dTm D - Batch Mean [Concentration: 20.0]>
0.141

>  <RLM: t1/2 - Batch Mean (Min)>


>  <RLM: Cl int - Batch Mean (uL/min/mg protein)>


>  <RLM: ER (Hepatic extraction ratio) - Batch Mean>


>  <HLM: t1/2 - Batch Mean (Min)>


>  <HLM: Cl int - Batch Mean (uL/min/mg protein)>


>  <HLM: ER (Hepatic extraction ratio) - Batch Mean>


>  <MDCK-WT 4% BSA: Papp (A-B) - Batch Mean (10-6, cm/s)>


>  <MDCK-WT 4% BSA: Papp (B-A) - Batch Mean (10-6, cm/s)>


>  <MDCK-WT 4% BSA: Efflux Ratio - Batch Mean>


>  <MDCK-WT 4% BSA: ~Net A_B - Batch Mean (10-6, cm/s)>


>  <pIC50>
4.906578

>  <Selection_1>
Y

>  <Selection_N>


>  <Serie>
Naphthyridine

>  <Selection_T>
N

>  <Train_Vs_Test>


$$$$
CTX-1020810
 OpenBabel08272613263D

 73 78  0  0  0  0  0  0  0  0999 V2000
    6.4387   -2.5483    1.1754 S   0  0  0  0  0  0  0  0  0  0  0  0
    6.0463   -4.1980    1.0027 C   0  0  0  0  0  0  0  0  0  0  0  0
    5.1593   -1.9942    0.1938 C   0  0  0  0  0  0  0  0  0  0  0  0
    6.7416   -5.2936    1.5379 C   0  0  0  0  0  0  0  0  0  0  0  0
    4.8848   -4.3694    0.2569 C   0  0  0  0  0  0  0  0  0  0  0  0
    4.3428   -3.0860   -0.1862 C   0  0  0  0  0  0  0  0  0  0  0  0
    4.9387   -0.5421   -0.0298 C   0  0  0  0  0  0  0  0  0  0  0  0
    7.8559   -5.1125    2.2578 F   0  0  0  0  0  0  0  0  0  0  0  0
    6.2831   -6.5928    1.3200 C   0  0  0  0  0  0  0  0  0  0  0  0
    4.4175   -5.7080    0.0689 C   0  0  0  0  0  0  0  0  0  0  0  0
    3.0472   -3.0610   -0.9609 C   0  0  0  0  0  0  0  0  0  0  0  0
    3.8019   -0.1706   -0.3420 O   0  0  0  0  0  0  0  0  0  0  0  0
    5.9533    0.4904    0.1012 N   0  0  0  0  0  0  0  0  0  0  0  0
    5.1232   -6.8004    0.5925 C   0  0  0  0  0  0  0  0  0  0  0  0
    7.4433    0.3138    0.1950 C   0  0  0  0  0  0  0  0  0  0  0  0
    5.4228    1.8172   -0.2017 C   0  0  0  0  0  0  0  0  0  0  0  0
    8.3604    1.5659    0.1400 C   0  0  0  0  0  0  0  0  0  0  0  0
    6.3025    3.0408   -0.0319 C   0  0  0  0  0  0  0  0  0  0  0  0
    9.7427    1.4265    0.2516 N   0  0  0  0  0  0  0  0  0  0  0  0
    7.7738    2.8247    0.0273 C   0  0  0  0  0  0  0  0  0  0  0  0
   10.4955    2.5835    0.2686 C   0  0  0  0  0  0  0  0  0  0  0  0
    8.5819    3.9661    0.0285 C   0  0  0  0  0  0  0  0  0  0  0  0
   12.0156    2.5929    0.4117 C   0  0  0  0  0  0  0  0  0  0  0  0
    9.9497    3.8516    0.1550 C   0  0  0  0  0  0  0  0  0  0  0  0
   12.6093    3.6695    0.5245 O   0  0  0  0  0  0  0  0  0  0  0  0
   12.7061    1.4053    0.3867 N   0  0  0  0  0  0  0  0  0  0  0  0
   14.1610    1.4297    0.3584 C   0  0  0  0  0  0  0  0  0  0  0  0
   14.7592    0.1667    0.9062 C   0  0  0  0  0  0  0  0  0  0  0  0
   15.6371   -0.5989    0.1395 C   0  0  0  0  0  0  0  0  0  0  0  0
   14.4606   -0.2529    2.2079 C   0  0  0  0  0  0  0  0  0  0  0  0
   16.1405   -1.7957    0.6473 C   0  0  0  0  0  0  0  0  0  0  0  0
   14.9569   -1.4654    2.7007 C   0  0  0  0  0  0  0  0  0  0  0  0
   15.7854   -2.2744    1.9193 C   0  0  0  0  0  0  0  0  0  0  0  0
   16.3006   -3.4900    2.3408 N   0  0  0  0  0  0  0  0  0  0  0  0
   16.3961   -3.8414    3.7657 C   0  0  0  0  0  0  0  0  0  0  0  0
   15.9967   -4.6571    1.4889 C   0  0  0  0  0  0  0  0  0  0  0  0
   17.4726   -4.9489    3.9396 C   0  0  0  0  0  0  0  0  0  0  0  0
   17.1111   -5.7057    1.6722 C   0  0  0  0  0  0  0  0  0  0  0  0
   17.2333   -6.1384    3.0834 N   0  3  0  0  0  0  0  0  0  0  0  0
   18.3158   -7.1083    3.2190 C   0  0  0  0  0  0  0  0  0  0  0  0
    6.8067   -7.3969    1.6998 H   0  0  0  0  0  0  0  0  0  0  0  0
    3.5471   -5.8724   -0.4606 H   0  0  0  0  0  0  0  0  0  0  0  0
    2.7968   -2.0496   -1.2047 H   0  0  0  0  0  0  0  0  0  0  0  0
    2.2673   -3.4878   -0.3655 H   0  0  0  0  0  0  0  0  0  0  0  0
    3.1591   -3.6277   -1.8616 H   0  0  0  0  0  0  0  0  0  0  0  0
    4.7779   -7.7602    0.4356 H   0  0  0  0  0  0  0  0  0  0  0  0
    7.7342   -0.3223   -0.6147 H   0  0  0  0  0  0  0  0  0  0  0  0
    7.5923   -0.0671    1.1837 H   0  0  0  0  0  0  0  0  0  0  0  0
    4.5694    1.9601    0.4277 H   0  0  0  0  0  0  0  0  0  0  0  0
    5.2532    1.7799   -1.2576 H   0  0  0  0  0  0  0  0  0  0  0  0
    6.0119    3.5208    0.8792 H   0  0  0  0  0  0  0  0  0  0  0  0
    6.1462    3.6152   -0.9210 H   0  0  0  0  0  0  0  0  0  0  0  0
    8.1517    4.8994   -0.0658 H   0  0  0  0  0  0  0  0  0  0  0  0
   10.5520    4.6896    0.1649 H   0  0  0  0  0  0  0  0  0  0  0  0
   12.2223    0.5478    0.3880 H   0  0  0  0  0  0  0  0  0  0  0  0
   14.5035    2.2562    0.9454 H   0  0  0  0  0  0  0  0  0  0  0  0
   14.4686    1.5235   -0.6622 H   0  0  0  0  0  0  0  0  0  0  0  0
   15.9138   -0.2800   -0.8022 H   0  0  0  0  0  0  0  0  0  0  0  0
   13.8679    0.3386    2.8112 H   0  0  0  0  0  0  0  0  0  0  0  0
   16.7946   -2.3474    0.0705 H   0  0  0  0  0  0  0  0  0  0  0  0
   14.7070   -1.7662    3.6557 H   0  0  0  0  0  0  0  0  0  0  0  0
   15.4499   -4.2028    4.1107 H   0  0  0  0  0  0  0  0  0  0  0  0
   16.6692   -2.9775    4.3348 H   0  0  0  0  0  0  0  0  0  0  0  0
   15.9532   -4.3532    0.4639 H   0  0  0  0  0  0  0  0  0  0  0  0
   15.0524   -5.0760    1.7676 H   0  0  0  0  0  0  0  0  0  0  0  0
   17.4760   -5.2619    4.9628 H   0  0  0  0  0  0  0  0  0  0  0  0
   18.4112   -4.5286    3.6441 H   0  0  0  0  0  0  0  0  0  0  0  0
   18.0415   -5.2805    1.3586 H   0  0  0  0  0  0  0  0  0  0  0  0
   16.8612   -6.5627    1.0823 H   0  0  0  0  0  0  0  0  0  0  0  0
   16.3690   -6.5902    3.3820 H   0  0  0  0  0  0  0  0  0  0  0  0
   19.2373   -6.6597    2.9116 H   0  0  0  0  0  0  0  0  0  0  0  0
   18.1110   -7.9597    2.6040 H   0  0  0  0  0  0  0  0  0  0  0  0
   18.3926   -7.4166    4.2407 H   0  0  0  0  0  0  0  0  0  0  0  0
  1  2  1  0  0  0  0
  1  3  1  0  0  0  0
  2  4  2  0  0  0  0
  2  5  1  0  0  0  0
  3  6  2  0  0  0  0
  3  7  1  0  0  0  0
  4  8  1  0  0  0  0
  4  9  1  0  0  0  0
  5 10  2  0  0  0  0
  5  6  1  0  0  0  0
  6 11  1  0  0  0  0
  7 12  2  0  0  0  0
  7 13  1  0  0  0  0
  9 14  2  0  0  0  0
  9 41  1  0  0  0  0
 10 14  1  0  0  0  0
 10 42  1  0  0  0  0
 11 43  1  0  0  0  0
 11 44  1  0  0  0  0
 11 45  1  0  0  0  0
 13 15  1  0  0  0  0
 13 16  1  0  0  0  0
 14 46  1  0  0  0  0
 15 17  1  0  0  0  0
 15 47  1  0  0  0  0
 15 48  1  0  0  0  0
 16 18  1  0  0  0  0
 16 49  1  0  0  0  0
 16 50  1  0  0  0  0
 17 19  2  0  0  0  0
 17 20  1  0  0  0  0
 18 20  1  0  0  0  0
 18 51  1  0  0  0  0
 18 52  1  0  0  0  0
 19 21  1  0  0  0  0
 20 22  2  0  0  0  0
 21 23  1  0  0  0  0
 21 24  2  0  0  0  0
 22 24  1  0  0  0  0
 22 53  1  0  0  0  0
 23 25  2  0  0  0  0
 23 26  1  0  0  0  0
 24 54  1  0  0  0  0
 26 27  1  0  0  0  0
 26 55  1  0  0  0  0
 27 28  1  0  0  0  0
 27 56  1  0  0  0  0
 27 57  1  0  0  0  0
 28 29  2  0  0  0  0
 28 30  1  0  0  0  0
 29 31  1  0  0  0  0
 29 58  1  0  0  0  0
 30 32  2  0  0  0  0
 30 59  1  0  0  0  0
 31 33  2  0  0  0  0
 31 60  1  0  0  0  0
 32 33  1  0  0  0  0
 32 61  1  0  0  0  0
 33 34  1  0  0  0  0
 34 35  1  0  0  0  0
 34 36  1  0  0  0  0
 35 37  1  0  0  0  0
 35 62  1  0  0  0  0
 35 63  1  0  0  0  0
 36 38  1  0  0  0  0
 36 64  1  0  0  0  0
 36 65  1  0  0  0  0
 37 39  1  0  0  0  0
 37 66  1  0  0  0  0
 37 67  1  0  0  0  0
 38 39  1  0  0  0  0
 38 68  1  0  0  0  0
 38 69  1  0  0  0  0
 39 40  1  0  0  0  0
 39 70  1  0  0  0  0
 40 71  1  0  0  0  0
 40 72  1  0  0  0  0
 40 73  1  0  0  0  0
M  CHG  1  39   1
M  END
>  <Molecule Name>
CTX-1020810

>  <SMILES>
CN1CCN(CC1)C1=CC=C(CNC(=O)C2=CC=C3CCN(CC3=N2)C(=O)C2=C(C)C3=C(S2)C(F)=CC=C3)C=C1

>  <Batch Name>
CTX-1020810-1

>  <Batch Created Date>
2021-12-30

>  <Batch ID>
CTX-1020810-1

>  <External ID>
CD-42-Q

>  <Stereochemistry>
Achiral

>  <Amount 1>
13.8

>  <Unit 1>
mg

>  <CRO 1>
Pharmaron

>  <CRO 1 Total Amount>
32.5

>  <CRO 1 Unit>
mg

>  <Pharmaron Solubility (PBS, pH 7.4): Aqueous Solubility - Batch Mean (uM)>
158.8983

>  <Pharmaron Solubility (PBS, pH 7.4): Aqueous Solubility - Batch Mean (uM) Standard Deviation (±)>


>  <Pharmaron Solubility (PBS, pH 7.4): Aqueous Solubility - Batch Mean (uM) Count>
1.0

>  <log P>
4.7

>  <log D>
4.07

>  <Pharmaron Caliper Assay (CDK2/CCNE1): Minimum measured (%)>
14.1

>  <Pharmaron Caliper Assay (CDK2/CCNE1): IC50 - Batch Mean (uM)>
0.684

>  <Pharmaron ADPGLO (CDK2/E1-25C): Minimum measured (%)>
22.7

>  <Pharmaron ADPGLO (CDK2/E1-25C): IC50 - Batch Mean (uM)>
0.66

>  <Pharmaron ADPGLO (CDK2/E1-37C): Minimum measured (%)>
82.8

>  <Pharmaron ADPGLO (CDK2/E1-37C): IC50 - Batch Mean (uM)>
20.9

>  <IncuCyte Kuramochi RB-WT: IC50 - Batch Mean (uM)>
3.93

>  <IncuCyte Kuramochi RB-KO: IC50 - Batch Mean (uM)>
3.87

>  <DSF (npCDK2/CCNE1): dTm D - Batch Mean [Concentration: 100]>


>  <DSF (npCDK2/CCNE1): dTm D - Batch Mean [Concentration: 20.0]>
3.34

>  <DSF (pCDK2/CCNE1): dTm D - Batch Mean [Concentration: 100]>


>  <DSF (pCDK2/CCNE1): dTm D - Batch Mean [Concentration: 20.0]>
1.8

>  <RLM: t1/2 - Batch Mean (Min)>


>  <RLM: Cl int - Batch Mean (uL/min/mg protein)>


>  <RLM: ER (Hepatic extraction ratio) - Batch Mean>


>  <HLM: t1/2 - Batch Mean (Min)>


>  <HLM: Cl int - Batch Mean (uL/min/mg protein)>


>  <HLM: ER (Hepatic extraction ratio) - Batch Mean>


>  <MDCK-WT 4% BSA: Papp (A-B) - Batch Mean (10-6, cm/s)>


>  <MDCK-WT 4% BSA: Papp (B-A) - Batch Mean (10-6, cm/s)>


>  <MDCK-WT 4% BSA: Efflux Ratio - Batch Mean>


>  <MDCK-WT 4% BSA: ~Net A_B - Batch Mean (10-6, cm/s)>


>  <pIC50>
6.164944

>  <Selection_1>
Y

>  <Selection_N>


>  <Serie>
Naphthyridine

>  <Selection_T>
N

>  <Train_Vs_Test>


$$$$
CTX-1020800
 OpenBabel08272613263D

 72 77  0  0  0  0  0  0  0  0999 V2000
    2.5322   -0.0650   -1.8536 O   0  0  0  0  0  0  0  0  0  0  0  0
    2.1139    0.0176   -0.6765 C   0  0  0  0  0  0  0  0  0  0  0  0
    2.9565    0.9225    0.2094 N   0  0  0  0  0  0  0  0  0  0  0  0
    0.7690   -0.8183   -0.1942 C   0  0  0  0  0  0  0  0  0  0  0  0
    4.1418    1.5652   -0.4569 C   0  0  0  0  0  0  0  0  0  0  0  0
    2.6029    1.3759    1.6022 C   0  0  0  0  0  0  0  0  0  0  0  0
    0.8883   -1.3842    1.0953 O   0  0  0  0  0  0  0  0  0  0  0  0
    0.0949   -2.1319   -0.5315 C   0  0  0  0  0  0  0  0  0  0  0  0
    4.7639    2.7170    0.2809 C   0  0  0  0  0  0  0  0  0  0  0  0
    3.3501    2.5893    2.3449 C   0  0  0  0  0  0  0  0  0  0  0  0
    0.0772   -2.7854    1.0661 C   0  0  0  0  0  0  0  0  0  0  0  0
   -1.5488   -2.5290    0.4392 C   0  0  0  0  0  0  0  0  0  0  0  0
    1.7786   -3.0367   -0.5291 C   0  0  0  0  0  0  0  0  0  0  0  0
    4.4304    3.1835    1.5272 C   0  0  0  0  0  0  0  0  0  0  0  0
    5.8107    3.5510   -0.1797 C   0  0  0  0  0  0  0  0  0  0  0  0
    0.1244   -3.4143    2.2179 C   0  0  0  0  0  0  0  0  0  0  0  0
   -2.7860   -2.0541    1.9152 C   0  0  0  0  0  0  0  0  0  0  0  0
    5.2438    4.2649    1.8371 N   0  0  0  0  0  0  0  0  0  0  0  0
    6.1137    4.5041    0.7699 C   0  0  0  0  0  0  0  0  0  0  0  0
   -0.7695   -2.4210    2.5691 C   0  0  0  0  0  0  0  0  0  0  0  0
   -2.0374   -2.8575    2.8099 C   0  0  0  0  0  0  0  0  0  0  0  0
    7.1362    5.5436    0.6806 C   0  0  0  0  0  0  0  0  0  0  0  0
    7.3416    6.3738    1.5500 O   0  0  0  0  0  0  0  0  0  0  0  0
    7.8848    5.5197   -0.4899 N   0  0  0  0  0  0  0  0  0  0  0  0
    8.9405    6.4678   -0.7222 C   0  0  0  0  0  0  0  0  0  0  0  0
   10.2920    5.8304   -0.9289 C   0  0  0  0  0  0  0  0  0  0  0  0
   10.9731    6.0277   -2.1288 C   0  0  0  0  0  0  0  0  0  0  0  0
   10.9476    5.1140    0.0832 C   0  0  0  0  0  0  0  0  0  0  0  0
   12.2551    5.5085   -2.3080 C   0  0  0  0  0  0  0  0  0  0  0  0
   12.2450    4.6075   -0.1082 C   0  0  0  0  0  0  0  0  0  0  0  0
   12.9054    4.7500   -1.3274 C   0  0  0  0  0  0  0  0  0  0  0  0
   14.1367    4.1956   -1.5753 N   0  0  0  0  0  0  0  0  0  0  0  0
   15.1218    3.9188   -0.5316 C   0  0  0  0  0  0  0  0  0  0  0  0
   14.4256    3.5595   -2.8668 C   0  0  0  0  0  0  0  0  0  0  0  0
   16.5184    4.2746   -1.0763 C   0  0  0  0  0  0  0  0  0  0  0  0
   15.8667    3.8946   -3.2809 C   0  0  0  0  0  0  0  0  0  0  0  0
   16.8294    3.5071   -2.2703 N   0  3  0  0  0  0  0  0  0  0  0  0
   18.1947    3.7530   -2.7213 C   0  0  0  0  0  0  0  0  0  0  0  0
    3.8260    1.9216   -1.4151 H   0  0  0  0  0  0  0  0  0  0  0  0
    4.8960    0.8075   -0.5003 H   0  0  0  0  0  0  0  0  0  0  0  0
    2.7321    0.5207    2.2321 H   0  0  0  0  0  0  0  0  0  0  0  0
    1.6264    1.7866    1.4515 H   0  0  0  0  0  0  0  0  0  0  0  0
    3.7735    2.2232    3.2568 H   0  0  0  0  0  0  0  0  0  0  0  0
    2.6235    3.3541    2.5238 H   0  0  0  0  0  0  0  0  0  0  0  0
    2.4552   -2.5329   -1.1874 H   0  0  0  0  0  0  0  0  0  0  0  0
    1.6423   -4.0448   -0.8611 H   0  0  0  0  0  0  0  0  0  0  0  0
    2.1809   -3.0391    0.4624 H   0  0  0  0  0  0  0  0  0  0  0  0
    6.2795    3.4592   -1.0944 H   0  0  0  0  0  0  0  0  0  0  0  0
    0.5902   -4.2314    2.6427 H   0  0  0  0  0  0  0  0  0  0  0  0
   -3.6287   -1.4642    1.9975 H   0  0  0  0  0  0  0  0  0  0  0  0
    5.2128    4.7809    2.6750 H   0  0  0  0  0  0  0  0  0  0  0  0
   -0.4984   -1.4280    2.6431 H   0  0  0  0  0  0  0  0  0  0  0  0
   -2.3652   -3.5810    3.4688 H   0  0  0  0  0  0  0  0  0  0  0  0
    7.6883    4.8397   -1.1742 H   0  0  0  0  0  0  0  0  0  0  0  0
    9.0005    7.1207    0.1233 H   0  0  0  0  0  0  0  0  0  0  0  0
    8.6994    6.9900   -1.6245 H   0  0  0  0  0  0  0  0  0  0  0  0
   10.5256    6.5617   -2.8901 H   0  0  0  0  0  0  0  0  0  0  0  0
   10.4693    4.9561    0.9839 H   0  0  0  0  0  0  0  0  0  0  0  0
   12.7435    5.6906   -3.1987 H   0  0  0  0  0  0  0  0  0  0  0  0
   12.7176    4.1204    0.6692 H   0  0  0  0  0  0  0  0  0  0  0  0
   15.0893    2.8819   -0.2695 H   0  0  0  0  0  0  0  0  0  0  0  0
   14.9075    4.5005    0.3405 H   0  0  0  0  0  0  0  0  0  0  0  0
   13.7456    3.9263   -3.6070 H   0  0  0  0  0  0  0  0  0  0  0  0
   14.3130    2.4990   -2.7795 H   0  0  0  0  0  0  0  0  0  0  0  0
   17.2502    4.0626   -0.3250 H   0  0  0  0  0  0  0  0  0  0  0  0
   16.5276    5.3139   -1.3304 H   0  0  0  0  0  0  0  0  0  0  0  0
   15.9424    4.9496   -3.4427 H   0  0  0  0  0  0  0  0  0  0  0  0
   16.0882    3.3475   -4.1734 H   0  0  0  0  0  0  0  0  0  0  0  0
   16.7700    2.5071   -2.0784 H   0  0  0  0  0  0  0  0  0  0  0  0
   18.3164    4.7936   -2.9390 H   0  0  0  0  0  0  0  0  0  0  0  0
   18.3878    3.1792   -3.6035 H   0  0  0  0  0  0  0  0  0  0  0  0
   18.8814    3.4668   -1.9523 H   0  0  0  0  0  0  0  0  0  0  0  0
  1  2  2  0  0  0  0
  2  3  1  0  0  0  0
  2  4  1  0  0  0  0
  3  5  1  0  0  0  0
  3  6  1  0  0  0  0
  4  7  1  0  0  0  0
  4  8  2  0  0  0  0
  5  9  1  0  0  0  0
  5 39  1  0  0  0  0
  5 40  1  0  0  0  0
  6 10  1  0  0  0  0
  6 41  1  0  0  0  0
  6 42  1  0  0  0  0
  7 11  1  0  0  0  0
  8 12  1  0  0  0  0
  8 13  1  0  0  0  0
  9 14  2  0  0  0  0
  9 15  1  0  0  0  0
 10 14  1  0  0  0  0
 10 43  1  0  0  0  0
 10 44  1  0  0  0  0
 11 16  2  0  0  0  0
 11 12  1  0  0  0  0
 12 17  2  0  0  0  0
 13 45  1  0  0  0  0
 13 46  1  0  0  0  0
 13 47  1  0  0  0  0
 14 18  1  0  0  0  0
 15 19  2  0  0  0  0
 15 48  1  0  0  0  0
 16 20  1  0  0  0  0
 16 49  1  0  0  0  0
 17 21  1  0  0  0  0
 17 50  1  0  0  0  0
 18 19  1  0  0  0  0
 18 51  1  0  0  0  0
 19 22  1  0  0  0  0
 20 21  2  0  0  0  0
 20 52  1  0  0  0  0
 21 53  1  0  0  0  0
 22 23  2  0  0  0  0
 22 24  1  0  0  0  0
 24 25  1  0  0  0  0
 24 54  1  0  0  0  0
 25 26  1  0  0  0  0
 25 55  1  0  0  0  0
 25 56  1  0  0  0  0
 26 27  2  0  0  0  0
 26 28  1  0  0  0  0
 27 29  1  0  0  0  0
 27 57  1  0  0  0  0
 28 30  2  0  0  0  0
 28 58  1  0  0  0  0
 29 31  2  0  0  0  0
 29 59  1  0  0  0  0
 30 31  1  0  0  0  0
 30 60  1  0  0  0  0
 31 32  1  0  0  0  0
 32 33  1  0  0  0  0
 32 34  1  0  0  0  0
 33 35  1  0  0  0  0
 33 61  1  0  0  0  0
 33 62  1  0  0  0  0
 34 36  1  0  0  0  0
 34 63  1  0  0  0  0
 34 64  1  0  0  0  0
 35 37  1  0  0  0  0
 35 65  1  0  0  0  0
 35 66  1  0  0  0  0
 36 37  1  0  0  0  0
 36 67  1  0  0  0  0
 36 68  1  0  0  0  0
 37 38  1  0  0  0  0
 37 69  1  0  0  0  0
 38 70  1  0  0  0  0
 38 71  1  0  0  0  0
 38 72  1  0  0  0  0
M  CHG  1  37   1
M  END
>  <Molecule Name>
CTX-1020800

>  <SMILES>
CN1CCN(CC1)C1=CC=C(CNC(=O)C2=CC3=C(CCN(C3)C(=O)C3=C(C)C4=C(O3)C=CC=C4)N2)C=C1

>  <Batch Name>
CTX-1020800-1

>  <Batch Created Date>
2021-12-24

>  <Batch ID>
CTX-1020800-1

>  <External ID>
CD-44-Q

>  <Stereochemistry>
Achiral

>  <Amount 1>
2.6

>  <Unit 1>
mg

>  <CRO 1>
Pharmaron

>  <CRO 1 Total Amount>
16.1

>  <CRO 1 Unit>
mg

>  <Pharmaron Solubility (PBS, pH 7.4): Aqueous Solubility - Batch Mean (uM)>


>  <Pharmaron Solubility (PBS, pH 7.4): Aqueous Solubility - Batch Mean (uM) Standard Deviation (±)>


>  <Pharmaron Solubility (PBS, pH 7.4): Aqueous Solubility - Batch Mean (uM) Count>


>  <log P>
3.07

>  <log D>
2.44

>  <Pharmaron Caliper Assay (CDK2/CCNE1): Minimum measured (%)>
22.8

>  <Pharmaron Caliper Assay (CDK2/CCNE1): IC50 - Batch Mean (uM)>
1.17

>  <Pharmaron ADPGLO (CDK2/E1-25C): Minimum measured (%)>
41.9

>  <Pharmaron ADPGLO (CDK2/E1-25C): IC50 - Batch Mean (uM)>
1.67

>  <Pharmaron ADPGLO (CDK2/E1-37C): Minimum measured (%)>
105.0

>  <Pharmaron ADPGLO (CDK2/E1-37C): IC50 - Batch Mean (uM)>
10.0

>  <IncuCyte Kuramochi RB-WT: IC50 - Batch Mean (uM)>
9.85

>  <IncuCyte Kuramochi RB-KO: IC50 - Batch Mean (uM)>
10.6

>  <DSF (npCDK2/CCNE1): dTm D - Batch Mean [Concentration: 100]>


>  <DSF (npCDK2/CCNE1): dTm D - Batch Mean [Concentration: 20.0]>
1.9969999999999999

>  <DSF (pCDK2/CCNE1): dTm D - Batch Mean [Concentration: 100]>


>  <DSF (pCDK2/CCNE1): dTm D - Batch Mean [Concentration: 20.0]>
0.917

>  <RLM: t1/2 - Batch Mean (Min)>


>  <RLM: Cl int - Batch Mean (uL/min/mg protein)>


>  <RLM: ER (Hepatic extraction ratio) - Batch Mean>


>  <HLM: t1/2 - Batch Mean (Min)>


>  <HLM: Cl int - Batch Mean (uL/min/mg protein)>


>  <HLM: ER (Hepatic extraction ratio) - Batch Mean>


>  <MDCK-WT 4% BSA: Papp (A-B) - Batch Mean (10-6, cm/s)>


>  <MDCK-WT 4% BSA: Papp (B-A) - Batch Mean (10-6, cm/s)>


>  <MDCK-WT 4% BSA: Efflux Ratio - Batch Mean>


>  <MDCK-WT 4% BSA: ~Net A_B - Batch Mean (10-6, cm/s)>


>  <pIC50>
5.931814

>  <Selection_1>
Y

>  <Selection_N>
N

>  <Serie>
Other

>  <Selection_T>
N

>  <Train_Vs_Test>


$$$$
CTX-1020799
 OpenBabel08272613263D

 69 75  0  0  0  0  0  0  0  0999 V2000
   10.8199  -13.3377    0.2483 Cl  0  0  0  0  0  0  0  0  0  0  0  0
   11.1977  -11.7672    0.8544 C   0  0  0  0  0  0  0  0  0  0  0  0
   10.3532  -10.6392    0.7267 C   0  0  0  0  0  0  0  0  0  0  0  0
   12.5098  -11.5317    1.5495 C   0  0  0  0  0  0  0  0  0  0  0  0
   11.0199   -9.3763    1.6794 S   0  0  0  0  0  0  0  0  0  0  0  0
    9.1212  -10.3507   -0.1421 C   0  0  0  0  0  0  0  0  0  0  0  0
   12.4959  -10.2209    2.0132 C   0  0  0  0  0  0  0  0  0  0  0  0
   13.7579  -12.3406    1.8081 C   0  0  0  0  0  0  0  0  0  0  0  0
    9.0154  -10.8323   -1.2728 O   0  0  0  0  0  0  0  0  0  0  0  0
    7.9410   -9.6724    0.4276 N   0  0  0  0  0  0  0  0  0  0  0  0
   13.6186   -9.7150    2.6732 C   0  0  0  0  0  0  0  0  0  0  0  0
   14.9231  -11.8439    2.4370 C   0  0  0  0  0  0  0  0  0  0  0  0
    6.9586   -8.7205   -0.4024 C   0  0  0  0  0  0  0  0  0  0  0  0
    7.2975  -10.7070    1.1903 C   0  0  0  0  0  0  0  0  0  0  0  0
   14.7609  -10.5138    2.8373 C   0  0  0  0  0  0  0  0  0  0  0  0
    5.4296   -8.8025    0.0020 C   0  0  0  0  0  0  0  0  0  0  0  0
    5.9718  -10.4192    1.7686 C   0  0  0  0  0  0  0  0  0  0  0  0
    5.1104   -9.4462    1.1575 C   0  0  0  0  0  0  0  0  0  0  0  0
    4.1028   -8.4999   -0.6240 C   0  0  0  0  0  0  0  0  0  0  0  0
    3.5327   -9.2543    1.7150 S   0  0  0  0  0  0  0  0  0  0  0  0
    3.0578   -9.1608    0.0622 C   0  0  0  0  0  0  0  0  0  0  0  0
    1.7402   -9.7463   -0.2334 C   0  0  0  0  0  0  0  0  0  0  0  0
    0.7541   -9.1003   -0.5664 O   0  0  0  0  0  0  0  0  0  0  0  0
    1.7203  -11.1032    0.0209 N   0  0  0  0  0  0  0  0  0  0  0  0
    0.5741  -12.0065    0.1307 C   0  0  0  0  0  0  0  0  0  0  0  0
    0.1317  -12.4866   -1.2177 C   0  0  0  0  0  0  0  0  0  0  0  0
    0.5714  -13.6940   -1.7768 C   0  0  0  0  0  0  0  0  0  0  0  0
   -0.7114  -11.6670   -1.9732 C   0  0  0  0  0  0  0  0  0  0  0  0
    0.2444  -14.0190   -3.0962 C   0  0  0  0  0  0  0  0  0  0  0  0
   -1.0576  -12.0161   -3.2782 C   0  0  0  0  0  0  0  0  0  0  0  0
   -0.5409  -13.1672   -3.8792 C   0  0  0  0  0  0  0  0  0  0  0  0
   -0.8330  -13.4767   -5.2208 N   0  0  0  0  0  0  0  0  0  0  0  0
   -0.1197  -14.3712   -6.0925 C   0  0  0  0  0  0  0  0  0  0  0  0
   -1.2592  -12.6040   -6.2942 C   0  0  0  0  0  0  0  0  0  0  0  0
   -0.3224  -13.3592   -7.1763 C   0  0  0  0  0  0  0  0  0  0  0  0
    0.8841  -12.6648   -7.7509 C   0  0  0  0  0  0  0  0  0  0  0  0
   -0.6761  -13.8181   -8.5576 C   0  0  0  0  0  0  0  0  0  0  0  0
    0.7206  -13.4949   -8.9829 N   0  3  0  0  0  0  0  0  0  0  0  0
    1.5789  -14.6825   -8.9129 C   0  0  0  0  0  0  0  0  0  0  0  0
   13.7610  -13.3269    1.5042 H   0  0  0  0  0  0  0  0  0  0  0  0
   13.6079   -8.7509    3.0412 H   0  0  0  0  0  0  0  0  0  0  0  0
   15.7843  -12.3935    2.5822 H   0  0  0  0  0  0  0  0  0  0  0  0
    7.0409   -8.9827   -1.4365 H   0  0  0  0  0  0  0  0  0  0  0  0
    7.2670   -7.7190   -0.1864 H   0  0  0  0  0  0  0  0  0  0  0  0
    7.9502  -10.9577    2.0003 H   0  0  0  0  0  0  0  0  0  0  0  0
    7.1156  -11.4874    0.4812 H   0  0  0  0  0  0  0  0  0  0  0  0
   15.5685  -10.0719    3.3037 H   0  0  0  0  0  0  0  0  0  0  0  0
    6.1392  -10.0933    2.7740 H   0  0  0  0  0  0  0  0  0  0  0  0
    5.4406  -11.3370    1.6265 H   0  0  0  0  0  0  0  0  0  0  0  0
    3.9692   -7.8905   -1.4461 H   0  0  0  0  0  0  0  0  0  0  0  0
    2.6022  -11.5225    0.1460 H   0  0  0  0  0  0  0  0  0  0  0  0
   -0.2357  -11.4875    0.5994 H   0  0  0  0  0  0  0  0  0  0  0  0
    0.8660  -12.8551    0.7135 H   0  0  0  0  0  0  0  0  0  0  0  0
    1.1387  -14.3456   -1.2123 H   0  0  0  0  0  0  0  0  0  0  0  0
   -1.0810  -10.7957   -1.5617 H   0  0  0  0  0  0  0  0  0  0  0  0
    0.5890  -14.9040   -3.5000 H   0  0  0  0  0  0  0  0  0  0  0  0
   -1.7064  -11.4143   -3.8091 H   0  0  0  0  0  0  0  0  0  0  0  0
   -0.6028  -15.3108   -6.2618 H   0  0  0  0  0  0  0  0  0  0  0  0
    0.8508  -14.7476   -5.8449 H   0  0  0  0  0  0  0  0  0  0  0  0
   -1.0120  -11.5720   -6.1575 H   0  0  0  0  0  0  0  0  0  0  0  0
   -2.2918  -12.4747   -6.5432 H   0  0  0  0  0  0  0  0  0  0  0  0
    1.7936  -12.8408   -7.2154 H   0  0  0  0  0  0  0  0  0  0  0  0
    0.9389  -11.5975   -7.8030 H   0  0  0  0  0  0  0  0  0  0  0  0
   -1.4315  -13.2323   -9.0383 H   0  0  0  0  0  0  0  0  0  0  0  0
   -1.0965  -14.7872   -8.7283 H   0  0  0  0  0  0  0  0  0  0  0  0
    0.9128  -13.1175   -9.9109 H   0  0  0  0  0  0  0  0  0  0  0  0
    1.4509  -15.1596   -7.9637 H   0  0  0  0  0  0  0  0  0  0  0  0
    2.6017  -14.3908   -9.0305 H   0  0  0  0  0  0  0  0  0  0  0  0
    1.3102  -15.3633   -9.6934 H   0  0  0  0  0  0  0  0  0  0  0  0
  1  2  1  0  0  0  0
  2  3  2  0  0  0  0
  2  4  1  0  0  0  0
  3  5  1  0  0  0  0
  3  6  1  0  0  0  0
  4  7  2  0  0  0  0
  4  8  1  0  0  0  0
  5  7  1  0  0  0  0
  6  9  2  0  0  0  0
  6 10  1  0  0  0  0
  7 11  1  0  0  0  0
  8 12  2  0  0  0  0
  8 40  1  0  0  0  0
 10 13  1  0  0  0  0
 10 14  1  0  0  0  0
 11 15  2  0  0  0  0
 11 41  1  0  0  0  0
 12 15  1  0  0  0  0
 12 42  1  0  0  0  0
 13 16  1  0  0  0  0
 13 43  1  0  0  0  0
 13 44  1  0  0  0  0
 14 17  1  0  0  0  0
 14 45  1  0  0  0  0
 14 46  1  0  0  0  0
 15 47  1  0  0  0  0
 16 18  2  0  0  0  0
 16 19  1  0  0  0  0
 17 18  1  0  0  0  0
 17 48  1  0  0  0  0
 17 49  1  0  0  0  0
 18 20  1  0  0  0  0
 19 21  2  0  0  0  0
 19 50  1  0  0  0  0
 20 21  1  0  0  0  0
 21 22  1  0  0  0  0
 22 23  2  0  0  0  0
 22 24  1  0  0  0  0
 24 25  1  0  0  0  0
 24 51  1  0  0  0  0
 25 26  1  0  0  0  0
 25 52  1  0  0  0  0
 25 53  1  0  0  0  0
 26 27  2  0  0  0  0
 26 28  1  0  0  0  0
 27 29  1  0  0  0  0
 27 54  1  0  0  0  0
 28 30  2  0  0  0  0
 28 55  1  0  0  0  0
 29 31  2  0  0  0  0
 29 56  1  0  0  0  0
 30 31  1  0  0  0  0
 30 57  1  0  0  0  0
 31 32  1  0  0  0  0
 32 33  1  0  0  0  0
 32 34  1  0  0  0  0
 33 35  1  0  0  0  0
 33 58  1  0  0  0  0
 33 59  1  0  0  0  0
 34 35  1  0  0  0  0
 34 60  1  0  0  0  0
 34 61  1  0  0  0  0
 35 36  1  0  0  0  0
 35 37  1  0  0  0  0
 36 38  1  0  0  0  0
 36 62  1  0  0  0  0
 36 63  1  0  0  0  0
 37 38  1  0  0  0  0
 37 64  1  0  0  0  0
 37 65  1  0  0  0  0
 38 39  1  0  0  0  0
 38 66  1  0  0  0  0
 39 67  1  0  0  0  0
 39 68  1  0  0  0  0
 39 69  1  0  0  0  0
M  CHG  1  38   1
M  END
>  <Molecule Name>
CTX-1020799

>  <SMILES>
CN1CC2(C1)CN(C2)C1=CC=C(CNC(=O)C2=CC3=C(CCN(C3)C(=O)C3=C(Cl)C4=CC=CC=C4S3)S2)C=C1

>  <Batch Name>
CTX-1020799-1

>  <Batch Created Date>
2021-12-24

>  <Batch ID>
CTX-1020799-1

>  <External ID>
CD-44-2-N

>  <Stereochemistry>
Achiral

>  <Amount 1>
20.6

>  <Unit 1>
mg

>  <CRO 1>
Pharmaron

>  <CRO 1 Total Amount>
29.2

>  <CRO 1 Unit>
mg

>  <Pharmaron Solubility (PBS, pH 7.4): Aqueous Solubility - Batch Mean (uM)>


>  <Pharmaron Solubility (PBS, pH 7.4): Aqueous Solubility - Batch Mean (uM) Standard Deviation (±)>


>  <Pharmaron Solubility (PBS, pH 7.4): Aqueous Solubility - Batch Mean (uM) Count>


>  <log P>
5.13

>  <log D>
4.59

>  <Pharmaron Caliper Assay (CDK2/CCNE1): Minimum measured (%)>
47.7

>  <Pharmaron Caliper Assay (CDK2/CCNE1): IC50 - Batch Mean (uM)>
7.88

>  <Pharmaron ADPGLO (CDK2/E1-25C): Minimum measured (%)>
84.9

>  <Pharmaron ADPGLO (CDK2/E1-25C): IC50 - Batch Mean (uM)>
9.52

>  <Pharmaron ADPGLO (CDK2/E1-37C): Minimum measured (%)>
112.0

>  <Pharmaron ADPGLO (CDK2/E1-37C): IC50 - Batch Mean (uM)>
10.0

>  <IncuCyte Kuramochi RB-WT: IC50 - Batch Mean (uM)>
2.51

>  <IncuCyte Kuramochi RB-KO: IC50 - Batch Mean (uM)>
2.45

>  <DSF (npCDK2/CCNE1): dTm D - Batch Mean [Concentration: 100]>


>  <DSF (npCDK2/CCNE1): dTm D - Batch Mean [Concentration: 20.0]>
1.429

>  <DSF (pCDK2/CCNE1): dTm D - Batch Mean [Concentration: 100]>


>  <DSF (pCDK2/CCNE1): dTm D - Batch Mean [Concentration: 20.0]>
0.5

>  <RLM: t1/2 - Batch Mean (Min)>


>  <RLM: Cl int - Batch Mean (uL/min/mg protein)>


>  <RLM: ER (Hepatic extraction ratio) - Batch Mean>


>  <HLM: t1/2 - Batch Mean (Min)>


>  <HLM: Cl int - Batch Mean (uL/min/mg protein)>


>  <HLM: ER (Hepatic extraction ratio) - Batch Mean>


>  <MDCK-WT 4% BSA: Papp (A-B) - Batch Mean (10-6, cm/s)>


>  <MDCK-WT 4% BSA: Papp (B-A) - Batch Mean (10-6, cm/s)>


>  <MDCK-WT 4% BSA: Efflux Ratio - Batch Mean>


>  <MDCK-WT 4% BSA: ~Net A_B - Batch Mean (10-6, cm/s)>


>  <pIC50>
5.103474

>  <Selection_1>
Y

>  <Selection_N>
N

>  <Serie>
Tetrahydrothienopyridine

>  <Selection_T>


>  <Train_Vs_Test>


$$$$
CTX-1020795
 OpenBabel08272613263D

 73 78  0  0  0  0  0  0  0  0999 V2000
    1.2364   -8.1872   -5.2435 Cl  0  0  0  0  0  0  0  0  0  0  0  0
    0.7812   -6.6534   -4.6637 C   0  0  0  0  0  0  0  0  0  0  0  0
    1.4858   -6.0208   -3.6076 C   0  0  0  0  0  0  0  0  0  0  0  0
   -0.3263   -5.9819   -5.2194 C   0  0  0  0  0  0  0  0  0  0  0  0
    2.6242   -6.4781   -2.9820 O   0  0  0  0  0  0  0  0  0  0  0  0
    1.0801   -4.8132   -3.0797 C   0  0  0  0  0  0  0  0  0  0  0  0
   -0.7343   -4.7465   -4.7293 C   0  0  0  0  0  0  0  0  0  0  0  0
    2.9800   -5.5504   -2.0271 C   0  0  0  0  0  0  0  0  0  0  0  0
    1.9898   -4.5296   -2.0064 C   0  0  0  0  0  0  0  0  0  0  0  0
   -0.0599   -4.1649   -3.6403 C   0  0  0  0  0  0  0  0  0  0  0  0
    4.2031   -5.7113   -1.1772 C   0  0  0  0  0  0  0  0  0  0  0  0
    1.7896   -3.3435   -1.1013 C   0  0  0  0  0  0  0  0  0  0  0  0
    4.4991   -4.7728   -0.4406 O   0  0  0  0  0  0  0  0  0  0  0  0
    5.0587   -6.9127   -1.0443 N   0  0  0  0  0  0  0  0  0  0  0  0
    5.5843   -8.1213   -1.9165 C   0  0  0  0  0  0  0  0  0  0  0  0
    5.5659   -7.0023    0.3167 C   0  0  0  0  0  0  0  0  0  0  0  0
    6.3910   -9.3045   -1.0348 C   0  0  0  0  0  0  0  0  0  0  0  0
    7.0508   -7.3229    0.3457 C   0  0  0  0  0  0  0  0  0  0  0  0
    6.3556  -10.6851   -1.2547 N   0  0  0  0  0  0  0  0  0  0  0  0
    7.0469   -8.7946    0.1013 C   0  0  0  0  0  0  0  0  0  0  0  0
    6.8586  -11.5050   -0.2239 C   0  0  0  0  0  0  0  0  0  0  0  0
    7.4821   -9.6373    1.1301 C   0  0  0  0  0  0  0  0  0  0  0  0
    6.9881  -13.0406   -0.2460 C   0  0  0  0  0  0  0  0  0  0  0  0
    7.3429  -10.9880    0.9835 C   0  0  0  0  0  0  0  0  0  0  0  0
    7.2920  -13.6213    0.8232 O   0  0  0  0  0  0  0  0  0  0  0  0
    6.8520  -13.7815   -1.3929 N   0  0  0  0  0  0  0  0  0  0  0  0
    7.0943  -15.2192   -1.3651 C   0  0  0  0  0  0  0  0  0  0  0  0
    5.8650  -15.9950   -1.7478 C   0  0  0  0  0  0  0  0  0  0  0  0
    5.6594  -16.3822   -3.0698 C   0  0  0  0  0  0  0  0  0  0  0  0
    4.8862  -16.3074   -0.8021 C   0  0  0  0  0  0  0  0  0  0  0  0
    4.5181  -17.1140   -3.4240 C   0  0  0  0  0  0  0  0  0  0  0  0
    3.7206  -16.9829   -1.1858 C   0  0  0  0  0  0  0  0  0  0  0  0
    3.5271  -17.4545   -2.4945 C   0  0  0  0  0  0  0  0  0  0  0  0
    2.4548  -18.2568   -2.8321 N   0  0  0  0  0  0  0  0  0  0  0  0
    1.7447  -19.0648   -1.8236 C   0  0  0  0  0  0  0  0  0  0  0  0
    1.8716  -18.3056   -4.1842 C   0  0  0  0  0  0  0  0  0  0  0  0
    1.5061  -20.5015   -2.3492 C   0  0  0  0  0  0  0  0  0  0  0  0
    1.6239  -19.7679   -4.6241 C   0  0  0  0  0  0  0  0  0  0  0  0
    0.7952  -20.5048   -3.6453 N   0  3  0  0  0  0  0  0  0  0  0  0
    0.5233  -21.8625   -4.0976 C   0  0  0  0  0  0  0  0  0  0  0  0
   -0.8421   -6.4137   -6.0021 H   0  0  0  0  0  0  0  0  0  0  0  0
   -1.5316   -4.2564   -5.1642 H   0  0  0  0  0  0  0  0  0  0  0  0
   -0.3900   -3.2696   -3.2472 H   0  0  0  0  0  0  0  0  0  0  0  0
    0.9198   -2.8021   -1.4099 H   0  0  0  0  0  0  0  0  0  0  0  0
    2.6458   -2.7041   -1.1565 H   0  0  0  0  0  0  0  0  0  0  0  0
    1.6609   -3.6811   -0.0942 H   0  0  0  0  0  0  0  0  0  0  0  0
    6.2560   -7.7359   -2.6548 H   0  0  0  0  0  0  0  0  0  0  0  0
    4.7232   -8.5896   -2.3456 H   0  0  0  0  0  0  0  0  0  0  0  0
    5.0349   -7.7737    0.8341 H   0  0  0  0  0  0  0  0  0  0  0  0
    5.4215   -6.0528    0.7885 H   0  0  0  0  0  0  0  0  0  0  0  0
    7.4825   -7.0864    1.2957 H   0  0  0  0  0  0  0  0  0  0  0  0
    7.6294   -6.7665   -0.3619 H   0  0  0  0  0  0  0  0  0  0  0  0
    7.9020   -9.2440    1.9869 H   0  0  0  0  0  0  0  0  0  0  0  0
    7.5931  -11.6231    1.7574 H   0  0  0  0  0  0  0  0  0  0  0  0
    6.5908  -13.3425   -2.2345 H   0  0  0  0  0  0  0  0  0  0  0  0
    7.3899  -15.5024   -0.3765 H   0  0  0  0  0  0  0  0  0  0  0  0
    7.8648  -15.4425   -2.0731 H   0  0  0  0  0  0  0  0  0  0  0  0
    6.3513  -16.1287   -3.7923 H   0  0  0  0  0  0  0  0  0  0  0  0
    5.0224  -16.0391    0.1851 H   0  0  0  0  0  0  0  0  0  0  0  0
    4.4037  -17.4130   -4.4051 H   0  0  0  0  0  0  0  0  0  0  0  0
    2.9801  -17.1390   -0.4842 H   0  0  0  0  0  0  0  0  0  0  0  0
    0.8017  -18.6080   -1.6069 H   0  0  0  0  0  0  0  0  0  0  0  0
    2.3425  -19.1155   -0.9376 H   0  0  0  0  0  0  0  0  0  0  0  0
    2.5455  -17.8414   -4.8737 H   0  0  0  0  0  0  0  0  0  0  0  0
    0.9352  -17.7881   -4.1724 H   0  0  0  0  0  0  0  0  0  0  0  0
    0.9209  -21.0390   -1.6326 H   0  0  0  0  0  0  0  0  0  0  0  0
    2.4601  -20.9638   -2.4939 H   0  0  0  0  0  0  0  0  0  0  0  0
    2.5668  -20.2642   -4.7224 H   0  0  0  0  0  0  0  0  0  0  0  0
    1.0990  -19.7497   -5.5564 H   0  0  0  0  0  0  0  0  0  0  0  0
   -0.1108  -20.0472   -3.5440 H   0  0  0  0  0  0  0  0  0  0  0  0
    1.4466  -22.3891   -4.2203 H   0  0  0  0  0  0  0  0  0  0  0  0
    0.0045  -21.8297   -5.0328 H   0  0  0  0  0  0  0  0  0  0  0  0
   -0.0808  -22.3660   -3.3721 H   0  0  0  0  0  0  0  0  0  0  0  0
  1  2  1  0  0  0  0
  2  3  2  0  0  0  0
  2  4  1  0  0  0  0
  3  5  1  0  0  0  0
  3  6  1  0  0  0  0
  4  7  2  0  0  0  0
  4 41  1  0  0  0  0
  5  8  1  0  0  0  0
  6  9  1  0  0  0  0
  6 10  2  0  0  0  0
  7 10  1  0  0  0  0
  7 42  1  0  0  0  0
  8 11  1  0  0  0  0
  8  9  2  0  0  0  0
  9 12  1  0  0  0  0
 10 43  1  0  0  0  0
 11 13  2  0  0  0  0
 11 14  1  0  0  0  0
 12 44  1  0  0  0  0
 12 45  1  0  0  0  0
 12 46  1  0  0  0  0
 14 15  1  0  0  0  0
 14 16  1  0  0  0  0
 15 17  1  0  0  0  0
 15 47  1  0  0  0  0
 15 48  1  0  0  0  0
 16 18  1  0  0  0  0
 16 49  1  0  0  0  0
 16 50  1  0  0  0  0
 17 19  2  0  0  0  0
 17 20  1  0  0  0  0
 18 20  1  0  0  0  0
 18 51  1  0  0  0  0
 18 52  1  0  0  0  0
 19 21  1  0  0  0  0
 20 22  2  0  0  0  0
 21 23  1  0  0  0  0
 21 24  2  0  0  0  0
 22 24  1  0  0  0  0
 22 53  1  0  0  0  0
 23 25  2  0  0  0  0
 23 26  1  0  0  0  0
 24 54  1  0  0  0  0
 26 27  1  0  0  0  0
 26 55  1  0  0  0  0
 27 28  1  0  0  0  0
 27 56  1  0  0  0  0
 27 57  1  0  0  0  0
 28 29  2  0  0  0  0
 28 30  1  0  0  0  0
 29 31  1  0  0  0  0
 29 58  1  0  0  0  0
 30 32  2  0  0  0  0
 30 59  1  0  0  0  0
 31 33  2  0  0  0  0
 31 60  1  0  0  0  0
 32 33  1  0  0  0  0
 32 61  1  0  0  0  0
 33 34  1  0  0  0  0
 34 35  1  0  0  0  0
 34 36  1  0  0  0  0
 35 37  1  0  0  0  0
 35 62  1  0  0  0  0
 35 63  1  0  0  0  0
 36 38  1  0  0  0  0
 36 64  1  0  0  0  0
 36 65  1  0  0  0  0
 37 39  1  0  0  0  0
 37 66  1  0  0  0  0
 37 67  1  0  0  0  0
 38 39  1  0  0  0  0
 38 68  1  0  0  0  0
 38 69  1  0  0  0  0
 39 40  1  0  0  0  0
 39 70  1  0  0  0  0
 40 71  1  0  0  0  0
 40 72  1  0  0  0  0
 40 73  1  0  0  0  0
M  CHG  1  39   1
M  END
>  <Molecule Name>
CTX-1020795

>  <SMILES>
CN1CCN(CC1)C1=CC=C(CNC(=O)C2=CC=C3CCN(CC3=N2)C(=O)C2=C(C)C3=C(O2)C(Cl)=CC=C3)C=C1

>  <Batch Name>
CTX-1020795-1

>  <Batch Created Date>
2021-12-24

>  <Batch ID>
CTX-1020795-1

>  <External ID>
CD-42-O

>  <Stereochemistry>
Achiral

>  <Amount 1>
2.3

>  <Unit 1>
mg

>  <CRO 1>
Pharmaron

>  <CRO 1 Total Amount>
13.3

>  <CRO 1 Unit>
mg

>  <Pharmaron Solubility (PBS, pH 7.4): Aqueous Solubility - Batch Mean (uM)>


>  <Pharmaron Solubility (PBS, pH 7.4): Aqueous Solubility - Batch Mean (uM) Standard Deviation (±)>


>  <Pharmaron Solubility (PBS, pH 7.4): Aqueous Solubility - Batch Mean (uM) Count>


>  <log P>
4.24

>  <log D>
3.6

>  <Pharmaron Caliper Assay (CDK2/CCNE1): Minimum measured (%)>
30.0

>  <Pharmaron Caliper Assay (CDK2/CCNE1): IC50 - Batch Mean (uM)>
18.7

>  <Pharmaron ADPGLO (CDK2/E1-25C): Minimum measured (%)>
81.4

>  <Pharmaron ADPGLO (CDK2/E1-25C): IC50 - Batch Mean (uM)>
10.0

>  <Pharmaron ADPGLO (CDK2/E1-37C): Minimum measured (%)>
110.0

>  <Pharmaron ADPGLO (CDK2/E1-37C): IC50 - Batch Mean (uM)>
10.0

>  <IncuCyte Kuramochi RB-WT: IC50 - Batch Mean (uM)>
8.78

>  <IncuCyte Kuramochi RB-KO: IC50 - Batch Mean (uM)>
6.74

>  <DSF (npCDK2/CCNE1): dTm D - Batch Mean [Concentration: 100]>


>  <DSF (npCDK2/CCNE1): dTm D - Batch Mean [Concentration: 20.0]>
0.828

>  <DSF (pCDK2/CCNE1): dTm D - Batch Mean [Concentration: 100]>


>  <DSF (pCDK2/CCNE1): dTm D - Batch Mean [Concentration: 20.0]>
0.21600000000000003

>  <RLM: t1/2 - Batch Mean (Min)>


>  <RLM: Cl int - Batch Mean (uL/min/mg protein)>


>  <RLM: ER (Hepatic extraction ratio) - Batch Mean>


>  <HLM: t1/2 - Batch Mean (Min)>


>  <HLM: Cl int - Batch Mean (uL/min/mg protein)>


>  <HLM: ER (Hepatic extraction ratio) - Batch Mean>


>  <MDCK-WT 4% BSA: Papp (A-B) - Batch Mean (10-6, cm/s)>


>  <MDCK-WT 4% BSA: Papp (B-A) - Batch Mean (10-6, cm/s)>


>  <MDCK-WT 4% BSA: Efflux Ratio - Batch Mean>


>  <MDCK-WT 4% BSA: ~Net A_B - Batch Mean (10-6, cm/s)>


>  <pIC50>
4.728158

>  <Selection_1>
Y

>  <Selection_N>


>  <Serie>
Naphthyridine

>  <Selection_T>
N

>  <Train_Vs_Test>


$$$$
CTX-1020772
 OpenBabel08272613263D

 49 53  0  0  0  0  0  0  0  0999 V2000
    1.8596   -0.7494   -0.0049 S   0  0  0  0  0  0  0  0  0  0  0  0
    2.1920    0.9279    0.0442 C   0  0  0  0  0  0  0  0  0  0  0  0
    0.1832   -0.4776   -0.0370 C   0  0  0  0  0  0  0  0  0  0  0  0
    3.5363    1.4754    0.1088 C   0  0  0  0  0  0  0  0  0  0  0  0
    1.0167    1.6697    0.0218 C   0  0  0  0  0  0  0  0  0  0  0  0
   -0.1575    0.8620   -0.0365 C   0  0  0  0  0  0  0  0  0  0  0  0
   -0.8177   -1.5828   -0.0791 C   0  0  0  0  0  0  0  0  0  0  0  0
    3.7422    2.6887    0.1566 O   0  0  0  0  0  0  0  0  0  0  0  0
    4.5996    0.5940    0.1212 N   0  0  0  0  0  0  0  0  0  0  0  0
   -1.5864    1.3511   -0.0558 C   0  0  0  0  0  0  0  0  0  0  0  0
   -2.1814   -1.0279    0.3586 C   0  0  0  0  0  0  0  0  0  0  0  0
    5.9382    1.1251    0.1856 C   0  0  0  0  0  0  0  0  0  0  0  0
   -2.4910    0.2301   -0.3489 N   0  0  0  0  0  0  0  0  0  0  0  0
    6.9872    0.0858    0.2031 C   0  0  0  0  0  0  0  0  0  0  0  0
   -3.4503    0.3904   -1.3607 C   0  0  0  0  0  0  0  0  0  0  0  0
    6.6447   -1.2399    0.1524 O   0  0  0  0  0  0  0  0  0  0  0  0
    8.3619    0.1580    0.2660 C   0  0  0  0  0  0  0  0  0  0  0  0
   -3.4897    1.4293   -2.0221 O   0  0  0  0  0  0  0  0  0  0  0  0
   -4.3868   -0.6965   -1.6223 C   0  0  0  0  0  0  0  0  0  0  0  0
    7.8486   -1.8833    0.1887 C   0  0  0  0  0  0  0  0  0  0  0  0
    8.9030   -1.0990    0.2564 N   0  0  0  0  0  0  0  0  0  0  0  0
   -4.8460   -1.4438   -0.5722 O   0  0  0  0  0  0  0  0  0  0  0  0
   -5.0061   -1.1209   -2.7950 C   0  0  0  0  0  0  0  0  0  0  0  0
   -5.6769   -2.3923   -1.0628 C   0  0  0  0  0  0  0  0  0  0  0  0
   -5.8510   -2.2165   -2.4257 C   0  0  0  0  0  0  0  0  0  0  0  0
   -4.8245   -0.5858   -4.1687 C   0  0  0  0  0  0  0  0  0  0  0  0
   -6.2752   -3.3987   -0.3098 C   0  0  0  0  0  0  0  0  0  0  0  0
   -6.7366   -3.0807   -3.0959 C   0  0  0  0  0  0  0  0  0  0  0  0
   -7.1429   -4.2521   -0.9952 C   0  0  0  0  0  0  0  0  0  0  0  0
   -7.3821   -4.0883   -2.3621 C   0  0  0  0  0  0  0  0  0  0  0  0
    0.9958    2.7012    0.0450 H   0  0  0  0  0  0  0  0  0  0  0  0
   -0.5175   -2.3661    0.5851 H   0  0  0  0  0  0  0  0  0  0  0  0
   -0.8854   -1.9762   -1.0719 H   0  0  0  0  0  0  0  0  0  0  0  0
    4.4464   -0.3779    0.0868 H   0  0  0  0  0  0  0  0  0  0  0  0
   -1.6949    2.1021   -0.8102 H   0  0  0  0  0  0  0  0  0  0  0  0
   -1.8322    1.7634    0.9005 H   0  0  0  0  0  0  0  0  0  0  0  0
   -2.1617   -0.8414    1.4120 H   0  0  0  0  0  0  0  0  0  0  0  0
   -2.9357   -1.7483    0.1200 H   0  0  0  0  0  0  0  0  0  0  0  0
    6.0272    1.7104    1.0769 H   0  0  0  0  0  0  0  0  0  0  0  0
    6.0877    1.7064   -0.7001 H   0  0  0  0  0  0  0  0  0  0  0  0
    8.9053    1.0341    0.3134 H   0  0  0  0  0  0  0  0  0  0  0  0
    7.9260   -2.9121    0.1646 H   0  0  0  0  0  0  0  0  0  0  0  0
   -4.1354    0.2324   -4.1445 H   0  0  0  0  0  0  0  0  0  0  0  0
   -5.7665   -0.2478   -4.5472 H   0  0  0  0  0  0  0  0  0  0  0  0
   -4.4407   -1.3566   -4.8038 H   0  0  0  0  0  0  0  0  0  0  0  0
   -6.0879   -3.5082    0.6991 H   0  0  0  0  0  0  0  0  0  0  0  0
   -6.9082   -2.9756   -4.1080 H   0  0  0  0  0  0  0  0  0  0  0  0
   -7.6144   -5.0149   -0.4844 H   0  0  0  0  0  0  0  0  0  0  0  0
   -8.0445   -4.7188   -2.8403 H   0  0  0  0  0  0  0  0  0  0  0  0
  1  2  1  0  0  0  0
  1  3  1  0  0  0  0
  2  4  1  0  0  0  0
  2  5  2  0  0  0  0
  3  6  2  0  0  0  0
  3  7  1  0  0  0  0
  4  8  2  0  0  0  0
  4  9  1  0  0  0  0
  5  6  1  0  0  0  0
  5 31  1  0  0  0  0
  6 10  1  0  0  0  0
  7 11  1  0  0  0  0
  7 32  1  0  0  0  0
  7 33  1  0  0  0  0
  9 12  1  0  0  0  0
  9 34  1  0  0  0  0
 10 13  1  0  0  0  0
 10 35  1  0  0  0  0
 10 36  1  0  0  0  0
 11 13  1  0  0  0  0
 11 37  1  0  0  0  0
 11 38  1  0  0  0  0
 12 14  1  0  0  0  0
 12 39  1  0  0  0  0
 12 40  1  0  0  0  0
 13 15  1  0  0  0  0
 14 16  1  0  0  0  0
 14 17  2  0  0  0  0
 15 18  2  0  0  0  0
 15 19  1  0  0  0  0
 16 20  1  0  0  0  0
 17 21  1  0  0  0  0
 17 41  1  0  0  0  0
 19 22  1  0  0  0  0
 19 23  2  0  0  0  0
 20 21  2  0  0  0  0
 20 42  1  0  0  0  0
 22 24  1  0  0  0  0
 23 25  1  0  0  0  0
 23 26  1  0  0  0  0
 24 27  2  0  0  0  0
 24 25  1  0  0  0  0
 25 28  2  0  0  0  0
 26 43  1  0  0  0  0
 26 44  1  0  0  0  0
 26 45  1  0  0  0  0
 27 29  1  0  0  0  0
 27 46  1  0  0  0  0
 28 30  1  0  0  0  0
 28 47  1  0  0  0  0
 29 30  2  0  0  0  0
 29 48  1  0  0  0  0
 30 49  1  0  0  0  0
M  END
>  <Molecule Name>
CTX-1020772

>  <SMILES>
CC1=C(OC2=C1C=CC=C2)C(=O)N1CCC2=C(C1)C=C(S2)C(=O)NCC1=CN=CO1

>  <Batch Name>
CTX-1020772-1

>  <Batch Created Date>
2021-12-16

>  <Batch ID>
CTX-1020772-1

>  <External ID>
P841-0353

>  <Stereochemistry>
Achiral

>  <Amount 1>
4.0

>  <Unit 1>
mg

>  <CRO 1>
Pharmaron

>  <CRO 1 Total Amount>
14.8

>  <CRO 1 Unit>
mg

>  <Pharmaron Solubility (PBS, pH 7.4): Aqueous Solubility - Batch Mean (uM)>
7.5673

>  <Pharmaron Solubility (PBS, pH 7.4): Aqueous Solubility - Batch Mean (uM) Standard Deviation (±)>


>  <Pharmaron Solubility (PBS, pH 7.4): Aqueous Solubility - Batch Mean (uM) Count>
1.0

>  <log P>
2.33

>  <log D>
2.33

>  <Pharmaron Caliper Assay (CDK2/CCNE1): Minimum measured (%)>
56.6

>  <Pharmaron Caliper Assay (CDK2/CCNE1): IC50 - Batch Mean (uM)>
11.0

>  <Pharmaron ADPGLO (CDK2/E1-25C): Minimum measured (%)>


>  <Pharmaron ADPGLO (CDK2/E1-25C): IC50 - Batch Mean (uM)>


>  <Pharmaron ADPGLO (CDK2/E1-37C): Minimum measured (%)>


>  <Pharmaron ADPGLO (CDK2/E1-37C): IC50 - Batch Mean (uM)>


>  <IncuCyte Kuramochi RB-WT: IC50 - Batch Mean (uM)>
20.0

>  <IncuCyte Kuramochi RB-KO: IC50 - Batch Mean (uM)>
20.0

>  <DSF (npCDK2/CCNE1): dTm D - Batch Mean [Concentration: 100]>


>  <DSF (npCDK2/CCNE1): dTm D - Batch Mean [Concentration: 20.0]>
0.7879999999999999

>  <DSF (pCDK2/CCNE1): dTm D - Batch Mean [Concentration: 100]>


>  <DSF (pCDK2/CCNE1): dTm D - Batch Mean [Concentration: 20.0]>


>  <RLM: t1/2 - Batch Mean (Min)>


>  <RLM: Cl int - Batch Mean (uL/min/mg protein)>


>  <RLM: ER (Hepatic extraction ratio) - Batch Mean>


>  <HLM: t1/2 - Batch Mean (Min)>


>  <HLM: Cl int - Batch Mean (uL/min/mg protein)>


>  <HLM: ER (Hepatic extraction ratio) - Batch Mean>


>  <MDCK-WT 4% BSA: Papp (A-B) - Batch Mean (10-6, cm/s)>


>  <MDCK-WT 4% BSA: Papp (B-A) - Batch Mean (10-6, cm/s)>


>  <MDCK-WT 4% BSA: Efflux Ratio - Batch Mean>


>  <MDCK-WT 4% BSA: ~Net A_B - Batch Mean (10-6, cm/s)>


>  <pIC50>
4.958607

>  <Selection_1>
Y

>  <Selection_N>
N

>  <Serie>
Tetrahydrothienopyridine

>  <Selection_T>


>  <Train_Vs_Test>


$$$$
CTX-1020771
 OpenBabel08272613263D

 53 57  0  0  0  0  0  0  0  0999 V2000
    1.8726   -0.7011   -0.0012 S   0  0  0  0  0  0  0  0  0  0  0  0
    2.1903    0.9813    0.0511 C   0  0  0  0  0  0  0  0  0  0  0  0
    0.1954   -0.4467   -0.0335 C   0  0  0  0  0  0  0  0  0  0  0  0
    3.5378    1.5305    0.1208 C   0  0  0  0  0  0  0  0  0  0  0  0
    1.0096    1.7104    0.0256 C   0  0  0  0  0  0  0  0  0  0  0  0
   -0.1582    0.8894   -0.0323 C   0  0  0  0  0  0  0  0  0  0  0  0
   -0.7922   -1.5645   -0.0760 C   0  0  0  0  0  0  0  0  0  0  0  0
    3.7515    2.7416    0.1844 O   0  0  0  0  0  0  0  0  0  0  0  0
    4.5823    0.6353    0.1172 N   0  0  0  0  0  0  0  0  0  0  0  0
   -1.5912    1.3607   -0.0516 C   0  0  0  0  0  0  0  0  0  0  0  0
   -2.1627   -1.0259    0.3619 C   0  0  0  0  0  0  0  0  0  0  0  0
    5.9478    1.0874    0.1963 C   0  0  0  0  0  0  0  0  0  0  0  0
   -2.4866    0.2310   -0.3442 N   0  0  0  0  0  0  0  0  0  0  0  0
    6.8810   -0.0770    0.2100 C   0  0  0  0  0  0  0  0  0  0  0  0
   -3.4446    0.3836   -1.3561 C   0  0  0  0  0  0  0  0  0  0  0  0
    6.4265   -1.3830    0.1545 N   0  0  0  0  0  0  0  0  0  0  0  0
    8.2616   -0.0617    0.2792 C   0  0  0  0  0  0  0  0  0  0  0  0
   -3.4927    1.4252   -2.0169 O   0  0  0  0  0  0  0  0  0  0  0  0
   -4.3731   -0.7067   -1.6244 C   0  0  0  0  0  0  0  0  0  0  0  0
    7.5063   -2.1333    0.1946 C   0  0  0  0  0  0  0  0  0  0  0  0
    8.6384   -1.3732    0.2748 N   0  0  0  0  0  0  0  0  0  0  0  0
   -4.8327   -1.4630   -0.5797 O   0  0  0  0  0  0  0  0  0  0  0  0
   -4.9880   -1.1274   -2.8015 C   0  0  0  0  0  0  0  0  0  0  0  0
    9.9835   -1.8818    0.3470 C   0  0  0  0  0  0  0  0  0  0  0  0
   -5.6571   -2.4131   -1.0799 C   0  0  0  0  0  0  0  0  0  0  0  0
   -5.8244   -2.2325   -2.4433 C   0  0  0  0  0  0  0  0  0  0  0  0
   -4.8052   -0.5807   -4.1709 C   0  0  0  0  0  0  0  0  0  0  0  0
   -6.2524   -3.4280   -0.3361 C   0  0  0  0  0  0  0  0  0  0  0  0
   -6.6950   -3.1034   -3.1244 C   0  0  0  0  0  0  0  0  0  0  0  0
   -7.1014   -4.2911   -1.0331 C   0  0  0  0  0  0  0  0  0  0  0  0
   -7.3308   -4.1248   -2.4014 C   0  0  0  0  0  0  0  0  0  0  0  0
    0.9784    2.7417    0.0464 H   0  0  0  0  0  0  0  0  0  0  0  0
   -0.4826   -2.3442    0.5881 H   0  0  0  0  0  0  0  0  0  0  0  0
   -0.8550   -1.9587   -1.0687 H   0  0  0  0  0  0  0  0  0  0  0  0
    4.3937   -0.3292    0.0598 H   0  0  0  0  0  0  0  0  0  0  0  0
   -1.7078    2.1103   -0.8062 H   0  0  0  0  0  0  0  0  0  0  0  0
   -1.8405    1.7686    0.9056 H   0  0  0  0  0  0  0  0  0  0  0  0
   -2.1460   -0.8412    1.4157 H   0  0  0  0  0  0  0  0  0  0  0  0
   -2.9086   -1.7545    0.1215 H   0  0  0  0  0  0  0  0  0  0  0  0
    6.0797    1.6556    1.0933 H   0  0  0  0  0  0  0  0  0  0  0  0
    6.1626    1.6944   -0.6583 H   0  0  0  0  0  0  0  0  0  0  0  0
    8.8766    0.7658    0.3244 H   0  0  0  0  0  0  0  0  0  0  0  0
    7.4990   -3.1650    0.1688 H   0  0  0  0  0  0  0  0  0  0  0  0
   10.6715   -1.0642    0.4016 H   0  0  0  0  0  0  0  0  0  0  0  0
   10.1914   -2.4653   -0.5254 H   0  0  0  0  0  0  0  0  0  0  0  0
   10.0870   -2.4939    1.2185 H   0  0  0  0  0  0  0  0  0  0  0  0
   -4.1234    0.2433   -4.1379 H   0  0  0  0  0  0  0  0  0  0  0  0
   -5.7485   -0.2482   -4.5511 H   0  0  0  0  0  0  0  0  0  0  0  0
   -4.4120   -1.3436   -4.8099 H   0  0  0  0  0  0  0  0  0  0  0  0
   -6.0763   -3.5369    0.6749 H   0  0  0  0  0  0  0  0  0  0  0  0
   -6.8629   -2.9931   -4.1367 H   0  0  0  0  0  0  0  0  0  0  0  0
   -7.5660   -5.0631   -0.5299 H   0  0  0  0  0  0  0  0  0  0  0  0
   -7.9786   -4.7637   -2.8886 H   0  0  0  0  0  0  0  0  0  0  0  0
  1  2  1  0  0  0  0
  1  3  1  0  0  0  0
  2  4  1  0  0  0  0
  2  5  2  0  0  0  0
  3  6  2  0  0  0  0
  3  7  1  0  0  0  0
  4  8  2  0  0  0  0
  4  9  1  0  0  0  0
  5  6  1  0  0  0  0
  5 32  1  0  0  0  0
  6 10  1  0  0  0  0
  7 11  1  0  0  0  0
  7 33  1  0  0  0  0
  7 34  1  0  0  0  0
  9 12  1  0  0  0  0
  9 35  1  0  0  0  0
 10 13  1  0  0  0  0
 10 36  1  0  0  0  0
 10 37  1  0  0  0  0
 11 13  1  0  0  0  0
 11 38  1  0  0  0  0
 11 39  1  0  0  0  0
 12 14  1  0  0  0  0
 12 40  1  0  0  0  0
 12 41  1  0  0  0  0
 13 15  1  0  0  0  0
 14 16  1  0  0  0  0
 14 17  2  0  0  0  0
 15 18  2  0  0  0  0
 15 19  1  0  0  0  0
 16 20  2  0  0  0  0
 17 21  1  0  0  0  0
 17 42  1  0  0  0  0
 19 22  1  0  0  0  0
 19 23  2  0  0  0  0
 20 21  1  0  0  0  0
 20 43  1  0  0  0  0
 21 24  1  0  0  0  0
 22 25  1  0  0  0  0
 23 26  1  0  0  0  0
 23 27  1  0  0  0  0
 24 44  1  0  0  0  0
 24 45  1  0  0  0  0
 24 46  1  0  0  0  0
 25 28  2  0  0  0  0
 25 26  1  0  0  0  0
 26 29  2  0  0  0  0
 27 47  1  0  0  0  0
 27 48  1  0  0  0  0
 27 49  1  0  0  0  0
 28 30  1  0  0  0  0
 28 50  1  0  0  0  0
 29 31  1  0  0  0  0
 29 51  1  0  0  0  0
 30 31  2  0  0  0  0
 30 52  1  0  0  0  0
 31 53  1  0  0  0  0
M  END
>  <Molecule Name>
CTX-1020771

>  <SMILES>
CN1C=NC(CNC(=O)C2=CC3=C(CCN(C3)C(=O)C3=C(C)C4=C(O3)C=CC=C4)S2)=C1

>  <Batch Name>
CTX-1020771-1

>  <Batch Created Date>
2021-12-16

>  <Batch ID>
CTX-1020771-1

>  <External ID>
P841-0352

>  <Stereochemistry>
Achiral

>  <Amount 1>
4.5

>  <Unit 1>
mg

>  <CRO 1>
Pharmaron

>  <CRO 1 Total Amount>
20.05

>  <CRO 1 Unit>
mg

>  <Pharmaron Solubility (PBS, pH 7.4): Aqueous Solubility - Batch Mean (uM)>
29.6438

>  <Pharmaron Solubility (PBS, pH 7.4): Aqueous Solubility - Batch Mean (uM) Standard Deviation (±)>


>  <Pharmaron Solubility (PBS, pH 7.4): Aqueous Solubility - Batch Mean (uM) Count>
1.0

>  <log P>
2.66

>  <log D>
2.65

>  <Pharmaron Caliper Assay (CDK2/CCNE1): Minimum measured (%)>
36.1

>  <Pharmaron Caliper Assay (CDK2/CCNE1): IC50 - Batch Mean (uM)>
11.2

>  <Pharmaron ADPGLO (CDK2/E1-25C): Minimum measured (%)>


>  <Pharmaron ADPGLO (CDK2/E1-25C): IC50 - Batch Mean (uM)>


>  <Pharmaron ADPGLO (CDK2/E1-37C): Minimum measured (%)>


>  <Pharmaron ADPGLO (CDK2/E1-37C): IC50 - Batch Mean (uM)>


>  <IncuCyte Kuramochi RB-WT: IC50 - Batch Mean (uM)>
20.0

>  <IncuCyte Kuramochi RB-KO: IC50 - Batch Mean (uM)>
20.0

>  <DSF (npCDK2/CCNE1): dTm D - Batch Mean [Concentration: 100]>


>  <DSF (npCDK2/CCNE1): dTm D - Batch Mean [Concentration: 20.0]>
1.256

>  <DSF (pCDK2/CCNE1): dTm D - Batch Mean [Concentration: 100]>


>  <DSF (pCDK2/CCNE1): dTm D - Batch Mean [Concentration: 20.0]>


>  <RLM: t1/2 - Batch Mean (Min)>


>  <RLM: Cl int - Batch Mean (uL/min/mg protein)>


>  <RLM: ER (Hepatic extraction ratio) - Batch Mean>


>  <HLM: t1/2 - Batch Mean (Min)>


>  <HLM: Cl int - Batch Mean (uL/min/mg protein)>


>  <HLM: ER (Hepatic extraction ratio) - Batch Mean>


>  <MDCK-WT 4% BSA: Papp (A-B) - Batch Mean (10-6, cm/s)>


>  <MDCK-WT 4% BSA: Papp (B-A) - Batch Mean (10-6, cm/s)>


>  <MDCK-WT 4% BSA: Efflux Ratio - Batch Mean>


>  <MDCK-WT 4% BSA: ~Net A_B - Batch Mean (10-6, cm/s)>


>  <pIC50>
4.950782

>  <Selection_1>
Y

>  <Selection_N>
N

>  <Serie>
Tetrahydrothienopyridine

>  <Selection_T>


>  <Train_Vs_Test>


$$$$
CTX-1020770
 OpenBabel08272613263D

 49 53  0  0  0  0  0  0  0  0999 V2000
    1.8828   -0.6982    0.0019 S   0  0  0  0  0  0  0  0  0  0  0  0
    2.1971    0.9854    0.0474 C   0  0  0  0  0  0  0  0  0  0  0  0
    0.2061   -0.4453   -0.0344 C   0  0  0  0  0  0  0  0  0  0  0  0
    3.5441    1.5330    0.1159 C   0  0  0  0  0  0  0  0  0  0  0  0
    1.0173    1.7133    0.0181 C   0  0  0  0  0  0  0  0  0  0  0  0
   -0.1493    0.8896   -0.0367 C   0  0  0  0  0  0  0  0  0  0  0  0
   -0.7798   -1.5651   -0.0768 C   0  0  0  0  0  0  0  0  0  0  0  0
    3.7627    2.7426    0.1747 O   0  0  0  0  0  0  0  0  0  0  0  0
    4.5864    0.6358    0.1156 N   0  0  0  0  0  0  0  0  0  0  0  0
   -1.5829    1.3590   -0.0584 C   0  0  0  0  0  0  0  0  0  0  0  0
   -2.1519   -1.0282    0.3587 C   0  0  0  0  0  0  0  0  0  0  0  0
    5.9520    1.0895    0.1909 C   0  0  0  0  0  0  0  0  0  0  0  0
   -2.4767    0.2272   -0.3481 N   0  0  0  0  0  0  0  0  0  0  0  0
    6.8947   -0.0729    0.1941 C   0  0  0  0  0  0  0  0  0  0  0  0
   -3.4443    0.3835   -1.3522 C   0  0  0  0  0  0  0  0  0  0  0  0
    6.4039   -1.3779    0.1420 N   0  0  0  0  0  0  0  0  0  0  0  0
    8.2751    0.0188    0.2487 C   0  0  0  0  0  0  0  0  0  0  0  0
   -3.4969    1.4269   -2.0067 O   0  0  0  0  0  0  0  0  0  0  0  0
   -4.3741   -0.7062   -1.6194 C   0  0  0  0  0  0  0  0  0  0  0  0
    7.4090   -2.2266    0.1586 C   0  0  0  0  0  0  0  0  0  0  0  0
    8.9788   -1.5431    0.2353 S   0  0  0  0  0  0  0  0  0  0  0  0
   -4.8342   -1.4617   -0.5749 O   0  0  0  0  0  0  0  0  0  0  0  0
   -4.9912   -1.1239   -2.7968 C   0  0  0  0  0  0  0  0  0  0  0  0
   -5.6594   -2.4110   -1.0757 C   0  0  0  0  0  0  0  0  0  0  0  0
   -5.8234   -2.2331   -2.4400 C   0  0  0  0  0  0  0  0  0  0  0  0
   -4.8127   -0.5734   -4.1655 C   0  0  0  0  0  0  0  0  0  0  0  0
   -6.2566   -3.4251   -0.3321 C   0  0  0  0  0  0  0  0  0  0  0  0
   -6.6871   -3.1096   -3.1232 C   0  0  0  0  0  0  0  0  0  0  0  0
   -7.0963   -4.2954   -1.0314 C   0  0  0  0  0  0  0  0  0  0  0  0
   -7.3189   -4.1345   -2.4015 C   0  0  0  0  0  0  0  0  0  0  0  0
    0.9849    2.7446    0.0343 H   0  0  0  0  0  0  0  0  0  0  0  0
   -0.4698   -2.3436    0.5886 H   0  0  0  0  0  0  0  0  0  0  0  0
   -0.8407   -1.9607   -1.0692 H   0  0  0  0  0  0  0  0  0  0  0  0
    4.3970   -0.3289    0.0633 H   0  0  0  0  0  0  0  0  0  0  0  0
   -1.7000    2.1062   -0.8153 H   0  0  0  0  0  0  0  0  0  0  0  0
   -1.8333    1.7695    0.8975 H   0  0  0  0  0  0  0  0  0  0  0  0
   -2.1369   -0.8429    1.4124 H   0  0  0  0  0  0  0  0  0  0  0  0
   -2.8962   -1.7581    0.1173 H   0  0  0  0  0  0  0  0  0  0  0  0
    6.0861    1.6532    1.0904 H   0  0  0  0  0  0  0  0  0  0  0  0
    6.1601    1.6995   -0.6632 H   0  0  0  0  0  0  0  0  0  0  0  0
    8.8053    0.9032    0.2914 H   0  0  0  0  0  0  0  0  0  0  0  0
    7.2605   -3.2474    0.1271 H   0  0  0  0  0  0  0  0  0  0  0  0
   -4.1338    0.2529   -4.1318 H   0  0  0  0  0  0  0  0  0  0  0  0
   -5.7578   -0.2433   -4.5432 H   0  0  0  0  0  0  0  0  0  0  0  0
   -4.4180   -1.3335   -4.8069 H   0  0  0  0  0  0  0  0  0  0  0  0
   -6.0882   -3.5283    0.6808 H   0  0  0  0  0  0  0  0  0  0  0  0
   -6.8528   -3.0009   -4.1360 H   0  0  0  0  0  0  0  0  0  0  0  0
   -7.5591   -5.0687   -0.5287 H   0  0  0  0  0  0  0  0  0  0  0  0
   -7.9585   -4.7798   -2.8909 H   0  0  0  0  0  0  0  0  0  0  0  0
  1  2  1  0  0  0  0
  1  3  1  0  0  0  0
  2  4  1  0  0  0  0
  2  5  2  0  0  0  0
  3  6  2  0  0  0  0
  3  7  1  0  0  0  0
  4  8  2  0  0  0  0
  4  9  1  0  0  0  0
  5  6  1  0  0  0  0
  5 31  1  0  0  0  0
  6 10  1  0  0  0  0
  7 11  1  0  0  0  0
  7 32  1  0  0  0  0
  7 33  1  0  0  0  0
  9 12  1  0  0  0  0
  9 34  1  0  0  0  0
 10 13  1  0  0  0  0
 10 35  1  0  0  0  0
 10 36  1  0  0  0  0
 11 13  1  0  0  0  0
 11 37  1  0  0  0  0
 11 38  1  0  0  0  0
 12 14  1  0  0  0  0
 12 39  1  0  0  0  0
 12 40  1  0  0  0  0
 13 15  1  0  0  0  0
 14 16  1  0  0  0  0
 14 17  2  0  0  0  0
 15 18  2  0  0  0  0
 15 19  1  0  0  0  0
 16 20  2  0  0  0  0
 17 21  1  0  0  0  0
 17 41  1  0  0  0  0
 19 22  1  0  0  0  0
 19 23  2  0  0  0  0
 20 21  1  0  0  0  0
 20 42  1  0  0  0  0
 22 24  1  0  0  0  0
 23 25  1  0  0  0  0
 23 26  1  0  0  0  0
 24 27  2  0  0  0  0
 24 25  1  0  0  0  0
 25 28  2  0  0  0  0
 26 43  1  0  0  0  0
 26 44  1  0  0  0  0
 26 45  1  0  0  0  0
 27 29  1  0  0  0  0
 27 46  1  0  0  0  0
 28 30  1  0  0  0  0
 28 47  1  0  0  0  0
 29 30  2  0  0  0  0
 29 48  1  0  0  0  0
 30 49  1  0  0  0  0
M  END
>  <Molecule Name>
CTX-1020770

>  <SMILES>
CC1=C(OC2=C1C=CC=C2)C(=O)N1CCC2=C(C1)C=C(S2)C(=O)NCC1=CSC=N1

>  <Batch Name>
CTX-1020770-1

>  <Batch Created Date>
2021-12-16

>  <Batch ID>
CTX-1020770-1

>  <External ID>
P841-0351

>  <Stereochemistry>
Achiral

>  <Amount 1>
2.45

>  <Unit 1>
mg

>  <CRO 1>
Pharmaron

>  <CRO 1 Total Amount>
11.65

>  <CRO 1 Unit>
mg

>  <Pharmaron Solubility (PBS, pH 7.4): Aqueous Solubility - Batch Mean (uM)>
2.8527

>  <Pharmaron Solubility (PBS, pH 7.4): Aqueous Solubility - Batch Mean (uM) Standard Deviation (±)>


>  <Pharmaron Solubility (PBS, pH 7.4): Aqueous Solubility - Batch Mean (uM) Count>
1.0

>  <log P>
3.21

>  <log D>
3.21

>  <Pharmaron Caliper Assay (CDK2/CCNE1): Minimum measured (%)>
46.0

>  <Pharmaron Caliper Assay (CDK2/CCNE1): IC50 - Batch Mean (uM)>
28.3

>  <Pharmaron ADPGLO (CDK2/E1-25C): Minimum measured (%)>


>  <Pharmaron ADPGLO (CDK2/E1-25C): IC50 - Batch Mean (uM)>


>  <Pharmaron ADPGLO (CDK2/E1-37C): Minimum measured (%)>


>  <Pharmaron ADPGLO (CDK2/E1-37C): IC50 - Batch Mean (uM)>


>  <IncuCyte Kuramochi RB-WT: IC50 - Batch Mean (uM)>
20.0

>  <IncuCyte Kuramochi RB-KO: IC50 - Batch Mean (uM)>
20.0

>  <DSF (npCDK2/CCNE1): dTm D - Batch Mean [Concentration: 100]>


>  <DSF (npCDK2/CCNE1): dTm D - Batch Mean [Concentration: 20.0]>
1.055

>  <DSF (pCDK2/CCNE1): dTm D - Batch Mean [Concentration: 100]>


>  <DSF (pCDK2/CCNE1): dTm D - Batch Mean [Concentration: 20.0]>


>  <RLM: t1/2 - Batch Mean (Min)>


>  <RLM: Cl int - Batch Mean (uL/min/mg protein)>


>  <RLM: ER (Hepatic extraction ratio) - Batch Mean>


>  <HLM: t1/2 - Batch Mean (Min)>


>  <HLM: Cl int - Batch Mean (uL/min/mg protein)>


>  <HLM: ER (Hepatic extraction ratio) - Batch Mean>


>  <MDCK-WT 4% BSA: Papp (A-B) - Batch Mean (10-6, cm/s)>


>  <MDCK-WT 4% BSA: Papp (B-A) - Batch Mean (10-6, cm/s)>


>  <MDCK-WT 4% BSA: Efflux Ratio - Batch Mean>


>  <MDCK-WT 4% BSA: ~Net A_B - Batch Mean (10-6, cm/s)>


>  <pIC50>
4.548214

>  <Selection_1>
Y

>  <Selection_N>
N

>  <Serie>
Tetrahydrothienopyridine

>  <Selection_T>


>  <Train_Vs_Test>


$$$$
CTX-1020769
 OpenBabel08272613263D

 55 59  0  0  0  0  0  0  0  0999 V2000
    1.3181   -0.3882    0.7908 O   0  0  0  0  0  0  0  0  0  0  0  0
    2.3050   -0.0589    0.1311 C   0  0  0  0  0  0  0  0  0  0  0  0
    2.7728   -0.8338   -0.9017 N   0  0  0  0  0  0  0  0  0  0  0  0
    3.0328    1.2136    0.4512 C   0  0  0  0  0  0  0  0  0  0  0  0
    2.0966   -2.0741   -1.2026 C   0  0  0  0  0  0  0  0  0  0  0  0
    4.1075    1.5888   -0.3057 N   0  0  0  0  0  0  0  0  0  0  0  0
    2.5510    1.9546    1.5264 C   0  0  0  0  0  0  0  0  0  0  0  0
    2.7398   -2.8196   -2.3229 C   0  0  0  0  0  0  0  0  0  0  0  0
    4.7215    2.7683    0.0252 C   0  0  0  0  0  0  0  0  0  0  0  0
    3.1925    3.1354    1.8590 C   0  0  0  0  0  0  0  0  0  0  0  0
    3.8716   -2.3667   -2.9660 N   0  0  0  0  0  0  0  0  0  0  0  0
    2.3277   -4.0224   -2.8696 C   0  0  0  0  0  0  0  0  0  0  0  0
    4.2996    3.5511    1.1151 C   0  0  0  0  0  0  0  0  0  0  0  0
    5.9247    3.2192   -0.8168 C   0  0  0  0  0  0  0  0  0  0  0  0
    4.1236   -3.2746   -3.8957 C   0  0  0  0  0  0  0  0  0  0  0  0
    3.2186   -4.2881   -3.8688 N   0  0  0  0  0  0  0  0  0  0  0  0
    4.9530    4.8631    1.4633 C   0  0  0  0  0  0  0  0  0  0  0  0
    6.3140    4.6144   -0.5707 N   0  0  0  0  0  0  0  0  0  0  0  0
    3.2000   -5.4203   -4.7603 C   0  0  0  0  0  0  0  0  0  0  0  0
    6.3248    5.0317    0.8223 C   0  0  0  0  0  0  0  0  0  0  0  0
    6.8239    5.4159   -1.6012 C   0  0  0  0  0  0  0  0  0  0  0  0
    7.3725    4.9175   -2.5833 O   0  0  0  0  0  0  0  0  0  0  0  0
    6.4305    6.8359   -1.5513 C   0  0  0  0  0  0  0  0  0  0  0  0
    5.2521    7.0676   -0.8689 O   0  0  0  0  0  0  0  0  0  0  0  0
    6.5339    7.8596   -2.5010 C   0  0  0  0  0  0  0  0  0  0  0  0
    4.4282    7.6249   -1.7923 C   0  0  0  0  0  0  0  0  0  0  0  0
    5.1706    8.0425   -2.8860 C   0  0  0  0  0  0  0  0  0  0  0  0
    7.7072    8.5503   -3.0777 C   0  0  0  0  0  0  0  0  0  0  0  0
    3.0520    7.6905   -1.6753 C   0  0  0  0  0  0  0  0  0  0  0  0
    4.4792    8.5228   -4.0085 C   0  0  0  0  0  0  0  0  0  0  0  0
    2.3819    8.1168   -2.8211 C   0  0  0  0  0  0  0  0  0  0  0  0
    3.0759    8.5047   -3.9722 C   0  0  0  0  0  0  0  0  0  0  0  0
    3.5550   -0.5490   -1.4275 H   0  0  0  0  0  0  0  0  0  0  0  0
    1.0843   -1.8560   -1.4724 H   0  0  0  0  0  0  0  0  0  0  0  0
    2.1476   -2.6915   -0.3303 H   0  0  0  0  0  0  0  0  0  0  0  0
    1.7324    1.6303    2.0647 H   0  0  0  0  0  0  0  0  0  0  0  0
    2.8552    3.7047    2.6510 H   0  0  0  0  0  0  0  0  0  0  0  0
    1.5192   -4.5961   -2.5829 H   0  0  0  0  0  0  0  0  0  0  0  0
    5.6741    3.1137   -1.8517 H   0  0  0  0  0  0  0  0  0  0  0  0
    6.7551    2.6041   -0.5392 H   0  0  0  0  0  0  0  0  0  0  0  0
    4.9113   -3.2195   -4.5601 H   0  0  0  0  0  0  0  0  0  0  0  0
    5.0640    4.9177    2.5261 H   0  0  0  0  0  0  0  0  0  0  0  0
    4.3253    5.6438    1.0873 H   0  0  0  0  0  0  0  0  0  0  0  0
    2.3785   -6.0583   -4.5095 H   0  0  0  0  0  0  0  0  0  0  0  0
    4.1163   -5.9645   -4.6648 H   0  0  0  0  0  0  0  0  0  0  0  0
    3.0915   -5.0787   -5.7685 H   0  0  0  0  0  0  0  0  0  0  0  0
    7.0350    4.4374    1.3583 H   0  0  0  0  0  0  0  0  0  0  0  0
    6.5901    6.0675    0.8617 H   0  0  0  0  0  0  0  0  0  0  0  0
    8.5967    8.2101   -2.5899 H   0  0  0  0  0  0  0  0  0  0  0  0
    7.6046    9.6060   -2.9366 H   0  0  0  0  0  0  0  0  0  0  0  0
    7.7694    8.3347   -4.1239 H   0  0  0  0  0  0  0  0  0  0  0  0
    2.5574    7.4421   -0.8042 H   0  0  0  0  0  0  0  0  0  0  0  0
    4.9860    8.8779   -4.8344 H   0  0  0  0  0  0  0  0  0  0  0  0
    1.3503    8.1469   -2.8201 H   0  0  0  0  0  0  0  0  0  0  0  0
    2.5452    8.7834   -4.8123 H   0  0  0  0  0  0  0  0  0  0  0  0
  1  2  2  0  0  0  0
  2  3  1  0  0  0  0
  2  4  1  0  0  0  0
  3  5  1  0  0  0  0
  3 33  1  0  0  0  0
  4  6  2  0  0  0  0
  4  7  1  0  0  0  0
  5  8  1  0  0  0  0
  5 34  1  0  0  0  0
  5 35  1  0  0  0  0
  6  9  1  0  0  0  0
  7 10  2  0  0  0  0
  7 36  1  0  0  0  0
  8 11  1  0  0  0  0
  8 12  2  0  0  0  0
  9 13  2  0  0  0  0
  9 14  1  0  0  0  0
 10 13  1  0  0  0  0
 10 37  1  0  0  0  0
 11 15  2  0  0  0  0
 12 16  1  0  0  0  0
 12 38  1  0  0  0  0
 13 17  1  0  0  0  0
 14 18  1  0  0  0  0
 14 39  1  0  0  0  0
 14 40  1  0  0  0  0
 15 16  1  0  0  0  0
 15 41  1  0  0  0  0
 16 19  1  0  0  0  0
 17 20  1  0  0  0  0
 17 42  1  0  0  0  0
 17 43  1  0  0  0  0
 18 21  1  0  0  0  0
 18 20  1  0  0  0  0
 19 44  1  0  0  0  0
 19 45  1  0  0  0  0
 19 46  1  0  0  0  0
 20 47  1  0  0  0  0
 20 48  1  0  0  0  0
 21 22  2  0  0  0  0
 21 23  1  0  0  0  0
 23 24  1  0  0  0  0
 23 25  2  0  0  0  0
 24 26  1  0  0  0  0
 25 27  1  0  0  0  0
 25 28  1  0  0  0  0
 26 29  2  0  0  0  0
 26 27  1  0  0  0  0
 27 30  2  0  0  0  0
 28 49  1  0  0  0  0
 28 50  1  0  0  0  0
 28 51  1  0  0  0  0
 29 31  1  0  0  0  0
 29 52  1  0  0  0  0
 30 32  1  0  0  0  0
 30 53  1  0  0  0  0
 31 32  2  0  0  0  0
 31 54  1  0  0  0  0
 32 55  1  0  0  0  0
M  END
>  <Molecule Name>
CTX-1020769

>  <SMILES>
CN1C=NC(CNC(=O)C2=NC3=C(CCN(C3)C(=O)C3=C(C)C4=C(O3)C=CC=C4)C=C2)=C1

>  <Batch Name>
CTX-1020769-1

>  <Batch Created Date>
2021-12-16

>  <Batch ID>
CTX-1020769-1

>  <External ID>
P841-0364

>  <Stereochemistry>
Achiral

>  <Amount 1>
5.95

>  <Unit 1>
mg

>  <CRO 1>
Pharmaron

>  <CRO 1 Total Amount>
29.85

>  <CRO 1 Unit>
mg

>  <Pharmaron Solubility (PBS, pH 7.4): Aqueous Solubility - Batch Mean (uM)>
303.4483

>  <Pharmaron Solubility (PBS, pH 7.4): Aqueous Solubility - Batch Mean (uM) Standard Deviation (±)>


>  <Pharmaron Solubility (PBS, pH 7.4): Aqueous Solubility - Batch Mean (uM) Count>
1.0

>  <log P>
1.86

>  <log D>
1.85

>  <Pharmaron Caliper Assay (CDK2/CCNE1): Minimum measured (%)>
83.9

>  <Pharmaron Caliper Assay (CDK2/CCNE1): IC50 - Batch Mean (uM)>
45.1

>  <Pharmaron ADPGLO (CDK2/E1-25C): Minimum measured (%)>


>  <Pharmaron ADPGLO (CDK2/E1-25C): IC50 - Batch Mean (uM)>


>  <Pharmaron ADPGLO (CDK2/E1-37C): Minimum measured (%)>


>  <Pharmaron ADPGLO (CDK2/E1-37C): IC50 - Batch Mean (uM)>


>  <IncuCyte Kuramochi RB-WT: IC50 - Batch Mean (uM)>
20.0

>  <IncuCyte Kuramochi RB-KO: IC50 - Batch Mean (uM)>
20.0

>  <DSF (npCDK2/CCNE1): dTm D - Batch Mean [Concentration: 100]>


>  <DSF (npCDK2/CCNE1): dTm D - Batch Mean [Concentration: 20.0]>
-0.046

>  <DSF (pCDK2/CCNE1): dTm D - Batch Mean [Concentration: 100]>


>  <DSF (pCDK2/CCNE1): dTm D - Batch Mean [Concentration: 20.0]>


>  <RLM: t1/2 - Batch Mean (Min)>


>  <RLM: Cl int - Batch Mean (uL/min/mg protein)>


>  <RLM: ER (Hepatic extraction ratio) - Batch Mean>


>  <HLM: t1/2 - Batch Mean (Min)>


>  <HLM: Cl int - Batch Mean (uL/min/mg protein)>


>  <HLM: ER (Hepatic extraction ratio) - Batch Mean>


>  <MDCK-WT 4% BSA: Papp (A-B) - Batch Mean (10-6, cm/s)>


>  <MDCK-WT 4% BSA: Papp (B-A) - Batch Mean (10-6, cm/s)>


>  <MDCK-WT 4% BSA: Efflux Ratio - Batch Mean>


>  <MDCK-WT 4% BSA: ~Net A_B - Batch Mean (10-6, cm/s)>


>  <pIC50>
4.345823

>  <Selection_1>
Y

>  <Selection_N>


>  <Serie>
Naphthyridine

>  <Selection_T>
N

>  <Train_Vs_Test>


$$$$
CTX-1020767
 OpenBabel08272613263D

 52 56  0  0  0  0  0  0  0  0999 V2000
    1.3584    0.2974    0.7332 O   0  0  0  0  0  0  0  0  0  0  0  0
    2.3154   -0.0308    0.0385 C   0  0  0  0  0  0  0  0  0  0  0  0
    2.7785   -1.3343    0.0137 N   0  0  0  0  0  0  0  0  0  0  0  0
    3.0124    0.9926   -0.8112 C   0  0  0  0  0  0  0  0  0  0  0  0
    2.1232   -2.3158    0.8503 C   0  0  0  0  0  0  0  0  0  0  0  0
    4.0189    0.6082   -1.6503 N   0  0  0  0  0  0  0  0  0  0  0  0
    2.5411    2.2995   -0.7226 C   0  0  0  0  0  0  0  0  0  0  0  0
    2.7153   -3.6728    0.6864 C   0  0  0  0  0  0  0  0  0  0  0  0
    4.5536    1.5741   -2.4648 C   0  0  0  0  0  0  0  0  0  0  0  0
    3.0993    3.2649   -1.5424 C   0  0  0  0  0  0  0  0  0  0  0  0
    4.0428   -3.8673    0.3573 N   0  0  0  0  0  0  0  0  0  0  0  0
    2.0949   -4.8988    0.8917 C   0  0  0  0  0  0  0  0  0  0  0  0
    4.1178    2.9134   -2.4311 C   0  0  0  0  0  0  0  0  0  0  0  0
    5.6799    1.1669   -3.4243 C   0  0  0  0  0  0  0  0  0  0  0  0
    4.2174   -5.1647    0.3606 C   0  0  0  0  0  0  0  0  0  0  0  0
    3.0594   -5.8344    0.6723 N   0  0  0  0  0  0  0  0  0  0  0  0
    4.6408    3.9536   -3.3842 C   0  0  0  0  0  0  0  0  0  0  0  0
    5.9265    2.1622   -4.4754 N   0  0  0  0  0  0  0  0  0  0  0  0
    5.9522    3.5510   -4.0459 C   0  0  0  0  0  0  0  0  0  0  0  0
    6.3213    1.7687   -5.7596 C   0  0  0  0  0  0  0  0  0  0  0  0
    6.9049    0.7022   -5.9480 O   0  0  0  0  0  0  0  0  0  0  0  0
    5.7633    2.5694   -6.8614 C   0  0  0  0  0  0  0  0  0  0  0  0
    4.5723    3.1945   -6.5520 O   0  0  0  0  0  0  0  0  0  0  0  0
    5.7585    2.3703   -8.2439 C   0  0  0  0  0  0  0  0  0  0  0  0
    3.6994    2.7206   -7.4635 C   0  0  0  0  0  0  0  0  0  0  0  0
    4.3802    2.0963   -8.5007 C   0  0  0  0  0  0  0  0  0  0  0  0
    6.8613    2.3288   -9.2316 C   0  0  0  0  0  0  0  0  0  0  0  0
    2.3212    2.7933   -7.3560 C   0  0  0  0  0  0  0  0  0  0  0  0
    3.6347    1.4101   -9.4749 C   0  0  0  0  0  0  0  0  0  0  0  0
    1.5936    2.0638   -8.2957 C   0  0  0  0  0  0  0  0  0  0  0  0
    2.2412    1.3636   -9.3233 C   0  0  0  0  0  0  0  0  0  0  0  0
    3.5368   -1.5882   -0.5605 H   0  0  0  0  0  0  0  0  0  0  0  0
    1.0868   -2.3570    0.5876 H   0  0  0  0  0  0  0  0  0  0  0  0
    2.2524   -2.0197    1.8704 H   0  0  0  0  0  0  0  0  0  0  0  0
    1.7899    2.5439   -0.0585 H   0  0  0  0  0  0  0  0  0  0  0  0
    2.7645    4.2400   -1.4972 H   0  0  0  0  0  0  0  0  0  0  0  0
    1.1110   -5.0652    1.1549 H   0  0  0  0  0  0  0  0  0  0  0  0
    5.4142    0.2400   -3.8881 H   0  0  0  0  0  0  0  0  0  0  0  0
    6.5769    1.0823   -2.8472 H   0  0  0  0  0  0  0  0  0  0  0  0
    5.1161   -5.6280    0.1541 H   0  0  0  0  0  0  0  0  0  0  0  0
    2.9474   -6.8110    0.7270 H   0  0  0  0  0  0  0  0  0  0  0  0
    4.7974    4.8633   -2.8432 H   0  0  0  0  0  0  0  0  0  0  0  0
    3.9137    4.0697   -4.1606 H   0  0  0  0  0  0  0  0  0  0  0  0
    6.7504    3.6840   -3.3459 H   0  0  0  0  0  0  0  0  0  0  0  0
    6.0965    4.1672   -4.9087 H   0  0  0  0  0  0  0  0  0  0  0  0
    7.7824    2.5799   -8.7486 H   0  0  0  0  0  0  0  0  0  0  0  0
    6.6658    3.0317  -10.0143 H   0  0  0  0  0  0  0  0  0  0  0  0
    6.9325    1.3447   -9.6456 H   0  0  0  0  0  0  0  0  0  0  0  0
    1.8592    3.3545   -6.6235 H   0  0  0  0  0  0  0  0  0  0  0  0
    4.0982    0.9549  -10.2767 H   0  0  0  0  0  0  0  0  0  0  0  0
    0.5637    2.0389   -8.2337 H   0  0  0  0  0  0  0  0  0  0  0  0
    1.6802    0.8018   -9.9825 H   0  0  0  0  0  0  0  0  0  0  0  0
  1  2  2  0  0  0  0
  2  3  1  0  0  0  0
  2  4  1  0  0  0  0
  3  5  1  0  0  0  0
  3 32  1  0  0  0  0
  4  6  2  0  0  0  0
  4  7  1  0  0  0  0
  5  8  1  0  0  0  0
  5 33  1  0  0  0  0
  5 34  1  0  0  0  0
  6  9  1  0  0  0  0
  7 10  2  0  0  0  0
  7 35  1  0  0  0  0
  8 11  1  0  0  0  0
  8 12  2  0  0  0  0
  9 13  2  0  0  0  0
  9 14  1  0  0  0  0
 10 13  1  0  0  0  0
 10 36  1  0  0  0  0
 11 15  2  0  0  0  0
 12 16  1  0  0  0  0
 12 37  1  0  0  0  0
 13 17  1  0  0  0  0
 14 18  1  0  0  0  0
 14 38  1  0  0  0  0
 14 39  1  0  0  0  0
 15 16  1  0  0  0  0
 15 40  1  0  0  0  0
 16 41  1  0  0  0  0
 17 19  1  0  0  0  0
 17 42  1  0  0  0  0
 17 43  1  0  0  0  0
 18 20  1  0  0  0  0
 18 19  1  0  0  0  0
 19 44  1  0  0  0  0
 19 45  1  0  0  0  0
 20 21  2  0  0  0  0
 20 22  1  0  0  0  0
 22 23  1  0  0  0  0
 22 24  2  0  0  0  0
 23 25  1  0  0  0  0
 24 26  1  0  0  0  0
 24 27  1  0  0  0  0
 25 28  2  0  0  0  0
 25 26  1  0  0  0  0
 26 29  2  0  0  0  0
 27 46  1  0  0  0  0
 27 47  1  0  0  0  0
 27 48  1  0  0  0  0
 28 30  1  0  0  0  0
 28 49  1  0  0  0  0
 29 31  1  0  0  0  0
 29 50  1  0  0  0  0
 30 31  2  0  0  0  0
 30 51  1  0  0  0  0
 31 52  1  0  0  0  0
M  END
>  <Molecule Name>
CTX-1020767

>  <SMILES>
CC1=C(OC2=C1C=CC=C2)C(=O)N1CCC2=C(C1)N=C(C=C2)C(=O)NCC1=CNC=N1

>  <Batch Name>
CTX-1020767-1

>  <Batch Created Date>
2021-12-16

>  <Batch ID>
CTX-1020767-1

>  <External ID>
P841-0365

>  <Stereochemistry>
Achiral

>  <Amount 1>
3.95

>  <Unit 1>
mg

>  <CRO 1>
Pharmaron

>  <CRO 1 Total Amount>
24.15

>  <CRO 1 Unit>
mg

>  <Pharmaron Solubility (PBS, pH 7.4): Aqueous Solubility - Batch Mean (uM)>
101.3274

>  <Pharmaron Solubility (PBS, pH 7.4): Aqueous Solubility - Batch Mean (uM) Standard Deviation (±)>


>  <Pharmaron Solubility (PBS, pH 7.4): Aqueous Solubility - Batch Mean (uM) Count>
1.0

>  <log P>
1.48

>  <log D>
1.43

>  <Pharmaron Caliper Assay (CDK2/CCNE1): Minimum measured (%)>
66.7

>  <Pharmaron Caliper Assay (CDK2/CCNE1): IC50 - Batch Mean (uM)>
89.0

>  <Pharmaron ADPGLO (CDK2/E1-25C): Minimum measured (%)>


>  <Pharmaron ADPGLO (CDK2/E1-25C): IC50 - Batch Mean (uM)>


>  <Pharmaron ADPGLO (CDK2/E1-37C): Minimum measured (%)>


>  <Pharmaron ADPGLO (CDK2/E1-37C): IC50 - Batch Mean (uM)>


>  <IncuCyte Kuramochi RB-WT: IC50 - Batch Mean (uM)>
20.0

>  <IncuCyte Kuramochi RB-KO: IC50 - Batch Mean (uM)>
20.0

>  <DSF (npCDK2/CCNE1): dTm D - Batch Mean [Concentration: 100]>


>  <DSF (npCDK2/CCNE1): dTm D - Batch Mean [Concentration: 20.0]>
0.054000000000000006

>  <DSF (pCDK2/CCNE1): dTm D - Batch Mean [Concentration: 100]>


>  <DSF (pCDK2/CCNE1): dTm D - Batch Mean [Concentration: 20.0]>


>  <RLM: t1/2 - Batch Mean (Min)>


>  <RLM: Cl int - Batch Mean (uL/min/mg protein)>


>  <RLM: ER (Hepatic extraction ratio) - Batch Mean>


>  <HLM: t1/2 - Batch Mean (Min)>


>  <HLM: Cl int - Batch Mean (uL/min/mg protein)>


>  <HLM: ER (Hepatic extraction ratio) - Batch Mean>


>  <MDCK-WT 4% BSA: Papp (A-B) - Batch Mean (10-6, cm/s)>


>  <MDCK-WT 4% BSA: Papp (B-A) - Batch Mean (10-6, cm/s)>


>  <MDCK-WT 4% BSA: Efflux Ratio - Batch Mean>


>  <MDCK-WT 4% BSA: ~Net A_B - Batch Mean (10-6, cm/s)>


>  <pIC50>
4.05061

>  <Selection_1>
Y

>  <Selection_N>
Y

>  <Serie>
Naphthyridine

>  <Selection_T>
N

>  <Train_Vs_Test>


$$$$
CTX-1020766
 OpenBabel08272613263D

 51 55  0  0  0  0  0  0  0  0999 V2000
    4.0793    5.9767   -2.1289 S   0  0  0  0  0  0  0  0  0  0  0  0
    4.8538    6.5326   -0.7049 C   0  0  0  0  0  0  0  0  0  0  0  0
    3.7080    4.5092   -1.3271 C   0  0  0  0  0  0  0  0  0  0  0  0
    4.8542    5.7068    0.3182 N   0  0  0  0  0  0  0  0  0  0  0  0
    4.1922    4.5335   -0.0298 C   0  0  0  0  0  0  0  0  0  0  0  0
    4.0502    3.4477    0.9873 C   0  0  0  0  0  0  0  0  0  0  0  0
    5.1498    2.5207    0.8695 N   0  0  0  0  0  0  0  0  0  0  0  0
    5.1043    1.4312    0.0334 C   0  0  0  0  0  0  0  0  0  0  0  0
    4.1268    1.1460   -0.6494 O   0  0  0  0  0  0  0  0  0  0  0  0
    6.3496    0.5858   -0.0056 C   0  0  0  0  0  0  0  0  0  0  0  0
    7.3749    0.9258    0.8337 N   0  0  0  0  0  0  0  0  0  0  0  0
    6.3804   -0.5009   -0.8668 C   0  0  0  0  0  0  0  0  0  0  0  0
    8.4811    0.1217    0.8332 C   0  0  0  0  0  0  0  0  0  0  0  0
    7.5173   -1.2950   -0.8708 C   0  0  0  0  0  0  0  0  0  0  0  0
    8.5828   -0.9947   -0.0225 C   0  0  0  0  0  0  0  0  0  0  0  0
    9.6257    0.4755    1.7745 C   0  0  0  0  0  0  0  0  0  0  0  0
    9.7771   -1.9148    0.0153 C   0  0  0  0  0  0  0  0  0  0  0  0
   10.5877   -0.6161    1.9429 N   0  0  0  0  0  0  0  0  0  0  0  0
   10.9802   -1.3067    0.7251 C   0  0  0  0  0  0  0  0  0  0  0  0
   11.3038   -0.7558    3.1372 C   0  0  0  0  0  0  0  0  0  0  0  0
   11.4871    0.2029    3.8863 O   0  0  0  0  0  0  0  0  0  0  0  0
   11.5631   -2.1379    3.5514 C   0  0  0  0  0  0  0  0  0  0  0  0
   10.6971   -3.0736    3.0289 O   0  0  0  0  0  0  0  0  0  0  0  0
   12.1141   -2.6892    4.7085 C   0  0  0  0  0  0  0  0  0  0  0  0
   10.2721   -3.7909    4.0950 C   0  0  0  0  0  0  0  0  0  0  0  0
   11.0400   -3.4879    5.2068 C   0  0  0  0  0  0  0  0  0  0  0  0
   13.4144   -2.4621    5.3837 C   0  0  0  0  0  0  0  0  0  0  0  0
    9.1733   -4.6355    4.0878 C   0  0  0  0  0  0  0  0  0  0  0  0
   10.6370   -3.9905    6.4540 C   0  0  0  0  0  0  0  0  0  0  0  0
    8.7640   -5.0942    5.3389 C   0  0  0  0  0  0  0  0  0  0  0  0
    9.4606   -4.7554    6.5049 C   0  0  0  0  0  0  0  0  0  0  0  0
    5.2955    7.4639   -0.6532 H   0  0  0  0  0  0  0  0  0  0  0  0
    3.1962    3.7193   -1.7506 H   0  0  0  0  0  0  0  0  0  0  0  0
    3.1289    2.9282    0.8259 H   0  0  0  0  0  0  0  0  0  0  0  0
    4.0546    3.8784    1.9667 H   0  0  0  0  0  0  0  0  0  0  0  0
    5.9605    2.6742    1.4067 H   0  0  0  0  0  0  0  0  0  0  0  0
    5.5819   -0.7120   -1.4856 H   0  0  0  0  0  0  0  0  0  0  0  0
    7.5751   -2.1092   -1.5023 H   0  0  0  0  0  0  0  0  0  0  0  0
    9.2161    0.7195    2.7324 H   0  0  0  0  0  0  0  0  0  0  0  0
   10.1515    1.3010    1.3423 H   0  0  0  0  0  0  0  0  0  0  0  0
   10.0580   -2.1490   -0.9903 H   0  0  0  0  0  0  0  0  0  0  0  0
    9.4900   -2.7865    0.5654 H   0  0  0  0  0  0  0  0  0  0  0  0
   11.4557   -0.6092    0.0677 H   0  0  0  0  0  0  0  0  0  0  0  0
   11.6495   -2.0986    0.9893 H   0  0  0  0  0  0  0  0  0  0  0  0
   14.0233   -1.8229    4.7791 H   0  0  0  0  0  0  0  0  0  0  0  0
   13.9114   -3.3991    5.5249 H   0  0  0  0  0  0  0  0  0  0  0  0
   13.2468   -2.0004    6.3343 H   0  0  0  0  0  0  0  0  0  0  0  0
    8.6913   -4.9062    3.2163 H   0  0  0  0  0  0  0  0  0  0  0  0
   11.1880   -3.8038    7.3064 H   0  0  0  0  0  0  0  0  0  0  0  0
    7.9290   -5.6968    5.4071 H   0  0  0  0  0  0  0  0  0  0  0  0
    9.1029   -5.0737    7.4190 H   0  0  0  0  0  0  0  0  0  0  0  0
  1  2  1  0  0  0  0
  1  3  1  0  0  0  0
  2  4  2  0  0  0  0
  2 32  1  0  0  0  0
  3  5  2  0  0  0  0
  3 33  1  0  0  0  0
  4  5  1  0  0  0  0
  5  6  1  0  0  0  0
  6  7  1  0  0  0  0
  6 34  1  0  0  0  0
  6 35  1  0  0  0  0
  7  8  1  0  0  0  0
  7 36  1  0  0  0  0
  8  9  2  0  0  0  0
  8 10  1  0  0  0  0
 10 11  2  0  0  0  0
 10 12  1  0  0  0  0
 11 13  1  0  0  0  0
 12 14  2  0  0  0  0
 12 37  1  0  0  0  0
 13 15  2  0  0  0  0
 13 16  1  0  0  0  0
 14 15  1  0  0  0  0
 14 38  1  0  0  0  0
 15 17  1  0  0  0  0
 16 18  1  0  0  0  0
 16 39  1  0  0  0  0
 16 40  1  0  0  0  0
 17 19  1  0  0  0  0
 17 41  1  0  0  0  0
 17 42  1  0  0  0  0
 18 20  1  0  0  0  0
 18 19  1  0  0  0  0
 19 43  1  0  0  0  0
 19 44  1  0  0  0  0
 20 21  2  0  0  0  0
 20 22  1  0  0  0  0
 22 23  1  0  0  0  0
 22 24  2  0  0  0  0
 23 25  1  0  0  0  0
 24 26  1  0  0  0  0
 24 27  1  0  0  0  0
 25 28  2  0  0  0  0
 25 26  1  0  0  0  0
 26 29  2  0  0  0  0
 27 45  1  0  0  0  0
 27 46  1  0  0  0  0
 27 47  1  0  0  0  0
 28 30  1  0  0  0  0
 28 48  1  0  0  0  0
 29 31  1  0  0  0  0
 29 49  1  0  0  0  0
 30 31  2  0  0  0  0
 30 50  1  0  0  0  0
 31 51  1  0  0  0  0
M  END
>  <Molecule Name>
CTX-1020766

>  <SMILES>
CC1=C(OC2=C1C=CC=C2)C(=O)N1CCC2=C(C1)N=C(C=C2)C(=O)NCC1=CSC=N1

>  <Batch Name>
CTX-1020766-1

>  <Batch Created Date>
2021-12-16

>  <Batch ID>
CTX-1020766-1

>  <External ID>
P841-0371

>  <Stereochemistry>
Achiral

>  <Amount 1>
0.0

>  <Unit 1>
mg

>  <CRO 1>
Pharmaron

>  <CRO 1 Total Amount>
0.0

>  <CRO 1 Unit>
mg

>  <Pharmaron Solubility (PBS, pH 7.4): Aqueous Solubility - Batch Mean (uM)>


>  <Pharmaron Solubility (PBS, pH 7.4): Aqueous Solubility - Batch Mean (uM) Standard Deviation (±)>


>  <Pharmaron Solubility (PBS, pH 7.4): Aqueous Solubility - Batch Mean (uM) Count>


>  <log P>
2.42

>  <log D>
2.42

>  <Pharmaron Caliper Assay (CDK2/CCNE1): Minimum measured (%)>
67.9

>  <Pharmaron Caliper Assay (CDK2/CCNE1): IC50 - Batch Mean (uM)>
40.0

>  <Pharmaron ADPGLO (CDK2/E1-25C): Minimum measured (%)>


>  <Pharmaron ADPGLO (CDK2/E1-25C): IC50 - Batch Mean (uM)>


>  <Pharmaron ADPGLO (CDK2/E1-37C): Minimum measured (%)>


>  <Pharmaron ADPGLO (CDK2/E1-37C): IC50 - Batch Mean (uM)>


>  <IncuCyte Kuramochi RB-WT: IC50 - Batch Mean (uM)>


>  <IncuCyte Kuramochi RB-KO: IC50 - Batch Mean (uM)>


>  <DSF (npCDK2/CCNE1): dTm D - Batch Mean [Concentration: 100]>


>  <DSF (npCDK2/CCNE1): dTm D - Batch Mean [Concentration: 20.0]>


>  <DSF (pCDK2/CCNE1): dTm D - Batch Mean [Concentration: 100]>


>  <DSF (pCDK2/CCNE1): dTm D - Batch Mean [Concentration: 20.0]>


>  <RLM: t1/2 - Batch Mean (Min)>


>  <RLM: Cl int - Batch Mean (uL/min/mg protein)>


>  <RLM: ER (Hepatic extraction ratio) - Batch Mean>


>  <HLM: t1/2 - Batch Mean (Min)>


>  <HLM: Cl int - Batch Mean (uL/min/mg protein)>


>  <HLM: ER (Hepatic extraction ratio) - Batch Mean>


>  <MDCK-WT 4% BSA: Papp (A-B) - Batch Mean (10-6, cm/s)>


>  <MDCK-WT 4% BSA: Papp (B-A) - Batch Mean (10-6, cm/s)>


>  <MDCK-WT 4% BSA: Efflux Ratio - Batch Mean>


>  <MDCK-WT 4% BSA: ~Net A_B - Batch Mean (10-6, cm/s)>


>  <pIC50>
4.39794

>  <Selection_1>
Y

>  <Selection_N>


>  <Serie>
Naphthyridine

>  <Selection_T>
N

>  <Train_Vs_Test>


$$$$
CTX-1020759
 OpenBabel08272613263D

 78 83  0  0  0  0  0  0  0  0999 V2000
    1.4129   -0.3254    0.5590 O   0  0  0  0  0  0  0  0  0  0  0  0
    2.3423    0.0135   -0.1608 C   0  0  0  0  0  0  0  0  0  0  0  0
    2.7508   -0.7405   -1.2397 N   0  0  0  0  0  0  0  0  0  0  0  0
    3.0886    1.3079    0.1213 C   0  0  0  0  0  0  0  0  0  0  0  0
    2.1185   -2.0283   -1.5122 C   0  0  0  0  0  0  0  0  0  0  0  0
    4.1410    1.7181   -0.6686 N   0  0  0  0  0  0  0  0  0  0  0  0
    2.6306    2.0421    1.2074 C   0  0  0  0  0  0  0  0  0  0  0  0
    2.2356   -2.4365   -2.9560 C   0  0  0  0  0  0  0  0  0  0  0  0
    4.7462    2.9230   -0.3447 C   0  0  0  0  0  0  0  0  0  0  0  0
    3.2640    3.2336    1.5290 C   0  0  0  0  0  0  0  0  0  0  0  0
    2.8536   -3.6362   -3.3133 C   0  0  0  0  0  0  0  0  0  0  0  0
    1.6942   -1.6403   -3.9723 C   0  0  0  0  0  0  0  0  0  0  0  0
    4.3483    3.6816    0.7695 C   0  0  0  0  0  0  0  0  0  0  0  0
    5.9209    3.4494   -1.2031 C   0  0  0  0  0  0  0  0  0  0  0  0
    2.9686   -3.9973   -4.6585 C   0  0  0  0  0  0  0  0  0  0  0  0
    1.8303   -2.0033   -5.3193 C   0  0  0  0  0  0  0  0  0  0  0  0
    5.0057    4.9942    1.1115 C   0  0  0  0  0  0  0  0  0  0  0  0
    6.3791    4.8640   -0.9017 N   0  0  0  0  0  0  0  0  0  0  0  0
    2.4838   -3.1830   -5.6936 C   0  0  0  0  0  0  0  0  0  0  0  0
    6.4021    5.1732    0.5061 C   0  0  0  0  0  0  0  0  0  0  0  0
    6.6249    5.7572   -1.9759 C   0  0  0  0  0  0  0  0  0  0  0  0
    2.6107   -3.6050   -7.0039 N   0  0  0  0  0  0  0  0  0  0  0  0
    6.3288    5.3084   -3.0853 O   0  0  0  0  0  0  0  0  0  0  0  0
    7.1345    7.1880   -1.9246 C   0  0  0  0  0  0  0  0  0  0  0  0
    1.7070   -3.1260   -8.0592 C   0  0  0  0  0  0  0  0  0  0  0  0
    3.9562   -3.9486   -7.5047 C   0  0  0  0  0  0  0  0  0  0  0  0
    8.0630    8.0150   -1.1817 N   0  0  0  0  0  0  0  0  0  0  0  0
    6.9563    7.9529   -3.0797 C   0  0  0  0  0  0  0  0  0  0  0  0
    1.6149   -4.2091   -9.1632 C   0  0  0  0  0  0  0  0  0  0  0  0
    3.8252   -5.0121   -8.6194 C   0  0  0  0  0  0  0  0  0  0  0  0
    8.1202    9.4007   -1.6928 C   0  0  0  0  0  0  0  0  0  0  0  0
    9.1512    7.3862   -0.4336 C   0  0  0  0  0  0  0  0  0  0  0  0
    7.4461    9.2670   -2.9140 C   0  0  0  0  0  0  0  0  0  0  0  0
    2.9420   -4.5635   -9.7222 N   0  3  0  0  0  0  0  0  0  0  0  0
    8.7404   10.7523   -1.3865 C   0  0  0  0  0  0  0  0  0  0  0  0
    9.8467    6.1817   -1.1207 C   0  0  0  0  0  0  0  0  0  0  0  0
    7.3301   10.3600   -3.7946 C   0  0  0  0  0  0  0  0  0  0  0  0
    2.8144   -5.6060  -10.7354 C   0  0  0  0  0  0  0  0  0  0  0  0
    8.8509   11.7133   -2.4630 C   0  0  0  0  0  0  0  0  0  0  0  0
   10.4290    5.2949   -0.1603 O   0  0  0  0  0  0  0  0  0  0  0  0
    8.0491   11.5334   -3.5818 C   0  0  0  0  0  0  0  0  0  0  0  0
    3.4691   -0.4109   -1.8268 H   0  0  0  0  0  0  0  0  0  0  0  0
    1.0812   -1.9613   -1.2581 H   0  0  0  0  0  0  0  0  0  0  0  0
    2.6218   -2.7673   -0.9246 H   0  0  0  0  0  0  0  0  0  0  0  0
    1.8310    1.7063    1.7669 H   0  0  0  0  0  0  0  0  0  0  0  0
    2.9334    3.7913    2.3320 H   0  0  0  0  0  0  0  0  0  0  0  0
    3.2273   -4.2595   -2.5806 H   0  0  0  0  0  0  0  0  0  0  0  0
    1.1883   -0.7750   -3.7265 H   0  0  0  0  0  0  0  0  0  0  0  0
    5.6191    3.4140   -2.2290 H   0  0  0  0  0  0  0  0  0  0  0  0
    6.7541    2.8193   -0.9716 H   0  0  0  0  0  0  0  0  0  0  0  0
    3.4245   -4.8915   -4.8984 H   0  0  0  0  0  0  0  0  0  0  0  0
    1.4404   -1.3879   -6.0504 H   0  0  0  0  0  0  0  0  0  0  0  0
    5.0904    5.0599    2.1761 H   0  0  0  0  0  0  0  0  0  0  0  0
    4.3894    5.7644    0.6968 H   0  0  0  0  0  0  0  0  0  0  0  0
    7.0881    4.5175    1.0005 H   0  0  0  0  0  0  0  0  0  0  0  0
    6.7102    6.1897    0.6347 H   0  0  0  0  0  0  0  0  0  0  0  0
    2.0898   -2.2181   -8.4764 H   0  0  0  0  0  0  0  0  0  0  0  0
    0.7361   -2.9384   -7.6504 H   0  0  0  0  0  0  0  0  0  0  0  0
    4.5474   -4.3404   -6.7035 H   0  0  0  0  0  0  0  0  0  0  0  0
    4.4296   -3.0726   -7.8963 H   0  0  0  0  0  0  0  0  0  0  0  0
    6.5208    7.6013   -3.9467 H   0  0  0  0  0  0  0  0  0  0  0  0
    0.9963   -3.8407   -9.9548 H   0  0  0  0  0  0  0  0  0  0  0  0
    1.2023   -5.0913   -8.7201 H   0  0  0  0  0  0  0  0  0  0  0  0
    3.4195   -5.9069   -8.1956 H   0  0  0  0  0  0  0  0  0  0  0  0
    4.7997   -5.1808   -9.0277 H   0  0  0  0  0  0  0  0  0  0  0  0
    8.7520    7.0447    0.4986 H   0  0  0  0  0  0  0  0  0  0  0  0
    9.9065    8.1382   -0.3397 H   0  0  0  0  0  0  0  0  0  0  0  0
    3.3495   -3.7436  -10.1717 H   0  0  0  0  0  0  0  0  0  0  0  0
    9.0740   10.9796   -0.4367 H   0  0  0  0  0  0  0  0  0  0  0  0
   10.6164    6.5474   -1.7678 H   0  0  0  0  0  0  0  0  0  0  0  0
    9.1093    5.6393   -1.6747 H   0  0  0  0  0  0  0  0  0  0  0  0
    6.7023   10.2901   -4.6106 H   0  0  0  0  0  0  0  0  0  0  0  0
    2.3884   -6.4825  -10.2937 H   0  0  0  0  0  0  0  0  0  0  0  0
    3.7809   -5.8395  -11.1306 H   0  0  0  0  0  0  0  0  0  0  0  0
    2.1803   -5.2603  -11.5249 H   0  0  0  0  0  0  0  0  0  0  0  0
    9.5060   12.5082   -2.4007 H   0  0  0  0  0  0  0  0  0  0  0  0
   11.1014    5.7701    0.3525 H   0  0  0  0  0  0  0  0  0  0  0  0
    7.9837   12.2929   -4.2774 H   0  0  0  0  0  0  0  0  0  0  0  0
  1  2  2  0  0  0  0
  2  3  1  0  0  0  0
  2  4  1  0  0  0  0
  3  5  1  0  0  0  0
  3 42  1  0  0  0  0
  4  6  2  0  0  0  0
  4  7  1  0  0  0  0
  5  8  1  0  0  0  0
  5 43  1  0  0  0  0
  5 44  1  0  0  0  0
  6  9  1  0  0  0  0
  7 10  2  0  0  0  0
  7 45  1  0  0  0  0
  8 11  2  0  0  0  0
  8 12  1  0  0  0  0
  9 13  2  0  0  0  0
  9 14  1  0  0  0  0
 10 13  1  0  0  0  0
 10 46  1  0  0  0  0
 11 15  1  0  0  0  0
 11 47  1  0  0  0  0
 12 16  2  0  0  0  0
 12 48  1  0  0  0  0
 13 17  1  0  0  0  0
 14 18  1  0  0  0  0
 14 49  1  0  0  0  0
 14 50  1  0  0  0  0
 15 19  2  0  0  0  0
 15 51  1  0  0  0  0
 16 19  1  0  0  0  0
 16 52  1  0  0  0  0
 17 20  1  0  0  0  0
 17 53  1  0  0  0  0
 17 54  1  0  0  0  0
 18 21  1  0  0  0  0
 18 20  1  0  0  0  0
 19 22  1  0  0  0  0
 20 55  1  0  0  0  0
 20 56  1  0  0  0  0
 21 23  2  0  0  0  0
 21 24  1  0  0  0  0
 22 25  1  0  0  0  0
 22 26  1  0  0  0  0
 24 27  1  0  0  0  0
 24 28  2  0  0  0  0
 25 29  1  0  0  0  0
 25 57  1  0  0  0  0
 25 58  1  0  0  0  0
 26 30  1  0  0  0  0
 26 59  1  0  0  0  0
 26 60  1  0  0  0  0
 27 31  1  0  0  0  0
 27 32  1  0  0  0  0
 28 33  1  0  0  0  0
 28 61  1  0  0  0  0
 29 34  1  0  0  0  0
 29 62  1  0  0  0  0
 29 63  1  0  0  0  0
 30 34  1  0  0  0  0
 30 64  1  0  0  0  0
 30 65  1  0  0  0  0
 31 35  2  0  0  0  0
 31 33  1  0  0  0  0
 32 36  1  0  0  0  0
 32 66  1  0  0  0  0
 32 67  1  0  0  0  0
 33 37  2  0  0  0  0
 34 38  1  0  0  0  0
 34 68  1  0  0  0  0
 35 39  1  0  0  0  0
 35 69  1  0  0  0  0
 36 40  1  0  0  0  0
 36 70  1  0  0  0  0
 36 71  1  0  0  0  0
 37 41  1  0  0  0  0
 37 72  1  0  0  0  0
 38 73  1  0  0  0  0
 38 74  1  0  0  0  0
 38 75  1  0  0  0  0
 39 41  2  0  0  0  0
 39 76  1  0  0  0  0
 40 77  1  0  0  0  0
 41 78  1  0  0  0  0
M  CHG  1  34   1
M  END
>  <Molecule Name>
CTX-1020759

>  <SMILES>
CN1CCN(CC1)C1=CC=C(CNC(=O)C2=NC3=C(CCN(C3)C(=O)C3=CC4=C(C=CC=C4)N3CCO)C=C2)C=C1

>  <Batch Name>
CTX-1020759-1

>  <Batch Created Date>
2021-12-16

>  <Batch ID>
CTX-1020759-1

>  <External ID>
P841-0381

>  <Stereochemistry>
Achiral

>  <Amount 1>
5.05

>  <Unit 1>
mg

>  <CRO 1>
Pharmaron

>  <CRO 1 Total Amount>
20.45

>  <CRO 1 Unit>
mg

>  <Pharmaron Solubility (PBS, pH 7.4): Aqueous Solubility - Batch Mean (uM)>
308.3799

>  <Pharmaron Solubility (PBS, pH 7.4): Aqueous Solubility - Batch Mean (uM) Standard Deviation (±)>


>  <Pharmaron Solubility (PBS, pH 7.4): Aqueous Solubility - Batch Mean (uM) Count>
1.0

>  <log P>
2.59

>  <log D>
1.96

>  <Pharmaron Caliper Assay (CDK2/CCNE1): Minimum measured (%)>
29.5

>  <Pharmaron Caliper Assay (CDK2/CCNE1): IC50 - Batch Mean (uM)>
44.2

>  <Pharmaron ADPGLO (CDK2/E1-25C): Minimum measured (%)>


>  <Pharmaron ADPGLO (CDK2/E1-25C): IC50 - Batch Mean (uM)>


>  <Pharmaron ADPGLO (CDK2/E1-37C): Minimum measured (%)>


>  <Pharmaron ADPGLO (CDK2/E1-37C): IC50 - Batch Mean (uM)>


>  <IncuCyte Kuramochi RB-WT: IC50 - Batch Mean (uM)>
20.0

>  <IncuCyte Kuramochi RB-KO: IC50 - Batch Mean (uM)>
20.0

>  <DSF (npCDK2/CCNE1): dTm D - Batch Mean [Concentration: 100]>


>  <DSF (npCDK2/CCNE1): dTm D - Batch Mean [Concentration: 20.0]>
0.45399999999999996

>  <DSF (pCDK2/CCNE1): dTm D - Batch Mean [Concentration: 100]>


>  <DSF (pCDK2/CCNE1): dTm D - Batch Mean [Concentration: 20.0]>


>  <RLM: t1/2 - Batch Mean (Min)>


>  <RLM: Cl int - Batch Mean (uL/min/mg protein)>


>  <RLM: ER (Hepatic extraction ratio) - Batch Mean>


>  <HLM: t1/2 - Batch Mean (Min)>


>  <HLM: Cl int - Batch Mean (uL/min/mg protein)>


>  <HLM: ER (Hepatic extraction ratio) - Batch Mean>


>  <MDCK-WT 4% BSA: Papp (A-B) - Batch Mean (10-6, cm/s)>


>  <MDCK-WT 4% BSA: Papp (B-A) - Batch Mean (10-6, cm/s)>


>  <MDCK-WT 4% BSA: Efflux Ratio - Batch Mean>


>  <MDCK-WT 4% BSA: ~Net A_B - Batch Mean (10-6, cm/s)>


>  <pIC50>
4.354578

>  <Selection_1>
Y

>  <Selection_N>


>  <Serie>
Naphthyridine

>  <Selection_T>
N

>  <Train_Vs_Test>


$$$$
CTX-1020755
 OpenBabel08272613263D

 77 82  0  0  0  0  0  0  0  0999 V2000
    1.1214    0.1162    0.1918 O   0  0  0  0  0  0  0  0  0  0  0  0
    2.3014   -0.0805   -0.1026 C   0  0  0  0  0  0  0  0  0  0  0  0
    3.0293   -1.1446    0.3845 N   0  0  0  0  0  0  0  0  0  0  0  0
    3.0096    0.8913   -0.9914 C   0  0  0  0  0  0  0  0  0  0  0  0
    2.4443   -2.0589    1.3450 C   0  0  0  0  0  0  0  0  0  0  0  0
    3.9920    0.4358   -1.8196 N   0  0  0  0  0  0  0  0  0  0  0  0
    2.5649    2.2086   -0.9577 C   0  0  0  0  0  0  0  0  0  0  0  0
    2.5779   -1.5699    2.7667 C   0  0  0  0  0  0  0  0  0  0  0  0
    4.5022    1.3404   -2.7079 C   0  0  0  0  0  0  0  0  0  0  0  0
    3.1479    3.1278   -1.8156 C   0  0  0  0  0  0  0  0  0  0  0  0
    1.5837   -0.7743    3.3434 C   0  0  0  0  0  0  0  0  0  0  0  0
    3.6924   -1.8911    3.5439 C   0  0  0  0  0  0  0  0  0  0  0  0
    4.1304    2.7018   -2.7054 C   0  0  0  0  0  0  0  0  0  0  0  0
    5.5283    0.8436   -3.7252 C   0  0  0  0  0  0  0  0  0  0  0  0
    1.6978   -0.3279    4.6667 C   0  0  0  0  0  0  0  0  0  0  0  0
    3.7970   -1.4354    4.8682 C   0  0  0  0  0  0  0  0  0  0  0  0
    4.7048    3.6932   -3.6929 C   0  0  0  0  0  0  0  0  0  0  0  0
    5.7190    1.7976   -4.8211 N   0  0  0  0  0  0  0  0  0  0  0  0
    2.8031   -0.6475    5.4679 C   0  0  0  0  0  0  0  0  0  0  0  0
    5.9662    3.1623   -4.3658 C   0  0  0  0  0  0  0  0  0  0  0  0
    5.4856    1.5867   -6.1860 C   0  0  0  0  0  0  0  0  0  0  0  0
    2.8528   -0.2594    6.7928 N   0  0  0  0  0  0  0  0  0  0  0  0
    5.6776    2.5237   -6.9667 O   0  0  0  0  0  0  0  0  0  0  0  0
    5.0643    0.2878   -6.6947 C   0  0  0  0  0  0  0  0  0  0  0  0
    3.6963   -0.9507    7.7788 C   0  0  0  0  0  0  0  0  0  0  0  0
    2.4289    1.0878    7.2189 C   0  0  0  0  0  0  0  0  0  0  0  0
    4.1114   -0.4690   -6.0417 O   0  0  0  0  0  0  0  0  0  0  0  0
    5.3848   -0.3187   -7.9098 C   0  0  0  0  0  0  0  0  0  0  0  0
    2.9624   -0.9942    9.1394 C   0  0  0  0  0  0  0  0  0  0  0  0
    1.7349    1.0073    8.6004 C   0  0  0  0  0  0  0  0  0  0  0  0
    3.8361   -1.5262   -6.8494 C   0  0  0  0  0  0  0  0  0  0  0  0
    4.5617   -1.4656   -8.0129 C   0  0  0  0  0  0  0  0  0  0  0  0
    6.3573    0.1284   -8.9374 C   0  0  0  0  0  0  0  0  0  0  0  0
    2.5878    0.3541    9.6215 N   0  3  0  0  0  0  0  0  0  0  0  0
    2.8084   -2.5377   -6.4935 C   0  0  0  0  0  0  0  0  0  0  0  0
    4.4181   -2.4629   -9.1065 C   0  0  0  0  0  0  0  0  0  0  0  0
    1.8896    0.2616   10.8973 C   0  0  0  0  0  0  0  0  0  0  0  0
    2.8991   -3.7210   -7.4916 C   0  0  0  0  0  0  0  0  0  0  0  0
    3.1069   -3.2534   -8.9477 C   0  0  0  0  0  0  0  0  0  0  0  0
    3.9541   -1.2848    0.0775 H   0  0  0  0  0  0  0  0  0  0  0  0
    2.9358   -3.0055    1.2604 H   0  0  0  0  0  0  0  0  0  0  0  0
    1.4000   -2.1358    1.1252 H   0  0  0  0  0  0  0  0  0  0  0  0
    1.8166    2.4956   -0.3076 H   0  0  0  0  0  0  0  0  0  0  0  0
    2.8567    4.1176   -1.7951 H   0  0  0  0  0  0  0  0  0  0  0  0
    0.7548   -0.5122    2.7873 H   0  0  0  0  0  0  0  0  0  0  0  0
    4.4466   -2.4690    3.1413 H   0  0  0  0  0  0  0  0  0  0  0  0
    5.1898   -0.0866   -4.1316 H   0  0  0  0  0  0  0  0  0  0  0  0
    6.4648    0.7269   -3.2210 H   0  0  0  0  0  0  0  0  0  0  0  0
    0.9443    0.2546    5.0643 H   0  0  0  0  0  0  0  0  0  0  0  0
    4.6326   -1.6885    5.4184 H   0  0  0  0  0  0  0  0  0  0  0  0
    4.9444    4.5981   -3.1745 H   0  0  0  0  0  0  0  0  0  0  0  0
    3.9717    3.8656   -4.4530 H   0  0  0  0  0  0  0  0  0  0  0  0
    6.7758    3.1668   -3.6663 H   0  0  0  0  0  0  0  0  0  0  0  0
    6.2214    3.7826   -5.1996 H   0  0  0  0  0  0  0  0  0  0  0  0
    4.6217   -0.4248    7.8886 H   0  0  0  0  0  0  0  0  0  0  0  0
    3.8924   -1.9484    7.4455 H   0  0  0  0  0  0  0  0  0  0  0  0
    1.7446    1.4886    6.5006 H   0  0  0  0  0  0  0  0  0  0  0  0
    3.2879    1.7217    7.2917 H   0  0  0  0  0  0  0  0  0  0  0  0
    3.6053   -1.4513    9.8622 H   0  0  0  0  0  0  0  0  0  0  0  0
    2.0610   -1.5552    9.0061 H   0  0  0  0  0  0  0  0  0  0  0  0
    0.8296    0.4462    8.4984 H   0  0  0  0  0  0  0  0  0  0  0  0
    1.5404    2.0072    8.9277 H   0  0  0  0  0  0  0  0  0  0  0  0
    6.8435    1.0213   -8.6038 H   0  0  0  0  0  0  0  0  0  0  0  0
    5.8422    0.3241   -9.8546 H   0  0  0  0  0  0  0  0  0  0  0  0
    7.0874   -0.6378   -9.0948 H   0  0  0  0  0  0  0  0  0  0  0  0
    3.4280    0.9137    9.7675 H   0  0  0  0  0  0  0  0  0  0  0  0
    1.8356   -2.0956   -6.5484 H   0  0  0  0  0  0  0  0  0  0  0  0
    2.9777   -2.8905   -5.4976 H   0  0  0  0  0  0  0  0  0  0  0  0
    5.2445   -3.1419   -9.0743 H   0  0  0  0  0  0  0  0  0  0  0  0
    4.3997   -1.9476  -10.0440 H   0  0  0  0  0  0  0  0  0  0  0  0
    1.0007   -0.3216   10.7759 H   0  0  0  0  0  0  0  0  0  0  0  0
    1.6289    1.2434   11.2332 H   0  0  0  0  0  0  0  0  0  0  0  0
    2.5265   -0.2051   11.6194 H   0  0  0  0  0  0  0  0  0  0  0  0
    1.9910   -4.2845   -7.4387 H   0  0  0  0  0  0  0  0  0  0  0  0
    3.7469   -4.3131   -7.2168 H   0  0  0  0  0  0  0  0  0  0  0  0
    3.1387   -4.1110   -9.5868 H   0  0  0  0  0  0  0  0  0  0  0  0
    2.2938   -2.6101   -9.2122 H   0  0  0  0  0  0  0  0  0  0  0  0
  1  2  2  0  0  0  0
  2  3  1  0  0  0  0
  2  4  1  0  0  0  0
  3  5  1  0  0  0  0
  3 40  1  0  0  0  0
  4  6  2  0  0  0  0
  4  7  1  0  0  0  0
  5  8  1  0  0  0  0
  5 41  1  0  0  0  0
  5 42  1  0  0  0  0
  6  9  1  0  0  0  0
  7 10  2  0  0  0  0
  7 43  1  0  0  0  0
  8 11  2  0  0  0  0
  8 12  1  0  0  0  0
  9 13  2  0  0  0  0
  9 14  1  0  0  0  0
 10 13  1  0  0  0  0
 10 44  1  0  0  0  0
 11 15  1  0  0  0  0
 11 45  1  0  0  0  0
 12 16  2  0  0  0  0
 12 46  1  0  0  0  0
 13 17  1  0  0  0  0
 14 18  1  0  0  0  0
 14 47  1  0  0  0  0
 14 48  1  0  0  0  0
 15 19  2  0  0  0  0
 15 49  1  0  0  0  0
 16 19  1  0  0  0  0
 16 50  1  0  0  0  0
 17 20  1  0  0  0  0
 17 51  1  0  0  0  0
 17 52  1  0  0  0  0
 18 21  1  0  0  0  0
 18 20  1  0  0  0  0
 19 22  1  0  0  0  0
 20 53  1  0  0  0  0
 20 54  1  0  0  0  0
 21 23  2  0  0  0  0
 21 24  1  0  0  0  0
 22 25  1  0  0  0  0
 22 26  1  0  0  0  0
 24 27  1  0  0  0  0
 24 28  2  0  0  0  0
 25 29  1  0  0  0  0
 25 55  1  0  0  0  0
 25 56  1  0  0  0  0
 26 30  1  0  0  0  0
 26 57  1  0  0  0  0
 26 58  1  0  0  0  0
 27 31  1  0  0  0  0
 28 32  1  0  0  0  0
 28 33  1  0  0  0  0
 29 34  1  0  0  0  0
 29 59  1  0  0  0  0
 29 60  1  0  0  0  0
 30 34  1  0  0  0  0
 30 61  1  0  0  0  0
 30 62  1  0  0  0  0
 31 35  1  0  0  0  0
 31 32  2  0  0  0  0
 32 36  1  0  0  0  0
 33 63  1  0  0  0  0
 33 64  1  0  0  0  0
 33 65  1  0  0  0  0
 34 37  1  0  0  0  0
 34 66  1  0  0  0  0
 35 38  1  0  0  0  0
 35 67  1  0  0  0  0
 35 68  1  0  0  0  0
 36 39  1  0  0  0  0
 36 69  1  0  0  0  0
 36 70  1  0  0  0  0
 37 71  1  0  0  0  0
 37 72  1  0  0  0  0
 37 73  1  0  0  0  0
 38 39  1  0  0  0  0
 38 74  1  0  0  0  0
 38 75  1  0  0  0  0
 39 76  1  0  0  0  0
 39 77  1  0  0  0  0
M  CHG  1  34   1
M  END
>  <Molecule Name>
CTX-1020755

>  <SMILES>
CN1CCN(CC1)C1=CC=C(CNC(=O)C2=NC3=C(CCN(C3)C(=O)C3=C(C)C4=C(CCCC4)O3)C=C2)C=C1

>  <Batch Name>
CTX-1020755-1

>  <Batch Created Date>
2021-12-16

>  <Batch ID>
CTX-1020755-1

>  <External ID>
P841-0382

>  <Stereochemistry>
Achiral

>  <Amount 1>
5.65

>  <Unit 1>
mg

>  <CRO 1>
Pharmaron

>  <CRO 1 Total Amount>
14.2

>  <CRO 1 Unit>
mg

>  <Pharmaron Solubility (PBS, pH 7.4): Aqueous Solubility - Batch Mean (uM)>
11.2077

>  <Pharmaron Solubility (PBS, pH 7.4): Aqueous Solubility - Batch Mean (uM) Standard Deviation (±)>


>  <Pharmaron Solubility (PBS, pH 7.4): Aqueous Solubility - Batch Mean (uM) Count>
1.0

>  <log P>
3.83

>  <log D>
3.2

>  <Pharmaron Caliper Assay (CDK2/CCNE1): Minimum measured (%)>
52.8

>  <Pharmaron Caliper Assay (CDK2/CCNE1): IC50 - Batch Mean (uM)>
10.7

>  <Pharmaron ADPGLO (CDK2/E1-25C): Minimum measured (%)>


>  <Pharmaron ADPGLO (CDK2/E1-25C): IC50 - Batch Mean (uM)>


>  <Pharmaron ADPGLO (CDK2/E1-37C): Minimum measured (%)>


>  <Pharmaron ADPGLO (CDK2/E1-37C): IC50 - Batch Mean (uM)>


>  <IncuCyte Kuramochi RB-WT: IC50 - Batch Mean (uM)>
9.01

>  <IncuCyte Kuramochi RB-KO: IC50 - Batch Mean (uM)>
9.76

>  <DSF (npCDK2/CCNE1): dTm D - Batch Mean [Concentration: 100]>


>  <DSF (npCDK2/CCNE1): dTm D - Batch Mean [Concentration: 20.0]>
0.742

>  <DSF (pCDK2/CCNE1): dTm D - Batch Mean [Concentration: 100]>


>  <DSF (pCDK2/CCNE1): dTm D - Batch Mean [Concentration: 20.0]>


>  <RLM: t1/2 - Batch Mean (Min)>


>  <RLM: Cl int - Batch Mean (uL/min/mg protein)>


>  <RLM: ER (Hepatic extraction ratio) - Batch Mean>


>  <HLM: t1/2 - Batch Mean (Min)>


>  <HLM: Cl int - Batch Mean (uL/min/mg protein)>


>  <HLM: ER (Hepatic extraction ratio) - Batch Mean>


>  <MDCK-WT 4% BSA: Papp (A-B) - Batch Mean (10-6, cm/s)>


>  <MDCK-WT 4% BSA: Papp (B-A) - Batch Mean (10-6, cm/s)>


>  <MDCK-WT 4% BSA: Efflux Ratio - Batch Mean>


>  <MDCK-WT 4% BSA: ~Net A_B - Batch Mean (10-6, cm/s)>


>  <pIC50>
4.970616

>  <Selection_1>
Y

>  <Selection_N>


>  <Serie>
Naphthyridine

>  <Selection_T>
N

>  <Train_Vs_Test>


$$$$
CTX-1020754
 OpenBabel08272613263D

 51 55  0  0  0  0  0  0  0  0999 V2000
    1.3073    0.0690    0.8665 O   0  0  0  0  0  0  0  0  0  0  0  0
    2.2774   -0.0107    0.1151 C   0  0  0  0  0  0  0  0  0  0  0  0
    2.7712   -1.2260   -0.3070 N   0  0  0  0  0  0  0  0  0  0  0  0
    2.9752    1.2302   -0.3640 C   0  0  0  0  0  0  0  0  0  0  0  0
    2.1416   -2.4402    0.1590 C   0  0  0  0  0  0  0  0  0  0  0  0
    4.0303    1.1128   -1.2257 N   0  0  0  0  0  0  0  0  0  0  0  0
    2.4910    2.4463    0.1048 C   0  0  0  0  0  0  0  0  0  0  0  0
    2.8287   -3.6355   -0.3614 C   0  0  0  0  0  0  0  0  0  0  0  0
    4.6087    2.2768   -1.6587 C   0  0  0  0  0  0  0  0  0  0  0  0
    3.1147    3.6118   -0.3125 C   0  0  0  0  0  0  0  0  0  0  0  0
    2.8854   -3.8048   -1.7197 O   0  0  0  0  0  0  0  0  0  0  0  0
    3.4212   -4.7349    0.2149 C   0  0  0  0  0  0  0  0  0  0  0  0
    4.1890    3.5393   -1.2023 C   0  0  0  0  0  0  0  0  0  0  0  0
    5.7440    2.1785   -2.6834 C   0  0  0  0  0  0  0  0  0  0  0  0
    3.5147   -5.0030   -1.8712 C   0  0  0  0  0  0  0  0  0  0  0  0
    3.8611   -5.5986   -0.7528 N   0  0  0  0  0  0  0  0  0  0  0  0
    4.7902    4.8196   -1.7246 C   0  0  0  0  0  0  0  0  0  0  0  0
    6.0275    3.4501   -3.3596 N   0  0  0  0  0  0  0  0  0  0  0  0
    6.0973    4.6109   -2.4837 C   0  0  0  0  0  0  0  0  0  0  0  0
    6.4985    3.4643   -4.6835 C   0  0  0  0  0  0  0  0  0  0  0  0
    6.9157    2.4292   -5.2113 O   0  0  0  0  0  0  0  0  0  0  0  0
    6.2536    4.7033   -5.4611 C   0  0  0  0  0  0  0  0  0  0  0  0
    5.0990    5.3543   -5.0438 O   0  0  0  0  0  0  0  0  0  0  0  0
    6.2513    4.8880   -6.8508 C   0  0  0  0  0  0  0  0  0  0  0  0
    4.2083    5.0806   -6.0313 C   0  0  0  0  0  0  0  0  0  0  0  0
    4.8742    4.6831   -7.1762 C   0  0  0  0  0  0  0  0  0  0  0  0
    7.2697    5.3903   -7.8048 C   0  0  0  0  0  0  0  0  0  0  0  0
    2.8287    5.1555   -5.8943 C   0  0  0  0  0  0  0  0  0  0  0  0
    4.1340    4.3788   -8.3156 C   0  0  0  0  0  0  0  0  0  0  0  0
    2.0984    4.7623   -7.0170 C   0  0  0  0  0  0  0  0  0  0  0  0
    2.7337    4.3741   -8.2013 C   0  0  0  0  0  0  0  0  0  0  0  0
    3.5423   -1.2664   -0.9177 H   0  0  0  0  0  0  0  0  0  0  0  0
    1.1235   -2.4529   -0.1700 H   0  0  0  0  0  0  0  0  0  0  0  0
    2.1954   -2.4590    1.2275 H   0  0  0  0  0  0  0  0  0  0  0  0
    1.6855    2.4804    0.7490 H   0  0  0  0  0  0  0  0  0  0  0  0
    2.7871    4.5277    0.0321 H   0  0  0  0  0  0  0  0  0  0  0  0
    3.5201   -4.8871    1.2308 H   0  0  0  0  0  0  0  0  0  0  0  0
    5.4726    1.4540   -3.4225 H   0  0  0  0  0  0  0  0  0  0  0  0
    6.6287    1.8989   -2.1505 H   0  0  0  0  0  0  0  0  0  0  0  0
    3.7059   -5.4137   -2.7984 H   0  0  0  0  0  0  0  0  0  0  0  0
    4.9799    5.4682   -0.8950 H   0  0  0  0  0  0  0  0  0  0  0  0
    4.0883    5.2392   -2.4146 H   0  0  0  0  0  0  0  0  0  0  0  0
    6.8894    4.4671   -1.7788 H   0  0  0  0  0  0  0  0  0  0  0  0
    6.2762    5.4761   -3.0873 H   0  0  0  0  0  0  0  0  0  0  0  0
    8.2182    5.4531   -7.3137 H   0  0  0  0  0  0  0  0  0  0  0  0
    6.9838    6.3605   -8.1537 H   0  0  0  0  0  0  0  0  0  0  0  0
    7.3418    4.7195   -8.6354 H   0  0  0  0  0  0  0  0  0  0  0  0
    2.3758    5.4787   -5.0251 H   0  0  0  0  0  0  0  0  0  0  0  0
    4.5976    4.1643   -9.2123 H   0  0  0  0  0  0  0  0  0  0  0  0
    1.0674    4.7577   -6.9724 H   0  0  0  0  0  0  0  0  0  0  0  0
    2.1619    4.0782   -9.0079 H   0  0  0  0  0  0  0  0  0  0  0  0
  1  2  2  0  0  0  0
  2  3  1  0  0  0  0
  2  4  1  0  0  0  0
  3  5  1  0  0  0  0
  3 32  1  0  0  0  0
  4  6  2  0  0  0  0
  4  7  1  0  0  0  0
  5  8  1  0  0  0  0
  5 33  1  0  0  0  0
  5 34  1  0  0  0  0
  6  9  1  0  0  0  0
  7 10  2  0  0  0  0
  7 35  1  0  0  0  0
  8 11  1  0  0  0  0
  8 12  2  0  0  0  0
  9 13  2  0  0  0  0
  9 14  1  0  0  0  0
 10 13  1  0  0  0  0
 10 36  1  0  0  0  0
 11 15  1  0  0  0  0
 12 16  1  0  0  0  0
 12 37  1  0  0  0  0
 13 17  1  0  0  0  0
 14 18  1  0  0  0  0
 14 38  1  0  0  0  0
 14 39  1  0  0  0  0
 15 16  2  0  0  0  0
 15 40  1  0  0  0  0
 17 19  1  0  0  0  0
 17 41  1  0  0  0  0
 17 42  1  0  0  0  0
 18 20  1  0  0  0  0
 18 19  1  0  0  0  0
 19 43  1  0  0  0  0
 19 44  1  0  0  0  0
 20 21  2  0  0  0  0
 20 22  1  0  0  0  0
 22 23  1  0  0  0  0
 22 24  2  0  0  0  0
 23 25  1  0  0  0  0
 24 26  1  0  0  0  0
 24 27  1  0  0  0  0
 25 28  2  0  0  0  0
 25 26  1  0  0  0  0
 26 29  2  0  0  0  0
 27 45  1  0  0  0  0
 27 46  1  0  0  0  0
 27 47  1  0  0  0  0
 28 30  1  0  0  0  0
 28 48  1  0  0  0  0
 29 31  1  0  0  0  0
 29 49  1  0  0  0  0
 30 31  2  0  0  0  0
 30 50  1  0  0  0  0
 31 51  1  0  0  0  0
M  END
>  <Molecule Name>
CTX-1020754

>  <SMILES>
CC1=C(OC2=C1C=CC=C2)C(=O)N1CCC2=C(C1)N=C(C=C2)C(=O)NCC1=CN=CO1

>  <Batch Name>
CTX-1020754-1

>  <Batch Created Date>
2021-12-16

>  <Batch ID>
CTX-1020754-1

>  <External ID>
P841-0363

>  <Stereochemistry>
Achiral

>  <Amount 1>
4.45

>  <Unit 1>
mg

>  <CRO 1>
Pharmaron

>  <CRO 1 Total Amount>
21.85

>  <CRO 1 Unit>
mg

>  <Pharmaron Solubility (PBS, pH 7.4): Aqueous Solubility - Batch Mean (uM)>
4.7938

>  <Pharmaron Solubility (PBS, pH 7.4): Aqueous Solubility - Batch Mean (uM) Standard Deviation (±)>


>  <Pharmaron Solubility (PBS, pH 7.4): Aqueous Solubility - Batch Mean (uM) Count>
1.0

>  <log P>
1.54

>  <log D>
1.54

>  <Pharmaron Caliper Assay (CDK2/CCNE1): Minimum measured (%)>
69.5

>  <Pharmaron Caliper Assay (CDK2/CCNE1): IC50 - Batch Mean (uM)>
48.9

>  <Pharmaron ADPGLO (CDK2/E1-25C): Minimum measured (%)>


>  <Pharmaron ADPGLO (CDK2/E1-25C): IC50 - Batch Mean (uM)>


>  <Pharmaron ADPGLO (CDK2/E1-37C): Minimum measured (%)>


>  <Pharmaron ADPGLO (CDK2/E1-37C): IC50 - Batch Mean (uM)>


>  <IncuCyte Kuramochi RB-WT: IC50 - Batch Mean (uM)>
20.0

>  <IncuCyte Kuramochi RB-KO: IC50 - Batch Mean (uM)>
20.0

>  <DSF (npCDK2/CCNE1): dTm D - Batch Mean [Concentration: 100]>


>  <DSF (npCDK2/CCNE1): dTm D - Batch Mean [Concentration: 20.0]>
0.04

>  <DSF (pCDK2/CCNE1): dTm D - Batch Mean [Concentration: 100]>


>  <DSF (pCDK2/CCNE1): dTm D - Batch Mean [Concentration: 20.0]>


>  <RLM: t1/2 - Batch Mean (Min)>


>  <RLM: Cl int - Batch Mean (uL/min/mg protein)>


>  <RLM: ER (Hepatic extraction ratio) - Batch Mean>


>  <HLM: t1/2 - Batch Mean (Min)>


>  <HLM: Cl int - Batch Mean (uL/min/mg protein)>


>  <HLM: ER (Hepatic extraction ratio) - Batch Mean>


>  <MDCK-WT 4% BSA: Papp (A-B) - Batch Mean (10-6, cm/s)>


>  <MDCK-WT 4% BSA: Papp (B-A) - Batch Mean (10-6, cm/s)>


>  <MDCK-WT 4% BSA: Efflux Ratio - Batch Mean>


>  <MDCK-WT 4% BSA: ~Net A_B - Batch Mean (10-6, cm/s)>


>  <pIC50>
4.310691

>  <Selection_1>
Y

>  <Selection_N>


>  <Serie>
Naphthyridine

>  <Selection_T>
N

>  <Train_Vs_Test>


$$$$
CTX-1020753
 OpenBabel08272613263D

 74 79  0  0  0  0  0  0  0  0999 V2000
    1.3193   -0.1644    1.4918 Cl  0  0  0  0  0  0  0  0  0  0  0  0
    2.7362   -0.4245    0.5478 C   0  0  0  0  0  0  0  0  0  0  0  0
    3.2234   -1.6895    0.0653 C   0  0  0  0  0  0  0  0  0  0  0  0
    3.5885    0.7264    0.2228 C   0  0  0  0  0  0  0  0  0  0  0  0
    4.3756   -1.1913   -0.6915 N   0  0  0  0  0  0  0  0  0  0  0  0
    2.4011   -3.1476    0.3608 C   0  0  0  0  0  0  0  0  0  0  0  0
    4.6248    0.2414   -0.5665 C   0  0  0  0  0  0  0  0  0  0  0  0
    3.5926    2.1569    0.5215 C   0  0  0  0  0  0  0  0  0  0  0  0
    5.2475   -1.9326   -1.5756 C   0  0  0  0  0  0  0  0  0  0  0  0
    1.1871   -3.0592    0.5871 O   0  0  0  0  0  0  0  0  0  0  0  0
    2.9069   -4.5855    0.4516 N   0  0  0  0  0  0  0  0  0  0  0  0
    5.6260    1.2120   -1.0558 C   0  0  0  0  0  0  0  0  0  0  0  0
    4.5965    3.0729    0.0690 C   0  0  0  0  0  0  0  0  0  0  0  0
    2.1451   -5.9260    0.7866 C   0  0  0  0  0  0  0  0  0  0  0  0
    4.1759   -4.7667   -0.0741 C   0  0  0  0  0  0  0  0  0  0  0  0
    5.6101    2.5955   -0.7278 C   0  0  0  0  0  0  0  0  0  0  0  0
    2.8916   -7.3637    0.4268 C   0  0  0  0  0  0  0  0  0  0  0  0
    4.9722   -6.0379   -0.1413 C   0  0  0  0  0  0  0  0  0  0  0  0
    2.3158   -8.6467    0.6013 N   0  0  0  0  0  0  0  0  0  0  0  0
    4.2051   -7.2958   -0.0404 C   0  0  0  0  0  0  0  0  0  0  0  0
    3.1055   -9.7943    0.3210 C   0  0  0  0  0  0  0  0  0  0  0  0
    4.9423   -8.4508   -0.3400 C   0  0  0  0  0  0  0  0  0  0  0  0
    2.6098  -11.3113    0.4290 C   0  0  0  0  0  0  0  0  0  0  0  0
    4.4151   -9.7074   -0.1284 C   0  0  0  0  0  0  0  0  0  0  0  0
    3.3704  -12.2601    0.2136 O   0  0  0  0  0  0  0  0  0  0  0  0
    1.2769  -11.5339    0.7464 N   0  0  0  0  0  0  0  0  0  0  0  0
    0.7359  -12.8945    0.7863 C   0  0  0  0  0  0  0  0  0  0  0  0
   -0.4013  -13.0489    1.7659 C   0  0  0  0  0  0  0  0  0  0  0  0
   -1.7440  -12.8967    1.3806 C   0  0  0  0  0  0  0  0  0  0  0  0
   -0.1298  -13.3177    3.1118 C   0  0  0  0  0  0  0  0  0  0  0  0
   -2.7332  -12.8440    2.3423 C   0  0  0  0  0  0  0  0  0  0  0  0
   -1.1572  -13.3890    4.0251 C   0  0  0  0  0  0  0  0  0  0  0  0
   -2.4446  -13.1223    3.6726 C   0  0  0  0  0  0  0  0  0  0  0  0
   -3.4695  -13.0393    4.6605 N   0  0  0  0  0  0  0  0  0  0  0  0
   -4.8620  -13.3868    4.3327 C   0  0  0  0  0  0  0  0  0  0  0  0
   -3.1707  -12.9477    6.0766 C   0  0  0  0  0  0  0  0  0  0  0  0
   -5.7944  -12.3906    5.0394 C   0  0  0  0  0  0  0  0  0  0  0  0
   -4.1418  -11.9607    6.7420 C   0  0  0  0  0  0  0  0  0  0  0  0
   -5.5340  -12.3590    6.4929 N   0  3  0  0  0  0  0  0  0  0  0  0
   -6.4692  -11.4536    7.1515 C   0  0  0  0  0  0  0  0  0  0  0  0
    2.8217    2.5318    1.0961 H   0  0  0  0  0  0  0  0  0  0  0  0
    4.9607   -2.9634   -1.5776 H   0  0  0  0  0  0  0  0  0  0  0  0
    6.2584   -1.8442   -1.2362 H   0  0  0  0  0  0  0  0  0  0  0  0
    5.1685   -1.5385   -2.5673 H   0  0  0  0  0  0  0  0  0  0  0  0
    6.3794    0.8660   -1.6705 H   0  0  0  0  0  0  0  0  0  0  0  0
    4.5598    4.0693    0.3352 H   0  0  0  0  0  0  0  0  0  0  0  0
    1.2189   -5.9068    0.2511 H   0  0  0  0  0  0  0  0  0  0  0  0
    2.0681   -5.9273    1.8538 H   0  0  0  0  0  0  0  0  0  0  0  0
    4.7957   -4.0865    0.4718 H   0  0  0  0  0  0  0  0  0  0  0  0
    3.9378   -4.6683   -1.1127 H   0  0  0  0  0  0  0  0  0  0  0  0
    6.3446    3.2286   -1.0809 H   0  0  0  0  0  0  0  0  0  0  0  0
    5.6799   -6.0222    0.6611 H   0  0  0  0  0  0  0  0  0  0  0  0
    5.4113   -6.0486   -1.1170 H   0  0  0  0  0  0  0  0  0  0  0  0
    5.8952   -8.3587   -0.7252 H   0  0  0  0  0  0  0  0  0  0  0  0
    4.9769  -10.5561   -0.2990 H   0  0  0  0  0  0  0  0  0  0  0  0
    0.6894  -10.7697    0.9467 H   0  0  0  0  0  0  0  0  0  0  0  0
    1.5209  -13.5654    1.0668 H   0  0  0  0  0  0  0  0  0  0  0  0
    0.3511  -13.1144   -0.1876 H   0  0  0  0  0  0  0  0  0  0  0  0
   -1.9901  -12.8245    0.3810 H   0  0  0  0  0  0  0  0  0  0  0  0
    0.8440  -13.4631    3.4208 H   0  0  0  0  0  0  0  0  0  0  0  0
   -3.6971  -12.5953    2.0702 H   0  0  0  0  0  0  0  0  0  0  0  0
   -0.9463  -13.6510    5.0008 H   0  0  0  0  0  0  0  0  0  0  0  0
   -5.0744  -14.3802    4.6688 H   0  0  0  0  0  0  0  0  0  0  0  0
   -5.0113  -13.3401    3.2742 H   0  0  0  0  0  0  0  0  0  0  0  0
   -2.1663  -12.6029    6.2076 H   0  0  0  0  0  0  0  0  0  0  0  0
   -3.2783  -13.9123    6.5269 H   0  0  0  0  0  0  0  0  0  0  0  0
   -6.8099  -12.6835    4.8724 H   0  0  0  0  0  0  0  0  0  0  0  0
   -5.6144  -11.4143    4.6402 H   0  0  0  0  0  0  0  0  0  0  0  0
   -3.9787  -10.9822    6.3409 H   0  0  0  0  0  0  0  0  0  0  0  0
   -3.9659  -11.9617    7.7974 H   0  0  0  0  0  0  0  0  0  0  0  0
   -5.6734  -13.2915    6.8820 H   0  0  0  0  0  0  0  0  0  0  0  0
   -6.3438  -10.4653    6.7608 H   0  0  0  0  0  0  0  0  0  0  0  0
   -6.2785  -11.4478    8.2043 H   0  0  0  0  0  0  0  0  0  0  0  0
   -7.4711  -11.7835    6.9723 H   0  0  0  0  0  0  0  0  0  0  0  0
  1  2  1  0  0  0  0
  2  3  2  0  0  0  0
  2  4  1  0  0  0  0
  3  5  1  0  0  0  0
  3  6  1  0  0  0  0
  4  7  2  0  0  0  0
  4  8  1  0  0  0  0
  5  9  1  0  0  0  0
  5  7  1  0  0  0  0
  6 10  2  0  0  0  0
  6 11  1  0  0  0  0
  7 12  1  0  0  0  0
  8 13  2  0  0  0  0
  8 41  1  0  0  0  0
  9 42  1  0  0  0  0
  9 43  1  0  0  0  0
  9 44  1  0  0  0  0
 11 14  1  0  0  0  0
 11 15  1  0  0  0  0
 12 16  2  0  0  0  0
 12 45  1  0  0  0  0
 13 16  1  0  0  0  0
 13 46  1  0  0  0  0
 14 17  1  0  0  0  0
 14 47  1  0  0  0  0
 14 48  1  0  0  0  0
 15 18  1  0  0  0  0
 15 49  1  0  0  0  0
 15 50  1  0  0  0  0
 16 51  1  0  0  0  0
 17 19  2  0  0  0  0
 17 20  1  0  0  0  0
 18 20  1  0  0  0  0
 18 52  1  0  0  0  0
 18 53  1  0  0  0  0
 19 21  1  0  0  0  0
 20 22  2  0  0  0  0
 21 23  1  0  0  0  0
 21 24  2  0  0  0  0
 22 24  1  0  0  0  0
 22 54  1  0  0  0  0
 23 25  2  0  0  0  0
 23 26  1  0  0  0  0
 24 55  1  0  0  0  0
 26 27  1  0  0  0  0
 26 56  1  0  0  0  0
 27 28  1  0  0  0  0
 27 57  1  0  0  0  0
 27 58  1  0  0  0  0
 28 29  2  0  0  0  0
 28 30  1  0  0  0  0
 29 31  1  0  0  0  0
 29 59  1  0  0  0  0
 30 32  2  0  0  0  0
 30 60  1  0  0  0  0
 31 33  2  0  0  0  0
 31 61  1  0  0  0  0
 32 33  1  0  0  0  0
 32 62  1  0  0  0  0
 33 34  1  0  0  0  0
 34 35  1  0  0  0  0
 34 36  1  0  0  0  0
 35 37  1  0  0  0  0
 35 63  1  0  0  0  0
 35 64  1  0  0  0  0
 36 38  1  0  0  0  0
 36 65  1  0  0  0  0
 36 66  1  0  0  0  0
 37 39  1  0  0  0  0
 37 67  1  0  0  0  0
 37 68  1  0  0  0  0
 38 39  1  0  0  0  0
 38 69  1  0  0  0  0
 38 70  1  0  0  0  0
 39 40  1  0  0  0  0
 39 71  1  0  0  0  0
 40 72  1  0  0  0  0
 40 73  1  0  0  0  0
 40 74  1  0  0  0  0
M  CHG  1  39   1
M  END
>  <Molecule Name>
CTX-1020753

>  <SMILES>
CN1C2=C(C=CC=C2)C(Cl)=C1C(=O)N1CCC2=CC=C(N=C2C1)C(=O)NCC1=CC=C(C=C1)N1CCN(C)CC1

>  <Batch Name>
CTX-1020753-1

>  <Batch Created Date>
2021-12-16

>  <Batch ID>
CTX-1020753-1

>  <External ID>
P841-0369

>  <Stereochemistry>
Achiral

>  <Amount 1>
5.1

>  <Unit 1>
mg

>  <CRO 1>
Pharmaron

>  <CRO 1 Total Amount>
26.75

>  <CRO 1 Unit>
mg

>  <Pharmaron Solubility (PBS, pH 7.4): Aqueous Solubility - Batch Mean (uM)>
8.9921

>  <Pharmaron Solubility (PBS, pH 7.4): Aqueous Solubility - Batch Mean (uM) Standard Deviation (±)>


>  <Pharmaron Solubility (PBS, pH 7.4): Aqueous Solubility - Batch Mean (uM) Count>
1.0

>  <log P>
3.89

>  <log D>
3.25

>  <Pharmaron Caliper Assay (CDK2/CCNE1): Minimum measured (%)>
23.6

>  <Pharmaron Caliper Assay (CDK2/CCNE1): IC50 - Batch Mean (uM)>
3.4

>  <Pharmaron ADPGLO (CDK2/E1-25C): Minimum measured (%)>


>  <Pharmaron ADPGLO (CDK2/E1-25C): IC50 - Batch Mean (uM)>


>  <Pharmaron ADPGLO (CDK2/E1-37C): Minimum measured (%)>


>  <Pharmaron ADPGLO (CDK2/E1-37C): IC50 - Batch Mean (uM)>


>  <IncuCyte Kuramochi RB-WT: IC50 - Batch Mean (uM)>
8.69

>  <IncuCyte Kuramochi RB-KO: IC50 - Batch Mean (uM)>
8.63

>  <DSF (npCDK2/CCNE1): dTm D - Batch Mean [Concentration: 100]>


>  <DSF (npCDK2/CCNE1): dTm D - Batch Mean [Concentration: 20.0]>
1.31

>  <DSF (pCDK2/CCNE1): dTm D - Batch Mean [Concentration: 100]>


>  <DSF (pCDK2/CCNE1): dTm D - Batch Mean [Concentration: 20.0]>


>  <RLM: t1/2 - Batch Mean (Min)>


>  <RLM: Cl int - Batch Mean (uL/min/mg protein)>


>  <RLM: ER (Hepatic extraction ratio) - Batch Mean>


>  <HLM: t1/2 - Batch Mean (Min)>


>  <HLM: Cl int - Batch Mean (uL/min/mg protein)>


>  <HLM: ER (Hepatic extraction ratio) - Batch Mean>


>  <MDCK-WT 4% BSA: Papp (A-B) - Batch Mean (10-6, cm/s)>


>  <MDCK-WT 4% BSA: Papp (B-A) - Batch Mean (10-6, cm/s)>


>  <MDCK-WT 4% BSA: Efflux Ratio - Batch Mean>


>  <MDCK-WT 4% BSA: ~Net A_B - Batch Mean (10-6, cm/s)>


>  <pIC50>
5.468521

>  <Selection_1>
Y

>  <Selection_N>


>  <Serie>
Naphthyridine

>  <Selection_T>
N

>  <Train_Vs_Test>


$$$$
CTX-1020752
 OpenBabel08272613263D

 77 82  0  0  0  0  0  0  0  0999 V2000
    1.6311   -0.9054   -0.6910 O   0  0  0  0  0  0  0  0  0  0  0  0
    2.3838   -0.1697   -0.0488 C   0  0  0  0  0  0  0  0  0  0  0  0
    2.5126    1.1763   -0.3067 N   0  0  0  0  0  0  0  0  0  0  0  0
    3.1859   -0.7112    1.0893 C   0  0  0  0  0  0  0  0  0  0  0  0
    1.8038    1.8233   -1.3809 C   0  0  0  0  0  0  0  0  0  0  0  0
    4.2602    0.0034    1.5255 N   0  0  0  0  0  0  0  0  0  0  0  0
    2.7819   -1.9215    1.6319 C   0  0  0  0  0  0  0  0  0  0  0  0
    2.7552    2.5021   -2.3269 C   0  0  0  0  0  0  0  0  0  0  0  0
    4.9846   -0.5453    2.5441 C   0  0  0  0  0  0  0  0  0  0  0  0
    3.5246   -2.4567    2.6738 C   0  0  0  0  0  0  0  0  0  0  0  0
    3.7437    1.7592   -2.9778 C   0  0  0  0  0  0  0  0  0  0  0  0
    2.6608    3.8710   -2.5959 C   0  0  0  0  0  0  0  0  0  0  0  0
    4.6567   -1.7792    3.1256 C   0  0  0  0  0  0  0  0  0  0  0  0
    6.2213    0.2081    3.0310 C   0  0  0  0  0  0  0  0  0  0  0  0
    4.6367    2.3832   -3.8489 C   0  0  0  0  0  0  0  0  0  0  0  0
    3.5549    4.4860   -3.4827 C   0  0  0  0  0  0  0  0  0  0  0  0
    5.4435   -2.3534    4.2773 C   0  0  0  0  0  0  0  0  0  0  0  0
    6.7329   -0.2822    4.3237 N   0  0  0  0  0  0  0  0  0  0  0  0
    4.5673    3.7579   -4.1184 C   0  0  0  0  0  0  0  0  0  0  0  0
    6.8270   -1.7299    4.4158 C   0  0  0  0  0  0  0  0  0  0  0  0
    7.2566    0.6521    5.2142 C   0  0  0  0  0  0  0  0  0  0  0  0
    5.4475    4.3086   -5.0362 N   0  0  0  0  0  0  0  0  0  0  0  0
    7.3031    1.8373    4.8765 O   0  0  0  0  0  0  0  0  0  0  0  0
    7.7661    0.2693    6.5356 C   0  0  0  0  0  0  0  0  0  0  0  0
    5.1142    5.5408   -5.7619 C   0  0  0  0  0  0  0  0  0  0  0  0
    6.8900    4.1876   -4.7519 C   0  0  0  0  0  0  0  0  0  0  0  0
    8.5476    1.1798    7.2227 N   0  0  0  0  0  0  0  0  0  0  0  0
    8.2803   -0.8807    7.1411 C   0  0  0  0  0  0  0  0  0  0  0  0
    5.9138    5.5657   -7.0876 C   0  0  0  0  0  0  0  0  0  0  0  0
    7.6766    4.2428   -6.0828 C   0  0  0  0  0  0  0  0  0  0  0  0
    9.8392    0.7269    7.1213 C   0  0  0  0  0  0  0  0  0  0  0  0
    8.0296    2.2772    8.0028 C   0  0  0  0  0  0  0  0  0  0  0  0
    9.6948   -0.6650    7.0681 C   0  0  0  0  0  0  0  0  0  0  0  0
    7.6376   -1.7503    8.1678 C   0  0  0  0  0  0  0  0  0  0  0  0
    7.3791    5.4554   -6.8839 N   0  3  0  0  0  0  0  0  0  0  0  0
   11.0777    1.3667    7.1338 C   0  0  0  0  0  0  0  0  0  0  0  0
   10.8400   -1.4693    7.1381 C   0  0  0  0  0  0  0  0  0  0  0  0
    8.0665    5.3925   -8.1722 C   0  0  0  0  0  0  0  0  0  0  0  0
   12.2068    0.5427    7.0622 C   0  0  0  0  0  0  0  0  0  0  0  0
   12.0935   -0.8501    7.0791 C   0  0  0  0  0  0  0  0  0  0  0  0
    3.1091    1.7148    0.2620 H   0  0  0  0  0  0  0  0  0  0  0  0
    1.1387    2.5541   -0.9703 H   0  0  0  0  0  0  0  0  0  0  0  0
    1.2579    1.0801   -1.9236 H   0  0  0  0  0  0  0  0  0  0  0  0
    1.9493   -2.4119    1.2696 H   0  0  0  0  0  0  0  0  0  0  0  0
    3.2420   -3.3480    3.1107 H   0  0  0  0  0  0  0  0  0  0  0  0
    3.8134    0.7428   -2.8130 H   0  0  0  0  0  0  0  0  0  0  0  0
    1.9266    4.4332   -2.1377 H   0  0  0  0  0  0  0  0  0  0  0  0
    5.9689    1.2426    3.1363 H   0  0  0  0  0  0  0  0  0  0  0  0
    6.9925    0.0523    2.3059 H   0  0  0  0  0  0  0  0  0  0  0  0
    5.3683    1.8180   -4.3076 H   0  0  0  0  0  0  0  0  0  0  0  0
    3.4650    5.4967   -3.6709 H   0  0  0  0  0  0  0  0  0  0  0  0
    5.5568   -3.4062    4.1230 H   0  0  0  0  0  0  0  0  0  0  0  0
    4.9024   -2.1402    5.1755 H   0  0  0  0  0  0  0  0  0  0  0  0
    7.4595   -2.0941    3.6334 H   0  0  0  0  0  0  0  0  0  0  0  0
    7.2372   -1.9946    5.3680 H   0  0  0  0  0  0  0  0  0  0  0  0
    5.3757    6.3911   -5.1673 H   0  0  0  0  0  0  0  0  0  0  0  0
    4.0646    5.5710   -5.9677 H   0  0  0  0  0  0  0  0  0  0  0  0
    7.0814    3.2562   -4.2614 H   0  0  0  0  0  0  0  0  0  0  0  0
    7.2002    4.9913   -4.1173 H   0  0  0  0  0  0  0  0  0  0  0  0
    5.7082    6.4865   -7.5923 H   0  0  0  0  0  0  0  0  0  0  0  0
    5.6062    4.7173   -7.6624 H   0  0  0  0  0  0  0  0  0  0  0  0
    7.4242    3.3804   -6.6636 H   0  0  0  0  0  0  0  0  0  0  0  0
    8.7178    4.2695   -5.8375 H   0  0  0  0  0  0  0  0  0  0  0  0
    6.9735    2.3560    7.8503 H   0  0  0  0  0  0  0  0  0  0  0  0
    8.5030    3.1868    7.6971 H   0  0  0  0  0  0  0  0  0  0  0  0
    8.2282    2.1028    9.0396 H   0  0  0  0  0  0  0  0  0  0  0  0
    6.5780   -1.7541    8.0193 H   0  0  0  0  0  0  0  0  0  0  0  0
    7.8596   -1.3732    9.1442 H   0  0  0  0  0  0  0  0  0  0  0  0
    8.0141   -2.7478    8.0766 H   0  0  0  0  0  0  0  0  0  0  0  0
    7.7112    6.2792   -6.3822 H   0  0  0  0  0  0  0  0  0  0  0  0
   11.1579    2.3939    7.1927 H   0  0  0  0  0  0  0  0  0  0  0  0
   10.7609   -2.4941    7.2309 H   0  0  0  0  0  0  0  0  0  0  0  0
    7.7306    4.5331   -8.7140 H   0  0  0  0  0  0  0  0  0  0  0  0
    9.1218    5.3220   -8.0103 H   0  0  0  0  0  0  0  0  0  0  0  0
    7.8503    6.2762   -8.7354 H   0  0  0  0  0  0  0  0  0  0  0  0
   13.1426    0.9727    6.9955 H   0  0  0  0  0  0  0  0  0  0  0  0
   12.9464   -1.4302    7.0476 H   0  0  0  0  0  0  0  0  0  0  0  0
  1  2  2  0  0  0  0
  2  3  1  0  0  0  0
  2  4  1  0  0  0  0
  3  5  1  0  0  0  0
  3 41  1  0  0  0  0
  4  6  2  0  0  0  0
  4  7  1  0  0  0  0
  5  8  1  0  0  0  0
  5 42  1  0  0  0  0
  5 43  1  0  0  0  0
  6  9  1  0  0  0  0
  7 10  2  0  0  0  0
  7 44  1  0  0  0  0
  8 11  2  0  0  0  0
  8 12  1  0  0  0  0
  9 13  2  0  0  0  0
  9 14  1  0  0  0  0
 10 13  1  0  0  0  0
 10 45  1  0  0  0  0
 11 15  1  0  0  0  0
 11 46  1  0  0  0  0
 12 16  2  0  0  0  0
 12 47  1  0  0  0  0
 13 17  1  0  0  0  0
 14 18  1  0  0  0  0
 14 48  1  0  0  0  0
 14 49  1  0  0  0  0
 15 19  2  0  0  0  0
 15 50  1  0  0  0  0
 16 19  1  0  0  0  0
 16 51  1  0  0  0  0
 17 20  1  0  0  0  0
 17 52  1  0  0  0  0
 17 53  1  0  0  0  0
 18 21  1  0  0  0  0
 18 20  1  0  0  0  0
 19 22  1  0  0  0  0
 20 54  1  0  0  0  0
 20 55  1  0  0  0  0
 21 23  2  0  0  0  0
 21 24  1  0  0  0  0
 22 25  1  0  0  0  0
 22 26  1  0  0  0  0
 24 27  1  0  0  0  0
 24 28  2  0  0  0  0
 25 29  1  0  0  0  0
 25 56  1  0  0  0  0
 25 57  1  0  0  0  0
 26 30  1  0  0  0  0
 26 58  1  0  0  0  0
 26 59  1  0  0  0  0
 27 31  1  0  0  0  0
 27 32  1  0  0  0  0
 28 33  1  0  0  0  0
 28 34  1  0  0  0  0
 29 35  1  0  0  0  0
 29 60  1  0  0  0  0
 29 61  1  0  0  0  0
 30 35  1  0  0  0  0
 30 62  1  0  0  0  0
 30 63  1  0  0  0  0
 31 36  2  0  0  0  0
 31 33  1  0  0  0  0
 32 64  1  0  0  0  0
 32 65  1  0  0  0  0
 32 66  1  0  0  0  0
 33 37  2  0  0  0  0
 34 67  1  0  0  0  0
 34 68  1  0  0  0  0
 34 69  1  0  0  0  0
 35 38  1  0  0  0  0
 35 70  1  0  0  0  0
 36 39  1  0  0  0  0
 36 71  1  0  0  0  0
 37 40  1  0  0  0  0
 37 72  1  0  0  0  0
 38 73  1  0  0  0  0
 38 74  1  0  0  0  0
 38 75  1  0  0  0  0
 39 40  2  0  0  0  0
 39 76  1  0  0  0  0
 40 77  1  0  0  0  0
M  CHG  1  35   1
M  END
>  <Molecule Name>
CTX-1020752

>  <SMILES>
CN1C2=C(C=CC=C2)C(C)=C1C(=O)N1CCC2=C(C1)N=C(C=C2)C(=O)NCC1=CC=C(C=C1)N1CCN(C)CC1

>  <Batch Name>
CTX-1020752-1

>  <Batch Created Date>
2021-12-16

>  <Batch ID>
CTX-1020752-1

>  <External ID>
P841-0368

>  <Stereochemistry>
Achiral

>  <Amount 1>
4.6

>  <Unit 1>
mg

>  <CRO 1>
Pharmaron

>  <CRO 1 Total Amount>
25.65

>  <CRO 1 Unit>
mg

>  <Pharmaron Solubility (PBS, pH 7.4): Aqueous Solubility - Batch Mean (uM)>
181.5126

>  <Pharmaron Solubility (PBS, pH 7.4): Aqueous Solubility - Batch Mean (uM) Standard Deviation (±)>


>  <Pharmaron Solubility (PBS, pH 7.4): Aqueous Solubility - Batch Mean (uM) Count>
1.0

>  <log P>
3.8

>  <log D>
3.16

>  <Pharmaron Caliper Assay (CDK2/CCNE1): Minimum measured (%)>
43.0

>  <Pharmaron Caliper Assay (CDK2/CCNE1): IC50 - Batch Mean (uM)>
87.0

>  <Pharmaron ADPGLO (CDK2/E1-25C): Minimum measured (%)>


>  <Pharmaron ADPGLO (CDK2/E1-25C): IC50 - Batch Mean (uM)>


>  <Pharmaron ADPGLO (CDK2/E1-37C): Minimum measured (%)>


>  <Pharmaron ADPGLO (CDK2/E1-37C): IC50 - Batch Mean (uM)>


>  <IncuCyte Kuramochi RB-WT: IC50 - Batch Mean (uM)>
11.1

>  <IncuCyte Kuramochi RB-KO: IC50 - Batch Mean (uM)>
9.67

>  <DSF (npCDK2/CCNE1): dTm D - Batch Mean [Concentration: 100]>


>  <DSF (npCDK2/CCNE1): dTm D - Batch Mean [Concentration: 20.0]>
0.408

>  <DSF (pCDK2/CCNE1): dTm D - Batch Mean [Concentration: 100]>


>  <DSF (pCDK2/CCNE1): dTm D - Batch Mean [Concentration: 20.0]>


>  <RLM: t1/2 - Batch Mean (Min)>


>  <RLM: Cl int - Batch Mean (uL/min/mg protein)>


>  <RLM: ER (Hepatic extraction ratio) - Batch Mean>


>  <HLM: t1/2 - Batch Mean (Min)>


>  <HLM: Cl int - Batch Mean (uL/min/mg protein)>


>  <HLM: ER (Hepatic extraction ratio) - Batch Mean>


>  <MDCK-WT 4% BSA: Papp (A-B) - Batch Mean (10-6, cm/s)>


>  <MDCK-WT 4% BSA: Papp (B-A) - Batch Mean (10-6, cm/s)>


>  <MDCK-WT 4% BSA: Efflux Ratio - Batch Mean>


>  <MDCK-WT 4% BSA: ~Net A_B - Batch Mean (10-6, cm/s)>


>  <pIC50>
4.060481

>  <Selection_1>
Y

>  <Selection_N>
Y

>  <Serie>
Naphthyridine

>  <Selection_T>
N

>  <Train_Vs_Test>


$$$$
CTX-1020751
 OpenBabel08272613263D

 58 62  0  0  0  0  0  0  0  0999 V2000
   11.8545    5.9835    3.8063 F   0  0  0  0  0  0  0  0  0  0  0  0
   11.1222    5.5975    2.7237 C   0  0  0  0  0  0  0  0  0  0  0  0
   11.7231    6.1729    1.6445 F   0  0  0  0  0  0  0  0  0  0  0  0
   11.3298    4.2573    2.5949 F   0  0  0  0  0  0  0  0  0  0  0  0
    9.6584    5.9495    2.8285 C   0  0  0  0  0  0  0  0  0  0  0  0
    9.1466    6.5927    3.9633 C   0  0  0  0  0  0  0  0  0  0  0  0
    8.7834    5.6257    1.7822 C   0  0  0  0  0  0  0  0  0  0  0  0
    7.7885    6.9115    4.0449 C   0  0  0  0  0  0  0  0  0  0  0  0
    7.4248    5.9418    1.8668 C   0  0  0  0  0  0  0  0  0  0  0  0
    6.9141    6.5973    2.9973 C   0  0  0  0  0  0  0  0  0  0  0  0
    5.4432    6.8987    3.1044 C   0  0  0  0  0  0  0  0  0  0  0  0
    4.9920    7.7647    2.0426 N   0  0  0  0  0  0  0  0  0  0  0  0
    3.6908    7.7410    1.5940 C   0  0  0  0  0  0  0  0  0  0  0  0
    2.8428    6.9469    2.0025 O   0  0  0  0  0  0  0  0  0  0  0  0
    3.3508    8.7568    0.5287 C   0  0  0  0  0  0  0  0  0  0  0  0
    4.3422    9.6229    0.1591 N   0  0  0  0  0  0  0  0  0  0  0  0
    2.0817    8.7314   -0.0248 C   0  0  0  0  0  0  0  0  0  0  0  0
    4.0524   10.4930   -0.8492 C   0  0  0  0  0  0  0  0  0  0  0  0
    1.8042    9.6334   -1.0413 C   0  0  0  0  0  0  0  0  0  0  0  0
    2.7925   10.5291   -1.4678 C   0  0  0  0  0  0  0  0  0  0  0  0
    5.1475   11.4743   -1.2758 C   0  0  0  0  0  0  0  0  0  0  0  0
    2.5117   11.4321   -2.6410 C   0  0  0  0  0  0  0  0  0  0  0  0
    4.8875   12.0950   -2.5742 N   0  0  0  0  0  0  0  0  0  0  0  0
    3.5281   12.5593   -2.7971 C   0  0  0  0  0  0  0  0  0  0  0  0
    5.9463   12.4420   -3.4206 C   0  0  0  0  0  0  0  0  0  0  0  0
    7.0707   12.6655   -2.9746 O   0  0  0  0  0  0  0  0  0  0  0  0
    5.6881   12.2378   -4.8560 C   0  0  0  0  0  0  0  0  0  0  0  0
    4.7193   11.2872   -5.1148 O   0  0  0  0  0  0  0  0  0  0  0  0
    6.5777   12.1849   -5.9329 C   0  0  0  0  0  0  0  0  0  0  0  0
    5.4038   10.2948   -5.7225 C   0  0  0  0  0  0  0  0  0  0  0  0
    6.6106   10.7810   -6.2071 C   0  0  0  0  0  0  0  0  0  0  0  0
    7.4667   13.2257   -6.5027 C   0  0  0  0  0  0  0  0  0  0  0  0
    4.9997    8.9680   -5.7602 C   0  0  0  0  0  0  0  0  0  0  0  0
    7.5189    9.8679   -6.7663 C   0  0  0  0  0  0  0  0  0  0  0  0
    5.9524    8.0635   -6.2290 C   0  0  0  0  0  0  0  0  0  0  0  0
    7.1908    8.5031   -6.7138 C   0  0  0  0  0  0  0  0  0  0  0  0
    9.7771    6.8327    4.7442 H   0  0  0  0  0  0  0  0  0  0  0  0
    9.1459    5.1493    0.9416 H   0  0  0  0  0  0  0  0  0  0  0  0
    7.4257    7.3842    4.8875 H   0  0  0  0  0  0  0  0  0  0  0  0
    6.7919    5.6911    1.0911 H   0  0  0  0  0  0  0  0  0  0  0  0
    5.2556    7.3763    4.0434 H   0  0  0  0  0  0  0  0  0  0  0  0
    4.9092    5.9747    3.0277 H   0  0  0  0  0  0  0  0  0  0  0  0
    5.6311    8.3885    1.6282 H   0  0  0  0  0  0  0  0  0  0  0  0
    1.3674    8.0647    0.3074 H   0  0  0  0  0  0  0  0  0  0  0  0
    0.8713    9.6444   -1.4824 H   0  0  0  0  0  0  0  0  0  0  0  0
    6.0760   10.9455   -1.3309 H   0  0  0  0  0  0  0  0  0  0  0  0
    5.1752   12.2577   -0.5475 H   0  0  0  0  0  0  0  0  0  0  0  0
    1.5422   11.8657   -2.5104 H   0  0  0  0  0  0  0  0  0  0  0  0
    2.5708   10.8299   -3.5235 H   0  0  0  0  0  0  0  0  0  0  0  0
    3.3041   13.3284   -2.0878 H   0  0  0  0  0  0  0  0  0  0  0  0
    3.4632   12.9293   -3.7990 H   0  0  0  0  0  0  0  0  0  0  0  0
    7.1961   14.1820   -6.1060 H   0  0  0  0  0  0  0  0  0  0  0  0
    7.3634   13.2391   -7.5676 H   0  0  0  0  0  0  0  0  0  0  0  0
    8.4821   13.0072   -6.2455 H   0  0  0  0  0  0  0  0  0  0  0  0
    4.0577    8.6704   -5.4615 H   0  0  0  0  0  0  0  0  0  0  0  0
    8.3981   10.1887   -7.2013 H   0  0  0  0  0  0  0  0  0  0  0  0
    5.7413    7.0534   -6.2185 H   0  0  0  0  0  0  0  0  0  0  0  0
    7.8791    7.8071   -7.0405 H   0  0  0  0  0  0  0  0  0  0  0  0
  1  2  1  0  0  0  0
  2  3  1  0  0  0  0
  2  4  1  0  0  0  0
  2  5  1  0  0  0  0
  5  6  2  0  0  0  0
  5  7  1  0  0  0  0
  6  8  1  0  0  0  0
  6 37  1  0  0  0  0
  7  9  2  0  0  0  0
  7 38  1  0  0  0  0
  8 10  2  0  0  0  0
  8 39  1  0  0  0  0
  9 10  1  0  0  0  0
  9 40  1  0  0  0  0
 10 11  1  0  0  0  0
 11 12  1  0  0  0  0
 11 41  1  0  0  0  0
 11 42  1  0  0  0  0
 12 13  1  0  0  0  0
 12 43  1  0  0  0  0
 13 14  2  0  0  0  0
 13 15  1  0  0  0  0
 15 16  2  0  0  0  0
 15 17  1  0  0  0  0
 16 18  1  0  0  0  0
 17 19  2  0  0  0  0
 17 44  1  0  0  0  0
 18 20  2  0  0  0  0
 18 21  1  0  0  0  0
 19 20  1  0  0  0  0
 19 45  1  0  0  0  0
 20 22  1  0  0  0  0
 21 23  1  0  0  0  0
 21 46  1  0  0  0  0
 21 47  1  0  0  0  0
 22 24  1  0  0  0  0
 22 48  1  0  0  0  0
 22 49  1  0  0  0  0
 23 25  1  0  0  0  0
 23 24  1  0  0  0  0
 24 50  1  0  0  0  0
 24 51  1  0  0  0  0
 25 26  2  0  0  0  0
 25 27  1  0  0  0  0
 27 28  1  0  0  0  0
 27 29  2  0  0  0  0
 28 30  1  0  0  0  0
 29 31  1  0  0  0  0
 29 32  1  0  0  0  0
 30 33  2  0  0  0  0
 30 31  1  0  0  0  0
 31 34  2  0  0  0  0
 32 52  1  0  0  0  0
 32 53  1  0  0  0  0
 32 54  1  0  0  0  0
 33 35  1  0  0  0  0
 33 55  1  0  0  0  0
 34 36  1  0  0  0  0
 34 56  1  0  0  0  0
 35 36  2  0  0  0  0
 35 57  1  0  0  0  0
 36 58  1  0  0  0  0
M  END
>  <Molecule Name>
CTX-1020751

>  <SMILES>
CC1=C(OC2=C1C=CC=C2)C(=O)N1CCC2=C(C1)N=C(C=C2)C(=O)NCC1=CC=C(C=C1)C(F)(F)F

>  <Batch Name>
CTX-1020751-1

>  <Batch Created Date>
2021-12-16

>  <Batch ID>
CTX-1020751-1

>  <External ID>
P841-0366

>  <Stereochemistry>
Achiral

>  <Amount 1>
4.55

>  <Unit 1>
mg

>  <CRO 1>
Pharmaron

>  <CRO 1 Total Amount>
21.6

>  <CRO 1 Unit>
mg

>  <Pharmaron Solubility (PBS, pH 7.4): Aqueous Solubility - Batch Mean (uM)>
0.0001

>  <Pharmaron Solubility (PBS, pH 7.4): Aqueous Solubility - Batch Mean (uM) Standard Deviation (±)>


>  <Pharmaron Solubility (PBS, pH 7.4): Aqueous Solubility - Batch Mean (uM) Count>
1.0

>  <log P>
4.55

>  <log D>
4.55

>  <Pharmaron Caliper Assay (CDK2/CCNE1): Minimum measured (%)>
84.9

>  <Pharmaron Caliper Assay (CDK2/CCNE1): IC50 - Batch Mean (uM)>
90.4

>  <Pharmaron ADPGLO (CDK2/E1-25C): Minimum measured (%)>


>  <Pharmaron ADPGLO (CDK2/E1-25C): IC50 - Batch Mean (uM)>


>  <Pharmaron ADPGLO (CDK2/E1-37C): Minimum measured (%)>


>  <Pharmaron ADPGLO (CDK2/E1-37C): IC50 - Batch Mean (uM)>


>  <IncuCyte Kuramochi RB-WT: IC50 - Batch Mean (uM)>
20.0

>  <IncuCyte Kuramochi RB-KO: IC50 - Batch Mean (uM)>
20.0

>  <DSF (npCDK2/CCNE1): dTm D - Batch Mean [Concentration: 100]>


>  <DSF (npCDK2/CCNE1): dTm D - Batch Mean [Concentration: 20.0]>
0.24

>  <DSF (pCDK2/CCNE1): dTm D - Batch Mean [Concentration: 100]>


>  <DSF (pCDK2/CCNE1): dTm D - Batch Mean [Concentration: 20.0]>


>  <RLM: t1/2 - Batch Mean (Min)>


>  <RLM: Cl int - Batch Mean (uL/min/mg protein)>


>  <RLM: ER (Hepatic extraction ratio) - Batch Mean>


>  <HLM: t1/2 - Batch Mean (Min)>


>  <HLM: Cl int - Batch Mean (uL/min/mg protein)>


>  <HLM: ER (Hepatic extraction ratio) - Batch Mean>


>  <MDCK-WT 4% BSA: Papp (A-B) - Batch Mean (10-6, cm/s)>


>  <MDCK-WT 4% BSA: Papp (B-A) - Batch Mean (10-6, cm/s)>


>  <MDCK-WT 4% BSA: Efflux Ratio - Batch Mean>


>  <MDCK-WT 4% BSA: ~Net A_B - Batch Mean (10-6, cm/s)>


>  <pIC50>
4.043832

>  <Selection_1>
Y

>  <Selection_N>
Y

>  <Serie>
Naphthyridine

>  <Selection_T>
N

>  <Train_Vs_Test>


$$$$
CTX-1020750
 OpenBabel08272613263D

 59 63  0  0  0  0  0  0  0  0999 V2000
    1.4042    0.8099   -0.4071 O   0  0  0  0  0  0  0  0  0  0  0  0
    2.3116    0.0329   -0.1193 C   0  0  0  0  0  0  0  0  0  0  0  0
    2.7097   -0.2115    1.1723 N   0  0  0  0  0  0  0  0  0  0  0  0
    3.0272   -0.7315   -1.2031 C   0  0  0  0  0  0  0  0  0  0  0  0
    2.0440    0.4044    2.3029 C   0  0  0  0  0  0  0  0  0  0  0  0
    3.9949   -1.6311   -0.8418 N   0  0  0  0  0  0  0  0  0  0  0  0
    2.6398   -0.5000   -2.5103 C   0  0  0  0  0  0  0  0  0  0  0  0
    2.9733    1.2984    3.0790 C   0  0  0  0  0  0  0  0  0  0  0  0
    4.5886   -2.3436   -1.8567 C   0  0  0  0  0  0  0  0  0  0  0  0
    3.2550   -1.2159   -3.5236 C   0  0  0  0  0  0  0  0  0  0  0  0
    3.1393    2.6423    2.7152 C   0  0  0  0  0  0  0  0  0  0  0  0
    3.6933    0.8031    4.1712 C   0  0  0  0  0  0  0  0  0  0  0  0
    4.2464   -2.1499   -3.2079 C   0  0  0  0  0  0  0  0  0  0  0  0
    5.6828   -3.3640   -1.4962 C   0  0  0  0  0  0  0  0  0  0  0  0
    4.0018    3.4788    3.4350 C   0  0  0  0  0  0  0  0  0  0  0  0
    4.5530    1.6399    4.8871 C   0  0  0  0  0  0  0  0  0  0  0  0
    4.8414   -2.9764   -4.3181 C   0  0  0  0  0  0  0  0  0  0  0  0
    5.9794   -4.2985   -2.5887 N   0  0  0  0  0  0  0  0  0  0  0  0
    4.7137    2.9793    4.5250 C   0  0  0  0  0  0  0  0  0  0  0  0
    6.1107   -3.7096   -3.9091 C   0  0  0  0  0  0  0  0  0  0  0  0
    6.4750   -5.5803   -2.3294 C   0  0  0  0  0  0  0  0  0  0  0  0
    5.5842    3.6823    5.3118 O   0  0  0  0  0  0  0  0  0  0  0  0
    7.1166   -5.8280   -1.3100 O   0  0  0  0  0  0  0  0  0  0  0  0
    5.9376   -6.6284   -3.2014 C   0  0  0  0  0  0  0  0  0  0  0  0
    5.8135    5.0410    4.9619 C   0  0  0  0  0  0  0  0  0  0  0  0
    4.7470   -6.3254   -3.8251 O   0  0  0  0  0  0  0  0  0  0  0  0
    6.0815   -8.0148   -3.2260 C   0  0  0  0  0  0  0  0  0  0  0  0
    3.9684   -7.4190   -3.6541 C   0  0  0  0  0  0  0  0  0  0  0  0
    4.7266   -8.4624   -3.1481 C   0  0  0  0  0  0  0  0  0  0  0  0
    7.2848   -8.8790   -3.1816 C   0  0  0  0  0  0  0  0  0  0  0  0
    2.5995   -7.4548   -3.8642 C   0  0  0  0  0  0  0  0  0  0  0  0
    4.0571   -9.6142   -2.7028 C   0  0  0  0  0  0  0  0  0  0  0  0
    1.9466   -8.5896   -3.3821 C   0  0  0  0  0  0  0  0  0  0  0  0
    2.6562   -9.6350   -2.7805 C   0  0  0  0  0  0  0  0  0  0  0  0
    3.4663   -0.8203    1.3342 H   0  0  0  0  0  0  0  0  0  0  0  0
    1.6806   -0.3647    2.9521 H   0  0  0  0  0  0  0  0  0  0  0  0
    1.2401    1.0039    1.9296 H   0  0  0  0  0  0  0  0  0  0  0  0
    1.9063    0.1929   -2.7266 H   0  0  0  0  0  0  0  0  0  0  0  0
    2.9831   -1.0608   -4.5070 H   0  0  0  0  0  0  0  0  0  0  0  0
    2.6197    3.0196    1.9074 H   0  0  0  0  0  0  0  0  0  0  0  0
    3.5891   -0.1852    4.4495 H   0  0  0  0  0  0  0  0  0  0  0  0
    5.3578   -3.9262   -0.6457 H   0  0  0  0  0  0  0  0  0  0  0  0
    6.5783   -2.8144   -1.2938 H   0  0  0  0  0  0  0  0  0  0  0  0
    4.1106    4.4670    3.1581 H   0  0  0  0  0  0  0  0  0  0  0  0
    5.0758    1.2638    5.6935 H   0  0  0  0  0  0  0  0  0  0  0  0
    5.0727   -2.3282   -5.1374 H   0  0  0  0  0  0  0  0  0  0  0  0
    4.1180   -3.7189   -4.5829 H   0  0  0  0  0  0  0  0  0  0  0  0
    6.9262   -3.0169   -3.9020 H   0  0  0  0  0  0  0  0  0  0  0  0
    6.2873   -4.4961   -4.6129 H   0  0  0  0  0  0  0  0  0  0  0  0
    6.5084    5.4743    5.6506 H   0  0  0  0  0  0  0  0  0  0  0  0
    4.8900    5.5800    5.0005 H   0  0  0  0  0  0  0  0  0  0  0  0
    6.2148    5.0914    3.9712 H   0  0  0  0  0  0  0  0  0  0  0  0
    8.1627   -8.2723   -3.2606 H   0  0  0  0  0  0  0  0  0  0  0  0
    7.2561   -9.5725   -3.9959 H   0  0  0  0  0  0  0  0  0  0  0  0
    7.3043   -9.4159   -2.2563 H   0  0  0  0  0  0  0  0  0  0  0  0
    2.0963   -6.6929   -4.3452 H   0  0  0  0  0  0  0  0  0  0  0  0
    4.5802  -10.4216   -2.3294 H   0  0  0  0  0  0  0  0  0  0  0  0
    0.9208   -8.6595   -3.4708 H   0  0  0  0  0  0  0  0  0  0  0  0
    2.1393  -10.4365   -2.3865 H   0  0  0  0  0  0  0  0  0  0  0  0
  1  2  2  0  0  0  0
  2  3  1  0  0  0  0
  2  4  1  0  0  0  0
  3  5  1  0  0  0  0
  3 35  1  0  0  0  0
  4  6  2  0  0  0  0
  4  7  1  0  0  0  0
  5  8  1  0  0  0  0
  5 36  1  0  0  0  0
  5 37  1  0  0  0  0
  6  9  1  0  0  0  0
  7 10  2  0  0  0  0
  7 38  1  0  0  0  0
  8 11  2  0  0  0  0
  8 12  1  0  0  0  0
  9 13  2  0  0  0  0
  9 14  1  0  0  0  0
 10 13  1  0  0  0  0
 10 39  1  0  0  0  0
 11 15  1  0  0  0  0
 11 40  1  0  0  0  0
 12 16  2  0  0  0  0
 12 41  1  0  0  0  0
 13 17  1  0  0  0  0
 14 18  1  0  0  0  0
 14 42  1  0  0  0  0
 14 43  1  0  0  0  0
 15 19  2  0  0  0  0
 15 44  1  0  0  0  0
 16 19  1  0  0  0  0
 16 45  1  0  0  0  0
 17 20  1  0  0  0  0
 17 46  1  0  0  0  0
 17 47  1  0  0  0  0
 18 21  1  0  0  0  0
 18 20  1  0  0  0  0
 19 22  1  0  0  0  0
 20 48  1  0  0  0  0
 20 49  1  0  0  0  0
 21 23  2  0  0  0  0
 21 24  1  0  0  0  0
 22 25  1  0  0  0  0
 24 26  1  0  0  0  0
 24 27  2  0  0  0  0
 25 50  1  0  0  0  0
 25 51  1  0  0  0  0
 25 52  1  0  0  0  0
 26 28  1  0  0  0  0
 27 29  1  0  0  0  0
 27 30  1  0  0  0  0
 28 31  2  0  0  0  0
 28 29  1  0  0  0  0
 29 32  2  0  0  0  0
 30 53  1  0  0  0  0
 30 54  1  0  0  0  0
 30 55  1  0  0  0  0
 31 33  1  0  0  0  0
 31 56  1  0  0  0  0
 32 34  1  0  0  0  0
 32 57  1  0  0  0  0
 33 34  2  0  0  0  0
 33 58  1  0  0  0  0
 34 59  1  0  0  0  0
M  END
>  <Molecule Name>
CTX-1020750

>  <SMILES>
COC1=CC=C(CNC(=O)C2=NC3=C(CCN(C3)C(=O)C3=C(C)C4=C(O3)C=CC=C4)C=C2)C=C1

>  <Batch Name>
CTX-1020750-1

>  <Batch Created Date>
2021-12-16

>  <Batch ID>
CTX-1020750-1

>  <External ID>
P841-0367

>  <Stereochemistry>
Achiral

>  <Amount 1>
5.0

>  <Unit 1>
mg

>  <CRO 1>
Pharmaron

>  <CRO 1 Total Amount>
13.85

>  <CRO 1 Unit>
mg

>  <Pharmaron Solubility (PBS, pH 7.4): Aqueous Solubility - Batch Mean (uM)>
0.0005

>  <Pharmaron Solubility (PBS, pH 7.4): Aqueous Solubility - Batch Mean (uM) Standard Deviation (±)>


>  <Pharmaron Solubility (PBS, pH 7.4): Aqueous Solubility - Batch Mean (uM) Count>
1.0

>  <log P>
3.52

>  <log D>
3.52

>  <Pharmaron Caliper Assay (CDK2/CCNE1): Minimum measured (%)>
66.2

>  <Pharmaron Caliper Assay (CDK2/CCNE1): IC50 - Batch Mean (uM)>
0.765

>  <Pharmaron ADPGLO (CDK2/E1-25C): Minimum measured (%)>


>  <Pharmaron ADPGLO (CDK2/E1-25C): IC50 - Batch Mean (uM)>


>  <Pharmaron ADPGLO (CDK2/E1-37C): Minimum measured (%)>


>  <Pharmaron ADPGLO (CDK2/E1-37C): IC50 - Batch Mean (uM)>


>  <IncuCyte Kuramochi RB-WT: IC50 - Batch Mean (uM)>
20.0

>  <IncuCyte Kuramochi RB-KO: IC50 - Batch Mean (uM)>
20.0

>  <DSF (npCDK2/CCNE1): dTm D - Batch Mean [Concentration: 100]>


>  <DSF (npCDK2/CCNE1): dTm D - Batch Mean [Concentration: 20.0]>
1.21

>  <DSF (pCDK2/CCNE1): dTm D - Batch Mean [Concentration: 100]>


>  <DSF (pCDK2/CCNE1): dTm D - Batch Mean [Concentration: 20.0]>


>  <RLM: t1/2 - Batch Mean (Min)>


>  <RLM: Cl int - Batch Mean (uL/min/mg protein)>


>  <RLM: ER (Hepatic extraction ratio) - Batch Mean>


>  <HLM: t1/2 - Batch Mean (Min)>


>  <HLM: Cl int - Batch Mean (uL/min/mg protein)>


>  <HLM: ER (Hepatic extraction ratio) - Batch Mean>


>  <MDCK-WT 4% BSA: Papp (A-B) - Batch Mean (10-6, cm/s)>


>  <MDCK-WT 4% BSA: Papp (B-A) - Batch Mean (10-6, cm/s)>


>  <MDCK-WT 4% BSA: Efflux Ratio - Batch Mean>


>  <MDCK-WT 4% BSA: ~Net A_B - Batch Mean (10-6, cm/s)>


>  <pIC50>
6.116339

>  <Selection_1>
Y

>  <Selection_N>


>  <Serie>
Naphthyridine

>  <Selection_T>
N

>  <Train_Vs_Test>


$$$$
CTX-1020749
 OpenBabel08272613263D

 68 73  0  0  0  0  0  0  0  0999 V2000
    2.5858   -1.3612   -3.3707 Cl  0  0  0  0  0  0  0  0  0  0  0  0
    2.2140   -1.7301   -1.7410 C   0  0  0  0  0  0  0  0  0  0  0  0
    2.9301   -2.4513   -0.8013 C   0  0  0  0  0  0  0  0  0  0  0  0
    0.9047   -1.3984   -1.1801 C   0  0  0  0  0  0  0  0  0  0  0  0
    2.1336   -2.5654    0.3227 O   0  0  0  0  0  0  0  0  0  0  0  0
    4.2427   -3.2463   -0.7882 C   0  0  0  0  0  0  0  0  0  0  0  0
    0.9398   -1.9433    0.0961 C   0  0  0  0  0  0  0  0  0  0  0  0
   -0.3120   -0.7510   -1.5764 C   0  0  0  0  0  0  0  0  0  0  0  0
    5.3206   -2.8529   -1.0466 O   0  0  0  0  0  0  0  0  0  0  0  0
    4.0299   -4.7034   -0.5644 N   0  0  0  0  0  0  0  0  0  0  0  0
   -0.1283   -1.8758    0.9994 C   0  0  0  0  0  0  0  0  0  0  0  0
   -1.3860   -0.6579   -0.6727 C   0  0  0  0  0  0  0  0  0  0  0  0
    4.9720   -5.9011   -0.0791 C   0  0  0  0  0  0  0  0  0  0  0  0
    2.9698   -4.9976   -1.5098 C   0  0  0  0  0  0  0  0  0  0  0  0
   -1.2840   -1.2216    0.5942 C   0  0  0  0  0  0  0  0  0  0  0  0
    4.1962   -7.3402   -0.1832 C   0  0  0  0  0  0  0  0  0  0  0  0
    2.9647   -6.3672   -2.1045 C   0  0  0  0  0  0  0  0  0  0  0  0
    3.3589   -7.5349   -1.2571 C   0  0  0  0  0  0  0  0  0  0  0  0
    3.9800   -8.5857    0.6403 C   0  0  0  0  0  0  0  0  0  0  0  0
    2.6406   -9.0324   -1.4874 S   0  0  0  0  0  0  0  0  0  0  0  0
    2.8653   -9.3444    0.1765 C   0  0  0  0  0  0  0  0  0  0  0  0
    1.7542  -10.1126    0.7825 C   0  0  0  0  0  0  0  0  0  0  0  0
    0.8267   -9.5275    1.4162 O   0  0  0  0  0  0  0  0  0  0  0  0
    1.7304  -11.4708    0.5116 N   0  0  0  0  0  0  0  0  0  0  0  0
    0.4774  -12.2497    0.5120 C   0  0  0  0  0  0  0  0  0  0  0  0
    0.0455  -12.6411   -0.8884 C   0  0  0  0  0  0  0  0  0  0  0  0
    0.4804  -13.8387   -1.4635 C   0  0  0  0  0  0  0  0  0  0  0  0
   -0.7882  -11.8240   -1.6602 C   0  0  0  0  0  0  0  0  0  0  0  0
    0.1206  -14.1855   -2.7755 C   0  0  0  0  0  0  0  0  0  0  0  0
   -1.1443  -12.1809   -2.9780 C   0  0  0  0  0  0  0  0  0  0  0  0
   -0.6774  -13.3633   -3.5794 C   0  0  0  0  0  0  0  0  0  0  0  0
   -0.9201  -13.6794   -4.9066 N   0  0  0  0  0  0  0  0  0  0  0  0
   -1.1608  -15.0645   -5.3520 C   0  0  0  0  0  0  0  0  0  0  0  0
   -1.2859  -12.6622   -5.9072 C   0  0  0  0  0  0  0  0  0  0  0  0
   -0.4617  -15.3162   -6.7098 C   0  0  0  0  0  0  0  0  0  0  0  0
   -0.6068  -12.9845   -7.2659 C   0  0  0  0  0  0  0  0  0  0  0  0
   -0.9064  -14.3540   -7.7430 N   0  3  0  0  0  0  0  0  0  0  0  0
   -0.2565  -14.6195   -9.0227 C   0  0  0  0  0  0  0  0  0  0  0  0
   -0.3997   -0.3534   -2.5247 H   0  0  0  0  0  0  0  0  0  0  0  0
   -0.0584   -2.2994    1.9378 H   0  0  0  0  0  0  0  0  0  0  0  0
   -2.2518   -0.1700   -0.9508 H   0  0  0  0  0  0  0  0  0  0  0  0
    5.2579   -5.7309    0.9378 H   0  0  0  0  0  0  0  0  0  0  0  0
    5.8344   -5.9332   -0.7117 H   0  0  0  0  0  0  0  0  0  0  0  0
    3.0475   -4.2953   -2.3133 H   0  0  0  0  0  0  0  0  0  0  0  0
    2.0629   -4.9318   -0.9459 H   0  0  0  0  0  0  0  0  0  0  0  0
   -2.0818   -1.1525    1.2452 H   0  0  0  0  0  0  0  0  0  0  0  0
    3.6336   -6.3474   -2.9393 H   0  0  0  0  0  0  0  0  0  0  0  0
    1.9317   -6.5466   -2.3181 H   0  0  0  0  0  0  0  0  0  0  0  0
    4.5687   -8.8563    1.4435 H   0  0  0  0  0  0  0  0  0  0  0  0
    2.5774  -11.9315    0.3124 H   0  0  0  0  0  0  0  0  0  0  0  0
   -0.2952  -11.6592    0.9585 H   0  0  0  0  0  0  0  0  0  0  0  0
    0.6498  -13.1488    1.0659 H   0  0  0  0  0  0  0  0  0  0  0  0
    1.0757  -14.4785   -0.9146 H   0  0  0  0  0  0  0  0  0  0  0  0
   -1.1490  -10.9447   -1.2583 H   0  0  0  0  0  0  0  0  0  0  0  0
    0.4575  -15.0811   -3.1622 H   0  0  0  0  0  0  0  0  0  0  0  0
   -1.7652  -11.5564   -3.5160 H   0  0  0  0  0  0  0  0  0  0  0  0
   -2.2133  -15.2232   -5.4611 H   0  0  0  0  0  0  0  0  0  0  0  0
   -0.7641  -15.7403   -4.6235 H   0  0  0  0  0  0  0  0  0  0  0  0
   -0.9622  -11.7001   -5.5689 H   0  0  0  0  0  0  0  0  0  0  0  0
   -2.3480  -12.6634   -6.0368 H   0  0  0  0  0  0  0  0  0  0  0  0
   -0.6907  -16.3082   -7.0388 H   0  0  0  0  0  0  0  0  0  0  0  0
    0.5917  -15.1912   -6.5700 H   0  0  0  0  0  0  0  0  0  0  0  0
    0.4524  -12.8859   -7.1512 H   0  0  0  0  0  0  0  0  0  0  0  0
   -0.9916  -12.2980   -7.9908 H   0  0  0  0  0  0  0  0  0  0  0  0
   -1.9102  -14.4524   -7.8950 H   0  0  0  0  0  0  0  0  0  0  0  0
    0.8036  -14.5272   -8.9103 H   0  0  0  0  0  0  0  0  0  0  0  0
   -0.6007  -13.9148   -9.7505 H   0  0  0  0  0  0  0  0  0  0  0  0
   -0.4959  -15.6113   -9.3453 H   0  0  0  0  0  0  0  0  0  0  0  0
  1  2  1  0  0  0  0
  2  3  2  0  0  0  0
  2  4  1  0  0  0  0
  3  5  1  0  0  0  0
  3  6  1  0  0  0  0
  4  7  2  0  0  0  0
  4  8  1  0  0  0  0
  5  7  1  0  0  0  0
  6  9  2  0  0  0  0
  6 10  1  0  0  0  0
  7 11  1  0  0  0  0
  8 12  2  0  0  0  0
  8 39  1  0  0  0  0
 10 13  1  0  0  0  0
 10 14  1  0  0  0  0
 11 15  2  0  0  0  0
 11 40  1  0  0  0  0
 12 15  1  0  0  0  0
 12 41  1  0  0  0  0
 13 16  1  0  0  0  0
 13 42  1  0  0  0  0
 13 43  1  0  0  0  0
 14 17  1  0  0  0  0
 14 44  1  0  0  0  0
 14 45  1  0  0  0  0
 15 46  1  0  0  0  0
 16 18  2  0  0  0  0
 16 19  1  0  0  0  0
 17 18  1  0  0  0  0
 17 47  1  0  0  0  0
 17 48  1  0  0  0  0
 18 20  1  0  0  0  0
 19 21  2  0  0  0  0
 19 49  1  0  0  0  0
 20 21  1  0  0  0  0
 21 22  1  0  0  0  0
 22 23  2  0  0  0  0
 22 24  1  0  0  0  0
 24 25  1  0  0  0  0
 24 50  1  0  0  0  0
 25 26  1  0  0  0  0
 25 51  1  0  0  0  0
 25 52  1  0  0  0  0
 26 27  2  0  0  0  0
 26 28  1  0  0  0  0
 27 29  1  0  0  0  0
 27 53  1  0  0  0  0
 28 30  2  0  0  0  0
 28 54  1  0  0  0  0
 29 31  2  0  0  0  0
 29 55  1  0  0  0  0
 30 31  1  0  0  0  0
 30 56  1  0  0  0  0
 31 32  1  0  0  0  0
 32 33  1  0  0  0  0
 32 34  1  0  0  0  0
 33 35  1  0  0  0  0
 33 57  1  0  0  0  0
 33 58  1  0  0  0  0
 34 36  1  0  0  0  0
 34 59  1  0  0  0  0
 34 60  1  0  0  0  0
 35 37  1  0  0  0  0
 35 61  1  0  0  0  0
 35 62  1  0  0  0  0
 36 37  1  0  0  0  0
 36 63  1  0  0  0  0
 36 64  1  0  0  0  0
 37 38  1  0  0  0  0
 37 65  1  0  0  0  0
 38 66  1  0  0  0  0
 38 67  1  0  0  0  0
 38 68  1  0  0  0  0
M  CHG  1  37   1
M  END
>  <Molecule Name>
CTX-1020749

>  <SMILES>
CN1CCN(CC1)C1=CC=C(CNC(=O)C2=CC3=C(CCN(C3)C(=O)C3=C(Cl)C4=C(O3)C=CC=C4)S2)C=C1

>  <Batch Name>
CTX-1020749-1

>  <Batch Created Date>
2021-12-16

>  <Batch ID>
CTX-1020749-1

>  <External ID>
P841-0370

>  <Stereochemistry>
Achiral

>  <Amount 1>
3.15

>  <Unit 1>
mg

>  <CRO 1>
Pharmaron

>  <CRO 1 Total Amount>
0.0

>  <CRO 1 Unit>
mg

>  <Pharmaron Solubility (PBS, pH 7.4): Aqueous Solubility - Batch Mean (uM)>


>  <Pharmaron Solubility (PBS, pH 7.4): Aqueous Solubility - Batch Mean (uM) Standard Deviation (±)>


>  <Pharmaron Solubility (PBS, pH 7.4): Aqueous Solubility - Batch Mean (uM) Count>


>  <log P>
4.52

>  <log D>
3.89

>  <Pharmaron Caliper Assay (CDK2/CCNE1): Minimum measured (%)>
22.5

>  <Pharmaron Caliper Assay (CDK2/CCNE1): IC50 - Batch Mean (uM)>
1.63

>  <Pharmaron ADPGLO (CDK2/E1-25C): Minimum measured (%)>


>  <Pharmaron ADPGLO (CDK2/E1-25C): IC50 - Batch Mean (uM)>


>  <Pharmaron ADPGLO (CDK2/E1-37C): Minimum measured (%)>


>  <Pharmaron ADPGLO (CDK2/E1-37C): IC50 - Batch Mean (uM)>


>  <IncuCyte Kuramochi RB-WT: IC50 - Batch Mean (uM)>
9.17

>  <IncuCyte Kuramochi RB-KO: IC50 - Batch Mean (uM)>
7.17

>  <DSF (npCDK2/CCNE1): dTm D - Batch Mean [Concentration: 100]>


>  <DSF (npCDK2/CCNE1): dTm D - Batch Mean [Concentration: 20.0]>
2.9139999999999997

>  <DSF (pCDK2/CCNE1): dTm D - Batch Mean [Concentration: 100]>


>  <DSF (pCDK2/CCNE1): dTm D - Batch Mean [Concentration: 20.0]>
1.286

>  <RLM: t1/2 - Batch Mean (Min)>


>  <RLM: Cl int - Batch Mean (uL/min/mg protein)>


>  <RLM: ER (Hepatic extraction ratio) - Batch Mean>


>  <HLM: t1/2 - Batch Mean (Min)>


>  <HLM: Cl int - Batch Mean (uL/min/mg protein)>


>  <HLM: ER (Hepatic extraction ratio) - Batch Mean>


>  <MDCK-WT 4% BSA: Papp (A-B) - Batch Mean (10-6, cm/s)>


>  <MDCK-WT 4% BSA: Papp (B-A) - Batch Mean (10-6, cm/s)>


>  <MDCK-WT 4% BSA: Efflux Ratio - Batch Mean>


>  <MDCK-WT 4% BSA: ~Net A_B - Batch Mean (10-6, cm/s)>


>  <pIC50>
5.787812

>  <Selection_1>
Y

>  <Selection_N>
N

>  <Serie>
Tetrahydrothienopyridine

>  <Selection_T>


>  <Train_Vs_Test>


$$$$
CTX-1020748
 OpenBabel08272613263D

 72 77  0  0  0  0  0  0  0  0999 V2000
    4.8312   -2.7503   -2.9041 Cl  0  0  0  0  0  0  0  0  0  0  0  0
    4.0911   -1.6958   -1.7696 C   0  0  0  0  0  0  0  0  0  0  0  0
    3.9093   -1.9426   -0.3918 C   0  0  0  0  0  0  0  0  0  0  0  0
    3.5675   -0.4038   -2.1613 C   0  0  0  0  0  0  0  0  0  0  0  0
    3.2108   -0.7711    0.0149 N   0  0  0  0  0  0  0  0  0  0  0  0
    4.3383   -3.1702    0.5182 C   0  0  0  0  0  0  0  0  0  0  0  0
    3.0133    0.1623   -1.0213 C   0  0  0  0  0  0  0  0  0  0  0  0
    3.4905    0.3691   -3.3675 C   0  0  0  0  0  0  0  0  0  0  0  0
    2.6401   -0.4539    1.3132 C   0  0  0  0  0  0  0  0  0  0  0  0
    4.3813   -3.0560    1.7392 O   0  0  0  0  0  0  0  0  0  0  0  0
    4.4022   -4.5296   -0.0741 N   0  0  0  0  0  0  0  0  0  0  0  0
    2.3876    1.4452   -1.0315 C   0  0  0  0  0  0  0  0  0  0  0  0
    2.8852    1.6582   -3.3790 C   0  0  0  0  0  0  0  0  0  0  0  0
    5.1686   -5.9391    0.4399 C   0  0  0  0  0  0  0  0  0  0  0  0
    3.0533   -4.7385   -0.4547 C   0  0  0  0  0  0  0  0  0  0  0  0
    2.3377    2.1648   -2.2245 C   0  0  0  0  0  0  0  0  0  0  0  0
    4.3833   -7.3475    0.0202 C   0  0  0  0  0  0  0  0  0  0  0  0
    2.8145   -5.9299   -1.3282 C   0  0  0  0  0  0  0  0  0  0  0  0
    3.4717   -7.2327   -0.9874 C   0  0  0  0  0  0  0  0  0  0  0  0
    4.2167   -8.7906    0.4600 C   0  0  0  0  0  0  0  0  0  0  0  0
    2.7626   -8.6465   -1.5992 S   0  0  0  0  0  0  0  0  0  0  0  0
    2.9958   -9.3382   -0.0487 C   0  0  0  0  0  0  0  0  0  0  0  0
    1.9355  -10.2530    0.3805 C   0  0  0  0  0  0  0  0  0  0  0  0
    1.9700  -11.4411    0.2749 O   0  0  0  0  0  0  0  0  0  0  0  0
    0.7354   -9.6301    0.8366 N   0  0  0  0  0  0  0  0  0  0  0  0
    0.5251   -8.2073    0.9880 C   0  0  0  0  0  0  0  0  0  0  0  0
   -0.4525   -7.8374    2.0688 C   0  0  0  0  0  0  0  0  0  0  0  0
   -0.0770   -7.9269    3.4261 C   0  0  0  0  0  0  0  0  0  0  0  0
   -1.7262   -7.3521    1.7796 C   0  0  0  0  0  0  0  0  0  0  0  0
   -0.9603   -7.5799    4.4326 C   0  0  0  0  0  0  0  0  0  0  0  0
   -2.6051   -7.0054    2.8171 C   0  0  0  0  0  0  0  0  0  0  0  0
   -2.2486   -7.1516    4.1642 C   0  0  0  0  0  0  0  0  0  0  0  0
   -3.1642   -6.9301    5.1909 N   0  0  0  0  0  0  0  0  0  0  0  0
   -2.7568   -6.3882    6.4886 C   0  0  0  0  0  0  0  0  0  0  0  0
   -4.5931   -7.1271    4.9853 C   0  0  0  0  0  0  0  0  0  0  0  0
   -3.4120   -7.1947    7.6302 C   0  0  0  0  0  0  0  0  0  0  0  0
   -5.2168   -7.8713    6.1879 C   0  0  0  0  0  0  0  0  0  0  0  0
   -4.8813   -7.2318    7.4825 N   0  3  0  0  0  0  0  0  0  0  0  0
   -5.5008   -7.9418    8.5954 C   0  0  0  0  0  0  0  0  0  0  0  0
    3.8805   -0.0157   -4.2421 H   0  0  0  0  0  0  0  0  0  0  0  0
    2.8629   -1.2411    2.0027 H   0  0  0  0  0  0  0  0  0  0  0  0
    1.5791   -0.3504    1.2207 H   0  0  0  0  0  0  0  0  0  0  0  0
    3.0580    0.4635    1.6720 H   0  0  0  0  0  0  0  0  0  0  0  0
    1.9778    1.8344   -0.1681 H   0  0  0  0  0  0  0  0  0  0  0  0
    2.8577    2.2097   -4.2508 H   0  0  0  0  0  0  0  0  0  0  0  0
    5.2478   -5.9061    1.5064 H   0  0  0  0  0  0  0  0  0  0  0  0
    6.1191   -5.9639   -0.0508 H   0  0  0  0  0  0  0  0  0  0  0  0
    2.7198   -3.8693   -0.9821 H   0  0  0  0  0  0  0  0  0  0  0  0
    2.5143   -4.9221    0.4512 H   0  0  0  0  0  0  0  0  0  0  0  0
    1.8833    3.0912   -2.2410 H   0  0  0  0  0  0  0  0  0  0  0  0
    3.1386   -5.6650   -2.3129 H   0  0  0  0  0  0  0  0  0  0  0  0
    1.7713   -6.1317   -1.2019 H   0  0  0  0  0  0  0  0  0  0  0  0
    4.8916   -9.3067    1.0459 H   0  0  0  0  0  0  0  0  0  0  0  0
   -0.0164  -10.2217    1.0689 H   0  0  0  0  0  0  0  0  0  0  0  0
    0.1593   -7.8220    0.0592 H   0  0  0  0  0  0  0  0  0  0  0  0
    1.4675   -7.7868    1.2706 H   0  0  0  0  0  0  0  0  0  0  0  0
    0.8699   -8.2559    3.6714 H   0  0  0  0  0  0  0  0  0  0  0  0
   -2.0248   -7.2472    0.7973 H   0  0  0  0  0  0  0  0  0  0  0  0
   -0.6488   -7.6424    5.4144 H   0  0  0  0  0  0  0  0  0  0  0  0
   -3.5383   -6.6330    2.5817 H   0  0  0  0  0  0  0  0  0  0  0  0
   -3.0633   -5.3653    6.5569 H   0  0  0  0  0  0  0  0  0  0  0  0
   -1.6927   -6.4564    6.5779 H   0  0  0  0  0  0  0  0  0  0  0  0
   -4.7446   -7.7043    4.0972 H   0  0  0  0  0  0  0  0  0  0  0  0
   -5.0635   -6.1708    4.8891 H   0  0  0  0  0  0  0  0  0  0  0  0
   -3.1666   -6.7375    8.5660 H   0  0  0  0  0  0  0  0  0  0  0  0
   -3.0420   -8.1980    7.5921 H   0  0  0  0  0  0  0  0  0  0  0  0
   -4.8519   -8.8772    6.1966 H   0  0  0  0  0  0  0  0  0  0  0  0
   -6.2803   -7.8417    6.0747 H   0  0  0  0  0  0  0  0  0  0  0  0
   -5.2474   -6.2798    7.4933 H   0  0  0  0  0  0  0  0  0  0  0  0
   -5.1418   -8.9494    8.6198 H   0  0  0  0  0  0  0  0  0  0  0  0
   -6.5634   -7.9447    8.4694 H   0  0  0  0  0  0  0  0  0  0  0  0
   -5.2519   -7.4521    9.5137 H   0  0  0  0  0  0  0  0  0  0  0  0
  1  2  1  0  0  0  0
  2  3  2  0  0  0  0
  2  4  1  0  0  0  0
  3  5  1  0  0  0  0
  3  6  1  0  0  0  0
  4  7  2  0  0  0  0
  4  8  1  0  0  0  0
  5  9  1  0  0  0  0
  5  7  1  0  0  0  0
  6 10  2  0  0  0  0
  6 11  1  0  0  0  0
  7 12  1  0  0  0  0
  8 13  2  0  0  0  0
  8 40  1  0  0  0  0
  9 41  1  0  0  0  0
  9 42  1  0  0  0  0
  9 43  1  0  0  0  0
 11 14  1  0  0  0  0
 11 15  1  0  0  0  0
 12 16  2  0  0  0  0
 12 44  1  0  0  0  0
 13 16  1  0  0  0  0
 13 45  1  0  0  0  0
 14 17  1  0  0  0  0
 14 46  1  0  0  0  0
 14 47  1  0  0  0  0
 15 18  1  0  0  0  0
 15 48  1  0  0  0  0
 15 49  1  0  0  0  0
 16 50  1  0  0  0  0
 17 19  2  0  0  0  0
 17 20  1  0  0  0  0
 18 19  1  0  0  0  0
 18 51  1  0  0  0  0
 18 52  1  0  0  0  0
 19 21  1  0  0  0  0
 20 22  2  0  0  0  0
 20 53  1  0  0  0  0
 21 22  1  0  0  0  0
 22 23  1  0  0  0  0
 23 24  2  0  0  0  0
 23 25  1  0  0  0  0
 25 26  1  0  0  0  0
 25 54  1  0  0  0  0
 26 27  1  0  0  0  0
 26 55  1  0  0  0  0
 26 56  1  0  0  0  0
 27 28  2  0  0  0  0
 27 29  1  0  0  0  0
 28 30  1  0  0  0  0
 28 57  1  0  0  0  0
 29 31  2  0  0  0  0
 29 58  1  0  0  0  0
 30 32  2  0  0  0  0
 30 59  1  0  0  0  0
 31 32  1  0  0  0  0
 31 60  1  0  0  0  0
 32 33  1  0  0  0  0
 33 34  1  0  0  0  0
 33 35  1  0  0  0  0
 34 36  1  0  0  0  0
 34 61  1  0  0  0  0
 34 62  1  0  0  0  0
 35 37  1  0  0  0  0
 35 63  1  0  0  0  0
 35 64  1  0  0  0  0
 36 38  1  0  0  0  0
 36 65  1  0  0  0  0
 36 66  1  0  0  0  0
 37 38  1  0  0  0  0
 37 67  1  0  0  0  0
 37 68  1  0  0  0  0
 38 39  1  0  0  0  0
 38 69  1  0  0  0  0
 39 70  1  0  0  0  0
 39 71  1  0  0  0  0
 39 72  1  0  0  0  0
M  CHG  1  38   1
M  END
>  <Molecule Name>
CTX-1020748

>  <SMILES>
CN1C2=C(C=CC=C2)C(Cl)=C1C(=O)N1CCC2=C(C1)C=C(S2)C(=O)NCC1=CC=C(C=C1)N1CCN(C)CC1

>  <Batch Name>
CTX-1020748-1

>  <Batch Created Date>
2021-12-16

>  <Batch ID>
CTX-1020748-1

>  <External ID>
P841-0362

>  <Stereochemistry>
Achiral

>  <Amount 1>
4.7

>  <Unit 1>
mg

>  <CRO 1>
Pharmaron

>  <CRO 1 Total Amount>
22.05

>  <CRO 1 Unit>
mg

>  <Pharmaron Solubility (PBS, pH 7.4): Aqueous Solubility - Batch Mean (uM)>
0.1867

>  <Pharmaron Solubility (PBS, pH 7.4): Aqueous Solubility - Batch Mean (uM) Standard Deviation (±)>


>  <Pharmaron Solubility (PBS, pH 7.4): Aqueous Solubility - Batch Mean (uM) Count>
1.0

>  <log P>
4.68

>  <log D>
4.05

>  <Pharmaron Caliper Assay (CDK2/CCNE1): Minimum measured (%)>
56.6

>  <Pharmaron Caliper Assay (CDK2/CCNE1): IC50 - Batch Mean (uM)>
2.78

>  <Pharmaron ADPGLO (CDK2/E1-25C): Minimum measured (%)>


>  <Pharmaron ADPGLO (CDK2/E1-25C): IC50 - Batch Mean (uM)>


>  <Pharmaron ADPGLO (CDK2/E1-37C): Minimum measured (%)>


>  <Pharmaron ADPGLO (CDK2/E1-37C): IC50 - Batch Mean (uM)>


>  <IncuCyte Kuramochi RB-WT: IC50 - Batch Mean (uM)>
9.28

>  <IncuCyte Kuramochi RB-KO: IC50 - Batch Mean (uM)>
8.69

>  <DSF (npCDK2/CCNE1): dTm D - Batch Mean [Concentration: 100]>


>  <DSF (npCDK2/CCNE1): dTm D - Batch Mean [Concentration: 20.0]>
1.143

>  <DSF (pCDK2/CCNE1): dTm D - Batch Mean [Concentration: 100]>


>  <DSF (pCDK2/CCNE1): dTm D - Batch Mean [Concentration: 20.0]>


>  <RLM: t1/2 - Batch Mean (Min)>


>  <RLM: Cl int - Batch Mean (uL/min/mg protein)>


>  <RLM: ER (Hepatic extraction ratio) - Batch Mean>


>  <HLM: t1/2 - Batch Mean (Min)>


>  <HLM: Cl int - Batch Mean (uL/min/mg protein)>


>  <HLM: ER (Hepatic extraction ratio) - Batch Mean>


>  <MDCK-WT 4% BSA: Papp (A-B) - Batch Mean (10-6, cm/s)>


>  <MDCK-WT 4% BSA: Papp (B-A) - Batch Mean (10-6, cm/s)>


>  <MDCK-WT 4% BSA: Efflux Ratio - Batch Mean>


>  <MDCK-WT 4% BSA: ~Net A_B - Batch Mean (10-6, cm/s)>


>  <pIC50>
5.555955

>  <Selection_1>
Y

>  <Selection_N>
N

>  <Serie>
Tetrahydrothienopyridine

>  <Selection_T>


>  <Train_Vs_Test>


$$$$
CTX-1020747
 OpenBabel08272613263D

 71 76  0  0  0  0  0  0  0  0999 V2000
    1.7944   -0.6922   -0.0327 S   0  0  0  0  0  0  0  0  0  0  0  0
    2.1090    0.9915    0.0531 C   0  0  0  0  0  0  0  0  0  0  0  0
    0.1104   -0.4440   -0.0288 C   0  0  0  0  0  0  0  0  0  0  0  0
    3.4640    1.5513    0.0737 C   0  0  0  0  0  0  0  0  0  0  0  0
    0.9266    1.7105    0.0907 C   0  0  0  0  0  0  0  0  0  0  0  0
   -0.2484    0.8887    0.0494 C   0  0  0  0  0  0  0  0  0  0  0  0
   -0.8674   -1.5715   -0.1507 C   0  0  0  0  0  0  0  0  0  0  0  0
    3.6696    2.7608    0.1159 O   0  0  0  0  0  0  0  0  0  0  0  0
    4.5205    0.6495    0.0344 N   0  0  0  0  0  0  0  0  0  0  0  0
   -1.6902    1.3536    0.0751 C   0  0  0  0  0  0  0  0  0  0  0  0
   -2.2811   -1.0777    0.1966 C   0  0  0  0  0  0  0  0  0  0  0  0
    5.9114    1.0628    0.0682 C   0  0  0  0  0  0  0  0  0  0  0  0
   -2.5688    0.2566   -0.3426 N   0  0  0  0  0  0  0  0  0  0  0  0
    6.6625    0.6129   -1.1608 C   0  0  0  0  0  0  0  0  0  0  0  0
   -3.7479    0.5474   -1.0369 C   0  0  0  0  0  0  0  0  0  0  0  0
    6.2470    1.0365   -2.4244 C   0  0  0  0  0  0  0  0  0  0  0  0
    7.8127   -0.1841   -1.0737 C   0  0  0  0  0  0  0  0  0  0  0  0
   -4.2987    1.6431   -0.9277 O   0  0  0  0  0  0  0  0  0  0  0  0
   -4.1044   -0.4052   -2.1058 C   0  0  0  0  0  0  0  0  0  0  0  0
    6.9473    0.6434   -3.5675 C   0  0  0  0  0  0  0  0  0  0  0  0
    8.5178   -0.5669   -2.2295 C   0  0  0  0  0  0  0  0  0  0  0  0
   -3.0313   -1.1250   -2.5992 O   0  0  0  0  0  0  0  0  0  0  0  0
   -4.9671   -0.2095   -3.1902 C   0  0  0  0  0  0  0  0  0  0  0  0
    8.0862   -0.1784   -3.5015 C   0  0  0  0  0  0  0  0  0  0  0  0
   -2.8565   -0.6001   -3.8398 C   0  0  0  0  0  0  0  0  0  0  0  0
   -4.0279    0.0224   -4.2471 C   0  0  0  0  0  0  0  0  0  0  0  0
   -6.4216    0.0748   -3.2152 C   0  0  0  0  0  0  0  0  0  0  0  0
    8.7250   -0.5238   -4.6850 N   0  0  0  0  0  0  0  0  0  0  0  0
   -1.6640   -0.5685   -4.5464 C   0  0  0  0  0  0  0  0  0  0  0  0
   -4.0163    0.7448   -5.4517 C   0  0  0  0  0  0  0  0  0  0  0  0
   10.1413   -0.9255   -4.7143 C   0  0  0  0  0  0  0  0  0  0  0  0
    7.9078   -1.3058   -5.6379 C   0  0  0  0  0  0  0  0  0  0  0  0
   -0.5571   -1.1675   -4.0862 F   0  0  0  0  0  0  0  0  0  0  0  0
   -1.6306    0.2399   -5.6718 C   0  0  0  0  0  0  0  0  0  0  0  0
   -2.7858    0.8955   -6.1153 C   0  0  0  0  0  0  0  0  0  0  0  0
   10.6830   -0.7592   -6.1624 C   0  0  0  0  0  0  0  0  0  0  0  0
    8.4674   -1.1153   -7.0639 C   0  0  0  0  0  0  0  0  0  0  0  0
    9.8920   -1.5078   -7.1711 N   0  3  0  0  0  0  0  0  0  0  0  0
   10.3863   -1.2417   -8.5205 C   0  0  0  0  0  0  0  0  0  0  0  0
    0.8937    2.7406    0.1435 H   0  0  0  0  0  0  0  0  0  0  0  0
   -0.5902   -2.3558    0.5223 H   0  0  0  0  0  0  0  0  0  0  0  0
   -0.8592   -1.9378   -1.1560 H   0  0  0  0  0  0  0  0  0  0  0  0
    4.3166   -0.3122   -0.0187 H   0  0  0  0  0  0  0  0  0  0  0  0
   -1.8097    2.1799   -0.5941 H   0  0  0  0  0  0  0  0  0  0  0  0
   -1.9480    1.6565    1.0684 H   0  0  0  0  0  0  0  0  0  0  0  0
   -2.3789   -1.0438    1.2615 H   0  0  0  0  0  0  0  0  0  0  0  0
   -2.9770   -1.7595   -0.2459 H   0  0  0  0  0  0  0  0  0  0  0  0
    6.3773    0.6386    0.9330 H   0  0  0  0  0  0  0  0  0  0  0  0
    5.9387    2.1320    0.1006 H   0  0  0  0  0  0  0  0  0  0  0  0
    5.4175    1.6438   -2.5147 H   0  0  0  0  0  0  0  0  0  0  0  0
    8.1472   -0.4944   -0.1480 H   0  0  0  0  0  0  0  0  0  0  0  0
    6.6179    0.9667   -4.4905 H   0  0  0  0  0  0  0  0  0  0  0  0
    9.3681   -1.1444   -2.1369 H   0  0  0  0  0  0  0  0  0  0  0  0
   -6.8560   -0.2058   -2.2785 H   0  0  0  0  0  0  0  0  0  0  0  0
   -6.8808   -0.4846   -4.0032 H   0  0  0  0  0  0  0  0  0  0  0  0
   -6.5779    1.1201   -3.3819 H   0  0  0  0  0  0  0  0  0  0  0  0
   -4.8828    1.1519   -5.8372 H   0  0  0  0  0  0  0  0  0  0  0  0
   10.2308   -1.9482   -4.4128 H   0  0  0  0  0  0  0  0  0  0  0  0
   10.7058   -0.3118   -4.0438 H   0  0  0  0  0  0  0  0  0  0  0  0
    6.8940   -0.9653   -5.6031 H   0  0  0  0  0  0  0  0  0  0  0  0
    7.9423   -2.3422   -5.3742 H   0  0  0  0  0  0  0  0  0  0  0  0
   -0.7453    0.3598   -6.1883 H   0  0  0  0  0  0  0  0  0  0  0  0
   -2.7328    1.5029   -6.9480 H   0  0  0  0  0  0  0  0  0  0  0  0
   11.6925   -1.1129   -6.1908 H   0  0  0  0  0  0  0  0  0  0  0  0
   10.6144    0.2793   -6.4107 H   0  0  0  0  0  0  0  0  0  0  0  0
    8.3743   -0.0842   -7.3342 H   0  0  0  0  0  0  0  0  0  0  0  0
    7.9059   -1.7463   -7.7207 H   0  0  0  0  0  0  0  0  0  0  0  0
    9.9870   -2.5073   -6.9911 H   0  0  0  0  0  0  0  0  0  0  0  0
   10.2969   -0.1969   -8.7335 H   0  0  0  0  0  0  0  0  0  0  0  0
    9.8102   -1.8006   -9.2281 H   0  0  0  0  0  0  0  0  0  0  0  0
   11.4137   -1.5328   -8.5878 H   0  0  0  0  0  0  0  0  0  0  0  0
  1  2  1  0  0  0  0
  1  3  1  0  0  0  0
  2  4  1  0  0  0  0
  2  5  2  0  0  0  0
  3  6  2  0  0  0  0
  3  7  1  0  0  0  0
  4  8  2  0  0  0  0
  4  9  1  0  0  0  0
  5  6  1  0  0  0  0
  5 40  1  0  0  0  0
  6 10  1  0  0  0  0
  7 11  1  0  0  0  0
  7 41  1  0  0  0  0
  7 42  1  0  0  0  0
  9 12  1  0  0  0  0
  9 43  1  0  0  0  0
 10 13  1  0  0  0  0
 10 44  1  0  0  0  0
 10 45  1  0  0  0  0
 11 13  1  0  0  0  0
 11 46  1  0  0  0  0
 11 47  1  0  0  0  0
 12 14  1  0  0  0  0
 12 48  1  0  0  0  0
 12 49  1  0  0  0  0
 13 15  1  0  0  0  0
 14 16  2  0  0  0  0
 14 17  1  0  0  0  0
 15 18  2  0  0  0  0
 15 19  1  0  0  0  0
 16 20  1  0  0  0  0
 16 50  1  0  0  0  0
 17 21  2  0  0  0  0
 17 51  1  0  0  0  0
 19 22  1  0  0  0  0
 19 23  2  0  0  0  0
 20 24  2  0  0  0  0
 20 52  1  0  0  0  0
 21 24  1  0  0  0  0
 21 53  1  0  0  0  0
 22 25  1  0  0  0  0
 23 26  1  0  0  0  0
 23 27  1  0  0  0  0
 24 28  1  0  0  0  0
 25 29  2  0  0  0  0
 25 26  1  0  0  0  0
 26 30  2  0  0  0  0
 27 54  1  0  0  0  0
 27 55  1  0  0  0  0
 27 56  1  0  0  0  0
 28 31  1  0  0  0  0
 28 32  1  0  0  0  0
 29 33  1  0  0  0  0
 29 34  1  0  0  0  0
 30 35  1  0  0  0  0
 30 57  1  0  0  0  0
 31 36  1  0  0  0  0
 31 58  1  0  0  0  0
 31 59  1  0  0  0  0
 32 37  1  0  0  0  0
 32 60  1  0  0  0  0
 32 61  1  0  0  0  0
 34 35  2  0  0  0  0
 34 62  1  0  0  0  0
 35 63  1  0  0  0  0
 36 38  1  0  0  0  0
 36 64  1  0  0  0  0
 36 65  1  0  0  0  0
 37 38  1  0  0  0  0
 37 66  1  0  0  0  0
 37 67  1  0  0  0  0
 38 39  1  0  0  0  0
 38 68  1  0  0  0  0
 39 69  1  0  0  0  0
 39 70  1  0  0  0  0
 39 71  1  0  0  0  0
M  CHG  1  38   1
M  END
>  <Molecule Name>
CTX-1020747

>  <SMILES>
CN1CCN(CC1)C1=CC=C(CNC(=O)C2=CC3=C(CCN(C3)C(=O)C3=C(C)C4=C(O3)C(F)=CC=C4)S2)C=C1

>  <Batch Name>
CTX-1020747-1

>  <Batch Created Date>
2021-12-16

>  <Batch ID>
CTX-1020747-1

>  <External ID>
P841-0361

>  <Stereochemistry>
Achiral

>  <Amount 1>
3.85

>  <Unit 1>
mg

>  <CRO 1>
Pharmaron

>  <CRO 1 Total Amount>
22.1

>  <CRO 1 Unit>
mg

>  <Pharmaron Solubility (PBS, pH 7.4): Aqueous Solubility - Batch Mean (uM)>
1.4216

>  <Pharmaron Solubility (PBS, pH 7.4): Aqueous Solubility - Batch Mean (uM) Standard Deviation (±)>


>  <Pharmaron Solubility (PBS, pH 7.4): Aqueous Solubility - Batch Mean (uM) Count>
1.0

>  <log P>
4.57

>  <log D>
3.94

>  <Pharmaron Caliper Assay (CDK2/CCNE1): Minimum measured (%)>
22.7

>  <Pharmaron Caliper Assay (CDK2/CCNE1): IC50 - Batch Mean (uM)>
0.611

>  <Pharmaron ADPGLO (CDK2/E1-25C): Minimum measured (%)>
28.6

>  <Pharmaron ADPGLO (CDK2/E1-25C): IC50 - Batch Mean (uM)>
0.77

>  <Pharmaron ADPGLO (CDK2/E1-37C): Minimum measured (%)>
86.1

>  <Pharmaron ADPGLO (CDK2/E1-37C): IC50 - Batch Mean (uM)>
100

>  <IncuCyte Kuramochi RB-WT: IC50 - Batch Mean (uM)>
6.9

>  <IncuCyte Kuramochi RB-KO: IC50 - Batch Mean (uM)>
8.0

>  <DSF (npCDK2/CCNE1): dTm D - Batch Mean [Concentration: 100]>


>  <DSF (npCDK2/CCNE1): dTm D - Batch Mean [Concentration: 20.0]>
4.3180000000000005

>  <DSF (pCDK2/CCNE1): dTm D - Batch Mean [Concentration: 100]>


>  <DSF (pCDK2/CCNE1): dTm D - Batch Mean [Concentration: 20.0]>
2.3209999999999997

>  <RLM: t1/2 - Batch Mean (Min)>


>  <RLM: Cl int - Batch Mean (uL/min/mg protein)>


>  <RLM: ER (Hepatic extraction ratio) - Batch Mean>


>  <HLM: t1/2 - Batch Mean (Min)>


>  <HLM: Cl int - Batch Mean (uL/min/mg protein)>


>  <HLM: ER (Hepatic extraction ratio) - Batch Mean>


>  <MDCK-WT 4% BSA: Papp (A-B) - Batch Mean (10-6, cm/s)>


>  <MDCK-WT 4% BSA: Papp (B-A) - Batch Mean (10-6, cm/s)>


>  <MDCK-WT 4% BSA: Efflux Ratio - Batch Mean>


>  <MDCK-WT 4% BSA: ~Net A_B - Batch Mean (10-6, cm/s)>


>  <pIC50>
6.213959

>  <Selection_1>
Y

>  <Selection_N>
N

>  <Serie>
Tetrahydrothienopyridine

>  <Selection_T>


>  <Train_Vs_Test>


$$$$
CTX-1020746
 OpenBabel08272613263D

 71 76  0  0  0  0  0  0  0  0999 V2000
    1.4845   -0.1546    0.6175 O   0  0  0  0  0  0  0  0  0  0  0  0
    2.3498   -0.8974    0.1465 C   0  0  0  0  0  0  0  0  0  0  0  0
    3.0475   -0.5216   -1.0186 N   0  0  0  0  0  0  0  0  0  0  0  0
    2.6228   -2.2106    0.7404 C   0  0  0  0  0  0  0  0  0  0  0  0
    4.3453   -1.1430   -1.3322 C   0  0  0  0  0  0  0  0  0  0  0  0
    2.5758    0.6915   -1.7235 C   0  0  0  0  0  0  0  0  0  0  0  0
    3.3187   -3.1494   -0.0040 O   0  0  0  0  0  0  0  0  0  0  0  0
    1.8607   -2.9876    1.6251 C   0  0  0  0  0  0  0  0  0  0  0  0
    4.9598   -0.6517   -2.5687 C   0  0  0  0  0  0  0  0  0  0  0  0
    3.2329    1.1143   -3.0694 C   0  0  0  0  0  0  0  0  0  0  0  0
    3.1917   -4.3343    0.6325 C   0  0  0  0  0  0  0  0  0  0  0  0
    2.7756   -4.0474    1.9189 C   0  0  0  0  0  0  0  0  0  0  0  0
    0.4358   -3.2308    1.1287 C   0  0  0  0  0  0  0  0  0  0  0  0
    6.0676   -1.2243   -3.1376 N   0  0  0  0  0  0  0  0  0  0  0  0
    4.4484    0.3321   -3.3629 C   0  0  0  0  0  0  0  0  0  0  0  0
    3.6162   -5.5862    0.2147 C   0  0  0  0  0  0  0  0  0  0  0  0
    3.2796   -4.8932    2.9226 C   0  0  0  0  0  0  0  0  0  0  0  0
    6.2259   -0.6138   -4.2957 C   0  0  0  0  0  0  0  0  0  0  0  0
    5.2536    0.3735   -4.4625 N   0  0  0  0  0  0  0  0  0  0  0  0
    4.5920   -5.9308    1.1403 C   0  0  0  0  0  0  0  0  0  0  0  0
    4.1846   -5.8909    2.4803 C   0  0  0  0  0  0  0  0  0  0  0  0
    7.2821   -0.9493   -5.2268 C   0  0  0  0  0  0  0  0  0  0  0  0
    7.4066   -0.3891   -6.3296 O   0  0  0  0  0  0  0  0  0  0  0  0
    8.1050   -1.9583   -4.7870 N   0  0  0  0  0  0  0  0  0  0  0  0
    9.1537   -2.5588   -5.5795 C   0  0  0  0  0  0  0  0  0  0  0  0
   10.4881   -2.5030   -4.8872 C   0  0  0  0  0  0  0  0  0  0  0  0
   10.9264   -3.5343   -4.0502 C   0  0  0  0  0  0  0  0  0  0  0  0
   11.3335   -1.4042   -5.0585 C   0  0  0  0  0  0  0  0  0  0  0  0
   12.1761   -3.4563   -3.4144 C   0  0  0  0  0  0  0  0  0  0  0  0
   12.5791   -1.3374   -4.4156 C   0  0  0  0  0  0  0  0  0  0  0  0
   13.0341   -2.3560   -3.5596 C   0  0  0  0  0  0  0  0  0  0  0  0
   14.2128   -2.2581   -2.8551 N   0  0  0  0  0  0  0  0  0  0  0  0
   15.0638   -3.4239   -2.5501 C   0  0  0  0  0  0  0  0  0  0  0  0
   14.8569   -0.9656   -2.5714 C   0  0  0  0  0  0  0  0  0  0  0  0
   15.5603   -3.3430   -1.0856 C   0  0  0  0  0  0  0  0  0  0  0  0
   15.3859   -0.9445   -1.1145 C   0  0  0  0  0  0  0  0  0  0  0  0
   16.2868   -2.0806   -0.8149 N   0  3  0  0  0  0  0  0  0  0  0  0
   16.7482   -2.0284    0.5690 C   0  0  0  0  0  0  0  0  0  0  0  0
    4.1985   -2.1987   -1.4262 H   0  0  0  0  0  0  0  0  0  0  0  0
    5.0107   -0.8880   -0.5341 H   0  0  0  0  0  0  0  0  0  0  0  0
    2.7025    1.5108   -1.0471 H   0  0  0  0  0  0  0  0  0  0  0  0
    1.5756    0.4380   -2.0070 H   0  0  0  0  0  0  0  0  0  0  0  0
    3.4940    2.1505   -3.0154 H   0  0  0  0  0  0  0  0  0  0  0  0
    2.5268    0.9323   -3.8525 H   0  0  0  0  0  0  0  0  0  0  0  0
   -0.0548   -2.2918    0.9787 H   0  0  0  0  0  0  0  0  0  0  0  0
   -0.1025   -3.8023    1.8556 H   0  0  0  0  0  0  0  0  0  0  0  0
    0.4672   -3.7685    0.2041 H   0  0  0  0  0  0  0  0  0  0  0  0
    3.2845   -6.1337   -0.5948 H   0  0  0  0  0  0  0  0  0  0  0  0
    3.0092   -4.7946    3.9136 H   0  0  0  0  0  0  0  0  0  0  0  0
    5.1656    0.9845   -5.2295 H   0  0  0  0  0  0  0  0  0  0  0  0
    5.5491   -6.1973    0.8613 H   0  0  0  0  0  0  0  0  0  0  0  0
    4.5447   -6.5906    3.1480 H   0  0  0  0  0  0  0  0  0  0  0  0
    7.9712   -2.2943   -3.8714 H   0  0  0  0  0  0  0  0  0  0  0  0
    9.2257   -2.0355   -6.5100 H   0  0  0  0  0  0  0  0  0  0  0  0
    8.9039   -3.5880   -5.7313 H   0  0  0  0  0  0  0  0  0  0  0  0
   10.3261   -4.3599   -3.8985 H   0  0  0  0  0  0  0  0  0  0  0  0
   11.0364   -0.6272   -5.6692 H   0  0  0  0  0  0  0  0  0  0  0  0
   12.4759   -4.2413   -2.8153 H   0  0  0  0  0  0  0  0  0  0  0  0
   13.1805   -0.5143   -4.5763 H   0  0  0  0  0  0  0  0  0  0  0  0
   15.9057   -3.4314   -3.2105 H   0  0  0  0  0  0  0  0  0  0  0  0
   14.4946   -4.3204   -2.6809 H   0  0  0  0  0  0  0  0  0  0  0  0
   14.1437   -0.1785   -2.7008 H   0  0  0  0  0  0  0  0  0  0  0  0
   15.6770   -0.8269   -3.2446 H   0  0  0  0  0  0  0  0  0  0  0  0
   16.2169   -4.1666   -0.8974 H   0  0  0  0  0  0  0  0  0  0  0  0
   14.7045   -3.3760   -0.4442 H   0  0  0  0  0  0  0  0  0  0  0  0
   14.5507   -0.9851   -0.4469 H   0  0  0  0  0  0  0  0  0  0  0  0
   15.9503   -0.0441   -0.9897 H   0  0  0  0  0  0  0  0  0  0  0  0
   17.1138   -2.0287   -1.4096 H   0  0  0  0  0  0  0  0  0  0  0  0
   15.9066   -2.0805    1.2278 H   0  0  0  0  0  0  0  0  0  0  0  0
   17.2749   -1.1120    0.7351 H   0  0  0  0  0  0  0  0  0  0  0  0
   17.4012   -2.8546    0.7587 H   0  0  0  0  0  0  0  0  0  0  0  0
  1  2  2  0  0  0  0
  2  3  1  0  0  0  0
  2  4  1  0  0  0  0
  3  5  1  0  0  0  0
  3  6  1  0  0  0  0
  4  7  1  0  0  0  0
  4  8  2  0  0  0  0
  5  9  1  0  0  0  0
  5 39  1  0  0  0  0
  5 40  1  0  0  0  0
  6 10  1  0  0  0  0
  6 41  1  0  0  0  0
  6 42  1  0  0  0  0
  7 11  1  0  0  0  0
  8 12  1  0  0  0  0
  8 13  1  0  0  0  0
  9 14  1  0  0  0  0
  9 15  2  0  0  0  0
 10 15  1  0  0  0  0
 10 43  1  0  0  0  0
 10 44  1  0  0  0  0
 11 16  2  0  0  0  0
 11 12  1  0  0  0  0
 12 17  2  0  0  0  0
 13 45  1  0  0  0  0
 13 46  1  0  0  0  0
 13 47  1  0  0  0  0
 14 18  2  0  0  0  0
 15 19  1  0  0  0  0
 16 20  1  0  0  0  0
 16 48  1  0  0  0  0
 17 21  1  0  0  0  0
 17 49  1  0  0  0  0
 18 22  1  0  0  0  0
 18 19  1  0  0  0  0
 19 50  1  0  0  0  0
 20 21  2  0  0  0  0
 20 51  1  0  0  0  0
 21 52  1  0  0  0  0
 22 23  2  0  0  0  0
 22 24  1  0  0  0  0
 24 25  1  0  0  0  0
 24 53  1  0  0  0  0
 25 26  1  0  0  0  0
 25 54  1  0  0  0  0
 25 55  1  0  0  0  0
 26 27  2  0  0  0  0
 26 28  1  0  0  0  0
 27 29  1  0  0  0  0
 27 56  1  0  0  0  0
 28 30  2  0  0  0  0
 28 57  1  0  0  0  0
 29 31  2  0  0  0  0
 29 58  1  0  0  0  0
 30 31  1  0  0  0  0
 30 59  1  0  0  0  0
 31 32  1  0  0  0  0
 32 33  1  0  0  0  0
 32 34  1  0  0  0  0
 33 35  1  0  0  0  0
 33 60  1  0  0  0  0
 33 61  1  0  0  0  0
 34 36  1  0  0  0  0
 34 62  1  0  0  0  0
 34 63  1  0  0  0  0
 35 37  1  0  0  0  0
 35 64  1  0  0  0  0
 35 65  1  0  0  0  0
 36 37  1  0  0  0  0
 36 66  1  0  0  0  0
 36 67  1  0  0  0  0
 37 38  1  0  0  0  0
 37 68  1  0  0  0  0
 38 69  1  0  0  0  0
 38 70  1  0  0  0  0
 38 71  1  0  0  0  0
M  CHG  1  37   1
M  END
>  <Molecule Name>
CTX-1020746

>  <SMILES>
CN1CCN(CC1)C1=CC=C(CNC(=O)C2=NC3=C(CN(CC3)C(=O)C3=C(C)C4=C(O3)C=CC=C4)N2)C=C1

>  <Batch Name>
CTX-1020746-1

>  <Batch Created Date>
2021-12-16

>  <Batch ID>
CTX-1020746-1

>  <External ID>
P841-0291

>  <Stereochemistry>
Achiral

>  <Amount 1>
4.5

>  <Unit 1>
mg

>  <CRO 1>
Pharmaron

>  <CRO 1 Total Amount>
0.0

>  <CRO 1 Unit>
mg

>  <Pharmaron Solubility (PBS, pH 7.4): Aqueous Solubility - Batch Mean (uM)>


>  <Pharmaron Solubility (PBS, pH 7.4): Aqueous Solubility - Batch Mean (uM) Standard Deviation (±)>


>  <Pharmaron Solubility (PBS, pH 7.4): Aqueous Solubility - Batch Mean (uM) Count>


>  <log P>
2.59

>  <log D>
1.94

>  <Pharmaron Caliper Assay (CDK2/CCNE1): Minimum measured (%)>
23.2

>  <Pharmaron Caliper Assay (CDK2/CCNE1): IC50 - Batch Mean (uM)>
5.18

>  <Pharmaron ADPGLO (CDK2/E1-25C): Minimum measured (%)>


>  <Pharmaron ADPGLO (CDK2/E1-25C): IC50 - Batch Mean (uM)>


>  <Pharmaron ADPGLO (CDK2/E1-37C): Minimum measured (%)>


>  <Pharmaron ADPGLO (CDK2/E1-37C): IC50 - Batch Mean (uM)>


>  <IncuCyte Kuramochi RB-WT: IC50 - Batch Mean (uM)>
10.0

>  <IncuCyte Kuramochi RB-KO: IC50 - Batch Mean (uM)>
8.23

>  <DSF (npCDK2/CCNE1): dTm D - Batch Mean [Concentration: 100]>


>  <DSF (npCDK2/CCNE1): dTm D - Batch Mean [Concentration: 20.0]>
1.577

>  <DSF (pCDK2/CCNE1): dTm D - Batch Mean [Concentration: 100]>


>  <DSF (pCDK2/CCNE1): dTm D - Batch Mean [Concentration: 20.0]>


>  <RLM: t1/2 - Batch Mean (Min)>


>  <RLM: Cl int - Batch Mean (uL/min/mg protein)>


>  <RLM: ER (Hepatic extraction ratio) - Batch Mean>


>  <HLM: t1/2 - Batch Mean (Min)>


>  <HLM: Cl int - Batch Mean (uL/min/mg protein)>


>  <HLM: ER (Hepatic extraction ratio) - Batch Mean>


>  <MDCK-WT 4% BSA: Papp (A-B) - Batch Mean (10-6, cm/s)>


>  <MDCK-WT 4% BSA: Papp (B-A) - Batch Mean (10-6, cm/s)>


>  <MDCK-WT 4% BSA: Efflux Ratio - Batch Mean>


>  <MDCK-WT 4% BSA: ~Net A_B - Batch Mean (10-6, cm/s)>


>  <pIC50>
5.28567

>  <Selection_1>
Y

>  <Selection_N>
N

>  <Serie>
Other

>  <Selection_T>
N

>  <Train_Vs_Test>


$$$$
CTX-1020745
 OpenBabel08272613263D

 75 80  0  0  0  0  0  0  0  0999 V2000
    1.8854   -0.7254    0.0274 S   0  0  0  0  0  0  0  0  0  0  0  0
    2.1961    0.9602    0.0897 C   0  0  0  0  0  0  0  0  0  0  0  0
    0.2055   -0.4772   -0.0043 C   0  0  0  0  0  0  0  0  0  0  0  0
    3.5373    1.5277    0.1094 C   0  0  0  0  0  0  0  0  0  0  0  0
    1.0173    1.6845    0.1100 C   0  0  0  0  0  0  0  0  0  0  0  0
   -0.1406    0.8585    0.0489 C   0  0  0  0  0  0  0  0  0  0  0  0
   -0.7877   -1.5894   -0.1453 C   0  0  0  0  0  0  0  0  0  0  0  0
    3.7312    2.7404    0.1686 O   0  0  0  0  0  0  0  0  0  0  0  0
    4.5829    0.6339    0.0603 N   0  0  0  0  0  0  0  0  0  0  0  0
   -1.5608    1.3348    0.0100 C   0  0  0  0  0  0  0  0  0  0  0  0
   -2.2052   -1.0470    0.0945 C   0  0  0  0  0  0  0  0  0  0  0  0
    5.9630    1.0620    0.0666 C   0  0  0  0  0  0  0  0  0  0  0  0
   -2.4032    0.2582   -0.5222 N   0  0  0  0  0  0  0  0  0  0  0  0
    6.6833    0.6238   -1.1795 C   0  0  0  0  0  0  0  0  0  0  0  0
   -3.4017    0.6369   -1.4032 C   0  0  0  0  0  0  0  0  0  0  0  0
    6.2401    1.0547   -2.4330 C   0  0  0  0  0  0  0  0  0  0  0  0
    7.8330   -0.1749   -1.1148 C   0  0  0  0  0  0  0  0  0  0  0  0
   -3.5978    1.8473   -1.5624 O   0  0  0  0  0  0  0  0  0  0  0  0
   -4.2006   -0.3309   -2.1852 C   0  0  0  0  0  0  0  0  0  0  0  0
    6.9169    0.6670   -3.5853 C   0  0  0  0  0  0  0  0  0  0  0  0
    8.5144   -0.5500   -2.2803 C   0  0  0  0  0  0  0  0  0  0  0  0
   -4.9107    0.2054   -3.2716 N   0  0  0  0  0  0  0  0  0  0  0  0
   -5.1319   -1.3169   -1.8038 C   0  0  0  0  0  0  0  0  0  0  0  0
    8.0576   -0.1534   -3.5411 C   0  0  0  0  0  0  0  0  0  0  0  0
   -6.1777    0.4160   -2.7658 C   0  0  0  0  0  0  0  0  0  0  0  0
   -4.3177    1.0098   -4.3226 C   0  0  0  0  0  0  0  0  0  0  0  0
   -6.3498   -0.5757   -1.8008 C   0  0  0  0  0  0  0  0  0  0  0  0
   -4.9974   -2.6942   -1.2783 C   0  0  0  0  0  0  0  0  0  0  0  0
    8.6821   -0.4873   -4.7338 N   0  0  0  0  0  0  0  0  0  0  0  0
   -7.1017    1.4160   -3.0045 C   0  0  0  0  0  0  0  0  0  0  0  0
   -7.5341   -0.6231   -1.0453 C   0  0  0  0  0  0  0  0  0  0  0  0
   10.1028   -0.8734   -4.7794 C   0  0  0  0  0  0  0  0  0  0  0  0
    7.8577   -1.2659   -5.6820 C   0  0  0  0  0  0  0  0  0  0  0  0
   -8.1437    1.4575   -2.0896 C   0  0  0  0  0  0  0  0  0  0  0  0
   -8.3662    0.4892   -1.1167 C   0  0  0  0  0  0  0  0  0  0  0  0
   10.6231   -0.6897   -6.2297 C   0  0  0  0  0  0  0  0  0  0  0  0
    8.3967   -1.0548   -7.1075 C   0  0  0  0  0  0  0  0  0  0  0  0
    9.8208   -1.4385   -7.2290 N   0  3  0  0  0  0  0  0  0  0  0  0
   10.2873   -1.1553   -8.5789 C   0  0  0  0  0  0  0  0  0  0  0  0
    0.9812    2.7144    0.1638 H   0  0  0  0  0  0  0  0  0  0  0  0
   -0.5721   -2.3527    0.5728 H   0  0  0  0  0  0  0  0  0  0  0  0
   -0.7257   -1.9987   -1.1320 H   0  0  0  0  0  0  0  0  0  0  0  0
    4.3839   -0.3294    0.0195 H   0  0  0  0  0  0  0  0  0  0  0  0
   -1.6349    2.1955   -0.6214 H   0  0  0  0  0  0  0  0  0  0  0  0
   -1.8844    1.5978    0.9954 H   0  0  0  0  0  0  0  0  0  0  0  0
   -2.3673   -0.9590    1.1484 H   0  0  0  0  0  0  0  0  0  0  0  0
   -2.8991   -1.7301   -0.3490 H   0  0  0  0  0  0  0  0  0  0  0  0
    6.4539    0.6397    0.9184 H   0  0  0  0  0  0  0  0  0  0  0  0
    5.9821    2.1311    0.1063 H   0  0  0  0  0  0  0  0  0  0  0  0
    5.4088    1.6620   -2.5041 H   0  0  0  0  0  0  0  0  0  0  0  0
    8.1825   -0.4909   -0.1967 H   0  0  0  0  0  0  0  0  0  0  0  0
    6.5704    0.9921   -4.5015 H   0  0  0  0  0  0  0  0  0  0  0  0
    9.3663   -1.1279   -2.2072 H   0  0  0  0  0  0  0  0  0  0  0  0
   -3.3338    0.6480   -4.5367 H   0  0  0  0  0  0  0  0  0  0  0  0
   -4.2611    2.0293   -4.0026 H   0  0  0  0  0  0  0  0  0  0  0  0
   -4.9209    0.9458   -5.2041 H   0  0  0  0  0  0  0  0  0  0  0  0
   -3.9864   -3.0240   -1.3967 H   0  0  0  0  0  0  0  0  0  0  0  0
   -5.6511   -3.3472   -1.8179 H   0  0  0  0  0  0  0  0  0  0  0  0
   -5.2575   -2.7070   -0.2405 H   0  0  0  0  0  0  0  0  0  0  0  0
   -7.0232    2.0748   -3.7950 H   0  0  0  0  0  0  0  0  0  0  0  0
   -7.7744   -1.4428   -0.4661 H   0  0  0  0  0  0  0  0  0  0  0  0
   10.2071   -1.8972   -4.4867 H   0  0  0  0  0  0  0  0  0  0  0  0
   10.6685   -0.2603   -4.1093 H   0  0  0  0  0  0  0  0  0  0  0  0
    6.8418   -0.9340   -5.6301 H   0  0  0  0  0  0  0  0  0  0  0  0
    7.9020   -2.3048   -5.4298 H   0  0  0  0  0  0  0  0  0  0  0  0
   -8.7945    2.2571   -2.1338 H   0  0  0  0  0  0  0  0  0  0  0  0
   -9.1464    0.5955   -0.4496 H   0  0  0  0  0  0  0  0  0  0  0  0
   11.6349   -1.0348   -6.2760 H   0  0  0  0  0  0  0  0  0  0  0  0
   10.5464    0.3502   -6.4697 H   0  0  0  0  0  0  0  0  0  0  0  0
    8.2951   -0.0212   -7.3648 H   0  0  0  0  0  0  0  0  0  0  0  0
    7.8310   -1.6779   -7.7682 H   0  0  0  0  0  0  0  0  0  0  0  0
    9.9265   -2.4371   -7.0501 H   0  0  0  0  0  0  0  0  0  0  0  0
   10.1822   -0.1098   -8.7806 H   0  0  0  0  0  0  0  0  0  0  0  0
    9.7058   -1.7144   -9.2818 H   0  0  0  0  0  0  0  0  0  0  0  0
   11.3168   -1.4336   -8.6662 H   0  0  0  0  0  0  0  0  0  0  0  0
  1  2  1  0  0  0  0
  1  3  1  0  0  0  0
  2  4  1  0  0  0  0
  2  5  2  0  0  0  0
  3  6  2  0  0  0  0
  3  7  1  0  0  0  0
  4  8  2  0  0  0  0
  4  9  1  0  0  0  0
  5  6  1  0  0  0  0
  5 40  1  0  0  0  0
  6 10  1  0  0  0  0
  7 11  1  0  0  0  0
  7 41  1  0  0  0  0
  7 42  1  0  0  0  0
  9 12  1  0  0  0  0
  9 43  1  0  0  0  0
 10 13  1  0  0  0  0
 10 44  1  0  0  0  0
 10 45  1  0  0  0  0
 11 13  1  0  0  0  0
 11 46  1  0  0  0  0
 11 47  1  0  0  0  0
 12 14  1  0  0  0  0
 12 48  1  0  0  0  0
 12 49  1  0  0  0  0
 13 15  1  0  0  0  0
 14 16  2  0  0  0  0
 14 17  1  0  0  0  0
 15 18  2  0  0  0  0
 15 19  1  0  0  0  0
 16 20  1  0  0  0  0
 16 50  1  0  0  0  0
 17 21  2  0  0  0  0
 17 51  1  0  0  0  0
 19 22  1  0  0  0  0
 19 23  2  0  0  0  0
 20 24  2  0  0  0  0
 20 52  1  0  0  0  0
 21 24  1  0  0  0  0
 21 53  1  0  0  0  0
 22 25  1  0  0  0  0
 22 26  1  0  0  0  0
 23 27  1  0  0  0  0
 23 28  1  0  0  0  0
 24 29  1  0  0  0  0
 25 30  2  0  0  0  0
 25 27  1  0  0  0  0
 26 54  1  0  0  0  0
 26 55  1  0  0  0  0
 26 56  1  0  0  0  0
 27 31  2  0  0  0  0
 28 57  1  0  0  0  0
 28 58  1  0  0  0  0
 28 59  1  0  0  0  0
 29 32  1  0  0  0  0
 29 33  1  0  0  0  0
 30 34  1  0  0  0  0
 30 60  1  0  0  0  0
 31 35  1  0  0  0  0
 31 61  1  0  0  0  0
 32 36  1  0  0  0  0
 32 62  1  0  0  0  0
 32 63  1  0  0  0  0
 33 37  1  0  0  0  0
 33 64  1  0  0  0  0
 33 65  1  0  0  0  0
 34 35  2  0  0  0  0
 34 66  1  0  0  0  0
 35 67  1  0  0  0  0
 36 38  1  0  0  0  0
 36 68  1  0  0  0  0
 36 69  1  0  0  0  0
 37 38  1  0  0  0  0
 37 70  1  0  0  0  0
 37 71  1  0  0  0  0
 38 39  1  0  0  0  0
 38 72  1  0  0  0  0
 39 73  1  0  0  0  0
 39 74  1  0  0  0  0
 39 75  1  0  0  0  0
M  CHG  1  38   1
M  END
>  <Molecule Name>
CTX-1020745

>  <SMILES>
CN1C2=C(C=CC=C2)C(C)=C1C(=O)N1CCC2=C(C1)C=C(S2)C(=O)NCC1=CC=C(C=C1)N1CCN(C)CC1

>  <Batch Name>
CTX-1020745-1

>  <Batch Created Date>
2021-12-16

>  <Batch ID>
CTX-1020745-1

>  <External ID>
P841-0360

>  <Stereochemistry>
Achiral

>  <Amount 1>
3.45

>  <Unit 1>
mg

>  <CRO 1>
Pharmaron

>  <CRO 1 Total Amount>
31.75

>  <CRO 1 Unit>
mg

>  <Pharmaron Solubility (PBS, pH 7.4): Aqueous Solubility - Batch Mean (uM)>
9.9095

>  <Pharmaron Solubility (PBS, pH 7.4): Aqueous Solubility - Batch Mean (uM) Standard Deviation (±)>


>  <Pharmaron Solubility (PBS, pH 7.4): Aqueous Solubility - Batch Mean (uM) Count>
1.0

>  <log P>
4.59

>  <log D>
3.96

>  <Pharmaron Caliper Assay (CDK2/CCNE1): Minimum measured (%)>
51.3

>  <Pharmaron Caliper Assay (CDK2/CCNE1): IC50 - Batch Mean (uM)>
30.4

>  <Pharmaron ADPGLO (CDK2/E1-25C): Minimum measured (%)>


>  <Pharmaron ADPGLO (CDK2/E1-25C): IC50 - Batch Mean (uM)>


>  <Pharmaron ADPGLO (CDK2/E1-37C): Minimum measured (%)>


>  <Pharmaron ADPGLO (CDK2/E1-37C): IC50 - Batch Mean (uM)>


>  <IncuCyte Kuramochi RB-WT: IC50 - Batch Mean (uM)>
8.12

>  <IncuCyte Kuramochi RB-KO: IC50 - Batch Mean (uM)>
7.47

>  <DSF (npCDK2/CCNE1): dTm D - Batch Mean [Concentration: 100]>


>  <DSF (npCDK2/CCNE1): dTm D - Batch Mean [Concentration: 20.0]>
0.27399999999999997

>  <DSF (pCDK2/CCNE1): dTm D - Batch Mean [Concentration: 100]>


>  <DSF (pCDK2/CCNE1): dTm D - Batch Mean [Concentration: 20.0]>


>  <RLM: t1/2 - Batch Mean (Min)>


>  <RLM: Cl int - Batch Mean (uL/min/mg protein)>


>  <RLM: ER (Hepatic extraction ratio) - Batch Mean>


>  <HLM: t1/2 - Batch Mean (Min)>


>  <HLM: Cl int - Batch Mean (uL/min/mg protein)>


>  <HLM: ER (Hepatic extraction ratio) - Batch Mean>


>  <MDCK-WT 4% BSA: Papp (A-B) - Batch Mean (10-6, cm/s)>


>  <MDCK-WT 4% BSA: Papp (B-A) - Batch Mean (10-6, cm/s)>


>  <MDCK-WT 4% BSA: Efflux Ratio - Batch Mean>


>  <MDCK-WT 4% BSA: ~Net A_B - Batch Mean (10-6, cm/s)>


>  <pIC50>
4.517126

>  <Selection_1>
Y

>  <Selection_N>
N

>  <Serie>
Tetrahydrothienopyridine

>  <Selection_T>


>  <Train_Vs_Test>


$$$$
CTX-1020744
 OpenBabel08272613263D

 70 75  0  0  0  0  0  0  0  0999 V2000
    1.8142   -0.7298   -0.0404 S   0  0  0  0  0  0  0  0  0  0  0  0
    2.1537    0.9502    0.0344 C   0  0  0  0  0  0  0  0  0  0  0  0
    0.1301   -0.4604   -0.0392 C   0  0  0  0  0  0  0  0  0  0  0  0
    3.5059    1.5333    0.0691 C   0  0  0  0  0  0  0  0  0  0  0  0
    0.9778    1.6865    0.0502 C   0  0  0  0  0  0  0  0  0  0  0  0
   -0.2000    0.8813   -0.0145 C   0  0  0  0  0  0  0  0  0  0  0  0
   -0.8931   -1.5583   -0.0801 C   0  0  0  0  0  0  0  0  0  0  0  0
    3.6923    2.7263    0.1183 O   0  0  0  0  0  0  0  0  0  0  0  0
    4.5695    0.6445    0.0390 N   0  0  0  0  0  0  0  0  0  0  0  0
   -1.6275    1.3817   -0.0015 C   0  0  0  0  0  0  0  0  0  0  0  0
   -2.2529   -0.9824    0.3558 C   0  0  0  0  0  0  0  0  0  0  0  0
    5.9432    1.1135    0.0577 C   0  0  0  0  0  0  0  0  0  0  0  0
   -2.5382    0.2814   -0.3477 N   0  0  0  0  0  0  0  0  0  0  0  0
    6.5564    1.2365    1.4397 C   0  0  0  0  0  0  0  0  0  0  0  0
   -3.5036    0.4632   -1.3480 C   0  0  0  0  0  0  0  0  0  0  0  0
    7.2203    0.1634    2.0226 C   0  0  0  0  0  0  0  0  0  0  0  0
    6.5257    2.4452    2.1553 C   0  0  0  0  0  0  0  0  0  0  0  0
   -3.5759    1.5280   -1.9640 O   0  0  0  0  0  0  0  0  0  0  0  0
   -4.4235   -0.6429   -1.6360 C   0  0  0  0  0  0  0  0  0  0  0  0
    7.8435    0.2838    3.2732 C   0  0  0  0  0  0  0  0  0  0  0  0
    7.2020    2.5781    3.3767 C   0  0  0  0  0  0  0  0  0  0  0  0
   -4.8318   -1.4852   -0.6262 O   0  0  0  0  0  0  0  0  0  0  0  0
   -5.0221   -1.0424   -2.8252 C   0  0  0  0  0  0  0  0  0  0  0  0
    7.8151    1.4907    3.9869 C   0  0  0  0  0  0  0  0  0  0  0  0
   -5.6862   -2.3904   -1.1590 C   0  0  0  0  0  0  0  0  0  0  0  0
   -5.8474   -2.1574   -2.5134 C   0  0  0  0  0  0  0  0  0  0  0  0
   -4.8435   -0.4442   -4.1647 C   0  0  0  0  0  0  0  0  0  0  0  0
    8.2878    1.5535    5.2774 N   0  0  0  0  0  0  0  0  0  0  0  0
   -6.3609   -3.4196   -0.5056 C   0  0  0  0  0  0  0  0  0  0  0  0
   -6.6644   -2.8964   -3.3142 N   0  0  0  0  0  0  0  0  0  0  0  0
    8.8633    2.7620    5.8730 C   0  0  0  0  0  0  0  0  0  0  0  0
    7.8814    0.5036    6.2253 C   0  0  0  0  0  0  0  0  0  0  0  0
   -7.2080   -4.1699   -1.3265 C   0  0  0  0  0  0  0  0  0  0  0  0
   -7.3256   -3.8869   -2.6739 C   0  0  0  0  0  0  0  0  0  0  0  0
   10.0179    2.3534    6.8245 C   0  0  0  0  0  0  0  0  0  0  0  0
    9.0620    0.1767    7.1586 C   0  0  0  0  0  0  0  0  0  0  0  0
    9.5596    1.3850    7.8530 N   0  3  0  0  0  0  0  0  0  0  0  0
   10.6330    1.0437    8.7738 C   0  0  0  0  0  0  0  0  0  0  0  0
    0.9563    2.7169    0.1037 H   0  0  0  0  0  0  0  0  0  0  0  0
   -0.6047   -2.3442    0.5862 H   0  0  0  0  0  0  0  0  0  0  0  0
   -0.9653   -1.9525   -1.0723 H   0  0  0  0  0  0  0  0  0  0  0  0
    4.3897   -0.3228    0.0042 H   0  0  0  0  0  0  0  0  0  0  0  0
   -1.7348    2.1711   -0.7159 H   0  0  0  0  0  0  0  0  0  0  0  0
   -1.8671    1.7477    0.9750 H   0  0  0  0  0  0  0  0  0  0  0  0
   -2.2347   -0.8003    1.4100 H   0  0  0  0  0  0  0  0  0  0  0  0
   -3.0179   -1.6898    0.1122 H   0  0  0  0  0  0  0  0  0  0  0  0
    5.9718    2.0775   -0.4058 H   0  0  0  0  0  0  0  0  0  0  0  0
    6.5193    0.3767   -0.4621 H   0  0  0  0  0  0  0  0  0  0  0  0
    7.2553   -0.7401    1.5251 H   0  0  0  0  0  0  0  0  0  0  0  0
    5.9977    3.2469    1.7766 H   0  0  0  0  0  0  0  0  0  0  0  0
    8.3321   -0.5311    3.6759 H   0  0  0  0  0  0  0  0  0  0  0  0
    7.2452    3.5033    3.8319 H   0  0  0  0  0  0  0  0  0  0  0  0
   -4.1658    0.3812   -4.0992 H   0  0  0  0  0  0  0  0  0  0  0  0
   -5.7886   -0.1016   -4.5312 H   0  0  0  0  0  0  0  0  0  0  0  0
   -4.4468   -1.1792   -4.8335 H   0  0  0  0  0  0  0  0  0  0  0  0
   -6.2447   -3.6122    0.5016 H   0  0  0  0  0  0  0  0  0  0  0  0
    8.1101    3.2835    6.4258 H   0  0  0  0  0  0  0  0  0  0  0  0
    9.2387    3.4021    5.1021 H   0  0  0  0  0  0  0  0  0  0  0  0
    7.5985   -0.3757    5.6852 H   0  0  0  0  0  0  0  0  0  0  0  0
    7.0499    0.8461    6.8052 H   0  0  0  0  0  0  0  0  0  0  0  0
   -7.7534   -4.9462   -0.9203 H   0  0  0  0  0  0  0  0  0  0  0  0
   -7.9645   -4.4744   -3.2322 H   0  0  0  0  0  0  0  0  0  0  0  0
   10.3917    3.2287    7.3133 H   0  0  0  0  0  0  0  0  0  0  0  0
   10.7837    1.8860    6.2413 H   0  0  0  0  0  0  0  0  0  0  0  0
    9.8573   -0.2424    6.5783 H   0  0  0  0  0  0  0  0  0  0  0  0
    8.7211   -0.5173    7.8982 H   0  0  0  0  0  0  0  0  0  0  0  0
    8.8139    1.8041    8.4086 H   0  0  0  0  0  0  0  0  0  0  0  0
   11.4407    0.5987    8.2310 H   0  0  0  0  0  0  0  0  0  0  0  0
   10.2698    0.3511    9.5041 H   0  0  0  0  0  0  0  0  0  0  0  0
   10.9781    1.9302    9.2637 H   0  0  0  0  0  0  0  0  0  0  0  0
  1  2  1  0  0  0  0
  1  3  1  0  0  0  0
  2  4  1  0  0  0  0
  2  5  2  0  0  0  0
  3  6  2  0  0  0  0
  3  7  1  0  0  0  0
  4  8  2  0  0  0  0
  4  9  1  0  0  0  0
  5  6  1  0  0  0  0
  5 39  1  0  0  0  0
  6 10  1  0  0  0  0
  7 11  1  0  0  0  0
  7 40  1  0  0  0  0
  7 41  1  0  0  0  0
  9 12  1  0  0  0  0
  9 42  1  0  0  0  0
 10 13  1  0  0  0  0
 10 43  1  0  0  0  0
 10 44  1  0  0  0  0
 11 13  1  0  0  0  0
 11 45  1  0  0  0  0
 11 46  1  0  0  0  0
 12 14  1  0  0  0  0
 12 47  1  0  0  0  0
 12 48  1  0  0  0  0
 13 15  1  0  0  0  0
 14 16  2  0  0  0  0
 14 17  1  0  0  0  0
 15 18  2  0  0  0  0
 15 19  1  0  0  0  0
 16 20  1  0  0  0  0
 16 49  1  0  0  0  0
 17 21  2  0  0  0  0
 17 50  1  0  0  0  0
 19 22  1  0  0  0  0
 19 23  2  0  0  0  0
 20 24  2  0  0  0  0
 20 51  1  0  0  0  0
 21 24  1  0  0  0  0
 21 52  1  0  0  0  0
 22 25  1  0  0  0  0
 23 26  1  0  0  0  0
 23 27  1  0  0  0  0
 24 28  1  0  0  0  0
 25 29  2  0  0  0  0
 25 26  1  0  0  0  0
 26 30  2  0  0  0  0
 27 53  1  0  0  0  0
 27 54  1  0  0  0  0
 27 55  1  0  0  0  0
 28 31  1  0  0  0  0
 28 32  1  0  0  0  0
 29 33  1  0  0  0  0
 29 56  1  0  0  0  0
 30 34  1  0  0  0  0
 31 35  1  0  0  0  0
 31 57  1  0  0  0  0
 31 58  1  0  0  0  0
 32 36  1  0  0  0  0
 32 59  1  0  0  0  0
 32 60  1  0  0  0  0
 33 34  2  0  0  0  0
 33 61  1  0  0  0  0
 34 62  1  0  0  0  0
 35 37  1  0  0  0  0
 35 63  1  0  0  0  0
 35 64  1  0  0  0  0
 36 37  1  0  0  0  0
 36 65  1  0  0  0  0
 36 66  1  0  0  0  0
 37 38  1  0  0  0  0
 37 67  1  0  0  0  0
 38 68  1  0  0  0  0
 38 69  1  0  0  0  0
 38 70  1  0  0  0  0
M  CHG  1  37   1
M  END
>  <Molecule Name>
CTX-1020744

>  <SMILES>
CN1CCN(CC1)C1=CC=C(CNC(=O)C2=CC3=C(CCN(C3)C(=O)C3=C(C)C4=C(O3)C=CC=N4)S2)C=C1

>  <Batch Name>
CTX-1020744-1

>  <Batch Created Date>
2021-12-16

>  <Batch ID>
CTX-1020744-1

>  <External ID>
P841-0359

>  <Stereochemistry>
Achiral

>  <Amount 1>
4.05

>  <Unit 1>
mg

>  <CRO 1>
Pharmaron

>  <CRO 1 Total Amount>
26.95

>  <CRO 1 Unit>
mg

>  <Pharmaron Solubility (PBS, pH 7.4): Aqueous Solubility - Batch Mean (uM)>
138.1343

>  <Pharmaron Solubility (PBS, pH 7.4): Aqueous Solubility - Batch Mean (uM) Standard Deviation (±)>


>  <Pharmaron Solubility (PBS, pH 7.4): Aqueous Solubility - Batch Mean (uM) Count>
1.0

>  <log P>
3.6

>  <log D>
2.96

>  <Pharmaron Caliper Assay (CDK2/CCNE1): Minimum measured (%)>
47.6

>  <Pharmaron Caliper Assay (CDK2/CCNE1): IC50 - Batch Mean (uM)>
37.4

>  <Pharmaron ADPGLO (CDK2/E1-25C): Minimum measured (%)>


>  <Pharmaron ADPGLO (CDK2/E1-25C): IC50 - Batch Mean (uM)>


>  <Pharmaron ADPGLO (CDK2/E1-37C): Minimum measured (%)>


>  <Pharmaron ADPGLO (CDK2/E1-37C): IC50 - Batch Mean (uM)>


>  <IncuCyte Kuramochi RB-WT: IC50 - Batch Mean (uM)>
20.0

>  <IncuCyte Kuramochi RB-KO: IC50 - Batch Mean (uM)>
20.0

>  <DSF (npCDK2/CCNE1): dTm D - Batch Mean [Concentration: 100]>


>  <DSF (npCDK2/CCNE1): dTm D - Batch Mean [Concentration: 20.0]>
0.04

>  <DSF (pCDK2/CCNE1): dTm D - Batch Mean [Concentration: 100]>


>  <DSF (pCDK2/CCNE1): dTm D - Batch Mean [Concentration: 20.0]>


>  <RLM: t1/2 - Batch Mean (Min)>


>  <RLM: Cl int - Batch Mean (uL/min/mg protein)>


>  <RLM: ER (Hepatic extraction ratio) - Batch Mean>


>  <HLM: t1/2 - Batch Mean (Min)>


>  <HLM: Cl int - Batch Mean (uL/min/mg protein)>


>  <HLM: ER (Hepatic extraction ratio) - Batch Mean>


>  <MDCK-WT 4% BSA: Papp (A-B) - Batch Mean (10-6, cm/s)>


>  <MDCK-WT 4% BSA: Papp (B-A) - Batch Mean (10-6, cm/s)>


>  <MDCK-WT 4% BSA: Efflux Ratio - Batch Mean>


>  <MDCK-WT 4% BSA: ~Net A_B - Batch Mean (10-6, cm/s)>


>  <pIC50>
4.427128

>  <Selection_1>
Y

>  <Selection_N>
N

>  <Serie>
Tetrahydrothienopyridine

>  <Selection_T>


>  <Train_Vs_Test>


$$$$
CTX-1020743
 OpenBabel08272613263D

 74 79  0  0  0  0  0  0  0  0999 V2000
    1.7918   -0.6888   -0.0414 S   0  0  0  0  0  0  0  0  0  0  0  0
    2.1125    0.9944    0.0301 C   0  0  0  0  0  0  0  0  0  0  0  0
    0.1063   -0.4412   -0.0325 C   0  0  0  0  0  0  0  0  0  0  0  0
    3.4682    1.5458    0.0472 C   0  0  0  0  0  0  0  0  0  0  0  0
    0.9243    1.7162    0.0741 C   0  0  0  0  0  0  0  0  0  0  0  0
   -0.2512    0.8928    0.0400 C   0  0  0  0  0  0  0  0  0  0  0  0
   -0.8711   -1.5682   -0.1451 C   0  0  0  0  0  0  0  0  0  0  0  0
    3.6664    2.7609    0.0943 O   0  0  0  0  0  0  0  0  0  0  0  0
    4.5168    0.6519   -0.0097 N   0  0  0  0  0  0  0  0  0  0  0  0
   -1.6932    1.3584    0.0673 C   0  0  0  0  0  0  0  0  0  0  0  0
   -2.2862   -1.0695    0.1876 C   0  0  0  0  0  0  0  0  0  0  0  0
    5.9076    1.0641    0.0246 C   0  0  0  0  0  0  0  0  0  0  0  0
   -2.5666    0.2630   -0.3581 N   0  0  0  0  0  0  0  0  0  0  0  0
    6.6555    0.6260   -1.2087 C   0  0  0  0  0  0  0  0  0  0  0  0
   -3.7554    0.5539   -1.0365 C   0  0  0  0  0  0  0  0  0  0  0  0
    6.2351    1.0538   -2.4731 C   0  0  0  0  0  0  0  0  0  0  0  0
    7.8072   -0.1704   -1.1352 C   0  0  0  0  0  0  0  0  0  0  0  0
   -4.3176    1.6405   -0.8997 O   0  0  0  0  0  0  0  0  0  0  0  0
   -4.1077   -0.3859   -2.1169 C   0  0  0  0  0  0  0  0  0  0  0  0
    6.9288    0.6729   -3.6202 C   0  0  0  0  0  0  0  0  0  0  0  0
    8.5020   -0.5484   -2.2992 C   0  0  0  0  0  0  0  0  0  0  0  0
   -3.0285   -1.0862   -2.6269 O   0  0  0  0  0  0  0  0  0  0  0  0
   -4.9828   -0.1912   -3.1909 C   0  0  0  0  0  0  0  0  0  0  0  0
    8.0645   -0.1522   -3.5681 C   0  0  0  0  0  0  0  0  0  0  0  0
   -2.8768   -0.5535   -3.8671 C   0  0  0  0  0  0  0  0  0  0  0  0
   -4.0580    0.0640   -4.2511 C   0  0  0  0  0  0  0  0  0  0  0  0
   -6.4389    0.0804   -3.2113 C   0  0  0  0  0  0  0  0  0  0  0  0
    8.6964   -0.4860   -4.7558 N   0  0  0  0  0  0  0  0  0  0  0  0
   -1.6845   -0.5173   -4.5681 C   0  0  0  0  0  0  0  0  0  0  0  0
   -4.0662    0.8070   -5.4406 C   0  0  0  0  0  0  0  0  0  0  0  0
   10.1120   -0.8880   -4.7974 C   0  0  0  0  0  0  0  0  0  0  0  0
    7.8744   -1.2496   -5.7191 C   0  0  0  0  0  0  0  0  0  0  0  0
   -1.6709    0.3289   -5.6823 C   0  0  0  0  0  0  0  0  0  0  0  0
   -2.8435    0.9810   -6.1064 C   0  0  0  0  0  0  0  0  0  0  0  0
   10.6468   -0.7001   -6.2460 C   0  0  0  0  0  0  0  0  0  0  0  0
    8.4287   -1.0400   -7.1450 C   0  0  0  0  0  0  0  0  0  0  0  0
   -0.3708    0.6106   -6.3808 C   0  0  0  0  0  0  0  0  0  0  0  0
    9.8512   -1.4368   -7.2606 N   0  3  0  0  0  0  0  0  0  0  0  0
   10.3439   -1.1617   -8.6088 C   0  0  0  0  0  0  0  0  0  0  0  0
    0.8910    2.7464    0.1263 H   0  0  0  0  0  0  0  0  0  0  0  0
   -0.5983   -2.3440    0.5395 H   0  0  0  0  0  0  0  0  0  0  0  0
   -0.8576   -1.9472   -1.1457 H   0  0  0  0  0  0  0  0  0  0  0  0
    4.3126   -0.3089   -0.0767 H   0  0  0  0  0  0  0  0  0  0  0  0
   -1.8128    2.1887   -0.5969 H   0  0  0  0  0  0  0  0  0  0  0  0
   -1.9533    1.6571    1.0613 H   0  0  0  0  0  0  0  0  0  0  0  0
   -2.3932   -1.0319    1.2516 H   0  0  0  0  0  0  0  0  0  0  0  0
   -2.9794   -1.7512   -0.2592 H   0  0  0  0  0  0  0  0  0  0  0  0
    6.3752    0.6316    0.8844 H   0  0  0  0  0  0  0  0  0  0  0  0
    5.9353    2.1329    0.0664 H   0  0  0  0  0  0  0  0  0  0  0  0
    5.4024    1.6577   -2.5569 H   0  0  0  0  0  0  0  0  0  0  0  0
    8.1504   -0.4839   -0.2139 H   0  0  0  0  0  0  0  0  0  0  0  0
    6.5973    1.0081   -4.5382 H   0  0  0  0  0  0  0  0  0  0  0  0
    9.3509   -1.1292   -2.2153 H   0  0  0  0  0  0  0  0  0  0  0  0
   -6.8698   -0.2139   -2.2771 H   0  0  0  0  0  0  0  0  0  0  0  0
   -6.8942   -0.4746   -4.0047 H   0  0  0  0  0  0  0  0  0  0  0  0
   -6.6045    1.1261   -3.3667 H   0  0  0  0  0  0  0  0  0  0  0  0
   -0.8627   -1.0755   -4.2887 H   0  0  0  0  0  0  0  0  0  0  0  0
   -4.9399    1.2111   -5.8127 H   0  0  0  0  0  0  0  0  0  0  0  0
   10.2023   -1.9151   -4.5116 H   0  0  0  0  0  0  0  0  0  0  0  0
   10.6801   -0.2850   -4.1202 H   0  0  0  0  0  0  0  0  0  0  0  0
    6.8620   -0.9061   -5.6755 H   0  0  0  0  0  0  0  0  0  0  0  0
    7.9080   -2.2901   -5.4718 H   0  0  0  0  0  0  0  0  0  0  0  0
   -2.8030    1.6034   -6.9285 H   0  0  0  0  0  0  0  0  0  0  0  0
   11.6568   -1.0515   -6.2844 H   0  0  0  0  0  0  0  0  0  0  0  0
   10.5759    0.3416   -6.4798 H   0  0  0  0  0  0  0  0  0  0  0  0
    8.3387   -0.0047   -7.4002 H   0  0  0  0  0  0  0  0  0  0  0  0
    7.8620   -1.6577   -7.8100 H   0  0  0  0  0  0  0  0  0  0  0  0
    0.4087    0.0323   -5.9304 H   0  0  0  0  0  0  0  0  0  0  0  0
   -0.1379    1.6514   -6.2948 H   0  0  0  0  0  0  0  0  0  0  0  0
   -0.4573    0.3488   -7.4146 H   0  0  0  0  0  0  0  0  0  0  0  0
    9.9431   -2.4384   -7.0910 H   0  0  0  0  0  0  0  0  0  0  0  0
   10.2586   -0.1149   -8.8130 H   0  0  0  0  0  0  0  0  0  0  0  0
    9.7640   -1.7123   -9.3197 H   0  0  0  0  0  0  0  0  0  0  0  0
   11.3700   -1.4567   -8.6806 H   0  0  0  0  0  0  0  0  0  0  0  0
  1  2  1  0  0  0  0
  1  3  1  0  0  0  0
  2  4  1  0  0  0  0
  2  5  2  0  0  0  0
  3  6  2  0  0  0  0
  3  7  1  0  0  0  0
  4  8  2  0  0  0  0
  4  9  1  0  0  0  0
  5  6  1  0  0  0  0
  5 40  1  0  0  0  0
  6 10  1  0  0  0  0
  7 11  1  0  0  0  0
  7 41  1  0  0  0  0
  7 42  1  0  0  0  0
  9 12  1  0  0  0  0
  9 43  1  0  0  0  0
 10 13  1  0  0  0  0
 10 44  1  0  0  0  0
 10 45  1  0  0  0  0
 11 13  1  0  0  0  0
 11 46  1  0  0  0  0
 11 47  1  0  0  0  0
 12 14  1  0  0  0  0
 12 48  1  0  0  0  0
 12 49  1  0  0  0  0
 13 15  1  0  0  0  0
 14 16  2  0  0  0  0
 14 17  1  0  0  0  0
 15 18  2  0  0  0  0
 15 19  1  0  0  0  0
 16 20  1  0  0  0  0
 16 50  1  0  0  0  0
 17 21  2  0  0  0  0
 17 51  1  0  0  0  0
 19 22  1  0  0  0  0
 19 23  2  0  0  0  0
 20 24  2  0  0  0  0
 20 52  1  0  0  0  0
 21 24  1  0  0  0  0
 21 53  1  0  0  0  0
 22 25  1  0  0  0  0
 23 26  1  0  0  0  0
 23 27  1  0  0  0  0
 24 28  1  0  0  0  0
 25 29  2  0  0  0  0
 25 26  1  0  0  0  0
 26 30  2  0  0  0  0
 27 54  1  0  0  0  0
 27 55  1  0  0  0  0
 27 56  1  0  0  0  0
 28 31  1  0  0  0  0
 28 32  1  0  0  0  0
 29 33  1  0  0  0  0
 29 57  1  0  0  0  0
 30 34  1  0  0  0  0
 30 58  1  0  0  0  0
 31 35  1  0  0  0  0
 31 59  1  0  0  0  0
 31 60  1  0  0  0  0
 32 36  1  0  0  0  0
 32 61  1  0  0  0  0
 32 62  1  0  0  0  0
 33 37  1  0  0  0  0
 33 34  2  0  0  0  0
 34 63  1  0  0  0  0
 35 38  1  0  0  0  0
 35 64  1  0  0  0  0
 35 65  1  0  0  0  0
 36 38  1  0  0  0  0
 36 66  1  0  0  0  0
 36 67  1  0  0  0  0
 37 68  1  0  0  0  0
 37 69  1  0  0  0  0
 37 70  1  0  0  0  0
 38 39  1  0  0  0  0
 38 71  1  0  0  0  0
 39 72  1  0  0  0  0
 39 73  1  0  0  0  0
 39 74  1  0  0  0  0
M  CHG  1  38   1
M  END
>  <Molecule Name>
CTX-1020743

>  <SMILES>
CN1CCN(CC1)C1=CC=C(CNC(=O)C2=CC3=C(CCN(C3)C(=O)C3=C(C)C4=C(O3)C=C(C)C=C4)S2)C=C1

>  <Batch Name>
CTX-1020743-1

>  <Batch Created Date>
2021-12-16

>  <Batch ID>
CTX-1020743-1

>  <External ID>
P841-0358

>  <Stereochemistry>
Achiral

>  <Amount 1>
4.25

>  <Unit 1>
mg

>  <CRO 1>
Pharmaron

>  <CRO 1 Total Amount>
22.1

>  <CRO 1 Unit>
mg

>  <Pharmaron Solubility (PBS, pH 7.4): Aqueous Solubility - Batch Mean (uM)>
0.0136

>  <Pharmaron Solubility (PBS, pH 7.4): Aqueous Solubility - Batch Mean (uM) Standard Deviation (±)>


>  <Pharmaron Solubility (PBS, pH 7.4): Aqueous Solubility - Batch Mean (uM) Count>
1.0

>  <log P>
4.94

>  <log D>
4.31

>  <Pharmaron Caliper Assay (CDK2/CCNE1): Minimum measured (%)>
18.2

>  <Pharmaron Caliper Assay (CDK2/CCNE1): IC50 - Batch Mean (uM)>
1.42

>  <Pharmaron ADPGLO (CDK2/E1-25C): Minimum measured (%)>
44.5

>  <Pharmaron ADPGLO (CDK2/E1-25C): IC50 - Batch Mean (uM)>
0.476

>  <Pharmaron ADPGLO (CDK2/E1-37C): Minimum measured (%)>
111.0

>  <Pharmaron ADPGLO (CDK2/E1-37C): IC50 - Batch Mean (uM)>
100

>  <IncuCyte Kuramochi RB-WT: IC50 - Batch Mean (uM)>
7.57

>  <IncuCyte Kuramochi RB-KO: IC50 - Batch Mean (uM)>
7.88

>  <DSF (npCDK2/CCNE1): dTm D - Batch Mean [Concentration: 100]>


>  <DSF (npCDK2/CCNE1): dTm D - Batch Mean [Concentration: 20.0]>
3.95

>  <DSF (pCDK2/CCNE1): dTm D - Batch Mean [Concentration: 100]>


>  <DSF (pCDK2/CCNE1): dTm D - Batch Mean [Concentration: 20.0]>
2.0540000000000003

>  <RLM: t1/2 - Batch Mean (Min)>


>  <RLM: Cl int - Batch Mean (uL/min/mg protein)>


>  <RLM: ER (Hepatic extraction ratio) - Batch Mean>


>  <HLM: t1/2 - Batch Mean (Min)>


>  <HLM: Cl int - Batch Mean (uL/min/mg protein)>


>  <HLM: ER (Hepatic extraction ratio) - Batch Mean>


>  <MDCK-WT 4% BSA: Papp (A-B) - Batch Mean (10-6, cm/s)>


>  <MDCK-WT 4% BSA: Papp (B-A) - Batch Mean (10-6, cm/s)>


>  <MDCK-WT 4% BSA: Efflux Ratio - Batch Mean>


>  <MDCK-WT 4% BSA: ~Net A_B - Batch Mean (10-6, cm/s)>


>  <pIC50>
5.847712

>  <Selection_1>
Y

>  <Selection_N>
N

>  <Serie>
Tetrahydrothienopyridine

>  <Selection_T>


>  <Train_Vs_Test>


$$$$
CTX-1020742
 OpenBabel08272613263D

 70 75  0  0  0  0  0  0  0  0999 V2000
    7.4697   10.4715   -0.3702 S   0  0  0  0  0  0  0  0  0  0  0  0
    9.0380    9.8444   -0.6646 C   0  0  0  0  0  0  0  0  0  0  0  0
    8.0050   12.1323   -0.2865 C   0  0  0  0  0  0  0  0  0  0  0  0
    9.9472   10.9326   -0.8449 C   0  0  0  0  0  0  0  0  0  0  0  0
    9.5207    8.5917   -0.0414 C   0  0  0  0  0  0  0  0  0  0  0  0
    9.3621   12.2355   -0.5828 C   0  0  0  0  0  0  0  0  0  0  0  0
    7.2718   13.2826    0.0502 C   0  0  0  0  0  0  0  0  0  0  0  0
   11.4607   10.8384   -0.9327 C   0  0  0  0  0  0  0  0  0  0  0  0
   10.3544    8.9197    0.8266 O   0  0  0  0  0  0  0  0  0  0  0  0
    9.3654    7.1179   -0.2131 N   0  0  0  0  0  0  0  0  0  0  0  0
    9.9782   13.5112   -0.4816 C   0  0  0  0  0  0  0  0  0  0  0  0
    7.8661   14.5027    0.0776 N   0  0  0  0  0  0  0  0  0  0  0  0
    8.4225    5.9257   -0.8805 C   0  0  0  0  0  0  0  0  0  0  0  0
   10.6220    6.6128    0.2825 C   0  0  0  0  0  0  0  0  0  0  0  0
    9.1834   14.5927   -0.1625 C   0  0  0  0  0  0  0  0  0  0  0  0
    8.9165    4.3925   -0.4558 C   0  0  0  0  0  0  0  0  0  0  0  0
   10.6863    5.3063    0.9562 C   0  0  0  0  0  0  0  0  0  0  0  0
    9.6936    4.3163    0.6570 C   0  0  0  0  0  0  0  0  0  0  0  0
    9.0934    2.9825   -1.0182 C   0  0  0  0  0  0  0  0  0  0  0  0
    9.9368    2.7819    1.3313 S   0  0  0  0  0  0  0  0  0  0  0  0
   10.1088    2.2648   -0.2980 C   0  0  0  0  0  0  0  0  0  0  0  0
   11.1523    1.2298   -0.4853 C   0  0  0  0  0  0  0  0  0  0  0  0
   10.9341    0.0526   -0.7921 O   0  0  0  0  0  0  0  0  0  0  0  0
   12.4504    1.7030   -0.2037 N   0  0  0  0  0  0  0  0  0  0  0  0
   13.6581    0.9027    0.0256 C   0  0  0  0  0  0  0  0  0  0  0  0
   14.7660    1.7375    0.6926 C   0  0  0  0  0  0  0  0  0  0  0  0
   14.9218    1.7657    2.0793 C   0  0  0  0  0  0  0  0  0  0  0  0
   15.7509    2.4289   -0.0682 C   0  0  0  0  0  0  0  0  0  0  0  0
   15.9103    2.5683    2.7105 C   0  0  0  0  0  0  0  0  0  0  0  0
   16.7264    3.2155    0.5842 C   0  0  0  0  0  0  0  0  0  0  0  0
   16.7914    3.3889    1.9796 C   0  0  0  0  0  0  0  0  0  0  0  0
   17.6478    4.2867    2.6049 N   0  0  0  0  0  0  0  0  0  0  0  0
   18.2636    4.0855    3.9351 C   0  0  0  0  0  0  0  0  0  0  0  0
   18.1144    5.5118    1.9236 C   0  0  0  0  0  0  0  0  0  0  0  0
   18.1166    5.3586    4.8117 C   0  0  0  0  0  0  0  0  0  0  0  0
   17.9952    6.7470    2.8593 C   0  0  0  0  0  0  0  0  0  0  0  0
   18.6829    6.5588    4.1548 N   0  3  0  0  0  0  0  0  0  0  0  0
   18.5420    7.7421    5.0014 C   0  0  0  0  0  0  0  0  0  0  0  0
    6.2690   13.1989    0.2794 H   0  0  0  0  0  0  0  0  0  0  0  0
   11.7443    9.8254   -1.1285 H   0  0  0  0  0  0  0  0  0  0  0  0
   11.8922   11.1570   -0.0069 H   0  0  0  0  0  0  0  0  0  0  0  0
   11.8118   11.4665   -1.7247 H   0  0  0  0  0  0  0  0  0  0  0  0
   10.9912   13.6258   -0.6421 H   0  0  0  0  0  0  0  0  0  0  0  0
    8.4638    6.0146   -1.9460 H   0  0  0  0  0  0  0  0  0  0  0  0
    7.4283    6.0570   -0.5074 H   0  0  0  0  0  0  0  0  0  0  0  0
   10.9899    7.3361    0.9799 H   0  0  0  0  0  0  0  0  0  0  0  0
   11.1869    6.4514   -0.6118 H   0  0  0  0  0  0  0  0  0  0  0  0
    9.6265   15.5229   -0.1052 H   0  0  0  0  0  0  0  0  0  0  0  0
   10.6338    5.4940    2.0083 H   0  0  0  0  0  0  0  0  0  0  0  0
   11.5946    4.8752    0.5899 H   0  0  0  0  0  0  0  0  0  0  0  0
    8.5552    2.5970   -1.8099 H   0  0  0  0  0  0  0  0  0  0  0  0
   12.5583    2.6804   -0.1556 H   0  0  0  0  0  0  0  0  0  0  0  0
   14.0162    0.5357   -0.9135 H   0  0  0  0  0  0  0  0  0  0  0  0
   13.4069    0.0931    0.6785 H   0  0  0  0  0  0  0  0  0  0  0  0
   14.3000    1.1858    2.6643 H   0  0  0  0  0  0  0  0  0  0  0  0
   15.7522    2.3554   -1.0976 H   0  0  0  0  0  0  0  0  0  0  0  0
   15.9851    2.5493    3.7396 H   0  0  0  0  0  0  0  0  0  0  0  0
   17.4339    3.6915    0.0028 H   0  0  0  0  0  0  0  0  0  0  0  0
   19.3030    3.8642    3.8102 H   0  0  0  0  0  0  0  0  0  0  0  0
   17.7651    3.2745    4.4236 H   0  0  0  0  0  0  0  0  0  0  0  0
   17.5185    5.6753    1.0501 H   0  0  0  0  0  0  0  0  0  0  0  0
   19.1425    5.3836    1.6564 H   0  0  0  0  0  0  0  0  0  0  0  0
   18.6274    5.1997    5.7384 H   0  0  0  0  0  0  0  0  0  0  0  0
   17.0721    5.5313    4.9673 H   0  0  0  0  0  0  0  0  0  0  0  0
   16.9585    6.9335    3.0475 H   0  0  0  0  0  0  0  0  0  0  0  0
   18.4656    7.5705    2.3638 H   0  0  0  0  0  0  0  0  0  0  0  0
   19.6821    6.4252    3.9995 H   0  0  0  0  0  0  0  0  0  0  0  0
   17.5048    7.9227    5.1923 H   0  0  0  0  0  0  0  0  0  0  0  0
   18.9659    8.5892    4.5037 H   0  0  0  0  0  0  0  0  0  0  0  0
   19.0523    7.5806    5.9279 H   0  0  0  0  0  0  0  0  0  0  0  0
  1  2  1  0  0  0  0
  1  3  1  0  0  0  0
  2  4  2  0  0  0  0
  2  5  1  0  0  0  0
  3  6  2  0  0  0  0
  3  7  1  0  0  0  0
  4  8  1  0  0  0  0
  4  6  1  0  0  0  0
  5  9  2  0  0  0  0
  5 10  1  0  0  0  0
  6 11  1  0  0  0  0
  7 12  2  0  0  0  0
  7 39  1  0  0  0  0
  8 40  1  0  0  0  0
  8 41  1  0  0  0  0
  8 42  1  0  0  0  0
 10 13  1  0  0  0  0
 10 14  1  0  0  0  0
 11 15  2  0  0  0  0
 11 43  1  0  0  0  0
 12 15  1  0  0  0  0
 13 16  1  0  0  0  0
 13 44  1  0  0  0  0
 13 45  1  0  0  0  0
 14 17  1  0  0  0  0
 14 46  1  0  0  0  0
 14 47  1  0  0  0  0
 15 48  1  0  0  0  0
 16 18  2  0  0  0  0
 16 19  1  0  0  0  0
 17 18  1  0  0  0  0
 17 49  1  0  0  0  0
 17 50  1  0  0  0  0
 18 20  1  0  0  0  0
 19 21  2  0  0  0  0
 19 51  1  0  0  0  0
 20 21  1  0  0  0  0
 21 22  1  0  0  0  0
 22 23  2  0  0  0  0
 22 24  1  0  0  0  0
 24 25  1  0  0  0  0
 24 52  1  0  0  0  0
 25 26  1  0  0  0  0
 25 53  1  0  0  0  0
 25 54  1  0  0  0  0
 26 27  2  0  0  0  0
 26 28  1  0  0  0  0
 27 29  1  0  0  0  0
 27 55  1  0  0  0  0
 28 30  2  0  0  0  0
 28 56  1  0  0  0  0
 29 31  2  0  0  0  0
 29 57  1  0  0  0  0
 30 31  1  0  0  0  0
 30 58  1  0  0  0  0
 31 32  1  0  0  0  0
 32 33  1  0  0  0  0
 32 34  1  0  0  0  0
 33 35  1  0  0  0  0
 33 59  1  0  0  0  0
 33 60  1  0  0  0  0
 34 36  1  0  0  0  0
 34 61  1  0  0  0  0
 34 62  1  0  0  0  0
 35 37  1  0  0  0  0
 35 63  1  0  0  0  0
 35 64  1  0  0  0  0
 36 37  1  0  0  0  0
 36 65  1  0  0  0  0
 36 66  1  0  0  0  0
 37 38  1  0  0  0  0
 37 67  1  0  0  0  0
 38 68  1  0  0  0  0
 38 69  1  0  0  0  0
 38 70  1  0  0  0  0
M  CHG  1  37   1
M  END
>  <Molecule Name>
CTX-1020742

>  <SMILES>
CN1CCN(CC1)C1=CC=C(CNC(=O)C2=CC3=C(CCN(C3)C(=O)C3=C(C)C4=C(S3)C=NC=C4)S2)C=C1

>  <Batch Name>
CTX-1020742-1

>  <Batch Created Date>
2021-12-16

>  <Batch ID>
CTX-1020742-1

>  <External ID>
P841-0357

>  <Stereochemistry>
Achiral

>  <Amount 1>
5.1

>  <Unit 1>
mg

>  <CRO 1>
Pharmaron

>  <CRO 1 Total Amount>
39.3

>  <CRO 1 Unit>
mg

>  <Pharmaron Solubility (PBS, pH 7.4): Aqueous Solubility - Batch Mean (uM)>
130.015

>  <Pharmaron Solubility (PBS, pH 7.4): Aqueous Solubility - Batch Mean (uM) Standard Deviation (±)>


>  <Pharmaron Solubility (PBS, pH 7.4): Aqueous Solubility - Batch Mean (uM) Count>
1.0

>  <log P>
4.14

>  <log D>
3.51

>  <Pharmaron Caliper Assay (CDK2/CCNE1): Minimum measured (%)>
28.2

>  <Pharmaron Caliper Assay (CDK2/CCNE1): IC50 - Batch Mean (uM)>
11.1

>  <Pharmaron ADPGLO (CDK2/E1-25C): Minimum measured (%)>


>  <Pharmaron ADPGLO (CDK2/E1-25C): IC50 - Batch Mean (uM)>


>  <Pharmaron ADPGLO (CDK2/E1-37C): Minimum measured (%)>


>  <Pharmaron ADPGLO (CDK2/E1-37C): IC50 - Batch Mean (uM)>


>  <IncuCyte Kuramochi RB-WT: IC50 - Batch Mean (uM)>
20.0

>  <IncuCyte Kuramochi RB-KO: IC50 - Batch Mean (uM)>
20.0

>  <DSF (npCDK2/CCNE1): dTm D - Batch Mean [Concentration: 100]>


>  <DSF (npCDK2/CCNE1): dTm D - Batch Mean [Concentration: 20.0]>
0.775

>  <DSF (pCDK2/CCNE1): dTm D - Batch Mean [Concentration: 100]>


>  <DSF (pCDK2/CCNE1): dTm D - Batch Mean [Concentration: 20.0]>


>  <RLM: t1/2 - Batch Mean (Min)>


>  <RLM: Cl int - Batch Mean (uL/min/mg protein)>


>  <RLM: ER (Hepatic extraction ratio) - Batch Mean>


>  <HLM: t1/2 - Batch Mean (Min)>


>  <HLM: Cl int - Batch Mean (uL/min/mg protein)>


>  <HLM: ER (Hepatic extraction ratio) - Batch Mean>


>  <MDCK-WT 4% BSA: Papp (A-B) - Batch Mean (10-6, cm/s)>


>  <MDCK-WT 4% BSA: Papp (B-A) - Batch Mean (10-6, cm/s)>


>  <MDCK-WT 4% BSA: Efflux Ratio - Batch Mean>


>  <MDCK-WT 4% BSA: ~Net A_B - Batch Mean (10-6, cm/s)>


>  <pIC50>
4.954677

>  <Selection_1>
Y

>  <Selection_N>
N

>  <Serie>
Tetrahydrothienopyridine

>  <Selection_T>


>  <Train_Vs_Test>


$$$$
CTX-1020741
 OpenBabel08272613263D

 57 61  0  0  0  0  0  0  0  0999 V2000
    1.7781   -0.7161   -0.0402 S   0  0  0  0  0  0  0  0  0  0  0  0
    2.1009    0.9659    0.0274 C   0  0  0  0  0  0  0  0  0  0  0  0
    0.0943   -0.4646   -0.0289 C   0  0  0  0  0  0  0  0  0  0  0  0
    3.4526    1.5226    0.0266 C   0  0  0  0  0  0  0  0  0  0  0  0
    0.9161    1.6874    0.0754 C   0  0  0  0  0  0  0  0  0  0  0  0
   -0.2608    0.8688    0.0432 C   0  0  0  0  0  0  0  0  0  0  0  0
   -0.8876   -1.5885   -0.1429 C   0  0  0  0  0  0  0  0  0  0  0  0
    3.6543    2.7358    0.0767 O   0  0  0  0  0  0  0  0  0  0  0  0
    4.5022    0.6281   -0.0352 N   0  0  0  0  0  0  0  0  0  0  0  0
   -1.7006    1.3404    0.0680 C   0  0  0  0  0  0  0  0  0  0  0  0
   -2.2995   -1.0879    0.2026 C   0  0  0  0  0  0  0  0  0  0  0  0
    5.8887    1.0498    0.0070 C   0  0  0  0  0  0  0  0  0  0  0  0
   -2.5838    0.2441   -0.3442 N   0  0  0  0  0  0  0  0  0  0  0  0
    6.6550    0.6425   -1.2285 C   0  0  0  0  0  0  0  0  0  0  0  0
   -3.7818    0.5362   -1.0112 C   0  0  0  0  0  0  0  0  0  0  0  0
    6.2498    1.0870   -2.4938 C   0  0  0  0  0  0  0  0  0  0  0  0
    7.8288   -0.1196   -1.1324 C   0  0  0  0  0  0  0  0  0  0  0  0
   -4.3258    1.6343   -0.8886 O   0  0  0  0  0  0  0  0  0  0  0  0
   -4.1718   -0.4296   -2.0597 C   0  0  0  0  0  0  0  0  0  0  0  0
    6.9899    0.7670   -3.6407 C   0  0  0  0  0  0  0  0  0  0  0  0
    8.5648   -0.4365   -2.2780 C   0  0  0  0  0  0  0  0  0  0  0  0
   -3.1060   -1.1497   -2.5713 O   0  0  0  0  0  0  0  0  0  0  0  0
   -5.0453   -0.2442   -3.1388 C   0  0  0  0  0  0  0  0  0  0  0  0
    8.1526    0.0009   -3.5365 C   0  0  0  0  0  0  0  0  0  0  0  0
   -2.9471   -0.6141   -3.8084 C   0  0  0  0  0  0  0  0  0  0  0  0
   -4.1214    0.0140   -4.1981 C   0  0  0  0  0  0  0  0  0  0  0  0
   -6.5133   -0.0526   -3.1612 C   0  0  0  0  0  0  0  0  0  0  0  0
    8.9664   -0.3726   -4.5713 O   0  0  0  0  0  0  0  0  0  0  0  0
   -1.7608   -0.6108   -4.5150 C   0  0  0  0  0  0  0  0  0  0  0  0
   -4.1179    0.7384   -5.3991 C   0  0  0  0  0  0  0  0  0  0  0  0
    8.6025    0.0710   -5.8736 C   0  0  0  0  0  0  0  0  0  0  0  0
   -1.7419    0.2025   -5.6491 C   0  0  0  0  0  0  0  0  0  0  0  0
   -2.8959    0.8724   -6.0776 C   0  0  0  0  0  0  0  0  0  0  0  0
    0.8850    2.7175    0.1293 H   0  0  0  0  0  0  0  0  0  0  0  0
   -0.6127   -2.3697    0.5347 H   0  0  0  0  0  0  0  0  0  0  0  0
   -0.8818   -1.9606   -1.1460 H   0  0  0  0  0  0  0  0  0  0  0  0
    4.3016   -0.3328   -0.1108 H   0  0  0  0  0  0  0  0  0  0  0  0
   -1.8173    2.1641   -0.6048 H   0  0  0  0  0  0  0  0  0  0  0  0
   -1.9565    1.6496    1.0599 H   0  0  0  0  0  0  0  0  0  0  0  0
   -2.3961   -1.0474    1.2675 H   0  0  0  0  0  0  0  0  0  0  0  0
   -2.9977   -1.7701   -0.2354 H   0  0  0  0  0  0  0  0  0  0  0  0
    6.3560    0.6076    0.8619 H   0  0  0  0  0  0  0  0  0  0  0  0
    5.9019    2.1184    0.0601 H   0  0  0  0  0  0  0  0  0  0  0  0
    5.3946    1.6578   -2.5829 H   0  0  0  0  0  0  0  0  0  0  0  0
    8.1515   -0.4489   -0.2091 H   0  0  0  0  0  0  0  0  0  0  0  0
    6.6742    1.0989   -4.5655 H   0  0  0  0  0  0  0  0  0  0  0  0
    9.4242   -1.0014   -2.1913 H   0  0  0  0  0  0  0  0  0  0  0  0
   -6.9243   -0.3352   -2.2146 H   0  0  0  0  0  0  0  0  0  0  0  0
   -6.9406   -0.6603   -3.9313 H   0  0  0  0  0  0  0  0  0  0  0  0
   -6.7359    0.9761   -3.3539 H   0  0  0  0  0  0  0  0  0  0  0  0
   -0.9442   -1.1711   -4.2245 H   0  0  0  0  0  0  0  0  0  0  0  0
   -4.9838    1.1586   -5.7714 H   0  0  0  0  0  0  0  0  0  0  0  0
    9.3167   -0.2876   -6.5851 H   0  0  0  0  0  0  0  0  0  0  0  0
    8.5849    1.1406   -5.8941 H   0  0  0  0  0  0  0  0  0  0  0  0
    7.6323   -0.3065   -6.1208 H   0  0  0  0  0  0  0  0  0  0  0  0
   -0.8642    0.3123   -6.1806 H   0  0  0  0  0  0  0  0  0  0  0  0
   -2.8464    1.4785   -6.9114 H   0  0  0  0  0  0  0  0  0  0  0  0
  1  2  1  0  0  0  0
  1  3  1  0  0  0  0
  2  4  1  0  0  0  0
  2  5  2  0  0  0  0
  3  6  2  0  0  0  0
  3  7  1  0  0  0  0
  4  8  2  0  0  0  0
  4  9  1  0  0  0  0
  5  6  1  0  0  0  0
  5 34  1  0  0  0  0
  6 10  1  0  0  0  0
  7 11  1  0  0  0  0
  7 35  1  0  0  0  0
  7 36  1  0  0  0  0
  9 12  1  0  0  0  0
  9 37  1  0  0  0  0
 10 13  1  0  0  0  0
 10 38  1  0  0  0  0
 10 39  1  0  0  0  0
 11 13  1  0  0  0  0
 11 40  1  0  0  0  0
 11 41  1  0  0  0  0
 12 14  1  0  0  0  0
 12 42  1  0  0  0  0
 12 43  1  0  0  0  0
 13 15  1  0  0  0  0
 14 16  2  0  0  0  0
 14 17  1  0  0  0  0
 15 18  2  0  0  0  0
 15 19  1  0  0  0  0
 16 20  1  0  0  0  0
 16 44  1  0  0  0  0
 17 21  2  0  0  0  0
 17 45  1  0  0  0  0
 19 22  1  0  0  0  0
 19 23  2  0  0  0  0
 20 24  2  0  0  0  0
 20 46  1  0  0  0  0
 21 24  1  0  0  0  0
 21 47  1  0  0  0  0
 22 25  1  0  0  0  0
 23 26  1  0  0  0  0
 23 27  1  0  0  0  0
 24 28  1  0  0  0  0
 25 29  2  0  0  0  0
 25 26  1  0  0  0  0
 26 30  2  0  0  0  0
 27 48  1  0  0  0  0
 27 49  1  0  0  0  0
 27 50  1  0  0  0  0
 28 31  1  0  0  0  0
 29 32  1  0  0  0  0
 29 51  1  0  0  0  0
 30 33  1  0  0  0  0
 30 52  1  0  0  0  0
 31 53  1  0  0  0  0
 31 54  1  0  0  0  0
 31 55  1  0  0  0  0
 32 33  2  0  0  0  0
 32 56  1  0  0  0  0
 33 57  1  0  0  0  0
M  END
>  <Molecule Name>
CTX-1020741

>  <SMILES>
COC1=CC=C(CNC(=O)C2=CC3=C(CCN(C3)C(=O)C3=C(C)C4=C(O3)C=CC=C4)S2)C=C1

>  <Batch Name>
CTX-1020741-1

>  <Batch Created Date>
2021-12-16

>  <Batch ID>
CTX-1020741-1

>  <External ID>
P841-0356

>  <Stereochemistry>
Achiral

>  <Amount 1>
4.55

>  <Unit 1>
mg

>  <CRO 1>
Pharmaron

>  <CRO 1 Total Amount>
19.75

>  <CRO 1 Unit>
mg

>  <Pharmaron Solubility (PBS, pH 7.4): Aqueous Solubility - Batch Mean (uM)>
0.0005

>  <Pharmaron Solubility (PBS, pH 7.4): Aqueous Solubility - Batch Mean (uM) Standard Deviation (±)>


>  <Pharmaron Solubility (PBS, pH 7.4): Aqueous Solubility - Batch Mean (uM) Count>
1.0

>  <log P>
4.31

>  <log D>
4.31

>  <Pharmaron Caliper Assay (CDK2/CCNE1): Minimum measured (%)>
40.2

>  <Pharmaron Caliper Assay (CDK2/CCNE1): IC50 - Batch Mean (uM)>
0.764

>  <Pharmaron ADPGLO (CDK2/E1-25C): Minimum measured (%)>
55.5

>  <Pharmaron ADPGLO (CDK2/E1-25C): IC50 - Batch Mean (uM)>
2.01

>  <Pharmaron ADPGLO (CDK2/E1-37C): Minimum measured (%)>
97.4

>  <Pharmaron ADPGLO (CDK2/E1-37C): IC50 - Batch Mean (uM)>
100

>  <IncuCyte Kuramochi RB-WT: IC50 - Batch Mean (uM)>
20.0

>  <IncuCyte Kuramochi RB-KO: IC50 - Batch Mean (uM)>
20.0

>  <DSF (npCDK2/CCNE1): dTm D - Batch Mean [Concentration: 100]>


>  <DSF (npCDK2/CCNE1): dTm D - Batch Mean [Concentration: 20.0]>
2.8139999999999996

>  <DSF (pCDK2/CCNE1): dTm D - Batch Mean [Concentration: 100]>


>  <DSF (pCDK2/CCNE1): dTm D - Batch Mean [Concentration: 20.0]>
0.578

>  <RLM: t1/2 - Batch Mean (Min)>


>  <RLM: Cl int - Batch Mean (uL/min/mg protein)>


>  <RLM: ER (Hepatic extraction ratio) - Batch Mean>


>  <HLM: t1/2 - Batch Mean (Min)>


>  <HLM: Cl int - Batch Mean (uL/min/mg protein)>


>  <HLM: ER (Hepatic extraction ratio) - Batch Mean>


>  <MDCK-WT 4% BSA: Papp (A-B) - Batch Mean (10-6, cm/s)>


>  <MDCK-WT 4% BSA: Papp (B-A) - Batch Mean (10-6, cm/s)>


>  <MDCK-WT 4% BSA: Efflux Ratio - Batch Mean>


>  <MDCK-WT 4% BSA: ~Net A_B - Batch Mean (10-6, cm/s)>


>  <pIC50>
6.116907

>  <Selection_1>
Y

>  <Selection_N>
N

>  <Serie>
Tetrahydrothienopyridine

>  <Selection_T>


>  <Train_Vs_Test>


$$$$
CTX-1020740
 OpenBabel08272613263D

 56 60  0  0  0  0  0  0  0  0999 V2000
    1.7733   -0.6865    0.0139 S   0  0  0  0  0  0  0  0  0  0  0  0
    2.0821    0.9973    0.0935 C   0  0  0  0  0  0  0  0  0  0  0  0
    0.0861   -0.4431   -0.0128 C   0  0  0  0  0  0  0  0  0  0  0  0
    3.4347    1.5567    0.1066 C   0  0  0  0  0  0  0  0  0  0  0  0
    0.8928    1.7144    0.1096 C   0  0  0  0  0  0  0  0  0  0  0  0
   -0.2760    0.8868    0.0529 C   0  0  0  0  0  0  0  0  0  0  0  0
   -0.8851   -1.5739   -0.1435 C   0  0  0  0  0  0  0  0  0  0  0  0
    3.6394    2.7749    0.0998 O   0  0  0  0  0  0  0  0  0  0  0  0
    4.4875    0.6589    0.0958 N   0  0  0  0  0  0  0  0  0  0  0  0
   -1.7158    1.3501    0.0551 C   0  0  0  0  0  0  0  0  0  0  0  0
   -2.3026   -1.0795    0.1902 C   0  0  0  0  0  0  0  0  0  0  0  0
    5.8644    1.0937    0.0210 C   0  0  0  0  0  0  0  0  0  0  0  0
   -2.5875    0.2498   -0.3635 N   0  0  0  0  0  0  0  0  0  0  0  0
    6.5221    1.1856    1.3767 C   0  0  0  0  0  0  0  0  0  0  0  0
   -3.7819    0.5389   -1.0366 C   0  0  0  0  0  0  0  0  0  0  0  0
    7.1773    0.0790    1.9326 C   0  0  0  0  0  0  0  0  0  0  0  0
    6.4903    2.3859    2.1010 C   0  0  0  0  0  0  0  0  0  0  0  0
   -4.3190    1.6420   -0.9328 O   0  0  0  0  0  0  0  0  0  0  0  0
   -4.1836   -0.4419   -2.0681 C   0  0  0  0  0  0  0  0  0  0  0  0
    7.8047    0.1767    3.1784 C   0  0  0  0  0  0  0  0  0  0  0  0
    7.1193    2.4850    3.3451 C   0  0  0  0  0  0  0  0  0  0  0  0
   -3.1204   -1.1738   -2.5772 O   0  0  0  0  0  0  0  0  0  0  0  0
   -5.0453   -0.2494   -3.1556 C   0  0  0  0  0  0  0  0  0  0  0  0
    7.7856    1.3812    3.8966 C   0  0  0  0  0  0  0  0  0  0  0  0
   -2.9404   -0.6253   -3.8074 C   0  0  0  0  0  0  0  0  0  0  0  0
   -4.1055    0.0207   -4.1984 C   0  0  0  0  0  0  0  0  0  0  0  0
   -6.5125   -0.0594   -3.1976 C   0  0  0  0  0  0  0  0  0  0  0  0
    8.4616    1.5036    5.2398 C   0  0  0  0  0  0  0  0  0  0  0  0
   -1.7446   -0.6207   -4.5058 C   0  0  0  0  0  0  0  0  0  0  0  0
   -4.0894    0.7573   -5.3920 C   0  0  0  0  0  0  0  0  0  0  0  0
    9.0491    0.3484    5.6619 F   0  0  0  0  0  0  0  0  0  0  0  0
    9.4471    2.4441    5.2460 F   0  0  0  0  0  0  0  0  0  0  0  0
    7.5969    1.8626    6.2291 F   0  0  0  0  0  0  0  0  0  0  0  0
   -1.7163    0.2075   -5.6259 C   0  0  0  0  0  0  0  0  0  0  0  0
   -2.8610    0.8903   -6.0584 C   0  0  0  0  0  0  0  0  0  0  0  0
    0.8544    2.7446    0.1577 H   0  0  0  0  0  0  0  0  0  0  0  0
   -0.6128   -2.3568    0.5330 H   0  0  0  0  0  0  0  0  0  0  0  0
   -0.8656   -1.9440   -1.1473 H   0  0  0  0  0  0  0  0  0  0  0  0
    4.2931   -0.3052    0.1403 H   0  0  0  0  0  0  0  0  0  0  0  0
   -1.8269    2.1700   -0.6233 H   0  0  0  0  0  0  0  0  0  0  0  0
   -1.9869    1.6620    1.0421 H   0  0  0  0  0  0  0  0  0  0  0  0
   -2.4077   -1.0361    1.2542 H   0  0  0  0  0  0  0  0  0  0  0  0
   -2.9949   -1.7665   -0.2499 H   0  0  0  0  0  0  0  0  0  0  0  0
    5.8938    2.0590   -0.4396 H   0  0  0  0  0  0  0  0  0  0  0  0
    6.4021    0.3656   -0.5497 H   0  0  0  0  0  0  0  0  0  0  0  0
    7.1971   -0.8155    1.4183 H   0  0  0  0  0  0  0  0  0  0  0  0
    5.9973    3.2046    1.7113 H   0  0  0  0  0  0  0  0  0  0  0  0
    8.2867   -0.6459    3.5734 H   0  0  0  0  0  0  0  0  0  0  0  0
    7.0932    3.3778    3.8622 H   0  0  0  0  0  0  0  0  0  0  0  0
   -6.9370   -0.3523   -2.2601 H   0  0  0  0  0  0  0  0  0  0  0  0
   -6.9276   -0.6595   -3.9801 H   0  0  0  0  0  0  0  0  0  0  0  0
   -6.7335    0.9710   -3.3828 H   0  0  0  0  0  0  0  0  0  0  0  0
   -0.9333   -1.1895   -4.2176 H   0  0  0  0  0  0  0  0  0  0  0  0
   -4.9499    1.1862   -5.7669 H   0  0  0  0  0  0  0  0  0  0  0  0
   -0.8334    0.3205   -6.1482 H   0  0  0  0  0  0  0  0  0  0  0  0
   -2.7997    1.5047   -6.8852 H   0  0  0  0  0  0  0  0  0  0  0  0
  1  2  1  0  0  0  0
  1  3  1  0  0  0  0
  2  4  1  0  0  0  0
  2  5  2  0  0  0  0
  3  6  2  0  0  0  0
  3  7  1  0  0  0  0
  4  8  2  0  0  0  0
  4  9  1  0  0  0  0
  5  6  1  0  0  0  0
  5 36  1  0  0  0  0
  6 10  1  0  0  0  0
  7 11  1  0  0  0  0
  7 37  1  0  0  0  0
  7 38  1  0  0  0  0
  9 12  1  0  0  0  0
  9 39  1  0  0  0  0
 10 13  1  0  0  0  0
 10 40  1  0  0  0  0
 10 41  1  0  0  0  0
 11 13  1  0  0  0  0
 11 42  1  0  0  0  0
 11 43  1  0  0  0  0
 12 14  1  0  0  0  0
 12 44  1  0  0  0  0
 12 45  1  0  0  0  0
 13 15  1  0  0  0  0
 14 16  2  0  0  0  0
 14 17  1  0  0  0  0
 15 18  2  0  0  0  0
 15 19  1  0  0  0  0
 16 20  1  0  0  0  0
 16 46  1  0  0  0  0
 17 21  2  0  0  0  0
 17 47  1  0  0  0  0
 19 22  1  0  0  0  0
 19 23  2  0  0  0  0
 20 24  2  0  0  0  0
 20 48  1  0  0  0  0
 21 24  1  0  0  0  0
 21 49  1  0  0  0  0
 22 25  1  0  0  0  0
 23 26  1  0  0  0  0
 23 27  1  0  0  0  0
 24 28  1  0  0  0  0
 25 29  2  0  0  0  0
 25 26  1  0  0  0  0
 26 30  2  0  0  0  0
 27 50  1  0  0  0  0
 27 51  1  0  0  0  0
 27 52  1  0  0  0  0
 28 31  1  0  0  0  0
 28 32  1  0  0  0  0
 28 33  1  0  0  0  0
 29 34  1  0  0  0  0
 29 53  1  0  0  0  0
 30 35  1  0  0  0  0
 30 54  1  0  0  0  0
 34 35  2  0  0  0  0
 34 55  1  0  0  0  0
 35 56  1  0  0  0  0
M  END
>  <Molecule Name>
CTX-1020740

>  <SMILES>
CC1=C(OC2=C1C=CC=C2)C(=O)N1CCC2=C(C1)C=C(S2)C(=O)NCC1=CC=C(C=C1)C(F)(F)F

>  <Batch Name>
CTX-1020740-1

>  <Batch Created Date>
2021-12-16

>  <Batch ID>
CTX-1020740-1

>  <External ID>
P841-0355

>  <Stereochemistry>
Achiral

>  <Amount 1>
3.95

>  <Unit 1>
mg

>  <CRO 1>
Pharmaron

>  <CRO 1 Total Amount>
16.75

>  <CRO 1 Unit>
mg

>  <Pharmaron Solubility (PBS, pH 7.4): Aqueous Solubility - Batch Mean (uM)>
0.0017

>  <Pharmaron Solubility (PBS, pH 7.4): Aqueous Solubility - Batch Mean (uM) Standard Deviation (±)>


>  <Pharmaron Solubility (PBS, pH 7.4): Aqueous Solubility - Batch Mean (uM) Count>
1.0

>  <log P>
5.35

>  <log D>
5.35

>  <Pharmaron Caliper Assay (CDK2/CCNE1): Minimum measured (%)>
73.5

>  <Pharmaron Caliper Assay (CDK2/CCNE1): IC50 - Batch Mean (uM)>
3.05

>  <Pharmaron ADPGLO (CDK2/E1-25C): Minimum measured (%)>


>  <Pharmaron ADPGLO (CDK2/E1-25C): IC50 - Batch Mean (uM)>


>  <Pharmaron ADPGLO (CDK2/E1-37C): Minimum measured (%)>


>  <Pharmaron ADPGLO (CDK2/E1-37C): IC50 - Batch Mean (uM)>


>  <IncuCyte Kuramochi RB-WT: IC50 - Batch Mean (uM)>
20.0

>  <IncuCyte Kuramochi RB-KO: IC50 - Batch Mean (uM)>
20.0

>  <DSF (npCDK2/CCNE1): dTm D - Batch Mean [Concentration: 100]>


>  <DSF (npCDK2/CCNE1): dTm D - Batch Mean [Concentration: 20.0]>
0.775

>  <DSF (pCDK2/CCNE1): dTm D - Batch Mean [Concentration: 100]>


>  <DSF (pCDK2/CCNE1): dTm D - Batch Mean [Concentration: 20.0]>


>  <RLM: t1/2 - Batch Mean (Min)>


>  <RLM: Cl int - Batch Mean (uL/min/mg protein)>


>  <RLM: ER (Hepatic extraction ratio) - Batch Mean>


>  <HLM: t1/2 - Batch Mean (Min)>


>  <HLM: Cl int - Batch Mean (uL/min/mg protein)>


>  <HLM: ER (Hepatic extraction ratio) - Batch Mean>


>  <MDCK-WT 4% BSA: Papp (A-B) - Batch Mean (10-6, cm/s)>


>  <MDCK-WT 4% BSA: Papp (B-A) - Batch Mean (10-6, cm/s)>


>  <MDCK-WT 4% BSA: Efflux Ratio - Batch Mean>


>  <MDCK-WT 4% BSA: ~Net A_B - Batch Mean (10-6, cm/s)>


>  <pIC50>
5.5157

>  <Selection_1>
Y

>  <Selection_N>
N

>  <Serie>
Tetrahydrothienopyridine

>  <Selection_T>


>  <Train_Vs_Test>


$$$$
CTX-1020739
 OpenBabel08272613263D

 52 56  0  0  0  0  0  0  0  0999 V2000
    1.8618   -0.6883    0.0002 S   0  0  0  0  0  0  0  0  0  0  0  0
    2.1781    0.9952    0.0594 C   0  0  0  0  0  0  0  0  0  0  0  0
    0.1853   -0.4346   -0.0334 C   0  0  0  0  0  0  0  0  0  0  0  0
    3.5279    1.5389    0.1465 C   0  0  0  0  0  0  0  0  0  0  0  0
    0.9980    1.7235    0.0278 C   0  0  0  0  0  0  0  0  0  0  0  0
   -0.1693    0.9007   -0.0305 C   0  0  0  0  0  0  0  0  0  0  0  0
   -0.8013   -1.5541   -0.0768 C   0  0  0  0  0  0  0  0  0  0  0  0
    3.7461    2.7500    0.1822 O   0  0  0  0  0  0  0  0  0  0  0  0
    4.5630    0.6265    0.1975 N   0  0  0  0  0  0  0  0  0  0  0  0
   -1.6037    1.3703   -0.0464 C   0  0  0  0  0  0  0  0  0  0  0  0
   -2.1723   -1.0172    0.3599 C   0  0  0  0  0  0  0  0  0  0  0  0
    5.9422    1.0575    0.2292 C   0  0  0  0  0  0  0  0  0  0  0  0
   -2.4968    0.2406   -0.3447 N   0  0  0  0  0  0  0  0  0  0  0  0
    6.8295    0.0672    0.9363 C   0  0  0  0  0  0  0  0  0  0  0  0
   -3.4574    0.3950   -1.3530 C   0  0  0  0  0  0  0  0  0  0  0  0
    7.9483   -0.4854    0.3071 C   0  0  0  0  0  0  0  0  0  0  0  0
    6.5890   -0.2706    2.2727 C   0  0  0  0  0  0  0  0  0  0  0  0
   -3.5074    1.4385   -2.0078 O   0  0  0  0  0  0  0  0  0  0  0  0
   -4.3810   -0.6976   -1.6228 C   0  0  0  0  0  0  0  0  0  0  0  0
    8.7642   -1.3459    1.0302 C   0  0  0  0  0  0  0  0  0  0  0  0
    7.4602   -1.1409    2.9098 C   0  0  0  0  0  0  0  0  0  0  0  0
   -4.8359   -1.4599   -0.5811 O   0  0  0  0  0  0  0  0  0  0  0  0
   -4.9929   -1.1194   -2.8014 C   0  0  0  0  0  0  0  0  0  0  0  0
    8.5416   -1.6884    2.3170 N   0  0  0  0  0  0  0  0  0  0  0  0
   -5.6542   -2.4139   -1.0833 C   0  0  0  0  0  0  0  0  0  0  0  0
   -5.8239   -2.2297   -2.4459 C   0  0  0  0  0  0  0  0  0  0  0  0
   -4.8094   -0.5719   -4.1705 C   0  0  0  0  0  0  0  0  0  0  0  0
   -6.2434   -3.4340   -0.3418 C   0  0  0  0  0  0  0  0  0  0  0  0
   -6.6928   -3.1017   -3.1283 C   0  0  0  0  0  0  0  0  0  0  0  0
   -7.0937   -4.2954   -1.0392 C   0  0  0  0  0  0  0  0  0  0  0  0
   -7.3268   -4.1250   -2.4064 C   0  0  0  0  0  0  0  0  0  0  0  0
    0.9661    2.7549    0.0447 H   0  0  0  0  0  0  0  0  0  0  0  0
   -0.4914   -2.3336    0.5874 H   0  0  0  0  0  0  0  0  0  0  0  0
   -0.8629   -1.9483   -1.0696 H   0  0  0  0  0  0  0  0  0  0  0  0
    4.3577   -0.3362    0.2126 H   0  0  0  0  0  0  0  0  0  0  0  0
   -1.7220    2.1239   -0.7967 H   0  0  0  0  0  0  0  0  0  0  0  0
   -1.8532    1.7730    0.9131 H   0  0  0  0  0  0  0  0  0  0  0  0
   -2.1569   -0.8341    1.4140 H   0  0  0  0  0  0  0  0  0  0  0  0
   -2.9171   -1.7461    0.1171 H   0  0  0  0  0  0  0  0  0  0  0  0
    5.9984    1.9966    0.7391 H   0  0  0  0  0  0  0  0  0  0  0  0
    6.2838    1.1430   -0.7812 H   0  0  0  0  0  0  0  0  0  0  0  0
    8.1642   -0.2584   -0.6762 H   0  0  0  0  0  0  0  0  0  0  0  0
    5.7773    0.1212    2.7753 H   0  0  0  0  0  0  0  0  0  0  0  0
    9.5886   -1.7469    0.5563 H   0  0  0  0  0  0  0  0  0  0  0  0
    7.2705   -1.3840    3.8946 H   0  0  0  0  0  0  0  0  0  0  0  0
   -4.1327    0.2562   -4.1357 H   0  0  0  0  0  0  0  0  0  0  0  0
   -5.7535   -0.2451   -4.5535 H   0  0  0  0  0  0  0  0  0  0  0  0
   -4.4097   -1.3325   -4.8082 H   0  0  0  0  0  0  0  0  0  0  0  0
   -6.0621   -3.5477    0.6677 H   0  0  0  0  0  0  0  0  0  0  0  0
   -6.8606   -2.9907   -4.1405 H   0  0  0  0  0  0  0  0  0  0  0  0
   -7.5566   -5.0692   -0.5372 H   0  0  0  0  0  0  0  0  0  0  0  0
   -7.9761   -4.7623   -2.8936 H   0  0  0  0  0  0  0  0  0  0  0  0
  1  2  1  0  0  0  0
  1  3  1  0  0  0  0
  2  4  1  0  0  0  0
  2  5  2  0  0  0  0
  3  6  2  0  0  0  0
  3  7  1  0  0  0  0
  4  8  2  0  0  0  0
  4  9  1  0  0  0  0
  5  6  1  0  0  0  0
  5 32  1  0  0  0  0
  6 10  1  0  0  0  0
  7 11  1  0  0  0  0
  7 33  1  0  0  0  0
  7 34  1  0  0  0  0
  9 12  1  0  0  0  0
  9 35  1  0  0  0  0
 10 13  1  0  0  0  0
 10 36  1  0  0  0  0
 10 37  1  0  0  0  0
 11 13  1  0  0  0  0
 11 38  1  0  0  0  0
 11 39  1  0  0  0  0
 12 14  1  0  0  0  0
 12 40  1  0  0  0  0
 12 41  1  0  0  0  0
 13 15  1  0  0  0  0
 14 16  2  0  0  0  0
 14 17  1  0  0  0  0
 15 18  2  0  0  0  0
 15 19  1  0  0  0  0
 16 20  1  0  0  0  0
 16 42  1  0  0  0  0
 17 21  2  0  0  0  0
 17 43  1  0  0  0  0
 19 22  1  0  0  0  0
 19 23  2  0  0  0  0
 20 24  2  0  0  0  0
 20 44  1  0  0  0  0
 21 24  1  0  0  0  0
 21 45  1  0  0  0  0
 22 25  1  0  0  0  0
 23 26  1  0  0  0  0
 23 27  1  0  0  0  0
 25 28  2  0  0  0  0
 25 26  1  0  0  0  0
 26 29  2  0  0  0  0
 27 46  1  0  0  0  0
 27 47  1  0  0  0  0
 27 48  1  0  0  0  0
 28 30  1  0  0  0  0
 28 49  1  0  0  0  0
 29 31  1  0  0  0  0
 29 50  1  0  0  0  0
 30 31  2  0  0  0  0
 30 51  1  0  0  0  0
 31 52  1  0  0  0  0
M  END
>  <Molecule Name>
CTX-1020739

>  <SMILES>
CC1=C(OC2=C1C=CC=C2)C(=O)N1CCC2=C(C1)C=C(S2)C(=O)NCC1=CC=NC=C1

>  <Batch Name>
CTX-1020739-1

>  <Batch Created Date>
2021-12-16

>  <Batch ID>
CTX-1020739-1

>  <External ID>
P841-0354

>  <Stereochemistry>
Achiral

>  <Amount 1>
3.85

>  <Unit 1>
mg

>  <CRO 1>
Pharmaron

>  <CRO 1 Total Amount>
27.55

>  <CRO 1 Unit>
mg

>  <Pharmaron Solubility (PBS, pH 7.4): Aqueous Solubility - Batch Mean (uM)>
13.2512

>  <Pharmaron Solubility (PBS, pH 7.4): Aqueous Solubility - Batch Mean (uM) Standard Deviation (±)>


>  <Pharmaron Solubility (PBS, pH 7.4): Aqueous Solubility - Batch Mean (uM) Count>
1.0

>  <log P>
3.25

>  <log D>
3.25

>  <Pharmaron Caliper Assay (CDK2/CCNE1): Minimum measured (%)>
39.8

>  <Pharmaron Caliper Assay (CDK2/CCNE1): IC50 - Batch Mean (uM)>
8.89

>  <Pharmaron ADPGLO (CDK2/E1-25C): Minimum measured (%)>
46.7

>  <Pharmaron ADPGLO (CDK2/E1-25C): IC50 - Batch Mean (uM)>
4.71

>  <Pharmaron ADPGLO (CDK2/E1-37C): Minimum measured (%)>
109.0

>  <Pharmaron ADPGLO (CDK2/E1-37C): IC50 - Batch Mean (uM)>
100

>  <IncuCyte Kuramochi RB-WT: IC50 - Batch Mean (uM)>
20.0

>  <IncuCyte Kuramochi RB-KO: IC50 - Batch Mean (uM)>
20.0

>  <DSF (npCDK2/CCNE1): dTm D - Batch Mean [Concentration: 100]>


>  <DSF (npCDK2/CCNE1): dTm D - Batch Mean [Concentration: 20.0]>
2.074

>  <DSF (pCDK2/CCNE1): dTm D - Batch Mean [Concentration: 100]>


>  <DSF (pCDK2/CCNE1): dTm D - Batch Mean [Concentration: 20.0]>
0.312

>  <RLM: t1/2 - Batch Mean (Min)>


>  <RLM: Cl int - Batch Mean (uL/min/mg protein)>


>  <RLM: ER (Hepatic extraction ratio) - Batch Mean>


>  <HLM: t1/2 - Batch Mean (Min)>


>  <HLM: Cl int - Batch Mean (uL/min/mg protein)>


>  <HLM: ER (Hepatic extraction ratio) - Batch Mean>


>  <MDCK-WT 4% BSA: Papp (A-B) - Batch Mean (10-6, cm/s)>


>  <MDCK-WT 4% BSA: Papp (B-A) - Batch Mean (10-6, cm/s)>


>  <MDCK-WT 4% BSA: Efflux Ratio - Batch Mean>


>  <MDCK-WT 4% BSA: ~Net A_B - Batch Mean (10-6, cm/s)>


>  <pIC50>
5.051098

>  <Selection_1>
Y

>  <Selection_N>
N

>  <Serie>
Tetrahydrothienopyridine

>  <Selection_T>


>  <Train_Vs_Test>


$$$$
CTX-1020735
 OpenBabel08272613263D

 72 77  0  0  0  0  0  0  0  0999 V2000
    1.8265   -0.7024    0.0004 S   0  0  0  0  0  0  0  0  0  0  0  0
    2.1285    0.9800    0.0724 C   0  0  0  0  0  0  0  0  0  0  0  0
    0.1442   -0.4564   -0.0430 C   0  0  0  0  0  0  0  0  0  0  0  0
    3.4571    1.5635    0.2079 C   0  0  0  0  0  0  0  0  0  0  0  0
    0.9466    1.7018    0.0148 C   0  0  0  0  0  0  0  0  0  0  0  0
   -0.2129    0.8786   -0.0406 C   0  0  0  0  0  0  0  0  0  0  0  0
   -0.8479   -1.5718   -0.0823 C   0  0  0  0  0  0  0  0  0  0  0  0
    3.6239    2.7868    0.2858 O   0  0  0  0  0  0  0  0  0  0  0  0
    4.5441    0.7076    0.2636 N   0  0  0  0  0  0  0  0  0  0  0  0
   -1.6417    1.3568   -0.0466 C   0  0  0  0  0  0  0  0  0  0  0  0
   -2.2151   -1.0251    0.3598 C   0  0  0  0  0  0  0  0  0  0  0  0
    5.8803    1.2574    0.4138 C   0  0  0  0  0  0  0  0  0  0  0  0
   -2.5354    0.2340   -0.3437 N   0  0  0  0  0  0  0  0  0  0  0  0
    6.8980    0.1284    0.4136 C   0  0  2  0  0  0  0  0  0  0  0  0
   -3.4795    0.3926   -1.3646 C   0  0  0  0  0  0  0  0  0  0  0  0
    6.9344   -0.9196    1.5601 C   0  0  0  0  0  0  0  0  0  0  0  0
    8.3558    0.4823    0.8431 C   0  0  0  0  0  0  0  0  0  0  0  0
   -3.5165    1.4256   -2.0321 O   0  0  0  0  0  0  0  0  0  0  0  0
   -4.4086   -0.6977   -1.6267 C   0  0  0  0  0  0  0  0  0  0  0  0
    8.4929   -0.9622    1.4441 C   0  0  2  0  0  0  0  0  0  0  0  0
   -4.8750   -1.4377   -0.5744 O   0  0  0  0  0  0  0  0  0  0  0  0
   -5.0148   -1.1310   -2.8022 C   0  0  0  0  0  0  0  0  0  0  0  0
    8.9635   -1.8761    0.3761 N   0  3  2  0  0  0  0  0  0  0  0  0
   -5.6985   -2.3910   -1.0663 C   0  0  0  0  0  0  0  0  0  0  0  0
   -5.8593   -2.2257   -2.4324 C   0  0  0  0  0  0  0  0  0  0  0  0
   -4.8226   -0.5968   -4.1751 C   0  0  0  0  0  0  0  0  0  0  0  0
    8.7052   -3.3082    0.6451 C   0  0  0  0  0  0  0  0  0  0  0  0
   10.4249   -1.7274    0.1544 C   0  0  0  0  0  0  0  0  0  0  0  0
   -6.3022   -3.3913   -0.3105 C   0  0  0  0  0  0  0  0  0  0  0  0
   -6.7361   -3.0956   -3.1044 C   0  0  0  0  0  0  0  0  0  0  0  0
    9.6057   -3.9988    1.6972 C   0  0  0  0  0  0  0  0  0  0  0  0
   11.3659   -2.4148    1.1807 C   0  0  0  0  0  0  0  0  0  0  0  0
   -7.1617   -4.2506   -0.9977 C   0  0  0  0  0  0  0  0  0  0  0  0
   -7.3861   -4.0988   -2.3687 C   0  0  0  0  0  0  0  0  0  0  0  0
   11.0458   -3.8255    1.4516 N   0  3  1  0  0  0  0  0  0  0  0  0
   11.8204   -4.3269    2.5907 C   0  0  0  0  0  0  0  0  0  0  0  0
    0.9110    2.7332    0.0123 H   0  0  0  0  0  0  0  0  0  0  0  0
   -0.5397   -2.3523    0.5815 H   0  0  0  0  0  0  0  0  0  0  0  0
   -0.9149   -1.9678   -1.0740 H   0  0  0  0  0  0  0  0  0  0  0  0
    4.4125   -0.2661    0.2020 H   0  0  0  0  0  0  0  0  0  0  0  0
   -1.7606    2.1136   -0.7936 H   0  0  0  0  0  0  0  0  0  0  0  0
   -1.8852    1.7598    0.9141 H   0  0  0  0  0  0  0  0  0  0  0  0
   -2.1941   -0.8413    1.4137 H   0  0  0  0  0  0  0  0  0  0  0  0
   -2.9652   -1.7494    0.1200 H   0  0  0  0  0  0  0  0  0  0  0  0
    5.9432    1.7936    1.3376 H   0  0  0  0  0  0  0  0  0  0  0  0
    6.0853    1.9214   -0.3999 H   0  0  0  0  0  0  0  0  0  0  0  0
    6.6162   -0.1602   -0.5775 H   0  0  0  0  0  0  0  0  0  0  0  0
    6.4507   -1.8448    1.3257 H   0  0  0  0  0  0  0  0  0  0  0  0
    6.4600   -0.7218    2.4986 H   0  0  0  0  0  0  0  0  0  0  0  0
    8.4247    1.2692    1.5649 H   0  0  0  0  0  0  0  0  0  0  0  0
    9.0653    0.8552    0.1342 H   0  0  0  0  0  0  0  0  0  0  0  0
    9.1120   -1.2290    2.2750 H   0  0  0  0  0  0  0  0  0  0  0  0
    8.4264   -1.6018   -0.4464 H   0  0  0  0  0  0  0  0  0  0  0  0
   -4.1345    0.2221   -4.1460 H   0  0  0  0  0  0  0  0  0  0  0  0
   -5.7618   -0.2599   -4.5614 H   0  0  0  0  0  0  0  0  0  0  0  0
   -4.4331   -1.3678   -4.8065 H   0  0  0  0  0  0  0  0  0  0  0  0
    8.8237   -3.8365   -0.2779 H   0  0  0  0  0  0  0  0  0  0  0  0
    7.7192   -3.3398    1.0594 H   0  0  0  0  0  0  0  0  0  0  0  0
   10.6479   -0.6809    0.1620 H   0  0  0  0  0  0  0  0  0  0  0  0
   10.6173   -2.2221   -0.7747 H   0  0  0  0  0  0  0  0  0  0  0  0
   -6.1246   -3.4923    0.7011 H   0  0  0  0  0  0  0  0  0  0  0  0
   -6.8985   -2.9983   -4.1189 H   0  0  0  0  0  0  0  0  0  0  0  0
    9.3864   -5.0461    1.6936 H   0  0  0  0  0  0  0  0  0  0  0  0
    9.3927   -3.5391    2.6397 H   0  0  0  0  0  0  0  0  0  0  0  0
   11.3059   -1.8753    2.1029 H   0  0  0  0  0  0  0  0  0  0  0  0
   12.3460   -2.4017    0.7518 H   0  0  0  0  0  0  0  0  0  0  0  0
   -7.6385   -5.0092   -0.4855 H   0  0  0  0  0  0  0  0  0  0  0  0
   -8.0413   -4.7354   -2.8487 H   0  0  0  0  0  0  0  0  0  0  0  0
   11.2990   -4.3676    0.6255 H   0  0  0  0  0  0  0  0  0  0  0  0
   11.5671   -3.7687    3.4677 H   0  0  0  0  0  0  0  0  0  0  0  0
   12.8652   -4.2173    2.3874 H   0  0  0  0  0  0  0  0  0  0  0  0
   11.5943   -5.3608    2.7483 H   0  0  0  0  0  0  0  0  0  0  0  0
  1  2  1  0  0  0  0
  1  3  1  0  0  0  0
  2  4  1  0  0  0  0
  2  5  2  0  0  0  0
  3  6  2  0  0  0  0
  3  7  1  0  0  0  0
  4  8  2  0  0  0  0
  4  9  1  0  0  0  0
  5  6  1  0  0  0  0
  5 37  1  0  0  0  0
  6 10  1  0  0  0  0
  7 11  1  0  0  0  0
  7 38  1  0  0  0  0
  7 39  1  0  0  0  0
  9 12  1  0  0  0  0
  9 40  1  0  0  0  0
 10 13  1  0  0  0  0
 10 41  1  0  0  0  0
 10 42  1  0  0  0  0
 11 13  1  0  0  0  0
 11 43  1  0  0  0  0
 11 44  1  0  0  0  0
 12 14  1  0  0  0  0
 12 45  1  0  0  0  0
 12 46  1  0  0  0  0
 13 15  1  0  0  0  0
 14 16  1  0  0  0  0
 14 17  1  0  0  0  0
 14 47  1  6  0  0  0
 15 18  2  0  0  0  0
 15 19  1  0  0  0  0
 16 20  1  0  0  0  0
 16 48  1  0  0  0  0
 16 49  1  0  0  0  0
 17 20  1  0  0  0  0
 17 50  1  0  0  0  0
 17 51  1  0  0  0  0
 19 21  1  0  0  0  0
 19 22  2  0  0  0  0
 20 23  1  0  0  0  0
 20 52  1  1  0  0  0
 21 24  1  0  0  0  0
 22 25  1  0  0  0  0
 22 26  1  0  0  0  0
 23 27  1  0  0  0  0
 23 28  1  0  0  0  0
 23 53  1  6  0  0  0
 24 29  2  0  0  0  0
 24 25  1  0  0  0  0
 25 30  2  0  0  0  0
 26 54  1  0  0  0  0
 26 55  1  0  0  0  0
 26 56  1  0  0  0  0
 27 31  1  0  0  0  0
 27 57  1  0  0  0  0
 27 58  1  0  0  0  0
 28 32  1  0  0  0  0
 28 59  1  0  0  0  0
 28 60  1  0  0  0  0
 29 33  1  0  0  0  0
 29 61  1  0  0  0  0
 30 34  1  0  0  0  0
 30 62  1  0  0  0  0
 31 35  1  0  0  0  0
 31 63  1  0  0  0  0
 31 64  1  0  0  0  0
 32 35  1  0  0  0  0
 32 65  1  0  0  0  0
 32 66  1  0  0  0  0
 33 34  2  0  0  0  0
 33 67  1  0  0  0  0
 34 68  1  0  0  0  0
 35 36  1  0  0  0  0
 35 69  1  6  0  0  0
 36 70  1  0  0  0  0
 36 71  1  0  0  0  0
 36 72  1  0  0  0  0
M  CHG  2  23   1  35   1
M  END
>  <Molecule Name>
CTX-1020735

>  <SMILES>
CN1CCN(CC1)C1CC(CNC(=O)C2=CC3=C(CCN(C3)C(=O)C3=C(C)C4=C(O3)C=CC=C4)S2)C1

>  <Batch Name>
CTX-1020735-1

>  <Batch Created Date>
2021-12-16

>  <Batch ID>
CTX-1020735-1

>  <External ID>
CD-44-M

>  <Stereochemistry>
Achiral

>  <Amount 1>
13.8

>  <Unit 1>
mg

>  <CRO 1>
Pharmaron

>  <CRO 1 Total Amount>
21.4

>  <CRO 1 Unit>
mg

>  <Pharmaron Solubility (PBS, pH 7.4): Aqueous Solubility - Batch Mean (uM)>
276.7241

>  <Pharmaron Solubility (PBS, pH 7.4): Aqueous Solubility - Batch Mean (uM) Standard Deviation (±)>


>  <Pharmaron Solubility (PBS, pH 7.4): Aqueous Solubility - Batch Mean (uM) Count>
1.0

>  <log P>
3.14

>  <log D>
2.19

>  <Pharmaron Caliper Assay (CDK2/CCNE1): Minimum measured (%)>
70.3

>  <Pharmaron Caliper Assay (CDK2/CCNE1): IC50 - Batch Mean (uM)>
41.6

>  <Pharmaron ADPGLO (CDK2/E1-25C): Minimum measured (%)>


>  <Pharmaron ADPGLO (CDK2/E1-25C): IC50 - Batch Mean (uM)>


>  <Pharmaron ADPGLO (CDK2/E1-37C): Minimum measured (%)>


>  <Pharmaron ADPGLO (CDK2/E1-37C): IC50 - Batch Mean (uM)>


>  <IncuCyte Kuramochi RB-WT: IC50 - Batch Mean (uM)>
13.0

>  <IncuCyte Kuramochi RB-KO: IC50 - Batch Mean (uM)>
10.8

>  <DSF (npCDK2/CCNE1): dTm D - Batch Mean [Concentration: 100]>


>  <DSF (npCDK2/CCNE1): dTm D - Batch Mean [Concentration: 20.0]>
-0.134

>  <DSF (pCDK2/CCNE1): dTm D - Batch Mean [Concentration: 100]>


>  <DSF (pCDK2/CCNE1): dTm D - Batch Mean [Concentration: 20.0]>


>  <RLM: t1/2 - Batch Mean (Min)>


>  <RLM: Cl int - Batch Mean (uL/min/mg protein)>


>  <RLM: ER (Hepatic extraction ratio) - Batch Mean>


>  <HLM: t1/2 - Batch Mean (Min)>


>  <HLM: Cl int - Batch Mean (uL/min/mg protein)>


>  <HLM: ER (Hepatic extraction ratio) - Batch Mean>


>  <MDCK-WT 4% BSA: Papp (A-B) - Batch Mean (10-6, cm/s)>


>  <MDCK-WT 4% BSA: Papp (B-A) - Batch Mean (10-6, cm/s)>


>  <MDCK-WT 4% BSA: Efflux Ratio - Batch Mean>


>  <MDCK-WT 4% BSA: ~Net A_B - Batch Mean (10-6, cm/s)>


>  <pIC50>
4.380907

>  <Selection_1>
Y

>  <Selection_N>
N

>  <Serie>
Tetrahydrothienopyridine

>  <Selection_T>


>  <Train_Vs_Test>


$$$$
CTX-1020734
 OpenBabel08272613263D

 64 70  0  0  0  0  0  0  0  0999 V2000
    2.4859   -0.4913    1.8181 Cl  0  0  0  0  0  0  0  0  0  0  0  0
    3.6447   -0.5748    0.5489 C   0  0  0  0  0  0  0  0  0  0  0  0
    4.3175   -1.7871    0.1679 C   0  0  0  0  0  0  0  0  0  0  0  0
    4.0077    0.7028   -0.2142 C   0  0  0  0  0  0  0  0  0  0  0  0
    5.1314   -1.4701   -1.2953 S   0  0  0  0  0  0  0  0  0  0  0  0
    4.5383   -3.2018    0.8185 C   0  0  0  0  0  0  0  0  0  0  0  0
    4.8690    0.2416   -1.2283 C   0  0  0  0  0  0  0  0  0  0  0  0
    3.7384    2.2144   -0.1651 C   0  0  0  0  0  0  0  0  0  0  0  0
    4.6208   -3.3324    2.0326 O   0  0  0  0  0  0  0  0  0  0  0  0
    4.3943   -4.4413    0.0110 N   0  0  0  0  0  0  0  0  0  0  0  0
    5.4845    1.1179   -2.1213 C   0  0  0  0  0  0  0  0  0  0  0  0
    4.4513    3.0633   -1.0446 C   0  0  0  0  0  0  0  0  0  0  0  0
    5.1438   -5.9587    0.2123 C   0  0  0  0  0  0  0  0  0  0  0  0
    2.9930   -4.4211   -0.3170 C   0  0  0  0  0  0  0  0  0  0  0  0
    5.2868    2.4808   -1.9690 C   0  0  0  0  0  0  0  0  0  0  0  0
    4.2244   -7.2933   -0.0678 C   0  0  0  0  0  0  0  0  0  0  0  0
    2.2656   -5.7230   -0.2001 C   0  0  0  0  0  0  0  0  0  0  0  0
    2.9421   -7.0149   -0.4197 C   0  0  0  0  0  0  0  0  0  0  0  0
    4.1565   -8.8350    0.0373 C   0  0  0  0  0  0  0  0  0  0  0  0
    2.1628   -8.1815   -1.3351 S   0  0  0  0  0  0  0  0  0  0  0  0
    2.8451   -9.3494   -0.2850 C   0  0  0  0  0  0  0  0  0  0  0  0
    1.8494  -10.4371   -0.0910 C   0  0  0  0  0  0  0  0  0  0  0  0
    0.9128  -10.6689   -0.8820 O   0  0  0  0  0  0  0  0  0  0  0  0
    1.8139  -11.2096    1.0542 N   0  0  0  0  0  0  0  0  0  0  0  0
    2.9831  -11.7445    1.6634 C   0  0  0  0  0  0  0  0  0  0  0  0
    3.7322  -12.6355    0.6882 C   0  0  0  0  0  0  0  0  0  0  0  0
    3.2127  -13.1168   -0.5094 C   0  0  0  0  0  0  0  0  0  0  0  0
    5.0447  -13.0178    1.0329 C   0  0  0  0  0  0  0  0  0  0  0  0
    3.9496  -13.8376   -1.3983 C   0  0  0  0  0  0  0  0  0  0  0  0
    5.8183  -13.7544    0.1484 C   0  0  0  0  0  0  0  0  0  0  0  0
    5.2599  -14.2466   -1.0725 C   0  0  0  0  0  0  0  0  0  0  0  0
    6.0119  -15.0205   -1.9607 N   0  0  0  0  0  0  0  0  0  0  0  0
    5.5075  -15.8537   -3.0197 C   0  0  0  0  0  0  0  0  0  0  0  0
    7.1431  -15.8631   -1.6756 C   0  0  0  0  0  0  0  0  0  0  0  0
    6.4982  -16.8863   -2.5554 C   0  0  0  0  0  0  0  0  0  0  0  0
    5.9355  -18.1391   -1.9653 C   0  0  0  0  0  0  0  0  0  0  0  0
    7.2243  -17.6782   -3.5931 C   0  0  0  0  0  0  0  0  0  0  0  0
    6.1930  -18.7922   -3.3350 O   0  0  0  0  0  0  0  0  0  0  0  0
    3.0498    2.6039    0.4975 H   0  0  0  0  0  0  0  0  0  0  0  0
    6.0783    0.7568   -2.8843 H   0  0  0  0  0  0  0  0  0  0  0  0
    4.3474    4.0888   -0.9939 H   0  0  0  0  0  0  0  0  0  0  0  0
    5.4925   -6.0142    1.2224 H   0  0  0  0  0  0  0  0  0  0  0  0
    5.9098   -5.9895   -0.5340 H   0  0  0  0  0  0  0  0  0  0  0  0
    2.8999   -4.0854   -1.3287 H   0  0  0  0  0  0  0  0  0  0  0  0
    2.5401   -3.7756    0.4064 H   0  0  0  0  0  0  0  0  0  0  0  0
    5.8084    3.1093   -2.5998 H   0  0  0  0  0  0  0  0  0  0  0  0
    1.4612   -5.6818   -0.9045 H   0  0  0  0  0  0  0  0  0  0  0  0
    2.0375   -5.7618    0.8446 H   0  0  0  0  0  0  0  0  0  0  0  0
    4.9565   -9.4285    0.3068 H   0  0  0  0  0  0  0  0  0  0  0  0
    0.9404  -11.3983    1.4672 H   0  0  0  0  0  0  0  0  0  0  0  0
    2.7016  -12.3196    2.5206 H   0  0  0  0  0  0  0  0  0  0  0  0
    3.6218  -10.9367    1.9539 H   0  0  0  0  0  0  0  0  0  0  0  0
    2.2250  -12.9186   -0.7336 H   0  0  0  0  0  0  0  0  0  0  0  0
    5.4327  -12.7475    1.9502 H   0  0  0  0  0  0  0  0  0  0  0  0
    3.5476  -14.0862   -2.3156 H   0  0  0  0  0  0  0  0  0  0  0  0
    6.8064  -13.9492    0.3735 H   0  0  0  0  0  0  0  0  0  0  0  0
    5.6781  -15.4787   -4.0072 H   0  0  0  0  0  0  0  0  0  0  0  0
    4.4654  -16.0707   -3.1283 H   0  0  0  0  0  0  0  0  0  0  0  0
    7.2409  -16.1510   -0.6497 H   0  0  0  0  0  0  0  0  0  0  0  0
    8.1496  -15.5344   -1.8298 H   0  0  0  0  0  0  0  0  0  0  0  0
    4.9053  -18.0794   -1.6823 H   0  0  0  0  0  0  0  0  0  0  0  0
    6.3096  -18.5583   -1.0546 H   0  0  0  0  0  0  0  0  0  0  0  0
    8.2327  -17.9320   -3.3407 H   0  0  0  0  0  0  0  0  0  0  0  0
    7.4149  -17.2939   -4.5733 H   0  0  0  0  0  0  0  0  0  0  0  0
  1  2  1  0  0  0  0
  2  3  2  0  0  0  0
  2  4  1  0  0  0  0
  3  5  1  0  0  0  0
  3  6  1  0  0  0  0
  4  7  2  0  0  0  0
  4  8  1  0  0  0  0
  5  7  1  0  0  0  0
  6  9  2  0  0  0  0
  6 10  1  0  0  0  0
  7 11  1  0  0  0  0
  8 12  2  0  0  0  0
  8 39  1  0  0  0  0
 10 13  1  0  0  0  0
 10 14  1  0  0  0  0
 11 15  2  0  0  0  0
 11 40  1  0  0  0  0
 12 15  1  0  0  0  0
 12 41  1  0  0  0  0
 13 16  1  0  0  0  0
 13 42  1  0  0  0  0
 13 43  1  0  0  0  0
 14 17  1  0  0  0  0
 14 44  1  0  0  0  0
 14 45  1  0  0  0  0
 15 46  1  0  0  0  0
 16 18  2  0  0  0  0
 16 19  1  0  0  0  0
 17 18  1  0  0  0  0
 17 47  1  0  0  0  0
 17 48  1  0  0  0  0
 18 20  1  0  0  0  0
 19 21  2  0  0  0  0
 19 49  1  0  0  0  0
 20 21  1  0  0  0  0
 21 22  1  0  0  0  0
 22 23  2  0  0  0  0
 22 24  1  0  0  0  0
 24 25  1  0  0  0  0
 24 50  1  0  0  0  0
 25 26  1  0  0  0  0
 25 51  1  0  0  0  0
 25 52  1  0  0  0  0
 26 27  2  0  0  0  0
 26 28  1  0  0  0  0
 27 29  1  0  0  0  0
 27 53  1  0  0  0  0
 28 30  2  0  0  0  0
 28 54  1  0  0  0  0
 29 31  2  0  0  0  0
 29 55  1  0  0  0  0
 30 31  1  0  0  0  0
 30 56  1  0  0  0  0
 31 32  1  0  0  0  0
 32 33  1  0  0  0  0
 32 34  1  0  0  0  0
 33 35  1  0  0  0  0
 33 57  1  0  0  0  0
 33 58  1  0  0  0  0
 34 35  1  0  0  0  0
 34 59  1  0  0  0  0
 34 60  1  0  0  0  0
 35 36  1  0  0  0  0
 35 37  1  0  0  0  0
 36 38  1  0  0  0  0
 36 61  1  0  0  0  0
 36 62  1  0  0  0  0
 37 38  1  0  0  0  0
 37 63  1  0  0  0  0
 37 64  1  0  0  0  0
M  END
>  <Molecule Name>
CTX-1020734

>  <SMILES>
ClC1=C(SC2=CC=CC=C12)C(=O)N1CCC2=C(C1)C=C(S2)C(=O)NCC1=CC=C(C=C1)N1CC2(COC2)C1

>  <Batch Name>
CTX-1020734-1

>  <Batch Created Date>
2021-12-16

>  <Batch ID>
CTX-1020734-1

>  <External ID>
CD-44-2-O

>  <Stereochemistry>
Achiral

>  <Amount 1>
6.5

>  <Unit 1>
mg

>  <CRO 1>
Pharmaron

>  <CRO 1 Total Amount>
22.1

>  <CRO 1 Unit>
mg

>  <Pharmaron Solubility (PBS, pH 7.4): Aqueous Solubility - Batch Mean (uM)>
0.0024

>  <Pharmaron Solubility (PBS, pH 7.4): Aqueous Solubility - Batch Mean (uM) Standard Deviation (±)>


>  <Pharmaron Solubility (PBS, pH 7.4): Aqueous Solubility - Batch Mean (uM) Count>
1.0

>  <log P>
5.06

>  <log D>
5.06

>  <Pharmaron Caliper Assay (CDK2/CCNE1): Minimum measured (%)>
59.3

>  <Pharmaron Caliper Assay (CDK2/CCNE1): IC50 - Batch Mean (uM)>
0.788

>  <Pharmaron ADPGLO (CDK2/E1-25C): Minimum measured (%)>


>  <Pharmaron ADPGLO (CDK2/E1-25C): IC50 - Batch Mean (uM)>


>  <Pharmaron ADPGLO (CDK2/E1-37C): Minimum measured (%)>


>  <Pharmaron ADPGLO (CDK2/E1-37C): IC50 - Batch Mean (uM)>


>  <IncuCyte Kuramochi RB-WT: IC50 - Batch Mean (uM)>
20.0

>  <IncuCyte Kuramochi RB-KO: IC50 - Batch Mean (uM)>
20.0

>  <DSF (npCDK2/CCNE1): dTm D - Batch Mean [Concentration: 100]>


>  <DSF (npCDK2/CCNE1): dTm D - Batch Mean [Concentration: 20.0]>
1.906

>  <DSF (pCDK2/CCNE1): dTm D - Batch Mean [Concentration: 100]>


>  <DSF (pCDK2/CCNE1): dTm D - Batch Mean [Concentration: 20.0]>


>  <RLM: t1/2 - Batch Mean (Min)>


>  <RLM: Cl int - Batch Mean (uL/min/mg protein)>


>  <RLM: ER (Hepatic extraction ratio) - Batch Mean>


>  <HLM: t1/2 - Batch Mean (Min)>


>  <HLM: Cl int - Batch Mean (uL/min/mg protein)>


>  <HLM: ER (Hepatic extraction ratio) - Batch Mean>


>  <MDCK-WT 4% BSA: Papp (A-B) - Batch Mean (10-6, cm/s)>


>  <MDCK-WT 4% BSA: Papp (B-A) - Batch Mean (10-6, cm/s)>


>  <MDCK-WT 4% BSA: Efflux Ratio - Batch Mean>


>  <MDCK-WT 4% BSA: ~Net A_B - Batch Mean (10-6, cm/s)>


>  <pIC50>
6.103474

>  <Selection_1>
Y

>  <Selection_N>
N

>  <Serie>
Tetrahydrothienopyridine

>  <Selection_T>


>  <Train_Vs_Test>


$$$$
CTX-1020733
 OpenBabel08272613263D

 49 53  0  0  0  0  0  0  0  0999 V2000
    7.3430   -2.3196   -0.4493 Cl  0  0  0  0  0  0  0  0  0  0  0  0
    5.9560   -1.3360   -0.4033 C   0  0  0  0  0  0  0  0  0  0  0  0
    4.7000   -1.8229   -0.2073 C   0  0  0  0  0  0  0  0  0  0  0  0
    5.9972    0.0991   -0.5959 C   0  0  0  0  0  0  0  0  0  0  0  0
    3.5442   -0.4948   -0.1798 S   0  0  0  0  0  0  0  0  0  0  0  0
    4.0898   -3.1381   -0.0407 C   0  0  0  0  0  0  0  0  0  0  0  0
    4.7253    0.6614   -0.5018 C   0  0  0  0  0  0  0  0  0  0  0  0
    7.0797    0.9849   -0.8618 C   0  0  0  0  0  0  0  0  0  0  0  0
    2.8681   -2.9577    0.2035 O   0  0  0  0  0  0  0  0  0  0  0  0
    4.8315   -4.5453   -0.0606 N   0  0  0  0  0  0  0  0  0  0  0  0
    4.4887    2.0288   -0.6599 C   0  0  0  0  0  0  0  0  0  0  0  0
    6.8596    2.3583   -1.0204 C   0  0  0  0  0  0  0  0  0  0  0  0
    5.6952   -6.2528   -0.0766 C   0  0  0  0  0  0  0  0  0  0  0  0
    3.4585   -4.9163   -0.0493 C   0  0  0  0  0  0  0  0  0  0  0  0
    5.5720    2.8570   -0.9170 C   0  0  0  0  0  0  0  0  0  0  0  0
    4.7035   -7.8080   -0.2422 C   0  0  0  0  0  0  0  0  0  0  0  0
    3.2888   -6.2228    0.3211 C   0  0  0  0  0  0  0  0  0  0  0  0
    3.4311   -7.4177   -0.2853 C   0  0  0  0  0  0  0  0  0  0  0  0
    4.3349   -9.2780   -0.1303 C   0  0  0  0  0  0  0  0  0  0  0  0
    2.1308   -8.1178   -0.8910 S   0  0  0  0  0  0  0  0  0  0  0  0
    2.8737   -9.4897   -0.1976 C   0  0  0  0  0  0  0  0  0  0  0  0
    1.7991  -10.4493    0.0256 C   0  0  0  0  0  0  0  0  0  0  0  0
    1.8760  -11.6528   -0.1836 O   0  0  0  0  0  0  0  0  0  0  0  0
    0.5629   -9.8553    0.3913 N   0  0  0  0  0  0  0  0  0  0  0  0
   -0.6023  -10.6611    0.5437 C   0  0  0  0  0  0  0  0  0  0  0  0
   -0.5929  -11.1489    1.9436 C   0  0  0  0  0  0  0  0  0  0  0  0
   -0.7058  -10.2481    3.0019 C   0  0  0  0  0  0  0  0  0  0  0  0
   -0.3999  -12.5013    2.1909 C   0  0  0  0  0  0  0  0  0  0  0  0
   -0.6841  -10.7565    4.2776 C   0  0  0  0  0  0  0  0  0  0  0  0
   -0.4543  -12.9156    3.4995 C   0  0  0  0  0  0  0  0  0  0  0  0
   -0.5902  -12.0753    4.5523 N   0  0  0  0  0  0  0  0  0  0  0  0
    8.0382    0.6100   -0.9385 H   0  0  0  0  0  0  0  0  0  0  0  0
    3.5336    2.4130   -0.5874 H   0  0  0  0  0  0  0  0  0  0  0  0
    7.6499    2.9934   -1.2128 H   0  0  0  0  0  0  0  0  0  0  0  0
    6.2362   -6.3310    0.8433 H   0  0  0  0  0  0  0  0  0  0  0  0
    6.2577   -6.2287   -0.9865 H   0  0  0  0  0  0  0  0  0  0  0  0
    3.0544   -4.7790   -1.0305 H   0  0  0  0  0  0  0  0  0  0  0  0
    2.9528   -4.2996    0.6641 H   0  0  0  0  0  0  0  0  0  0  0  0
    5.4140    3.8701   -1.0340 H   0  0  0  0  0  0  0  0  0  0  0  0
    2.2694   -6.2442    0.6453 H   0  0  0  0  0  0  0  0  0  0  0  0
    4.2140   -6.2841    0.8552 H   0  0  0  0  0  0  0  0  0  0  0  0
    5.0236  -10.0387   -0.0203 H   0  0  0  0  0  0  0  0  0  0  0  0
    0.5104   -8.8835    0.5402 H   0  0  0  0  0  0  0  0  0  0  0  0
   -0.5729  -11.4867   -0.1362 H   0  0  0  0  0  0  0  0  0  0  0  0
   -1.4906  -10.1029    0.3331 H   0  0  0  0  0  0  0  0  0  0  0  0
   -0.8023   -9.2347    2.8325 H   0  0  0  0  0  0  0  0  0  0  0  0
   -0.2228  -13.1680    1.4233 H   0  0  0  0  0  0  0  0  0  0  0  0
   -0.7427  -10.0956    5.0681 H   0  0  0  0  0  0  0  0  0  0  0  0
   -0.3875  -13.9274    3.6915 H   0  0  0  0  0  0  0  0  0  0  0  0
  1  2  1  0  0  0  0
  2  3  2  0  0  0  0
  2  4  1  0  0  0  0
  3  5  1  0  0  0  0
  3  6  1  0  0  0  0
  4  7  2  0  0  0  0
  4  8  1  0  0  0  0
  5  7  1  0  0  0  0
  6  9  2  0  0  0  0
  6 10  1  0  0  0  0
  7 11  1  0  0  0  0
  8 12  2  0  0  0  0
  8 32  1  0  0  0  0
 10 13  1  0  0  0  0
 10 14  1  0  0  0  0
 11 15  2  0  0  0  0
 11 33  1  0  0  0  0
 12 15  1  0  0  0  0
 12 34  1  0  0  0  0
 13 16  1  0  0  0  0
 13 35  1  0  0  0  0
 13 36  1  0  0  0  0
 14 17  1  0  0  0  0
 14 37  1  0  0  0  0
 14 38  1  0  0  0  0
 15 39  1  0  0  0  0
 16 18  2  0  0  0  0
 16 19  1  0  0  0  0
 17 18  1  0  0  0  0
 17 40  1  0  0  0  0
 17 41  1  0  0  0  0
 18 20  1  0  0  0  0
 19 21  2  0  0  0  0
 19 42  1  0  0  0  0
 20 21  1  0  0  0  0
 21 22  1  0  0  0  0
 22 23  2  0  0  0  0
 22 24  1  0  0  0  0
 24 25  1  0  0  0  0
 24 43  1  0  0  0  0
 25 26  1  0  0  0  0
 25 44  1  0  0  0  0
 25 45  1  0  0  0  0
 26 27  2  0  0  0  0
 26 28  1  0  0  0  0
 27 29  1  0  0  0  0
 27 46  1  0  0  0  0
 28 30  2  0  0  0  0
 28 47  1  0  0  0  0
 29 31  2  0  0  0  0
 29 48  1  0  0  0  0
 30 31  1  0  0  0  0
 30 49  1  0  0  0  0
M  END
>  <Molecule Name>
CTX-1020733

>  <SMILES>
ClC1=C(SC2=CC=CC=C12)C(=O)N1CCC2=C(C1)C=C(S2)C(=O)NCC1=CC=NC=C1

>  <Batch Name>
CTX-1020733-1

>  <Batch Created Date>
2021-12-16

>  <Batch ID>
CTX-1020733-1

>  <External ID>
CD-44-2-M

>  <Stereochemistry>
Achiral

>  <Amount 1>
2.7

>  <Unit 1>
mg

>  <CRO 1>
Pharmaron

>  <CRO 1 Total Amount>
18.1

>  <CRO 1 Unit>
mg

>  <Pharmaron Solubility (PBS, pH 7.4): Aqueous Solubility - Batch Mean (uM)>
0.408

>  <Pharmaron Solubility (PBS, pH 7.4): Aqueous Solubility - Batch Mean (uM) Standard Deviation (±)>


>  <Pharmaron Solubility (PBS, pH 7.4): Aqueous Solubility - Batch Mean (uM) Count>
1.0

>  <log P>
4.27

>  <log D>
4.27

>  <Pharmaron Caliper Assay (CDK2/CCNE1): Minimum measured (%)>
68.7

>  <Pharmaron Caliper Assay (CDK2/CCNE1): IC50 - Batch Mean (uM)>
5.36

>  <Pharmaron ADPGLO (CDK2/E1-25C): Minimum measured (%)>


>  <Pharmaron ADPGLO (CDK2/E1-25C): IC50 - Batch Mean (uM)>


>  <Pharmaron ADPGLO (CDK2/E1-37C): Minimum measured (%)>


>  <Pharmaron ADPGLO (CDK2/E1-37C): IC50 - Batch Mean (uM)>


>  <IncuCyte Kuramochi RB-WT: IC50 - Batch Mean (uM)>


>  <IncuCyte Kuramochi RB-KO: IC50 - Batch Mean (uM)>


>  <DSF (npCDK2/CCNE1): dTm D - Batch Mean [Concentration: 100]>


>  <DSF (npCDK2/CCNE1): dTm D - Batch Mean [Concentration: 20.0]>


>  <DSF (pCDK2/CCNE1): dTm D - Batch Mean [Concentration: 100]>


>  <DSF (pCDK2/CCNE1): dTm D - Batch Mean [Concentration: 20.0]>


>  <RLM: t1/2 - Batch Mean (Min)>


>  <RLM: Cl int - Batch Mean (uL/min/mg protein)>


>  <RLM: ER (Hepatic extraction ratio) - Batch Mean>


>  <HLM: t1/2 - Batch Mean (Min)>


>  <HLM: Cl int - Batch Mean (uL/min/mg protein)>


>  <HLM: ER (Hepatic extraction ratio) - Batch Mean>


>  <MDCK-WT 4% BSA: Papp (A-B) - Batch Mean (10-6, cm/s)>


>  <MDCK-WT 4% BSA: Papp (B-A) - Batch Mean (10-6, cm/s)>


>  <MDCK-WT 4% BSA: Efflux Ratio - Batch Mean>


>  <MDCK-WT 4% BSA: ~Net A_B - Batch Mean (10-6, cm/s)>


>  <pIC50>
5.270835

>  <Selection_1>
Y

>  <Selection_N>
N

>  <Serie>
Tetrahydrothienopyridine

>  <Selection_T>


>  <Train_Vs_Test>


$$$$
CTX-1020732
 OpenBabel08272613263D

 67 72  0  0  0  0  0  0  0  0999 V2000
    9.6876  -13.2813    2.3220 Cl  0  0  0  0  0  0  0  0  0  0  0  0
    9.9637  -11.7840    3.1258 C   0  0  0  0  0  0  0  0  0  0  0  0
    9.5622  -10.5230    2.6732 C   0  0  0  0  0  0  0  0  0  0  0  0
   10.6680  -11.7616    4.4153 C   0  0  0  0  0  0  0  0  0  0  0  0
    9.9744   -9.3420    3.8794 S   0  0  0  0  0  0  0  0  0  0  0  0
    8.8946  -10.0584    1.3888 C   0  0  0  0  0  0  0  0  0  0  0  0
   10.7042  -10.4643    4.9197 C   0  0  0  0  0  0  0  0  0  0  0  0
   11.2390  -12.7760    5.2574 C   0  0  0  0  0  0  0  0  0  0  0  0
    9.3820  -10.3000    0.2871 O   0  0  0  0  0  0  0  0  0  0  0  0
    7.6098   -9.4008    1.5040 N   0  0  0  0  0  0  0  0  0  0  0  0
   11.1999  -10.0974    6.1070 N   0  0  0  0  0  0  0  0  0  0  0  0
   11.8238  -12.4152    6.4607 C   0  0  0  0  0  0  0  0  0  0  0  0
    6.8873   -8.5146    0.4118 C   0  0  0  0  0  0  0  0  0  0  0  0
    6.7559  -10.2447    2.3078 C   0  0  0  0  0  0  0  0  0  0  0  0
   11.7587  -11.0956    6.8495 C   0  0  0  0  0  0  0  0  0  0  0  0
    5.3097   -8.5627    0.4887 C   0  0  0  0  0  0  0  0  0  0  0  0
    5.4662   -9.6414    2.7549 C   0  0  0  0  0  0  0  0  0  0  0  0
    4.7619   -8.9837    1.6727 C   0  0  0  0  0  0  0  0  0  0  0  0
    4.1519   -8.3663   -0.4130 C   0  0  0  0  0  0  0  0  0  0  0  0
    3.0829   -8.7668    1.8446 S   0  0  0  0  0  0  0  0  0  0  0  0
    2.9752   -8.8861    0.1535 C   0  0  0  0  0  0  0  0  0  0  0  0
    1.7928   -9.5894   -0.3391 C   0  0  0  0  0  0  0  0  0  0  0  0
    0.7380   -9.0524   -0.6650 O   0  0  0  0  0  0  0  0  0  0  0  0
    1.8672  -10.9781   -0.2983 N   0  0  0  0  0  0  0  0  0  0  0  0
    3.0322  -11.7822    0.0315 C   0  0  0  0  0  0  0  0  0  0  0  0
    3.0216  -13.0807   -0.7205 C   0  0  0  0  0  0  0  0  0  0  0  0
    3.4520  -13.1140   -2.0469 C   0  0  0  0  0  0  0  0  0  0  0  0
    2.5442  -14.2579   -0.1503 C   0  0  0  0  0  0  0  0  0  0  0  0
    3.4186  -14.3052   -2.7818 C   0  0  0  0  0  0  0  0  0  0  0  0
    2.4974  -15.4398   -0.9043 C   0  0  0  0  0  0  0  0  0  0  0  0
    2.9470  -15.5089   -2.2358 C   0  0  0  0  0  0  0  0  0  0  0  0
    2.8385  -16.6847   -2.9819 N   0  0  0  0  0  0  0  0  0  0  0  0
    3.3328  -16.7214   -4.3782 C   0  0  0  0  0  0  0  0  0  0  0  0
    3.0377  -17.9805   -2.2916 C   0  0  0  0  0  0  0  0  0  0  0  0
    2.7102  -17.9098   -5.1480 C   0  0  0  0  0  0  0  0  0  0  0  0
    2.3989  -19.1267   -3.1072 C   0  0  0  0  0  0  0  0  0  0  0  0
    2.9428  -19.2062   -4.4781 N   0  3  0  0  0  0  0  0  0  0  0  0
    2.3118  -20.2927   -5.2202 C   0  0  0  0  0  0  0  0  0  0  0  0
   11.2138  -13.7663    4.9681 H   0  0  0  0  0  0  0  0  0  0  0  0
   12.2963  -13.1178    7.0508 H   0  0  0  0  0  0  0  0  0  0  0  0
    7.1880   -8.8602   -0.5552 H   0  0  0  0  0  0  0  0  0  0  0  0
    7.1761   -7.5006    0.5941 H   0  0  0  0  0  0  0  0  0  0  0  0
    7.3049  -10.5266    3.1819 H   0  0  0  0  0  0  0  0  0  0  0  0
    6.4848  -11.0637    1.6748 H   0  0  0  0  0  0  0  0  0  0  0  0
   12.1608  -10.8447    7.7663 H   0  0  0  0  0  0  0  0  0  0  0  0
    5.6700   -8.9218    3.5202 H   0  0  0  0  0  0  0  0  0  0  0  0
    4.8434  -10.4322    3.1178 H   0  0  0  0  0  0  0  0  0  0  0  0
    4.2022   -7.9079   -1.3362 H   0  0  0  0  0  0  0  0  0  0  0  0
    1.0420  -11.4689   -0.5163 H   0  0  0  0  0  0  0  0  0  0  0  0
    3.0301  -11.9863    1.0818 H   0  0  0  0  0  0  0  0  0  0  0  0
    3.9108  -11.2369   -0.2435 H   0  0  0  0  0  0  0  0  0  0  0  0
    3.7993  -12.2501   -2.4919 H   0  0  0  0  0  0  0  0  0  0  0  0
    2.2236  -14.2608    0.8307 H   0  0  0  0  0  0  0  0  0  0  0  0
    3.7520  -14.2977   -3.7584 H   0  0  0  0  0  0  0  0  0  0  0  0
    2.1179  -16.2929   -0.4647 H   0  0  0  0  0  0  0  0  0  0  0  0
    4.3976  -16.8268   -4.3711 H   0  0  0  0  0  0  0  0  0  0  0  0
    3.0528  -15.8112   -4.8660 H   0  0  0  0  0  0  0  0  0  0  0  0
    2.5819  -17.9389   -1.3244 H   0  0  0  0  0  0  0  0  0  0  0  0
    4.0872  -18.1654   -2.1947 H   0  0  0  0  0  0  0  0  0  0  0  0
    3.1413  -17.9476   -6.1266 H   0  0  0  0  0  0  0  0  0  0  0  0
    1.6528  -17.7512   -5.1881 H   0  0  0  0  0  0  0  0  0  0  0  0
    1.3432  -18.9622   -3.1643 H   0  0  0  0  0  0  0  0  0  0  0  0
    2.6231  -20.0477   -2.6109 H   0  0  0  0  0  0  0  0  0  0  0  0
    3.9435  -19.4010   -4.4430 H   0  0  0  0  0  0  0  0  0  0  0  0
    1.2573  -20.1204   -5.2769 H   0  0  0  0  0  0  0  0  0  0  0  0
    2.4952  -21.2203   -4.7193 H   0  0  0  0  0  0  0  0  0  0  0  0
    2.7201  -20.3340   -6.2083 H   0  0  0  0  0  0  0  0  0  0  0  0
  1  2  1  0  0  0  0
  2  3  2  0  0  0  0
  2  4  1  0  0  0  0
  3  5  1  0  0  0  0
  3  6  1  0  0  0  0
  4  7  2  0  0  0  0
  4  8  1  0  0  0  0
  5  7  1  0  0  0  0
  6  9  2  0  0  0  0
  6 10  1  0  0  0  0
  7 11  1  0  0  0  0
  8 12  2  0  0  0  0
  8 39  1  0  0  0  0
 10 13  1  0  0  0  0
 10 14  1  0  0  0  0
 11 15  2  0  0  0  0
 12 15  1  0  0  0  0
 12 40  1  0  0  0  0
 13 16  1  0  0  0  0
 13 41  1  0  0  0  0
 13 42  1  0  0  0  0
 14 17  1  0  0  0  0
 14 43  1  0  0  0  0
 14 44  1  0  0  0  0
 15 45  1  0  0  0  0
 16 18  2  0  0  0  0
 16 19  1  0  0  0  0
 17 18  1  0  0  0  0
 17 46  1  0  0  0  0
 17 47  1  0  0  0  0
 18 20  1  0  0  0  0
 19 21  2  0  0  0  0
 19 48  1  0  0  0  0
 20 21  1  0  0  0  0
 21 22  1  0  0  0  0
 22 23  2  0  0  0  0
 22 24  1  0  0  0  0
 24 25  1  0  0  0  0
 24 49  1  0  0  0  0
 25 26  1  0  0  0  0
 25 50  1  0  0  0  0
 25 51  1  0  0  0  0
 26 27  2  0  0  0  0
 26 28  1  0  0  0  0
 27 29  1  0  0  0  0
 27 52  1  0  0  0  0
 28 30  2  0  0  0  0
 28 53  1  0  0  0  0
 29 31  2  0  0  0  0
 29 54  1  0  0  0  0
 30 31  1  0  0  0  0
 30 55  1  0  0  0  0
 31 32  1  0  0  0  0
 32 33  1  0  0  0  0
 32 34  1  0  0  0  0
 33 35  1  0  0  0  0
 33 56  1  0  0  0  0
 33 57  1  0  0  0  0
 34 36  1  0  0  0  0
 34 58  1  0  0  0  0
 34 59  1  0  0  0  0
 35 37  1  0  0  0  0
 35 60  1  0  0  0  0
 35 61  1  0  0  0  0
 36 37  1  0  0  0  0
 36 62  1  0  0  0  0
 36 63  1  0  0  0  0
 37 38  1  0  0  0  0
 37 64  1  0  0  0  0
 38 65  1  0  0  0  0
 38 66  1  0  0  0  0
 38 67  1  0  0  0  0
M  CHG  1  37   1
M  END
>  <Molecule Name>
CTX-1020732

>  <SMILES>
CN1CCN(CC1)C1=CC=C(CNC(=O)C2=CC3=C(CCN(C3)C(=O)C3=C(Cl)C4=CC=CN=C4S3)S2)C=C1

>  <Batch Name>
CTX-1020732-1

>  <Batch Created Date>
2021-12-16

>  <Batch ID>
CTX-1020732-1

>  <External ID>
CD-44-2-I

>  <Stereochemistry>
Achiral

>  <Amount 1>
18.9

>  <Unit 1>
mg

>  <CRO 1>
Pharmaron

>  <CRO 1 Total Amount>
32.2

>  <CRO 1 Unit>
mg

>  <Pharmaron Solubility (PBS, pH 7.4): Aqueous Solubility - Batch Mean (uM)>
26.0789

>  <Pharmaron Solubility (PBS, pH 7.4): Aqueous Solubility - Batch Mean (uM) Standard Deviation (±)>


>  <Pharmaron Solubility (PBS, pH 7.4): Aqueous Solubility - Batch Mean (uM) Count>
1.0

>  <log P>
4.6

>  <log D>
3.96

>  <Pharmaron Caliper Assay (CDK2/CCNE1): Minimum measured (%)>
32.8

>  <Pharmaron Caliper Assay (CDK2/CCNE1): IC50 - Batch Mean (uM)>
9.29

>  <Pharmaron ADPGLO (CDK2/E1-25C): Minimum measured (%)>


>  <Pharmaron ADPGLO (CDK2/E1-25C): IC50 - Batch Mean (uM)>


>  <Pharmaron ADPGLO (CDK2/E1-37C): Minimum measured (%)>


>  <Pharmaron ADPGLO (CDK2/E1-37C): IC50 - Batch Mean (uM)>


>  <IncuCyte Kuramochi RB-WT: IC50 - Batch Mean (uM)>
8.08

>  <IncuCyte Kuramochi RB-KO: IC50 - Batch Mean (uM)>
11.6

>  <DSF (npCDK2/CCNE1): dTm D - Batch Mean [Concentration: 100]>


>  <DSF (npCDK2/CCNE1): dTm D - Batch Mean [Concentration: 20.0]>
1.07

>  <DSF (pCDK2/CCNE1): dTm D - Batch Mean [Concentration: 100]>


>  <DSF (pCDK2/CCNE1): dTm D - Batch Mean [Concentration: 20.0]>


>  <RLM: t1/2 - Batch Mean (Min)>


>  <RLM: Cl int - Batch Mean (uL/min/mg protein)>


>  <RLM: ER (Hepatic extraction ratio) - Batch Mean>


>  <HLM: t1/2 - Batch Mean (Min)>


>  <HLM: Cl int - Batch Mean (uL/min/mg protein)>


>  <HLM: ER (Hepatic extraction ratio) - Batch Mean>


>  <MDCK-WT 4% BSA: Papp (A-B) - Batch Mean (10-6, cm/s)>


>  <MDCK-WT 4% BSA: Papp (B-A) - Batch Mean (10-6, cm/s)>


>  <MDCK-WT 4% BSA: Efflux Ratio - Batch Mean>


>  <MDCK-WT 4% BSA: ~Net A_B - Batch Mean (10-6, cm/s)>


>  <pIC50>
5.031984

>  <Selection_1>
Y

>  <Selection_N>
N

>  <Serie>
Tetrahydrothienopyridine

>  <Selection_T>


>  <Train_Vs_Test>


$$$$
CTX-1020726
 OpenBabel08272613263D

 55 60  0  0  0  0  0  0  0  0999 V2000
    2.0749   -1.2396    1.1687 O   0  0  0  0  0  0  0  0  0  0  0  0
    2.9906   -0.9802    0.3888 C   0  0  0  0  0  0  0  0  0  0  0  0
    3.5745   -1.9224   -0.4392 N   0  0  0  0  0  0  0  0  0  0  0  0
    3.5152    0.4840    0.3369 C   0  0  0  0  0  0  0  0  0  0  0  0
    3.2497   -3.2972   -0.5803 C   0  0  0  0  0  0  0  0  0  0  0  0
    4.5252    0.9098   -0.5055 N   0  0  0  0  0  0  0  0  0  0  0  0
    2.9055    1.3555    1.2437 C   0  0  0  0  0  0  0  0  0  0  0  0
    2.4253   -4.2204    0.0795 C   0  0  0  0  0  0  0  0  0  0  0  0
    3.8719   -4.0989   -1.5715 C   0  0  0  0  0  0  0  0  0  0  0  0
    4.9385    2.2554   -0.3968 C   0  0  0  0  0  0  0  0  0  0  0  0
    3.3508    2.6611    1.3600 C   0  0  0  0  0  0  0  0  0  0  0  0
    2.4925   -5.4245   -0.6679 N   0  0  0  0  0  0  0  0  0  0  0  0
    1.6012   -4.2838    1.2616 C   0  0  0  0  0  0  0  0  0  0  0  0
    3.3891   -5.3360   -1.6673 N   0  0  0  0  0  0  0  0  0  0  0  0
    4.4020    3.1261    0.5681 C   0  0  0  0  0  0  0  0  0  0  0  0
    6.0345    2.8307   -1.3456 C   0  0  0  0  0  0  0  0  0  0  0  0
    1.7447   -6.5626   -0.3464 C   0  0  0  0  0  0  0  0  0  0  0  0
    0.9534   -5.4238    1.5882 C   0  0  0  0  0  0  0  0  0  0  0  0
    4.8653    4.5521    0.7572 C   0  0  0  0  0  0  0  0  0  0  0  0
    6.2333    4.3090   -1.2519 N   0  0  0  0  0  0  0  0  0  0  0  0
    0.9784   -6.6084    0.7433 C   0  0  0  0  0  0  0  0  0  0  0  0
    6.1985    4.8495    0.0928 C   0  0  0  0  0  0  0  0  0  0  0  0
    6.8659    5.0447   -2.2831 C   0  0  0  0  0  0  0  0  0  0  0  0
    7.5677    4.4725   -3.1214 O   0  0  0  0  0  0  0  0  0  0  0  0
    6.4471    6.4586   -2.4329 C   0  0  0  0  0  0  0  0  0  0  0  0
    5.1923    6.7248   -1.9121 O   0  0  0  0  0  0  0  0  0  0  0  0
    6.6368    7.4011   -3.4550 C   0  0  0  0  0  0  0  0  0  0  0  0
    4.4760    7.1939   -2.9653 C   0  0  0  0  0  0  0  0  0  0  0  0
    5.3281    7.5208   -4.0091 C   0  0  0  0  0  0  0  0  0  0  0  0
    7.8336    8.1417   -3.9409 C   0  0  0  0  0  0  0  0  0  0  0  0
    3.0943    7.2625   -3.0074 C   0  0  0  0  0  0  0  0  0  0  0  0
    4.7620    7.9055   -5.2354 C   0  0  0  0  0  0  0  0  0  0  0  0
    2.5517    7.5715   -4.2531 C   0  0  0  0  0  0  0  0  0  0  0  0
    3.3659    7.8656   -5.3551 C   0  0  0  0  0  0  0  0  0  0  0  0
    4.3117   -1.5969   -1.0047 H   0  0  0  0  0  0  0  0  0  0  0  0
    2.1215    1.0250    1.8279 H   0  0  0  0  0  0  0  0  0  0  0  0
    4.6373   -3.7512   -2.1701 H   0  0  0  0  0  0  0  0  0  0  0  0
    2.9016    3.2962    2.0381 H   0  0  0  0  0  0  0  0  0  0  0  0
    1.5054   -3.4509    1.8634 H   0  0  0  0  0  0  0  0  0  0  0  0
    5.7597    2.5952   -2.3525 H   0  0  0  0  0  0  0  0  0  0  0  0
    6.9584    2.3834   -1.0437 H   0  0  0  0  0  0  0  0  0  0  0  0
    1.7876   -7.3858   -0.9673 H   0  0  0  0  0  0  0  0  0  0  0  0
    0.4202   -5.4557    2.4712 H   0  0  0  0  0  0  0  0  0  0  0  0
    4.9601    4.7411    1.8061 H   0  0  0  0  0  0  0  0  0  0  0  0
    4.1356    5.1839    0.2953 H   0  0  0  0  0  0  0  0  0  0  0  0
    0.4262   -7.4482    0.9778 H   0  0  0  0  0  0  0  0  0  0  0  0
    6.9844    4.4079    0.6692 H   0  0  0  0  0  0  0  0  0  0  0  0
    6.3274    5.9104    0.0402 H   0  0  0  0  0  0  0  0  0  0  0  0
    8.6849    7.8690   -3.3529 H   0  0  0  0  0  0  0  0  0  0  0  0
    7.6617    9.1941   -3.8530 H   0  0  0  0  0  0  0  0  0  0  0  0
    8.0142    7.8942   -4.9661 H   0  0  0  0  0  0  0  0  0  0  0  0
    2.5073    7.0965   -2.1749 H   0  0  0  0  0  0  0  0  0  0  0  0
    5.3553    8.2081   -6.0238 H   0  0  0  0  0  0  0  0  0  0  0  0
    1.5261    7.5841   -4.3668 H   0  0  0  0  0  0  0  0  0  0  0  0
    2.9300    8.0561   -6.2709 H   0  0  0  0  0  0  0  0  0  0  0  0
  1  2  2  0  0  0  0
  2  3  1  0  0  0  0
  2  4  1  0  0  0  0
  3  5  1  0  0  0  0
  3 35  1  0  0  0  0
  4  6  2  0  0  0  0
  4  7  1  0  0  0  0
  5  8  2  0  0  0  0
  5  9  1  0  0  0  0
  6 10  1  0  0  0  0
  7 11  2  0  0  0  0
  7 36  1  0  0  0  0
  8 12  1  0  0  0  0
  8 13  1  0  0  0  0
  9 14  2  0  0  0  0
  9 37  1  0  0  0  0
 10 15  2  0  0  0  0
 10 16  1  0  0  0  0
 11 15  1  0  0  0  0
 11 38  1  0  0  0  0
 12 17  1  0  0  0  0
 12 14  1  0  0  0  0
 13 18  2  0  0  0  0
 13 39  1  0  0  0  0
 15 19  1  0  0  0  0
 16 20  1  0  0  0  0
 16 40  1  0  0  0  0
 16 41  1  0  0  0  0
 17 21  2  0  0  0  0
 17 42  1  0  0  0  0
 18 21  1  0  0  0  0
 18 43  1  0  0  0  0
 19 22  1  0  0  0  0
 19 44  1  0  0  0  0
 19 45  1  0  0  0  0
 20 23  1  0  0  0  0
 20 22  1  0  0  0  0
 21 46  1  0  0  0  0
 22 47  1  0  0  0  0
 22 48  1  0  0  0  0
 23 24  2  0  0  0  0
 23 25  1  0  0  0  0
 25 26  1  0  0  0  0
 25 27  2  0  0  0  0
 26 28  1  0  0  0  0
 27 29  1  0  0  0  0
 27 30  1  0  0  0  0
 28 31  2  0  0  0  0
 28 29  1  0  0  0  0
 29 32  2  0  0  0  0
 30 49  1  0  0  0  0
 30 50  1  0  0  0  0
 30 51  1  0  0  0  0
 31 33  1  0  0  0  0
 31 52  1  0  0  0  0
 32 34  1  0  0  0  0
 32 53  1  0  0  0  0
 33 34  2  0  0  0  0
 33 54  1  0  0  0  0
 34 55  1  0  0  0  0
M  END
>  <Molecule Name>
CTX-1020726

>  <SMILES>
CC1=C(OC2=C1C=CC=C2)C(=O)N1CCC2=CC=C(N=C2C1)C(=O)NC1=C2C=CC=CN2N=C1

>  <Batch Name>
CTX-1020726-1

>  <Batch Created Date>
2021-12-16

>  <Batch ID>
CTX-1020726-1

>  <External ID>
CD-42-E

>  <Stereochemistry>
Achiral

>  <Amount 1>
3.3

>  <Unit 1>
mg

>  <CRO 1>
Pharmaron

>  <CRO 1 Total Amount>
17.6

>  <CRO 1 Unit>
mg

>  <Pharmaron Solubility (PBS, pH 7.4): Aqueous Solubility - Batch Mean (uM)>
0.0286

>  <Pharmaron Solubility (PBS, pH 7.4): Aqueous Solubility - Batch Mean (uM) Standard Deviation (±)>


>  <Pharmaron Solubility (PBS, pH 7.4): Aqueous Solubility - Batch Mean (uM) Count>
1.0

>  <log P>
3.5

>  <log D>
3.5

>  <Pharmaron Caliper Assay (CDK2/CCNE1): Minimum measured (%)>
73.5

>  <Pharmaron Caliper Assay (CDK2/CCNE1): IC50 - Batch Mean (uM)>
81.6

>  <Pharmaron ADPGLO (CDK2/E1-25C): Minimum measured (%)>


>  <Pharmaron ADPGLO (CDK2/E1-25C): IC50 - Batch Mean (uM)>


>  <Pharmaron ADPGLO (CDK2/E1-37C): Minimum measured (%)>


>  <Pharmaron ADPGLO (CDK2/E1-37C): IC50 - Batch Mean (uM)>


>  <IncuCyte Kuramochi RB-WT: IC50 - Batch Mean (uM)>
20.0

>  <IncuCyte Kuramochi RB-KO: IC50 - Batch Mean (uM)>
20.0

>  <DSF (npCDK2/CCNE1): dTm D - Batch Mean [Concentration: 100]>


>  <DSF (npCDK2/CCNE1): dTm D - Batch Mean [Concentration: 20.0]>
-0.033

>  <DSF (pCDK2/CCNE1): dTm D - Batch Mean [Concentration: 100]>


>  <DSF (pCDK2/CCNE1): dTm D - Batch Mean [Concentration: 20.0]>


>  <RLM: t1/2 - Batch Mean (Min)>


>  <RLM: Cl int - Batch Mean (uL/min/mg protein)>


>  <RLM: ER (Hepatic extraction ratio) - Batch Mean>


>  <HLM: t1/2 - Batch Mean (Min)>


>  <HLM: Cl int - Batch Mean (uL/min/mg protein)>


>  <HLM: ER (Hepatic extraction ratio) - Batch Mean>


>  <MDCK-WT 4% BSA: Papp (A-B) - Batch Mean (10-6, cm/s)>


>  <MDCK-WT 4% BSA: Papp (B-A) - Batch Mean (10-6, cm/s)>


>  <MDCK-WT 4% BSA: Efflux Ratio - Batch Mean>


>  <MDCK-WT 4% BSA: ~Net A_B - Batch Mean (10-6, cm/s)>


>  <pIC50>
4.08831

>  <Selection_1>
Y

>  <Selection_N>
Y

>  <Serie>
Naphthyridine

>  <Selection_T>
N

>  <Train_Vs_Test>


$$$$
CTX-1020699
 OpenBabel08272613263D

 62 67  0  0  0  0  0  0  0  0999 V2000
    4.2948   -0.1329   -2.8849 O   0  0  0  0  0  0  0  0  0  0  0  0
    3.8238   -0.8387   -3.7533 C   0  0  0  0  0  0  0  0  0  0  0  0
    2.5768   -1.4226   -3.6540 N   0  0  0  0  0  0  0  0  0  0  0  0
    4.6191   -1.1456   -5.0042 C   0  0  0  0  0  0  0  0  0  0  0  0
    1.7513   -1.2435   -2.4626 C   0  0  2  0  0  0  0  0  0  0  0  0
    4.0393   -1.8750   -6.0070 N   0  0  0  0  0  0  0  0  0  0  0  0
    5.9290   -0.6801   -5.0505 C   0  0  0  0  0  0  0  0  0  0  0  0
    0.8443   -2.4377   -2.2051 C   0  0  0  0  0  0  0  0  0  0  0  0
    0.9788    0.0850   -2.5294 C   0  0  0  0  0  0  0  0  0  0  0  0
    4.8070   -2.1376   -7.1138 C   0  0  0  0  0  0  0  0  0  0  0  0
    6.7012   -0.9818   -6.1622 C   0  0  0  0  0  0  0  0  0  0  0  0
   -0.4731   -2.2697   -1.7223 C   0  0  0  0  0  0  0  0  0  0  0  0
    1.3494   -3.7416   -2.3468 C   0  0  0  0  0  0  0  0  0  0  0  0
   -0.0116    0.1924   -1.3737 C   0  0  0  0  0  0  0  0  0  0  0  0
    6.1518   -1.7314   -7.2061 C   0  0  0  0  0  0  0  0  0  0  0  0
    4.1697   -2.9311   -8.2663 C   0  0  0  0  0  0  0  0  0  0  0  0
   -1.2741   -3.3975   -1.4812 C   0  0  0  0  0  0  0  0  0  0  0  0
   -1.0688   -0.9082   -1.4819 C   0  0  0  0  0  0  0  0  0  0  0  0
    0.5525   -4.8556   -2.0855 C   0  0  0  0  0  0  0  0  0  0  0  0
    6.9916   -2.0166   -8.4275 C   0  0  0  0  0  0  0  0  0  0  0  0
    4.9545   -2.8911   -9.5089 N   0  0  0  0  0  0  0  0  0  0  0  0
   -0.7621   -4.6825   -1.6642 C   0  0  0  0  0  0  0  0  0  0  0  0
    6.3883   -3.0922   -9.3314 C   0  0  0  0  0  0  0  0  0  0  0  0
    4.3076   -2.7644  -10.7560 C   0  0  0  0  0  0  0  0  0  0  0  0
    3.1138   -3.0491  -10.8677 O   0  0  0  0  0  0  0  0  0  0  0  0
    5.0514   -2.0775  -11.8406 C   0  0  0  0  0  0  0  0  0  0  0  0
    6.0286   -1.2191  -11.3622 O   0  0  0  0  0  0  0  0  0  0  0  0
    4.5735   -1.4479  -13.0022 C   0  0  0  0  0  0  0  0  0  0  0  0
    5.5725    0.0165  -11.6730 C   0  0  0  0  0  0  0  0  0  0  0  0
    4.5837   -0.0740  -12.6351 C   0  0  0  0  0  0  0  0  0  0  0  0
    4.2277   -1.9450  -14.3564 C   0  0  0  0  0  0  0  0  0  0  0  0
    6.0170    1.1920  -11.0844 C   0  0  0  0  0  0  0  0  0  0  0  0
    3.9473    1.1024  -13.0618 C   0  0  0  0  0  0  0  0  0  0  0  0
    5.3355    2.3411  -11.4834 C   0  0  0  0  0  0  0  0  0  0  0  0
    4.3186    2.3052  -12.4482 C   0  0  0  0  0  0  0  0  0  0  0  0
    2.2381   -1.9694   -4.3993 H   0  0  0  0  0  0  0  0  0  0  0  0
    2.4046   -1.1898   -1.6169 H   0  0  0  0  0  0  0  0  0  0  0  0
    6.3178   -0.1222   -4.2742 H   0  0  0  0  0  0  0  0  0  0  0  0
    0.4447    0.1344   -3.4553 H   0  0  0  0  0  0  0  0  0  0  0  0
    1.6773    0.8926   -2.4598 H   0  0  0  0  0  0  0  0  0  0  0  0
    7.6781   -0.6539   -6.2186 H   0  0  0  0  0  0  0  0  0  0  0  0
    2.3267   -3.8769   -2.6494 H   0  0  0  0  0  0  0  0  0  0  0  0
   -0.4914    1.1482   -1.4068 H   0  0  0  0  0  0  0  0  0  0  0  0
    0.5160    0.0812   -0.4495 H   0  0  0  0  0  0  0  0  0  0  0  0
    3.2009   -2.5222   -8.4641 H   0  0  0  0  0  0  0  0  0  0  0  0
    4.1223   -3.9541   -7.9563 H   0  0  0  0  0  0  0  0  0  0  0  0
   -2.2492   -3.2750   -1.1662 H   0  0  0  0  0  0  0  0  0  0  0  0
   -1.6275   -0.9360   -0.5698 H   0  0  0  0  0  0  0  0  0  0  0  0
   -1.6898   -0.6762   -2.3217 H   0  0  0  0  0  0  0  0  0  0  0  0
    0.9368   -5.8060   -2.2044 H   0  0  0  0  0  0  0  0  0  0  0  0
    7.9587   -2.3438   -8.1072 H   0  0  0  0  0  0  0  0  0  0  0  0
    7.0436   -1.1126   -8.9976 H   0  0  0  0  0  0  0  0  0  0  0  0
   -1.3592   -5.5054   -1.4868 H   0  0  0  0  0  0  0  0  0  0  0  0
    6.5536   -4.0524   -8.8890 H   0  0  0  0  0  0  0  0  0  0  0  0
    6.8595   -3.0315  -10.2901 H   0  0  0  0  0  0  0  0  0  0  0  0
    4.2953   -3.0127  -14.3725 H   0  0  0  0  0  0  0  0  0  0  0  0
    4.9088   -1.5338  -15.0720 H   0  0  0  0  0  0  0  0  0  0  0  0
    3.2298   -1.6470  -14.6017 H   0  0  0  0  0  0  0  0  0  0  0  0
    6.7924    1.2140  -10.4037 H   0  0  0  0  0  0  0  0  0  0  0  0
    3.2295    1.0814  -13.8030 H   0  0  0  0  0  0  0  0  0  0  0  0
    5.5872    3.2458  -11.0554 H   0  0  0  0  0  0  0  0  0  0  0  0
    3.8362    3.1791  -12.7104 H   0  0  0  0  0  0  0  0  0  0  0  0
  1  2  2  0  0  0  0
  2  3  1  0  0  0  0
  2  4  1  0  0  0  0
  3 36  1  0  0  0  0
  4  6  2  0  0  0  0
  4  7  1  0  0  0  0
  5  8  1  0  0  0  0
  5  9  1  0  0  0  0
  5  3  1  0  0  0  0
  5 37  1  1  0  0  0
  6 10  1  0  0  0  0
  7 11  2  0  0  0  0
  7 38  1  0  0  0  0
  8 12  2  0  0  0  0
  8 13  1  0  0  0  0
  9 14  1  0  0  0  0
  9 39  1  0  0  0  0
  9 40  1  0  0  0  0
 10 15  2  0  0  0  0
 10 16  1  0  0  0  0
 11 15  1  0  0  0  0
 11 41  1  0  0  0  0
 12 17  1  0  0  0  0
 12 18  1  0  0  0  0
 13 19  2  0  0  0  0
 13 42  1  0  0  0  0
 14 18  1  0  0  0  0
 14 43  1  0  0  0  0
 14 44  1  0  0  0  0
 15 20  1  0  0  0  0
 16 21  1  0  0  0  0
 16 45  1  0  0  0  0
 16 46  1  0  0  0  0
 17 22  2  0  0  0  0
 17 47  1  0  0  0  0
 18 48  1  0  0  0  0
 18 49  1  0  0  0  0
 19 22  1  0  0  0  0
 19 50  1  0  0  0  0
 20 23  1  0  0  0  0
 20 51  1  0  0  0  0
 20 52  1  0  0  0  0
 21 24  1  0  0  0  0
 21 23  1  0  0  0  0
 22 53  1  0  0  0  0
 23 54  1  0  0  0  0
 23 55  1  0  0  0  0
 24 25  2  0  0  0  0
 24 26  1  0  0  0  0
 26 27  1  0  0  0  0
 26 28  2  0  0  0  0
 27 29  1  0  0  0  0
 28 30  1  0  0  0  0
 28 31  1  0  0  0  0
 29 32  2  0  0  0  0
 29 30  1  0  0  0  0
 30 33  2  0  0  0  0
 31 56  1  0  0  0  0
 31 57  1  0  0  0  0
 31 58  1  0  0  0  0
 32 34  1  0  0  0  0
 32 59  1  0  0  0  0
 33 35  1  0  0  0  0
 33 60  1  0  0  0  0
 34 35  2  0  0  0  0
 34 61  1  0  0  0  0
 35 62  1  0  0  0  0
M  END
>  <Molecule Name>
CTX-1020699

>  <SMILES>
CC1=C(OC2=C1C=CC=C2)C(=O)N1CCC2=CC=C(N=C2C1)C(=O)NC1CCCC2=C1C=CC=C2

>  <Batch Name>
CTX-1020699-1

>  <Batch Created Date>
2021-12-09

>  <Batch ID>
CTX-1020699-1

>  <External ID>
CD-42-G

>  <Stereochemistry>
Racemic or presumed racemic

>  <Amount 1>
2.3

>  <Unit 1>
mg

>  <CRO 1>
Pharmaron

>  <CRO 1 Total Amount>
15.7

>  <CRO 1 Unit>
mg

>  <Pharmaron Solubility (PBS, pH 7.4): Aqueous Solubility - Batch Mean (uM)>
0.0006

>  <Pharmaron Solubility (PBS, pH 7.4): Aqueous Solubility - Batch Mean (uM) Standard Deviation (±)>


>  <Pharmaron Solubility (PBS, pH 7.4): Aqueous Solubility - Batch Mean (uM) Count>
1.0

>  <log P>
4.67

>  <log D>
4.67

>  <Pharmaron Caliper Assay (CDK2/CCNE1): Minimum measured (%)>
77.3

>  <Pharmaron Caliper Assay (CDK2/CCNE1): IC50 - Batch Mean (uM)>
19.0

>  <Pharmaron ADPGLO (CDK2/E1-25C): Minimum measured (%)>


>  <Pharmaron ADPGLO (CDK2/E1-25C): IC50 - Batch Mean (uM)>


>  <Pharmaron ADPGLO (CDK2/E1-37C): Minimum measured (%)>


>  <Pharmaron ADPGLO (CDK2/E1-37C): IC50 - Batch Mean (uM)>


>  <IncuCyte Kuramochi RB-WT: IC50 - Batch Mean (uM)>
20.0

>  <IncuCyte Kuramochi RB-KO: IC50 - Batch Mean (uM)>
20.0

>  <DSF (npCDK2/CCNE1): dTm D - Batch Mean [Concentration: 100]>


>  <DSF (npCDK2/CCNE1): dTm D - Batch Mean [Concentration: 20.0]>
-1.14

>  <DSF (pCDK2/CCNE1): dTm D - Batch Mean [Concentration: 100]>


>  <DSF (pCDK2/CCNE1): dTm D - Batch Mean [Concentration: 20.0]>
-0.207

>  <RLM: t1/2 - Batch Mean (Min)>


>  <RLM: Cl int - Batch Mean (uL/min/mg protein)>


>  <RLM: ER (Hepatic extraction ratio) - Batch Mean>


>  <HLM: t1/2 - Batch Mean (Min)>


>  <HLM: Cl int - Batch Mean (uL/min/mg protein)>


>  <HLM: ER (Hepatic extraction ratio) - Batch Mean>


>  <MDCK-WT 4% BSA: Papp (A-B) - Batch Mean (10-6, cm/s)>


>  <MDCK-WT 4% BSA: Papp (B-A) - Batch Mean (10-6, cm/s)>


>  <MDCK-WT 4% BSA: Efflux Ratio - Batch Mean>


>  <MDCK-WT 4% BSA: ~Net A_B - Batch Mean (10-6, cm/s)>


>  <pIC50>
4.721246

>  <Selection_1>
Y

>  <Selection_N>


>  <Serie>
Naphthyridine

>  <Selection_T>
N

>  <Train_Vs_Test>


$$$$
CTX-1020698
 OpenBabel08272613263D

 64 69  0  0  0  0  0  0  0  0999 V2000
    1.3266    0.1364    0.9105 O   0  0  0  0  0  0  0  0  0  0  0  0
    2.2929    0.0423    0.1563 C   0  0  0  0  0  0  0  0  0  0  0  0
    2.7829   -1.1673   -0.2804 N   0  0  0  0  0  0  0  0  0  0  0  0
    2.9956    1.2787   -0.3358 C   0  0  0  0  0  0  0  0  0  0  0  0
    2.1620   -2.4172    0.0966 C   0  0  0  0  0  0  0  0  0  0  0  0
    4.0355    1.1530   -1.2205 N   0  0  0  0  0  0  0  0  0  0  0  0
    2.5250    2.4966    0.1378 C   0  0  0  0  0  0  0  0  0  0  0  0
    3.0690   -3.2687    0.9451 C   0  0  0  0  0  0  0  0  0  0  0  0
    4.6239    2.3129   -1.6547 C   0  0  0  0  0  0  0  0  0  0  0  0
    3.1415    3.6568   -0.2969 C   0  0  0  0  0  0  0  0  0  0  0  0
    3.1124   -3.0968    2.3321 C   0  0  0  0  0  0  0  0  0  0  0  0
    3.8762   -4.2539    0.3702 C   0  0  0  0  0  0  0  0  0  0  0  0
    4.2091    3.5781   -1.1959 C   0  0  0  0  0  0  0  0  0  0  0  0
    5.7904    2.2121   -2.6510 C   0  0  0  0  0  0  0  0  0  0  0  0
    3.9224   -3.9150    3.1288 C   0  0  0  0  0  0  0  0  0  0  0  0
    4.6765   -5.0803    1.1736 C   0  0  0  0  0  0  0  0  0  0  0  0
    4.8244    4.8579   -1.7007 C   0  0  0  0  0  0  0  0  0  0  0  0
    6.1322    3.4964   -3.2745 N   0  0  0  0  0  0  0  0  0  0  0  0
    4.7144   -4.9352    2.5719 C   0  0  0  0  0  0  0  0  0  0  0  0
    6.1680    4.6449   -2.3840 C   0  0  0  0  0  0  0  0  0  0  0  0
    6.5899    3.5614   -4.5972 C   0  0  0  0  0  0  0  0  0  0  0  0
    5.5424   -5.8173    3.4275 C   0  0  0  0  0  0  0  0  0  0  0  0
    7.1530    2.6030   -5.1241 O   0  0  0  0  0  0  0  0  0  0  0  0
    6.1152    4.7216   -5.3693 C   0  0  0  0  0  0  0  0  0  0  0  0
    5.1140   -6.2163    4.7017 C   0  0  0  0  0  0  0  0  0  0  0  0
    6.7979   -6.2914    3.0109 C   0  0  0  0  0  0  0  0  0  0  0  0
    4.9362    5.2643   -4.9014 O   0  0  0  0  0  0  0  0  0  0  0  0
    6.1643    5.0108   -6.7347 C   0  0  0  0  0  0  0  0  0  0  0  0
    5.9277   -7.0251    5.4790 C   0  0  0  0  0  0  0  0  0  0  0  0
    7.5370   -7.1007    3.8498 C   0  0  0  0  0  0  0  0  0  0  0  0
    4.0783    5.1811   -5.9489 C   0  0  0  0  0  0  0  0  0  0  0  0
    4.7907    4.9118   -7.1117 C   0  0  0  0  0  0  0  0  0  0  0  0
    7.3044    5.2498   -7.6487 C   0  0  0  0  0  0  0  0  0  0  0  0
    7.1330   -7.4726    5.0782 N   0  0  0  0  0  0  0  0  0  0  0  0
    2.7039    5.2665   -5.8438 C   0  0  0  0  0  0  0  0  0  0  0  0
    4.0629    4.6404   -8.2807 C   0  0  0  0  0  0  0  0  0  0  0  0
    1.9998    4.9411   -7.0041 C   0  0  0  0  0  0  0  0  0  0  0  0
    2.6626    4.6099   -8.1937 C   0  0  0  0  0  0  0  0  0  0  0  0
    3.5758   -1.1818   -0.8638 H   0  0  0  0  0  0  0  0  0  0  0  0
    1.9112   -2.9592   -0.7912 H   0  0  0  0  0  0  0  0  0  0  0  0
    1.2896   -2.1903    0.6732 H   0  0  0  0  0  0  0  0  0  0  0  0
    1.7335    2.5354    0.7989 H   0  0  0  0  0  0  0  0  0  0  0  0
    2.8148    4.5755    0.0410 H   0  0  0  0  0  0  0  0  0  0  0  0
    2.5413   -2.3590    2.7732 H   0  0  0  0  0  0  0  0  0  0  0  0
    3.8839   -4.3748   -0.6547 H   0  0  0  0  0  0  0  0  0  0  0  0
    5.5201    1.5212   -3.4220 H   0  0  0  0  0  0  0  0  0  0  0  0
    6.6495    1.8868   -2.1023 H   0  0  0  0  0  0  0  0  0  0  0  0
    3.9387   -3.7658    4.1498 H   0  0  0  0  0  0  0  0  0  0  0  0
    5.2512   -5.8123    0.7276 H   0  0  0  0  0  0  0  0  0  0  0  0
    4.9651    5.5187   -0.8709 H   0  0  0  0  0  0  0  0  0  0  0  0
    4.1567    5.2675   -2.4297 H   0  0  0  0  0  0  0  0  0  0  0  0
    6.9170    4.4834   -1.6371 H   0  0  0  0  0  0  0  0  0  0  0  0
    6.3931    5.5151   -2.9644 H   0  0  0  0  0  0  0  0  0  0  0  0
    4.1961   -5.9088    5.0593 H   0  0  0  0  0  0  0  0  0  0  0  0
    7.1659   -6.0355    2.0813 H   0  0  0  0  0  0  0  0  0  0  0  0
    5.5919   -7.2993    6.4155 H   0  0  0  0  0  0  0  0  0  0  0  0
    8.4525   -7.4402    3.5156 H   0  0  0  0  0  0  0  0  0  0  0  0
    8.2138    5.2753   -7.0855 H   0  0  0  0  0  0  0  0  0  0  0  0
    7.1693    6.1852   -8.1504 H   0  0  0  0  0  0  0  0  0  0  0  0
    7.3540    4.4618   -8.3708 H   0  0  0  0  0  0  0  0  0  0  0  0
    2.2320    5.5502   -4.9709 H   0  0  0  0  0  0  0  0  0  0  0  0
    4.5434    4.4683   -9.1777 H   0  0  0  0  0  0  0  0  0  0  0  0
    0.9679    4.9444   -6.9856 H   0  0  0  0  0  0  0  0  0  0  0  0
    2.1101    4.3382   -9.0219 H   0  0  0  0  0  0  0  0  0  0  0  0
  1  2  2  0  0  0  0
  2  3  1  0  0  0  0
  2  4  1  0  0  0  0
  3  5  1  0  0  0  0
  3 39  1  0  0  0  0
  4  6  2  0  0  0  0
  4  7  1  0  0  0  0
  5  8  1  0  0  0  0
  5 40  1  0  0  0  0
  5 41  1  0  0  0  0
  6  9  1  0  0  0  0
  7 10  2  0  0  0  0
  7 42  1  0  0  0  0
  8 11  2  0  0  0  0
  8 12  1  0  0  0  0
  9 13  2  0  0  0  0
  9 14  1  0  0  0  0
 10 13  1  0  0  0  0
 10 43  1  0  0  0  0
 11 15  1  0  0  0  0
 11 44  1  0  0  0  0
 12 16  2  0  0  0  0
 12 45  1  0  0  0  0
 13 17  1  0  0  0  0
 14 18  1  0  0  0  0
 14 46  1  0  0  0  0
 14 47  1  0  0  0  0
 15 19  2  0  0  0  0
 15 48  1  0  0  0  0
 16 19  1  0  0  0  0
 16 49  1  0  0  0  0
 17 20  1  0  0  0  0
 17 50  1  0  0  0  0
 17 51  1  0  0  0  0
 18 21  1  0  0  0  0
 18 20  1  0  0  0  0
 19 22  1  0  0  0  0
 20 52  1  0  0  0  0
 20 53  1  0  0  0  0
 21 23  2  0  0  0  0
 21 24  1  0  0  0  0
 22 25  2  0  0  0  0
 22 26  1  0  0  0  0
 24 27  1  0  0  0  0
 24 28  2  0  0  0  0
 25 29  1  0  0  0  0
 25 54  1  0  0  0  0
 26 30  2  0  0  0  0
 26 55  1  0  0  0  0
 27 31  1  0  0  0  0
 28 32  1  0  0  0  0
 28 33  1  0  0  0  0
 29 34  2  0  0  0  0
 29 56  1  0  0  0  0
 30 34  1  0  0  0  0
 30 57  1  0  0  0  0
 31 35  2  0  0  0  0
 31 32  1  0  0  0  0
 32 36  2  0  0  0  0
 33 58  1  0  0  0  0
 33 59  1  0  0  0  0
 33 60  1  0  0  0  0
 35 37  1  0  0  0  0
 35 61  1  0  0  0  0
 36 38  1  0  0  0  0
 36 62  1  0  0  0  0
 37 38  2  0  0  0  0
 37 63  1  0  0  0  0
 38 64  1  0  0  0  0
M  END
>  <Molecule Name>
CTX-1020698

>  <SMILES>
CC1=C(OC2=C1C=CC=C2)C(=O)N1CCC2=CC=C(N=C2C1)C(=O)NCC1=CC=C(C=C1)C1=CC=NC=C1

>  <Batch Name>
CTX-1020698-1

>  <Batch Created Date>
2021-12-09

>  <Batch ID>
CTX-1020698-1

>  <External ID>
CD-42-D

>  <Stereochemistry>
Achiral

>  <Amount 1>
2.5

>  <Unit 1>
mg

>  <CRO 1>
Pharmaron

>  <CRO 1 Total Amount>
19.2

>  <CRO 1 Unit>
mg

>  <Pharmaron Solubility (PBS, pH 7.4): Aqueous Solubility - Batch Mean (uM)>


>  <Pharmaron Solubility (PBS, pH 7.4): Aqueous Solubility - Batch Mean (uM) Standard Deviation (±)>


>  <Pharmaron Solubility (PBS, pH 7.4): Aqueous Solubility - Batch Mean (uM) Count>


>  <log P>
4.11

>  <log D>
4.1

>  <Pharmaron Caliper Assay (CDK2/CCNE1): Minimum measured (%)>
39.5

>  <Pharmaron Caliper Assay (CDK2/CCNE1): IC50 - Batch Mean (uM)>
1.11

>  <Pharmaron ADPGLO (CDK2/E1-25C): Minimum measured (%)>


>  <Pharmaron ADPGLO (CDK2/E1-25C): IC50 - Batch Mean (uM)>


>  <Pharmaron ADPGLO (CDK2/E1-37C): Minimum measured (%)>


>  <Pharmaron ADPGLO (CDK2/E1-37C): IC50 - Batch Mean (uM)>


>  <IncuCyte Kuramochi RB-WT: IC50 - Batch Mean (uM)>
20.0

>  <IncuCyte Kuramochi RB-KO: IC50 - Batch Mean (uM)>
8.64

>  <DSF (npCDK2/CCNE1): dTm D - Batch Mean [Concentration: 100]>


>  <DSF (npCDK2/CCNE1): dTm D - Batch Mean [Concentration: 20.0]>
1.097

>  <DSF (pCDK2/CCNE1): dTm D - Batch Mean [Concentration: 100]>


>  <DSF (pCDK2/CCNE1): dTm D - Batch Mean [Concentration: 20.0]>
0.226

>  <RLM: t1/2 - Batch Mean (Min)>
24.7

>  <RLM: Cl int - Batch Mean (uL/min/mg protein)>
56.42

>  <RLM: ER (Hepatic extraction ratio) - Batch Mean>
0.669

>  <HLM: t1/2 - Batch Mean (Min)>
5.33

>  <HLM: Cl int - Batch Mean (uL/min/mg protein)>
259.89

>  <HLM: ER (Hepatic extraction ratio) - Batch Mean>
0.927

>  <MDCK-WT 4% BSA: Papp (A-B) - Batch Mean (10-6, cm/s)>


>  <MDCK-WT 4% BSA: Papp (B-A) - Batch Mean (10-6, cm/s)>


>  <MDCK-WT 4% BSA: Efflux Ratio - Batch Mean>


>  <MDCK-WT 4% BSA: ~Net A_B - Batch Mean (10-6, cm/s)>


>  <pIC50>
5.954677

>  <Selection_1>
Y

>  <Selection_N>


>  <Serie>
Naphthyridine

>  <Selection_T>
N

>  <Train_Vs_Test>


$$$$
CTX-1020697
 OpenBabel08272613263D

 74 79  0  0  0  0  0  0  0  0999 V2000
    1.6700    1.0859   -0.1730 O   0  0  0  0  0  0  0  0  0  0  0  0
    2.3455    0.0610   -0.2292 C   0  0  0  0  0  0  0  0  0  0  0  0
    2.4140   -0.8569    0.7948 N   0  0  0  0  0  0  0  0  0  0  0  0
    3.1127   -0.2712   -1.4750 C   0  0  0  0  0  0  0  0  0  0  0  0
    1.6607   -0.6893    2.0157 C   0  0  0  0  0  0  0  0  0  0  0  0
    4.1044   -1.2193   -1.4155 N   0  0  0  0  0  0  0  0  0  0  0  0
    2.7380    0.3899   -2.6421 C   0  0  0  0  0  0  0  0  0  0  0  0
    2.5711   -0.6548    3.2094 C   0  0  0  0  0  0  0  0  0  0  0  0
    4.7635   -1.4910   -2.5932 C   0  0  0  0  0  0  0  0  0  0  0  0
    3.4019    0.0845   -3.8139 C   0  0  0  0  0  0  0  0  0  0  0  0
    3.2399    0.5265    3.5362 C   0  0  0  0  0  0  0  0  0  0  0  0
    2.7924   -1.7907    3.9914 C   0  0  0  0  0  0  0  0  0  0  0  0
    4.4292   -0.8537   -3.8039 C   0  0  0  0  0  0  0  0  0  0  0  0
    5.9324   -2.4835   -2.5587 C   0  0  0  0  0  0  0  0  0  0  0  0
    4.0948    0.5785    4.6389 C   0  0  0  0  0  0  0  0  0  0  0  0
    3.6340   -1.7279    5.1079 C   0  0  0  0  0  0  0  0  0  0  0  0
    5.0919   -1.2117   -5.1074 C   0  0  0  0  0  0  0  0  0  0  0  0
    6.3182   -2.9590   -3.8911 N   0  0  0  0  0  0  0  0  0  0  0  0
    4.2776   -0.5322    5.4740 C   0  0  0  0  0  0  0  0  0  0  0  0
    6.4136   -1.9447   -4.9264 C   0  0  0  0  0  0  0  0  0  0  0  0
    6.8363   -4.2439   -4.0771 C   0  0  0  0  0  0  0  0  0  0  0  0
    5.1489   -0.5023    6.7316 C   0  0  2  0  0  0  0  0  0  0  0  0
    7.4315   -4.8307   -3.1749 O   0  0  0  0  0  0  0  0  0  0  0  0
    6.3777   -4.9263   -5.2923 C   0  0  0  0  0  0  0  0  0  0  0  0
    4.3823   -0.9285    7.9968 C   0  0  0  0  0  0  0  0  0  0  0  0
    5.8379    0.8322    7.0665 C   0  0  0  0  0  0  0  0  0  0  0  0
    5.1980   -4.4497   -5.8224 O   0  0  0  0  0  0  0  0  0  0  0  0
    6.5382   -6.2320   -5.7558 C   0  0  0  0  0  0  0  0  0  0  0  0
    3.3724    0.1364    8.4238 C   0  0  0  0  0  0  0  0  0  0  0  0
    4.8623    1.8987    7.5798 C   0  0  0  0  0  0  0  0  0  0  0  0
    4.4275   -5.5456   -6.0081 C   0  0  0  0  0  0  0  0  0  0  0  0
    5.1888   -6.6919   -5.8406 C   0  0  0  0  0  0  0  0  0  0  0  0
    7.7528   -7.0479   -5.9898 C   0  0  0  0  0  0  0  0  0  0  0  0
    3.9898    1.4470    8.6711 N   0  3  1  0  0  0  0  0  0  0  0  0
    3.0619   -5.5188   -6.2365 C   0  0  0  0  0  0  0  0  0  0  0  0
    4.5294   -7.9311   -5.7922 C   0  0  0  0  0  0  0  0  0  0  0  0
    2.9312    2.4439    8.8841 C   0  0  0  0  0  0  0  0  0  0  0  0
    2.4204   -6.7549   -6.1533 C   0  0  0  0  0  0  0  0  0  0  0  0
    3.1316   -7.9347   -5.9014 C   0  0  0  0  0  0  0  0  0  0  0  0
    2.9913   -1.6477    0.6922 H   0  0  0  0  0  0  0  0  0  0  0  0
    0.9775   -1.5062    2.1202 H   0  0  0  0  0  0  0  0  0  0  0  0
    1.1304    0.2387    1.9644 H   0  0  0  0  0  0  0  0  0  0  0  0
    1.9816    1.0918   -2.6316 H   0  0  0  0  0  0  0  0  0  0  0  0
    3.1366    0.5514   -4.6952 H   0  0  0  0  0  0  0  0  0  0  0  0
    3.1010    1.3694    2.9571 H   0  0  0  0  0  0  0  0  0  0  0  0
    2.3328   -2.6812    3.7447 H   0  0  0  0  0  0  0  0  0  0  0  0
    5.6468   -3.3266   -1.9650 H   0  0  0  0  0  0  0  0  0  0  0  0
    6.7757   -1.9714   -2.1446 H   0  0  0  0  0  0  0  0  0  0  0  0
    4.6029    1.4532    4.8433 H   0  0  0  0  0  0  0  0  0  0  0  0
    3.7855   -2.5770    5.6745 H   0  0  0  0  0  0  0  0  0  0  0  0
    5.2749   -0.3106   -5.6547 H   0  0  0  0  0  0  0  0  0  0  0  0
    4.4310   -1.8717   -5.6295 H   0  0  0  0  0  0  0  0  0  0  0  0
    7.1692   -1.2382   -4.6533 H   0  0  0  0  0  0  0  0  0  0  0  0
    6.6610   -2.4268   -5.8491 H   0  0  0  0  0  0  0  0  0  0  0  0
    5.9108   -1.2043    6.4640 H   0  0  0  0  0  0  0  0  0  0  0  0
    5.0817   -1.0833    8.7917 H   0  0  0  0  0  0  0  0  0  0  0  0
    3.8486   -1.8299    7.7789 H   0  0  0  0  0  0  0  0  0  0  0  0
    6.3127    1.2021    6.1818 H   0  0  0  0  0  0  0  0  0  0  0  0
    6.5430    0.6409    7.8482 H   0  0  0  0  0  0  0  0  0  0  0  0
    2.8928   -0.1897    9.3230 H   0  0  0  0  0  0  0  0  0  0  0  0
    2.6758    0.2571    7.6207 H   0  0  0  0  0  0  0  0  0  0  0  0
    4.2440    2.2076    6.7630 H   0  0  0  0  0  0  0  0  0  0  0  0
    5.4591    2.6939    7.9750 H   0  0  0  0  0  0  0  0  0  0  0  0
    8.6225   -6.4391   -5.8564 H   0  0  0  0  0  0  0  0  0  0  0  0
    7.7368   -7.4332   -6.9879 H   0  0  0  0  0  0  0  0  0  0  0  0
    7.7761   -7.8605   -5.2941 H   0  0  0  0  0  0  0  0  0  0  0  0
    4.5788    1.3455    9.4976 H   0  0  0  0  0  0  0  0  0  0  0  0
    2.5548   -4.6464   -6.4529 H   0  0  0  0  0  0  0  0  0  0  0  0
    5.0570   -8.8109   -5.6799 H   0  0  0  0  0  0  0  0  0  0  0  0
    2.3341    2.5245    7.9998 H   0  0  0  0  0  0  0  0  0  0  0  0
    3.3739    3.3930    9.1033 H   0  0  0  0  0  0  0  0  0  0  0  0
    2.3148    2.1399    9.7042 H   0  0  0  0  0  0  0  0  0  0  0  0
    1.3973   -6.8010   -6.2805 H   0  0  0  0  0  0  0  0  0  0  0  0
    2.6174   -8.8230   -5.7940 H   0  0  0  0  0  0  0  0  0  0  0  0
  1  2  2  0  0  0  0
  2  3  1  0  0  0  0
  2  4  1  0  0  0  0
  3  5  1  0  0  0  0
  3 40  1  0  0  0  0
  4  6  2  0  0  0  0
  4  7  1  0  0  0  0
  5  8  1  0  0  0  0
  5 41  1  0  0  0  0
  5 42  1  0  0  0  0
  6  9  1  0  0  0  0
  7 10  2  0  0  0  0
  7 43  1  0  0  0  0
  8 11  2  0  0  0  0
  8 12  1  0  0  0  0
  9 13  2  0  0  0  0
  9 14  1  0  0  0  0
 10 13  1  0  0  0  0
 10 44  1  0  0  0  0
 11 15  1  0  0  0  0
 11 45  1  0  0  0  0
 12 16  2  0  0  0  0
 12 46  1  0  0  0  0
 13 17  1  0  0  0  0
 14 18  1  0  0  0  0
 14 47  1  0  0  0  0
 14 48  1  0  0  0  0
 15 19  2  0  0  0  0
 15 49  1  0  0  0  0
 16 19  1  0  0  0  0
 16 50  1  0  0  0  0
 17 20  1  0  0  0  0
 17 51  1  0  0  0  0
 17 52  1  0  0  0  0
 18 21  1  0  0  0  0
 18 20  1  0  0  0  0
 19 22  1  0  0  0  0
 20 53  1  0  0  0  0
 20 54  1  0  0  0  0
 21 23  2  0  0  0  0
 21 24  1  0  0  0  0
 22 25  1  0  0  0  0
 22 26  1  0  0  0  0
 22 55  1  6  0  0  0
 24 27  1  0  0  0  0
 24 28  2  0  0  0  0
 25 29  1  0  0  0  0
 25 56  1  0  0  0  0
 25 57  1  0  0  0  0
 26 30  1  0  0  0  0
 26 58  1  0  0  0  0
 26 59  1  0  0  0  0
 27 31  1  0  0  0  0
 28 32  1  0  0  0  0
 28 33  1  0  0  0  0
 29 34  1  0  0  0  0
 29 60  1  0  0  0  0
 29 61  1  0  0  0  0
 30 34  1  0  0  0  0
 30 62  1  0  0  0  0
 30 63  1  0  0  0  0
 31 35  2  0  0  0  0
 31 32  1  0  0  0  0
 32 36  2  0  0  0  0
 33 64  1  0  0  0  0
 33 65  1  0  0  0  0
 33 66  1  0  0  0  0
 34 37  1  0  0  0  0
 34 67  1  1  0  0  0
 35 38  1  0  0  0  0
 35 68  1  0  0  0  0
 36 39  1  0  0  0  0
 36 69  1  0  0  0  0
 37 70  1  0  0  0  0
 37 71  1  0  0  0  0
 37 72  1  0  0  0  0
 38 39  2  0  0  0  0
 38 73  1  0  0  0  0
 39 74  1  0  0  0  0
M  CHG  1  34   1
M  END
>  <Molecule Name>
CTX-1020697

>  <SMILES>
CN1CCC(CC1)C1=CC=C(CNC(=O)C2=CC=C3CCN(CC3=N2)C(=O)C2=C(C)C3=C(O2)C=CC=C3)C=C1

>  <Batch Name>
CTX-1020697-1

>  <Batch Created Date>
2021-12-09

>  <Batch ID>
CTX-1020697-1

>  <External ID>
CD-42-C

>  <Stereochemistry>
Achiral

>  <Amount 1>
2.1

>  <Unit 1>
mg

>  <CRO 1>
Pharmaron

>  <CRO 1 Total Amount>
17.1

>  <CRO 1 Unit>
mg

>  <Pharmaron Solubility (PBS, pH 7.4): Aqueous Solubility - Batch Mean (uM)>


>  <Pharmaron Solubility (PBS, pH 7.4): Aqueous Solubility - Batch Mean (uM) Standard Deviation (±)>


>  <Pharmaron Solubility (PBS, pH 7.4): Aqueous Solubility - Batch Mean (uM) Count>


>  <log P>
4.16

>  <log D>
2.43

>  <Pharmaron Caliper Assay (CDK2/CCNE1): Minimum measured (%)>
18.2

>  <Pharmaron Caliper Assay (CDK2/CCNE1): IC50 - Batch Mean (uM)>
3.87

>  <Pharmaron ADPGLO (CDK2/E1-25C): Minimum measured (%)>


>  <Pharmaron ADPGLO (CDK2/E1-25C): IC50 - Batch Mean (uM)>


>  <Pharmaron ADPGLO (CDK2/E1-37C): Minimum measured (%)>


>  <Pharmaron ADPGLO (CDK2/E1-37C): IC50 - Batch Mean (uM)>


>  <IncuCyte Kuramochi RB-WT: IC50 - Batch Mean (uM)>
11.3

>  <IncuCyte Kuramochi RB-KO: IC50 - Batch Mean (uM)>
6.02

>  <DSF (npCDK2/CCNE1): dTm D - Batch Mean [Concentration: 100]>


>  <DSF (npCDK2/CCNE1): dTm D - Batch Mean [Concentration: 20.0]>
0.6629999999999999

>  <DSF (pCDK2/CCNE1): dTm D - Batch Mean [Concentration: 100]>


>  <DSF (pCDK2/CCNE1): dTm D - Batch Mean [Concentration: 20.0]>
0.16

>  <RLM: t1/2 - Batch Mean (Min)>
5.25

>  <RLM: Cl int - Batch Mean (uL/min/mg protein)>
264.05

>  <RLM: ER (Hepatic extraction ratio) - Batch Mean>
0.905

>  <HLM: t1/2 - Batch Mean (Min)>
38.67

>  <HLM: Cl int - Batch Mean (uL/min/mg protein)>
36.44

>  <HLM: ER (Hepatic extraction ratio) - Batch Mean>
0.638

>  <MDCK-WT 4% BSA: Papp (A-B) - Batch Mean (10-6, cm/s)>


>  <MDCK-WT 4% BSA: Papp (B-A) - Batch Mean (10-6, cm/s)>


>  <MDCK-WT 4% BSA: Efflux Ratio - Batch Mean>


>  <MDCK-WT 4% BSA: ~Net A_B - Batch Mean (10-6, cm/s)>


>  <pIC50>
5.412289

>  <Selection_1>
Y

>  <Selection_N>


>  <Serie>
Naphthyridine

>  <Selection_T>
N

>  <Train_Vs_Test>


$$$$
CTX-1020696
 OpenBabel08272613263D

 69 74  0  0  0  0  0  0  0  0999 V2000
    1.1079   -0.4274    0.4513 O   0  0  0  0  0  0  0  0  0  0  0  0
    2.1850    0.0521    0.0792 C   0  0  0  0  0  0  0  0  0  0  0  0
    2.7300   -0.2156   -1.1532 N   0  0  0  0  0  0  0  0  0  0  0  0
    2.9672    0.9491    0.9948 C   0  0  0  0  0  0  0  0  0  0  0  0
    2.1085   -1.1420   -2.0739 C   0  0  0  0  0  0  0  0  0  0  0  0
    4.1139    1.5355    0.5253 N   0  0  0  0  0  0  0  0  0  0  0  0
    2.4697    1.1345    2.2776 C   0  0  0  0  0  0  0  0  0  0  0  0
    1.7631   -0.5073   -3.3960 C   0  0  0  0  0  0  0  0  0  0  0  0
    4.7749    2.3779    1.3778 C   0  0  0  0  0  0  0  0  0  0  0  0
    3.1677    1.9613    3.1380 C   0  0  0  0  0  0  0  0  0  0  0  0
    2.2957   -1.0177   -4.5847 C   0  0  0  0  0  0  0  0  0  0  0  0
    0.8500    0.5535   -3.4710 C   0  0  0  0  0  0  0  0  0  0  0  0
    4.3352    2.5886    2.7065 C   0  0  0  0  0  0  0  0  0  0  0  0
    6.0318    3.0919    0.8689 C   0  0  0  0  0  0  0  0  0  0  0  0
    1.9311   -0.4744   -5.8182 C   0  0  0  0  0  0  0  0  0  0  0  0
    0.4849    1.0981   -4.7079 C   0  0  0  0  0  0  0  0  0  0  0  0
    5.0482    3.5376    3.6341 C   0  0  0  0  0  0  0  0  0  0  0  0
    6.4587    4.2048    1.7304 N   0  0  0  0  0  0  0  0  0  0  0  0
    1.0173    0.5873   -5.8991 C   0  0  0  0  0  0  0  0  0  0  0  0
    6.4420    3.9300    3.1590 C   0  0  0  0  0  0  0  0  0  0  0  0
    7.1004    5.3286    1.1843 C   0  0  0  0  0  0  0  0  0  0  0  0
    0.5869    1.1527   -7.2432 C   0  0  0  0  0  0  0  0  0  0  0  0
    7.6278    5.2763    0.0732 O   0  0  0  0  0  0  0  0  0  0  0  0
    6.8907    6.6036    1.9025 C   0  0  0  0  0  0  0  0  0  0  0  0
   -0.1121    0.0842   -8.1003 C   0  0  0  0  0  0  0  0  0  0  0  0
    1.7621    1.7828   -8.0072 C   0  0  0  0  0  0  0  0  0  0  0  0
    5.6901    6.6464    2.5885 O   0  0  0  0  0  0  0  0  0  0  0  0
    7.1248    7.9257    1.5015 C   0  0  0  0  0  0  0  0  0  0  0  0
   -0.4060    0.6039   -9.4996 C   0  0  0  0  0  0  0  0  0  0  0  0
    1.3372    2.1994   -9.4089 C   0  0  0  0  0  0  0  0  0  0  0  0
    4.9758    7.6112    1.9634 C   0  0  0  0  0  0  0  0  0  0  0  0
    5.8199    8.3841    1.1705 C   0  0  0  0  0  0  0  0  0  0  0  0
    8.3597    8.7424    1.4435 C   0  0  0  0  0  0  0  0  0  0  0  0
    0.7829    1.0924  -10.1174 O   0  0  0  0  0  0  0  0  0  0  0  0
    3.6065    7.7775    2.0514 C   0  0  0  0  0  0  0  0  0  0  0  0
    5.2546    9.3886    0.3737 C   0  0  0  0  0  0  0  0  0  0  0  0
    3.0568    8.7372    1.2135 C   0  0  0  0  0  0  0  0  0  0  0  0
    3.8622    9.5213    0.3693 C   0  0  0  0  0  0  0  0  0  0  0  0
    3.5649    0.2346   -1.4165 H   0  0  0  0  0  0  0  0  0  0  0  0
    1.2101   -1.5155   -1.6288 H   0  0  0  0  0  0  0  0  0  0  0  0
    2.8114   -1.9254   -2.2664 H   0  0  0  0  0  0  0  0  0  0  0  0
    1.6011    0.6671    2.5811 H   0  0  0  0  0  0  0  0  0  0  0  0
    2.8245    2.1140    4.0992 H   0  0  0  0  0  0  0  0  0  0  0  0
    2.9642   -1.8031   -4.5495 H   0  0  0  0  0  0  0  0  0  0  0  0
    0.4421    0.9375   -2.6043 H   0  0  0  0  0  0  0  0  0  0  0  0
    5.8309    3.4773   -0.1089 H   0  0  0  0  0  0  0  0  0  0  0  0
    6.8243    2.3730    0.8644 H   0  0  0  0  0  0  0  0  0  0  0  0
    2.3402   -0.8597   -6.6838 H   0  0  0  0  0  0  0  0  0  0  0  0
   -0.1832    1.8839   -4.7428 H   0  0  0  0  0  0  0  0  0  0  0  0
    5.1376    3.0697    4.5923 H   0  0  0  0  0  0  0  0  0  0  0  0
    4.4666    4.4350    3.6697 H   0  0  0  0  0  0  0  0  0  0  0  0
    7.1192    3.1282    3.3672 H   0  0  0  0  0  0  0  0  0  0  0  0
    6.7357    4.8195    3.6762 H   0  0  0  0  0  0  0  0  0  0  0  0
   -0.1174    1.9323   -7.0408 H   0  0  0  0  0  0  0  0  0  0  0  0
   -1.0329   -0.1920   -7.6305 H   0  0  0  0  0  0  0  0  0  0  0  0
    0.5386   -0.7610   -8.1836 H   0  0  0  0  0  0  0  0  0  0  0  0
    2.5561    1.0692   -8.0793 H   0  0  0  0  0  0  0  0  0  0  0  0
    2.0885    2.6524   -7.4760 H   0  0  0  0  0  0  0  0  0  0  0  0
   -1.1204    1.3980   -9.4362 H   0  0  0  0  0  0  0  0  0  0  0  0
   -0.7945   -0.1997  -10.0897 H   0  0  0  0  0  0  0  0  0  0  0  0
    2.1908    2.5650   -9.9406 H   0  0  0  0  0  0  0  0  0  0  0  0
    0.5935    2.9647   -9.3299 H   0  0  0  0  0  0  0  0  0  0  0  0
    9.1958    8.1466    1.7453 H   0  0  0  0  0  0  0  0  0  0  0  0
    8.2638    9.5812    2.1008 H   0  0  0  0  0  0  0  0  0  0  0  0
    8.5115    9.0890    0.4427 H   0  0  0  0  0  0  0  0  0  0  0  0
    3.0282    7.2217    2.7007 H   0  0  0  0  0  0  0  0  0  0  0  0
    5.8488   10.0129   -0.1939 H   0  0  0  0  0  0  0  0  0  0  0  0
    2.0345    8.8785    1.2100 H   0  0  0  0  0  0  0  0  0  0  0  0
    3.4192   10.2055   -0.2636 H   0  0  0  0  0  0  0  0  0  0  0  0
  1  2  2  0  0  0  0
  2  3  1  0  0  0  0
  2  4  1  0  0  0  0
  3  5  1  0  0  0  0
  3 39  1  0  0  0  0
  4  6  2  0  0  0  0
  4  7  1  0  0  0  0
  5  8  1  0  0  0  0
  5 40  1  0  0  0  0
  5 41  1  0  0  0  0
  6  9  1  0  0  0  0
  7 10  2  0  0  0  0
  7 42  1  0  0  0  0
  8 11  2  0  0  0  0
  8 12  1  0  0  0  0
  9 13  2  0  0  0  0
  9 14  1  0  0  0  0
 10 13  1  0  0  0  0
 10 43  1  0  0  0  0
 11 15  1  0  0  0  0
 11 44  1  0  0  0  0
 12 16  2  0  0  0  0
 12 45  1  0  0  0  0
 13 17  1  0  0  0  0
 14 18  1  0  0  0  0
 14 46  1  0  0  0  0
 14 47  1  0  0  0  0
 15 19  2  0  0  0  0
 15 48  1  0  0  0  0
 16 19  1  0  0  0  0
 16 49  1  0  0  0  0
 17 20  1  0  0  0  0
 17 50  1  0  0  0  0
 17 51  1  0  0  0  0
 18 21  1  0  0  0  0
 18 20  1  0  0  0  0
 19 22  1  0  0  0  0
 20 52  1  0  0  0  0
 20 53  1  0  0  0  0
 21 23  2  0  0  0  0
 21 24  1  0  0  0  0
 22 25  1  0  0  0  0
 22 26  1  0  0  0  0
 22 54  1  0  0  0  0
 24 27  1  0  0  0  0
 24 28  2  0  0  0  0
 25 29  1  0  0  0  0
 25 55  1  0  0  0  0
 25 56  1  0  0  0  0
 26 30  1  0  0  0  0
 26 57  1  0  0  0  0
 26 58  1  0  0  0  0
 27 31  1  0  0  0  0
 28 32  1  0  0  0  0
 28 33  1  0  0  0  0
 29 34  1  0  0  0  0
 29 59  1  0  0  0  0
 29 60  1  0  0  0  0
 30 34  1  0  0  0  0
 30 61  1  0  0  0  0
 30 62  1  0  0  0  0
 31 35  2  0  0  0  0
 31 32  1  0  0  0  0
 32 36  2  0  0  0  0
 33 63  1  0  0  0  0
 33 64  1  0  0  0  0
 33 65  1  0  0  0  0
 35 37  1  0  0  0  0
 35 66  1  0  0  0  0
 36 38  1  0  0  0  0
 36 67  1  0  0  0  0
 37 38  2  0  0  0  0
 37 68  1  0  0  0  0
 38 69  1  0  0  0  0
M  END
>  <Molecule Name>
CTX-1020696

>  <SMILES>
CC1=C(OC2=C1C=CC=C2)C(=O)N1CCC2=CC=C(N=C2C1)C(=O)NCC1=CC=C(C=C1)C1CCOCC1

>  <Batch Name>
CTX-1020696-1

>  <Batch Created Date>
2021-12-09

>  <Batch ID>
CTX-1020696-1

>  <External ID>
CD-42-B

>  <Stereochemistry>
Achiral

>  <Amount 1>
2.3

>  <Unit 1>
mg

>  <CRO 1>
Pharmaron

>  <CRO 1 Total Amount>
20.5

>  <CRO 1 Unit>
mg

>  <Pharmaron Solubility (PBS, pH 7.4): Aqueous Solubility - Batch Mean (uM)>


>  <Pharmaron Solubility (PBS, pH 7.4): Aqueous Solubility - Batch Mean (uM) Standard Deviation (±)>


>  <Pharmaron Solubility (PBS, pH 7.4): Aqueous Solubility - Batch Mean (uM) Count>


>  <log P>
4.1

>  <log D>
4.1

>  <Pharmaron Caliper Assay (CDK2/CCNE1): Minimum measured (%)>
45.2

>  <Pharmaron Caliper Assay (CDK2/CCNE1): IC50 - Batch Mean (uM)>
1.32

>  <Pharmaron ADPGLO (CDK2/E1-25C): Minimum measured (%)>


>  <Pharmaron ADPGLO (CDK2/E1-25C): IC50 - Batch Mean (uM)>


>  <Pharmaron ADPGLO (CDK2/E1-37C): Minimum measured (%)>


>  <Pharmaron ADPGLO (CDK2/E1-37C): IC50 - Batch Mean (uM)>


>  <IncuCyte Kuramochi RB-WT: IC50 - Batch Mean (uM)>
20.0

>  <IncuCyte Kuramochi RB-KO: IC50 - Batch Mean (uM)>
20.0

>  <DSF (npCDK2/CCNE1): dTm D - Batch Mean [Concentration: 100]>


>  <DSF (npCDK2/CCNE1): dTm D - Batch Mean [Concentration: 20.0]>
1.431

>  <DSF (pCDK2/CCNE1): dTm D - Batch Mean [Concentration: 100]>


>  <DSF (pCDK2/CCNE1): dTm D - Batch Mean [Concentration: 20.0]>
0.226

>  <RLM: t1/2 - Batch Mean (Min)>
11.04

>  <RLM: Cl int - Batch Mean (uL/min/mg protein)>
125.5

>  <RLM: ER (Hepatic extraction ratio) - Batch Mean>
0.816

>  <HLM: t1/2 - Batch Mean (Min)>
3.22

>  <HLM: Cl int - Batch Mean (uL/min/mg protein)>
430.55

>  <HLM: ER (Hepatic extraction ratio) - Batch Mean>
0.955

>  <MDCK-WT 4% BSA: Papp (A-B) - Batch Mean (10-6, cm/s)>


>  <MDCK-WT 4% BSA: Papp (B-A) - Batch Mean (10-6, cm/s)>


>  <MDCK-WT 4% BSA: Efflux Ratio - Batch Mean>


>  <MDCK-WT 4% BSA: ~Net A_B - Batch Mean (10-6, cm/s)>


>  <pIC50>
5.879426

>  <Selection_1>
Y

>  <Selection_N>


>  <Serie>
Naphthyridine

>  <Selection_T>
N

>  <Train_Vs_Test>


$$$$
CTX-1020695
 OpenBabel08272613263D

 64 69  0  0  0  0  0  0  0  0999 V2000
    1.3544    0.2509    0.7142 O   0  0  0  0  0  0  0  0  0  0  0  0
    2.3202   -0.0528    0.0177 C   0  0  0  0  0  0  0  0  0  0  0  0
    2.8248   -1.3319   -0.0335 N   0  0  0  0  0  0  0  0  0  0  0  0
    2.9958    0.9923   -0.8278 C   0  0  0  0  0  0  0  0  0  0  0  0
    2.2027   -2.4135    0.6983 C   0  0  0  0  0  0  0  0  0  0  0  0
    4.0079    0.6227   -1.6761 N   0  0  0  0  0  0  0  0  0  0  0  0
    2.5189    2.2913   -0.7085 C   0  0  0  0  0  0  0  0  0  0  0  0
    3.1405   -3.0501    1.6899 C   0  0  0  0  0  0  0  0  0  0  0  0
    4.5494    1.6203   -2.4597 C   0  0  0  0  0  0  0  0  0  0  0  0
    3.0913    3.2809   -1.4900 C   0  0  0  0  0  0  0  0  0  0  0  0
    3.2623   -2.5345    2.9918 C   0  0  0  0  0  0  0  0  0  0  0  0
    3.9056   -4.1636    1.3304 C   0  0  0  0  0  0  0  0  0  0  0  0
    4.1196    2.9539   -2.3731 C   0  0  0  0  0  0  0  0  0  0  0  0
    5.6795    1.2464   -3.4365 C   0  0  0  0  0  0  0  0  0  0  0  0
    4.0994   -3.1374    3.9420 C   0  0  0  0  0  0  0  0  0  0  0  0
    4.7732   -4.7494    2.2521 C   0  0  0  0  0  0  0  0  0  0  0  0
    4.6727    4.0346   -3.2712 C   0  0  0  0  0  0  0  0  0  0  0  0
    5.9364    2.2824   -4.4490 N   0  0  0  0  0  0  0  0  0  0  0  0
    4.2390   -2.5488    5.2108 N   0  0  0  0  0  0  0  0  0  0  0  0
    4.8903   -4.2315    3.5500 C   0  0  0  0  0  0  0  0  0  0  0  0
    5.9831    3.6467   -3.9462 C   0  0  0  0  0  0  0  0  0  0  0  0
    6.2727    1.9402   -5.7710 C   0  0  0  0  0  0  0  0  0  0  0  0
    4.8104   -3.4038    6.2422 C   0  0  0  0  0  0  0  0  0  0  0  0
    5.8229   -4.8988    4.5298 C   0  0  0  0  0  0  0  0  0  0  0  0
    6.7767    0.8464   -6.0297 O   0  0  0  0  0  0  0  0  0  0  0  0
    5.7647    2.8463   -6.8244 C   0  0  0  0  0  0  0  0  0  0  0  0
    6.1084   -4.0184    5.7418 C   0  0  0  0  0  0  0  0  0  0  0  0
    4.6261    3.5362   -6.4443 O   0  0  0  0  0  0  0  0  0  0  0  0
    5.6266    2.6568   -8.2059 C   0  0  0  0  0  0  0  0  0  0  0  0
    3.6583    3.0650   -7.2649 C   0  0  0  0  0  0  0  0  0  0  0  0
    4.2283    2.4069   -8.3411 C   0  0  0  0  0  0  0  0  0  0  0  0
    6.5999    2.7153   -9.3200 C   0  0  0  0  0  0  0  0  0  0  0  0
    2.3096    3.1880   -7.0255 C   0  0  0  0  0  0  0  0  0  0  0  0
    3.3849    1.7723   -9.2631 C   0  0  0  0  0  0  0  0  0  0  0  0
    1.4743    2.4932   -7.9164 C   0  0  0  0  0  0  0  0  0  0  0  0
    2.0076    1.7864   -9.0057 C   0  0  0  0  0  0  0  0  0  0  0  0
    3.6242   -1.5144   -0.5784 H   0  0  0  0  0  0  0  0  0  0  0  0
    1.8811   -3.1594    0.0018 H   0  0  0  0  0  0  0  0  0  0  0  0
    1.3780   -2.0057    1.2447 H   0  0  0  0  0  0  0  0  0  0  0  0
    1.7546    2.5141   -0.0518 H   0  0  0  0  0  0  0  0  0  0  0  0
    2.7587    4.2553   -1.4192 H   0  0  0  0  0  0  0  0  0  0  0  0
    2.7240   -1.6940    3.2542 H   0  0  0  0  0  0  0  0  0  0  0  0
    3.8281   -4.5541    0.3783 H   0  0  0  0  0  0  0  0  0  0  0  0
    5.4099    0.3403   -3.9378 H   0  0  0  0  0  0  0  0  0  0  0  0
    6.5744    1.1358   -2.8603 H   0  0  0  0  0  0  0  0  0  0  0  0
    5.3337   -5.5709    1.9765 H   0  0  0  0  0  0  0  0  0  0  0  0
    4.8409    4.9121   -2.6824 H   0  0  0  0  0  0  0  0  0  0  0  0
    3.9541    4.2004   -4.0465 H   0  0  0  0  0  0  0  0  0  0  0  0
    3.9683   -1.6195    5.3905 H   0  0  0  0  0  0  0  0  0  0  0  0
    6.7787    3.7290   -3.2356 H   0  0  0  0  0  0  0  0  0  0  0  0
    6.1441    4.3057   -4.7737 H   0  0  0  0  0  0  0  0  0  0  0  0
    4.1175   -4.1833    6.4814 H   0  0  0  0  0  0  0  0  0  0  0  0
    5.0105   -2.8185    7.1152 H   0  0  0  0  0  0  0  0  0  0  0  0
    6.7467   -5.1142    4.0348 H   0  0  0  0  0  0  0  0  0  0  0  0
    5.3502   -5.7937    4.8770 H   0  0  0  0  0  0  0  0  0  0  0  0
    6.5442   -4.6118    6.5183 H   0  0  0  0  0  0  0  0  0  0  0  0
    6.7867   -3.2392    5.4634 H   0  0  0  0  0  0  0  0  0  0  0  0
    7.5758    2.9179   -8.9308 H   0  0  0  0  0  0  0  0  0  0  0  0
    6.3183    3.4926   -9.9992 H   0  0  0  0  0  0  0  0  0  0  0  0
    6.6091    1.7775   -9.8352 H   0  0  0  0  0  0  0  0  0  0  0  0
    1.9369    3.7515   -6.2454 H   0  0  0  0  0  0  0  0  0  0  0  0
    3.7655    1.3100  -10.1036 H   0  0  0  0  0  0  0  0  0  0  0  0
    0.4532    2.5027   -7.7677 H   0  0  0  0  0  0  0  0  0  0  0  0
    1.3718    1.2661   -9.6302 H   0  0  0  0  0  0  0  0  0  0  0  0
  1  2  2  0  0  0  0
  2  3  1  0  0  0  0
  2  4  1  0  0  0  0
  3  5  1  0  0  0  0
  3 37  1  0  0  0  0
  4  6  2  0  0  0  0
  4  7  1  0  0  0  0
  5  8  1  0  0  0  0
  5 38  1  0  0  0  0
  5 39  1  0  0  0  0
  6  9  1  0  0  0  0
  7 10  2  0  0  0  0
  7 40  1  0  0  0  0
  8 11  2  0  0  0  0
  8 12  1  0  0  0  0
  9 13  2  0  0  0  0
  9 14  1  0  0  0  0
 10 13  1  0  0  0  0
 10 41  1  0  0  0  0
 11 15  1  0  0  0  0
 11 42  1  0  0  0  0
 12 16  2  0  0  0  0
 12 43  1  0  0  0  0
 13 17  1  0  0  0  0
 14 18  1  0  0  0  0
 14 44  1  0  0  0  0
 14 45  1  0  0  0  0
 15 19  1  0  0  0  0
 15 20  2  0  0  0  0
 16 20  1  0  0  0  0
 16 46  1  0  0  0  0
 17 21  1  0  0  0  0
 17 47  1  0  0  0  0
 17 48  1  0  0  0  0
 18 22  1  0  0  0  0
 18 21  1  0  0  0  0
 19 23  1  0  0  0  0
 19 49  1  0  0  0  0
 20 24  1  0  0  0  0
 21 50  1  0  0  0  0
 21 51  1  0  0  0  0
 22 25  2  0  0  0  0
 22 26  1  0  0  0  0
 23 27  1  0  0  0  0
 23 52  1  0  0  0  0
 23 53  1  0  0  0  0
 24 27  1  0  0  0  0
 24 54  1  0  0  0  0
 24 55  1  0  0  0  0
 26 28  1  0  0  0  0
 26 29  2  0  0  0  0
 27 56  1  0  0  0  0
 27 57  1  0  0  0  0
 28 30  1  0  0  0  0
 29 31  1  0  0  0  0
 29 32  1  0  0  0  0
 30 33  2  0  0  0  0
 30 31  1  0  0  0  0
 31 34  2  0  0  0  0
 32 58  1  0  0  0  0
 32 59  1  0  0  0  0
 32 60  1  0  0  0  0
 33 35  1  0  0  0  0
 33 61  1  0  0  0  0
 34 36  1  0  0  0  0
 34 62  1  0  0  0  0
 35 36  2  0  0  0  0
 35 63  1  0  0  0  0
 36 64  1  0  0  0  0
M  END
>  <Molecule Name>
CTX-1020695

>  <SMILES>
CC1=C(OC2=C1C=CC=C2)C(=O)N1CCC2=CC=C(N=C2C1)C(=O)NCC1=CC=C2CCCNC2=C1

>  <Batch Name>
CTX-1020695-1

>  <Batch Created Date>
2021-12-09

>  <Batch ID>
CTX-1020695-1

>  <External ID>
CD-42-A

>  <Stereochemistry>
Achiral

>  <Amount 1>
7.6

>  <Unit 1>
mg

>  <CRO 1>
Pharmaron

>  <CRO 1 Total Amount>
16.9

>  <CRO 1 Unit>
mg

>  <Pharmaron Solubility (PBS, pH 7.4): Aqueous Solubility - Batch Mean (uM)>


>  <Pharmaron Solubility (PBS, pH 7.4): Aqueous Solubility - Batch Mean (uM) Standard Deviation (±)>


>  <Pharmaron Solubility (PBS, pH 7.4): Aqueous Solubility - Batch Mean (uM) Count>


>  <log P>
3.63

>  <log D>
3.63

>  <Pharmaron Caliper Assay (CDK2/CCNE1): Minimum measured (%)>
63.4

>  <Pharmaron Caliper Assay (CDK2/CCNE1): IC50 - Batch Mean (uM)>
2.72

>  <Pharmaron ADPGLO (CDK2/E1-25C): Minimum measured (%)>


>  <Pharmaron ADPGLO (CDK2/E1-25C): IC50 - Batch Mean (uM)>


>  <Pharmaron ADPGLO (CDK2/E1-37C): Minimum measured (%)>


>  <Pharmaron ADPGLO (CDK2/E1-37C): IC50 - Batch Mean (uM)>


>  <IncuCyte Kuramochi RB-WT: IC50 - Batch Mean (uM)>
7.53

>  <IncuCyte Kuramochi RB-KO: IC50 - Batch Mean (uM)>
20.0

>  <DSF (npCDK2/CCNE1): dTm D - Batch Mean [Concentration: 100]>


>  <DSF (npCDK2/CCNE1): dTm D - Batch Mean [Concentration: 20.0]>
0.29600000000000004

>  <DSF (pCDK2/CCNE1): dTm D - Batch Mean [Concentration: 100]>


>  <DSF (pCDK2/CCNE1): dTm D - Batch Mean [Concentration: 20.0]>
0.16

>  <RLM: t1/2 - Batch Mean (Min)>


>  <RLM: Cl int - Batch Mean (uL/min/mg protein)>


>  <RLM: ER (Hepatic extraction ratio) - Batch Mean>


>  <HLM: t1/2 - Batch Mean (Min)>


>  <HLM: Cl int - Batch Mean (uL/min/mg protein)>


>  <HLM: ER (Hepatic extraction ratio) - Batch Mean>


>  <MDCK-WT 4% BSA: Papp (A-B) - Batch Mean (10-6, cm/s)>


>  <MDCK-WT 4% BSA: Papp (B-A) - Batch Mean (10-6, cm/s)>


>  <MDCK-WT 4% BSA: Efflux Ratio - Batch Mean>


>  <MDCK-WT 4% BSA: ~Net A_B - Batch Mean (10-6, cm/s)>


>  <pIC50>
5.565431

>  <Selection_1>
Y

>  <Selection_N>


>  <Serie>
Naphthyridine

>  <Selection_T>
N

>  <Train_Vs_Test>


$$$$
CTX-1020685
 OpenBabel08272613263D

 70 75  0  0  0  0  0  0  0  0999 V2000
    1.2083   -0.5366   -0.5749 O   0  0  0  0  0  0  0  0  0  0  0  0
    2.2704   -0.1210   -0.0938 C   0  0  0  0  0  0  0  0  0  0  0  0
    2.7807    1.1274   -0.3695 N   0  0  0  0  0  0  0  0  0  0  0  0
    3.0682   -0.9916    0.8288 C   0  0  0  0  0  0  0  0  0  0  0  0
    2.1201    2.0209   -1.2937 C   0  0  0  0  0  0  0  0  0  0  0  0
    4.2094   -0.4789    1.3740 N   0  0  0  0  0  0  0  0  0  0  0  0
    2.6119   -2.2808    1.0674 C   0  0  0  0  0  0  0  0  0  0  0  0
    2.9768    2.3826   -2.4820 C   0  0  0  0  0  0  0  0  0  0  0  0
    4.9160   -1.3000    2.2081 C   0  0  0  0  0  0  0  0  0  0  0  0
    3.3761   -3.1183    1.8668 C   0  0  0  0  0  0  0  0  0  0  0  0
    3.4451    1.4028   -3.3661 C   0  0  0  0  0  0  0  0  0  0  0  0
    3.2652    3.7194   -2.7702 C   0  0  0  0  0  0  0  0  0  0  0  0
    4.5551   -2.6386    2.4429 C   0  0  0  0  0  0  0  0  0  0  0  0
    6.1262   -0.7042    2.9253 C   0  0  0  0  0  0  0  0  0  0  0  0
    4.2083    1.7686   -4.4950 C   0  0  0  0  0  0  0  0  0  0  0  0
    4.0413    4.0614   -3.8824 C   0  0  0  0  0  0  0  0  0  0  0  0
    5.3480   -3.5293    3.3699 C   0  0  0  0  0  0  0  0  0  0  0  0
    6.5759   -1.5157    4.0551 N   0  0  0  0  0  0  0  0  0  0  0  0
    4.5158    3.0949   -4.7751 C   0  0  0  0  0  0  0  0  0  0  0  0
    6.6961   -2.9330    3.7721 C   0  0  0  0  0  0  0  0  0  0  0  0
    7.1951   -0.8812    5.1492 C   0  0  0  0  0  0  0  0  0  0  0  0
    5.2396    3.4498   -5.8907 N   0  0  0  0  0  0  0  0  0  0  0  0
    7.5037    0.2974    5.0688 O   0  0  0  0  0  0  0  0  0  0  0  0
    7.2817   -1.6447    6.4124 C   0  0  0  0  0  0  0  0  0  0  0  0
    5.1672    2.6803   -7.1352 C   0  0  0  0  0  0  0  0  0  0  0  0
    6.2215    4.5400   -5.8643 C   0  0  0  0  0  0  0  0  0  0  0  0
    6.1978   -2.5105    6.5478 O   0  0  0  0  0  0  0  0  0  0  0  0
    7.4703   -1.1589    7.7157 C   0  0  0  0  0  0  0  0  0  0  0  0
    6.5729    2.2254   -7.5759 C   0  0  0  0  0  0  0  0  0  0  0  0
    7.5985    4.0216   -6.3475 C   0  0  0  0  0  0  0  0  0  0  0  0
    5.3942   -1.8731    7.4449 C   0  0  0  0  0  0  0  0  0  0  0  0
    6.1365   -0.9433    8.1610 C   0  0  0  0  0  0  0  0  0  0  0  0
    8.6321   -1.1381    8.6409 C   0  0  0  0  0  0  0  0  0  0  0  0
    7.5557    3.3291   -7.6560 N   0  3  0  0  0  0  0  0  0  0  0  0
    4.0395   -2.1143    7.6329 C   0  0  0  0  0  0  0  0  0  0  0  0
    5.5117   -0.2111    9.1725 C   0  0  0  0  0  0  0  0  0  0  0  0
    3.4238   -1.3319    8.6080 C   0  0  0  0  0  0  0  0  0  0  0  0
    4.1384   -0.3956    9.3628 C   0  0  0  0  0  0  0  0  0  0  0  0
    3.6119    1.4173    0.0714 H   0  0  0  0  0  0  0  0  0  0  0  0
    1.8627    2.9197   -0.7733 H   0  0  0  0  0  0  0  0  0  0  0  0
    1.2556    1.5123   -1.6665 H   0  0  0  0  0  0  0  0  0  0  0  0
    1.7229   -2.6092    0.6587 H   0  0  0  0  0  0  0  0  0  0  0  0
    3.0752   -4.0910    2.0351 H   0  0  0  0  0  0  0  0  0  0  0  0
    3.2310    0.4085   -3.1911 H   0  0  0  0  0  0  0  0  0  0  0  0
    2.9010    4.4634   -2.1547 H   0  0  0  0  0  0  0  0  0  0  0  0
    5.8640    0.2682    3.2867 H   0  0  0  0  0  0  0  0  0  0  0  0
    6.9294   -0.6642    2.2196 H   0  0  0  0  0  0  0  0  0  0  0  0
    4.5480    1.0303   -5.1310 H   0  0  0  0  0  0  0  0  0  0  0  0
    4.2701    5.0538   -4.0488 H   0  0  0  0  0  0  0  0  0  0  0  0
    5.5227   -4.4629    2.8772 H   0  0  0  0  0  0  0  0  0  0  0  0
    4.7735   -3.6479    4.2648 H   0  0  0  0  0  0  0  0  0  0  0  0
    7.3925   -3.0718    2.9717 H   0  0  0  0  0  0  0  0  0  0  0  0
    7.0369   -3.4287    4.6570 H   0  0  0  0  0  0  0  0  0  0  0  0
    4.7392    3.2917   -7.9019 H   0  0  0  0  0  0  0  0  0  0  0  0
    4.5610    1.8143   -6.9699 H   0  0  0  0  0  0  0  0  0  0  0  0
    6.3129    4.9109   -4.8648 H   0  0  0  0  0  0  0  0  0  0  0  0
    5.8934    5.3252   -6.5130 H   0  0  0  0  0  0  0  0  0  0  0  0
    6.4941    1.7720   -8.5419 H   0  0  0  0  0  0  0  0  0  0  0  0
    6.9285    1.5423   -6.8331 H   0  0  0  0  0  0  0  0  0  0  0  0
    7.9757    3.3372   -5.6167 H   0  0  0  0  0  0  0  0  0  0  0  0
    8.2262    4.8792   -6.4713 H   0  0  0  0  0  0  0  0  0  0  0  0
    9.5303   -1.3232    8.0898 H   0  0  0  0  0  0  0  0  0  0  0  0
    8.5082   -1.8959    9.3861 H   0  0  0  0  0  0  0  0  0  0  0  0
    8.6946   -0.1801    9.1134 H   0  0  0  0  0  0  0  0  0  0  0  0
    7.2751    3.9867   -8.3835 H   0  0  0  0  0  0  0  0  0  0  0  0
    8.4781    2.9577   -7.8833 H   0  0  0  0  0  0  0  0  0  0  0  0
    3.5245   -2.8237    7.0884 H   0  0  0  0  0  0  0  0  0  0  0  0
    6.0467    0.4460    9.7615 H   0  0  0  0  0  0  0  0  0  0  0  0
    2.4123   -1.4464    8.7780 H   0  0  0  0  0  0  0  0  0  0  0  0
    3.6441    0.1682   10.0718 H   0  0  0  0  0  0  0  0  0  0  0  0
  1  2  2  0  0  0  0
  2  3  1  0  0  0  0
  2  4  1  0  0  0  0
  3  5  1  0  0  0  0
  3 39  1  0  0  0  0
  4  6  2  0  0  0  0
  4  7  1  0  0  0  0
  5  8  1  0  0  0  0
  5 40  1  0  0  0  0
  5 41  1  0  0  0  0
  6  9  1  0  0  0  0
  7 10  2  0  0  0  0
  7 42  1  0  0  0  0
  8 11  2  0  0  0  0
  8 12  1  0  0  0  0
  9 13  2  0  0  0  0
  9 14  1  0  0  0  0
 10 13  1  0  0  0  0
 10 43  1  0  0  0  0
 11 15  1  0  0  0  0
 11 44  1  0  0  0  0
 12 16  2  0  0  0  0
 12 45  1  0  0  0  0
 13 17  1  0  0  0  0
 14 18  1  0  0  0  0
 14 46  1  0  0  0  0
 14 47  1  0  0  0  0
 15 19  2  0  0  0  0
 15 48  1  0  0  0  0
 16 19  1  0  0  0  0
 16 49  1  0  0  0  0
 17 20  1  0  0  0  0
 17 50  1  0  0  0  0
 17 51  1  0  0  0  0
 18 21  1  0  0  0  0
 18 20  1  0  0  0  0
 19 22  1  0  0  0  0
 20 52  1  0  0  0  0
 20 53  1  0  0  0  0
 21 23  2  0  0  0  0
 21 24  1  0  0  0  0
 22 25  1  0  0  0  0
 22 26  1  0  0  0  0
 24 27  1  0  0  0  0
 24 28  2  0  0  0  0
 25 29  1  0  0  0  0
 25 54  1  0  0  0  0
 25 55  1  0  0  0  0
 26 30  1  0  0  0  0
 26 56  1  0  0  0  0
 26 57  1  0  0  0  0
 27 31  1  0  0  0  0
 28 32  1  0  0  0  0
 28 33  1  0  0  0  0
 29 34  1  0  0  0  0
 29 58  1  0  0  0  0
 29 59  1  0  0  0  0
 30 34  1  0  0  0  0
 30 60  1  0  0  0  0
 30 61  1  0  0  0  0
 31 35  2  0  0  0  0
 31 32  1  0  0  0  0
 32 36  2  0  0  0  0
 33 62  1  0  0  0  0
 33 63  1  0  0  0  0
 33 64  1  0  0  0  0
 34 65  1  0  0  0  0
 34 66  1  0  0  0  0
 35 37  1  0  0  0  0
 35 67  1  0  0  0  0
 36 38  1  0  0  0  0
 36 68  1  0  0  0  0
 37 38  2  0  0  0  0
 37 69  1  0  0  0  0
 38 70  1  0  0  0  0
M  CHG  1  34   1
M  END
>  <Molecule Name>
CTX-1020685

>  <SMILES>
CC1=C(OC2=C1C=CC=C2)C(=O)N1CCC2=CC=C(N=C2C1)C(=O)NCC1=CC=C(C=C1)N1CCNCC1

>  <Batch Name>
CTX-1020685-1

>  <Batch Created Date>
2021-12-03

>  <Batch ID>
CTX-1020685-1

>  <External ID>
CD-42-H

>  <Stereochemistry>
Achiral

>  <Amount 1>
4.9

>  <Unit 1>
mg

>  <CRO 1>
Pharmaron

>  <CRO 1 Total Amount>
16.4

>  <CRO 1 Unit>
mg

>  <Pharmaron Solubility (PBS, pH 7.4): Aqueous Solubility - Batch Mean (uM)>
313.2668

>  <Pharmaron Solubility (PBS, pH 7.4): Aqueous Solubility - Batch Mean (uM) Standard Deviation (±)>


>  <Pharmaron Solubility (PBS, pH 7.4): Aqueous Solubility - Batch Mean (uM) Count>
1.0

>  <log P>
3.25

>  <log D>
1.76

>  <Pharmaron Caliper Assay (CDK2/CCNE1): Minimum measured (%)>
38.3

>  <Pharmaron Caliper Assay (CDK2/CCNE1): IC50 - Batch Mean (uM)>
53.2

>  <Pharmaron ADPGLO (CDK2/E1-25C): Minimum measured (%)>


>  <Pharmaron ADPGLO (CDK2/E1-25C): IC50 - Batch Mean (uM)>


>  <Pharmaron ADPGLO (CDK2/E1-37C): Minimum measured (%)>


>  <Pharmaron ADPGLO (CDK2/E1-37C): IC50 - Batch Mean (uM)>


>  <IncuCyte Kuramochi RB-WT: IC50 - Batch Mean (uM)>
7.39

>  <IncuCyte Kuramochi RB-KO: IC50 - Batch Mean (uM)>
5.98

>  <DSF (npCDK2/CCNE1): dTm D - Batch Mean [Concentration: 100]>


>  <DSF (npCDK2/CCNE1): dTm D - Batch Mean [Concentration: 20.0]>
1.403

>  <DSF (pCDK2/CCNE1): dTm D - Batch Mean [Concentration: 100]>


>  <DSF (pCDK2/CCNE1): dTm D - Batch Mean [Concentration: 20.0]>
0.31

>  <RLM: t1/2 - Batch Mean (Min)>
18.44

>  <RLM: Cl int - Batch Mean (uL/min/mg protein)>
75.18

>  <RLM: ER (Hepatic extraction ratio) - Batch Mean>
0.73

>  <HLM: t1/2 - Batch Mean (Min)>
35.19

>  <HLM: Cl int - Batch Mean (uL/min/mg protein)>
39.39

>  <HLM: ER (Hepatic extraction ratio) - Batch Mean>
0.6579999999999999

>  <MDCK-WT 4% BSA: Papp (A-B) - Batch Mean (10-6, cm/s)>


>  <MDCK-WT 4% BSA: Papp (B-A) - Batch Mean (10-6, cm/s)>


>  <MDCK-WT 4% BSA: Efflux Ratio - Batch Mean>


>  <MDCK-WT 4% BSA: ~Net A_B - Batch Mean (10-6, cm/s)>


>  <pIC50>
4.274088

>  <Selection_1>
Y

>  <Selection_N>


>  <Serie>
Naphthyridine

>  <Selection_T>
N

>  <Train_Vs_Test>


$$$$
CTX-1020671
 OpenBabel08272613263D

 49 53  0  0  0  0  0  0  0  0999 V2000
    1.8120   -0.6936   -0.0645 S   0  0  0  0  0  0  0  0  0  0  0  0
    2.1507    0.9860    0.0107 C   0  0  0  0  0  0  0  0  0  0  0  0
    0.1338   -0.4245    0.0044 C   0  0  0  0  0  0  0  0  0  0  0  0
    3.5004    1.5375    0.0082 C   0  0  0  0  0  0  0  0  0  0  0  0
    0.9810    1.7260    0.0808 C   0  0  0  0  0  0  0  0  0  0  0  0
   -0.1914    0.9172    0.1002 C   0  0  0  0  0  0  0  0  0  0  0  0
   -0.8838   -1.5301   -0.0762 C   0  0  0  0  0  0  0  0  0  0  0  0
    3.7043    2.7499    0.0445 O   0  0  0  0  0  0  0  0  0  0  0  0
    4.5428    0.6371   -0.0220 N   0  0  0  0  0  0  0  0  0  0  0  0
   -1.6094    1.3969    0.2194 C   0  0  0  0  0  0  0  0  0  0  0  0
   -2.2771   -0.9729    0.2891 C   0  0  0  0  0  0  0  0  0  0  0  0
    5.9239    1.0597    0.0438 C   0  0  0  0  0  0  0  0  0  0  0  0
   -2.4838    0.3515   -0.3239 N   0  0  0  0  0  0  0  0  0  0  0  0
    6.7085    0.6519   -1.1768 C   0  0  0  0  0  0  0  0  0  0  0  0
   -3.4033    0.4862   -1.3634 C   0  0  0  0  0  0  0  0  0  0  0  0
    6.3253    1.0957   -2.4515 C   0  0  0  0  0  0  0  0  0  0  0  0
    7.8788   -0.1111   -1.0518 C   0  0  0  0  0  0  0  0  0  0  0  0
   -4.1966   -0.4120   -1.6352 O   0  0  0  0  0  0  0  0  0  0  0  0
   -3.4328    1.7227   -2.1315 C   0  0  0  0  0  0  0  0  0  0  0  0
    7.0938    0.7825   -3.5742 C   0  0  0  0  0  0  0  0  0  0  0  0
    8.6480   -0.4210   -2.1757 C   0  0  0  0  0  0  0  0  0  0  0  0
   -4.5487    2.3119   -2.6975 C   0  0  0  0  0  0  0  0  0  0  0  0
   -2.3846    2.5537   -2.5876 C   0  0  0  0  0  0  0  0  0  0  0  0
    8.2567    0.0277   -3.4355 C   0  0  0  0  0  0  0  0  0  0  0  0
   -4.1473    3.4779   -3.3113 N   0  0  0  0  0  0  0  0  0  0  0  0
   -5.9445    1.9708   -2.7541 C   0  0  0  0  0  0  0  0  0  0  0  0
   -2.8084    3.6408   -3.2337 N   0  0  0  0  0  0  0  0  0  0  0  0
   -5.0864    4.2971   -3.9107 C   0  0  0  0  0  0  0  0  0  0  0  0
   -6.8230    2.7431   -3.3356 N   0  0  0  0  0  0  0  0  0  0  0  0
   -6.3724    3.9167   -3.9089 C   0  0  0  0  0  0  0  0  0  0  0  0
    0.9614    2.7572    0.1153 H   0  0  0  0  0  0  0  0  0  0  0  0
   -0.6199   -2.3087    0.6087 H   0  0  0  0  0  0  0  0  0  0  0  0
   -0.9059   -1.9236   -1.0710 H   0  0  0  0  0  0  0  0  0  0  0  0
    4.3409   -0.3241   -0.0905 H   0  0  0  0  0  0  0  0  0  0  0  0
   -1.7353    2.3022   -0.3370 H   0  0  0  0  0  0  0  0  0  0  0  0
   -1.8527    1.5932    1.2427 H   0  0  0  0  0  0  0  0  0  0  0  0
   -2.3521   -0.8835    1.3528 H   0  0  0  0  0  0  0  0  0  0  0  0
   -3.0244   -1.6439   -0.0798 H   0  0  0  0  0  0  0  0  0  0  0  0
    6.3774    0.6189    0.9069 H   0  0  0  0  0  0  0  0  0  0  0  0
    5.9359    2.1283    0.0972 H   0  0  0  0  0  0  0  0  0  0  0  0
    5.4674    1.6590   -2.5601 H   0  0  0  0  0  0  0  0  0  0  0  0
    8.1741   -0.4464   -0.1215 H   0  0  0  0  0  0  0  0  0  0  0  0
    6.8003    1.1103   -4.5076 H   0  0  0  0  0  0  0  0  0  0  0  0
    9.5074   -0.9831   -2.0729 H   0  0  0  0  0  0  0  0  0  0  0  0
   -1.3866    2.3398   -2.4353 H   0  0  0  0  0  0  0  0  0  0  0  0
    8.8276   -0.1988   -4.2648 H   0  0  0  0  0  0  0  0  0  0  0  0
   -6.2619    1.0890   -2.3220 H   0  0  0  0  0  0  0  0  0  0  0  0
   -4.8026    5.1859   -4.3517 H   0  0  0  0  0  0  0  0  0  0  0  0
   -7.0640    4.5350   -4.3610 H   0  0  0  0  0  0  0  0  0  0  0  0
  1  2  1  0  0  0  0
  1  3  1  0  0  0  0
  2  4  1  0  0  0  0
  2  5  2  0  0  0  0
  3  6  2  0  0  0  0
  3  7  1  0  0  0  0
  4  8  2  0  0  0  0
  4  9  1  0  0  0  0
  5  6  1  0  0  0  0
  5 31  1  0  0  0  0
  6 10  1  0  0  0  0
  7 11  1  0  0  0  0
  7 32  1  0  0  0  0
  7 33  1  0  0  0  0
  9 12  1  0  0  0  0
  9 34  1  0  0  0  0
 10 13  1  0  0  0  0
 10 35  1  0  0  0  0
 10 36  1  0  0  0  0
 11 13  1  0  0  0  0
 11 37  1  0  0  0  0
 11 38  1  0  0  0  0
 12 14  1  0  0  0  0
 12 39  1  0  0  0  0
 12 40  1  0  0  0  0
 13 15  1  0  0  0  0
 14 16  2  0  0  0  0
 14 17  1  0  0  0  0
 15 18  2  0  0  0  0
 15 19  1  0  0  0  0
 16 20  1  0  0  0  0
 16 41  1  0  0  0  0
 17 21  2  0  0  0  0
 17 42  1  0  0  0  0
 19 22  2  0  0  0  0
 19 23  1  0  0  0  0
 20 24  2  0  0  0  0
 20 43  1  0  0  0  0
 21 24  1  0  0  0  0
 21 44  1  0  0  0  0
 22 25  1  0  0  0  0
 22 26  1  0  0  0  0
 23 27  2  0  0  0  0
 23 45  1  0  0  0  0
 24 46  1  0  0  0  0
 25 28  1  0  0  0  0
 25 27  1  0  0  0  0
 26 29  2  0  0  0  0
 26 47  1  0  0  0  0
 28 30  2  0  0  0  0
 28 48  1  0  0  0  0
 29 30  1  0  0  0  0
 30 49  1  0  0  0  0
M  END
>  <Molecule Name>
CTX-1020671

>  <SMILES>
O=C(NCC1=CC=CC=C1)C1=CC2=C(CCN(C2)C(=O)C2=C3C=NC=CN3N=C2)S1

>  <Batch Name>
CTX-1020671-1

>  <Batch Created Date>
2021-12-03

>  <Batch ID>
CTX-1020671-1

>  <External ID>
610EDL218-3

>  <Stereochemistry>
Achiral

>  <Amount 1>
5.4

>  <Unit 1>
mg

>  <CRO 1>
Pharmaron

>  <CRO 1 Total Amount>
21.2

>  <CRO 1 Unit>
mg

>  <Pharmaron Solubility (PBS, pH 7.4): Aqueous Solubility - Batch Mean (uM)>
60.0

>  <Pharmaron Solubility (PBS, pH 7.4): Aqueous Solubility - Batch Mean (uM) Standard Deviation (±)>


>  <Pharmaron Solubility (PBS, pH 7.4): Aqueous Solubility - Batch Mean (uM) Count>
1.0

>  <log P>
2.19

>  <log D>
2.19

>  <Pharmaron Caliper Assay (CDK2/CCNE1): Minimum measured (%)>
8.18

>  <Pharmaron Caliper Assay (CDK2/CCNE1): IC50 - Batch Mean (uM)>
3.44

>  <Pharmaron ADPGLO (CDK2/E1-25C): Minimum measured (%)>


>  <Pharmaron ADPGLO (CDK2/E1-25C): IC50 - Batch Mean (uM)>


>  <Pharmaron ADPGLO (CDK2/E1-37C): Minimum measured (%)>


>  <Pharmaron ADPGLO (CDK2/E1-37C): IC50 - Batch Mean (uM)>


>  <IncuCyte Kuramochi RB-WT: IC50 - Batch Mean (uM)>
6.11

>  <IncuCyte Kuramochi RB-KO: IC50 - Batch Mean (uM)>
9.1

>  <DSF (npCDK2/CCNE1): dTm D - Batch Mean [Concentration: 100]>


>  <DSF (npCDK2/CCNE1): dTm D - Batch Mean [Concentration: 20.0]>
0.996

>  <DSF (pCDK2/CCNE1): dTm D - Batch Mean [Concentration: 100]>


>  <DSF (pCDK2/CCNE1): dTm D - Batch Mean [Concentration: 20.0]>
1.111

>  <RLM: t1/2 - Batch Mean (Min)>


>  <RLM: Cl int - Batch Mean (uL/min/mg protein)>


>  <RLM: ER (Hepatic extraction ratio) - Batch Mean>


>  <HLM: t1/2 - Batch Mean (Min)>


>  <HLM: Cl int - Batch Mean (uL/min/mg protein)>


>  <HLM: ER (Hepatic extraction ratio) - Batch Mean>


>  <MDCK-WT 4% BSA: Papp (A-B) - Batch Mean (10-6, cm/s)>


>  <MDCK-WT 4% BSA: Papp (B-A) - Batch Mean (10-6, cm/s)>


>  <MDCK-WT 4% BSA: Efflux Ratio - Batch Mean>


>  <MDCK-WT 4% BSA: ~Net A_B - Batch Mean (10-6, cm/s)>


>  <pIC50>
5.463442

>  <Selection_1>
Y

>  <Selection_N>
N

>  <Serie>
Tetrahydrothienopyridine

>  <Selection_T>


>  <Train_Vs_Test>


$$$$
CTX-1020670
 OpenBabel08272613263D

 50 54  0  0  0  0  0  0  0  0999 V2000
    3.3337   -0.6934    1.9652 Cl  0  0  0  0  0  0  0  0  0  0  0  0
    4.3547   -1.8417    2.7617 C   0  0  0  0  0  0  0  0  0  0  0  0
    4.8694   -3.0079    2.1909 C   0  0  0  0  0  0  0  0  0  0  0  0
    4.7152   -1.6572    4.1438 C   0  0  0  0  0  0  0  0  0  0  0  0
    5.8677   -3.8170    3.2988 S   0  0  0  0  0  0  0  0  0  0  0  0
    4.6950   -3.4447    0.8075 C   0  0  0  0  0  0  0  0  0  0  0  0
    5.5571   -2.6903    4.5688 C   0  0  0  0  0  0  0  0  0  0  0  0
    4.3629   -0.6551    5.0993 C   0  0  0  0  0  0  0  0  0  0  0  0
    4.6376   -2.5892   -0.0849 O   0  0  0  0  0  0  0  0  0  0  0  0
    4.3069   -4.7730    0.4846 N   0  0  0  0  0  0  0  0  0  0  0  0
    6.0471   -2.7422    5.8812 C   0  0  0  0  0  0  0  0  0  0  0  0
    4.8385   -0.7202    6.4121 C   0  0  0  0  0  0  0  0  0  0  0  0
    5.0650   -6.0476    0.7605 C   0  0  0  0  0  0  0  0  0  0  0  0
    3.1636   -4.7949   -0.4415 C   0  0  0  0  0  0  0  0  0  0  0  0
    5.6763   -1.7564    6.7991 C   0  0  0  0  0  0  0  0  0  0  0  0
    4.2929   -7.2834    0.2846 C   0  0  0  0  0  0  0  0  0  0  0  0
    3.0514   -5.9318   -1.4482 C   0  0  0  0  0  0  0  0  0  0  0  0
    3.4757   -7.1895   -0.8224 C   0  0  0  0  0  0  0  0  0  0  0  0
    4.1487   -8.6298    0.8328 C   0  0  0  0  0  0  0  0  0  0  0  0
    2.8869   -8.6786   -1.3749 S   0  0  0  0  0  0  0  0  0  0  0  0
    3.0722   -9.2773    0.2221 C   0  0  0  0  0  0  0  0  0  0  0  0
    2.0754  -10.2212    0.6904 C   0  0  0  0  0  0  0  0  0  0  0  0
    2.2647  -11.4309    0.8201 O   0  0  0  0  0  0  0  0  0  0  0  0
    0.8235   -9.6838    0.9690 N   0  0  0  0  0  0  0  0  0  0  0  0
    0.4265   -8.2958    0.7816 C   0  0  0  0  0  0  0  0  0  0  0  0
   -0.5655   -7.7922    1.7914 C   0  0  0  0  0  0  0  0  0  0  0  0
   -0.1232   -7.4488    3.0775 C   0  0  0  0  0  0  0  0  0  0  0  0
   -1.9004   -7.5491    1.4430 C   0  0  0  0  0  0  0  0  0  0  0  0
   -0.9909   -6.8493    3.9893 C   0  0  0  0  0  0  0  0  0  0  0  0
   -2.7689   -6.9523    2.3599 C   0  0  0  0  0  0  0  0  0  0  0  0
   -2.3126   -6.5978    3.6289 C   0  0  0  0  0  0  0  0  0  0  0  0
    3.7501    0.1258    4.8170 H   0  0  0  0  0  0  0  0  0  0  0  0
    6.6793   -3.5057    6.1682 H   0  0  0  0  0  0  0  0  0  0  0  0
    4.5661    0.0040    7.0950 H   0  0  0  0  0  0  0  0  0  0  0  0
    5.2338   -6.1291    1.8139 H   0  0  0  0  0  0  0  0  0  0  0  0
    5.9903   -6.0068    0.2248 H   0  0  0  0  0  0  0  0  0  0  0  0
    3.1952   -3.8831   -1.0004 H   0  0  0  0  0  0  0  0  0  0  0  0
    2.3175   -4.9341    0.1985 H   0  0  0  0  0  0  0  0  0  0  0  0
    6.0269   -1.7991    7.7688 H   0  0  0  0  0  0  0  0  0  0  0  0
    3.6780   -5.7244   -2.2904 H   0  0  0  0  0  0  0  0  0  0  0  0
    2.0350   -6.0212   -1.7702 H   0  0  0  0  0  0  0  0  0  0  0  0
    4.7520   -9.0410    1.5622 H   0  0  0  0  0  0  0  0  0  0  0  0
    0.1426  -10.2989    1.3259 H   0  0  0  0  0  0  0  0  0  0  0  0
   -0.0086   -8.2006   -0.1913 H   0  0  0  0  0  0  0  0  0  0  0  0
    1.3113   -7.7063    0.9024 H   0  0  0  0  0  0  0  0  0  0  0  0
    0.8530   -7.6417    3.3512 H   0  0  0  0  0  0  0  0  0  0  0  0
   -2.2433   -7.8118    0.5057 H   0  0  0  0  0  0  0  0  0  0  0  0
   -0.6543   -6.5922    4.9303 H   0  0  0  0  0  0  0  0  0  0  0  0
   -3.7508   -6.7734    2.0974 H   0  0  0  0  0  0  0  0  0  0  0  0
   -2.9543   -6.1490    4.3011 H   0  0  0  0  0  0  0  0  0  0  0  0
  1  2  1  0  0  0  0
  2  3  2  0  0  0  0
  2  4  1  0  0  0  0
  3  5  1  0  0  0  0
  3  6  1  0  0  0  0
  4  7  2  0  0  0  0
  4  8  1  0  0  0  0
  5  7  1  0  0  0  0
  6  9  2  0  0  0  0
  6 10  1  0  0  0  0
  7 11  1  0  0  0  0
  8 12  2  0  0  0  0
  8 32  1  0  0  0  0
 10 13  1  0  0  0  0
 10 14  1  0  0  0  0
 11 15  2  0  0  0  0
 11 33  1  0  0  0  0
 12 15  1  0  0  0  0
 12 34  1  0  0  0  0
 13 16  1  0  0  0  0
 13 35  1  0  0  0  0
 13 36  1  0  0  0  0
 14 17  1  0  0  0  0
 14 37  1  0  0  0  0
 14 38  1  0  0  0  0
 15 39  1  0  0  0  0
 16 18  2  0  0  0  0
 16 19  1  0  0  0  0
 17 18  1  0  0  0  0
 17 40  1  0  0  0  0
 17 41  1  0  0  0  0
 18 20  1  0  0  0  0
 19 21  2  0  0  0  0
 19 42  1  0  0  0  0
 20 21  1  0  0  0  0
 21 22  1  0  0  0  0
 22 23  2  0  0  0  0
 22 24  1  0  0  0  0
 24 25  1  0  0  0  0
 24 43  1  0  0  0  0
 25 26  1  0  0  0  0
 25 44  1  0  0  0  0
 25 45  1  0  0  0  0
 26 27  2  0  0  0  0
 26 28  1  0  0  0  0
 27 29  1  0  0  0  0
 27 46  1  0  0  0  0
 28 30  2  0  0  0  0
 28 47  1  0  0  0  0
 29 31  2  0  0  0  0
 29 48  1  0  0  0  0
 30 31  1  0  0  0  0
 30 49  1  0  0  0  0
 31 50  1  0  0  0  0
M  END
>  <Molecule Name>
CTX-1020670

>  <SMILES>
ClC1=C(SC2=C1C=CC=C2)C(=O)N1CCC2=C(C1)C=C(S2)C(=O)NCC1=CC=CC=C1

>  <Batch Name>
CTX-1020670-1

>  <Batch Created Date>
2021-12-03

>  <Batch ID>
CTX-1020670-1

>  <External ID>
610EDL217-3

>  <Stereochemistry>
Achiral

>  <Amount 1>
6.9

>  <Unit 1>
mg

>  <CRO 1>
Pharmaron

>  <CRO 1 Total Amount>
35.5

>  <CRO 1 Unit>
mg

>  <Pharmaron Solubility (PBS, pH 7.4): Aqueous Solubility - Batch Mean (uM)>
0.0001

>  <Pharmaron Solubility (PBS, pH 7.4): Aqueous Solubility - Batch Mean (uM) Standard Deviation (±)>


>  <Pharmaron Solubility (PBS, pH 7.4): Aqueous Solubility - Batch Mean (uM) Count>
1.0

>  <log P>
5.49

>  <log D>
5.49

>  <Pharmaron Caliper Assay (CDK2/CCNE1): Minimum measured (%)>
73.0

>  <Pharmaron Caliper Assay (CDK2/CCNE1): IC50 - Batch Mean (uM)>
1.25

>  <Pharmaron ADPGLO (CDK2/E1-25C): Minimum measured (%)>


>  <Pharmaron ADPGLO (CDK2/E1-25C): IC50 - Batch Mean (uM)>


>  <Pharmaron ADPGLO (CDK2/E1-37C): Minimum measured (%)>


>  <Pharmaron ADPGLO (CDK2/E1-37C): IC50 - Batch Mean (uM)>


>  <IncuCyte Kuramochi RB-WT: IC50 - Batch Mean (uM)>
20.0

>  <IncuCyte Kuramochi RB-KO: IC50 - Batch Mean (uM)>
20.0

>  <DSF (npCDK2/CCNE1): dTm D - Batch Mean [Concentration: 100]>


>  <DSF (npCDK2/CCNE1): dTm D - Batch Mean [Concentration: 20.0]>
0.32899999999999996

>  <DSF (pCDK2/CCNE1): dTm D - Batch Mean [Concentration: 100]>


>  <DSF (pCDK2/CCNE1): dTm D - Batch Mean [Concentration: 20.0]>
0.14300000000000002

>  <RLM: t1/2 - Batch Mean (Min)>


>  <RLM: Cl int - Batch Mean (uL/min/mg protein)>


>  <RLM: ER (Hepatic extraction ratio) - Batch Mean>


>  <HLM: t1/2 - Batch Mean (Min)>


>  <HLM: Cl int - Batch Mean (uL/min/mg protein)>


>  <HLM: ER (Hepatic extraction ratio) - Batch Mean>


>  <MDCK-WT 4% BSA: Papp (A-B) - Batch Mean (10-6, cm/s)>


>  <MDCK-WT 4% BSA: Papp (B-A) - Batch Mean (10-6, cm/s)>


>  <MDCK-WT 4% BSA: Efflux Ratio - Batch Mean>


>  <MDCK-WT 4% BSA: ~Net A_B - Batch Mean (10-6, cm/s)>


>  <pIC50>
5.90309

>  <Selection_1>
Y

>  <Selection_N>
N

>  <Serie>
Tetrahydrothienopyridine

>  <Selection_T>


>  <Train_Vs_Test>


$$$$
CTX-1020669
 OpenBabel08272613263D

 68 73  0  0  0  0  0  0  0  0999 V2000
   11.1289  -12.5962    1.5622 Cl  0  0  0  0  0  0  0  0  0  0  0  0
   10.6312  -11.3567    2.6489 C   0  0  0  0  0  0  0  0  0  0  0  0
    9.7230  -10.3355    2.3561 C   0  0  0  0  0  0  0  0  0  0  0  0
   11.1645  -11.3371    4.0266 C   0  0  0  0  0  0  0  0  0  0  0  0
    9.4520   -9.4147    3.8005 S   0  0  0  0  0  0  0  0  0  0  0  0
    9.0058   -9.9169    1.0714 C   0  0  0  0  0  0  0  0  0  0  0  0
   10.5554  -10.3260    4.7647 C   0  0  0  0  0  0  0  0  0  0  0  0
   12.1507  -12.1297    4.7286 C   0  0  0  0  0  0  0  0  0  0  0  0
    9.5102  -10.0552   -0.0420 O   0  0  0  0  0  0  0  0  0  0  0  0
    7.6434   -9.4432    1.2016 N   0  0  0  0  0  0  0  0  0  0  0  0
   10.8571  -10.1121    6.1355 C   0  0  0  0  0  0  0  0  0  0  0  0
   12.4939  -11.9048    6.0810 C   0  0  0  0  0  0  0  0  0  0  0  0
    6.8804   -8.5406    0.1702 C   0  0  0  0  0  0  0  0  0  0  0  0
    6.8456  -10.4960    1.7981 C   0  0  0  0  0  0  0  0  0  0  0  0
   11.8500  -10.8867    6.7803 C   0  0  0  0  0  0  0  0  0  0  0  0
    5.3139   -8.6170    0.3520 C   0  0  0  0  0  0  0  0  0  0  0  0
    5.5515  -10.0383    2.4193 C   0  0  0  0  0  0  0  0  0  0  0  0
    4.8140   -9.1692    1.5122 C   0  0  0  0  0  0  0  0  0  0  0  0
    4.1265   -8.3740   -0.5084 C   0  0  0  0  0  0  0  0  0  0  0  0
    3.1697   -8.8903    1.7762 S   0  0  0  0  0  0  0  0  0  0  0  0
    2.9874   -8.9510    0.0745 C   0  0  0  0  0  0  0  0  0  0  0  0
    1.7828   -9.6277   -0.3937 C   0  0  0  0  0  0  0  0  0  0  0  0
    0.7653   -9.0523   -0.7793 O   0  0  0  0  0  0  0  0  0  0  0  0
    1.7870  -11.0203   -0.2805 N   0  0  0  0  0  0  0  0  0  0  0  0
    2.9180  -11.8430    0.1058 C   0  0  0  0  0  0  0  0  0  0  0  0
    2.8617  -13.2250   -0.4764 C   0  0  0  0  0  0  0  0  0  0  0  0
    2.9796  -13.3874   -1.8668 C   0  0  0  0  0  0  0  0  0  0  0  0
    2.7624  -14.3683    0.3175 C   0  0  0  0  0  0  0  0  0  0  0  0
    2.9905  -14.6567   -2.4368 C   0  0  0  0  0  0  0  0  0  0  0  0
    2.7527  -15.6451   -0.2805 C   0  0  0  0  0  0  0  0  0  0  0  0
    2.8394  -15.8289   -1.6669 C   0  0  0  0  0  0  0  0  0  0  0  0
    2.7553  -17.0725   -2.2678 N   0  0  0  0  0  0  0  0  0  0  0  0
    3.5654  -17.4239   -3.4456 C   0  0  0  0  0  0  0  0  0  0  0  0
    2.0552  -18.1751   -1.6508 C   0  0  0  0  0  0  0  0  0  0  0  0
    2.7038  -18.2034   -4.4652 C   0  0  0  0  0  0  0  0  0  0  0  0
    1.2427  -18.9566   -2.7066 C   0  0  0  0  0  0  0  0  0  0  0  0
    2.0731  -19.3961   -3.8512 N   0  3  0  0  0  0  0  0  0  0  0  0
    1.2704  -20.1215   -4.8290 C   0  0  0  0  0  0  0  0  0  0  0  0
   12.6240  -12.8925    4.2196 H   0  0  0  0  0  0  0  0  0  0  0  0
   10.3487   -9.3868    6.6651 H   0  0  0  0  0  0  0  0  0  0  0  0
   13.2105  -12.4859    6.5434 H   0  0  0  0  0  0  0  0  0  0  0  0
    7.1282   -8.8635   -0.8193 H   0  0  0  0  0  0  0  0  0  0  0  0
    7.1805   -7.5271    0.3369 H   0  0  0  0  0  0  0  0  0  0  0  0
    7.4319  -10.9658    2.5600 H   0  0  0  0  0  0  0  0  0  0  0  0
    6.5778  -11.1572    1.0007 H   0  0  0  0  0  0  0  0  0  0  0  0
   12.0962  -10.6981    7.7646 H   0  0  0  0  0  0  0  0  0  0  0  0
    5.7663   -9.5020    3.3199 H   0  0  0  0  0  0  0  0  0  0  0  0
    4.9514  -10.8991    2.6287 H   0  0  0  0  0  0  0  0  0  0  0  0
    4.1379   -7.8575   -1.4018 H   0  0  0  0  0  0  0  0  0  0  0  0
    0.9437  -11.4869   -0.4815 H   0  0  0  0  0  0  0  0  0  0  0  0
    2.9337  -11.9225    1.1727 H   0  0  0  0  0  0  0  0  0  0  0  0
    3.8013  -11.3716   -0.2718 H   0  0  0  0  0  0  0  0  0  0  0  0
    3.0589  -12.5557   -2.4725 H   0  0  0  0  0  0  0  0  0  0  0  0
    2.6960  -14.2792    1.3435 H   0  0  0  0  0  0  0  0  0  0  0  0
    3.1135  -14.7434   -3.4577 H   0  0  0  0  0  0  0  0  0  0  0  0
    2.6788  -16.4765    0.3264 H   0  0  0  0  0  0  0  0  0  0  0  0
    4.3904  -18.0328   -3.1396 H   0  0  0  0  0  0  0  0  0  0  0  0
    3.9273  -16.5272   -3.9038 H   0  0  0  0  0  0  0  0  0  0  0  0
    1.3897  -17.7960   -0.9036 H   0  0  0  0  0  0  0  0  0  0  0  0
    2.7707  -18.8347   -1.2060 H   0  0  0  0  0  0  0  0  0  0  0  0
    3.3266  -18.5192   -5.2759 H   0  0  0  0  0  0  0  0  0  0  0  0
    1.9257  -17.5546   -4.8095 H   0  0  0  0  0  0  0  0  0  0  0  0
    0.4600  -18.3257   -3.0730 H   0  0  0  0  0  0  0  0  0  0  0  0
    0.8527  -19.8331   -2.2328 H   0  0  0  0  0  0  0  0  0  0  0  0
    2.7974  -20.0342   -3.5218 H   0  0  0  0  0  0  0  0  0  0  0  0
    0.4963  -19.4825   -5.1995 H   0  0  0  0  0  0  0  0  0  0  0  0
    0.8324  -20.9801   -4.3645 H   0  0  0  0  0  0  0  0  0  0  0  0
    1.8937  -20.4341   -5.6406 H   0  0  0  0  0  0  0  0  0  0  0  0
  1  2  1  0  0  0  0
  2  3  2  0  0  0  0
  2  4  1  0  0  0  0
  3  5  1  0  0  0  0
  3  6  1  0  0  0  0
  4  7  2  0  0  0  0
  4  8  1  0  0  0  0
  5  7  1  0  0  0  0
  6  9  2  0  0  0  0
  6 10  1  0  0  0  0
  7 11  1  0  0  0  0
  8 12  2  0  0  0  0
  8 39  1  0  0  0  0
 10 13  1  0  0  0  0
 10 14  1  0  0  0  0
 11 15  2  0  0  0  0
 11 40  1  0  0  0  0
 12 15  1  0  0  0  0
 12 41  1  0  0  0  0
 13 16  1  0  0  0  0
 13 42  1  0  0  0  0
 13 43  1  0  0  0  0
 14 17  1  0  0  0  0
 14 44  1  0  0  0  0
 14 45  1  0  0  0  0
 15 46  1  0  0  0  0
 16 18  2  0  0  0  0
 16 19  1  0  0  0  0
 17 18  1  0  0  0  0
 17 47  1  0  0  0  0
 17 48  1  0  0  0  0
 18 20  1  0  0  0  0
 19 21  2  0  0  0  0
 19 49  1  0  0  0  0
 20 21  1  0  0  0  0
 21 22  1  0  0  0  0
 22 23  2  0  0  0  0
 22 24  1  0  0  0  0
 24 25  1  0  0  0  0
 24 50  1  0  0  0  0
 25 26  1  0  0  0  0
 25 51  1  0  0  0  0
 25 52  1  0  0  0  0
 26 27  2  0  0  0  0
 26 28  1  0  0  0  0
 27 29  1  0  0  0  0
 27 53  1  0  0  0  0
 28 30  2  0  0  0  0
 28 54  1  0  0  0  0
 29 31  2  0  0  0  0
 29 55  1  0  0  0  0
 30 31  1  0  0  0  0
 30 56  1  0  0  0  0
 31 32  1  0  0  0  0
 32 33  1  0  0  0  0
 32 34  1  0  0  0  0
 33 35  1  0  0  0  0
 33 57  1  0  0  0  0
 33 58  1  0  0  0  0
 34 36  1  0  0  0  0
 34 59  1  0  0  0  0
 34 60  1  0  0  0  0
 35 37  1  0  0  0  0
 35 61  1  0  0  0  0
 35 62  1  0  0  0  0
 36 37  1  0  0  0  0
 36 63  1  0  0  0  0
 36 64  1  0  0  0  0
 37 38  1  0  0  0  0
 37 65  1  0  0  0  0
 38 66  1  0  0  0  0
 38 67  1  0  0  0  0
 38 68  1  0  0  0  0
M  CHG  1  37   1
M  END
>  <Molecule Name>
CTX-1020669

>  <SMILES>
CN1CCN(CC1)C1=CC=C(CNC(=O)C2=CC3=C(CCN(C3)C(=O)C3=C(Cl)C4=C(S3)C=CC=C4)S2)C=C1

>  <Batch Name>
CTX-1020669-1

>  <Batch Created Date>
2021-12-03

>  <Batch ID>
CTX-1020669-1

>  <External ID>
610EDL216-4

>  <Stereochemistry>
Achiral

>  <Amount 1>
5.2

>  <Unit 1>
mg

>  <CRO 1>
Pharmaron

>  <CRO 1 Total Amount>
22.8

>  <CRO 1 Unit>
mg

>  <Pharmaron Solubility (PBS, pH 7.4): Aqueous Solubility - Batch Mean (uM)>
0.2684

>  <Pharmaron Solubility (PBS, pH 7.4): Aqueous Solubility - Batch Mean (uM) Standard Deviation (±)>


>  <Pharmaron Solubility (PBS, pH 7.4): Aqueous Solubility - Batch Mean (uM) Count>
1.0

>  <log P>
5.45

>  <log D>
4.81

>  <Pharmaron Caliper Assay (CDK2/CCNE1): Minimum measured (%)>
44.6

>  <Pharmaron Caliper Assay (CDK2/CCNE1): IC50 - Batch Mean (uM)>
2.03

>  <Pharmaron ADPGLO (CDK2/E1-25C): Minimum measured (%)>


>  <Pharmaron ADPGLO (CDK2/E1-25C): IC50 - Batch Mean (uM)>


>  <Pharmaron ADPGLO (CDK2/E1-37C): Minimum measured (%)>


>  <Pharmaron ADPGLO (CDK2/E1-37C): IC50 - Batch Mean (uM)>


>  <IncuCyte Kuramochi RB-WT: IC50 - Batch Mean (uM)>
5.49

>  <IncuCyte Kuramochi RB-KO: IC50 - Batch Mean (uM)>
4.58

>  <DSF (npCDK2/CCNE1): dTm D - Batch Mean [Concentration: 100]>


>  <DSF (npCDK2/CCNE1): dTm D - Batch Mean [Concentration: 20.0]>
1.57

>  <DSF (pCDK2/CCNE1): dTm D - Batch Mean [Concentration: 100]>


>  <DSF (pCDK2/CCNE1): dTm D - Batch Mean [Concentration: 20.0]>
0.7440000000000001

>  <RLM: t1/2 - Batch Mean (Min)>


>  <RLM: Cl int - Batch Mean (uL/min/mg protein)>


>  <RLM: ER (Hepatic extraction ratio) - Batch Mean>


>  <HLM: t1/2 - Batch Mean (Min)>
13.8

>  <HLM: Cl int - Batch Mean (uL/min/mg protein)>
100.41

>  <HLM: ER (Hepatic extraction ratio) - Batch Mean>
0.831

>  <MDCK-WT 4% BSA: Papp (A-B) - Batch Mean (10-6, cm/s)>
2.71

>  <MDCK-WT 4% BSA: Papp (B-A) - Batch Mean (10-6, cm/s)>
2.8

>  <MDCK-WT 4% BSA: Efflux Ratio - Batch Mean>
1.04

>  <MDCK-WT 4% BSA: ~Net A_B - Batch Mean (10-6, cm/s)>
2.7533

>  <pIC50>
5.692504

>  <Selection_1>
Y

>  <Selection_N>
N

>  <Serie>
Tetrahydrothienopyridine

>  <Selection_T>


>  <Train_Vs_Test>


$$$$
CTX-1020667
 OpenBabel08272613263D

 70 75  0  0  0  0  0  0  0  0999 V2000
    2.1086    0.8868   -0.0040 S   0  0  0  0  0  0  0  0  0  0  0  0
    2.3774   -0.8305    0.0142 C   0  0  0  0  0  0  0  0  0  0  0  0
    0.4308    0.6364   -0.0240 C   0  0  0  0  0  0  0  0  0  0  0  0
    1.2663   -1.5638   -0.0160 N   0  0  0  0  0  0  0  0  0  0  0  0
    3.7825   -1.3417    0.0658 C   0  0  0  0  0  0  0  0  0  0  0  0
    0.1392   -0.7168   -0.0757 C   0  0  0  0  0  0  0  0  0  0  0  0
   -0.6069    1.7294   -0.0500 C   0  0  0  0  0  0  0  0  0  0  0  0
    4.7607   -0.5955    0.0334 O   0  0  0  0  0  0  0  0  0  0  0  0
    3.9480   -2.7117    0.1654 N   0  0  0  0  0  0  0  0  0  0  0  0
   -1.3070   -1.2047   -0.1382 C   0  0  0  0  0  0  0  0  0  0  0  0
   -1.9753    1.1265    0.3243 C   0  0  0  0  0  0  0  0  0  0  0  0
    5.2421   -3.3729    0.1655 C   0  0  0  0  0  0  0  0  0  0  0  0
   -2.2072   -0.0358   -0.5145 N   0  0  0  0  0  0  0  0  0  0  0  0
    5.4829   -4.2366    1.3999 C   0  0  0  0  0  0  0  0  0  0  0  0
   -2.7570    0.1112   -1.8336 C   0  0  0  0  0  0  0  0  0  0  0  0
    5.7504   -5.5920    1.3282 C   0  0  0  0  0  0  0  0  0  0  0  0
    5.4439   -3.6592    2.6844 C   0  0  0  0  0  0  0  0  0  0  0  0
   -2.5535   -0.7544   -2.6458 O   0  0  0  0  0  0  0  0  0  0  0  0
   -3.6587    1.3735   -2.1736 C   0  0  0  0  0  0  0  0  0  0  0  0
    5.9335   -6.3768    2.4609 C   0  0  0  0  0  0  0  0  0  0  0  0
    5.6845   -4.4421    3.8295 C   0  0  0  0  0  0  0  0  0  0  0  0
   -4.4815    1.9605   -1.1139 O   0  0  0  0  0  0  0  0  0  0  0  0
   -4.7621    1.5679   -3.0874 C   0  0  0  0  0  0  0  0  0  0  0  0
    5.8801   -5.8175    3.7500 C   0  0  0  0  0  0  0  0  0  0  0  0
   -5.5676    2.6294   -1.7920 C   0  0  0  0  0  0  0  0  0  0  0  0
   -4.9502    3.3668   -2.8734 C   0  0  0  0  0  0  0  0  0  0  0  0
   -5.6773    0.0727   -2.5903 C   0  0  0  0  0  0  0  0  0  0  0  0
    6.0071   -6.6709    4.8503 N   0  0  0  0  0  0  0  0  0  0  0  0
   -6.9435    2.6041   -1.4532 C   0  0  0  0  0  0  0  0  0  0  0  0
   -5.7369    4.9624   -3.0309 C   0  0  0  0  0  0  0  0  0  0  0  0
    6.5288   -6.1441    6.1244 C   0  0  0  0  0  0  0  0  0  0  0  0
    4.8651   -7.6060    5.0476 C   0  0  0  0  0  0  0  0  0  0  0  0
   -6.8892    3.9650   -1.1479 C   0  0  0  0  0  0  0  0  0  0  0  0
   -6.9125    4.8518   -2.2303 C   0  0  0  0  0  0  0  0  0  0  0  0
    6.9048   -7.3256    7.0605 C   0  0  0  0  0  0  0  0  0  0  0  0
    5.2723   -8.7425    6.0211 C   0  0  0  0  0  0  0  0  0  0  0  0
    5.7458   -8.2142    7.3212 N   0  3  0  0  0  0  0  0  0  0  0  0
    6.0962   -9.2980    8.2355 C   0  0  0  0  0  0  0  0  0  0  0  0
   -0.6574    2.1537   -1.0310 H   0  0  0  0  0  0  0  0  0  0  0  0
   -0.3444    2.4957    0.6491 H   0  0  0  0  0  0  0  0  0  0  0  0
    3.1416   -3.2715    0.2406 H   0  0  0  0  0  0  0  0  0  0  0  0
   -1.5978   -1.5888    0.8172 H   0  0  0  0  0  0  0  0  0  0  0  0
   -1.3961   -1.9805   -0.8697 H   0  0  0  0  0  0  0  0  0  0  0  0
   -2.7463    1.8502    0.1608 H   0  0  0  0  0  0  0  0  0  0  0  0
   -1.9831    0.8434    1.3562 H   0  0  0  0  0  0  0  0  0  0  0  0
    6.0052   -2.6242    0.1217 H   0  0  0  0  0  0  0  0  0  0  0  0
    5.2635   -4.0237   -0.6835 H   0  0  0  0  0  0  0  0  0  0  0  0
    5.8164   -6.0370    0.3994 H   0  0  0  0  0  0  0  0  0  0  0  0
    5.2372   -2.6534    2.7868 H   0  0  0  0  0  0  0  0  0  0  0  0
    6.1118   -7.3876    2.3538 H   0  0  0  0  0  0  0  0  0  0  0  0
    5.7167   -3.9833    4.7534 H   0  0  0  0  0  0  0  0  0  0  0  0
   -5.1691   -0.7947   -2.9566 H   0  0  0  0  0  0  0  0  0  0  0  0
   -6.6653    0.1067   -2.9996 H   0  0  0  0  0  0  0  0  0  0  0  0
   -5.7348    0.0283   -1.5228 H   0  0  0  0  0  0  0  0  0  0  0  0
   -7.6793    1.8806   -1.4384 H   0  0  0  0  0  0  0  0  0  0  0  0
   -5.4150    5.7774   -3.5761 H   0  0  0  0  0  0  0  0  0  0  0  0
    5.7797   -5.5417    6.5942 H   0  0  0  0  0  0  0  0  0  0  0  0
    7.3982   -5.5501    5.9344 H   0  0  0  0  0  0  0  0  0  0  0  0
    4.5870   -8.0295    4.1052 H   0  0  0  0  0  0  0  0  0  0  0  0
    4.0383   -7.0681    5.4620 H   0  0  0  0  0  0  0  0  0  0  0  0
   -6.8347    4.3002   -0.1734 H   0  0  0  0  0  0  0  0  0  0  0  0
   -7.7547    5.4090   -2.4428 H   0  0  0  0  0  0  0  0  0  0  0  0
    7.2550   -6.9315    7.9916 H   0  0  0  0  0  0  0  0  0  0  0  0
    7.6641   -7.9038    6.5768 H   0  0  0  0  0  0  0  0  0  0  0  0
    6.0575   -9.3158    5.5742 H   0  0  0  0  0  0  0  0  0  0  0  0
    4.4087   -9.3471    6.2041 H   0  0  0  0  0  0  0  0  0  0  0  0
    5.0018   -7.6840    7.7748 H   0  0  0  0  0  0  0  0  0  0  0  0
    6.8776   -9.8889    7.8052 H   0  0  0  0  0  0  0  0  0  0  0  0
    5.2370   -9.9125    8.4060 H   0  0  0  0  0  0  0  0  0  0  0  0
    6.4306   -8.8866    9.1649 H   0  0  0  0  0  0  0  0  0  0  0  0
  1  2  1  0  0  0  0
  1  3  1  0  0  0  0
  2  4  2  0  0  0  0
  2  5  1  0  0  0  0
  3  6  2  0  0  0  0
  3  7  1  0  0  0  0
  4  6  1  0  0  0  0
  5  8  2  0  0  0  0
  5  9  1  0  0  0  0
  6 10  1  0  0  0  0
  7 11  1  0  0  0  0
  7 39  1  0  0  0  0
  7 40  1  0  0  0  0
  9 12  1  0  0  0  0
  9 41  1  0  0  0  0
 10 13  1  0  0  0  0
 10 42  1  0  0  0  0
 10 43  1  0  0  0  0
 11 13  1  0  0  0  0
 11 44  1  0  0  0  0
 11 45  1  0  0  0  0
 12 14  1  0  0  0  0
 12 46  1  0  0  0  0
 12 47  1  0  0  0  0
 13 15  1  0  0  0  0
 14 16  2  0  0  0  0
 14 17  1  0  0  0  0
 15 18  2  0  0  0  0
 15 19  1  0  0  0  0
 16 20  1  0  0  0  0
 16 48  1  0  0  0  0
 17 21  2  0  0  0  0
 17 49  1  0  0  0  0
 19 22  1  0  0  0  0
 19 23  2  0  0  0  0
 20 24  2  0  0  0  0
 20 50  1  0  0  0  0
 21 24  1  0  0  0  0
 21 51  1  0  0  0  0
 22 25  1  0  0  0  0
 23 26  1  0  0  0  0
 23 27  1  0  0  0  0
 24 28  1  0  0  0  0
 25 29  2  0  0  0  0
 25 26  1  0  0  0  0
 26 30  2  0  0  0  0
 27 52  1  0  0  0  0
 27 53  1  0  0  0  0
 27 54  1  0  0  0  0
 28 31  1  0  0  0  0
 28 32  1  0  0  0  0
 29 33  1  0  0  0  0
 29 55  1  0  0  0  0
 30 34  1  0  0  0  0
 30 56  1  0  0  0  0
 31 35  1  0  0  0  0
 31 57  1  0  0  0  0
 31 58  1  0  0  0  0
 32 36  1  0  0  0  0
 32 59  1  0  0  0  0
 32 60  1  0  0  0  0
 33 34  2  0  0  0  0
 33 61  1  0  0  0  0
 34 62  1  0  0  0  0
 35 37  1  0  0  0  0
 35 63  1  0  0  0  0
 35 64  1  0  0  0  0
 36 37  1  0  0  0  0
 36 65  1  0  0  0  0
 36 66  1  0  0  0  0
 37 38  1  0  0  0  0
 37 67  1  0  0  0  0
 38 68  1  0  0  0  0
 38 69  1  0  0  0  0
 38 70  1  0  0  0  0
M  CHG  1  37   1
M  END
>  <Molecule Name>
CTX-1020667

>  <SMILES>
CN1CCN(CC1)C1=CC=C(CNC(=O)C2=NC3=C(CCN(C3)C(=O)C3=C(C)C4=C(O3)C=CC=C4)S2)C=C1

>  <Batch Name>
CTX-1020667-1

>  <Batch Created Date>
2021-12-03

>  <Batch ID>
CTX-1020667-1

>  <External ID>
610EDL180-C

>  <Stereochemistry>
Achiral

>  <Amount 1>
4.6

>  <Unit 1>
mg

>  <CRO 1>
Pharmaron

>  <CRO 1 Total Amount>
7.8

>  <CRO 1 Unit>
mg

>  <Pharmaron Solubility (PBS, pH 7.4): Aqueous Solubility - Batch Mean (uM)>
15.157

>  <Pharmaron Solubility (PBS, pH 7.4): Aqueous Solubility - Batch Mean (uM) Standard Deviation (±)>


>  <Pharmaron Solubility (PBS, pH 7.4): Aqueous Solubility - Batch Mean (uM) Count>
1.0

>  <log P>
3.63

>  <log D>
3.0

>  <Pharmaron Caliper Assay (CDK2/CCNE1): Minimum measured (%)>
27.5

>  <Pharmaron Caliper Assay (CDK2/CCNE1): IC50 - Batch Mean (uM)>
0.383

>  <Pharmaron ADPGLO (CDK2/E1-25C): Minimum measured (%)>
32.1

>  <Pharmaron ADPGLO (CDK2/E1-25C): IC50 - Batch Mean (uM)>
0.628

>  <Pharmaron ADPGLO (CDK2/E1-37C): Minimum measured (%)>
94.9

>  <Pharmaron ADPGLO (CDK2/E1-37C): IC50 - Batch Mean (uM)>
100

>  <IncuCyte Kuramochi RB-WT: IC50 - Batch Mean (uM)>
7.38

>  <IncuCyte Kuramochi RB-KO: IC50 - Batch Mean (uM)>
7.24

>  <DSF (npCDK2/CCNE1): dTm D - Batch Mean [Concentration: 100]>


>  <DSF (npCDK2/CCNE1): dTm D - Batch Mean [Concentration: 20.0]>
3.398

>  <DSF (pCDK2/CCNE1): dTm D - Batch Mean [Concentration: 100]>


>  <DSF (pCDK2/CCNE1): dTm D - Batch Mean [Concentration: 20.0]>
2.352

>  <RLM: t1/2 - Batch Mean (Min)>


>  <RLM: Cl int - Batch Mean (uL/min/mg protein)>


>  <RLM: ER (Hepatic extraction ratio) - Batch Mean>


>  <HLM: t1/2 - Batch Mean (Min)>
13.38

>  <HLM: Cl int - Batch Mean (uL/min/mg protein)>
103.68

>  <HLM: ER (Hepatic extraction ratio) - Batch Mean>
0.835

>  <MDCK-WT 4% BSA: Papp (A-B) - Batch Mean (10-6, cm/s)>


>  <MDCK-WT 4% BSA: Papp (B-A) - Batch Mean (10-6, cm/s)>


>  <MDCK-WT 4% BSA: Efflux Ratio - Batch Mean>


>  <MDCK-WT 4% BSA: ~Net A_B - Batch Mean (10-6, cm/s)>


>  <pIC50>
6.416801

>  <Selection_1>
Y

>  <Selection_N>
N

>  <Serie>
Other

>  <Selection_T>
N

>  <Train_Vs_Test>


$$$$
CTX-1020582
 OpenBabel08272613263D

 72 77  0  0  0  0  0  0  0  0999 V2000
    2.1506   -1.2427   -0.9635 S   0  0  0  0  0  0  0  0  0  0  0  0
    3.0253    0.0372   -0.0879 C   0  0  0  0  0  0  0  0  0  0  0  0
    0.5547   -0.5753   -0.8623 C   0  0  0  0  0  0  0  0  0  0  0  0
    1.9915    0.9832    0.2869 C   0  0  0  0  0  0  0  0  0  0  0  0
    4.6524   -0.3094    0.0782 C   0  0  0  0  0  0  0  0  0  0  0  0
    0.5362    0.6258   -0.1663 C   0  0  0  0  0  0  0  0  0  0  0  0
   -0.6434   -1.1178   -1.3936 C   0  0  0  0  0  0  0  0  0  0  0  0
    2.1178    2.2557    1.0617 C   0  0  0  0  0  0  0  0  0  0  0  0
    4.9781   -1.5101    0.0768 O   0  0  0  0  0  0  0  0  0  0  0  0
    5.8468    0.6241    0.1535 N   0  0  0  0  0  0  0  0  0  0  0  0
   -0.7970    1.2461   -0.0376 C   0  0  0  0  0  0  0  0  0  0  0  0
   -1.8586   -0.4985   -1.2502 N   0  0  0  0  0  0  0  0  0  0  0  0
    7.3616    0.3000    0.2309 C   0  0  0  0  0  0  0  0  0  0  0  0
    5.5473    1.9579   -0.1410 C   0  0  0  0  0  0  0  0  0  0  0  0
   -1.9471    0.6589   -0.5892 C   0  0  0  0  0  0  0  0  0  0  0  0
    8.4345    1.5559    0.1726 C   0  0  0  0  0  0  0  0  0  0  0  0
    6.4535    3.1293   -0.1159 C   0  0  0  0  0  0  0  0  0  0  0  0
    9.7988    1.4331    0.3248 N   0  0  0  0  0  0  0  0  0  0  0  0
    7.8934    2.8267   -0.0069 C   0  0  0  0  0  0  0  0  0  0  0  0
   10.6170    2.6008    0.3587 C   0  0  0  0  0  0  0  0  0  0  0  0
    8.7236    3.9641   -0.0057 C   0  0  0  0  0  0  0  0  0  0  0  0
   12.1178    2.6575    0.4641 C   0  0  0  0  0  0  0  0  0  0  0  0
   10.0403    3.8701    0.2294 C   0  0  0  0  0  0  0  0  0  0  0  0
   12.7205    3.7727    0.5351 O   0  0  0  0  0  0  0  0  0  0  0  0
   12.8964    1.5182    0.4525 N   0  0  0  0  0  0  0  0  0  0  0  0
   14.3394    1.4760    0.4362 C   0  0  0  0  0  0  0  0  0  0  0  0
   14.9088    0.2226    1.1017 C   0  0  0  0  0  0  0  0  0  0  0  0
   15.7258   -0.6746    0.4070 C   0  0  0  0  0  0  0  0  0  0  0  0
   14.6003   -0.0274    2.4232 C   0  0  0  0  0  0  0  0  0  0  0  0
   16.0824   -1.8965    1.0152 C   0  0  0  0  0  0  0  0  0  0  0  0
   15.0113   -1.2183    3.0325 C   0  0  0  0  0  0  0  0  0  0  0  0
   15.7242   -2.1891    2.3236 C   0  0  0  0  0  0  0  0  0  0  0  0
   16.0890   -3.3718    2.9515 N   0  0  0  0  0  0  0  0  0  0  0  0
   16.2427   -3.4265    4.4076 C   0  0  0  0  0  0  0  0  0  0  0  0
   15.8785   -4.6728    2.3145 C   0  0  0  0  0  0  0  0  0  0  0  0
   17.3918   -4.3980    4.7493 C   0  0  0  0  0  0  0  0  0  0  0  0
   17.0622   -5.5760    2.7072 C   0  0  0  0  0  0  0  0  0  0  0  0
   17.1654   -5.7332    4.1435 N   0  3  0  0  0  0  0  0  0  0  0  0
   18.2450   -6.6482    4.4973 C   0  0  0  0  0  0  0  0  0  0  0  0
   -0.5990   -2.0118   -1.9072 H   0  0  0  0  0  0  0  0  0  0  0  0
    3.1429    2.4127    1.3248 H   0  0  0  0  0  0  0  0  0  0  0  0
    1.5269    2.1916    1.9514 H   0  0  0  0  0  0  0  0  0  0  0  0
    1.7739    3.0733    0.4632 H   0  0  0  0  0  0  0  0  0  0  0  0
   -0.8866    2.1383    0.4732 H   0  0  0  0  0  0  0  0  0  0  0  0
    7.5891   -0.3495   -0.5884 H   0  0  0  0  0  0  0  0  0  0  0  0
    7.4936   -0.1154    1.2081 H   0  0  0  0  0  0  0  0  0  0  0  0
    4.7588    2.2127    0.5360 H   0  0  0  0  0  0  0  0  0  0  0  0
    5.4374    1.8652   -1.2013 H   0  0  0  0  0  0  0  0  0  0  0  0
   -2.8630    1.1227   -0.4836 H   0  0  0  0  0  0  0  0  0  0  0  0
    6.1816    3.7365    0.7221 H   0  0  0  0  0  0  0  0  0  0  0  0
    6.3296    3.6121   -1.0627 H   0  0  0  0  0  0  0  0  0  0  0  0
    8.3092    4.8911   -0.1899 H   0  0  0  0  0  0  0  0  0  0  0  0
   10.6196    4.7200    0.3137 H   0  0  0  0  0  0  0  0  0  0  0  0
   12.4241    0.6543    0.4555 H   0  0  0  0  0  0  0  0  0  0  0  0
   14.7113    2.3356    0.9537 H   0  0  0  0  0  0  0  0  0  0  0  0
   14.6473    1.4619   -0.5884 H   0  0  0  0  0  0  0  0  0  0  0  0
   16.0642   -0.4453   -0.5406 H   0  0  0  0  0  0  0  0  0  0  0  0
   14.0635    0.6677    2.9652 H   0  0  0  0  0  0  0  0  0  0  0  0
   16.6227   -2.5896    0.4740 H   0  0  0  0  0  0  0  0  0  0  0  0
   14.7834   -1.3830    4.0254 H   0  0  0  0  0  0  0  0  0  0  0  0
   15.3337   -3.7738    4.8525 H   0  0  0  0  0  0  0  0  0  0  0  0
   16.4659   -2.4512    4.7868 H   0  0  0  0  0  0  0  0  0  0  0  0
   15.8434   -4.5578    1.2513 H   0  0  0  0  0  0  0  0  0  0  0  0
   14.9527   -5.1039    2.6339 H   0  0  0  0  0  0  0  0  0  0  0  0
   17.4549   -4.5034    5.8122 H   0  0  0  0  0  0  0  0  0  0  0  0
   18.3020   -3.9974    4.3544 H   0  0  0  0  0  0  0  0  0  0  0  0
   17.9676   -5.1392    2.3406 H   0  0  0  0  0  0  0  0  0  0  0  0
   16.9000   -6.5424    2.2776 H   0  0  0  0  0  0  0  0  0  0  0  0
   16.2994   -6.1351    4.5027 H   0  0  0  0  0  0  0  0  0  0  0  0
   19.1744   -6.2598    4.1362 H   0  0  0  0  0  0  0  0  0  0  0  0
   18.0617   -7.6045    4.0538 H   0  0  0  0  0  0  0  0  0  0  0  0
   18.2909   -6.7513    5.5613 H   0  0  0  0  0  0  0  0  0  0  0  0
  1  2  1  0  0  0  0
  1  3  1  0  0  0  0
  2  4  2  0  0  0  0
  2  5  1  0  0  0  0
  3  6  2  0  0  0  0
  3  7  1  0  0  0  0
  4  8  1  0  0  0  0
  4  6  1  0  0  0  0
  5  9  2  0  0  0  0
  5 10  1  0  0  0  0
  6 11  1  0  0  0  0
  7 12  2  0  0  0  0
  7 40  1  0  0  0  0
  8 41  1  0  0  0  0
  8 42  1  0  0  0  0
  8 43  1  0  0  0  0
 10 13  1  0  0  0  0
 10 14  1  0  0  0  0
 11 15  2  0  0  0  0
 11 44  1  0  0  0  0
 12 15  1  0  0  0  0
 13 16  1  0  0  0  0
 13 45  1  0  0  0  0
 13 46  1  0  0  0  0
 14 17  1  0  0  0  0
 14 47  1  0  0  0  0
 14 48  1  0  0  0  0
 15 49  1  0  0  0  0
 16 18  2  0  0  0  0
 16 19  1  0  0  0  0
 17 19  1  0  0  0  0
 17 50  1  0  0  0  0
 17 51  1  0  0  0  0
 18 20  1  0  0  0  0
 19 21  2  0  0  0  0
 20 22  1  0  0  0  0
 20 23  2  0  0  0  0
 21 23  1  0  0  0  0
 21 52  1  0  0  0  0
 22 24  2  0  0  0  0
 22 25  1  0  0  0  0
 23 53  1  0  0  0  0
 25 26  1  0  0  0  0
 25 54  1  0  0  0  0
 26 27  1  0  0  0  0
 26 55  1  0  0  0  0
 26 56  1  0  0  0  0
 27 28  2  0  0  0  0
 27 29  1  0  0  0  0
 28 30  1  0  0  0  0
 28 57  1  0  0  0  0
 29 31  2  0  0  0  0
 29 58  1  0  0  0  0
 30 32  2  0  0  0  0
 30 59  1  0  0  0  0
 31 32  1  0  0  0  0
 31 60  1  0  0  0  0
 32 33  1  0  0  0  0
 33 34  1  0  0  0  0
 33 35  1  0  0  0  0
 34 36  1  0  0  0  0
 34 61  1  0  0  0  0
 34 62  1  0  0  0  0
 35 37  1  0  0  0  0
 35 63  1  0  0  0  0
 35 64  1  0  0  0  0
 36 38  1  0  0  0  0
 36 65  1  0  0  0  0
 36 66  1  0  0  0  0
 37 38  1  0  0  0  0
 37 67  1  0  0  0  0
 37 68  1  0  0  0  0
 38 39  1  0  0  0  0
 38 69  1  0  0  0  0
 39 70  1  0  0  0  0
 39 71  1  0  0  0  0
 39 72  1  0  0  0  0
M  CHG  1  38   1
M  END
>  <Molecule Name>
CTX-1020582

>  <SMILES>
CN1CCN(CC1)C1=CC=C(CNC(=O)C2=CC=C3CCN(CC3=N2)C(=O)C2=C(C)C3=C(S2)C=NC=C3)C=C1

>  <Batch Name>
CTX-1020582-1

>  <Batch Created Date>
2021-11-18

>  <Batch ID>
CTX-1020582-1

>  <External ID>
P841-0239

>  <Stereochemistry>
Achiral

>  <Amount 1>
4.6

>  <Unit 1>
mg

>  <CRO 1>
Pharmaron

>  <CRO 1 Total Amount>
15.7

>  <CRO 1 Unit>
mg

>  <Pharmaron Solubility (PBS, pH 7.4): Aqueous Solubility - Batch Mean (uM)>
286.6525

>  <Pharmaron Solubility (PBS, pH 7.4): Aqueous Solubility - Batch Mean (uM) Standard Deviation (±)>


>  <Pharmaron Solubility (PBS, pH 7.4): Aqueous Solubility - Batch Mean (uM) Count>
1.0

>  <log P>
3.34

>  <log D>
2.71

>  <Pharmaron Caliper Assay (CDK2/CCNE1): Minimum measured (%)>
80.0

>  <Pharmaron Caliper Assay (CDK2/CCNE1): IC50 - Batch Mean (uM)>
2.2

>  <Pharmaron ADPGLO (CDK2/E1-25C): Minimum measured (%)>


>  <Pharmaron ADPGLO (CDK2/E1-25C): IC50 - Batch Mean (uM)>


>  <Pharmaron ADPGLO (CDK2/E1-37C): Minimum measured (%)>


>  <Pharmaron ADPGLO (CDK2/E1-37C): IC50 - Batch Mean (uM)>


>  <IncuCyte Kuramochi RB-WT: IC50 - Batch Mean (uM)>
8.4

>  <IncuCyte Kuramochi RB-KO: IC50 - Batch Mean (uM)>
8.12

>  <DSF (npCDK2/CCNE1): dTm D - Batch Mean [Concentration: 100]>


>  <DSF (npCDK2/CCNE1): dTm D - Batch Mean [Concentration: 20.0]>
0.534

>  <DSF (pCDK2/CCNE1): dTm D - Batch Mean [Concentration: 100]>


>  <DSF (pCDK2/CCNE1): dTm D - Batch Mean [Concentration: 20.0]>
0.179

>  <RLM: t1/2 - Batch Mean (Min)>


>  <RLM: Cl int - Batch Mean (uL/min/mg protein)>


>  <RLM: ER (Hepatic extraction ratio) - Batch Mean>


>  <HLM: t1/2 - Batch Mean (Min)>


>  <HLM: Cl int - Batch Mean (uL/min/mg protein)>


>  <HLM: ER (Hepatic extraction ratio) - Batch Mean>


>  <MDCK-WT 4% BSA: Papp (A-B) - Batch Mean (10-6, cm/s)>


>  <MDCK-WT 4% BSA: Papp (B-A) - Batch Mean (10-6, cm/s)>


>  <MDCK-WT 4% BSA: Efflux Ratio - Batch Mean>


>  <MDCK-WT 4% BSA: ~Net A_B - Batch Mean (10-6, cm/s)>


>  <pIC50>
5.657577

>  <Selection_1>
Y

>  <Selection_N>


>  <Serie>
Naphthyridine

>  <Selection_T>
N

>  <Train_Vs_Test>


$$$$
CTX-1020566
 OpenBabel08272613263D

 56 60  0  0  0  0  0  0  0  0999 V2000
    1.3190    0.8294    0.0819 O   0  0  0  0  0  0  0  0  0  0  0  0
    2.3056    0.1199   -0.1032 C   0  0  0  0  0  0  0  0  0  0  0  0
    2.7739   -0.7626    0.8333 N   0  0  0  0  0  0  0  0  0  0  0  0
    3.0535    0.1714   -1.4092 C   0  0  0  0  0  0  0  0  0  0  0  0
    2.1184   -0.9436    2.1132 C   0  0  0  0  0  0  0  0  0  0  0  0
    4.0994   -0.6882   -1.6101 N   0  0  0  0  0  0  0  0  0  0  0  0
    2.6135    1.0966   -2.3472 C   0  0  0  0  0  0  0  0  0  0  0  0
    3.0221   -0.5672    3.2607 C   0  0  0  0  0  0  0  0  0  0  0  0
    4.7264   -0.6261   -2.8272 C   0  0  0  0  0  0  0  0  0  0  0  0
    3.2684    1.1566   -3.5640 C   0  0  0  0  0  0  0  0  0  0  0  0
    3.0919    0.7619    3.7094 C   0  0  0  0  0  0  0  0  0  0  0  0
    3.8170   -1.5376    3.8863 C   0  0  0  0  0  0  0  0  0  0  0  0
    4.3409    0.3003   -3.8183 C   0  0  0  0  0  0  0  0  0  0  0  0
    5.8988   -1.5814   -3.0937 C   0  0  0  0  0  0  0  0  0  0  0  0
    3.9279    1.1109    4.7740 C   0  0  0  0  0  0  0  0  0  0  0  0
    4.6545   -1.1880    4.9458 C   0  0  0  0  0  0  0  0  0  0  0  0
    5.0008    0.3441   -5.1711 C   0  0  0  0  0  0  0  0  0  0  0  0
    6.2788   -1.6479   -4.5102 N   0  0  0  0  0  0  0  0  0  0  0  0
    4.7018    0.1295    5.3838 C   0  0  0  0  0  0  0  0  0  0  0  0
    6.3418   -0.3765   -5.2097 C   0  0  0  0  0  0  0  0  0  0  0  0
    6.8263   -2.8126   -5.0574 C   0  0  0  0  0  0  0  0  0  0  0  0
    5.5304    0.4224    6.4269 O   0  0  0  0  0  0  0  0  0  0  0  0
    7.4285   -3.6253   -4.3574 O   0  0  0  0  0  0  0  0  0  0  0  0
    6.3903   -3.1188   -6.4236 C   0  0  0  0  0  0  0  0  0  0  0  0
    5.1966   -2.5448   -6.8001 O   0  0  0  0  0  0  0  0  0  0  0  0
    6.5986   -4.2157   -7.2602 C   0  0  0  0  0  0  0  0  0  0  0  0
    4.4691   -3.5538   -7.3156 C   0  0  0  0  0  0  0  0  0  0  0  0
    5.2673   -4.6714   -7.5010 C   0  0  0  0  0  0  0  0  0  0  0  0
    7.8475   -4.8929   -7.7067 C   0  0  0  0  0  0  0  0  0  0  0  0
    3.0975   -3.5065   -7.5337 C   0  0  0  0  0  0  0  0  0  0  0  0
    4.6515   -5.8852   -7.8461 C   0  0  0  0  0  0  0  0  0  0  0  0
    2.5006   -4.7291   -7.8343 C   0  0  0  0  0  0  0  0  0  0  0  0
    3.2538   -5.9036   -7.9569 C   0  0  0  0  0  0  0  0  0  0  0  0
    3.5802   -1.2901    0.6311 H   0  0  0  0  0  0  0  0  0  0  0  0
    1.8365   -1.9706    2.2163 H   0  0  0  0  0  0  0  0  0  0  0  0
    1.2599   -0.3057    2.1415 H   0  0  0  0  0  0  0  0  0  0  0  0
    1.8191    1.7224   -2.1417 H   0  0  0  0  0  0  0  0  0  0  0  0
    2.9648    1.8328   -4.2820 H   0  0  0  0  0  0  0  0  0  0  0  0
    2.5207    1.4876    3.2488 H   0  0  0  0  0  0  0  0  0  0  0  0
    3.7825   -2.5165    3.5612 H   0  0  0  0  0  0  0  0  0  0  0  0
    5.6188   -2.5621   -2.7701 H   0  0  0  0  0  0  0  0  0  0  0  0
    6.7437   -1.2067   -2.5545 H   0  0  0  0  0  0  0  0  0  0  0  0
    3.9704    2.0877    5.1043 H   0  0  0  0  0  0  0  0  0  0  0  0
    5.2375   -1.9064    5.4031 H   0  0  0  0  0  0  0  0  0  0  0  0
    5.1574    1.3680   -5.4397 H   0  0  0  0  0  0  0  0  0  0  0  0
    4.3512   -0.1575   -5.8575 H   0  0  0  0  0  0  0  0  0  0  0  0
    7.0824    0.2404   -4.7451 H   0  0  0  0  0  0  0  0  0  0  0  0
    6.5937   -0.5661   -6.2322 H   0  0  0  0  0  0  0  0  0  0  0  0
    5.5870    1.3009    6.7479 H   0  0  0  0  0  0  0  0  0  0  0  0
    8.6956   -4.3255   -7.3846 H   0  0  0  0  0  0  0  0  0  0  0  0
    7.8516   -4.9657   -8.7742 H   0  0  0  0  0  0  0  0  0  0  0  0
    7.8926   -5.8740   -7.2821 H   0  0  0  0  0  0  0  0  0  0  0  0
    2.5590   -2.6279   -7.4770 H   0  0  0  0  0  0  0  0  0  0  0  0
    5.2100   -6.7368   -8.0130 H   0  0  0  0  0  0  0  0  0  0  0  0
    1.4784   -4.7704   -7.9699 H   0  0  0  0  0  0  0  0  0  0  0  0
    2.7713   -6.7989   -8.1320 H   0  0  0  0  0  0  0  0  0  0  0  0
  1  2  2  0  0  0  0
  2  3  1  0  0  0  0
  2  4  1  0  0  0  0
  3  5  1  0  0  0  0
  3 34  1  0  0  0  0
  4  6  2  0  0  0  0
  4  7  1  0  0  0  0
  5  8  1  0  0  0  0
  5 35  1  0  0  0  0
  5 36  1  0  0  0  0
  6  9  1  0  0  0  0
  7 10  2  0  0  0  0
  7 37  1  0  0  0  0
  8 11  2  0  0  0  0
  8 12  1  0  0  0  0
  9 13  2  0  0  0  0
  9 14  1  0  0  0  0
 10 13  1  0  0  0  0
 10 38  1  0  0  0  0
 11 15  1  0  0  0  0
 11 39  1  0  0  0  0
 12 16  2  0  0  0  0
 12 40  1  0  0  0  0
 13 17  1  0  0  0  0
 14 18  1  0  0  0  0
 14 41  1  0  0  0  0
 14 42  1  0  0  0  0
 15 19  2  0  0  0  0
 15 43  1  0  0  0  0
 16 19  1  0  0  0  0
 16 44  1  0  0  0  0
 17 20  1  0  0  0  0
 17 45  1  0  0  0  0
 17 46  1  0  0  0  0
 18 21  1  0  0  0  0
 18 20  1  0  0  0  0
 19 22  1  0  0  0  0
 20 47  1  0  0  0  0
 20 48  1  0  0  0  0
 21 23  2  0  0  0  0
 21 24  1  0  0  0  0
 22 49  1  0  0  0  0
 24 25  1  0  0  0  0
 24 26  2  0  0  0  0
 25 27  1  0  0  0  0
 26 28  1  0  0  0  0
 26 29  1  0  0  0  0
 27 30  2  0  0  0  0
 27 28  1  0  0  0  0
 28 31  2  0  0  0  0
 29 50  1  0  0  0  0
 29 51  1  0  0  0  0
 29 52  1  0  0  0  0
 30 32  1  0  0  0  0
 30 53  1  0  0  0  0
 31 33  1  0  0  0  0
 31 54  1  0  0  0  0
 32 33  2  0  0  0  0
 32 55  1  0  0  0  0
 33 56  1  0  0  0  0
M  END
>  <Molecule Name>
CTX-1020566

>  <SMILES>
CC1=C(OC2=C1C=CC=C2)C(=O)N1CCC2=C(C1)N=C(C=C2)C(=O)NCC1=CC=C(O)C=C1

>  <Batch Name>
CTX-1020566-1

>  <Batch Created Date>
2021-11-18

>  <Batch ID>
CTX-1020566-1

>  <External ID>
P841-0232

>  <Stereochemistry>
Achiral

>  <Amount 1>
3.9

>  <Unit 1>
mg

>  <CRO 1>
Pharmaron

>  <CRO 1 Total Amount>
22.5

>  <CRO 1 Unit>
mg

>  <Pharmaron Solubility (PBS, pH 7.4): Aqueous Solubility - Batch Mean (uM)>
0.1229

>  <Pharmaron Solubility (PBS, pH 7.4): Aqueous Solubility - Batch Mean (uM) Standard Deviation (±)>


>  <Pharmaron Solubility (PBS, pH 7.4): Aqueous Solubility - Batch Mean (uM) Count>
1.0

>  <log P>
3.37

>  <log D>
3.37

>  <Pharmaron Caliper Assay (CDK2/CCNE1): Minimum measured (%)>
53.3

>  <Pharmaron Caliper Assay (CDK2/CCNE1): IC50 - Batch Mean (uM)>
3.88

>  <Pharmaron ADPGLO (CDK2/E1-25C): Minimum measured (%)>


>  <Pharmaron ADPGLO (CDK2/E1-25C): IC50 - Batch Mean (uM)>


>  <Pharmaron ADPGLO (CDK2/E1-37C): Minimum measured (%)>


>  <Pharmaron ADPGLO (CDK2/E1-37C): IC50 - Batch Mean (uM)>


>  <IncuCyte Kuramochi RB-WT: IC50 - Batch Mean (uM)>
12.9

>  <IncuCyte Kuramochi RB-KO: IC50 - Batch Mean (uM)>
12.2

>  <DSF (npCDK2/CCNE1): dTm D - Batch Mean [Concentration: 100]>


>  <DSF (npCDK2/CCNE1): dTm D - Batch Mean [Concentration: 20.0]>
1.537

>  <DSF (pCDK2/CCNE1): dTm D - Batch Mean [Concentration: 100]>


>  <DSF (pCDK2/CCNE1): dTm D - Batch Mean [Concentration: 20.0]>
0.451

>  <RLM: t1/2 - Batch Mean (Min)>


>  <RLM: Cl int - Batch Mean (uL/min/mg protein)>


>  <RLM: ER (Hepatic extraction ratio) - Batch Mean>


>  <HLM: t1/2 - Batch Mean (Min)>


>  <HLM: Cl int - Batch Mean (uL/min/mg protein)>


>  <HLM: ER (Hepatic extraction ratio) - Batch Mean>


>  <MDCK-WT 4% BSA: Papp (A-B) - Batch Mean (10-6, cm/s)>


>  <MDCK-WT 4% BSA: Papp (B-A) - Batch Mean (10-6, cm/s)>


>  <MDCK-WT 4% BSA: Efflux Ratio - Batch Mean>


>  <MDCK-WT 4% BSA: ~Net A_B - Batch Mean (10-6, cm/s)>


>  <pIC50>
5.411168

>  <Selection_1>
Y

>  <Selection_N>


>  <Serie>
Naphthyridine

>  <Selection_T>
N

>  <Train_Vs_Test>


$$$$
CTX-1020565
 OpenBabel08272613263D

 68 73  0  0  0  0  0  0  0  0999 V2000
    1.2477    0.3046    0.5625 O   0  0  0  0  0  0  0  0  0  0  0  0
    2.2369   -0.0071   -0.1001 C   0  0  0  0  0  0  0  0  0  0  0  0
    2.7454   -1.2900   -0.1109 N   0  0  0  0  0  0  0  0  0  0  0  0
    2.9380    1.0209   -0.9429 C   0  0  0  0  0  0  0  0  0  0  0  0
    2.1401   -2.3427    0.6814 C   0  0  0  0  0  0  0  0  0  0  0  0
    3.9450    0.6355   -1.7881 N   0  0  0  0  0  0  0  0  0  0  0  0
    2.4857    2.3324   -0.8282 C   0  0  0  0  0  0  0  0  0  0  0  0
    2.7400   -2.4510    2.0611 C   0  0  0  0  0  0  0  0  0  0  0  0
    4.5048    1.6097   -2.5787 C   0  0  0  0  0  0  0  0  0  0  0  0
    3.0735    3.3073   -1.6133 C   0  0  0  0  0  0  0  0  0  0  0  0
    2.1767   -1.7700    3.1441 C   0  0  0  0  0  0  0  0  0  0  0  0
    3.8770   -3.2201    2.2910 C   0  0  0  0  0  0  0  0  0  0  0  0
    4.0985    2.9561   -2.4973 C   0  0  0  0  0  0  0  0  0  0  0  0
    5.6277    1.2131   -3.5512 C   0  0  0  0  0  0  0  0  0  0  0  0
    2.7318   -1.8757    4.4275 C   0  0  0  0  0  0  0  0  0  0  0  0
    4.4390   -3.3044    3.5799 C   0  0  0  0  0  0  0  0  0  0  0  0
    4.6763    4.0213   -3.3957 C   0  0  0  0  0  0  0  0  0  0  0  0
    5.9092    2.2390   -4.5673 N   0  0  0  0  0  0  0  0  0  0  0  0
    3.8755   -2.6455    4.6818 C   0  0  0  0  0  0  0  0  0  0  0  0
    5.9870    3.6008   -4.0544 C   0  0  0  0  0  0  0  0  0  0  0  0
    6.1203    1.8773   -5.9129 C   0  0  0  0  0  0  0  0  0  0  0  0
    4.4182   -2.7422    5.9435 N   0  0  0  0  0  0  0  0  0  0  0  0
    6.4913    0.7387   -6.2006 O   0  0  0  0  0  0  0  0  0  0  0  0
    5.6627    2.8378   -6.9476 C   0  0  0  0  0  0  0  0  0  0  0  0
    3.6044   -2.7561    7.1668 C   0  0  0  0  0  0  0  0  0  0  0  0
    5.8650   -2.8140    6.1877 C   0  0  0  0  0  0  0  0  0  0  0  0
    4.6864    3.7087   -6.4943 O   0  0  0  0  0  0  0  0  0  0  0  0
    5.3460    2.6331   -8.2992 C   0  0  0  0  0  0  0  0  0  0  0  0
    4.0897   -1.6563    8.1215 C   0  0  0  0  0  0  0  0  0  0  0  0
    6.2628   -1.7190    7.1974 C   0  0  0  0  0  0  0  0  0  0  0  0
    3.5793    3.3680   -7.1837 C   0  0  0  0  0  0  0  0  0  0  0  0
    3.9205    2.6038   -8.2838 C   0  0  0  0  0  0  0  0  0  0  0  0
    6.1766    2.5581   -9.5259 C   0  0  0  0  0  0  0  0  0  0  0  0
    5.4927   -1.7965    8.4109 O   0  0  0  0  0  0  0  0  0  0  0  0
    2.2828    3.6939   -6.8137 C   0  0  0  0  0  0  0  0  0  0  0  0
    2.8960    2.1039   -9.1004 C   0  0  0  0  0  0  0  0  0  0  0  0
    1.2754    3.1502   -7.6076 C   0  0  0  0  0  0  0  0  0  0  0  0
    1.5712    2.3533   -8.7166 C   0  0  0  0  0  0  0  0  0  0  0  0
    3.5325   -1.4938   -0.6660 H   0  0  0  0  0  0  0  0  0  0  0  0
    2.2774   -3.2748    0.1742 H   0  0  0  0  0  0  0  0  0  0  0  0
    1.1034   -2.1044    0.7975 H   0  0  0  0  0  0  0  0  0  0  0  0
    1.7273    2.5722   -0.1707 H   0  0  0  0  0  0  0  0  0  0  0  0
    2.7578    4.2875   -1.5472 H   0  0  0  0  0  0  0  0  0  0  0  0
    1.3416   -1.1818    2.9972 H   0  0  0  0  0  0  0  0  0  0  0  0
    4.3128   -3.7339    1.5092 H   0  0  0  0  0  0  0  0  0  0  0  0
    5.3414    0.3109   -4.0502 H   0  0  0  0  0  0  0  0  0  0  0  0
    6.5186    1.0892   -2.9718 H   0  0  0  0  0  0  0  0  0  0  0  0
    2.2847   -1.3712    5.2089 H   0  0  0  0  0  0  0  0  0  0  0  0
    5.2920   -3.8686    3.7175 H   0  0  0  0  0  0  0  0  0  0  0  0
    4.8549    4.8997   -2.8115 H   0  0  0  0  0  0  0  0  0  0  0  0
    3.9679    4.1982   -4.1780 H   0  0  0  0  0  0  0  0  0  0  0  0
    6.7739    3.6565   -3.3315 H   0  0  0  0  0  0  0  0  0  0  0  0
    6.1793    4.2602   -4.8749 H   0  0  0  0  0  0  0  0  0  0  0  0
    3.6967   -3.7088    7.6450 H   0  0  0  0  0  0  0  0  0  0  0  0
    2.5798   -2.5798    6.9137 H   0  0  0  0  0  0  0  0  0  0  0  0
    6.3912   -2.6617    5.2686 H   0  0  0  0  0  0  0  0  0  0  0  0
    6.1159   -3.7762    6.5829 H   0  0  0  0  0  0  0  0  0  0  0  0
    3.5373   -1.7197    9.0357 H   0  0  0  0  0  0  0  0  0  0  0  0
    3.9351   -0.7080    7.6506 H   0  0  0  0  0  0  0  0  0  0  0  0
    6.1035   -0.7610    6.7482 H   0  0  0  0  0  0  0  0  0  0  0  0
    7.2924   -1.8624    7.4507 H   0  0  0  0  0  0  0  0  0  0  0  0
    7.2119    2.6004   -9.2588 H   0  0  0  0  0  0  0  0  0  0  0  0
    5.9400    3.3808  -10.1678 H   0  0  0  0  0  0  0  0  0  0  0  0
    5.9772    1.6389  -10.0360 H   0  0  0  0  0  0  0  0  0  0  0  0
    2.0780    4.2993   -6.0034 H   0  0  0  0  0  0  0  0  0  0  0  0
    3.1106    1.5694   -9.9567 H   0  0  0  0  0  0  0  0  0  0  0  0
    0.2889    3.3402   -7.3715 H   0  0  0  0  0  0  0  0  0  0  0  0
    0.7996    1.9405   -9.2636 H   0  0  0  0  0  0  0  0  0  0  0  0
  1  2  2  0  0  0  0
  2  3  1  0  0  0  0
  2  4  1  0  0  0  0
  3  5  1  0  0  0  0
  3 39  1  0  0  0  0
  4  6  2  0  0  0  0
  4  7  1  0  0  0  0
  5  8  1  0  0  0  0
  5 40  1  0  0  0  0
  5 41  1  0  0  0  0
  6  9  1  0  0  0  0
  7 10  2  0  0  0  0
  7 42  1  0  0  0  0
  8 11  2  0  0  0  0
  8 12  1  0  0  0  0
  9 13  2  0  0  0  0
  9 14  1  0  0  0  0
 10 13  1  0  0  0  0
 10 43  1  0  0  0  0
 11 15  1  0  0  0  0
 11 44  1  0  0  0  0
 12 16  2  0  0  0  0
 12 45  1  0  0  0  0
 13 17  1  0  0  0  0
 14 18  1  0  0  0  0
 14 46  1  0  0  0  0
 14 47  1  0  0  0  0
 15 19  2  0  0  0  0
 15 48  1  0  0  0  0
 16 19  1  0  0  0  0
 16 49  1  0  0  0  0
 17 20  1  0  0  0  0
 17 50  1  0  0  0  0
 17 51  1  0  0  0  0
 18 21  1  0  0  0  0
 18 20  1  0  0  0  0
 19 22  1  0  0  0  0
 20 52  1  0  0  0  0
 20 53  1  0  0  0  0
 21 23  2  0  0  0  0
 21 24  1  0  0  0  0
 22 25  1  0  0  0  0
 22 26  1  0  0  0  0
 24 27  1  0  0  0  0
 24 28  2  0  0  0  0
 25 29  1  0  0  0  0
 25 54  1  0  0  0  0
 25 55  1  0  0  0  0
 26 30  1  0  0  0  0
 26 56  1  0  0  0  0
 26 57  1  0  0  0  0
 27 31  1  0  0  0  0
 28 32  1  0  0  0  0
 28 33  1  0  0  0  0
 29 34  1  0  0  0  0
 29 58  1  0  0  0  0
 29 59  1  0  0  0  0
 30 34  1  0  0  0  0
 30 60  1  0  0  0  0
 30 61  1  0  0  0  0
 31 35  2  0  0  0  0
 31 32  1  0  0  0  0
 32 36  2  0  0  0  0
 33 62  1  0  0  0  0
 33 63  1  0  0  0  0
 33 64  1  0  0  0  0
 35 37  1  0  0  0  0
 35 65  1  0  0  0  0
 36 38  1  0  0  0  0
 36 66  1  0  0  0  0
 37 38  2  0  0  0  0
 37 67  1  0  0  0  0
 38 68  1  0  0  0  0
M  END
>  <Molecule Name>
CTX-1020565

>  <SMILES>
CC1=C(OC2=C1C=CC=C2)C(=O)N1CCC2=C(C1)N=C(C=C2)C(=O)NCC1=CC=C(C=C1)N1CCOCC1

>  <Batch Name>
CTX-1020565-1

>  <Batch Created Date>
2021-11-18

>  <Batch ID>
CTX-1020565-1

>  <External ID>
P841-0233

>  <Stereochemistry>
Achiral

>  <Amount 1>
5.15

>  <Unit 1>
mg

>  <CRO 1>
Pharmaron

>  <CRO 1 Total Amount>
11.5

>  <CRO 1 Unit>
mg

>  <Pharmaron Solubility (PBS, pH 7.4): Aqueous Solubility - Batch Mean (uM)>
0.0028

>  <Pharmaron Solubility (PBS, pH 7.4): Aqueous Solubility - Batch Mean (uM) Standard Deviation (±)>


>  <Pharmaron Solubility (PBS, pH 7.4): Aqueous Solubility - Batch Mean (uM) Count>
1.0

>  <log P>
3.57

>  <log D>
3.57

>  <Pharmaron Caliper Assay (CDK2/CCNE1): Minimum measured (%)>
43.6

>  <Pharmaron Caliper Assay (CDK2/CCNE1): IC50 - Batch Mean (uM)>
1.55

>  <Pharmaron ADPGLO (CDK2/E1-25C): Minimum measured (%)>


>  <Pharmaron ADPGLO (CDK2/E1-25C): IC50 - Batch Mean (uM)>


>  <Pharmaron ADPGLO (CDK2/E1-37C): Minimum measured (%)>


>  <Pharmaron ADPGLO (CDK2/E1-37C): IC50 - Batch Mean (uM)>


>  <IncuCyte Kuramochi RB-WT: IC50 - Batch Mean (uM)>
20.0

>  <IncuCyte Kuramochi RB-KO: IC50 - Batch Mean (uM)>
20.0

>  <DSF (npCDK2/CCNE1): dTm D - Batch Mean [Concentration: 100]>


>  <DSF (npCDK2/CCNE1): dTm D - Batch Mean [Concentration: 20.0]>
1.6369999999999998

>  <DSF (pCDK2/CCNE1): dTm D - Batch Mean [Concentration: 100]>


>  <DSF (pCDK2/CCNE1): dTm D - Batch Mean [Concentration: 20.0]>
0.768

>  <RLM: t1/2 - Batch Mean (Min)>


>  <RLM: Cl int - Batch Mean (uL/min/mg protein)>


>  <RLM: ER (Hepatic extraction ratio) - Batch Mean>


>  <HLM: t1/2 - Batch Mean (Min)>


>  <HLM: Cl int - Batch Mean (uL/min/mg protein)>


>  <HLM: ER (Hepatic extraction ratio) - Batch Mean>


>  <MDCK-WT 4% BSA: Papp (A-B) - Batch Mean (10-6, cm/s)>


>  <MDCK-WT 4% BSA: Papp (B-A) - Batch Mean (10-6, cm/s)>


>  <MDCK-WT 4% BSA: Efflux Ratio - Batch Mean>


>  <MDCK-WT 4% BSA: ~Net A_B - Batch Mean (10-6, cm/s)>


>  <pIC50>
5.809668

>  <Selection_1>
Y

>  <Selection_N>


>  <Serie>
Naphthyridine

>  <Selection_T>
N

>  <Train_Vs_Test>


$$$$
CTX-1020562
 OpenBabel08272613263D

 76 81  0  0  0  0  0  0  0  0999 V2000
    3.4093    5.6456   -1.9230 F   0  0  0  0  0  0  0  0  0  0  0  0
    4.4850    6.4550   -1.8485 C   0  0  0  0  0  0  0  0  0  0  0  0
    4.6421    7.0353   -3.0624 F   0  0  0  0  0  0  0  0  0  0  0  0
    4.1868    7.4437   -0.9699 F   0  0  0  0  0  0  0  0  0  0  0  0
    5.7819    5.7293   -1.4139 C   0  0  0  0  0  0  0  0  0  0  0  0
    5.7530    4.2716   -1.1186 N   0  3  0  0  0  0  0  0  0  0  0  0
    4.8859    3.9253    0.0349 C   0  0  0  0  0  0  0  0  0  0  0  0
    7.1201    3.7649   -0.8337 C   0  0  0  0  0  0  0  0  0  0  0  0
    5.4142    4.3421    1.4287 C   0  0  0  0  0  0  0  0  0  0  0  0
    7.7340    4.2301    0.5110 C   0  0  0  0  0  0  0  0  0  0  0  0
    6.8119    3.9272    1.6102 N   0  0  0  0  0  0  0  0  0  0  0  0
    7.2501    3.2615    2.7369 C   0  0  0  0  0  0  0  0  0  0  0  0
    6.4664    2.2819    3.3582 C   0  0  0  0  0  0  0  0  0  0  0  0
    8.5079    3.5196    3.3031 C   0  0  0  0  0  0  0  0  0  0  0  0
    6.9070    1.5951    4.4960 C   0  0  0  0  0  0  0  0  0  0  0  0
    8.9552    2.8475    4.4484 C   0  0  0  0  0  0  0  0  0  0  0  0
    8.1536    1.8786    5.0609 C   0  0  0  0  0  0  0  0  0  0  0  0
    8.5963    1.1917    6.3264 C   0  0  0  0  0  0  0  0  0  0  0  0
    9.8351    0.4799    6.1456 N   0  0  0  0  0  0  0  0  0  0  0  0
   10.7188    0.2777    7.1854 C   0  0  0  0  0  0  0  0  0  0  0  0
   10.5469    0.7288    8.3134 O   0  0  0  0  0  0  0  0  0  0  0  0
   11.9198   -0.5546    6.8484 C   0  0  0  0  0  0  0  0  0  0  0  0
   12.0318   -1.0138    5.5651 N   0  0  0  0  0  0  0  0  0  0  0  0
   12.8595   -0.7892    7.8411 C   0  0  0  0  0  0  0  0  0  0  0  0
   13.1551   -1.7247    5.2537 C   0  0  0  0  0  0  0  0  0  0  0  0
   13.9868   -1.5283    7.5122 C   0  0  0  0  0  0  0  0  0  0  0  0
   14.1436   -2.0110    6.2071 C   0  0  0  0  0  0  0  0  0  0  0  0
   13.2970   -2.2332    3.8157 C   0  0  0  0  0  0  0  0  0  0  0  0
   15.4105   -2.7448    5.8432 C   0  0  0  0  0  0  0  0  0  0  0  0
   14.6499   -2.6888    3.5015 N   0  0  0  0  0  0  0  0  0  0  0  0
   15.3045   -3.4937    4.5191 C   0  0  0  0  0  0  0  0  0  0  0  0
   15.1635   -2.5483    2.2097 C   0  0  0  0  0  0  0  0  0  0  0  0
   14.4201   -2.4773    1.2317 O   0  0  0  0  0  0  0  0  0  0  0  0
   16.5956   -2.2089    2.1383 C   0  0  0  0  0  0  0  0  0  0  0  0
   17.0736   -1.5565    3.2600 O   0  0  0  0  0  0  0  0  0  0  0  0
   17.3396   -1.7270    1.0577 C   0  0  0  0  0  0  0  0  0  0  0  0
   17.3533   -0.3111    2.8008 C   0  0  0  0  0  0  0  0  0  0  0  0
   17.4933   -0.3516    1.4224 C   0  0  0  0  0  0  0  0  0  0  0  0
   17.5919   -2.3198   -0.2774 C   0  0  0  0  0  0  0  0  0  0  0  0
   17.3639    0.8329    3.5799 C   0  0  0  0  0  0  0  0  0  0  0  0
   17.6496    0.8628    0.7340 C   0  0  0  0  0  0  0  0  0  0  0  0
   17.3949    2.0320    2.8685 C   0  0  0  0  0  0  0  0  0  0  0  0
   17.5305    2.0497    1.4743 C   0  0  0  0  0  0  0  0  0  0  0  0
    6.1271    6.2178   -0.5267 H   0  0  0  0  0  0  0  0  0  0  0  0
    6.4033    5.7930   -2.2826 H   0  0  0  0  0  0  0  0  0  0  0  0
    5.3676    3.8319   -1.9544 H   0  0  0  0  0  0  0  0  0  0  0  0
    4.7542    2.8634    0.0386 H   0  0  0  0  0  0  0  0  0  0  0  0
    3.9807    4.4777   -0.1079 H   0  0  0  0  0  0  0  0  0  0  0  0
    7.7649    4.0930   -1.6221 H   0  0  0  0  0  0  0  0  0  0  0  0
    7.0320    2.7007   -0.7654 H   0  0  0  0  0  0  0  0  0  0  0  0
    4.8120    3.8805    2.1831 H   0  0  0  0  0  0  0  0  0  0  0  0
    5.3632    5.4080    1.5068 H   0  0  0  0  0  0  0  0  0  0  0  0
    7.9095    5.2850    0.4752 H   0  0  0  0  0  0  0  0  0  0  0  0
    8.6581    3.7158    0.6737 H   0  0  0  0  0  0  0  0  0  0  0  0
    5.5379    2.0596    2.9665 H   0  0  0  0  0  0  0  0  0  0  0  0
    9.1207    4.2241    2.8636 H   0  0  0  0  0  0  0  0  0  0  0  0
    6.3055    0.8726    4.9217 H   0  0  0  0  0  0  0  0  0  0  0  0
    9.8828    3.0690    4.8428 H   0  0  0  0  0  0  0  0  0  0  0  0
    7.8392    0.4977    6.6264 H   0  0  0  0  0  0  0  0  0  0  0  0
    8.7505    1.9413    7.0742 H   0  0  0  0  0  0  0  0  0  0  0  0
   10.0579    0.1273    5.2538 H   0  0  0  0  0  0  0  0  0  0  0  0
   12.7242   -0.4246    8.7970 H   0  0  0  0  0  0  0  0  0  0  0  0
   14.7064   -1.7214    8.2262 H   0  0  0  0  0  0  0  0  0  0  0  0
   13.0408   -1.4387    3.1464 H   0  0  0  0  0  0  0  0  0  0  0  0
   12.6432   -3.0733    3.7076 H   0  0  0  0  0  0  0  0  0  0  0  0
   15.6307   -3.4500    6.6173 H   0  0  0  0  0  0  0  0  0  0  0  0
   16.1850   -2.0142    5.7372 H   0  0  0  0  0  0  0  0  0  0  0  0
   14.7389   -4.3892    4.6707 H   0  0  0  0  0  0  0  0  0  0  0  0
   16.2944   -3.7200    4.1819 H   0  0  0  0  0  0  0  0  0  0  0  0
   17.3905   -3.3702   -0.2450 H   0  0  0  0  0  0  0  0  0  0  0  0
   18.6141   -2.1610   -0.5508 H   0  0  0  0  0  0  0  0  0  0  0  0
   16.9533   -1.8563   -1.0000 H   0  0  0  0  0  0  0  0  0  0  0  0
   17.3498    0.8009    4.6113 H   0  0  0  0  0  0  0  0  0  0  0  0
   17.8448    0.8818   -0.2792 H   0  0  0  0  0  0  0  0  0  0  0  0
   17.3164    2.9250    3.3798 H   0  0  0  0  0  0  0  0  0  0  0  0
   17.5432    2.9557    0.9802 H   0  0  0  0  0  0  0  0  0  0  0  0
  1  2  1  0  0  0  0
  2  3  1  0  0  0  0
  2  4  1  0  0  0  0
  2  5  1  0  0  0  0
  5  6  1  0  0  0  0
  5 44  1  0  0  0  0
  5 45  1  0  0  0  0
  6  7  1  0  0  0  0
  6  8  1  0  0  0  0
  6 46  1  0  0  0  0
  7  9  1  0  0  0  0
  7 47  1  0  0  0  0
  7 48  1  0  0  0  0
  8 10  1  0  0  0  0
  8 49  1  0  0  0  0
  8 50  1  0  0  0  0
  9 11  1  0  0  0  0
  9 51  1  0  0  0  0
  9 52  1  0  0  0  0
 10 11  1  0  0  0  0
 10 53  1  0  0  0  0
 10 54  1  0  0  0  0
 11 12  1  0  0  0  0
 12 13  2  0  0  0  0
 12 14  1  0  0  0  0
 13 15  1  0  0  0  0
 13 55  1  0  0  0  0
 14 16  2  0  0  0  0
 14 56  1  0  0  0  0
 15 17  2  0  0  0  0
 15 57  1  0  0  0  0
 16 17  1  0  0  0  0
 16 58  1  0  0  0  0
 17 18  1  0  0  0  0
 18 19  1  0  0  0  0
 18 59  1  0  0  0  0
 18 60  1  0  0  0  0
 19 20  1  0  0  0  0
 19 61  1  0  0  0  0
 20 21  2  0  0  0  0
 20 22  1  0  0  0  0
 22 23  2  0  0  0  0
 22 24  1  0  0  0  0
 23 25  1  0  0  0  0
 24 26  2  0  0  0  0
 24 62  1  0  0  0  0
 25 27  2  0  0  0  0
 25 28  1  0  0  0  0
 26 27  1  0  0  0  0
 26 63  1  0  0  0  0
 27 29  1  0  0  0  0
 28 30  1  0  0  0  0
 28 64  1  0  0  0  0
 28 65  1  0  0  0  0
 29 31  1  0  0  0  0
 29 66  1  0  0  0  0
 29 67  1  0  0  0  0
 30 32  1  0  0  0  0
 30 31  1  0  0  0  0
 31 68  1  0  0  0  0
 31 69  1  0  0  0  0
 32 33  2  0  0  0  0
 32 34  1  0  0  0  0
 34 35  1  0  0  0  0
 34 36  2  0  0  0  0
 35 37  1  0  0  0  0
 36 38  1  0  0  0  0
 36 39  1  0  0  0  0
 37 40  2  0  0  0  0
 37 38  1  0  0  0  0
 38 41  2  0  0  0  0
 39 70  1  0  0  0  0
 39 71  1  0  0  0  0
 39 72  1  0  0  0  0
 40 42  1  0  0  0  0
 40 73  1  0  0  0  0
 41 43  1  0  0  0  0
 41 74  1  0  0  0  0
 42 43  2  0  0  0  0
 42 75  1  0  0  0  0
 43 76  1  0  0  0  0
M  CHG  1   6   1
M  END
>  <Molecule Name>
CTX-1020562

>  <SMILES>
CC1=C(OC2=C1C=CC=C2)C(=O)N1CCC2=C(C1)N=C(C=C2)C(=O)NCC1=CC=C(C=C1)N1CCN(CC(F)(F)F)CC1

>  <Batch Name>
CTX-1020562-1

>  <Batch Created Date>
2021-11-18

>  <Batch ID>
CTX-1020562-1

>  <External ID>
P841-0237

>  <Stereochemistry>
Achiral

>  <Amount 1>
3.95

>  <Unit 1>
mg

>  <CRO 1>
Pharmaron

>  <CRO 1 Total Amount>
40.2

>  <CRO 1 Unit>
mg

>  <Pharmaron Solubility (PBS, pH 7.4): Aqueous Solubility - Batch Mean (uM)>
0.0001

>  <Pharmaron Solubility (PBS, pH 7.4): Aqueous Solubility - Batch Mean (uM) Standard Deviation (±)>


>  <Pharmaron Solubility (PBS, pH 7.4): Aqueous Solubility - Batch Mean (uM) Count>
1.0

>  <log P>
4.59

>  <log D>
4.59

>  <Pharmaron Caliper Assay (CDK2/CCNE1): Minimum measured (%)>
67.6

>  <Pharmaron Caliper Assay (CDK2/CCNE1): IC50 - Batch Mean (uM)>
2.17

>  <Pharmaron ADPGLO (CDK2/E1-25C): Minimum measured (%)>


>  <Pharmaron ADPGLO (CDK2/E1-25C): IC50 - Batch Mean (uM)>


>  <Pharmaron ADPGLO (CDK2/E1-37C): Minimum measured (%)>


>  <Pharmaron ADPGLO (CDK2/E1-37C): IC50 - Batch Mean (uM)>


>  <IncuCyte Kuramochi RB-WT: IC50 - Batch Mean (uM)>
20.0

>  <IncuCyte Kuramochi RB-KO: IC50 - Batch Mean (uM)>
20.0

>  <DSF (npCDK2/CCNE1): dTm D - Batch Mean [Concentration: 100]>


>  <DSF (npCDK2/CCNE1): dTm D - Batch Mean [Concentration: 20.0]>
0.434

>  <DSF (pCDK2/CCNE1): dTm D - Batch Mean [Concentration: 100]>


>  <DSF (pCDK2/CCNE1): dTm D - Batch Mean [Concentration: 20.0]>
0.207

>  <RLM: t1/2 - Batch Mean (Min)>


>  <RLM: Cl int - Batch Mean (uL/min/mg protein)>


>  <RLM: ER (Hepatic extraction ratio) - Batch Mean>


>  <HLM: t1/2 - Batch Mean (Min)>


>  <HLM: Cl int - Batch Mean (uL/min/mg protein)>


>  <HLM: ER (Hepatic extraction ratio) - Batch Mean>


>  <MDCK-WT 4% BSA: Papp (A-B) - Batch Mean (10-6, cm/s)>


>  <MDCK-WT 4% BSA: Papp (B-A) - Batch Mean (10-6, cm/s)>


>  <MDCK-WT 4% BSA: Efflux Ratio - Batch Mean>


>  <MDCK-WT 4% BSA: ~Net A_B - Batch Mean (10-6, cm/s)>


>  <pIC50>
5.66354

>  <Selection_1>
Y

>  <Selection_N>


>  <Serie>
Naphthyridine

>  <Selection_T>
N

>  <Train_Vs_Test>


$$$$
CTX-1020555
 OpenBabel08272613263D

 68 73  0  0  0  0  0  0  0  0999 V2000
    0.0005   10.1327    2.9699 Cl  0  0  0  0  0  0  0  0  0  0  0  0
    1.6893   10.4625    2.7706 C   0  0  0  0  0  0  0  0  0  0  0  0
    2.2692   11.6070    3.1601 C   0  0  0  0  0  0  0  0  0  0  0  0
    2.4888    9.3999    2.1860 C   0  0  0  0  0  0  0  0  0  0  0  0
    3.6174   11.7590    2.9541 N   0  0  0  0  0  0  0  0  0  0  0  0
    3.7928    9.5742    1.9499 C   0  0  0  0  0  0  0  0  0  0  0  0
    4.3877   12.8293    3.2737 N   0  0  0  0  0  0  0  0  0  0  0  0
    4.3989   10.7748    2.3364 C   0  0  0  0  0  0  0  0  0  0  0  0
    5.5981   12.5178    2.7902 C   0  0  0  0  0  0  0  0  0  0  0  0
    5.6535   11.2399    2.1044 C   0  0  0  0  0  0  0  0  0  0  0  0
    6.7963   10.6824    1.3291 C   0  0  0  0  0  0  0  0  0  0  0  0
    7.6906   11.5560    1.3098 O   0  0  0  0  0  0  0  0  0  0  0  0
    7.1756    9.1327    1.1011 N   0  0  0  0  0  0  0  0  0  0  0  0
    7.3559    7.6257    0.0723 C   0  0  0  0  0  0  0  0  0  0  0  0
    8.4756    9.4211    1.5236 C   0  0  0  0  0  0  0  0  0  0  0  0
    8.9245    6.7090   -0.2483 C   0  0  0  0  0  0  0  0  0  0  0  0
    9.1737    8.1989    1.6416 C   0  0  0  0  0  0  0  0  0  0  0  0
    9.6062    7.0964    0.8973 C   0  0  0  0  0  0  0  0  0  0  0  0
   10.3012    5.9389   -0.5076 C   0  0  0  0  0  0  0  0  0  0  0  0
   11.0890    6.7547    1.5732 S   0  0  0  0  0  0  0  0  0  0  0  0
   11.5571    6.4579   -0.0151 C   0  0  0  0  0  0  0  0  0  0  0  0
   13.0183    6.5204   -0.1324 C   0  0  0  0  0  0  0  0  0  0  0  0
   13.7963    5.5690   -0.0955 O   0  0  0  0  0  0  0  0  0  0  0  0
   13.5255    7.8291   -0.0963 N   0  0  0  0  0  0  0  0  0  0  0  0
   12.6641    8.9966   -0.0435 C   0  0  0  0  0  0  0  0  0  0  0  0
   13.2536   10.1750   -0.7055 C   0  0  0  0  0  0  0  0  0  0  0  0
   13.1420   10.3057   -2.0863 C   0  0  0  0  0  0  0  0  0  0  0  0
   13.8812   11.1443    0.0643 C   0  0  0  0  0  0  0  0  0  0  0  0
   13.7898   11.3512   -2.7101 C   0  0  0  0  0  0  0  0  0  0  0  0
   14.4530   12.2246   -0.5678 C   0  0  0  0  0  0  0  0  0  0  0  0
   14.4908   12.3115   -1.9653 C   0  0  0  0  0  0  0  0  0  0  0  0
   15.2707   13.2553   -2.5834 N   0  0  0  0  0  0  0  0  0  0  0  0
   14.9280   13.7674   -3.9091 C   0  0  0  0  0  0  0  0  0  0  0  0
   16.2352   14.0741   -1.8357 C   0  0  0  0  0  0  0  0  0  0  0  0
   16.2213   13.9653   -4.7107 C   0  0  0  0  0  0  0  0  0  0  0  0
   17.4844   14.3197   -2.6991 C   0  0  0  0  0  0  0  0  0  0  0  0
   17.1296   14.8990   -4.0116 N   0  3  0  0  0  0  0  0  0  0  0  0
   18.3169   15.1546   -4.8059 C   0  0  0  0  0  0  0  0  0  0  0  0
    1.7149   12.3556    3.6043 H   0  0  0  0  0  0  0  0  0  0  0  0
    2.0444    8.4989    1.9500 H   0  0  0  0  0  0  0  0  0  0  0  0
    4.3447    8.8339    1.4892 H   0  0  0  0  0  0  0  0  0  0  0  0
    6.4196   13.1333    2.8963 H   0  0  0  0  0  0  0  0  0  0  0  0
    6.9903    7.9016   -0.8947 H   0  0  0  0  0  0  0  0  0  0  0  0
    6.8573    6.9172    0.7002 H   0  0  0  0  0  0  0  0  0  0  0  0
    8.4485    9.9175    2.4711 H   0  0  0  0  0  0  0  0  0  0  0  0
    8.9630   10.0629    0.8197 H   0  0  0  0  0  0  0  0  0  0  0  0
    8.5998    7.7134    2.4030 H   0  0  0  0  0  0  0  0  0  0  0  0
   10.1157    8.6906    1.5163 H   0  0  0  0  0  0  0  0  0  0  0  0
   10.2931    5.0532   -1.0373 H   0  0  0  0  0  0  0  0  0  0  0  0
   14.5012    7.9599   -0.1070 H   0  0  0  0  0  0  0  0  0  0  0  0
   12.4790    9.2382    0.9823 H   0  0  0  0  0  0  0  0  0  0  0  0
   11.7616    8.7536   -0.5644 H   0  0  0  0  0  0  0  0  0  0  0  0
   12.5843    9.6320   -2.6341 H   0  0  0  0  0  0  0  0  0  0  0  0
   13.9184   11.0565    1.0918 H   0  0  0  0  0  0  0  0  0  0  0  0
   13.7585   11.4282   -3.7387 H   0  0  0  0  0  0  0  0  0  0  0  0
   14.8614   12.9848   -0.0018 H   0  0  0  0  0  0  0  0  0  0  0  0
   14.4176   14.7028   -3.8127 H   0  0  0  0  0  0  0  0  0  0  0  0
   14.2895   13.0728   -4.4138 H   0  0  0  0  0  0  0  0  0  0  0  0
   16.5171   13.5623   -0.9393 H   0  0  0  0  0  0  0  0  0  0  0  0
   15.7859   15.0127   -1.5866 H   0  0  0  0  0  0  0  0  0  0  0  0
   15.9804   14.3642   -5.6739 H   0  0  0  0  0  0  0  0  0  0  0  0
   16.7114   13.0197   -4.8135 H   0  0  0  0  0  0  0  0  0  0  0  0
   17.9883   13.3886   -2.8547 H   0  0  0  0  0  0  0  0  0  0  0  0
   18.1168   15.0134   -2.1856 H   0  0  0  0  0  0  0  0  0  0  0  0
   16.6607   15.7941   -3.8719 H   0  0  0  0  0  0  0  0  0  0  0  0
   18.8380   14.2354   -4.9744 H   0  0  0  0  0  0  0  0  0  0  0  0
   18.9555   15.8362   -4.2838 H   0  0  0  0  0  0  0  0  0  0  0  0
   18.0326   15.5808   -5.7453 H   0  0  0  0  0  0  0  0  0  0  0  0
  1  2  1  0  0  0  0
  2  3  2  0  0  0  0
  2  4  1  0  0  0  0
  3  5  1  0  0  0  0
  3 39  1  0  0  0  0
  4  6  2  0  0  0  0
  4 40  1  0  0  0  0
  5  7  1  0  0  0  0
  5  8  1  0  0  0  0
  6  8  1  0  0  0  0
  6 41  1  0  0  0  0
  7  9  2  0  0  0  0
  8 10  2  0  0  0  0
  9 10  1  0  0  0  0
  9 42  1  0  0  0  0
 10 11  1  0  0  0  0
 11 12  2  0  0  0  0
 11 13  1  0  0  0  0
 13 14  1  0  0  0  0
 13 15  1  0  0  0  0
 14 16  1  0  0  0  0
 14 43  1  0  0  0  0
 14 44  1  0  0  0  0
 15 17  1  0  0  0  0
 15 45  1  0  0  0  0
 15 46  1  0  0  0  0
 16 18  2  0  0  0  0
 16 19  1  0  0  0  0
 17 18  1  0  0  0  0
 17 47  1  0  0  0  0
 17 48  1  0  0  0  0
 18 20  1  0  0  0  0
 19 21  2  0  0  0  0
 19 49  1  0  0  0  0
 20 21  1  0  0  0  0
 21 22  1  0  0  0  0
 22 23  2  0  0  0  0
 22 24  1  0  0  0  0
 24 25  1  0  0  0  0
 24 50  1  0  0  0  0
 25 26  1  0  0  0  0
 25 51  1  0  0  0  0
 25 52  1  0  0  0  0
 26 27  2  0  0  0  0
 26 28  1  0  0  0  0
 27 29  1  0  0  0  0
 27 53  1  0  0  0  0
 28 30  2  0  0  0  0
 28 54  1  0  0  0  0
 29 31  2  0  0  0  0
 29 55  1  0  0  0  0
 30 31  1  0  0  0  0
 30 56  1  0  0  0  0
 31 32  1  0  0  0  0
 32 33  1  0  0  0  0
 32 34  1  0  0  0  0
 33 35  1  0  0  0  0
 33 57  1  0  0  0  0
 33 58  1  0  0  0  0
 34 36  1  0  0  0  0
 34 59  1  0  0  0  0
 34 60  1  0  0  0  0
 35 37  1  0  0  0  0
 35 61  1  0  0  0  0
 35 62  1  0  0  0  0
 36 37  1  0  0  0  0
 36 63  1  0  0  0  0
 36 64  1  0  0  0  0
 37 38  1  0  0  0  0
 37 65  1  0  0  0  0
 38 66  1  0  0  0  0
 38 67  1  0  0  0  0
 38 68  1  0  0  0  0
M  CHG  1  37   1
M  END
>  <Molecule Name>
CTX-1020555

>  <SMILES>
CN1CCN(CC1)C1=CC=C(CNC(=O)C2=CC3=C(CCN(C3)C(=O)C3=C4C=CC(Cl)=CN4N=C3)S2)C=C1

>  <Batch Name>
CTX-1020555-1

>  <Batch Created Date>
2021-11-18

>  <Batch ID>
CTX-1020555-1

>  <External ID>
CD-44-K

>  <Stereochemistry>
Achiral

>  <Amount 1>
2.5

>  <Unit 1>
mg

>  <CRO 1>
Pharmaron

>  <CRO 1 Total Amount>
12.2

>  <CRO 1 Unit>
mg

>  <Pharmaron Solubility (PBS, pH 7.4): Aqueous Solubility - Batch Mean (uM)>
118.75

>  <Pharmaron Solubility (PBS, pH 7.4): Aqueous Solubility - Batch Mean (uM) Standard Deviation (±)>


>  <Pharmaron Solubility (PBS, pH 7.4): Aqueous Solubility - Batch Mean (uM) Count>
1.0

>  <log P>
3.97

>  <log D>
3.34

>  <Pharmaron Caliper Assay (CDK2/CCNE1): Minimum measured (%)>
74.6

>  <Pharmaron Caliper Assay (CDK2/CCNE1): IC50 - Batch Mean (uM)>
6.46

>  <Pharmaron ADPGLO (CDK2/E1-25C): Minimum measured (%)>


>  <Pharmaron ADPGLO (CDK2/E1-25C): IC50 - Batch Mean (uM)>


>  <Pharmaron ADPGLO (CDK2/E1-37C): Minimum measured (%)>


>  <Pharmaron ADPGLO (CDK2/E1-37C): IC50 - Batch Mean (uM)>


>  <IncuCyte Kuramochi RB-WT: IC50 - Batch Mean (uM)>
7.34

>  <IncuCyte Kuramochi RB-KO: IC50 - Batch Mean (uM)>
20.0

>  <DSF (npCDK2/CCNE1): dTm D - Batch Mean [Concentration: 100]>


>  <DSF (npCDK2/CCNE1): dTm D - Batch Mean [Concentration: 20.0]>


>  <DSF (pCDK2/CCNE1): dTm D - Batch Mean [Concentration: 100]>


>  <DSF (pCDK2/CCNE1): dTm D - Batch Mean [Concentration: 20.0]>
0.741

>  <RLM: t1/2 - Batch Mean (Min)>


>  <RLM: Cl int - Batch Mean (uL/min/mg protein)>


>  <RLM: ER (Hepatic extraction ratio) - Batch Mean>


>  <HLM: t1/2 - Batch Mean (Min)>


>  <HLM: Cl int - Batch Mean (uL/min/mg protein)>


>  <HLM: ER (Hepatic extraction ratio) - Batch Mean>


>  <MDCK-WT 4% BSA: Papp (A-B) - Batch Mean (10-6, cm/s)>


>  <MDCK-WT 4% BSA: Papp (B-A) - Batch Mean (10-6, cm/s)>


>  <MDCK-WT 4% BSA: Efflux Ratio - Batch Mean>


>  <MDCK-WT 4% BSA: ~Net A_B - Batch Mean (10-6, cm/s)>


>  <pIC50>
5.189767

>  <Selection_1>
Y

>  <Selection_N>
N

>  <Serie>
Tetrahydrothienopyridine

>  <Selection_T>


>  <Train_Vs_Test>


$$$$
CTX-1020523
 OpenBabel08272613263D

 72 77  0  0  0  0  0  0  0  0999 V2000
    1.5036   -0.2735    1.0169 O   0  0  0  0  0  0  0  0  0  0  0  0
    2.2024    0.0423    0.0420 C   0  0  0  0  0  0  0  0  0  0  0  0
    2.2940   -0.7405   -1.0891 N   0  0  0  0  0  0  0  0  0  0  0  0
    2.9878    1.3391    0.0267 C   0  0  0  0  0  0  0  0  0  0  0  0
    1.5676   -1.9929   -1.2263 C   0  0  0  0  0  0  0  0  0  0  0  0
    3.9904    1.4714   -0.8856 N   0  0  0  0  0  0  0  0  0  0  0  0
    2.5994    2.2751    0.9088 N   0  0  0  0  0  0  0  0  0  0  0  0
    2.5062   -3.1315   -1.5237 C   0  0  0  0  0  0  0  0  0  0  0  0
    4.6600    2.6585   -0.8719 C   0  0  0  0  0  0  0  0  0  0  0  0
    3.2671    3.4363    0.8661 C   0  0  0  0  0  0  0  0  0  0  0  0
    3.5249   -3.4462   -0.6198 C   0  0  0  0  0  0  0  0  0  0  0  0
    2.3745   -3.9112   -2.6774 C   0  0  0  0  0  0  0  0  0  0  0  0
    4.3183    3.6860    0.0088 C   0  0  0  0  0  0  0  0  0  0  0  0
    5.8436    2.8388   -1.8261 C   0  0  0  0  0  0  0  0  0  0  0  0
    4.4171   -4.4828   -0.8930 C   0  0  0  0  0  0  0  0  0  0  0  0
    3.2695   -4.9629   -2.9388 C   0  0  0  0  0  0  0  0  0  0  0  0
    4.9826    5.0308   -0.0137 C   0  0  0  0  0  0  0  0  0  0  0  0
    6.2343    4.2422   -1.9874 N   0  0  0  0  0  0  0  0  0  0  0  0
    4.3201   -5.2499   -2.0635 C   0  0  0  0  0  0  0  0  0  0  0  0
    6.3122    5.0250   -0.7626 C   0  0  0  0  0  0  0  0  0  0  0  0
    6.7575    4.7042   -3.2030 C   0  0  0  0  0  0  0  0  0  0  0  0
    5.2611   -6.2547   -2.2739 N   0  0  0  0  0  0  0  0  0  0  0  0
    7.2934    3.9349   -3.9977 O   0  0  0  0  0  0  0  0  0  0  0  0
    6.3747    6.0783   -3.5651 C   0  0  0  0  0  0  0  0  0  0  0  0
    4.9360   -7.4216   -3.1097 C   0  0  0  0  0  0  0  0  0  0  0  0
    6.6307   -5.7592   -2.5306 C   0  0  0  0  0  0  0  0  0  0  0  0
    5.1922    6.4995   -2.9883 O   0  0  0  0  0  0  0  0  0  0  0  0
    6.5098    6.7972   -4.7552 C   0  0  0  0  0  0  0  0  0  0  0  0
    5.9679   -8.5446   -2.8229 C   0  0  0  0  0  0  0  0  0  0  0  0
    7.6429   -6.8920   -2.2493 C   0  0  0  0  0  0  0  0  0  0  0  0
    4.3947    6.8055   -4.0390 C   0  0  0  0  0  0  0  0  0  0  0  0
    5.1555    6.9043   -5.1925 C   0  0  0  0  0  0  0  0  0  0  0  0
    7.7061    7.2330   -5.5153 C   0  0  0  0  0  0  0  0  0  0  0  0
    7.3723   -8.1157   -3.0411 N   0  3  0  0  0  0  0  0  0  0  0  0
    3.0154    6.9094   -3.9749 C   0  0  0  0  0  0  0  0  0  0  0  0
    4.4884    7.0715   -6.4173 C   0  0  0  0  0  0  0  0  0  0  0  0
    8.2992   -9.1788   -2.6566 C   0  0  0  0  0  0  0  0  0  0  0  0
    2.3668    7.0112   -5.2046 C   0  0  0  0  0  0  0  0  0  0  0  0
    3.0852    7.0689   -6.4047 C   0  0  0  0  0  0  0  0  0  0  0  0
    2.8705   -0.4415   -1.8291 H   0  0  0  0  0  0  0  0  0  0  0  0
    0.8626   -1.9027   -2.0262 H   0  0  0  0  0  0  0  0  0  0  0  0
    1.0646   -2.1979   -0.3044 H   0  0  0  0  0  0  0  0  0  0  0  0
    2.9779    4.1873    1.5122 H   0  0  0  0  0  0  0  0  0  0  0  0
    3.6175   -2.9078    0.2558 H   0  0  0  0  0  0  0  0  0  0  0  0
    1.6121   -3.7121   -3.3438 H   0  0  0  0  0  0  0  0  0  0  0  0
    5.5731    2.4468   -2.7843 H   0  0  0  0  0  0  0  0  0  0  0  0
    6.6786    2.3182   -1.4057 H   0  0  0  0  0  0  0  0  0  0  0  0
    5.1681   -4.6909   -0.2165 H   0  0  0  0  0  0  0  0  0  0  0  0
    3.1487   -5.5324   -3.7909 H   0  0  0  0  0  0  0  0  0  0  0  0
    5.1605    5.3404    0.9949 H   0  0  0  0  0  0  0  0  0  0  0  0
    4.3280    5.7032   -0.5277 H   0  0  0  0  0  0  0  0  0  0  0  0
    7.0655    4.6048   -0.1295 H   0  0  0  0  0  0  0  0  0  0  0  0
    6.5526    6.0340   -1.0252 H   0  0  0  0  0  0  0  0  0  0  0  0
    4.9806   -7.1475   -4.1431 H   0  0  0  0  0  0  0  0  0  0  0  0
    3.9493   -7.7677   -2.8832 H   0  0  0  0  0  0  0  0  0  0  0  0
    6.8365   -4.9281   -1.8889 H   0  0  0  0  0  0  0  0  0  0  0  0
    6.7146   -5.4480   -3.5509 H   0  0  0  0  0  0  0  0  0  0  0  0
    5.7600   -9.3712   -3.4697 H   0  0  0  0  0  0  0  0  0  0  0  0
    5.8723   -8.8092   -1.7905 H   0  0  0  0  0  0  0  0  0  0  0  0
    7.5970   -7.1407   -1.2096 H   0  0  0  0  0  0  0  0  0  0  0  0
    8.6116   -6.5347   -2.5302 H   0  0  0  0  0  0  0  0  0  0  0  0
    8.5864    7.0297   -4.9422 H   0  0  0  0  0  0  0  0  0  0  0  0
    7.6419    8.2832   -5.7100 H   0  0  0  0  0  0  0  0  0  0  0  0
    7.7531    6.7007   -6.4423 H   0  0  0  0  0  0  0  0  0  0  0  0
    7.5082   -7.9156   -4.0321 H   0  0  0  0  0  0  0  0  0  0  0  0
    2.5032    6.9114   -3.0790 H   0  0  0  0  0  0  0  0  0  0  0  0
    5.0132    7.1923   -7.2976 H   0  0  0  0  0  0  0  0  0  0  0  0
    8.1725   -9.4042   -1.6183 H   0  0  0  0  0  0  0  0  0  0  0  0
    9.3043   -8.8562   -2.8315 H   0  0  0  0  0  0  0  0  0  0  0  0
    8.0992  -10.0541   -3.2386 H   0  0  0  0  0  0  0  0  0  0  0  0
    1.3357    7.0447   -5.2308 H   0  0  0  0  0  0  0  0  0  0  0  0
    2.5720    7.1104   -7.2991 H   0  0  0  0  0  0  0  0  0  0  0  0
  1  2  2  0  0  0  0
  2  3  1  0  0  0  0
  2  4  1  0  0  0  0
  3  5  1  0  0  0  0
  3 40  1  0  0  0  0
  4  6  2  0  0  0  0
  4  7  1  0  0  0  0
  5  8  1  0  0  0  0
  5 41  1  0  0  0  0
  5 42  1  0  0  0  0
  6  9  1  0  0  0  0
  7 10  2  0  0  0  0
  8 11  2  0  0  0  0
  8 12  1  0  0  0  0
  9 13  2  0  0  0  0
  9 14  1  0  0  0  0
 10 13  1  0  0  0  0
 10 43  1  0  0  0  0
 11 15  1  0  0  0  0
 11 44  1  0  0  0  0
 12 16  2  0  0  0  0
 12 45  1  0  0  0  0
 13 17  1  0  0  0  0
 14 18  1  0  0  0  0
 14 46  1  0  0  0  0
 14 47  1  0  0  0  0
 15 19  2  0  0  0  0
 15 48  1  0  0  0  0
 16 19  1  0  0  0  0
 16 49  1  0  0  0  0
 17 20  1  0  0  0  0
 17 50  1  0  0  0  0
 17 51  1  0  0  0  0
 18 21  1  0  0  0  0
 18 20  1  0  0  0  0
 19 22  1  0  0  0  0
 20 52  1  0  0  0  0
 20 53  1  0  0  0  0
 21 23  2  0  0  0  0
 21 24  1  0  0  0  0
 22 25  1  0  0  0  0
 22 26  1  0  0  0  0
 24 27  1  0  0  0  0
 24 28  2  0  0  0  0
 25 29  1  0  0  0  0
 25 54  1  0  0  0  0
 25 55  1  0  0  0  0
 26 30  1  0  0  0  0
 26 56  1  0  0  0  0
 26 57  1  0  0  0  0
 27 31  1  0  0  0  0
 28 32  1  0  0  0  0
 28 33  1  0  0  0  0
 29 34  1  0  0  0  0
 29 58  1  0  0  0  0
 29 59  1  0  0  0  0
 30 34  1  0  0  0  0
 30 60  1  0  0  0  0
 30 61  1  0  0  0  0
 31 35  2  0  0  0  0
 31 32  1  0  0  0  0
 32 36  2  0  0  0  0
 33 62  1  0  0  0  0
 33 63  1  0  0  0  0
 33 64  1  0  0  0  0
 34 37  1  0  0  0  0
 34 65  1  0  0  0  0
 35 38  1  0  0  0  0
 35 66  1  0  0  0  0
 36 39  1  0  0  0  0
 36 67  1  0  0  0  0
 37 68  1  0  0  0  0
 37 69  1  0  0  0  0
 37 70  1  0  0  0  0
 38 39  2  0  0  0  0
 38 71  1  0  0  0  0
 39 72  1  0  0  0  0
M  CHG  1  34   1
M  END
>  <Molecule Name>
CTX-1020523

>  <SMILES>
CN1CCN(CC1)C1=CC=C(CNC(=O)C2=NC=C3CCN(CC3=N2)C(=O)C2=C(C)C3=C(O2)C=CC=C3)C=C1

>  <Batch Name>
CTX-1020523-1

>  <Batch Created Date>
2021-11-04

>  <Batch ID>
CTX-1020523-1

>  <External ID>
610EDL081-B

>  <Stereochemistry>
Achiral

>  <Amount 1>
5.3

>  <Unit 1>
mg

>  <CRO 1>
Pharmaron

>  <CRO 1 Total Amount>
23.0

>  <CRO 1 Unit>
mg

>  <Pharmaron Solubility (PBS, pH 7.4): Aqueous Solubility - Batch Mean (uM)>
78.7748

>  <Pharmaron Solubility (PBS, pH 7.4): Aqueous Solubility - Batch Mean (uM) Standard Deviation (±)>


>  <Pharmaron Solubility (PBS, pH 7.4): Aqueous Solubility - Batch Mean (uM) Count>
1.0

>  <log P>
3.33

>  <log D>
2.69

>  <Pharmaron Caliper Assay (CDK2/CCNE1): Minimum measured (%)>
76.7

>  <Pharmaron Caliper Assay (CDK2/CCNE1): IC50 - Batch Mean (uM)>
6.52

>  <Pharmaron ADPGLO (CDK2/E1-25C): Minimum measured (%)>


>  <Pharmaron ADPGLO (CDK2/E1-25C): IC50 - Batch Mean (uM)>


>  <Pharmaron ADPGLO (CDK2/E1-37C): Minimum measured (%)>


>  <Pharmaron ADPGLO (CDK2/E1-37C): IC50 - Batch Mean (uM)>


>  <IncuCyte Kuramochi RB-WT: IC50 - Batch Mean (uM)>


>  <IncuCyte Kuramochi RB-KO: IC50 - Batch Mean (uM)>


>  <DSF (npCDK2/CCNE1): dTm D - Batch Mean [Concentration: 100]>


>  <DSF (npCDK2/CCNE1): dTm D - Batch Mean [Concentration: 20.0]>
0.765

>  <DSF (pCDK2/CCNE1): dTm D - Batch Mean [Concentration: 100]>


>  <DSF (pCDK2/CCNE1): dTm D - Batch Mean [Concentration: 20.0]>


>  <RLM: t1/2 - Batch Mean (Min)>


>  <RLM: Cl int - Batch Mean (uL/min/mg protein)>


>  <RLM: ER (Hepatic extraction ratio) - Batch Mean>


>  <HLM: t1/2 - Batch Mean (Min)>
36.62

>  <HLM: Cl int - Batch Mean (uL/min/mg protein)>
37.87

>  <HLM: ER (Hepatic extraction ratio) - Batch Mean>
0.65

>  <MDCK-WT 4% BSA: Papp (A-B) - Batch Mean (10-6, cm/s)>


>  <MDCK-WT 4% BSA: Papp (B-A) - Batch Mean (10-6, cm/s)>


>  <MDCK-WT 4% BSA: Efflux Ratio - Batch Mean>


>  <MDCK-WT 4% BSA: ~Net A_B - Batch Mean (10-6, cm/s)>


>  <pIC50>
5.185752

>  <Selection_1>
Y

>  <Selection_N>
N

>  <Serie>
Other

>  <Selection_T>
N

>  <Train_Vs_Test>


$$$$
CTX-1020521
 OpenBabel08272613263D

 83 89  0  0  0  0  0  0  0  0999 V2000
    1.2925   -0.2061    0.6513 O   0  0  0  0  0  0  0  0  0  0  0  0
    2.3082    0.1487    0.0562 C   0  0  0  0  0  0  0  0  0  0  0  0
    2.8173   -0.5446   -1.0192 N   0  0  0  0  0  0  0  0  0  0  0  0
    3.0603    1.3708    0.5084 C   0  0  0  0  0  0  0  0  0  0  0  0
    2.2161   -1.7827   -1.4737 C   0  0  0  0  0  0  0  0  0  0  0  0
    4.1584    1.7797   -0.1878 N   0  0  0  0  0  0  0  0  0  0  0  0
    2.5782    2.0171    1.6437 C   0  0  0  0  0  0  0  0  0  0  0  0
    1.8278   -1.7318   -2.9272 C   0  0  0  0  0  0  0  0  0  0  0  0
    4.8045    2.8951    0.2732 C   0  0  0  0  0  0  0  0  0  0  0  0
    3.2535    3.1281    2.1412 C   0  0  0  0  0  0  0  0  0  0  0  0
    2.3314   -2.6691   -3.8303 C   0  0  0  0  0  0  0  0  0  0  0  0
    0.9084   -0.7875   -3.3975 C   0  0  0  0  0  0  0  0  0  0  0  0
    4.4044    3.5773    1.4516 C   0  0  0  0  0  0  0  0  0  0  0  0
    6.0288    3.3788   -0.5352 C   0  0  0  0  0  0  0  0  0  0  0  0
    2.7217    3.7765    3.3424 C   0  0  0  0  0  0  0  0  0  0  0  0
    1.9464   -2.6359   -5.1744 C   0  0  0  0  0  0  0  0  0  0  0  0
    0.5297   -0.7630   -4.7493 C   0  0  0  0  0  0  0  0  0  0  0  0
    5.1767    4.7952    1.9129 C   0  0  0  0  0  0  0  0  0  0  0  0
    6.4817    4.7287   -0.1707 N   0  0  0  0  0  0  0  0  0  0  0  0
    2.6618    5.1245    3.7560 C   0  0  0  0  0  0  0  0  0  0  0  0
    2.0719    3.1034    4.3678 C   0  0  0  0  0  0  0  0  0  0  0  0
    1.0473   -1.6802   -5.6723 C   0  0  0  0  0  0  0  0  0  0  0  0
    6.5483    4.9654    1.2636 C   0  0  0  0  0  0  0  0  0  0  0  0
    6.8308    5.6750   -1.1600 C   0  0  0  0  0  0  0  0  0  0  0  0
    2.0707    5.2897    4.9416 N   0  0  0  0  0  0  0  0  0  0  0  0
    1.7089    4.0450    5.2875 N   0  0  0  0  0  0  0  0  0  0  0  0
    0.6601   -1.7345   -7.0021 N   0  0  0  0  0  0  0  0  0  0  0  0
    7.2060    5.3023   -2.2725 O   0  0  0  0  0  0  0  0  0  0  0  0
    6.5085    7.0900   -0.8649 C   0  0  0  0  0  0  0  0  0  0  0  0
    0.9986    3.8330    6.5258 C   0  0  0  0  0  0  0  0  0  0  0  0
   -0.5798   -1.1026   -7.4730 C   0  0  0  0  0  0  0  0  0  0  0  0
    1.7029   -1.7876   -8.0454 C   0  0  0  0  0  0  0  0  0  0  0  0
    5.5082    7.2508    0.0779 O   0  0  0  0  0  0  0  0  0  0  0  0
    6.3698    8.1881   -1.7230 C   0  0  0  0  0  0  0  0  0  0  0  0
   -1.0982   -1.8645   -8.7174 C   0  0  0  0  0  0  0  0  0  0  0  0
    1.1509   -2.5402   -9.2789 C   0  0  0  0  0  0  0  0  0  0  0  0
    4.4851    7.8195   -0.6040 C   0  0  0  0  0  0  0  0  0  0  0  0
    4.9535    8.3405   -1.7989 C   0  0  0  0  0  0  0  0  0  0  0  0
    7.3604    9.0428   -2.4190 C   0  0  0  0  0  0  0  0  0  0  0  0
   -0.0957   -1.9361   -9.8068 N   0  3  0  0  0  0  0  0  0  0  0  0
    3.1649    7.8264   -0.1888 C   0  0  0  0  0  0  0  0  0  0  0  0
    4.0287    8.9024   -2.6909 C   0  0  0  0  0  0  0  0  0  0  0  0
   -0.6122   -2.7209  -10.9252 C   0  0  0  0  0  0  0  0  0  0  0  0
    2.2514    8.3292   -1.1129 C   0  0  0  0  0  0  0  0  0  0  0  0
    2.6702    8.8437   -2.3466 C   0  0  0  0  0  0  0  0  0  0  0  0
    3.6069   -0.1917   -1.4895 H   0  0  0  0  0  0  0  0  0  0  0  0
    1.3397   -1.9737   -0.8903 H   0  0  0  0  0  0  0  0  0  0  0  0
    2.9418   -2.5602   -1.3567 H   0  0  0  0  0  0  0  0  0  0  0  0
    1.7255    1.6745    2.1134 H   0  0  0  0  0  0  0  0  0  0  0  0
    2.9922   -3.3915   -3.5041 H   0  0  0  0  0  0  0  0  0  0  0  0
    0.5037   -0.1004   -2.7425 H   0  0  0  0  0  0  0  0  0  0  0  0
    5.7697    3.3782   -1.5733 H   0  0  0  0  0  0  0  0  0  0  0  0
    6.8335    2.7089   -0.3147 H   0  0  0  0  0  0  0  0  0  0  0  0
    2.3367   -3.3380   -5.8222 H   0  0  0  0  0  0  0  0  0  0  0  0
   -0.1462   -0.0523   -5.0703 H   0  0  0  0  0  0  0  0  0  0  0  0
    5.3161    4.7202    2.9711 H   0  0  0  0  0  0  0  0  0  0  0  0
    4.5979    5.6472    1.6234 H   0  0  0  0  0  0  0  0  0  0  0  0
    3.0379    5.9060    3.1966 H   0  0  0  0  0  0  0  0  0  0  0  0
    1.8970    2.0879    4.4240 H   0  0  0  0  0  0  0  0  0  0  0  0
    7.2313    4.2678    1.7016 H   0  0  0  0  0  0  0  0  0  0  0  0
    6.8797    5.9695    1.4275 H   0  0  0  0  0  0  0  0  0  0  0  0
    0.7902    2.7901    6.6434 H   0  0  0  0  0  0  0  0  0  0  0  0
    0.0796    4.3807    6.5082 H   0  0  0  0  0  0  0  0  0  0  0  0
    1.5996    4.1710    7.3441 H   0  0  0  0  0  0  0  0  0  0  0  0
   -0.3856   -0.0830   -7.7328 H   0  0  0  0  0  0  0  0  0  0  0  0
   -1.3170   -1.1355   -6.6982 H   0  0  0  0  0  0  0  0  0  0  0  0
    2.5617   -2.3018   -7.6672 H   0  0  0  0  0  0  0  0  0  0  0  0
    1.9814   -0.7933   -8.3261 H   0  0  0  0  0  0  0  0  0  0  0  0
   -1.9688   -1.3638   -9.0865 H   0  0  0  0  0  0  0  0  0  0  0  0
   -1.3153   -2.8672   -8.4135 H   0  0  0  0  0  0  0  0  0  0  0  0
    0.9489   -3.5532   -8.9996 H   0  0  0  0  0  0  0  0  0  0  0  0
    1.8901   -2.4824  -10.0503 H   0  0  0  0  0  0  0  0  0  0  0  0
    8.3488    8.7054   -2.1860 H   0  0  0  0  0  0  0  0  0  0  0  0
    7.2447   10.0569   -2.0978 H   0  0  0  0  0  0  0  0  0  0  0  0
    7.2030    8.9832   -3.4757 H   0  0  0  0  0  0  0  0  0  0  0  0
    0.1026   -0.9956  -10.1482 H   0  0  0  0  0  0  0  0  0  0  0  0
    2.8771    7.4831    0.7409 H   0  0  0  0  0  0  0  0  0  0  0  0
    4.3372    9.3443   -3.5710 H   0  0  0  0  0  0  0  0  0  0  0  0
   -0.8290   -3.7148  -10.5934 H   0  0  0  0  0  0  0  0  0  0  0  0
    0.1205   -2.7567  -11.7042 H   0  0  0  0  0  0  0  0  0  0  0  0
   -1.5063   -2.2660  -11.2972 H   0  0  0  0  0  0  0  0  0  0  0  0
    1.2452    8.3223   -0.8837 H   0  0  0  0  0  0  0  0  0  0  0  0
    1.9641    9.1870   -3.0165 H   0  0  0  0  0  0  0  0  0  0  0  0
  1  2  2  0  0  0  0
  2  3  1  0  0  0  0
  2  4  1  0  0  0  0
  3  5  1  0  0  0  0
  3 46  1  0  0  0  0
  4  6  2  0  0  0  0
  4  7  1  0  0  0  0
  5  8  1  0  0  0  0
  5 47  1  0  0  0  0
  5 48  1  0  0  0  0
  6  9  1  0  0  0  0
  7 10  2  0  0  0  0
  7 49  1  0  0  0  0
  8 11  2  0  0  0  0
  8 12  1  0  0  0  0
  9 13  2  0  0  0  0
  9 14  1  0  0  0  0
 10 15  1  0  0  0  0
 10 13  1  0  0  0  0
 11 16  1  0  0  0  0
 11 50  1  0  0  0  0
 12 17  2  0  0  0  0
 12 51  1  0  0  0  0
 13 18  1  0  0  0  0
 14 19  1  0  0  0  0
 14 52  1  0  0  0  0
 14 53  1  0  0  0  0
 15 20  1  0  0  0  0
 15 21  2  0  0  0  0
 16 22  2  0  0  0  0
 16 54  1  0  0  0  0
 17 22  1  0  0  0  0
 17 55  1  0  0  0  0
 18 23  1  0  0  0  0
 18 56  1  0  0  0  0
 18 57  1  0  0  0  0
 19 24  1  0  0  0  0
 19 23  1  0  0  0  0
 20 25  2  0  0  0  0
 20 58  1  0  0  0  0
 21 26  1  0  0  0  0
 21 59  1  0  0  0  0
 22 27  1  0  0  0  0
 23 60  1  0  0  0  0
 23 61  1  0  0  0  0
 24 28  2  0  0  0  0
 24 29  1  0  0  0  0
 25 26  1  0  0  0  0
 26 30  1  0  0  0  0
 27 31  1  0  0  0  0
 27 32  1  0  0  0  0
 29 33  1  0  0  0  0
 29 34  2  0  0  0  0
 30 62  1  0  0  0  0
 30 63  1  0  0  0  0
 30 64  1  0  0  0  0
 31 35  1  0  0  0  0
 31 65  1  0  0  0  0
 31 66  1  0  0  0  0
 32 36  1  0  0  0  0
 32 67  1  0  0  0  0
 32 68  1  0  0  0  0
 33 37  1  0  0  0  0
 34 38  1  0  0  0  0
 34 39  1  0  0  0  0
 35 40  1  0  0  0  0
 35 69  1  0  0  0  0
 35 70  1  0  0  0  0
 36 40  1  0  0  0  0
 36 71  1  0  0  0  0
 36 72  1  0  0  0  0
 37 41  2  0  0  0  0
 37 38  1  0  0  0  0
 38 42  2  0  0  0  0
 39 73  1  0  0  0  0
 39 74  1  0  0  0  0
 39 75  1  0  0  0  0
 40 43  1  0  0  0  0
 40 76  1  0  0  0  0
 41 44  1  0  0  0  0
 41 77  1  0  0  0  0
 42 45  1  0  0  0  0
 42 78  1  0  0  0  0
 43 79  1  0  0  0  0
 43 80  1  0  0  0  0
 43 81  1  0  0  0  0
 44 45  2  0  0  0  0
 44 82  1  0  0  0  0
 45 83  1  0  0  0  0
M  CHG  1  40   1
M  END
>  <Molecule Name>
CTX-1020521

>  <SMILES>
CN1C=C(C=N1)C1=C2CCN(CC2=NC(=C1)C(=O)NCC1=CC=C(C=C1)N1CCN(C)CC1)C(=O)C1=C(C)C2=C(O1)C=CC=C2

>  <Batch Name>
CTX-1020521-1

>  <Batch Created Date>
2021-11-04

>  <Batch ID>
CTX-1020521-1

>  <External ID>
610EDL131-3

>  <Stereochemistry>
Achiral

>  <Amount 1>
3.5

>  <Unit 1>
mg

>  <CRO 1>
Pharmaron

>  <CRO 1 Total Amount>
24.1

>  <CRO 1 Unit>
mg

>  <Pharmaron Solubility (PBS, pH 7.4): Aqueous Solubility - Batch Mean (uM)>
5.2039

>  <Pharmaron Solubility (PBS, pH 7.4): Aqueous Solubility - Batch Mean (uM) Standard Deviation (±)>


>  <Pharmaron Solubility (PBS, pH 7.4): Aqueous Solubility - Batch Mean (uM) Count>
1.0

>  <log P>
3.71

>  <log D>
3.07

>  <Pharmaron Caliper Assay (CDK2/CCNE1): Minimum measured (%)>
83.4

>  <Pharmaron Caliper Assay (CDK2/CCNE1): IC50 - Batch Mean (uM)>
5.43

>  <Pharmaron ADPGLO (CDK2/E1-25C): Minimum measured (%)>


>  <Pharmaron ADPGLO (CDK2/E1-25C): IC50 - Batch Mean (uM)>


>  <Pharmaron ADPGLO (CDK2/E1-37C): Minimum measured (%)>


>  <Pharmaron ADPGLO (CDK2/E1-37C): IC50 - Batch Mean (uM)>


>  <IncuCyte Kuramochi RB-WT: IC50 - Batch Mean (uM)>


>  <IncuCyte Kuramochi RB-KO: IC50 - Batch Mean (uM)>


>  <DSF (npCDK2/CCNE1): dTm D - Batch Mean [Concentration: 100]>


>  <DSF (npCDK2/CCNE1): dTm D - Batch Mean [Concentration: 20.0]>
0.397

>  <DSF (pCDK2/CCNE1): dTm D - Batch Mean [Concentration: 100]>


>  <DSF (pCDK2/CCNE1): dTm D - Batch Mean [Concentration: 20.0]>


>  <RLM: t1/2 - Batch Mean (Min)>


>  <RLM: Cl int - Batch Mean (uL/min/mg protein)>


>  <RLM: ER (Hepatic extraction ratio) - Batch Mean>


>  <HLM: t1/2 - Batch Mean (Min)>


>  <HLM: Cl int - Batch Mean (uL/min/mg protein)>


>  <HLM: ER (Hepatic extraction ratio) - Batch Mean>


>  <MDCK-WT 4% BSA: Papp (A-B) - Batch Mean (10-6, cm/s)>


>  <MDCK-WT 4% BSA: Papp (B-A) - Batch Mean (10-6, cm/s)>


>  <MDCK-WT 4% BSA: Efflux Ratio - Batch Mean>


>  <MDCK-WT 4% BSA: ~Net A_B - Batch Mean (10-6, cm/s)>


>  <pIC50>
5.2652

>  <Selection_1>
Y

>  <Selection_N>


>  <Serie>
Naphthyridine

>  <Selection_T>
N

>  <Train_Vs_Test>


$$$$
CTX-1020520
 OpenBabel08272613263D

 80 86  0  0  0  0  0  0  0  0999 V2000
    2.4505    1.1449    0.1091 O   0  0  0  0  0  0  0  0  0  0  0  0
    2.4448   -0.0355   -0.2226 C   0  0  0  0  0  0  0  0  0  0  0  0
    1.7136   -0.4982   -1.3106 N   0  0  0  0  0  0  0  0  0  0  0  0
    3.2333   -1.0675    0.5562 C   0  0  0  0  0  0  0  0  0  0  0  0
    0.8713    0.3725   -2.1099 C   0  0  0  0  0  0  0  0  0  0  0  0
    4.3062   -0.6214    1.2611 N   0  0  0  0  0  0  0  0  0  0  0  0
    2.8150   -2.3899    0.5831 C   0  0  0  0  0  0  0  0  0  0  0  0
   -0.5491   -0.1377   -2.1625 C   0  0  0  0  0  0  0  0  0  0  0  0
    5.0006   -1.5082    2.0299 C   0  0  0  0  0  0  0  0  0  0  0  0
    3.5259   -3.3079    1.3650 C   0  0  0  0  0  0  0  0  0  0  0  0
   -1.2942   -0.2685   -0.9876 C   0  0  0  0  0  0  0  0  0  0  0  0
   -1.1777   -0.4369   -3.3777 C   0  0  0  0  0  0  0  0  0  0  0  0
    4.6589   -2.8743    2.0952 C   0  0  0  0  0  0  0  0  0  0  0  0
    6.2088   -0.9467    2.7950 C   0  0  0  0  0  0  0  0  0  0  0  0
    3.0344   -4.6522    1.4166 N   0  0  0  0  0  0  0  0  0  0  0  0
   -2.6236   -0.7029   -1.0311 C   0  0  0  0  0  0  0  0  0  0  0  0
   -2.5180   -0.8598   -3.4106 C   0  0  0  0  0  0  0  0  0  0  0  0
    5.4981   -3.8138    2.9340 C   0  0  0  0  0  0  0  0  0  0  0  0
    6.7805   -1.8907    3.7526 N   0  0  0  0  0  0  0  0  0  0  0  0
    3.2462   -5.4532    2.4914 N   0  0  0  0  0  0  0  0  0  0  0  0
    2.2693   -5.2984    0.4740 C   0  0  0  0  0  0  0  0  0  0  0  0
   -3.2693   -1.0074   -2.2396 C   0  0  0  0  0  0  0  0  0  0  0  0
    6.8722   -3.2620    3.2952 C   0  0  0  0  0  0  0  0  0  0  0  0
    7.3900   -1.4525    4.9337 C   0  0  0  0  0  0  0  0  0  0  0  0
    2.5479   -6.5543    2.2354 C   0  0  0  0  0  0  0  0  0  0  0  0
    1.9338   -6.5269    0.9799 C   0  0  0  0  0  0  0  0  0  0  0  0
   -4.6093   -1.3591   -2.2248 N   0  0  0  0  0  0  0  0  0  0  0  0
    7.8776   -0.3264    5.0217 O   0  0  0  0  0  0  0  0  0  0  0  0
    7.1704   -2.3113    6.1063 C   0  0  0  0  0  0  0  0  0  0  0  0
   -5.4747   -1.1567   -3.3959 C   0  0  0  0  0  0  0  0  0  0  0  0
   -5.0189   -2.5161   -1.4062 C   0  0  0  0  0  0  0  0  0  0  0  0
    6.0250   -3.0766    6.0447 O   0  0  0  0  0  0  0  0  0  0  0  0
    7.4611   -2.1442    7.4618 C   0  0  0  0  0  0  0  0  0  0  0  0
   -6.9389   -0.9843   -2.9152 C   0  0  0  0  0  0  0  0  0  0  0  0
   -6.4901   -2.3381   -0.9600 C   0  0  0  0  0  0  0  0  0  0  0  0
    5.3384   -2.7659    7.1661 C   0  0  0  0  0  0  0  0  0  0  0  0
    6.1597   -2.0709    8.0432 C   0  0  0  0  0  0  0  0  0  0  0  0
    8.7473   -1.9696    8.1755 C   0  0  0  0  0  0  0  0  0  0  0  0
   -7.4199   -2.1227   -2.0949 N   0  3  0  0  0  0  0  0  0  0  0  0
    3.9952   -3.0281    7.3630 C   0  0  0  0  0  0  0  0  0  0  0  0
    5.5812   -1.5194    9.1967 C   0  0  0  0  0  0  0  0  0  0  0  0
   -8.7702   -1.8578   -1.5996 C   0  0  0  0  0  0  0  0  0  0  0  0
    3.4251   -2.4291    8.4868 C   0  0  0  0  0  0  0  0  0  0  0  0
    4.1974   -1.6665    9.3735 C   0  0  0  0  0  0  0  0  0  0  0  0
    1.7692   -1.4521   -1.5478 H   0  0  0  0  0  0  0  0  0  0  0  0
    1.2624    0.4189   -3.1047 H   0  0  0  0  0  0  0  0  0  0  0  0
    0.8656    1.3435   -1.6604 H   0  0  0  0  0  0  0  0  0  0  0  0
    1.9937   -2.6918    0.0360 H   0  0  0  0  0  0  0  0  0  0  0  0
   -0.8598   -0.0425   -0.0791 H   0  0  0  0  0  0  0  0  0  0  0  0
   -0.6504   -0.3458   -4.2601 H   0  0  0  0  0  0  0  0  0  0  0  0
    5.8967   -0.0720    3.3264 H   0  0  0  0  0  0  0  0  0  0  0  0
    6.9679   -0.7322    2.0720 H   0  0  0  0  0  0  0  0  0  0  0  0
   -3.1459   -0.8026   -0.1467 H   0  0  0  0  0  0  0  0  0  0  0  0
   -2.9585   -1.0664   -4.3207 H   0  0  0  0  0  0  0  0  0  0  0  0
    5.6339   -4.7232    2.3867 H   0  0  0  0  0  0  0  0  0  0  0  0
    4.9720   -3.9614    3.8540 H   0  0  0  0  0  0  0  0  0  0  0  0
    1.9967   -4.9251   -0.4487 H   0  0  0  0  0  0  0  0  0  0  0  0
    7.5023   -3.3007    2.4313 H   0  0  0  0  0  0  0  0  0  0  0  0
    7.2800   -3.8570    4.0855 H   0  0  0  0  0  0  0  0  0  0  0  0
    2.4676   -7.3454    2.8932 H   0  0  0  0  0  0  0  0  0  0  0  0
    1.3605   -7.2617    0.5367 H   0  0  0  0  0  0  0  0  0  0  0  0
   -5.4070   -2.0057   -4.0435 H   0  0  0  0  0  0  0  0  0  0  0  0
   -5.1635   -0.2832   -3.9298 H   0  0  0  0  0  0  0  0  0  0  0  0
   -4.3901   -2.5827   -0.5430 H   0  0  0  0  0  0  0  0  0  0  0  0
   -4.9276   -3.4119   -1.9842 H   0  0  0  0  0  0  0  0  0  0  0  0
   -7.5706   -0.8925   -3.7739 H   0  0  0  0  0  0  0  0  0  0  0  0
   -6.9715   -0.1105   -2.2986 H   0  0  0  0  0  0  0  0  0  0  0  0
   -6.5480   -1.4925   -0.3070 H   0  0  0  0  0  0  0  0  0  0  0  0
   -6.7871   -3.2426   -0.4714 H   0  0  0  0  0  0  0  0  0  0  0  0
    9.5566   -2.0785    7.4840 H   0  0  0  0  0  0  0  0  0  0  0  0
    8.8324   -2.7098    8.9435 H   0  0  0  0  0  0  0  0  0  0  0  0
    8.7821   -0.9945    8.6146 H   0  0  0  0  0  0  0  0  0  0  0  0
   -7.4491   -2.9635   -2.6715 H   0  0  0  0  0  0  0  0  0  0  0  0
    3.4510   -3.6266    6.7220 H   0  0  0  0  0  0  0  0  0  0  0  0
    6.1563   -1.0207    9.8936 H   0  0  0  0  0  0  0  0  0  0  0  0
   -8.7607   -0.9777   -0.9911 H   0  0  0  0  0  0  0  0  0  0  0  0
   -9.1063   -2.6902   -1.0174 H   0  0  0  0  0  0  0  0  0  0  0  0
   -9.4316   -1.7116   -2.4279 H   0  0  0  0  0  0  0  0  0  0  0  0
    2.4164   -2.5498    8.6683 H   0  0  0  0  0  0  0  0  0  0  0  0
    3.7383   -1.2034   10.1734 H   0  0  0  0  0  0  0  0  0  0  0  0
  1  2  2  0  0  0  0
  2  3  1  0  0  0  0
  2  4  1  0  0  0  0
  3  5  1  0  0  0  0
  3 45  1  0  0  0  0
  4  6  2  0  0  0  0
  4  7  1  0  0  0  0
  5  8  1  0  0  0  0
  5 46  1  0  0  0  0
  5 47  1  0  0  0  0
  6  9  1  0  0  0  0
  7 10  2  0  0  0  0
  7 48  1  0  0  0  0
  8 11  2  0  0  0  0
  8 12  1  0  0  0  0
  9 13  2  0  0  0  0
  9 14  1  0  0  0  0
 10 15  1  0  0  0  0
 10 13  1  0  0  0  0
 11 16  1  0  0  0  0
 11 49  1  0  0  0  0
 12 17  2  0  0  0  0
 12 50  1  0  0  0  0
 13 18  1  0  0  0  0
 14 19  1  0  0  0  0
 14 51  1  0  0  0  0
 14 52  1  0  0  0  0
 15 20  1  0  0  0  0
 15 21  1  0  0  0  0
 16 22  2  0  0  0  0
 16 53  1  0  0  0  0
 17 22  1  0  0  0  0
 17 54  1  0  0  0  0
 18 23  1  0  0  0  0
 18 55  1  0  0  0  0
 18 56  1  0  0  0  0
 19 24  1  0  0  0  0
 19 23  1  0  0  0  0
 20 25  2  0  0  0  0
 21 26  2  0  0  0  0
 21 57  1  0  0  0  0
 22 27  1  0  0  0  0
 23 58  1  0  0  0  0
 23 59  1  0  0  0  0
 24 28  2  0  0  0  0
 24 29  1  0  0  0  0
 25 26  1  0  0  0  0
 25 60  1  0  0  0  0
 26 61  1  0  0  0  0
 27 30  1  0  0  0  0
 27 31  1  0  0  0  0
 29 32  1  0  0  0  0
 29 33  2  0  0  0  0
 30 34  1  0  0  0  0
 30 62  1  0  0  0  0
 30 63  1  0  0  0  0
 31 35  1  0  0  0  0
 31 64  1  0  0  0  0
 31 65  1  0  0  0  0
 32 36  1  0  0  0  0
 33 37  1  0  0  0  0
 33 38  1  0  0  0  0
 34 39  1  0  0  0  0
 34 66  1  0  0  0  0
 34 67  1  0  0  0  0
 35 39  1  0  0  0  0
 35 68  1  0  0  0  0
 35 69  1  0  0  0  0
 36 40  2  0  0  0  0
 36 37  1  0  0  0  0
 37 41  2  0  0  0  0
 38 70  1  0  0  0  0
 38 71  1  0  0  0  0
 38 72  1  0  0  0  0
 39 42  1  0  0  0  0
 39 73  1  0  0  0  0
 40 43  1  0  0  0  0
 40 74  1  0  0  0  0
 41 44  1  0  0  0  0
 41 75  1  0  0  0  0
 42 76  1  0  0  0  0
 42 77  1  0  0  0  0
 42 78  1  0  0  0  0
 43 44  2  0  0  0  0
 43 79  1  0  0  0  0
 44 80  1  0  0  0  0
M  CHG  1  39   1
M  END
>  <Molecule Name>
CTX-1020520

>  <SMILES>
CN1CCN(CC1)C1=CC=C(CNC(=O)C2=CC(N3C=CC=N3)=C3CCN(CC3=N2)C(=O)C2=C(C)C3=C(O2)C=CC=C3)C=C1

>  <Batch Name>
CTX-1020520-1

>  <Batch Created Date>
2021-11-04

>  <Batch ID>
CTX-1020520-1

>  <External ID>
610EDL127-2

>  <Stereochemistry>
Achiral

>  <Amount 1>
5.0

>  <Unit 1>
mg

>  <CRO 1>
Pharmaron

>  <CRO 1 Total Amount>
22.6

>  <CRO 1 Unit>
mg

>  <Pharmaron Solubility (PBS, pH 7.4): Aqueous Solubility - Batch Mean (uM)>
7.0256

>  <Pharmaron Solubility (PBS, pH 7.4): Aqueous Solubility - Batch Mean (uM) Standard Deviation (±)>


>  <Pharmaron Solubility (PBS, pH 7.4): Aqueous Solubility - Batch Mean (uM) Count>
1.0

>  <log P>
3.72

>  <log D>
3.08

>  <Pharmaron Caliper Assay (CDK2/CCNE1): Minimum measured (%)>
79.1

>  <Pharmaron Caliper Assay (CDK2/CCNE1): IC50 - Batch Mean (uM)>
2.93

>  <Pharmaron ADPGLO (CDK2/E1-25C): Minimum measured (%)>


>  <Pharmaron ADPGLO (CDK2/E1-25C): IC50 - Batch Mean (uM)>


>  <Pharmaron ADPGLO (CDK2/E1-37C): Minimum measured (%)>


>  <Pharmaron ADPGLO (CDK2/E1-37C): IC50 - Batch Mean (uM)>


>  <IncuCyte Kuramochi RB-WT: IC50 - Batch Mean (uM)>


>  <IncuCyte Kuramochi RB-KO: IC50 - Batch Mean (uM)>


>  <DSF (npCDK2/CCNE1): dTm D - Batch Mean [Concentration: 100]>


>  <DSF (npCDK2/CCNE1): dTm D - Batch Mean [Concentration: 20.0]>
0.564

>  <DSF (pCDK2/CCNE1): dTm D - Batch Mean [Concentration: 100]>


>  <DSF (pCDK2/CCNE1): dTm D - Batch Mean [Concentration: 20.0]>


>  <RLM: t1/2 - Batch Mean (Min)>


>  <RLM: Cl int - Batch Mean (uL/min/mg protein)>


>  <RLM: ER (Hepatic extraction ratio) - Batch Mean>


>  <HLM: t1/2 - Batch Mean (Min)>


>  <HLM: Cl int - Batch Mean (uL/min/mg protein)>


>  <HLM: ER (Hepatic extraction ratio) - Batch Mean>


>  <MDCK-WT 4% BSA: Papp (A-B) - Batch Mean (10-6, cm/s)>


>  <MDCK-WT 4% BSA: Papp (B-A) - Batch Mean (10-6, cm/s)>


>  <MDCK-WT 4% BSA: Efflux Ratio - Batch Mean>


>  <MDCK-WT 4% BSA: ~Net A_B - Batch Mean (10-6, cm/s)>


>  <pIC50>
5.533132

>  <Selection_1>
Y

>  <Selection_N>


>  <Serie>
Naphthyridine

>  <Selection_T>
N

>  <Train_Vs_Test>


$$$$
CTX-1020518
 OpenBabel08272613263D

 61 65  0  0  0  0  0  0  0  0999 V2000
    1.7899   -0.7045   -0.0236 S   0  0  0  0  0  0  0  0  0  0  0  0
    2.1109    0.9790    0.0443 C   0  0  0  0  0  0  0  0  0  0  0  0
    0.1031   -0.4542   -0.0218 C   0  0  0  0  0  0  0  0  0  0  0  0
    3.4509    1.5425    0.0427 C   0  0  0  0  0  0  0  0  0  0  0  0
    0.9230    1.6973    0.0925 C   0  0  0  0  0  0  0  0  0  0  0  0
   -0.2515    0.8764    0.0495 C   0  0  0  0  0  0  0  0  0  0  0  0
   -0.8802   -1.5794   -0.1422 C   0  0  0  0  0  0  0  0  0  0  0  0
    3.6488    2.7630    0.0956 O   0  0  0  0  0  0  0  0  0  0  0  0
    4.5180    0.6553   -0.0245 N   0  0  0  0  0  0  0  0  0  0  0  0
   -1.6901    1.3491    0.0653 C   0  0  0  0  0  0  0  0  0  0  0  0
   -2.2983   -1.0732    0.1783 C   0  0  0  0  0  0  0  0  0  0  0  0
    5.8988    1.0831    0.0153 C   0  0  0  0  0  0  0  0  0  0  0  0
   -2.5714    0.2614   -0.3711 N   0  0  0  0  0  0  0  0  0  0  0  0
    6.6771    0.6788   -1.2129 C   0  0  0  0  0  0  0  0  0  0  0  0
   -3.7571    0.5719   -1.0557 C   0  0  0  0  0  0  0  0  0  0  0  0
    6.2952    1.1151   -2.4823 C   0  0  0  0  0  0  0  0  0  0  0  0
    7.8459   -0.0806   -1.1150 C   0  0  0  0  0  0  0  0  0  0  0  0
   -4.2481    1.6997   -0.9908 O   0  0  0  0  0  0  0  0  0  0  0  0
   -4.2178   -0.4350   -2.0445 C   0  0  0  0  0  0  0  0  0  0  0  0
    7.0603    0.7906   -3.6166 C   0  0  0  0  0  0  0  0  0  0  0  0
    8.6076   -0.3914   -2.2582 C   0  0  0  0  0  0  0  0  0  0  0  0
   -3.1707   -1.1890   -2.5652 O   0  0  0  0  0  0  0  0  0  0  0  0
   -5.0757   -0.2387   -3.1393 C   0  0  0  0  0  0  0  0  0  0  0  0
    8.2438    0.0359   -3.5447 C   0  0  0  0  0  0  0  0  0  0  0  0
   -2.9709   -0.6076   -3.7778 C   0  0  0  0  0  0  0  0  0  0  0  0
   -4.1250    0.0509   -4.1715 C   0  0  0  0  0  0  0  0  0  0  0  0
   -6.5431   -0.1064   -3.2159 C   0  0  0  0  0  0  0  0  0  0  0  0
    8.9571   -0.3046   -4.6898 N   0  0  0  0  0  0  0  0  0  0  0  0
   -1.7658   -0.5940   -4.4630 C   0  0  0  0  0  0  0  0  0  0  0  0
   -4.1020    0.7977   -5.3561 C   0  0  0  0  0  0  0  0  0  0  0  0
    9.0736    0.6443   -5.7988 C   0  0  0  0  0  0  0  0  0  0  0  0
   10.0001   -1.3286   -4.6753 C   0  0  0  0  0  0  0  0  0  0  0  0
   -1.7234    0.2542   -5.5676 C   0  0  0  0  0  0  0  0  0  0  0  0
   -2.8653    0.9411   -6.0029 C   0  0  0  0  0  0  0  0  0  0  0  0
    0.8891    2.7269    0.1537 H   0  0  0  0  0  0  0  0  0  0  0  0
   -0.6168   -2.3557    0.5454 H   0  0  0  0  0  0  0  0  0  0  0  0
   -0.8596   -1.9593   -1.1423 H   0  0  0  0  0  0  0  0  0  0  0  0
    4.3256   -0.3070   -0.1028 H   0  0  0  0  0  0  0  0  0  0  0  0
   -1.7982    2.1823   -0.5972 H   0  0  0  0  0  0  0  0  0  0  0  0
   -1.9557    1.6440    1.0590 H   0  0  0  0  0  0  0  0  0  0  0  0
   -2.4138   -1.0341    1.2413 H   0  0  0  0  0  0  0  0  0  0  0  0
   -2.9897   -1.7526   -0.2749 H   0  0  0  0  0  0  0  0  0  0  0  0
    6.3660    0.6476    0.8737 H   0  0  0  0  0  0  0  0  0  0  0  0
    5.9014    2.1522    0.0582 H   0  0  0  0  0  0  0  0  0  0  0  0
    5.4404    1.6832   -2.5899 H   0  0  0  0  0  0  0  0  0  0  0  0
    8.1558   -0.4191   -0.1907 H   0  0  0  0  0  0  0  0  0  0  0  0
    6.7394    1.1203   -4.5404 H   0  0  0  0  0  0  0  0  0  0  0  0
    9.4652   -0.9543   -2.1457 H   0  0  0  0  0  0  0  0  0  0  0  0
   -6.9768   -0.3990   -2.2825 H   0  0  0  0  0  0  0  0  0  0  0  0
   -6.9178   -0.7356   -3.9961 H   0  0  0  0  0  0  0  0  0  0  0  0
   -6.7991    0.9114   -3.4246 H   0  0  0  0  0  0  0  0  0  0  0  0
   -0.9592   -1.1701   -4.1760 H   0  0  0  0  0  0  0  0  0  0  0  0
   -4.9601    1.2254   -5.7378 H   0  0  0  0  0  0  0  0  0  0  0  0
    8.2792    1.3589   -5.7416 H   0  0  0  0  0  0  0  0  0  0  0  0
    9.0125    0.1167   -6.7276 H   0  0  0  0  0  0  0  0  0  0  0  0
   10.0141    1.1509   -5.7375 H   0  0  0  0  0  0  0  0  0  0  0  0
    9.8481   -1.9806   -3.8406 H   0  0  0  0  0  0  0  0  0  0  0  0
   10.9585   -0.8603   -4.5923 H   0  0  0  0  0  0  0  0  0  0  0  0
    9.9570   -1.8945   -5.5824 H   0  0  0  0  0  0  0  0  0  0  0  0
   -0.8337    0.3792   -6.0754 H   0  0  0  0  0  0  0  0  0  0  0  0
   -2.7944    1.5680   -6.8196 H   0  0  0  0  0  0  0  0  0  0  0  0
  1  2  1  0  0  0  0
  1  3  1  0  0  0  0
  2  4  1  0  0  0  0
  2  5  2  0  0  0  0
  3  6  2  0  0  0  0
  3  7  1  0  0  0  0
  4  8  2  0  0  0  0
  4  9  1  0  0  0  0
  5  6  1  0  0  0  0
  5 35  1  0  0  0  0
  6 10  1  0  0  0  0
  7 11  1  0  0  0  0
  7 36  1  0  0  0  0
  7 37  1  0  0  0  0
  9 12  1  0  0  0  0
  9 38  1  0  0  0  0
 10 13  1  0  0  0  0
 10 39  1  0  0  0  0
 10 40  1  0  0  0  0
 11 13  1  0  0  0  0
 11 41  1  0  0  0  0
 11 42  1  0  0  0  0
 12 14  1  0  0  0  0
 12 43  1  0  0  0  0
 12 44  1  0  0  0  0
 13 15  1  0  0  0  0
 14 16  2  0  0  0  0
 14 17  1  0  0  0  0
 15 18  2  0  0  0  0
 15 19  1  0  0  0  0
 16 20  1  0  0  0  0
 16 45  1  0  0  0  0
 17 21  2  0  0  0  0
 17 46  1  0  0  0  0
 19 22  1  0  0  0  0
 19 23  2  0  0  0  0
 20 24  2  0  0  0  0
 20 47  1  0  0  0  0
 21 24  1  0  0  0  0
 21 48  1  0  0  0  0
 22 25  1  0  0  0  0
 23 26  1  0  0  0  0
 23 27  1  0  0  0  0
 24 28  1  0  0  0  0
 25 29  2  0  0  0  0
 25 26  1  0  0  0  0
 26 30  2  0  0  0  0
 27 49  1  0  0  0  0
 27 50  1  0  0  0  0
 27 51  1  0  0  0  0
 28 31  1  0  0  0  0
 28 32  1  0  0  0  0
 29 33  1  0  0  0  0
 29 52  1  0  0  0  0
 30 34  1  0  0  0  0
 30 53  1  0  0  0  0
 31 54  1  0  0  0  0
 31 55  1  0  0  0  0
 31 56  1  0  0  0  0
 32 57  1  0  0  0  0
 32 58  1  0  0  0  0
 32 59  1  0  0  0  0
 33 34  2  0  0  0  0
 33 60  1  0  0  0  0
 34 61  1  0  0  0  0
M  END
>  <Molecule Name>
CTX-1020518

>  <SMILES>
CN(C)C1=CC=C(CNC(=O)C2=CC3=C(CCN(C3)C(=O)C3=C(C)C4=C(O3)C=CC=C4)S2)C=C1

>  <Batch Name>
CTX-1020518-1

>  <Batch Created Date>
2021-11-04

>  <Batch ID>
CTX-1020518-1

>  <External ID>
610EDL099-C

>  <Stereochemistry>
Achiral

>  <Amount 1>
4.99

>  <Unit 1>
mg

>  <CRO 1>
Pharmaron

>  <CRO 1 Total Amount>
4.5

>  <CRO 1 Unit>
mg

>  <Pharmaron Solubility (PBS, pH 7.4): Aqueous Solubility - Batch Mean (uM)>
0.0073

>  <Pharmaron Solubility (PBS, pH 7.4): Aqueous Solubility - Batch Mean (uM) Standard Deviation (±)>


>  <Pharmaron Solubility (PBS, pH 7.4): Aqueous Solubility - Batch Mean (uM) Count>
1.0

>  <log P>
4.58

>  <log D>
4.58

>  <Pharmaron Caliper Assay (CDK2/CCNE1): Minimum measured (%)>
39.5

>  <Pharmaron Caliper Assay (CDK2/CCNE1): IC50 - Batch Mean (uM)>
0.626

>  <Pharmaron ADPGLO (CDK2/E1-25C): Minimum measured (%)>


>  <Pharmaron ADPGLO (CDK2/E1-25C): IC50 - Batch Mean (uM)>


>  <Pharmaron ADPGLO (CDK2/E1-37C): Minimum measured (%)>


>  <Pharmaron ADPGLO (CDK2/E1-37C): IC50 - Batch Mean (uM)>


>  <IncuCyte Kuramochi RB-WT: IC50 - Batch Mean (uM)>
20.0

>  <IncuCyte Kuramochi RB-KO: IC50 - Batch Mean (uM)>
20.0

>  <DSF (npCDK2/CCNE1): dTm D - Batch Mean [Concentration: 100]>


>  <DSF (npCDK2/CCNE1): dTm D - Batch Mean [Concentration: 20.0]>
2.835

>  <DSF (pCDK2/CCNE1): dTm D - Batch Mean [Concentration: 100]>


>  <DSF (pCDK2/CCNE1): dTm D - Batch Mean [Concentration: 20.0]>
1.4809999999999999

>  <RLM: t1/2 - Batch Mean (Min)>


>  <RLM: Cl int - Batch Mean (uL/min/mg protein)>


>  <RLM: ER (Hepatic extraction ratio) - Batch Mean>


>  <HLM: t1/2 - Batch Mean (Min)>


>  <HLM: Cl int - Batch Mean (uL/min/mg protein)>


>  <HLM: ER (Hepatic extraction ratio) - Batch Mean>


>  <MDCK-WT 4% BSA: Papp (A-B) - Batch Mean (10-6, cm/s)>


>  <MDCK-WT 4% BSA: Papp (B-A) - Batch Mean (10-6, cm/s)>


>  <MDCK-WT 4% BSA: Efflux Ratio - Batch Mean>


>  <MDCK-WT 4% BSA: ~Net A_B - Batch Mean (10-6, cm/s)>


>  <pIC50>
6.203426

>  <Selection_1>
Y

>  <Selection_N>
N

>  <Serie>
Tetrahydrothienopyridine

>  <Selection_T>


>  <Train_Vs_Test>


$$$$
CTX-1020517
 OpenBabel08272613263D

 71 76  0  0  0  0  0  0  0  0999 V2000
    2.1613    2.0994   -1.3781 S   0  0  0  0  0  0  0  0  0  0  0  0
    2.8261    1.3199    0.0189 C   0  0  0  0  0  0  0  0  0  0  0  0
    0.7447    1.0974   -1.4496 C   0  0  0  0  0  0  0  0  0  0  0  0
    2.0066    0.2133    0.3395 C   0  0  0  0  0  0  0  0  0  0  0  0
    4.0564    1.9311    0.7285 C   0  0  0  0  0  0  0  0  0  0  0  0
    0.7813    0.1087   -0.4785 C   0  0  0  0  0  0  0  0  0  0  0  0
   -0.3590    1.1738   -2.3512 C   0  0  0  0  0  0  0  0  0  0  0  0
    2.2499   -0.8296    1.3873 C   0  0  0  0  0  0  0  0  0  0  0  0
    4.0915    2.0152    1.9599 O   0  0  0  0  0  0  0  0  0  0  0  0
    5.2751    2.2342   -0.0257 N   0  0  0  0  0  0  0  0  0  0  0  0
   -0.3132   -0.8125   -0.4160 C   0  0  0  0  0  0  0  0  0  0  0  0
   -1.4352    0.2726   -2.2537 C   0  0  0  0  0  0  0  0  0  0  0  0
    6.4016    3.2652    0.4425 C   0  0  0  0  0  0  0  0  0  0  0  0
    5.7505    0.9510   -0.5147 C   0  0  0  0  0  0  0  0  0  0  0  0
   -1.4114   -0.7215   -1.2956 C   0  0  0  0  0  0  0  0  0  0  0  0
    7.9014    2.7983    0.1553 C   0  0  0  0  0  0  0  0  0  0  0  0
    7.0239    0.9309   -1.2793 C   0  0  0  0  0  0  0  0  0  0  0  0
    8.0924    1.7480   -0.6829 C   0  0  0  0  0  0  0  0  0  0  0  0
    9.3055    3.2320    0.5510 C   0  0  0  0  0  0  0  0  0  0  0  0
    9.6563    1.3869   -1.1485 S   0  0  0  0  0  0  0  0  0  0  0  0
   10.2761    2.2720    0.1805 C   0  0  0  0  0  0  0  0  0  0  0  0
   11.6510    1.8417    0.5122 C   0  0  0  0  0  0  0  0  0  0  0  0
   12.6718    2.5126    0.3858 O   0  0  0  0  0  0  0  0  0  0  0  0
   11.6773    0.4851    0.8723 N   0  0  0  0  0  0  0  0  0  0  0  0
   12.7698   -0.4711    0.7894 C   0  0  0  0  0  0  0  0  0  0  0  0
   12.2431   -1.9047    0.6441 C   0  0  0  0  0  0  0  0  0  0  0  0
   12.0438   -2.4829   -0.6151 C   0  0  0  0  0  0  0  0  0  0  0  0
   11.8782   -2.6988    1.7419 C   0  0  0  0  0  0  0  0  0  0  0  0
   11.4848   -3.7613   -0.7551 C   0  0  0  0  0  0  0  0  0  0  0  0
   11.3031   -3.9897    1.5795 C   0  0  0  0  0  0  0  0  0  0  0  0
   11.0798   -4.5573    0.3177 C   0  0  0  0  0  0  0  0  0  0  0  0
   10.4488   -5.7667    0.1623 N   0  0  0  0  0  0  0  0  0  0  0  0
   10.7098   -6.6858   -0.9656 C   0  0  0  0  0  0  0  0  0  0  0  0
    9.4709   -6.3129    1.1312 C   0  0  0  0  0  0  0  0  0  0  0  0
    9.3811   -7.1061   -1.6492 C   0  0  0  0  0  0  0  0  0  0  0  0
    8.1791   -6.7885    0.4036 C   0  0  0  0  0  0  0  0  0  0  0  0
    8.4509   -7.7439   -0.6937 N   0  3  0  0  0  0  0  0  0  0  0  0
    7.2194   -8.1663   -1.3566 C   0  0  0  0  0  0  0  0  0  0  0  0
   -0.3679    1.8998   -3.0845 H   0  0  0  0  0  0  0  0  0  0  0  0
    3.1697   -0.6201    1.8922 H   0  0  0  0  0  0  0  0  0  0  0  0
    2.3083   -1.7928    0.9250 H   0  0  0  0  0  0  0  0  0  0  0  0
    1.4456   -0.8208    2.0929 H   0  0  0  0  0  0  0  0  0  0  0  0
   -0.2977   -1.5633    0.2919 H   0  0  0  0  0  0  0  0  0  0  0  0
   -2.2390    0.3542   -2.8958 H   0  0  0  0  0  0  0  0  0  0  0  0
    6.2966    3.4162    1.4966 H   0  0  0  0  0  0  0  0  0  0  0  0
    6.2497    4.1562   -0.1301 H   0  0  0  0  0  0  0  0  0  0  0  0
    4.9895    0.5500   -1.1511 H   0  0  0  0  0  0  0  0  0  0  0  0
    5.9576    0.3851    0.3695 H   0  0  0  0  0  0  0  0  0  0  0  0
   -2.1918   -1.3930   -1.2238 H   0  0  0  0  0  0  0  0  0  0  0  0
    6.8301    1.2980   -2.2655 H   0  0  0  0  0  0  0  0  0  0  0  0
    7.3704   -0.0814   -1.2774 H   0  0  0  0  0  0  0  0  0  0  0  0
    9.5232    4.1190    1.0315 H   0  0  0  0  0  0  0  0  0  0  0  0
   10.8333    0.1293    1.2334 H   0  0  0  0  0  0  0  0  0  0  0  0
   13.3599   -0.4046    1.6795 H   0  0  0  0  0  0  0  0  0  0  0  0
   13.3592   -0.2378   -0.0726 H   0  0  0  0  0  0  0  0  0  0  0  0
   12.3146   -1.9561   -1.4601 H   0  0  0  0  0  0  0  0  0  0  0  0
   12.0317   -2.3355    2.6955 H   0  0  0  0  0  0  0  0  0  0  0  0
   11.3656   -4.1364   -1.7091 H   0  0  0  0  0  0  0  0  0  0  0  0
   11.0410   -4.5273    2.4206 H   0  0  0  0  0  0  0  0  0  0  0  0
   11.2079   -7.5590   -0.5991 H   0  0  0  0  0  0  0  0  0  0  0  0
   11.3228   -6.1832   -1.6843 H   0  0  0  0  0  0  0  0  0  0  0  0
    9.2153   -5.5519    1.8385 H   0  0  0  0  0  0  0  0  0  0  0  0
    9.9126   -7.1507    1.6291 H   0  0  0  0  0  0  0  0  0  0  0  0
    9.5996   -7.7988   -2.4349 H   0  0  0  0  0  0  0  0  0  0  0  0
    8.9112   -6.2250   -2.0337 H   0  0  0  0  0  0  0  0  0  0  0  0
    7.6831   -5.9328   -0.0046 H   0  0  0  0  0  0  0  0  0  0  0  0
    7.5734   -7.2950    1.1258 H   0  0  0  0  0  0  0  0  0  0  0  0
    8.8765   -8.5875   -0.3094 H   0  0  0  0  0  0  0  0  0  0  0  0
    6.7313   -7.3132   -1.7794 H   0  0  0  0  0  0  0  0  0  0  0  0
    6.5714   -8.6308   -0.6429 H   0  0  0  0  0  0  0  0  0  0  0  0
    7.4537   -8.8644   -2.1329 H   0  0  0  0  0  0  0  0  0  0  0  0
  1  2  1  0  0  0  0
  1  3  1  0  0  0  0
  2  4  2  0  0  0  0
  2  5  1  0  0  0  0
  3  6  2  0  0  0  0
  3  7  1  0  0  0  0
  4  8  1  0  0  0  0
  4  6  1  0  0  0  0
  5  9  2  0  0  0  0
  5 10  1  0  0  0  0
  6 11  1  0  0  0  0
  7 12  2  0  0  0  0
  7 39  1  0  0  0  0
  8 40  1  0  0  0  0
  8 41  1  0  0  0  0
  8 42  1  0  0  0  0
 10 13  1  0  0  0  0
 10 14  1  0  0  0  0
 11 15  2  0  0  0  0
 11 43  1  0  0  0  0
 12 15  1  0  0  0  0
 12 44  1  0  0  0  0
 13 16  1  0  0  0  0
 13 45  1  0  0  0  0
 13 46  1  0  0  0  0
 14 17  1  0  0  0  0
 14 47  1  0  0  0  0
 14 48  1  0  0  0  0
 15 49  1  0  0  0  0
 16 18  2  0  0  0  0
 16 19  1  0  0  0  0
 17 18  1  0  0  0  0
 17 50  1  0  0  0  0
 17 51  1  0  0  0  0
 18 20  1  0  0  0  0
 19 21  2  0  0  0  0
 19 52  1  0  0  0  0
 20 21  1  0  0  0  0
 21 22  1  0  0  0  0
 22 23  2  0  0  0  0
 22 24  1  0  0  0  0
 24 25  1  0  0  0  0
 24 53  1  0  0  0  0
 25 26  1  0  0  0  0
 25 54  1  0  0  0  0
 25 55  1  0  0  0  0
 26 27  2  0  0  0  0
 26 28  1  0  0  0  0
 27 29  1  0  0  0  0
 27 56  1  0  0  0  0
 28 30  2  0  0  0  0
 28 57  1  0  0  0  0
 29 31  2  0  0  0  0
 29 58  1  0  0  0  0
 30 31  1  0  0  0  0
 30 59  1  0  0  0  0
 31 32  1  0  0  0  0
 32 33  1  0  0  0  0
 32 34  1  0  0  0  0
 33 35  1  0  0  0  0
 33 60  1  0  0  0  0
 33 61  1  0  0  0  0
 34 36  1  0  0  0  0
 34 62  1  0  0  0  0
 34 63  1  0  0  0  0
 35 37  1  0  0  0  0
 35 64  1  0  0  0  0
 35 65  1  0  0  0  0
 36 37  1  0  0  0  0
 36 66  1  0  0  0  0
 36 67  1  0  0  0  0
 37 38  1  0  0  0  0
 37 68  1  0  0  0  0
 38 69  1  0  0  0  0
 38 70  1  0  0  0  0
 38 71  1  0  0  0  0
M  CHG  1  37   1
M  END
>  <Molecule Name>
CTX-1020517

>  <SMILES>
CN1CCN(CC1)C1=CC=C(CNC(=O)C2=CC3=C(CCN(C3)C(=O)C3=C(C)C4=C(S3)C=CC=C4)S2)C=C1

>  <Batch Name>
CTX-1020517-1

>  <Batch Created Date>
2021-11-04

>  <Batch ID>
CTX-1020517-1

>  <External ID>
610EDL074-B

>  <Stereochemistry>
Achiral

>  <Amount 1>
5.04

>  <Unit 1>
mg

>  <CRO 1>
Pharmaron

>  <CRO 1 Total Amount>
24.4

>  <CRO 1 Unit>
mg

>  <Pharmaron Solubility (PBS, pH 7.4): Aqueous Solubility - Batch Mean (uM)>
0.8627

>  <Pharmaron Solubility (PBS, pH 7.4): Aqueous Solubility - Batch Mean (uM) Standard Deviation (±)>


>  <Pharmaron Solubility (PBS, pH 7.4): Aqueous Solubility - Batch Mean (uM) Count>
1.0

>  <log P>
5.36

>  <log D>
4.72

>  <Pharmaron Caliper Assay (CDK2/CCNE1): Minimum measured (%)>
62.5

>  <Pharmaron Caliper Assay (CDK2/CCNE1): IC50 - Batch Mean (uM)>
2.88

>  <Pharmaron ADPGLO (CDK2/E1-25C): Minimum measured (%)>


>  <Pharmaron ADPGLO (CDK2/E1-25C): IC50 - Batch Mean (uM)>


>  <Pharmaron ADPGLO (CDK2/E1-37C): Minimum measured (%)>


>  <Pharmaron ADPGLO (CDK2/E1-37C): IC50 - Batch Mean (uM)>


>  <IncuCyte Kuramochi RB-WT: IC50 - Batch Mean (uM)>
5.81

>  <IncuCyte Kuramochi RB-KO: IC50 - Batch Mean (uM)>
5.92

>  <DSF (npCDK2/CCNE1): dTm D - Batch Mean [Concentration: 100]>


>  <DSF (npCDK2/CCNE1): dTm D - Batch Mean [Concentration: 20.0]>
2.1

>  <DSF (pCDK2/CCNE1): dTm D - Batch Mean [Concentration: 100]>


>  <DSF (pCDK2/CCNE1): dTm D - Batch Mean [Concentration: 20.0]>
1.815

>  <RLM: t1/2 - Batch Mean (Min)>


>  <RLM: Cl int - Batch Mean (uL/min/mg protein)>


>  <RLM: ER (Hepatic extraction ratio) - Batch Mean>


>  <HLM: t1/2 - Batch Mean (Min)>


>  <HLM: Cl int - Batch Mean (uL/min/mg protein)>


>  <HLM: ER (Hepatic extraction ratio) - Batch Mean>


>  <MDCK-WT 4% BSA: Papp (A-B) - Batch Mean (10-6, cm/s)>


>  <MDCK-WT 4% BSA: Papp (B-A) - Batch Mean (10-6, cm/s)>


>  <MDCK-WT 4% BSA: Efflux Ratio - Batch Mean>


>  <MDCK-WT 4% BSA: ~Net A_B - Batch Mean (10-6, cm/s)>


>  <pIC50>
5.540607

>  <Selection_1>
Y

>  <Selection_N>
N

>  <Serie>
Tetrahydrothienopyridine

>  <Selection_T>


>  <Train_Vs_Test>


$$$$
CTX-1020516
 OpenBabel08272613263D

 53 57  0  0  0  0  0  0  0  0999 V2000
    1.7718   -0.7026   -0.0334 S   0  0  0  0  0  0  0  0  0  0  0  0
    2.0967    0.9776    0.0546 C   0  0  0  0  0  0  0  0  0  0  0  0
    0.0873   -0.4500   -0.0339 C   0  0  0  0  0  0  0  0  0  0  0  0
    3.4524    1.5289    0.0776 C   0  0  0  0  0  0  0  0  0  0  0  0
    0.9141    1.7017    0.0998 C   0  0  0  0  0  0  0  0  0  0  0  0
   -0.2663    0.8835    0.0482 C   0  0  0  0  0  0  0  0  0  0  0  0
   -0.8975   -1.5701   -0.1630 C   0  0  0  0  0  0  0  0  0  0  0  0
    3.6644    2.7348    0.1654 O   0  0  0  0  0  0  0  0  0  0  0  0
    4.4965    0.6317   -0.0034 N   0  0  0  0  0  0  0  0  0  0  0  0
   -1.7026    1.3594    0.0673 C   0  0  0  0  0  0  0  0  0  0  0  0
   -2.3113   -1.0666    0.1732 C   0  0  0  0  0  0  0  0  0  0  0  0
    5.8931    1.0374    0.0483 C   0  0  0  0  0  0  0  0  0  0  0  0
   -2.5869    0.2731   -0.3600 N   0  0  0  0  0  0  0  0  0  0  0  0
    6.6493    0.6554   -1.1952 C   0  0  0  0  0  0  0  0  0  0  0  0
   -3.7895    0.5803   -1.0084 C   0  0  0  0  0  0  0  0  0  0  0  0
    6.2422    1.1213   -2.4551 C   0  0  0  0  0  0  0  0  0  0  0  0
    7.8206   -0.1131   -1.1107 C   0  0  0  0  0  0  0  0  0  0  0  0
   -4.3371    1.6714   -0.8589 O   0  0  0  0  0  0  0  0  0  0  0  0
   -4.1772   -0.3609   -2.0765 C   0  0  0  0  0  0  0  0  0  0  0  0
    6.9814    0.8174   -3.6011 C   0  0  0  0  0  0  0  0  0  0  0  0
    8.5609   -0.4133   -2.2572 C   0  0  0  0  0  0  0  0  0  0  0  0
   -3.1113   -1.0643   -2.6060 O   0  0  0  0  0  0  0  0  0  0  0  0
   -5.0816   -0.1873   -3.1307 C   0  0  0  0  0  0  0  0  0  0  0  0
    8.1412    0.0515   -3.5020 C   0  0  0  0  0  0  0  0  0  0  0  0
   -2.9987   -0.5653   -3.8645 C   0  0  0  0  0  0  0  0  0  0  0  0
   -4.1936    0.0436   -4.2264 C   0  0  0  0  0  0  0  0  0  0  0  0
   -6.5504    0.0033   -3.1100 C   0  0  0  0  0  0  0  0  0  0  0  0
   -1.8337   -0.5758   -4.6081 C   0  0  0  0  0  0  0  0  0  0  0  0
   -4.2376    0.7250   -5.4539 C   0  0  0  0  0  0  0  0  0  0  0  0
   -1.8676    0.1939   -5.7704 C   0  0  0  0  0  0  0  0  0  0  0  0
   -3.0419    0.8371   -6.1830 C   0  0  0  0  0  0  0  0  0  0  0  0
    0.8848    2.7313    0.1643 H   0  0  0  0  0  0  0  0  0  0  0  0
   -0.6310   -2.3561    0.5123 H   0  0  0  0  0  0  0  0  0  0  0  0
   -0.8842   -1.9363   -1.1683 H   0  0  0  0  0  0  0  0  0  0  0  0
    4.2879   -0.3255   -0.1006 H   0  0  0  0  0  0  0  0  0  0  0  0
   -1.8114    2.1897   -0.5988 H   0  0  0  0  0  0  0  0  0  0  0  0
   -1.9638    1.6597    1.0605 H   0  0  0  0  0  0  0  0  0  0  0  0
   -2.4187   -1.0384    1.2375 H   0  0  0  0  0  0  0  0  0  0  0  0
   -3.0068   -1.7406   -0.2817 H   0  0  0  0  0  0  0  0  0  0  0  0
    6.3564    0.5668    0.8901 H   0  0  0  0  0  0  0  0  0  0  0  0
    5.9195    2.1039    0.1307 H   0  0  0  0  0  0  0  0  0  0  0  0
    5.3878    1.6944   -2.5358 H   0  0  0  0  0  0  0  0  0  0  0  0
    8.1384   -0.4602   -0.1922 H   0  0  0  0  0  0  0  0  0  0  0  0
    6.6679    1.1606   -4.5224 H   0  0  0  0  0  0  0  0  0  0  0  0
    9.4200   -0.9801   -2.1820 H   0  0  0  0  0  0  0  0  0  0  0  0
    8.6880   -0.1709   -4.3484 H   0  0  0  0  0  0  0  0  0  0  0  0
   -6.9299   -0.2546   -2.1434 H   0  0  0  0  0  0  0  0  0  0  0  0
   -7.0019   -0.6244   -3.8496 H   0  0  0  0  0  0  0  0  0  0  0  0
   -6.7803    1.0265   -3.3221 H   0  0  0  0  0  0  0  0  0  0  0  0
   -1.0000   -1.1137   -4.3241 H   0  0  0  0  0  0  0  0  0  0  0  0
   -5.1184    1.1296   -5.8082 H   0  0  0  0  0  0  0  0  0  0  0  0
   -1.0110    0.2918   -6.3376 H   0  0  0  0  0  0  0  0  0  0  0  0
   -3.0282    1.4069   -7.0433 H   0  0  0  0  0  0  0  0  0  0  0  0
  1  2  1  0  0  0  0
  1  3  1  0  0  0  0
  2  4  1  0  0  0  0
  2  5  2  0  0  0  0
  3  6  2  0  0  0  0
  3  7  1  0  0  0  0
  4  8  2  0  0  0  0
  4  9  1  0  0  0  0
  5  6  1  0  0  0  0
  5 32  1  0  0  0  0
  6 10  1  0  0  0  0
  7 11  1  0  0  0  0
  7 33  1  0  0  0  0
  7 34  1  0  0  0  0
  9 12  1  0  0  0  0
  9 35  1  0  0  0  0
 10 13  1  0  0  0  0
 10 36  1  0  0  0  0
 10 37  1  0  0  0  0
 11 13  1  0  0  0  0
 11 38  1  0  0  0  0
 11 39  1  0  0  0  0
 12 14  1  0  0  0  0
 12 40  1  0  0  0  0
 12 41  1  0  0  0  0
 13 15  1  0  0  0  0
 14 16  2  0  0  0  0
 14 17  1  0  0  0  0
 15 18  2  0  0  0  0
 15 19  1  0  0  0  0
 16 20  1  0  0  0  0
 16 42  1  0  0  0  0
 17 21  2  0  0  0  0
 17 43  1  0  0  0  0
 19 22  1  0  0  0  0
 19 23  2  0  0  0  0
 20 24  2  0  0  0  0
 20 44  1  0  0  0  0
 21 24  1  0  0  0  0
 21 45  1  0  0  0  0
 22 25  1  0  0  0  0
 23 26  1  0  0  0  0
 23 27  1  0  0  0  0
 24 46  1  0  0  0  0
 25 28  2  0  0  0  0
 25 26  1  0  0  0  0
 26 29  2  0  0  0  0
 27 47  1  0  0  0  0
 27 48  1  0  0  0  0
 27 49  1  0  0  0  0
 28 30  1  0  0  0  0
 28 50  1  0  0  0  0
 29 31  1  0  0  0  0
 29 51  1  0  0  0  0
 30 31  2  0  0  0  0
 30 52  1  0  0  0  0
 31 53  1  0  0  0  0
M  END
>  <Molecule Name>
CTX-1020516

>  <SMILES>
CC1=C(OC2=C1C=CC=C2)C(=O)N1CCC2=C(C1)C=C(S2)C(=O)NCC1=CC=CC=C1

>  <Batch Name>
CTX-1020516-1

>  <Batch Created Date>
2021-11-04

>  <Batch ID>
CTX-1020516-1

>  <External ID>
610EDL073-C

>  <Stereochemistry>
Achiral

>  <Amount 1>
6.65

>  <Unit 1>
mg

>  <CRO 1>
Pharmaron

>  <CRO 1 Total Amount>
6.4

>  <CRO 1 Unit>
mg

>  <Pharmaron Solubility (PBS, pH 7.4): Aqueous Solubility - Batch Mean (uM)>
0.0048

>  <Pharmaron Solubility (PBS, pH 7.4): Aqueous Solubility - Batch Mean (uM) Standard Deviation (±)>


>  <Pharmaron Solubility (PBS, pH 7.4): Aqueous Solubility - Batch Mean (uM) Count>
1.0

>  <log P>
4.47

>  <log D>
4.47

>  <Pharmaron Caliper Assay (CDK2/CCNE1): Minimum measured (%)>
52.0

>  <Pharmaron Caliper Assay (CDK2/CCNE1): IC50 - Batch Mean (uM)>
0.75

>  <Pharmaron ADPGLO (CDK2/E1-25C): Minimum measured (%)>


>  <Pharmaron ADPGLO (CDK2/E1-25C): IC50 - Batch Mean (uM)>


>  <Pharmaron ADPGLO (CDK2/E1-37C): Minimum measured (%)>


>  <Pharmaron ADPGLO (CDK2/E1-37C): IC50 - Batch Mean (uM)>


>  <IncuCyte Kuramochi RB-WT: IC50 - Batch Mean (uM)>
20.0

>  <IncuCyte Kuramochi RB-KO: IC50 - Batch Mean (uM)>
20.0

>  <DSF (npCDK2/CCNE1): dTm D - Batch Mean [Concentration: 100]>


>  <DSF (npCDK2/CCNE1): dTm D - Batch Mean [Concentration: 20.0]>
2.501

>  <DSF (pCDK2/CCNE1): dTm D - Batch Mean [Concentration: 100]>


>  <DSF (pCDK2/CCNE1): dTm D - Batch Mean [Concentration: 20.0]>
1.147

>  <RLM: t1/2 - Batch Mean (Min)>


>  <RLM: Cl int - Batch Mean (uL/min/mg protein)>


>  <RLM: ER (Hepatic extraction ratio) - Batch Mean>


>  <HLM: t1/2 - Batch Mean (Min)>


>  <HLM: Cl int - Batch Mean (uL/min/mg protein)>


>  <HLM: ER (Hepatic extraction ratio) - Batch Mean>


>  <MDCK-WT 4% BSA: Papp (A-B) - Batch Mean (10-6, cm/s)>


>  <MDCK-WT 4% BSA: Papp (B-A) - Batch Mean (10-6, cm/s)>


>  <MDCK-WT 4% BSA: Efflux Ratio - Batch Mean>


>  <MDCK-WT 4% BSA: ~Net A_B - Batch Mean (10-6, cm/s)>


>  <pIC50>
6.124939

>  <Selection_1>
Y

>  <Selection_N>
N

>  <Serie>
Tetrahydrothienopyridine

>  <Selection_T>


>  <Train_Vs_Test>


$$$$
CTX-1020459
 OpenBabel08272613263D

 73 78  0  0  0  0  0  0  0  0999 V2000
    1.2140   -0.2145   -0.0249 Cl  0  0  0  0  0  0  0  0  0  0  0  0
    2.9383   -0.1657   -0.0212 C   0  0  0  0  0  0  0  0  0  0  0  0
    3.6839   -1.3593    0.0471 C   0  0  0  0  0  0  0  0  0  0  0  0
    3.5703    1.0575   -0.0802 C   0  0  0  0  0  0  0  0  0  0  0  0
    5.1268   -1.3922    0.0553 C   0  0  0  0  0  0  0  0  0  0  0  0
    5.0102    1.0590   -0.0690 C   0  0  0  0  0  0  0  0  0  0  0  0
    5.8148   -0.1792    0.0029 C   0  0  0  0  0  0  0  0  0  0  0  0
    6.0970   -2.4656    0.1146 C   0  0  0  0  0  0  0  0  0  0  0  0
    7.2607   -0.5258    0.0386 O   0  0  0  0  0  0  0  0  0  0  0  0
    7.4414   -1.9887    0.1165 C   0  0  0  0  0  0  0  0  0  0  0  0
    5.6583   -3.8910    0.1616 C   0  0  0  0  0  0  0  0  0  0  0  0
    8.7832   -3.0010    0.2036 C   0  0  0  0  0  0  0  0  0  0  0  0
    8.5387   -4.2117    0.2920 O   0  0  0  0  0  0  0  0  0  0  0  0
   10.2942   -2.7463    0.2148 N   0  0  0  0  0  0  0  0  0  0  0  0
   11.4424   -3.7968    0.2423 C   0  0  0  0  0  0  0  0  0  0  0  0
   10.6709   -1.4168    0.0522 C   0  0  0  0  0  0  0  0  0  0  0  0
   12.9799   -3.2593    0.2668 C   0  0  0  0  0  0  0  0  0  0  0  0
   12.0776   -0.8879    0.0800 C   0  0  0  0  0  0  0  0  0  0  0  0
   14.1120   -4.0869    0.3790 N   0  0  0  0  0  0  0  0  0  0  0  0
   13.1697   -1.8767    0.1879 C   0  0  0  0  0  0  0  0  0  0  0  0
   15.3791   -3.4694    0.4684 C   0  0  0  0  0  0  0  0  0  0  0  0
   14.4460   -1.3065    0.2507 C   0  0  0  0  0  0  0  0  0  0  0  0
   16.7574   -4.1768    0.5690 C   0  0  0  0  0  0  0  0  0  0  0  0
   15.5485   -2.0965    0.4294 C   0  0  0  0  0  0  0  0  0  0  0  0
   17.7621   -3.4708    0.6741 O   0  0  0  0  0  0  0  0  0  0  0  0
   16.8542   -5.4915    0.5493 N   0  0  0  0  0  0  0  0  0  0  0  0
   18.1425   -6.2070    0.4649 C   0  0  0  0  0  0  0  0  0  0  0  0
   18.3136   -7.2055    1.5798 C   0  0  0  0  0  0  0  0  0  0  0  0
   17.9070   -8.5382    1.4251 C   0  0  0  0  0  0  0  0  0  0  0  0
   18.8333   -6.8160    2.8104 C   0  0  0  0  0  0  0  0  0  0  0  0
   17.9773   -9.4224    2.5111 C   0  0  0  0  0  0  0  0  0  0  0  0
   18.9456   -7.7236    3.8692 C   0  0  0  0  0  0  0  0  0  0  0  0
   18.4944   -9.0391    3.7623 C   0  0  0  0  0  0  0  0  0  0  0  0
   18.5555   -9.9287    4.8134 N   0  0  0  0  0  0  0  0  0  0  0  0
   19.5703   -9.8949    5.9491 C   0  0  0  0  0  0  0  0  0  0  0  0
   17.4266  -10.8308    5.1012 C   0  0  0  0  0  0  0  0  0  0  0  0
   20.0152  -11.2926    6.3140 C   0  0  0  0  0  0  0  0  0  0  0  0
   17.9431  -12.2041    5.5902 C   0  0  0  0  0  0  0  0  0  0  0  0
   18.8785  -12.0966    6.7298 N   0  3  0  0  0  0  0  0  0  0  0  0
   19.2987  -13.4146    7.1926 C   0  0  0  0  0  0  0  0  0  0  0  0
    3.1728   -2.2547    0.0934 H   0  0  0  0  0  0  0  0  0  0  0  0
    3.0331    1.9373   -0.1304 H   0  0  0  0  0  0  0  0  0  0  0  0
    5.5025    1.9650   -0.1131 H   0  0  0  0  0  0  0  0  0  0  0  0
    4.5893   -3.9359    0.1476 H   0  0  0  0  0  0  0  0  0  0  0  0
    6.0226   -4.3470    1.0584 H   0  0  0  0  0  0  0  0  0  0  0  0
    6.0483   -4.4124   -0.6875 H   0  0  0  0  0  0  0  0  0  0  0  0
   11.3341   -4.4075   -0.6297 H   0  0  0  0  0  0  0  0  0  0  0  0
   11.3218   -4.2955    1.1812 H   0  0  0  0  0  0  0  0  0  0  0  0
   10.1550   -0.8829    0.8227 H   0  0  0  0  0  0  0  0  0  0  0  0
   10.4486   -1.2899   -0.9867 H   0  0  0  0  0  0  0  0  0  0  0  0
   12.1567   -0.2284    0.9189 H   0  0  0  0  0  0  0  0  0  0  0  0
   12.2172   -0.4265   -0.8753 H   0  0  0  0  0  0  0  0  0  0  0  0
   14.5562   -0.2843    0.1617 H   0  0  0  0  0  0  0  0  0  0  0  0
   16.4860   -1.6778    0.5330 H   0  0  0  0  0  0  0  0  0  0  0  0
   16.0262   -6.0223    0.5931 H   0  0  0  0  0  0  0  0  0  0  0  0
   18.9374   -5.4926    0.5172 H   0  0  0  0  0  0  0  0  0  0  0  0
   18.1603   -6.7427   -0.4612 H   0  0  0  0  0  0  0  0  0  0  0  0
   17.5561   -8.8683    0.5124 H   0  0  0  0  0  0  0  0  0  0  0  0
   19.1414   -5.8402    2.9445 H   0  0  0  0  0  0  0  0  0  0  0  0
   17.6376  -10.3891    2.3883 H   0  0  0  0  0  0  0  0  0  0  0  0
   19.3743   -7.4109    4.7543 H   0  0  0  0  0  0  0  0  0  0  0  0
   19.1232   -9.4345    6.8053 H   0  0  0  0  0  0  0  0  0  0  0  0
   20.4246   -9.3360    5.6288 H   0  0  0  0  0  0  0  0  0  0  0  0
   16.8495  -10.9682    4.2107 H   0  0  0  0  0  0  0  0  0  0  0  0
   16.8216  -10.3949    5.8686 H   0  0  0  0  0  0  0  0  0  0  0  0
   20.7210  -11.2391    7.1164 H   0  0  0  0  0  0  0  0  0  0  0  0
   20.4653  -11.7473    5.4563 H   0  0  0  0  0  0  0  0  0  0  0  0
   18.4474  -12.6872    4.7795 H   0  0  0  0  0  0  0  0  0  0  0  0
   17.0951  -12.7649    5.9238 H   0  0  0  0  0  0  0  0  0  0  0  0
   18.4125  -11.6462    7.5175 H   0  0  0  0  0  0  0  0  0  0  0  0
   19.7957  -13.9300    6.3975 H   0  0  0  0  0  0  0  0  0  0  0  0
   18.4406  -13.9752    7.4996 H   0  0  0  0  0  0  0  0  0  0  0  0
   19.9682  -13.3053    8.0201 H   0  0  0  0  0  0  0  0  0  0  0  0
  1  2  1  0  0  0  0
  2  3  2  0  0  0  0
  2  4  1  0  0  0  0
  3  5  1  0  0  0  0
  3 41  1  0  0  0  0
  4  6  2  0  0  0  0
  4 42  1  0  0  0  0
  5  7  2  0  0  0  0
  5  8  1  0  0  0  0
  6  7  1  0  0  0  0
  6 43  1  0  0  0  0
  7  9  1  0  0  0  0
  8 10  2  0  0  0  0
  8 11  1  0  0  0  0
  9 10  1  0  0  0  0
 10 12  1  0  0  0  0
 11 44  1  0  0  0  0
 11 45  1  0  0  0  0
 11 46  1  0  0  0  0
 12 13  2  0  0  0  0
 12 14  1  0  0  0  0
 14 15  1  0  0  0  0
 14 16  1  0  0  0  0
 15 17  1  0  0  0  0
 15 47  1  0  0  0  0
 15 48  1  0  0  0  0
 16 18  1  0  0  0  0
 16 49  1  0  0  0  0
 16 50  1  0  0  0  0
 17 19  2  0  0  0  0
 17 20  1  0  0  0  0
 18 20  1  0  0  0  0
 18 51  1  0  0  0  0
 18 52  1  0  0  0  0
 19 21  1  0  0  0  0
 20 22  2  0  0  0  0
 21 23  1  0  0  0  0
 21 24  2  0  0  0  0
 22 24  1  0  0  0  0
 22 53  1  0  0  0  0
 23 25  2  0  0  0  0
 23 26  1  0  0  0  0
 24 54  1  0  0  0  0
 26 27  1  0  0  0  0
 26 55  1  0  0  0  0
 27 28  1  0  0  0  0
 27 56  1  0  0  0  0
 27 57  1  0  0  0  0
 28 29  2  0  0  0  0
 28 30  1  0  0  0  0
 29 31  1  0  0  0  0
 29 58  1  0  0  0  0
 30 32  2  0  0  0  0
 30 59  1  0  0  0  0
 31 33  2  0  0  0  0
 31 60  1  0  0  0  0
 32 33  1  0  0  0  0
 32 61  1  0  0  0  0
 33 34  1  0  0  0  0
 34 35  1  0  0  0  0
 34 36  1  0  0  0  0
 35 37  1  0  0  0  0
 35 62  1  0  0  0  0
 35 63  1  0  0  0  0
 36 38  1  0  0  0  0
 36 64  1  0  0  0  0
 36 65  1  0  0  0  0
 37 39  1  0  0  0  0
 37 66  1  0  0  0  0
 37 67  1  0  0  0  0
 38 39  1  0  0  0  0
 38 68  1  0  0  0  0
 38 69  1  0  0  0  0
 39 40  1  0  0  0  0
 39 70  1  0  0  0  0
 40 71  1  0  0  0  0
 40 72  1  0  0  0  0
 40 73  1  0  0  0  0
M  CHG  1  39   1
M  END
>  <Molecule Name>
CTX-1020459

>  <SMILES>
CN1CCN(CC1)C1=CC=C(CNC(=O)C2=CC=C3CCN(CC3=N2)C(=O)C2=C(C)C3=C(O2)C=CC(Cl)=C3)C=C1

>  <Batch Name>
CTX-1020459-1

>  <Batch Created Date>
2021-10-21

>  <Batch ID>
CTX-1020459-1

>  <External ID>
P841-0208

>  <Stereochemistry>
Achiral

>  <Amount 1>
5.2

>  <Unit 1>
mg

>  <CRO 1>
Pharmaron

>  <CRO 1 Total Amount>
32.2

>  <CRO 1 Unit>
mg

>  <Pharmaron Solubility (PBS, pH 7.4): Aqueous Solubility - Batch Mean (uM)>
1.5634

>  <Pharmaron Solubility (PBS, pH 7.4): Aqueous Solubility - Batch Mean (uM) Standard Deviation (±)>


>  <Pharmaron Solubility (PBS, pH 7.4): Aqueous Solubility - Batch Mean (uM) Count>
1.0

>  <log P>
4.24

>  <log D>
3.6

>  <Pharmaron Caliper Assay (CDK2/CCNE1): Minimum measured (%)>
73.2

>  <Pharmaron Caliper Assay (CDK2/CCNE1): IC50 - Batch Mean (uM)>
1.82

>  <Pharmaron ADPGLO (CDK2/E1-25C): Minimum measured (%)>


>  <Pharmaron ADPGLO (CDK2/E1-25C): IC50 - Batch Mean (uM)>


>  <Pharmaron ADPGLO (CDK2/E1-37C): Minimum measured (%)>


>  <Pharmaron ADPGLO (CDK2/E1-37C): IC50 - Batch Mean (uM)>


>  <IncuCyte Kuramochi RB-WT: IC50 - Batch Mean (uM)>
3.76

>  <IncuCyte Kuramochi RB-KO: IC50 - Batch Mean (uM)>
4.13

>  <DSF (npCDK2/CCNE1): dTm D - Batch Mean [Concentration: 100]>


>  <DSF (npCDK2/CCNE1): dTm D - Batch Mean [Concentration: 20.0]>
0.341

>  <DSF (pCDK2/CCNE1): dTm D - Batch Mean [Concentration: 100]>


>  <DSF (pCDK2/CCNE1): dTm D - Batch Mean [Concentration: 20.0]>


>  <RLM: t1/2 - Batch Mean (Min)>


>  <RLM: Cl int - Batch Mean (uL/min/mg protein)>


>  <RLM: ER (Hepatic extraction ratio) - Batch Mean>


>  <HLM: t1/2 - Batch Mean (Min)>


>  <HLM: Cl int - Batch Mean (uL/min/mg protein)>


>  <HLM: ER (Hepatic extraction ratio) - Batch Mean>


>  <MDCK-WT 4% BSA: Papp (A-B) - Batch Mean (10-6, cm/s)>


>  <MDCK-WT 4% BSA: Papp (B-A) - Batch Mean (10-6, cm/s)>


>  <MDCK-WT 4% BSA: Efflux Ratio - Batch Mean>


>  <MDCK-WT 4% BSA: ~Net A_B - Batch Mean (10-6, cm/s)>


>  <pIC50>
5.739929

>  <Selection_1>
Y

>  <Selection_N>


>  <Serie>
Naphthyridine

>  <Selection_T>
N

>  <Train_Vs_Test>


$$$$
CTX-1020458
 OpenBabel08272613263D

 76 81  0  0  0  0  0  0  0  0999 V2000
    1.2567   -0.3694   -0.5992 O   0  0  0  0  0  0  0  0  0  0  0  0
    2.2906   -0.0104   -0.0366 C   0  0  0  0  0  0  0  0  0  0  0  0
    2.7707    1.2819   -0.1024 N   0  0  0  0  0  0  0  0  0  0  0  0
    3.1012   -0.9879    0.7664 C   0  0  0  0  0  0  0  0  0  0  0  0
    2.0938    2.3094   -0.8612 C   0  0  0  0  0  0  0  0  0  0  0  0
    4.2143   -0.5305    1.4139 N   0  0  0  0  0  0  0  0  0  0  0  0
    2.6724   -2.3070    0.8024 C   0  0  0  0  0  0  0  0  0  0  0  0
    2.9573    2.8714   -1.9576 C   0  0  0  0  0  0  0  0  0  0  0  0
    4.9247   -1.4436    2.1471 C   0  0  0  0  0  0  0  0  0  0  0  0
    3.4246   -3.2313    1.5121 C   0  0  0  0  0  0  0  0  0  0  0  0
    3.4595    2.0373   -2.9588 C   0  0  0  0  0  0  0  0  0  0  0  0
    3.2375    4.2409   -2.0312 C   0  0  0  0  0  0  0  0  0  0  0  0
    4.5799   -2.8066    2.1875 C   0  0  0  0  0  0  0  0  0  0  0  0
    6.1301   -0.9380    2.9401 C   0  0  0  0  0  0  0  0  0  0  0  0
    4.2674    2.5554   -3.9753 C   0  0  0  0  0  0  0  0  0  0  0  0
    4.0392    4.7534   -3.0620 C   0  0  0  0  0  0  0  0  0  0  0  0
    5.3654   -3.8019    2.9974 C   0  0  0  0  0  0  0  0  0  0  0  0
    6.6071   -1.8947    3.9453 N   0  0  0  0  0  0  0  0  0  0  0  0
    4.5889    3.9202   -4.0405 C   0  0  0  0  0  0  0  0  0  0  0  0
    6.7097   -3.2684    3.4844 C   0  0  0  0  0  0  0  0  0  0  0  0
    7.2184   -1.4377    5.1224 C   0  0  0  0  0  0  0  0  0  0  0  0
    5.3586    4.3823   -5.0918 N   0  0  0  0  0  0  0  0  0  0  0  0
    7.6101   -0.2749    5.2198 O   0  0  0  0  0  0  0  0  0  0  0  0
    7.1541   -2.3468    6.3037 C   0  0  0  0  0  0  0  0  0  0  0  0
    5.2452    5.7646   -5.5676 C   0  0  0  0  0  0  0  0  0  0  0  0
    6.7072    3.8157   -5.2781 C   0  0  0  0  0  0  0  0  0  0  0  0
    6.0248   -3.1691    6.2734 O   0  0  0  0  0  0  0  0  0  0  0  0
    7.2564   -2.0077    7.6666 C   0  0  0  0  0  0  0  0  0  0  0  0
    5.6189    5.7973   -7.0682 C   0  0  0  0  0  0  0  0  0  0  0  0
    7.0823    3.8886   -6.7783 C   0  0  0  0  0  0  0  0  0  0  0  0
    5.1773   -2.5286    7.1296 C   0  0  0  0  0  0  0  0  0  0  0  0
    5.9057   -1.7197    7.9856 C   0  0  0  0  0  0  0  0  0  0  0  0
    8.4136   -1.9214    8.5801 C   0  0  0  0  0  0  0  0  0  0  0  0
    6.9752    5.2597   -7.3362 N   0  3  0  0  0  0  0  0  0  0  0  0
    3.7947   -2.6245    7.0924 C   0  0  0  0  0  0  0  0  0  0  0  0
    5.2166   -0.9174    8.9039 C   0  0  0  0  0  0  0  0  0  0  0  0
    7.2368    5.2483   -8.7738 C   0  0  0  0  0  0  0  0  0  0  0  0
    3.1197   -1.7263    7.9220 C   0  0  0  0  0  0  0  0  0  0  0  0
    3.8145   -0.8884    8.8065 C   0  0  0  0  0  0  0  0  0  0  0  0
    1.6274   -1.6006    7.8110 C   0  0  0  0  0  0  0  0  0  0  0  0
    3.5975    1.5104    0.3809 H   0  0  0  0  0  0  0  0  0  0  0  0
    1.8200    3.1031   -0.1978 H   0  0  0  0  0  0  0  0  0  0  0  0
    1.2329    1.8666   -1.3168 H   0  0  0  0  0  0  0  0  0  0  0  0
    1.8115   -2.5944    0.3112 H   0  0  0  0  0  0  0  0  0  0  0  0
    3.1376   -4.2221    1.5434 H   0  0  0  0  0  0  0  0  0  0  0  0
    3.2324    1.0306   -2.9482 H   0  0  0  0  0  0  0  0  0  0  0  0
    2.8502    4.8802   -1.3196 H   0  0  0  0  0  0  0  0  0  0  0  0
    5.8533   -0.0322    3.4379 H   0  0  0  0  0  0  0  0  0  0  0  0
    6.9274   -0.7877    2.2426 H   0  0  0  0  0  0  0  0  0  0  0  0
    4.6374    1.9174   -4.6971 H   0  0  0  0  0  0  0  0  0  0  0  0
    4.2273    5.7675   -3.0987 H   0  0  0  0  0  0  0  0  0  0  0  0
    5.5437   -4.6656    2.3914 H   0  0  0  0  0  0  0  0  0  0  0  0
    4.7840   -4.0278    3.8667 H   0  0  0  0  0  0  0  0  0  0  0  0
    7.4127   -3.3123    2.6789 H   0  0  0  0  0  0  0  0  0  0  0  0
    7.0307   -3.8732    4.3066 H   0  0  0  0  0  0  0  0  0  0  0  0
    5.9127    6.3927   -5.0153 H   0  0  0  0  0  0  0  0  0  0  0  0
    4.2452    6.1196   -5.4302 H   0  0  0  0  0  0  0  0  0  0  0  0
    6.7152    2.7955   -4.9555 H   0  0  0  0  0  0  0  0  0  0  0  0
    7.4158    4.3723   -4.7011 H   0  0  0  0  0  0  0  0  0  0  0  0
    5.5802    6.8113   -7.4079 H   0  0  0  0  0  0  0  0  0  0  0  0
    4.9187    5.1769   -7.5875 H   0  0  0  0  0  0  0  0  0  0  0  0
    6.4254    3.2453   -7.3258 H   0  0  0  0  0  0  0  0  0  0  0  0
    8.1044    3.5851   -6.8681 H   0  0  0  0  0  0  0  0  0  0  0  0
    9.3037   -2.1995    8.0554 H   0  0  0  0  0  0  0  0  0  0  0  0
    8.2654   -2.5840    9.4070 H   0  0  0  0  0  0  0  0  0  0  0  0
    8.5102   -0.9183    8.9396 H   0  0  0  0  0  0  0  0  0  0  0  0
    7.6705    5.8565   -6.8882 H   0  0  0  0  0  0  0  0  0  0  0  0
    3.3016   -3.3080    6.4968 H   0  0  0  0  0  0  0  0  0  0  0  0
    5.7171   -0.3706    9.6219 H   0  0  0  0  0  0  0  0  0  0  0  0
    6.5163    4.6262   -9.2625 H   0  0  0  0  0  0  0  0  0  0  0  0
    8.2195    4.8655   -8.9544 H   0  0  0  0  0  0  0  0  0  0  0  0
    7.1662    6.2448   -9.1571 H   0  0  0  0  0  0  0  0  0  0  0  0
    3.2827   -0.2336    9.4010 H   0  0  0  0  0  0  0  0  0  0  0  0
    1.2619   -2.3090    7.0971 H   0  0  0  0  0  0  0  0  0  0  0  0
    1.3755   -0.6107    7.4923 H   0  0  0  0  0  0  0  0  0  0  0  0
    1.1814   -1.7926    8.7645 H   0  0  0  0  0  0  0  0  0  0  0  0
  1  2  2  0  0  0  0
  2  3  1  0  0  0  0
  2  4  1  0  0  0  0
  3  5  1  0  0  0  0
  3 41  1  0  0  0  0
  4  6  2  0  0  0  0
  4  7  1  0  0  0  0
  5  8  1  0  0  0  0
  5 42  1  0  0  0  0
  5 43  1  0  0  0  0
  6  9  1  0  0  0  0
  7 10  2  0  0  0  0
  7 44  1  0  0  0  0
  8 11  2  0  0  0  0
  8 12  1  0  0  0  0
  9 13  2  0  0  0  0
  9 14  1  0  0  0  0
 10 13  1  0  0  0  0
 10 45  1  0  0  0  0
 11 15  1  0  0  0  0
 11 46  1  0  0  0  0
 12 16  2  0  0  0  0
 12 47  1  0  0  0  0
 13 17  1  0  0  0  0
 14 18  1  0  0  0  0
 14 48  1  0  0  0  0
 14 49  1  0  0  0  0
 15 19  2  0  0  0  0
 15 50  1  0  0  0  0
 16 19  1  0  0  0  0
 16 51  1  0  0  0  0
 17 20  1  0  0  0  0
 17 52  1  0  0  0  0
 17 53  1  0  0  0  0
 18 21  1  0  0  0  0
 18 20  1  0  0  0  0
 19 22  1  0  0  0  0
 20 54  1  0  0  0  0
 20 55  1  0  0  0  0
 21 23  2  0  0  0  0
 21 24  1  0  0  0  0
 22 25  1  0  0  0  0
 22 26  1  0  0  0  0
 24 27  1  0  0  0  0
 24 28  2  0  0  0  0
 25 29  1  0  0  0  0
 25 56  1  0  0  0  0
 25 57  1  0  0  0  0
 26 30  1  0  0  0  0
 26 58  1  0  0  0  0
 26 59  1  0  0  0  0
 27 31  1  0  0  0  0
 28 32  1  0  0  0  0
 28 33  1  0  0  0  0
 29 34  1  0  0  0  0
 29 60  1  0  0  0  0
 29 61  1  0  0  0  0
 30 34  1  0  0  0  0
 30 62  1  0  0  0  0
 30 63  1  0  0  0  0
 31 35  2  0  0  0  0
 31 32  1  0  0  0  0
 32 36  2  0  0  0  0
 33 64  1  0  0  0  0
 33 65  1  0  0  0  0
 33 66  1  0  0  0  0
 34 37  1  0  0  0  0
 34 67  1  0  0  0  0
 35 38  1  0  0  0  0
 35 68  1  0  0  0  0
 36 39  1  0  0  0  0
 36 69  1  0  0  0  0
 37 70  1  0  0  0  0
 37 71  1  0  0  0  0
 37 72  1  0  0  0  0
 38 40  1  0  0  0  0
 38 39  2  0  0  0  0
 39 73  1  0  0  0  0
 40 74  1  0  0  0  0
 40 75  1  0  0  0  0
 40 76  1  0  0  0  0
M  CHG  1  34   1
M  END
>  <Molecule Name>
CTX-1020458

>  <SMILES>
CN1CCN(CC1)C1=CC=C(CNC(=O)C2=NC3=C(CCN(C3)C(=O)C3=C(C)C4=C(O3)C=C(C)C=C4)C=C2)C=C1

>  <Batch Name>
CTX-1020458-1

>  <Batch Created Date>
2021-10-21

>  <Batch ID>
CTX-1020458-1

>  <External ID>
P841-0212

>  <Stereochemistry>
Achiral

>  <Amount 1>
4.6

>  <Unit 1>
mg

>  <CRO 1>
Pharmaron

>  <CRO 1 Total Amount>
28.0

>  <CRO 1 Unit>
mg

>  <Pharmaron Solubility (PBS, pH 7.4): Aqueous Solubility - Batch Mean (uM)>
2.0444

>  <Pharmaron Solubility (PBS, pH 7.4): Aqueous Solubility - Batch Mean (uM) Standard Deviation (±)>


>  <Pharmaron Solubility (PBS, pH 7.4): Aqueous Solubility - Batch Mean (uM) Count>
1.0

>  <log P>
4.15

>  <log D>
3.51

>  <Pharmaron Caliper Assay (CDK2/CCNE1): Minimum measured (%)>
64.0

>  <Pharmaron Caliper Assay (CDK2/CCNE1): IC50 - Batch Mean (uM)>
4.75

>  <Pharmaron ADPGLO (CDK2/E1-25C): Minimum measured (%)>


>  <Pharmaron ADPGLO (CDK2/E1-25C): IC50 - Batch Mean (uM)>


>  <Pharmaron ADPGLO (CDK2/E1-37C): Minimum measured (%)>


>  <Pharmaron ADPGLO (CDK2/E1-37C): IC50 - Batch Mean (uM)>


>  <IncuCyte Kuramochi RB-WT: IC50 - Batch Mean (uM)>
3.67

>  <IncuCyte Kuramochi RB-KO: IC50 - Batch Mean (uM)>
3.67

>  <DSF (npCDK2/CCNE1): dTm D - Batch Mean [Concentration: 100]>


>  <DSF (npCDK2/CCNE1): dTm D - Batch Mean [Concentration: 20.0]>
0.624

>  <DSF (pCDK2/CCNE1): dTm D - Batch Mean [Concentration: 100]>


>  <DSF (pCDK2/CCNE1): dTm D - Batch Mean [Concentration: 20.0]>


>  <RLM: t1/2 - Batch Mean (Min)>


>  <RLM: Cl int - Batch Mean (uL/min/mg protein)>


>  <RLM: ER (Hepatic extraction ratio) - Batch Mean>


>  <HLM: t1/2 - Batch Mean (Min)>


>  <HLM: Cl int - Batch Mean (uL/min/mg protein)>


>  <HLM: ER (Hepatic extraction ratio) - Batch Mean>


>  <MDCK-WT 4% BSA: Papp (A-B) - Batch Mean (10-6, cm/s)>


>  <MDCK-WT 4% BSA: Papp (B-A) - Batch Mean (10-6, cm/s)>


>  <MDCK-WT 4% BSA: Efflux Ratio - Batch Mean>


>  <MDCK-WT 4% BSA: ~Net A_B - Batch Mean (10-6, cm/s)>


>  <pIC50>
5.323306

>  <Selection_1>
Y

>  <Selection_N>


>  <Serie>
Naphthyridine

>  <Selection_T>
N

>  <Train_Vs_Test>


$$$$
CTX-1020456
 OpenBabel08272613263D

 70 75  0  0  0  0  0  0  0  0999 V2000
    1.2470   -0.1267   -0.1453 Cl  0  0  0  0  0  0  0  0  0  0  0  0
    0.1974   -1.4964    0.0418 C   0  0  0  0  0  0  0  0  0  0  0  0
    0.5814   -2.8435    0.1734 C   0  0  0  0  0  0  0  0  0  0  0  0
   -1.2249   -1.2555    0.0367 C   0  0  0  0  0  0  0  0  0  0  0  0
   -0.8167   -3.7959    0.3858 S   0  0  0  0  0  0  0  0  0  0  0  0
    1.9811   -3.3229    0.0938 C   0  0  0  0  0  0  0  0  0  0  0  0
   -1.9134   -2.4501    0.2241 C   0  0  0  0  0  0  0  0  0  0  0  0
   -1.9843   -0.0547   -0.1308 C   0  0  0  0  0  0  0  0  0  0  0  0
    2.8378   -2.4444   -0.0957 O   0  0  0  0  0  0  0  0  0  0  0  0
    2.5240   -4.6622    0.1537 N   0  0  0  0  0  0  0  0  0  0  0  0
   -3.3307   -2.4620    0.2635 C   0  0  0  0  0  0  0  0  0  0  0  0
   -3.3835   -0.0695   -0.1092 C   0  0  0  0  0  0  0  0  0  0  0  0
    1.9007   -5.9880    0.5048 C   0  0  0  0  0  0  0  0  0  0  0  0
    3.9469   -4.6392   -0.2072 C   0  0  0  0  0  0  0  0  0  0  0  0
   -4.0490   -1.2680    0.0925 C   0  0  0  0  0  0  0  0  0  0  0  0
    2.7443   -7.2883    0.2481 C   0  0  0  0  0  0  0  0  0  0  0  0
    4.8133   -5.8584   -0.0407 C   0  0  0  0  0  0  0  0  0  0  0  0
    2.1741   -8.5500    0.3777 N   0  0  0  0  0  0  0  0  0  0  0  0
    4.1052   -7.1594   -0.0485 C   0  0  0  0  0  0  0  0  0  0  0  0
    3.0044   -9.6454    0.1892 C   0  0  0  0  0  0  0  0  0  0  0  0
    4.9008   -8.2917   -0.2551 C   0  0  0  0  0  0  0  0  0  0  0  0
    2.5425  -11.0759    0.3564 C   0  0  0  0  0  0  0  0  0  0  0  0
    4.3520   -9.5480   -0.1407 C   0  0  0  0  0  0  0  0  0  0  0  0
    3.3686  -11.9902    0.2996 O   0  0  0  0  0  0  0  0  0  0  0  0
    1.2126  -11.3517    0.5549 N   0  0  0  0  0  0  0  0  0  0  0  0
    0.7475  -12.7278    0.6931 C   0  0  0  0  0  0  0  0  0  0  0  0
   -0.3764  -13.0368   -0.2577 C   0  0  0  0  0  0  0  0  0  0  0  0
   -0.1819  -12.9690   -1.6381 C   0  0  0  0  0  0  0  0  0  0  0  0
   -1.6378  -13.3994    0.2115 C   0  0  0  0  0  0  0  0  0  0  0  0
   -1.2553  -13.1557   -2.5201 C   0  0  0  0  0  0  0  0  0  0  0  0
   -2.6976  -13.6043   -0.6829 C   0  0  0  0  0  0  0  0  0  0  0  0
   -2.5529  -13.4451   -2.0704 C   0  0  0  0  0  0  0  0  0  0  0  0
   -3.6298  -13.4930   -2.9367 N   0  0  0  0  0  0  0  0  0  0  0  0
   -3.5070  -13.9442   -4.3353 C   0  0  0  0  0  0  0  0  0  0  0  0
   -5.0248  -13.4464   -2.4631 C   0  0  0  0  0  0  0  0  0  0  0  0
   -4.3985  -13.0737   -5.2549 C   0  0  0  0  0  0  0  0  0  0  0  0
   -5.8824  -12.5900   -3.4250 C   0  0  0  0  0  0  0  0  0  0  0  0
   -5.8153  -13.0640   -4.8243 N   0  3  0  0  0  0  0  0  0  0  0  0
   -6.6187  -12.2114   -5.6952 C   0  0  0  0  0  0  0  0  0  0  0  0
   -1.4903    0.8406   -0.2704 H   0  0  0  0  0  0  0  0  0  0  0  0
   -3.8347   -3.3492    0.4179 H   0  0  0  0  0  0  0  0  0  0  0  0
   -3.9152    0.8048   -0.2424 H   0  0  0  0  0  0  0  0  0  0  0  0
    0.9984   -6.0763   -0.0636 H   0  0  0  0  0  0  0  0  0  0  0  0
    1.7776   -5.9535    1.5671 H   0  0  0  0  0  0  0  0  0  0  0  0
    4.3961   -3.8655    0.3796 H   0  0  0  0  0  0  0  0  0  0  0  0
    3.9159   -4.5187   -1.2700 H   0  0  0  0  0  0  0  0  0  0  0  0
   -5.0806   -1.2830    0.1173 H   0  0  0  0  0  0  0  0  0  0  0  0
    5.3276   -5.7703    0.8935 H   0  0  0  0  0  0  0  0  0  0  0  0
    5.4591   -5.8743   -0.8937 H   0  0  0  0  0  0  0  0  0  0  0  0
    5.8992   -8.1843   -0.4932 H   0  0  0  0  0  0  0  0  0  0  0  0
    4.9234  -10.3934   -0.2951 H   0  0  0  0  0  0  0  0  0  0  0  0
    0.5647  -10.6122    0.6045 H   0  0  0  0  0  0  0  0  0  0  0  0
    0.4043  -12.8782    1.6954 H   0  0  0  0  0  0  0  0  0  0  0  0
    1.5649  -13.3793    0.4643 H   0  0  0  0  0  0  0  0  0  0  0  0
    0.7608  -12.7797   -2.0129 H   0  0  0  0  0  0  0  0  0  0  0  0
   -1.7926  -13.5180    1.2249 H   0  0  0  0  0  0  0  0  0  0  0  0
   -1.0855  -13.0776   -3.5351 H   0  0  0  0  0  0  0  0  0  0  0  0
   -3.6179  -13.8823   -0.3078 H   0  0  0  0  0  0  0  0  0  0  0  0
   -3.8168  -14.9659   -4.4061 H   0  0  0  0  0  0  0  0  0  0  0  0
   -2.4872  -13.8508   -4.6454 H   0  0  0  0  0  0  0  0  0  0  0  0
   -5.0524  -13.0149   -1.4844 H   0  0  0  0  0  0  0  0  0  0  0  0
   -5.4186  -14.4409   -2.4328 H   0  0  0  0  0  0  0  0  0  0  0  0
   -4.3449  -13.4604   -6.2511 H   0  0  0  0  0  0  0  0  0  0  0  0
   -4.0355  -12.0685   -5.2039 H   0  0  0  0  0  0  0  0  0  0  0  0
   -5.5321  -11.5796   -3.3886 H   0  0  0  0  0  0  0  0  0  0  0  0
   -6.9008  -12.6672   -3.1060 H   0  0  0  0  0  0  0  0  0  0  0  0
   -6.1951  -14.0086   -4.8861 H   0  0  0  0  0  0  0  0  0  0  0  0
   -6.2467  -11.2089   -5.6548 H   0  0  0  0  0  0  0  0  0  0  0  0
   -7.6375  -12.2273   -5.3687 H   0  0  0  0  0  0  0  0  0  0  0  0
   -6.5606  -12.5731   -6.7006 H   0  0  0  0  0  0  0  0  0  0  0  0
  1  2  1  0  0  0  0
  2  3  2  0  0  0  0
  2  4  1  0  0  0  0
  3  5  1  0  0  0  0
  3  6  1  0  0  0  0
  4  7  2  0  0  0  0
  4  8  1  0  0  0  0
  5  7  1  0  0  0  0
  6  9  2  0  0  0  0
  6 10  1  0  0  0  0
  7 11  1  0  0  0  0
  8 12  2  0  0  0  0
  8 40  1  0  0  0  0
 10 13  1  0  0  0  0
 10 14  1  0  0  0  0
 11 15  2  0  0  0  0
 11 41  1  0  0  0  0
 12 15  1  0  0  0  0
 12 42  1  0  0  0  0
 13 16  1  0  0  0  0
 13 43  1  0  0  0  0
 13 44  1  0  0  0  0
 14 17  1  0  0  0  0
 14 45  1  0  0  0  0
 14 46  1  0  0  0  0
 15 47  1  0  0  0  0
 16 18  2  0  0  0  0
 16 19  1  0  0  0  0
 17 19  1  0  0  0  0
 17 48  1  0  0  0  0
 17 49  1  0  0  0  0
 18 20  1  0  0  0  0
 19 21  2  0  0  0  0
 20 22  1  0  0  0  0
 20 23  2  0  0  0  0
 21 23  1  0  0  0  0
 21 50  1  0  0  0  0
 22 24  2  0  0  0  0
 22 25  1  0  0  0  0
 23 51  1  0  0  0  0
 25 26  1  0  0  0  0
 25 52  1  0  0  0  0
 26 27  1  0  0  0  0
 26 53  1  0  0  0  0
 26 54  1  0  0  0  0
 27 28  2  0  0  0  0
 27 29  1  0  0  0  0
 28 30  1  0  0  0  0
 28 55  1  0  0  0  0
 29 31  2  0  0  0  0
 29 56  1  0  0  0  0
 30 32  2  0  0  0  0
 30 57  1  0  0  0  0
 31 32  1  0  0  0  0
 31 58  1  0  0  0  0
 32 33  1  0  0  0  0
 33 34  1  0  0  0  0
 33 35  1  0  0  0  0
 34 36  1  0  0  0  0
 34 59  1  0  0  0  0
 34 60  1  0  0  0  0
 35 37  1  0  0  0  0
 35 61  1  0  0  0  0
 35 62  1  0  0  0  0
 36 38  1  0  0  0  0
 36 63  1  0  0  0  0
 36 64  1  0  0  0  0
 37 38  1  0  0  0  0
 37 65  1  0  0  0  0
 37 66  1  0  0  0  0
 38 39  1  0  0  0  0
 38 67  1  0  0  0  0
 39 68  1  0  0  0  0
 39 69  1  0  0  0  0
 39 70  1  0  0  0  0
M  CHG  1  38   1
M  END
>  <Molecule Name>
CTX-1020456

>  <SMILES>
CN1CCN(CC1)C1=CC=C(CNC(=O)C2=CC=C3CCN(CC3=N2)C(=O)C2=C(Cl)C3=C(S2)C=CC=C3)C=C1

>  <Batch Name>
CTX-1020456-1

>  <Batch Created Date>
2021-10-21

>  <Batch ID>
CTX-1020456-1

>  <External ID>
P841-0209

>  <Stereochemistry>
Achiral

>  <Amount 1>
4.6

>  <Unit 1>
mg

>  <CRO 1>
Pharmaron

>  <CRO 1 Total Amount>
37.7

>  <CRO 1 Unit>
mg

>  <Pharmaron Solubility (PBS, pH 7.4): Aqueous Solubility - Batch Mean (uM)>
99.823

>  <Pharmaron Solubility (PBS, pH 7.4): Aqueous Solubility - Batch Mean (uM) Standard Deviation (±)>


>  <Pharmaron Solubility (PBS, pH 7.4): Aqueous Solubility - Batch Mean (uM) Count>
1.0

>  <log P>
4.65

>  <log D>
4.02

>  <Pharmaron Caliper Assay (CDK2/CCNE1): Minimum measured (%)>
31.9

>  <Pharmaron Caliper Assay (CDK2/CCNE1): IC50 - Batch Mean (uM)>
1.1

>  <Pharmaron ADPGLO (CDK2/E1-25C): Minimum measured (%)>
79.3

>  <Pharmaron ADPGLO (CDK2/E1-25C): IC50 - Batch Mean (uM)>
0.894

>  <Pharmaron ADPGLO (CDK2/E1-37C): Minimum measured (%)>
102.0

>  <Pharmaron ADPGLO (CDK2/E1-37C): IC50 - Batch Mean (uM)>
10.0

>  <IncuCyte Kuramochi RB-WT: IC50 - Batch Mean (uM)>
5.71

>  <IncuCyte Kuramochi RB-KO: IC50 - Batch Mean (uM)>
5.16

>  <DSF (npCDK2/CCNE1): dTm D - Batch Mean [Concentration: 100]>


>  <DSF (npCDK2/CCNE1): dTm D - Batch Mean [Concentration: 20.0]>
1.2890000000000001

>  <DSF (pCDK2/CCNE1): dTm D - Batch Mean [Concentration: 100]>


>  <DSF (pCDK2/CCNE1): dTm D - Batch Mean [Concentration: 20.0]>
0.779

>  <RLM: t1/2 - Batch Mean (Min)>


>  <RLM: Cl int - Batch Mean (uL/min/mg protein)>


>  <RLM: ER (Hepatic extraction ratio) - Batch Mean>


>  <HLM: t1/2 - Batch Mean (Min)>
6.37

>  <HLM: Cl int - Batch Mean (uL/min/mg protein)>
220.87

>  <HLM: ER (Hepatic extraction ratio) - Batch Mean>
0.914

>  <MDCK-WT 4% BSA: Papp (A-B) - Batch Mean (10-6, cm/s)>


>  <MDCK-WT 4% BSA: Papp (B-A) - Batch Mean (10-6, cm/s)>


>  <MDCK-WT 4% BSA: Efflux Ratio - Batch Mean>


>  <MDCK-WT 4% BSA: ~Net A_B - Batch Mean (10-6, cm/s)>


>  <pIC50>
5.958607

>  <Selection_1>
Y

>  <Selection_N>


>  <Serie>
Naphthyridine

>  <Selection_T>
N

>  <Train_Vs_Test>


$$$$
CTX-1020454
 OpenBabel08272613263D

 73 78  0  0  0  0  0  0  0  0999 V2000
    6.6302   -2.7470    3.3932 F   0  0  0  0  0  0  0  0  0  0  0  0
    5.3402   -2.4145    3.2261 C   0  0  0  0  0  0  0  0  0  0  0  0
    4.5950   -3.0078    2.1245 C   0  0  0  0  0  0  0  0  0  0  0  0
    4.7410   -1.4717    4.1688 C   0  0  0  0  0  0  0  0  0  0  0  0
    4.9466   -3.9985    1.1669 O   0  0  0  0  0  0  0  0  0  0  0  0
    3.2882   -2.6073    1.8938 C   0  0  0  0  0  0  0  0  0  0  0  0
    3.4263   -1.1060    3.9659 C   0  0  0  0  0  0  0  0  0  0  0  0
    3.8375   -4.3047    0.2981 C   0  0  0  0  0  0  0  0  0  0  0  0
    2.8410   -3.3409    0.6810 C   0  0  0  0  0  0  0  0  0  0  0  0
    2.7557   -1.6311    2.8336 C   0  0  0  0  0  0  0  0  0  0  0  0
    3.8788   -5.5185   -0.8627 C   0  0  0  0  0  0  0  0  0  0  0  0
    1.5132   -3.0629    0.0499 C   0  0  0  0  0  0  0  0  0  0  0  0
    2.9866   -5.5724   -1.7217 O   0  0  0  0  0  0  0  0  0  0  0  0
    4.8943   -6.6188   -0.8616 N   0  0  0  0  0  0  0  0  0  0  0  0
    5.2810   -7.9417   -1.8299 C   0  0  0  0  0  0  0  0  0  0  0  0
    5.2521   -6.9721    0.4604 C   0  0  0  0  0  0  0  0  0  0  0  0
    6.0502   -9.2377   -0.9654 C   0  0  0  0  0  0  0  0  0  0  0  0
    6.7179   -7.3231    0.4700 C   0  0  0  0  0  0  0  0  0  0  0  0
    5.9872  -10.6332   -1.2177 N   0  0  0  0  0  0  0  0  0  0  0  0
    6.6944   -8.7828    0.1856 C   0  0  0  0  0  0  0  0  0  0  0  0
    6.4602  -11.4823   -0.1822 C   0  0  0  0  0  0  0  0  0  0  0  0
    7.0734   -9.6496    1.2156 C   0  0  0  0  0  0  0  0  0  0  0  0
    6.5832  -13.0364   -0.1750 C   0  0  0  0  0  0  0  0  0  0  0  0
    6.9141  -10.9989    1.0414 C   0  0  0  0  0  0  0  0  0  0  0  0
    6.9317  -13.5882    0.8474 O   0  0  0  0  0  0  0  0  0  0  0  0
    6.3526  -13.7971   -1.2990 N   0  0  0  0  0  0  0  0  0  0  0  0
    6.5964  -15.2447   -1.3136 C   0  0  0  0  0  0  0  0  0  0  0  0
    5.3682  -16.0338   -1.6979 C   0  0  0  0  0  0  0  0  0  0  0  0
    5.1272  -16.3880   -3.0256 C   0  0  0  0  0  0  0  0  0  0  0  0
    4.4217  -16.4088   -0.7403 C   0  0  0  0  0  0  0  0  0  0  0  0
    4.0067  -17.1529   -3.3697 C   0  0  0  0  0  0  0  0  0  0  0  0
    3.2558  -17.0876   -1.1173 C   0  0  0  0  0  0  0  0  0  0  0  0
    3.0576  -17.5632   -2.4216 C   0  0  0  0  0  0  0  0  0  0  0  0
    2.0028  -18.3854   -2.7525 N   0  0  0  0  0  0  0  0  0  0  0  0
    1.3913  -19.2970   -1.7690 C   0  0  0  0  0  0  0  0  0  0  0  0
    1.4143  -18.4639   -4.1028 C   0  0  0  0  0  0  0  0  0  0  0  0
    1.2410  -20.7257   -2.3692 C   0  0  0  0  0  0  0  0  0  0  0  0
    1.2536  -19.9368   -4.5617 C   0  0  0  0  0  0  0  0  0  0  0  0
    0.4893  -20.7203   -3.6128 N   0  3  0  0  0  0  0  0  0  0  0  0
    0.2663  -22.0748   -4.1065 C   0  0  0  0  0  0  0  0  0  0  0  0
    5.2836   -1.0920    4.9603 H   0  0  0  0  0  0  0  0  0  0  0  0
    2.9453   -0.4687    4.6198 H   0  0  0  0  0  0  0  0  0  0  0  0
    1.7981   -1.2888    2.6582 H   0  0  0  0  0  0  0  0  0  0  0  0
    1.0201   -2.2797    0.5869 H   0  0  0  0  0  0  0  0  0  0  0  0
    0.9124   -3.9479    0.0784 H   0  0  0  0  0  0  0  0  0  0  0  0
    1.6574   -2.7623   -0.9668 H   0  0  0  0  0  0  0  0  0  0  0  0
    5.9424   -7.6123   -2.6037 H   0  0  0  0  0  0  0  0  0  0  0  0
    4.3604   -8.3264   -2.2165 H   0  0  0  0  0  0  0  0  0  0  0  0
    4.6751   -7.8148    0.7795 H   0  0  0  0  0  0  0  0  0  0  0  0
    5.0614   -6.1569    1.1267 H   0  0  0  0  0  0  0  0  0  0  0  0
    7.1588   -7.1209    1.4238 H   0  0  0  0  0  0  0  0  0  0  0  0
    7.2989   -6.7589   -0.2293 H   0  0  0  0  0  0  0  0  0  0  0  0
    7.4673   -9.2780    2.0942 H   0  0  0  0  0  0  0  0  0  0  0  0
    7.1289  -11.6517    1.8113 H   0  0  0  0  0  0  0  0  0  0  0  0
    6.0155  -13.3592   -2.1138 H   0  0  0  0  0  0  0  0  0  0  0  0
    6.9087  -15.5499   -0.3368 H   0  0  0  0  0  0  0  0  0  0  0  0
    7.3509  -15.4400   -2.0467 H   0  0  0  0  0  0  0  0  0  0  0  0
    5.7823  -16.0826   -3.7622 H   0  0  0  0  0  0  0  0  0  0  0  0
    4.5833  -16.1834    0.2538 H   0  0  0  0  0  0  0  0  0  0  0  0
    3.8739  -17.4249   -4.3563 H   0  0  0  0  0  0  0  0  0  0  0  0
    2.5185  -17.2428   -0.4121 H   0  0  0  0  0  0  0  0  0  0  0  0
    0.4251  -18.9255   -1.4980 H   0  0  0  0  0  0  0  0  0  0  0  0
    2.0221  -19.3487   -0.9063 H   0  0  0  0  0  0  0  0  0  0  0  0
    2.0528  -17.9517   -4.7919 H   0  0  0  0  0  0  0  0  0  0  0  0
    0.4455  -18.0103   -4.0764 H   0  0  0  0  0  0  0  0  0  0  0  0
    0.7318  -21.3455   -1.6611 H   0  0  0  0  0  0  0  0  0  0  0  0
    2.2214  -21.0997   -2.5786 H   0  0  0  0  0  0  0  0  0  0  0  0
    2.2246  -20.3735   -4.6676 H   0  0  0  0  0  0  0  0  0  0  0  0
    0.7253  -19.9373   -5.4922 H   0  0  0  0  0  0  0  0  0  0  0  0
   -0.4356  -20.3147   -3.4701 H   0  0  0  0  0  0  0  0  0  0  0  0
    1.2087  -22.5526   -4.2753 H   0  0  0  0  0  0  0  0  0  0  0  0
   -0.2825  -22.0341   -5.0241 H   0  0  0  0  0  0  0  0  0  0  0  0
   -0.2910  -22.6312   -3.3821 H   0  0  0  0  0  0  0  0  0  0  0  0
  1  2  1  0  0  0  0
  2  3  2  0  0  0  0
  2  4  1  0  0  0  0
  3  5  1  0  0  0  0
  3  6  1  0  0  0  0
  4  7  2  0  0  0  0
  4 41  1  0  0  0  0
  5  8  1  0  0  0  0
  6  9  1  0  0  0  0
  6 10  2  0  0  0  0
  7 10  1  0  0  0  0
  7 42  1  0  0  0  0
  8 11  1  0  0  0  0
  8  9  2  0  0  0  0
  9 12  1  0  0  0  0
 10 43  1  0  0  0  0
 11 13  2  0  0  0  0
 11 14  1  0  0  0  0
 12 44  1  0  0  0  0
 12 45  1  0  0  0  0
 12 46  1  0  0  0  0
 14 15  1  0  0  0  0
 14 16  1  0  0  0  0
 15 17  1  0  0  0  0
 15 47  1  0  0  0  0
 15 48  1  0  0  0  0
 16 18  1  0  0  0  0
 16 49  1  0  0  0  0
 16 50  1  0  0  0  0
 17 19  2  0  0  0  0
 17 20  1  0  0  0  0
 18 20  1  0  0  0  0
 18 51  1  0  0  0  0
 18 52  1  0  0  0  0
 19 21  1  0  0  0  0
 20 22  2  0  0  0  0
 21 23  1  0  0  0  0
 21 24  2  0  0  0  0
 22 24  1  0  0  0  0
 22 53  1  0  0  0  0
 23 25  2  0  0  0  0
 23 26  1  0  0  0  0
 24 54  1  0  0  0  0
 26 27  1  0  0  0  0
 26 55  1  0  0  0  0
 27 28  1  0  0  0  0
 27 56  1  0  0  0  0
 27 57  1  0  0  0  0
 28 29  2  0  0  0  0
 28 30  1  0  0  0  0
 29 31  1  0  0  0  0
 29 58  1  0  0  0  0
 30 32  2  0  0  0  0
 30 59  1  0  0  0  0
 31 33  2  0  0  0  0
 31 60  1  0  0  0  0
 32 33  1  0  0  0  0
 32 61  1  0  0  0  0
 33 34  1  0  0  0  0
 34 35  1  0  0  0  0
 34 36  1  0  0  0  0
 35 37  1  0  0  0  0
 35 62  1  0  0  0  0
 35 63  1  0  0  0  0
 36 38  1  0  0  0  0
 36 64  1  0  0  0  0
 36 65  1  0  0  0  0
 37 39  1  0  0  0  0
 37 66  1  0  0  0  0
 37 67  1  0  0  0  0
 38 39  1  0  0  0  0
 38 68  1  0  0  0  0
 38 69  1  0  0  0  0
 39 40  1  0  0  0  0
 39 70  1  0  0  0  0
 40 71  1  0  0  0  0
 40 72  1  0  0  0  0
 40 73  1  0  0  0  0
M  CHG  1  39   1
M  END
>  <Molecule Name>
CTX-1020454

>  <SMILES>
CN1CCN(CC1)C1=CC=C(CNC(=O)C2=CC=C3CCN(CC3=N2)C(=O)C2=C(C)C3=CC=CC(F)=C3O2)C=C1

>  <Batch Name>
CTX-1020454-1

>  <Batch Created Date>
2021-10-21

>  <Batch ID>
CTX-1020454-1

>  <External ID>
P841-0210

>  <Stereochemistry>
Achiral

>  <Amount 1>
4.9

>  <Unit 1>
mg

>  <CRO 1>
Pharmaron

>  <CRO 1 Total Amount>
34.7

>  <CRO 1 Unit>
mg

>  <Pharmaron Solubility (PBS, pH 7.4): Aqueous Solubility - Batch Mean (uM)>
3.2155

>  <Pharmaron Solubility (PBS, pH 7.4): Aqueous Solubility - Batch Mean (uM) Standard Deviation (±)>


>  <Pharmaron Solubility (PBS, pH 7.4): Aqueous Solubility - Batch Mean (uM) Count>
1.0

>  <log P>
3.77

>  <log D>
3.14

>  <Pharmaron Caliper Assay (CDK2/CCNE1): Minimum measured (%)>
38.9

>  <Pharmaron Caliper Assay (CDK2/CCNE1): IC50 - Batch Mean (uM)>
2.71

>  <Pharmaron ADPGLO (CDK2/E1-25C): Minimum measured (%)>
57.8

>  <Pharmaron ADPGLO (CDK2/E1-25C): IC50 - Batch Mean (uM)>
3.27

>  <Pharmaron ADPGLO (CDK2/E1-37C): Minimum measured (%)>
98.2

>  <Pharmaron ADPGLO (CDK2/E1-37C): IC50 - Batch Mean (uM)>
10.0

>  <IncuCyte Kuramochi RB-WT: IC50 - Batch Mean (uM)>
5.92

>  <IncuCyte Kuramochi RB-KO: IC50 - Batch Mean (uM)>
5.31

>  <DSF (npCDK2/CCNE1): dTm D - Batch Mean [Concentration: 100]>


>  <DSF (npCDK2/CCNE1): dTm D - Batch Mean [Concentration: 20.0]>
1.455

>  <DSF (pCDK2/CCNE1): dTm D - Batch Mean [Concentration: 100]>


>  <DSF (pCDK2/CCNE1): dTm D - Batch Mean [Concentration: 20.0]>


>  <RLM: t1/2 - Batch Mean (Min)>


>  <RLM: Cl int - Batch Mean (uL/min/mg protein)>


>  <RLM: ER (Hepatic extraction ratio) - Batch Mean>


>  <HLM: t1/2 - Batch Mean (Min)>


>  <HLM: Cl int - Batch Mean (uL/min/mg protein)>


>  <HLM: ER (Hepatic extraction ratio) - Batch Mean>


>  <MDCK-WT 4% BSA: Papp (A-B) - Batch Mean (10-6, cm/s)>


>  <MDCK-WT 4% BSA: Papp (B-A) - Batch Mean (10-6, cm/s)>


>  <MDCK-WT 4% BSA: Efflux Ratio - Batch Mean>


>  <MDCK-WT 4% BSA: ~Net A_B - Batch Mean (10-6, cm/s)>


>  <pIC50>
5.567031

>  <Selection_1>
Y

>  <Selection_N>


>  <Serie>
Naphthyridine

>  <Selection_T>
N

>  <Train_Vs_Test>


$$$$
CTX-1020453
 OpenBabel08272613263D

 70 75  0  0  0  0  0  0  0  0999 V2000
    0.7501   -0.1057   -0.4526 Cl  0  0  0  0  0  0  0  0  0  0  0  0
    2.4504   -0.3549   -0.4659 C   0  0  0  0  0  0  0  0  0  0  0  0
    3.1232   -1.5872   -0.2657 C   0  0  0  0  0  0  0  0  0  0  0  0
    3.3471    0.7736   -0.7015 C   0  0  0  0  0  0  0  0  0  0  0  0
    4.5447   -1.1901   -0.4231 O   0  0  0  0  0  0  0  0  0  0  0  0
    2.3741   -3.0439    0.0822 C   0  0  0  0  0  0  0  0  0  0  0  0
    4.6554    0.2760   -0.6909 C   0  0  0  0  0  0  0  0  0  0  0  0
    3.1753    2.2091   -0.9360 C   0  0  0  0  0  0  0  0  0  0  0  0
    1.1314   -3.0274    0.2161 O   0  0  0  0  0  0  0  0  0  0  0  0
    2.9233   -4.4471    0.2450 N   0  0  0  0  0  0  0  0  0  0  0  0
    5.7535    1.2478   -0.9319 C   0  0  0  0  0  0  0  0  0  0  0  0
    4.2465    3.1365   -1.1398 C   0  0  0  0  0  0  0  0  0  0  0  0
    2.1355   -5.7949    0.5728 C   0  0  0  0  0  0  0  0  0  0  0  0
    4.2540   -4.5867   -0.1850 C   0  0  0  0  0  0  0  0  0  0  0  0
    5.5347    2.6569   -1.1437 C   0  0  0  0  0  0  0  0  0  0  0  0
    2.8804   -7.2285    0.2806 C   0  0  0  0  0  0  0  0  0  0  0  0
    4.9950   -5.9098   -0.1496 C   0  0  0  0  0  0  0  0  0  0  0  0
    2.2778   -8.4967    0.4447 N   0  0  0  0  0  0  0  0  0  0  0  0
    4.2194   -7.1709   -0.0893 C   0  0  0  0  0  0  0  0  0  0  0  0
    3.0665   -9.6518    0.2277 C   0  0  0  0  0  0  0  0  0  0  0  0
    4.9657   -8.3411   -0.3311 C   0  0  0  0  0  0  0  0  0  0  0  0
    2.6010  -11.1341    0.3509 C   0  0  0  0  0  0  0  0  0  0  0  0
    4.4063   -9.5869   -0.1466 C   0  0  0  0  0  0  0  0  0  0  0  0
    3.3866  -12.0556    0.1591 O   0  0  0  0  0  0  0  0  0  0  0  0
    1.2760  -11.3960    0.6753 N   0  0  0  0  0  0  0  0  0  0  0  0
    0.7582  -12.7733    0.7168 C   0  0  0  0  0  0  0  0  0  0  0  0
   -0.3975  -12.9111    1.6724 C   0  0  0  0  0  0  0  0  0  0  0  0
   -1.7207  -12.7652    1.2758 C   0  0  0  0  0  0  0  0  0  0  0  0
   -0.1548  -13.1497    3.0403 C   0  0  0  0  0  0  0  0  0  0  0  0
   -2.7421  -12.7047    2.2103 C   0  0  0  0  0  0  0  0  0  0  0  0
   -1.2030  -13.1822    3.9616 C   0  0  0  0  0  0  0  0  0  0  0  0
   -2.5247  -12.9334    3.5878 C   0  0  0  0  0  0  0  0  0  0  0  0
   -3.5430  -12.8654    4.4921 N   0  0  0  0  0  0  0  0  0  0  0  0
   -4.8992  -13.3222    4.1408 C   0  0  0  0  0  0  0  0  0  0  0  0
   -3.3125  -12.7282    5.9386 C   0  0  0  0  0  0  0  0  0  0  0  0
   -5.9250  -12.3665    4.7667 C   0  0  0  0  0  0  0  0  0  0  0  0
   -4.3807  -11.7980    6.5398 C   0  0  0  0  0  0  0  0  0  0  0  0
   -5.7295  -12.2812    6.2229 N   0  3  0  0  0  0  0  0  0  0  0  0
   -6.7502  -11.4211    6.8113 C   0  0  0  0  0  0  0  0  0  0  0  0
    2.2120    2.5788   -0.9558 H   0  0  0  0  0  0  0  0  0  0  0  0
    6.7234    0.8956   -0.9485 H   0  0  0  0  0  0  0  0  0  0  0  0
    4.0561    4.1410   -1.2805 H   0  0  0  0  0  0  0  0  0  0  0  0
    1.2352   -5.7831   -0.0053 H   0  0  0  0  0  0  0  0  0  0  0  0
    2.0133   -5.7750    1.6357 H   0  0  0  0  0  0  0  0  0  0  0  0
    4.8297   -3.9094    0.4106 H   0  0  0  0  0  0  0  0  0  0  0  0
    4.1593   -4.4203   -1.2377 H   0  0  0  0  0  0  0  0  0  0  0  0
    6.3317    3.2947   -1.2956 H   0  0  0  0  0  0  0  0  0  0  0  0
    5.6282   -5.8906    0.7128 H   0  0  0  0  0  0  0  0  0  0  0  0
    5.4811   -5.9550   -1.1017 H   0  0  0  0  0  0  0  0  0  0  0  0
    5.9440   -8.2643   -0.6506 H   0  0  0  0  0  0  0  0  0  0  0  0
    4.9631  -10.4452   -0.2816 H   0  0  0  0  0  0  0  0  0  0  0  0
    0.6719  -10.6464    0.8813 H   0  0  0  0  0  0  0  0  0  0  0  0
    1.5443  -13.4290    1.0281 H   0  0  0  0  0  0  0  0  0  0  0  0
    0.4098  -13.0259   -0.2629 H   0  0  0  0  0  0  0  0  0  0  0  0
   -1.9463  -12.7010    0.2708 H   0  0  0  0  0  0  0  0  0  0  0  0
    0.8126  -13.3026    3.3656 H   0  0  0  0  0  0  0  0  0  0  0  0
   -3.6975  -12.4844    1.8882 H   0  0  0  0  0  0  0  0  0  0  0  0
   -0.9944  -13.3969    4.9492 H   0  0  0  0  0  0  0  0  0  0  0  0
   -5.0536  -14.3116    4.5178 H   0  0  0  0  0  0  0  0  0  0  0  0
   -5.0141  -13.3305    3.0770 H   0  0  0  0  0  0  0  0  0  0  0  0
   -2.3411  -12.3126    6.1076 H   0  0  0  0  0  0  0  0  0  0  0  0
   -3.3735  -13.6901    6.4032 H   0  0  0  0  0  0  0  0  0  0  0  0
   -6.9117  -12.7278    4.5646 H   0  0  0  0  0  0  0  0  0  0  0  0
   -5.7943  -11.3929    4.3426 H   0  0  0  0  0  0  0  0  0  0  0  0
   -4.2566  -10.8146    6.1369 H   0  0  0  0  0  0  0  0  0  0  0  0
   -4.2628  -11.7821    7.6032 H   0  0  0  0  0  0  0  0  0  0  0  0
   -5.8234  -13.2143    6.6241 H   0  0  0  0  0  0  0  0  0  0  0  0
   -6.6665  -10.4363    6.4013 H   0  0  0  0  0  0  0  0  0  0  0  0
   -6.6131  -11.3787    7.8717 H   0  0  0  0  0  0  0  0  0  0  0  0
   -7.7198  -11.8172    6.5927 H   0  0  0  0  0  0  0  0  0  0  0  0
  1  2  1  0  0  0  0
  2  3  2  0  0  0  0
  2  4  1  0  0  0  0
  3  5  1  0  0  0  0
  3  6  1  0  0  0  0
  4  7  2  0  0  0  0
  4  8  1  0  0  0  0
  5  7  1  0  0  0  0
  6  9  2  0  0  0  0
  6 10  1  0  0  0  0
  7 11  1  0  0  0  0
  8 12  2  0  0  0  0
  8 40  1  0  0  0  0
 10 13  1  0  0  0  0
 10 14  1  0  0  0  0
 11 15  2  0  0  0  0
 11 41  1  0  0  0  0
 12 15  1  0  0  0  0
 12 42  1  0  0  0  0
 13 16  1  0  0  0  0
 13 43  1  0  0  0  0
 13 44  1  0  0  0  0
 14 17  1  0  0  0  0
 14 45  1  0  0  0  0
 14 46  1  0  0  0  0
 15 47  1  0  0  0  0
 16 18  2  0  0  0  0
 16 19  1  0  0  0  0
 17 19  1  0  0  0  0
 17 48  1  0  0  0  0
 17 49  1  0  0  0  0
 18 20  1  0  0  0  0
 19 21  2  0  0  0  0
 20 22  1  0  0  0  0
 20 23  2  0  0  0  0
 21 23  1  0  0  0  0
 21 50  1  0  0  0  0
 22 24  2  0  0  0  0
 22 25  1  0  0  0  0
 23 51  1  0  0  0  0
 25 26  1  0  0  0  0
 25 52  1  0  0  0  0
 26 27  1  0  0  0  0
 26 53  1  0  0  0  0
 26 54  1  0  0  0  0
 27 28  2  0  0  0  0
 27 29  1  0  0  0  0
 28 30  1  0  0  0  0
 28 55  1  0  0  0  0
 29 31  2  0  0  0  0
 29 56  1  0  0  0  0
 30 32  2  0  0  0  0
 30 57  1  0  0  0  0
 31 32  1  0  0  0  0
 31 58  1  0  0  0  0
 32 33  1  0  0  0  0
 33 34  1  0  0  0  0
 33 35  1  0  0  0  0
 34 36  1  0  0  0  0
 34 59  1  0  0  0  0
 34 60  1  0  0  0  0
 35 37  1  0  0  0  0
 35 61  1  0  0  0  0
 35 62  1  0  0  0  0
 36 38  1  0  0  0  0
 36 63  1  0  0  0  0
 36 64  1  0  0  0  0
 37 38  1  0  0  0  0
 37 65  1  0  0  0  0
 37 66  1  0  0  0  0
 38 39  1  0  0  0  0
 38 67  1  0  0  0  0
 39 68  1  0  0  0  0
 39 69  1  0  0  0  0
 39 70  1  0  0  0  0
M  CHG  1  38   1
M  END
>  <Molecule Name>
CTX-1020453

>  <SMILES>
CN1CCN(CC1)C1=CC=C(CNC(=O)C2=CC=C3CCN(CC3=N2)C(=O)C2=C(Cl)C3=C(O2)C=CC=C3)C=C1

>  <Batch Name>
CTX-1020453-1

>  <Batch Created Date>
2021-10-21

>  <Batch ID>
CTX-1020453-1

>  <External ID>
P841-0206

>  <Stereochemistry>
Achiral

>  <Amount 1>
4.3

>  <Unit 1>
mg

>  <CRO 1>
Pharmaron

>  <CRO 1 Total Amount>
33.3

>  <CRO 1 Unit>
mg

>  <Pharmaron Solubility (PBS, pH 7.4): Aqueous Solubility - Batch Mean (uM)>
8.2603

>  <Pharmaron Solubility (PBS, pH 7.4): Aqueous Solubility - Batch Mean (uM) Standard Deviation (±)>


>  <Pharmaron Solubility (PBS, pH 7.4): Aqueous Solubility - Batch Mean (uM) Count>
1.0

>  <log P>
3.72

>  <log D>
3.09

>  <Pharmaron Caliper Assay (CDK2/CCNE1): Minimum measured (%)>
60.0

>  <Pharmaron Caliper Assay (CDK2/CCNE1): IC50 - Batch Mean (uM)>
1.73

>  <Pharmaron ADPGLO (CDK2/E1-25C): Minimum measured (%)>


>  <Pharmaron ADPGLO (CDK2/E1-25C): IC50 - Batch Mean (uM)>


>  <Pharmaron ADPGLO (CDK2/E1-37C): Minimum measured (%)>


>  <Pharmaron ADPGLO (CDK2/E1-37C): IC50 - Batch Mean (uM)>


>  <IncuCyte Kuramochi RB-WT: IC50 - Batch Mean (uM)>
5.97

>  <IncuCyte Kuramochi RB-KO: IC50 - Batch Mean (uM)>
5.37

>  <DSF (npCDK2/CCNE1): dTm D - Batch Mean [Concentration: 100]>


>  <DSF (npCDK2/CCNE1): dTm D - Batch Mean [Concentration: 20.0]>
0.941

>  <DSF (pCDK2/CCNE1): dTm D - Batch Mean [Concentration: 100]>


>  <DSF (pCDK2/CCNE1): dTm D - Batch Mean [Concentration: 20.0]>


>  <RLM: t1/2 - Batch Mean (Min)>


>  <RLM: Cl int - Batch Mean (uL/min/mg protein)>


>  <RLM: ER (Hepatic extraction ratio) - Batch Mean>


>  <HLM: t1/2 - Batch Mean (Min)>


>  <HLM: Cl int - Batch Mean (uL/min/mg protein)>


>  <HLM: ER (Hepatic extraction ratio) - Batch Mean>


>  <MDCK-WT 4% BSA: Papp (A-B) - Batch Mean (10-6, cm/s)>


>  <MDCK-WT 4% BSA: Papp (B-A) - Batch Mean (10-6, cm/s)>


>  <MDCK-WT 4% BSA: Efflux Ratio - Batch Mean>


>  <MDCK-WT 4% BSA: ~Net A_B - Batch Mean (10-6, cm/s)>


>  <pIC50>
5.761954

>  <Selection_1>
Y

>  <Selection_N>


>  <Serie>
Naphthyridine

>  <Selection_T>
N

>  <Train_Vs_Test>


$$$$
CTX-1020441
 OpenBabel08272613263D

 73 78  0  0  0  0  0  0  0  0999 V2000
    0.9354    0.0612    0.0182 Cl  0  0  0  0  0  0  0  0  0  0  0  0
    2.6638   -0.0284   -0.0064 C   0  0  0  0  0  0  0  0  0  0  0  0
    3.3412   -1.2533    0.0157 C   0  0  0  0  0  0  0  0  0  0  0  0
    3.3595    1.1703   -0.0346 C   0  0  0  0  0  0  0  0  0  0  0  0
    4.7471   -1.2265    0.0325 C   0  0  0  0  0  0  0  0  0  0  0  0
    2.5792   -2.5552    0.1025 C   0  0  0  0  0  0  0  0  0  0  0  0
    4.7471    1.1094   -0.0390 C   0  0  0  0  0  0  0  0  0  0  0  0
    5.4536   -0.0562   -0.0087 N   0  0  0  0  0  0  0  0  0  0  0  0
    5.5466   -2.5371    0.0693 C   0  0  0  0  0  0  0  0  0  0  0  0
    3.4336   -3.7822   -0.1963 C   0  0  0  0  0  0  0  0  0  0  0  0
    5.4921    2.4161   -0.0550 C   0  0  0  0  0  0  0  0  0  0  0  0
    4.7337   -3.6953    0.4427 N   0  0  0  0  0  0  0  0  0  0  0  0
    4.8901    3.4779   -0.0231 O   0  0  0  0  0  0  0  0  0  0  0  0
    6.8644    2.3238   -0.0853 N   0  0  0  0  0  0  0  0  0  0  0  0
    5.2924   -4.7797    1.1325 C   0  0  0  0  0  0  0  0  0  0  0  0
    7.7137    3.4910   -0.0131 C   0  0  0  0  0  0  0  0  0  0  0  0
    6.4991   -5.0137    1.0834 O   0  0  0  0  0  0  0  0  0  0  0  0
    4.3986   -5.4221    2.1098 C   0  0  0  0  0  0  0  0  0  0  0  0
    8.6407    3.5866   -1.1958 C   0  0  0  0  0  0  0  0  0  0  0  0
    3.4038   -4.5931    2.5889 O   0  0  0  0  0  0  0  0  0  0  0  0
    4.6320   -6.3727    3.1072 C   0  0  0  0  0  0  0  0  0  0  0  0
    8.2337    4.2398   -2.3611 C   0  0  0  0  0  0  0  0  0  0  0  0
    9.9255    3.0395   -1.1559 C   0  0  0  0  0  0  0  0  0  0  0  0
    3.5794   -4.5825    3.9292 C   0  0  0  0  0  0  0  0  0  0  0  0
    4.4381   -5.6101    4.3005 C   0  0  0  0  0  0  0  0  0  0  0  0
    5.0651   -7.7861    3.0409 C   0  0  0  0  0  0  0  0  0  0  0  0
    9.1069    4.3622   -3.4479 C   0  0  0  0  0  0  0  0  0  0  0  0
   10.7924    3.1713   -2.2511 C   0  0  0  0  0  0  0  0  0  0  0  0
    3.0448   -3.6366    4.7867 C   0  0  0  0  0  0  0  0  0  0  0  0
    4.8658   -5.6684    5.6342 C   0  0  0  0  0  0  0  0  0  0  0  0
   10.4087    3.8390   -3.4221 C   0  0  0  0  0  0  0  0  0  0  0  0
    3.5221   -3.6807    6.0956 C   0  0  0  0  0  0  0  0  0  0  0  0
    4.4344   -4.6608    6.5098 C   0  0  0  0  0  0  0  0  0  0  0  0
   11.2687    4.0559   -4.4827 N   0  0  0  0  0  0  0  0  0  0  0  0
   12.7299    3.9998   -4.3329 C   0  0  0  0  0  0  0  0  0  0  0  0
   10.8165    3.8255   -5.8668 C   0  0  0  0  0  0  0  0  0  0  0  0
   13.3786    5.0200   -5.3019 C   0  0  0  0  0  0  0  0  0  0  0  0
   11.5007    4.8428   -6.8109 C   0  0  0  0  0  0  0  0  0  0  0  0
   12.9798    4.8116   -6.7143 N   0  3  0  0  0  0  0  0  0  0  0  0
   13.5700    5.8399   -7.5685 C   0  0  0  0  0  0  0  0  0  0  0  0
    2.8642    2.0755   -0.0517 H   0  0  0  0  0  0  0  0  0  0  0  0
    1.7740   -2.5238   -0.6015 H   0  0  0  0  0  0  0  0  0  0  0  0
    2.2339   -2.6507    1.1108 H   0  0  0  0  0  0  0  0  0  0  0  0
    6.3385   -2.4331    0.7813 H   0  0  0  0  0  0  0  0  0  0  0  0
    5.9171   -2.7127   -0.9191 H   0  0  0  0  0  0  0  0  0  0  0  0
    3.5712   -3.8604   -1.2545 H   0  0  0  0  0  0  0  0  0  0  0  0
    2.9285   -4.6439    0.1876 H   0  0  0  0  0  0  0  0  0  0  0  0
    7.2810    1.4348   -0.1584 H   0  0  0  0  0  0  0  0  0  0  0  0
    8.2988    3.4380    0.8812 H   0  0  0  0  0  0  0  0  0  0  0  0
    7.0861    4.3576   -0.0136 H   0  0  0  0  0  0  0  0  0  0  0  0
    7.2823    4.6349   -2.4213 H   0  0  0  0  0  0  0  0  0  0  0  0
   10.2398    2.5338   -0.3130 H   0  0  0  0  0  0  0  0  0  0  0  0
    5.1246   -8.0932    2.0176 H   0  0  0  0  0  0  0  0  0  0  0  0
    4.3575   -8.4006    3.5572 H   0  0  0  0  0  0  0  0  0  0  0  0
    6.0265   -7.8864    3.4998 H   0  0  0  0  0  0  0  0  0  0  0  0
    8.7829    4.8533   -4.2958 H   0  0  0  0  0  0  0  0  0  0  0  0
   11.7393    2.7651   -2.1928 H   0  0  0  0  0  0  0  0  0  0  0  0
    2.3418   -2.9469    4.4785 H   0  0  0  0  0  0  0  0  0  0  0  0
    5.4799   -6.4301    5.9623 H   0  0  0  0  0  0  0  0  0  0  0  0
    3.1963   -2.9756    6.7751 H   0  0  0  0  0  0  0  0  0  0  0  0
    4.7954   -4.6409    7.4764 H   0  0  0  0  0  0  0  0  0  0  0  0
   13.0763    3.0145   -4.5655 H   0  0  0  0  0  0  0  0  0  0  0  0
   12.9983    4.2390   -3.3251 H   0  0  0  0  0  0  0  0  0  0  0  0
    9.7549    3.9480   -5.9199 H   0  0  0  0  0  0  0  0  0  0  0  0
   11.0770    2.8316   -6.1655 H   0  0  0  0  0  0  0  0  0  0  0  0
   14.4423    4.9289   -5.2310 H   0  0  0  0  0  0  0  0  0  0  0  0
   13.0411    5.9938   -5.0144 H   0  0  0  0  0  0  0  0  0  0  0  0
   11.1623    5.8257   -6.5573 H   0  0  0  0  0  0  0  0  0  0  0  0
   11.2377    4.5789   -7.8139 H   0  0  0  0  0  0  0  0  0  0  0  0
   13.3204    3.9042   -7.0322 H   0  0  0  0  0  0  0  0  0  0  0  0
   13.2275    6.8038   -7.2548 H   0  0  0  0  0  0  0  0  0  0  0  0
   13.2781    5.6707   -8.5839 H   0  0  0  0  0  0  0  0  0  0  0  0
   14.6364    5.7981   -7.4922 H   0  0  0  0  0  0  0  0  0  0  0  0
  1  2  1  0  0  0  0
  2  3  2  0  0  0  0
  2  4  1  0  0  0  0
  3  5  1  0  0  0  0
  3  6  1  0  0  0  0
  4  7  2  0  0  0  0
  4 41  1  0  0  0  0
  5  8  2  0  0  0  0
  5  9  1  0  0  0  0
  6 10  1  0  0  0  0
  6 42  1  0  0  0  0
  6 43  1  0  0  0  0
  7 11  1  0  0  0  0
  7  8  1  0  0  0  0
  9 12  1  0  0  0  0
  9 44  1  0  0  0  0
  9 45  1  0  0  0  0
 10 12  1  0  0  0  0
 10 46  1  0  0  0  0
 10 47  1  0  0  0  0
 11 13  2  0  0  0  0
 11 14  1  0  0  0  0
 12 15  1  0  0  0  0
 14 16  1  0  0  0  0
 14 48  1  0  0  0  0
 15 17  2  0  0  0  0
 15 18  1  0  0  0  0
 16 19  1  0  0  0  0
 16 49  1  0  0  0  0
 16 50  1  0  0  0  0
 18 20  1  0  0  0  0
 18 21  2  0  0  0  0
 19 22  2  0  0  0  0
 19 23  1  0  0  0  0
 20 24  1  0  0  0  0
 21 25  1  0  0  0  0
 21 26  1  0  0  0  0
 22 27  1  0  0  0  0
 22 51  1  0  0  0  0
 23 28  2  0  0  0  0
 23 52  1  0  0  0  0
 24 29  2  0  0  0  0
 24 25  1  0  0  0  0
 25 30  2  0  0  0  0
 26 53  1  0  0  0  0
 26 54  1  0  0  0  0
 26 55  1  0  0  0  0
 27 31  2  0  0  0  0
 27 56  1  0  0  0  0
 28 31  1  0  0  0  0
 28 57  1  0  0  0  0
 29 32  1  0  0  0  0
 29 58  1  0  0  0  0
 30 33  1  0  0  0  0
 30 59  1  0  0  0  0
 31 34  1  0  0  0  0
 32 33  2  0  0  0  0
 32 60  1  0  0  0  0
 33 61  1  0  0  0  0
 34 35  1  0  0  0  0
 34 36  1  0  0  0  0
 35 37  1  0  0  0  0
 35 62  1  0  0  0  0
 35 63  1  0  0  0  0
 36 38  1  0  0  0  0
 36 64  1  0  0  0  0
 36 65  1  0  0  0  0
 37 39  1  0  0  0  0
 37 66  1  0  0  0  0
 37 67  1  0  0  0  0
 38 39  1  0  0  0  0
 38 68  1  0  0  0  0
 38 69  1  0  0  0  0
 39 40  1  0  0  0  0
 39 70  1  0  0  0  0
 40 71  1  0  0  0  0
 40 72  1  0  0  0  0
 40 73  1  0  0  0  0
M  CHG  1  39   1
M  END
>  <Molecule Name>
CTX-1020441

>  <SMILES>
CN1CCN(CC1)C1=CC=C(CNC(=O)C2=CC(Cl)=C3CCN(CC3=N2)C(=O)C2=C(C)C3=C(O2)C=CC=C3)C=C1

>  <Batch Name>
CTX-1020441-1

>  <Batch Created Date>
2021-10-21

>  <Batch ID>
CTX-1020441-1

>  <External ID>
610EDL060-A

>  <Stereochemistry>
Achiral

>  <Amount 1>
4.3

>  <Unit 1>
mg

>  <CRO 1>
Pharmaron

>  <CRO 1 Total Amount>
11.1

>  <CRO 1 Unit>
mg

>  <Pharmaron Solubility (PBS, pH 7.4): Aqueous Solubility - Batch Mean (uM)>
0.3716

>  <Pharmaron Solubility (PBS, pH 7.4): Aqueous Solubility - Batch Mean (uM) Standard Deviation (±)>


>  <Pharmaron Solubility (PBS, pH 7.4): Aqueous Solubility - Batch Mean (uM) Count>
1.0

>  <log P>
4.24

>  <log D>
3.6

>  <Pharmaron Caliper Assay (CDK2/CCNE1): Minimum measured (%)>
86.4

>  <Pharmaron Caliper Assay (CDK2/CCNE1): IC50 - Batch Mean (uM)>
6.99

>  <Pharmaron ADPGLO (CDK2/E1-25C): Minimum measured (%)>


>  <Pharmaron ADPGLO (CDK2/E1-25C): IC50 - Batch Mean (uM)>


>  <Pharmaron ADPGLO (CDK2/E1-37C): Minimum measured (%)>


>  <Pharmaron ADPGLO (CDK2/E1-37C): IC50 - Batch Mean (uM)>


>  <IncuCyte Kuramochi RB-WT: IC50 - Batch Mean (uM)>
4.35

>  <IncuCyte Kuramochi RB-KO: IC50 - Batch Mean (uM)>
4.43

>  <DSF (npCDK2/CCNE1): dTm D - Batch Mean [Concentration: 100]>


>  <DSF (npCDK2/CCNE1): dTm D - Batch Mean [Concentration: 20.0]>
-0.39299999999999996

>  <DSF (pCDK2/CCNE1): dTm D - Batch Mean [Concentration: 100]>


>  <DSF (pCDK2/CCNE1): dTm D - Batch Mean [Concentration: 20.0]>


>  <RLM: t1/2 - Batch Mean (Min)>


>  <RLM: Cl int - Batch Mean (uL/min/mg protein)>


>  <RLM: ER (Hepatic extraction ratio) - Batch Mean>


>  <HLM: t1/2 - Batch Mean (Min)>


>  <HLM: Cl int - Batch Mean (uL/min/mg protein)>


>  <HLM: ER (Hepatic extraction ratio) - Batch Mean>


>  <MDCK-WT 4% BSA: Papp (A-B) - Batch Mean (10-6, cm/s)>


>  <MDCK-WT 4% BSA: Papp (B-A) - Batch Mean (10-6, cm/s)>


>  <MDCK-WT 4% BSA: Efflux Ratio - Batch Mean>


>  <MDCK-WT 4% BSA: ~Net A_B - Batch Mean (10-6, cm/s)>


>  <pIC50>
5.155523

>  <Selection_1>
Y

>  <Selection_N>


>  <Serie>
Naphthyridine

>  <Selection_T>
N

>  <Train_Vs_Test>


$$$$
CTX-1020440
 OpenBabel08272613263D

 67 72  0  0  0  0  0  0  0  0999 V2000
    1.8179   -0.6931   -0.0540 S   0  0  0  0  0  0  0  0  0  0  0  0
    2.1587    0.9856    0.0332 C   0  0  0  0  0  0  0  0  0  0  0  0
    0.1384   -0.4231    0.0037 C   0  0  0  0  0  0  0  0  0  0  0  0
    3.5102    1.5407    0.0540 C   0  0  0  0  0  0  0  0  0  0  0  0
    0.9873    1.7255    0.0911 C   0  0  0  0  0  0  0  0  0  0  0  0
   -0.1849    0.9184    0.0959 C   0  0  0  0  0  0  0  0  0  0  0  0
   -0.8812   -1.5271   -0.0802 C   0  0  0  0  0  0  0  0  0  0  0  0
    3.7099    2.7525    0.1039 O   0  0  0  0  0  0  0  0  0  0  0  0
    4.5551    0.6430    0.0303 N   0  0  0  0  0  0  0  0  0  0  0  0
   -1.6043    1.4024    0.2026 C   0  0  0  0  0  0  0  0  0  0  0  0
   -2.2751   -0.9674    0.2803 C   0  0  0  0  0  0  0  0  0  0  0  0
    5.9390    1.0678    0.1007 C   0  0  0  0  0  0  0  0  0  0  0  0
   -2.4804    0.3560   -0.3386 N   0  0  0  0  0  0  0  0  0  0  0  0
    6.7235    0.6537   -1.1172 C   0  0  0  0  0  0  0  0  0  0  0  0
   -3.4325    0.4983   -1.3451 C   0  0  0  0  0  0  0  0  0  0  0  0
    6.3252    1.0791   -2.3854 C   0  0  0  0  0  0  0  0  0  0  0  0
    7.9003   -0.1000   -1.0105 C   0  0  0  0  0  0  0  0  0  0  0  0
   -4.2328   -0.4022   -1.5962 O   0  0  0  0  0  0  0  0  0  0  0  0
   -3.4932    1.7365   -2.1068 C   0  0  0  0  0  0  0  0  0  0  0  0
    7.0674    0.7268   -3.5132 C   0  0  0  0  0  0  0  0  0  0  0  0
    8.6462   -0.4407   -2.1524 C   0  0  0  0  0  0  0  0  0  0  0  0
   -4.6300    2.3066   -2.6492 C   0  0  0  0  0  0  0  0  0  0  0  0
   -2.4690    2.5869   -2.5806 C   0  0  0  0  0  0  0  0  0  0  0  0
    8.2325   -0.0539   -3.4304 C   0  0  0  0  0  0  0  0  0  0  0  0
   -4.2601    3.4826   -3.2690 N   0  0  0  0  0  0  0  0  0  0  0  0
   -6.0203    1.9416   -2.6831 C   0  0  0  0  0  0  0  0  0  0  0  0
   -2.9228    3.6680   -3.2159 N   0  0  0  0  0  0  0  0  0  0  0  0
    8.9158   -0.3541   -4.5987 N   0  0  0  0  0  0  0  0  0  0  0  0
   -5.2258    4.2872   -3.8466 C   0  0  0  0  0  0  0  0  0  0  0  0
   -6.9229    2.7000   -3.2456 N   0  0  0  0  0  0  0  0  0  0  0  0
   10.3465   -0.6981   -4.6036 C   0  0  0  0  0  0  0  0  0  0  0  0
    8.1543   -1.1095   -5.6151 C   0  0  0  0  0  0  0  0  0  0  0  0
   -6.5048    3.8843   -3.8217 C   0  0  0  0  0  0  0  0  0  0  0  0
   10.9210   -0.4374   -6.0251 C   0  0  0  0  0  0  0  0  0  0  0  0
    8.7474   -0.8231   -7.0106 C   0  0  0  0  0  0  0  0  0  0  0  0
   10.1870   -1.1634   -7.0920 N   0  3  0  0  0  0  0  0  0  0  0  0
   10.7102   -0.8194   -8.4123 C   0  0  0  0  0  0  0  0  0  0  0  0
    0.9675    2.7567    0.1271 H   0  0  0  0  0  0  0  0  0  0  0  0
   -0.6211   -2.3060    0.6057 H   0  0  0  0  0  0  0  0  0  0  0  0
   -0.9007   -1.9204   -1.0751 H   0  0  0  0  0  0  0  0  0  0  0  0
    4.3551   -0.3186   -0.0368 H   0  0  0  0  0  0  0  0  0  0  0  0
   -1.7242    2.3041   -0.3608 H   0  0  0  0  0  0  0  0  0  0  0  0
   -1.8530    1.6051    1.2234 H   0  0  0  0  0  0  0  0  0  0  0  0
   -2.3521   -0.8739    1.3435 H   0  0  0  0  0  0  0  0  0  0  0  0
   -3.0219   -1.6394   -0.0877 H   0  0  0  0  0  0  0  0  0  0  0  0
    6.3903    0.6302    0.9666 H   0  0  0  0  0  0  0  0  0  0  0  0
    5.9527    2.1365    0.1528 H   0  0  0  0  0  0  0  0  0  0  0  0
    5.4769    1.6574   -2.4896 H   0  0  0  0  0  0  0  0  0  0  0  0
    8.2238   -0.4092   -0.0806 H   0  0  0  0  0  0  0  0  0  0  0  0
    6.7496    1.0508   -4.4401 H   0  0  0  0  0  0  0  0  0  0  0  0
    9.5154   -0.9866   -2.0452 H   0  0  0  0  0  0  0  0  0  0  0  0
   -1.4647    2.3899   -2.4476 H   0  0  0  0  0  0  0  0  0  0  0  0
   -6.3143    1.0525   -2.2494 H   0  0  0  0  0  0  0  0  0  0  0  0
   -4.9665    5.1826   -4.2894 H   0  0  0  0  0  0  0  0  0  0  0  0
   10.4688   -1.7304   -4.3503 H   0  0  0  0  0  0  0  0  0  0  0  0
   10.8666   -0.0983   -3.8862 H   0  0  0  0  0  0  0  0  0  0  0  0
    7.1287   -0.8053   -5.5930 H   0  0  0  0  0  0  0  0  0  0  0  0
    8.2172   -2.1570   -5.4061 H   0  0  0  0  0  0  0  0  0  0  0  0
   -7.2160    4.4925   -4.2568 H   0  0  0  0  0  0  0  0  0  0  0  0
   11.9439   -0.7507   -6.0418 H   0  0  0  0  0  0  0  0  0  0  0  0
   10.8193    0.6092   -6.2234 H   0  0  0  0  0  0  0  0  0  0  0  0
    8.6274    0.2176   -7.2282 H   0  0  0  0  0  0  0  0  0  0  0  0
    8.2268   -1.4338   -7.7184 H   0  0  0  0  0  0  0  0  0  0  0  0
   10.3123   -2.1665   -6.9553 H   0  0  0  0  0  0  0  0  0  0  0  0
   10.5905    0.2304   -8.5809 H   0  0  0  0  0  0  0  0  0  0  0  0
   10.1746   -1.3644   -9.1613 H   0  0  0  0  0  0  0  0  0  0  0  0
   11.7487   -1.0724   -8.4613 H   0  0  0  0  0  0  0  0  0  0  0  0
  1  2  1  0  0  0  0
  1  3  1  0  0  0  0
  2  4  1  0  0  0  0
  2  5  2  0  0  0  0
  3  6  2  0  0  0  0
  3  7  1  0  0  0  0
  4  8  2  0  0  0  0
  4  9  1  0  0  0  0
  5  6  1  0  0  0  0
  5 38  1  0  0  0  0
  6 10  1  0  0  0  0
  7 11  1  0  0  0  0
  7 39  1  0  0  0  0
  7 40  1  0  0  0  0
  9 12  1  0  0  0  0
  9 41  1  0  0  0  0
 10 13  1  0  0  0  0
 10 42  1  0  0  0  0
 10 43  1  0  0  0  0
 11 13  1  0  0  0  0
 11 44  1  0  0  0  0
 11 45  1  0  0  0  0
 12 14  1  0  0  0  0
 12 46  1  0  0  0  0
 12 47  1  0  0  0  0
 13 15  1  0  0  0  0
 14 16  2  0  0  0  0
 14 17  1  0  0  0  0
 15 18  2  0  0  0  0
 15 19  1  0  0  0  0
 16 20  1  0  0  0  0
 16 48  1  0  0  0  0
 17 21  2  0  0  0  0
 17 49  1  0  0  0  0
 19 22  2  0  0  0  0
 19 23  1  0  0  0  0
 20 24  2  0  0  0  0
 20 50  1  0  0  0  0
 21 24  1  0  0  0  0
 21 51  1  0  0  0  0
 22 25  1  0  0  0  0
 22 26  1  0  0  0  0
 23 27  2  0  0  0  0
 23 52  1  0  0  0  0
 24 28  1  0  0  0  0
 25 29  1  0  0  0  0
 25 27  1  0  0  0  0
 26 30  2  0  0  0  0
 26 53  1  0  0  0  0
 28 31  1  0  0  0  0
 28 32  1  0  0  0  0
 29 33  2  0  0  0  0
 29 54  1  0  0  0  0
 30 33  1  0  0  0  0
 31 34  1  0  0  0  0
 31 55  1  0  0  0  0
 31 56  1  0  0  0  0
 32 35  1  0  0  0  0
 32 57  1  0  0  0  0
 32 58  1  0  0  0  0
 33 59  1  0  0  0  0
 34 36  1  0  0  0  0
 34 60  1  0  0  0  0
 34 61  1  0  0  0  0
 35 36  1  0  0  0  0
 35 62  1  0  0  0  0
 35 63  1  0  0  0  0
 36 37  1  0  0  0  0
 36 64  1  0  0  0  0
 37 65  1  0  0  0  0
 37 66  1  0  0  0  0
 37 67  1  0  0  0  0
M  CHG  1  36   1
M  END
>  <Molecule Name>
CTX-1020440

>  <SMILES>
CN1CCN(CC1)C1=CC=C(CNC(=O)C2=CC3=C(CCN(C3)C(=O)C3=C4C=NC=CN4N=C3)S2)C=C1

>  <Batch Name>
CTX-1020440-1

>  <Batch Created Date>
2021-10-21

>  <Batch ID>
CTX-1020440-1

>  <External ID>
610EDL021-E

>  <Stereochemistry>
Achiral

>  <Amount 1>
5.0

>  <Unit 1>
mg

>  <CRO 1>
Pharmaron

>  <CRO 1 Total Amount>
6.9

>  <CRO 1 Unit>
mg

>  <Pharmaron Solubility (PBS, pH 7.4): Aqueous Solubility - Batch Mean (uM)>
284.6668

>  <Pharmaron Solubility (PBS, pH 7.4): Aqueous Solubility - Batch Mean (uM) Standard Deviation (±)>
33.6543

>  <Pharmaron Solubility (PBS, pH 7.4): Aqueous Solubility - Batch Mean (uM) Count>
2.0

>  <log P>
2.15

>  <log D>
1.51

>  <Pharmaron Caliper Assay (CDK2/CCNE1): Minimum measured (%)>
8.56

>  <Pharmaron Caliper Assay (CDK2/CCNE1): IC50 - Batch Mean (uM)>
6.08

>  <Pharmaron ADPGLO (CDK2/E1-25C): Minimum measured (%)>


>  <Pharmaron ADPGLO (CDK2/E1-25C): IC50 - Batch Mean (uM)>


>  <Pharmaron ADPGLO (CDK2/E1-37C): Minimum measured (%)>


>  <Pharmaron ADPGLO (CDK2/E1-37C): IC50 - Batch Mean (uM)>


>  <IncuCyte Kuramochi RB-WT: IC50 - Batch Mean (uM)>
20.0

>  <IncuCyte Kuramochi RB-KO: IC50 - Batch Mean (uM)>
20.0

>  <DSF (npCDK2/CCNE1): dTm D - Batch Mean [Concentration: 100]>


>  <DSF (npCDK2/CCNE1): dTm D - Batch Mean [Concentration: 20.0]>
0.311

>  <DSF (pCDK2/CCNE1): dTm D - Batch Mean [Concentration: 100]>


>  <DSF (pCDK2/CCNE1): dTm D - Batch Mean [Concentration: 20.0]>


>  <RLM: t1/2 - Batch Mean (Min)>
20.34

>  <RLM: Cl int - Batch Mean (uL/min/mg protein)>
68.32

>  <RLM: ER (Hepatic extraction ratio) - Batch Mean>
0.71

>  <HLM: t1/2 - Batch Mean (Min)>
104.93

>  <HLM: Cl int - Batch Mean (uL/min/mg protein)>
13.24

>  <HLM: ER (Hepatic extraction ratio) - Batch Mean>
0.39299999999999996

>  <MDCK-WT 4% BSA: Papp (A-B) - Batch Mean (10-6, cm/s)>


>  <MDCK-WT 4% BSA: Papp (B-A) - Batch Mean (10-6, cm/s)>


>  <MDCK-WT 4% BSA: Efflux Ratio - Batch Mean>


>  <MDCK-WT 4% BSA: ~Net A_B - Batch Mean (10-6, cm/s)>


>  <pIC50>
5.216096

>  <Selection_1>
Y

>  <Selection_N>
N

>  <Serie>
Tetrahydrothienopyridine

>  <Selection_T>


>  <Train_Vs_Test>


$$$$
CTX-1019904
 OpenBabel08272613263D

 76 81  0  0  0  0  0  0  0  0999 V2000
    1.2147   -0.5363    0.3690 O   0  0  0  0  0  0  0  0  0  0  0  0
    2.2896   -0.0100    0.0791 C   0  0  0  0  0  0  0  0  0  0  0  0
    2.8609   -0.1339   -1.1675 N   0  0  0  0  0  0  0  0  0  0  0  0
    3.0372    0.7815    1.0981 C   0  0  0  0  0  0  0  0  0  0  0  0
    2.2168   -0.9205   -2.1899 C   0  0  0  0  0  0  0  0  0  0  0  0
    4.1883    1.4038    0.7081 N   0  0  0  0  0  0  0  0  0  0  0  0
    2.5171    0.8478    2.3861 C   0  0  0  0  0  0  0  0  0  0  0  0
    2.9589   -0.9431   -3.5047 C   0  0  0  0  0  0  0  0  0  0  0  0
    4.8205    2.1541    1.6471 C   0  0  0  0  0  0  0  0  0  0  0  0
    3.1996    1.5983    3.3323 C   0  0  0  0  0  0  0  0  0  0  0  0
    4.0931   -0.2111   -3.6204 N   0  0  0  0  0  0  0  0  0  0  0  0
    2.4608   -1.7158   -4.5549 C   0  0  0  0  0  0  0  0  0  0  0  0
    4.3697    2.2619    2.9700 C   0  0  0  0  0  0  0  0  0  0  0  0
    6.0480    2.9127    1.1812 C   0  0  0  0  0  0  0  0  0  0  0  0
    4.7357   -0.2739   -4.8145 C   0  0  0  0  0  0  0  0  0  0  0  0
    3.1586   -1.7516   -5.7645 C   0  0  0  0  0  0  0  0  0  0  0  0
    5.0604    3.1430    3.9734 C   0  0  0  0  0  0  0  0  0  0  0  0
    6.4839    3.9393    2.1104 N   0  0  0  0  0  0  0  0  0  0  0  0
    4.3329   -1.0192   -5.9295 C   0  0  0  0  0  0  0  0  0  0  0  0
    6.4481    3.5740    3.5240 C   0  0  0  0  0  0  0  0  0  0  0  0
    7.2156    5.0686    1.7670 C   0  0  0  0  0  0  0  0  0  0  0  0
    5.1094   -1.0514   -7.0773 N   0  0  0  0  0  0  0  0  0  0  0  0
    7.4511    5.9007    2.6510 O   0  0  0  0  0  0  0  0  0  0  0  0
    7.7518    5.2736    0.4061 C   0  0  0  0  0  0  0  0  0  0  0  0
    5.0275   -2.1861   -8.0093 C   0  0  0  0  0  0  0  0  0  0  0  0
    5.3595    0.2313   -7.7656 C   0  0  0  0  0  0  0  0  0  0  0  0
    8.8350    6.1428    0.4627 O   0  0  0  0  0  0  0  0  0  0  0  0
    7.1400    5.6012   -0.8089 C   0  0  0  0  0  0  0  0  0  0  0  0
    6.3517   -2.2703   -8.8058 C   0  0  0  0  0  0  0  0  0  0  0  0
    6.6624    0.1240   -8.5950 C   0  0  0  0  0  0  0  0  0  0  0  0
    8.3719    7.3113   -0.0701 C   0  0  0  0  0  0  0  0  0  0  0  0
    7.2606    7.0239   -0.8558 C   0  0  0  0  0  0  0  0  0  0  0  0
    6.6321    4.7409   -1.9049 C   0  0  0  0  0  0  0  0  0  0  0  0
    6.6622   -1.0198   -9.5387 N   0  3  0  0  0  0  0  0  0  0  0  0
    8.8924    8.5896    0.1391 C   0  0  0  0  0  0  0  0  0  0  0  0
    6.6195    8.0810   -1.5237 C   0  0  0  0  0  0  0  0  0  0  0  0
    7.9610   -1.1322  -10.2010 C   0  0  0  0  0  0  0  0  0  0  0  0
    9.9954    8.9455    0.8924 O   0  0  0  0  0  0  0  0  0  0  0  0
    8.1640    9.6322   -0.4409 C   0  0  0  0  0  0  0  0  0  0  0  0
    7.0490    9.3879   -1.2529 C   0  0  0  0  0  0  0  0  0  0  0  0
   10.7206    7.8659    1.4751 C   0  0  0  0  0  0  0  0  0  0  0  0
    3.7141    0.3172   -1.3619 H   0  0  0  0  0  0  0  0  0  0  0  0
    1.2410   -0.5161   -2.3610 H   0  0  0  0  0  0  0  0  0  0  0  0
    2.1876   -1.9288   -1.8330 H   0  0  0  0  0  0  0  0  0  0  0  0
    1.6461    0.3517    2.6316 H   0  0  0  0  0  0  0  0  0  0  0  0
    2.8428    1.6645    4.2984 H   0  0  0  0  0  0  0  0  0  0  0  0
    1.5879   -2.2539   -4.4393 H   0  0  0  0  0  0  0  0  0  0  0  0
    5.8228    3.3779    0.2443 H   0  0  0  0  0  0  0  0  0  0  0  0
    6.8444    2.2026    1.1019 H   0  0  0  0  0  0  0  0  0  0  0  0
    5.6017    0.2793   -4.9094 H   0  0  0  0  0  0  0  0  0  0  0  0
    2.8011   -2.3261   -6.5437 H   0  0  0  0  0  0  0  0  0  0  0  0
    5.1509    2.6062    4.8945 H   0  0  0  0  0  0  0  0  0  0  0  0
    4.4692    4.0278    4.0855 H   0  0  0  0  0  0  0  0  0  0  0  0
    7.1296    2.7655    3.6879 H   0  0  0  0  0  0  0  0  0  0  0  0
    6.7230    4.4377    4.0926 H   0  0  0  0  0  0  0  0  0  0  0  0
    4.2101   -2.0395   -8.6841 H   0  0  0  0  0  0  0  0  0  0  0  0
    4.8708   -3.0941   -7.4655 H   0  0  0  0  0  0  0  0  0  0  0  0
    5.4611    1.0116   -7.0406 H   0  0  0  0  0  0  0  0  0  0  0  0
    4.5393    0.4541   -8.4155 H   0  0  0  0  0  0  0  0  0  0  0  0
    6.2755   -3.0704   -9.5121 H   0  0  0  0  0  0  0  0  0  0  0  0
    7.1407   -2.4355   -8.1022 H   0  0  0  0  0  0  0  0  0  0  0  0
    7.4857    0.0089   -7.9214 H   0  0  0  0  0  0  0  0  0  0  0  0
    6.7420    1.0173   -9.1786 H   0  0  0  0  0  0  0  0  0  0  0  0
    6.6527    3.7174   -1.5937 H   0  0  0  0  0  0  0  0  0  0  0  0
    7.2499    4.8632   -2.7699 H   0  0  0  0  0  0  0  0  0  0  0  0
    5.6270    5.0214   -2.1419 H   0  0  0  0  0  0  0  0  0  0  0  0
    5.9490   -0.8632  -10.2508 H   0  0  0  0  0  0  0  0  0  0  0  0
    5.8554    7.9008   -2.1935 H   0  0  0  0  0  0  0  0  0  0  0  0
    8.7224   -1.2971   -9.4675 H   0  0  0  0  0  0  0  0  0  0  0  0
    8.1690   -0.2280  -10.7340 H   0  0  0  0  0  0  0  0  0  0  0  0
    7.9421   -1.9538  -10.8863 H   0  0  0  0  0  0  0  0  0  0  0  0
    8.4551   10.6068   -0.2663 H   0  0  0  0  0  0  0  0  0  0  0  0
    6.5341   10.1846   -1.6594 H   0  0  0  0  0  0  0  0  0  0  0  0
   11.5483    8.2519    2.0325 H   0  0  0  0  0  0  0  0  0  0  0  0
   11.0813    7.2202    0.7019 H   0  0  0  0  0  0  0  0  0  0  0  0
   10.0765    7.3150    2.1283 H   0  0  0  0  0  0  0  0  0  0  0  0
  1  2  2  0  0  0  0
  2  3  1  0  0  0  0
  2  4  1  0  0  0  0
  3  5  1  0  0  0  0
  3 42  1  0  0  0  0
  4  6  2  0  0  0  0
  4  7  1  0  0  0  0
  5  8  1  0  0  0  0
  5 43  1  0  0  0  0
  5 44  1  0  0  0  0
  6  9  1  0  0  0  0
  7 10  2  0  0  0  0
  7 45  1  0  0  0  0
  8 11  2  0  0  0  0
  8 12  1  0  0  0  0
  9 13  2  0  0  0  0
  9 14  1  0  0  0  0
 10 13  1  0  0  0  0
 10 46  1  0  0  0  0
 11 15  1  0  0  0  0
 12 16  2  0  0  0  0
 12 47  1  0  0  0  0
 13 17  1  0  0  0  0
 14 18  1  0  0  0  0
 14 48  1  0  0  0  0
 14 49  1  0  0  0  0
 15 19  2  0  0  0  0
 15 50  1  0  0  0  0
 16 19  1  0  0  0  0
 16 51  1  0  0  0  0
 17 20  1  0  0  0  0
 17 52  1  0  0  0  0
 17 53  1  0  0  0  0
 18 21  1  0  0  0  0
 18 20  1  0  0  0  0
 19 22  1  0  0  0  0
 20 54  1  0  0  0  0
 20 55  1  0  0  0  0
 21 23  2  0  0  0  0
 21 24  1  0  0  0  0
 22 25  1  0  0  0  0
 22 26  1  0  0  0  0
 24 27  1  0  0  0  0
 24 28  2  0  0  0  0
 25 29  1  0  0  0  0
 25 56  1  0  0  0  0
 25 57  1  0  0  0  0
 26 30  1  0  0  0  0
 26 58  1  0  0  0  0
 26 59  1  0  0  0  0
 27 31  1  0  0  0  0
 28 32  1  0  0  0  0
 28 33  1  0  0  0  0
 29 34  1  0  0  0  0
 29 60  1  0  0  0  0
 29 61  1  0  0  0  0
 30 34  1  0  0  0  0
 30 62  1  0  0  0  0
 30 63  1  0  0  0  0
 31 35  2  0  0  0  0
 31 32  1  0  0  0  0
 32 36  2  0  0  0  0
 33 64  1  0  0  0  0
 33 65  1  0  0  0  0
 33 66  1  0  0  0  0
 34 37  1  0  0  0  0
 34 67  1  0  0  0  0
 35 38  1  0  0  0  0
 35 39  1  0  0  0  0
 36 40  1  0  0  0  0
 36 68  1  0  0  0  0
 37 69  1  0  0  0  0
 37 70  1  0  0  0  0
 37 71  1  0  0  0  0
 38 41  1  0  0  0  0
 39 40  2  0  0  0  0
 39 72  1  0  0  0  0
 40 73  1  0  0  0  0
 41 74  1  0  0  0  0
 41 75  1  0  0  0  0
 41 76  1  0  0  0  0
M  CHG  1  34   1
M  END
>  <Molecule Name>
CTX-1019904

>  <SMILES>
COC1=CC=CC2=C1OC(C(=O)N1CCC3=C(C1)N=C(C=C3)C(=O)NCC1=CC=C(C=N1)N1CCN(C)CC1)=C2C

>  <Batch Name>
CTX-1019904-1

>  <Batch Created Date>
2021-10-07

>  <Batch ID>
CTX-1019904-1

>  <External ID>
610EDL010-B

>  <Stereochemistry>
Achiral

>  <Amount 1>
3.4

>  <Unit 1>
mg

>  <CRO 1>
Pharmaron

>  <CRO 1 Total Amount>
16.4

>  <CRO 1 Unit>
mg

>  <Pharmaron Solubility (PBS, pH 7.4): Aqueous Solubility - Batch Mean (uM)>
211.991

>  <Pharmaron Solubility (PBS, pH 7.4): Aqueous Solubility - Batch Mean (uM) Standard Deviation (±)>


>  <Pharmaron Solubility (PBS, pH 7.4): Aqueous Solubility - Batch Mean (uM) Count>
1.0

>  <log P>
2.34

>  <log D>
1.93

>  <Pharmaron Caliper Assay (CDK2/CCNE1): Minimum measured (%)>
87.2

>  <Pharmaron Caliper Assay (CDK2/CCNE1): IC50 - Batch Mean (uM)>
8.45

>  <Pharmaron ADPGLO (CDK2/E1-25C): Minimum measured (%)>


>  <Pharmaron ADPGLO (CDK2/E1-25C): IC50 - Batch Mean (uM)>


>  <Pharmaron ADPGLO (CDK2/E1-37C): Minimum measured (%)>


>  <Pharmaron ADPGLO (CDK2/E1-37C): IC50 - Batch Mean (uM)>


>  <IncuCyte Kuramochi RB-WT: IC50 - Batch Mean (uM)>
16.0

>  <IncuCyte Kuramochi RB-KO: IC50 - Batch Mean (uM)>
18.5

>  <DSF (npCDK2/CCNE1): dTm D - Batch Mean [Concentration: 100]>


>  <DSF (npCDK2/CCNE1): dTm D - Batch Mean [Concentration: 20.0]>
0.09699999999999999

>  <DSF (pCDK2/CCNE1): dTm D - Batch Mean [Concentration: 100]>


>  <DSF (pCDK2/CCNE1): dTm D - Batch Mean [Concentration: 20.0]>


>  <RLM: t1/2 - Batch Mean (Min)>


>  <RLM: Cl int - Batch Mean (uL/min/mg protein)>


>  <RLM: ER (Hepatic extraction ratio) - Batch Mean>


>  <HLM: t1/2 - Batch Mean (Min)>


>  <HLM: Cl int - Batch Mean (uL/min/mg protein)>


>  <HLM: ER (Hepatic extraction ratio) - Batch Mean>


>  <MDCK-WT 4% BSA: Papp (A-B) - Batch Mean (10-6, cm/s)>


>  <MDCK-WT 4% BSA: Papp (B-A) - Batch Mean (10-6, cm/s)>


>  <MDCK-WT 4% BSA: Efflux Ratio - Batch Mean>


>  <MDCK-WT 4% BSA: ~Net A_B - Batch Mean (10-6, cm/s)>


>  <pIC50>
5.073143

>  <Selection_1>
Y

>  <Selection_N>


>  <Serie>
Naphthyridine

>  <Selection_T>
N

>  <Train_Vs_Test>


$$$$
CTX-1019813
 OpenBabel08272613263D

 70 75  0  0  0  0  0  0  0  0999 V2000
    1.0449    0.0507   -0.0688 O   0  0  0  0  0  0  0  0  0  0  0  0
    2.2225   -0.0005   -0.1142 C   0  0  0  0  0  0  0  0  0  0  0  0
    2.9857   -0.5560    0.9741 N   0  0  0  0  0  0  0  0  0  0  0  0
    3.0231    0.5149   -1.3304 C   0  0  0  0  0  0  0  0  0  0  0  0
    2.2846   -1.0391    2.1551 C   0  0  0  0  0  0  0  0  0  0  0  0
    4.4131    0.4340   -1.4392 N   0  0  0  0  0  0  0  0  0  0  0  0
    2.2152    1.0233   -2.3592 C   0  0  0  0  0  0  0  0  0  0  0  0
    2.6991   -0.3192    3.4294 C   0  0  0  0  0  0  0  0  0  0  0  0
    5.0432    0.7695   -2.6582 C   0  0  0  0  0  0  0  0  0  0  0  0
    2.8815    1.4765   -3.5270 C   0  0  0  0  0  0  0  0  0  0  0  0
    2.0076    0.8151    3.8771 C   0  0  0  0  0  0  0  0  0  0  0  0
    3.8059   -0.7377    4.1808 C   0  0  0  0  0  0  0  0  0  0  0  0
    4.2877    1.3558   -3.6771 C   0  0  0  0  0  0  0  0  0  0  0  0
    6.6407    0.5018   -2.9387 C   0  0  0  0  0  0  0  0  0  0  0  0
    2.3802    1.4749    5.0387 C   0  0  0  0  0  0  0  0  0  0  0  0
    4.2560    0.0199    5.2707 C   0  0  0  0  0  0  0  0  0  0  0  0
    4.9481    1.7592   -5.0012 C   0  0  0  0  0  0  0  0  0  0  0  0
    7.1611    0.4172   -4.5271 N   0  0  0  0  0  0  0  0  0  0  0  0
    3.5246    1.1125    5.7548 C   0  0  0  0  0  0  0  0  0  0  0  0
    6.5500    1.7314   -5.0727 C   0  0  0  0  0  0  0  0  0  0  0  0
    8.3563   -0.7380   -5.0491 C   0  0  0  0  0  0  0  0  0  0  0  0
    3.8627    1.7783    6.9113 N   0  0  0  0  0  0  0  0  0  0  0  0
    8.5502   -1.5281   -4.0817 O   0  0  0  0  0  0  0  0  0  0  0  0
    9.3465   -1.1755   -6.5581 C   0  0  0  0  0  0  0  0  0  0  0  0
    4.5854    1.1000    7.9854 C   0  0  0  0  0  0  0  0  0  0  0  0
    3.7064    3.2347    7.0671 C   0  0  0  0  0  0  0  0  0  0  0  0
   10.3219   -1.0933   -8.2001 C   0  0  0  0  0  0  0  0  0  0  0  0
    8.2631   -0.6663   -7.2588 C   0  0  0  0  0  0  0  0  0  0  0  0
    3.9687    1.4697    9.3501 C   0  0  0  0  0  0  0  0  0  0  0  0
    3.1453    3.5512    8.4726 C   0  0  0  0  0  0  0  0  0  0  0  0
    9.2225   -1.3275   -8.9595 C   0  0  0  0  0  0  0  0  0  0  0  0
   11.7275   -1.1496   -9.3799 C   0  0  0  0  0  0  0  0  0  0  0  0
    8.0352   -1.3209   -8.3798 O   0  0  0  0  0  0  0  0  0  0  0  0
    3.9596    2.9368    9.5512 N   0  3  0  0  0  0  0  0  0  0  0  0
    9.2090   -1.3519  -10.3103 C   0  0  0  0  0  0  0  0  0  0  0  0
   11.4938   -1.5021  -10.7279 C   0  0  0  0  0  0  0  0  0  0  0  0
    3.4478    3.2874   10.8715 C   0  0  0  0  0  0  0  0  0  0  0  0
   10.1882   -1.3452  -11.1898 C   0  0  0  0  0  0  0  0  0  0  0  0
    3.9674   -0.6082    0.9200 H   0  0  0  0  0  0  0  0  0  0  0  0
    2.4908   -2.0826    2.2707 H   0  0  0  0  0  0  0  0  0  0  0  0
    1.2417   -0.8515    2.0067 H   0  0  0  0  0  0  0  0  0  0  0  0
    1.1878    1.0654   -2.2708 H   0  0  0  0  0  0  0  0  0  0  0  0
    2.3297    1.9049   -4.2866 H   0  0  0  0  0  0  0  0  0  0  0  0
    1.2052    1.1663    3.3314 H   0  0  0  0  0  0  0  0  0  0  0  0
    4.2938   -1.6116    3.9292 H   0  0  0  0  0  0  0  0  0  0  0  0
    6.8934   -0.4274   -2.4721 H   0  0  0  0  0  0  0  0  0  0  0  0
    7.1281    1.3695   -2.5457 H   0  0  0  0  0  0  0  0  0  0  0  0
    1.7973    2.2537    5.3834 H   0  0  0  0  0  0  0  0  0  0  0  0
    5.1464   -0.2327    5.7270 H   0  0  0  0  0  0  0  0  0  0  0  0
    4.6354    2.7581   -5.2232 H   0  0  0  0  0  0  0  0  0  0  0  0
    4.6327    1.0127   -5.6998 H   0  0  0  0  0  0  0  0  0  0  0  0
    6.9306    2.5486   -4.4964 H   0  0  0  0  0  0  0  0  0  0  0  0
    6.8241    1.8058   -6.1043 H   0  0  0  0  0  0  0  0  0  0  0  0
    5.6120    1.4010    7.9671 H   0  0  0  0  0  0  0  0  0  0  0  0
    4.5154    0.0419    7.8428 H   0  0  0  0  0  0  0  0  0  0  0  0
    3.0302    3.6014    6.3233 H   0  0  0  0  0  0  0  0  0  0  0  0
    4.6591    3.7078    6.9510 H   0  0  0  0  0  0  0  0  0  0  0  0
    7.6985    0.1358   -6.9381 H   0  0  0  0  0  0  0  0  0  0  0  0
    4.5440    1.0138   10.1286 H   0  0  0  0  0  0  0  0  0  0  0  0
    2.9586    1.1172    9.3733 H   0  0  0  0  0  0  0  0  0  0  0  0
    2.1459    3.1745    8.5379 H   0  0  0  0  0  0  0  0  0  0  0  0
    3.1699    4.6126    8.6056 H   0  0  0  0  0  0  0  0  0  0  0  0
   12.6827   -0.9250   -9.0603 H   0  0  0  0  0  0  0  0  0  0  0  0
    4.9131    3.2960    9.5056 H   0  0  0  0  0  0  0  0  0  0  0  0
    8.2647   -1.3810  -10.7255 H   0  0  0  0  0  0  0  0  0  0  0  0
   12.2480   -1.8562  -11.3368 H   0  0  0  0  0  0  0  0  0  0  0  0
    2.4439    2.9309   10.9711 H   0  0  0  0  0  0  0  0  0  0  0  0
    3.4619    4.3509   10.9886 H   0  0  0  0  0  0  0  0  0  0  0  0
    4.0623    2.8377   11.6232 H   0  0  0  0  0  0  0  0  0  0  0  0
    9.9941   -1.2267  -12.1964 H   0  0  0  0  0  0  0  0  0  0  0  0
  1  2  2  0  0  0  0
  2  3  1  0  0  0  0
  2  4  1  0  0  0  0
  3  5  1  0  0  0  0
  3 39  1  0  0  0  0
  4  6  2  0  0  0  0
  4  7  1  0  0  0  0
  5  8  1  0  0  0  0
  5 40  1  0  0  0  0
  5 41  1  0  0  0  0
  6  9  1  0  0  0  0
  7 10  2  0  0  0  0
  7 42  1  0  0  0  0
  8 11  2  0  0  0  0
  8 12  1  0  0  0  0
  9 13  2  0  0  0  0
  9 14  1  0  0  0  0
 10 13  1  0  0  0  0
 10 43  1  0  0  0  0
 11 15  1  0  0  0  0
 11 44  1  0  0  0  0
 12 16  2  0  0  0  0
 12 45  1  0  0  0  0
 13 17  1  0  0  0  0
 14 18  1  0  0  0  0
 14 46  1  0  0  0  0
 14 47  1  0  0  0  0
 15 19  2  0  0  0  0
 15 48  1  0  0  0  0
 16 19  1  0  0  0  0
 16 49  1  0  0  0  0
 17 20  1  0  0  0  0
 17 50  1  0  0  0  0
 17 51  1  0  0  0  0
 18 21  1  0  0  0  0
 18 20  1  0  0  0  0
 19 22  1  0  0  0  0
 20 52  1  0  0  0  0
 20 53  1  0  0  0  0
 21 23  2  0  0  0  0
 21 24  1  0  0  0  0
 22 25  1  0  0  0  0
 22 26  1  0  0  0  0
 24 27  1  0  0  0  0
 24 28  2  0  0  0  0
 25 29  1  0  0  0  0
 25 54  1  0  0  0  0
 25 55  1  0  0  0  0
 26 30  1  0  0  0  0
 26 56  1  0  0  0  0
 26 57  1  0  0  0  0
 27 31  2  0  0  0  0
 27 32  1  0  0  0  0
 28 33  1  0  0  0  0
 28 58  1  0  0  0  0
 29 34  1  0  0  0  0
 29 59  1  0  0  0  0
 29 60  1  0  0  0  0
 30 34  1  0  0  0  0
 30 61  1  0  0  0  0
 30 62  1  0  0  0  0
 31 35  1  0  0  0  0
 31 33  1  0  0  0  0
 32 36  2  0  0  0  0
 32 63  1  0  0  0  0
 34 37  1  0  0  0  0
 34 64  1  0  0  0  0
 35 38  2  0  0  0  0
 35 65  1  0  0  0  0
 36 38  1  0  0  0  0
 36 66  1  0  0  0  0
 37 67  1  0  0  0  0
 37 68  1  0  0  0  0
 37 69  1  0  0  0  0
 38 70  1  0  0  0  0
M  CHG  1  34   1
M  END
>  <Molecule Name>
CTX-1019813

>  <SMILES>
CN1CCN(CC1)C1=CC=C(CNC(=O)C2=NC3=C(CCN(C3)C(=O)C3=COC4=C3C=CC=C4)C=C2)C=C1

>  <Batch Name>
CTX-1019813-1

>  <Batch Created Date>
2021-09-17

>  <Batch ID>
CTX-1019813-1

>  <External ID>
P841-0172

>  <Stereochemistry>
Achiral

>  <Amount 1>
4.3

>  <Unit 1>
mg

>  <CRO 1>
Pharmaron

>  <CRO 1 Total Amount>
19.4

>  <CRO 1 Unit>
mg

>  <Pharmaron Solubility (PBS, pH 7.4): Aqueous Solubility - Batch Mean (uM)>
128.57

>  <Pharmaron Solubility (PBS, pH 7.4): Aqueous Solubility - Batch Mean (uM) Standard Deviation (±)>


>  <Pharmaron Solubility (PBS, pH 7.4): Aqueous Solubility - Batch Mean (uM) Count>
1.0

>  <log P>
3.2

>  <log D>
2.57

>  <Pharmaron Caliper Assay (CDK2/CCNE1): Minimum measured (%)>
83.0

>  <Pharmaron Caliper Assay (CDK2/CCNE1): IC50 - Batch Mean (uM)>
6.42

>  <Pharmaron ADPGLO (CDK2/E1-25C): Minimum measured (%)>


>  <Pharmaron ADPGLO (CDK2/E1-25C): IC50 - Batch Mean (uM)>


>  <Pharmaron ADPGLO (CDK2/E1-37C): Minimum measured (%)>


>  <Pharmaron ADPGLO (CDK2/E1-37C): IC50 - Batch Mean (uM)>


>  <IncuCyte Kuramochi RB-WT: IC50 - Batch Mean (uM)>
20.0

>  <IncuCyte Kuramochi RB-KO: IC50 - Batch Mean (uM)>
20.0

>  <DSF (npCDK2/CCNE1): dTm D - Batch Mean [Concentration: 100]>


>  <DSF (npCDK2/CCNE1): dTm D - Batch Mean [Concentration: 20.0]>
0.009000000000000001

>  <DSF (pCDK2/CCNE1): dTm D - Batch Mean [Concentration: 100]>


>  <DSF (pCDK2/CCNE1): dTm D - Batch Mean [Concentration: 20.0]>


>  <RLM: t1/2 - Batch Mean (Min)>


>  <RLM: Cl int - Batch Mean (uL/min/mg protein)>


>  <RLM: ER (Hepatic extraction ratio) - Batch Mean>


>  <HLM: t1/2 - Batch Mean (Min)>


>  <HLM: Cl int - Batch Mean (uL/min/mg protein)>


>  <HLM: ER (Hepatic extraction ratio) - Batch Mean>


>  <MDCK-WT 4% BSA: Papp (A-B) - Batch Mean (10-6, cm/s)>


>  <MDCK-WT 4% BSA: Papp (B-A) - Batch Mean (10-6, cm/s)>


>  <MDCK-WT 4% BSA: Efflux Ratio - Batch Mean>


>  <MDCK-WT 4% BSA: ~Net A_B - Batch Mean (10-6, cm/s)>


>  <pIC50>
5.192465

>  <Selection_1>
Y

>  <Selection_N>


>  <Serie>
Naphthyridine

>  <Selection_T>
N

>  <Train_Vs_Test>


$$$$
CTX-1019758
 OpenBabel08272613263D

 71 76  0  0  0  0  0  0  0  0999 V2000
    1.7801   -0.7208   -0.0373 S   0  0  0  0  0  0  0  0  0  0  0  0
    2.1065    0.9591    0.0411 C   0  0  0  0  0  0  0  0  0  0  0  0
    0.0980   -0.4642   -0.0346 C   0  0  0  0  0  0  0  0  0  0  0  0
    3.4615    1.5070    0.0720 C   0  0  0  0  0  0  0  0  0  0  0  0
    0.9240    1.6878    0.0724 C   0  0  0  0  0  0  0  0  0  0  0  0
   -0.2548    0.8706    0.0359 C   0  0  0  0  0  0  0  0  0  0  0  0
   -0.8878   -1.5851   -0.1464 C   0  0  0  0  0  0  0  0  0  0  0  0
    3.6653    2.7251    0.1210 O   0  0  0  0  0  0  0  0  0  0  0  0
    4.5130    0.6142    0.0517 N   0  0  0  0  0  0  0  0  0  0  0  0
   -1.6904    1.3471    0.0632 C   0  0  0  0  0  0  0  0  0  0  0  0
   -2.2980   -1.0784    0.1959 C   0  0  0  0  0  0  0  0  0  0  0  0
    5.9018    1.0347    0.1149 C   0  0  0  0  0  0  0  0  0  0  0  0
   -2.5742    0.2540   -0.3528 N   0  0  0  0  0  0  0  0  0  0  0  0
    6.6854    0.5960   -1.0976 C   0  0  0  0  0  0  0  0  0  0  0  0
   -3.7508    0.5469   -1.0528 C   0  0  0  0  0  0  0  0  0  0  0  0
    6.2981    1.0185   -2.3706 C   0  0  0  0  0  0  0  0  0  0  0  0
    7.8447   -0.1844   -0.9837 C   0  0  0  0  0  0  0  0  0  0  0  0
   -4.2965    1.6459   -0.9452 O   0  0  0  0  0  0  0  0  0  0  0  0
   -4.1112   -0.4146   -2.1118 C   0  0  0  0  0  0  0  0  0  0  0  0
    7.0291    0.6331   -3.4963 C   0  0  0  0  0  0  0  0  0  0  0  0
    8.5799   -0.5588   -2.1229 C   0  0  0  0  0  0  0  0  0  0  0  0
   -3.0387   -1.1433   -2.5980 O   0  0  0  0  0  0  0  0  0  0  0  0
   -4.9656   -0.2192   -3.2080 C   0  0  0  0  0  0  0  0  0  0  0  0
    8.1727   -0.1765   -3.4039 C   0  0  0  0  0  0  0  0  0  0  0  0
   -2.8513   -0.6208   -3.8412 C   0  0  0  0  0  0  0  0  0  0  0  0
   -4.0168    0.0041   -4.2528 C   0  0  0  0  0  0  0  0  0  0  0  0
   -6.4163    0.0688   -3.2493 C   0  0  0  0  0  0  0  0  0  0  0  0
    8.8420   -0.5165   -4.5739 N   0  0  0  0  0  0  0  0  0  0  0  0
   -1.6424   -0.6136   -4.5161 C   0  0  0  0  0  0  0  0  0  0  0  0
   -3.9903    0.7254   -5.4642 C   0  0  0  0  0  0  0  0  0  0  0  0
   10.2639   -0.8972   -4.5679 C   0  0  0  0  0  0  0  0  0  0  0  0
    8.0573   -1.3166   -5.5383 C   0  0  0  0  0  0  0  0  0  0  0  0
   -1.6038    0.2083   -5.6410 C   0  0  0  0  0  0  0  0  0  0  0  0
   -2.7505    0.8691   -6.1024 C   0  0  0  0  0  0  0  0  0  0  0  0
   10.8357   -0.7343   -6.0041 C   0  0  0  0  0  0  0  0  0  0  0  0
    8.6466   -1.1314   -6.9531 C   0  0  0  0  0  0  0  0  0  0  0  0
   10.0791   -1.5021   -7.0249 N   0  3  0  0  0  0  0  0  0  0  0  0
   10.6001   -1.2370   -8.3647 C   0  0  0  0  0  0  0  0  0  0  0  0
    0.8962    2.7185    0.1175 H   0  0  0  0  0  0  0  0  0  0  0  0
   -0.6164   -2.3652    0.5338 H   0  0  0  0  0  0  0  0  0  0  0  0
   -0.8821   -1.9604   -1.1484 H   0  0  0  0  0  0  0  0  0  0  0  0
    4.3137   -0.3480   -0.0082 H   0  0  0  0  0  0  0  0  0  0  0  0
   -1.8050    2.1735   -0.6066 H   0  0  0  0  0  0  0  0  0  0  0  0
   -1.9458    1.6553    1.0555 H   0  0  0  0  0  0  0  0  0  0  0  0
   -2.3968   -1.0365    1.2605 H   0  0  0  0  0  0  0  0  0  0  0  0
   -2.9987   -1.7579   -0.2424 H   0  0  0  0  0  0  0  0  0  0  0  0
    6.3512    0.6096    0.9880 H   0  0  0  0  0  0  0  0  0  0  0  0
    5.9203    2.1040    0.1490 H   0  0  0  0  0  0  0  0  0  0  0  0
    5.4663    1.6195   -2.4804 H   0  0  0  0  0  0  0  0  0  0  0  0
    8.1632   -0.4885   -0.0503 H   0  0  0  0  0  0  0  0  0  0  0  0
    6.7187    0.9538   -4.4267 H   0  0  0  0  0  0  0  0  0  0  0  0
    9.4349   -1.1257   -2.0107 H   0  0  0  0  0  0  0  0  0  0  0  0
   -6.8613   -0.2062   -2.3160 H   0  0  0  0  0  0  0  0  0  0  0  0
   -6.8691   -0.4928   -4.0396 H   0  0  0  0  0  0  0  0  0  0  0  0
   -6.5676    1.1139   -3.4224 H   0  0  0  0  0  0  0  0  0  0  0  0
   -0.8318   -1.1740   -4.2095 H   0  0  0  0  0  0  0  0  0  0  0  0
   -4.8500    1.1316   -5.8652 H   0  0  0  0  0  0  0  0  0  0  0  0
   10.3615   -1.9160   -4.2560 H   0  0  0  0  0  0  0  0  0  0  0  0
   10.8039   -0.2699   -3.8898 H   0  0  0  0  0  0  0  0  0  0  0  0
    7.0387   -0.9889   -5.5296 H   0  0  0  0  0  0  0  0  0  0  0  0
    8.0995   -2.3502   -5.2649 H   0  0  0  0  0  0  0  0  0  0  0  0
   -0.7118    0.3331   -6.1449 H   0  0  0  0  0  0  0  0  0  0  0  0
   -2.6803    1.4771   -6.9334 H   0  0  0  0  0  0  0  0  0  0  0  0
   11.8506   -1.0733   -6.0067 H   0  0  0  0  0  0  0  0  0  0  0  0
   10.7574    0.3011   -6.2622 H   0  0  0  0  0  0  0  0  0  0  0  0
    8.5434   -0.1046   -7.2359 H   0  0  0  0  0  0  0  0  0  0  0  0
    8.1101   -1.7780   -7.6157 H   0  0  0  0  0  0  0  0  0  0  0  0
   10.1851   -2.4988   -6.8353 H   0  0  0  0  0  0  0  0  0  0  0  0
   10.4995   -0.1951   -8.5867 H   0  0  0  0  0  0  0  0  0  0  0  0
   10.0490   -1.8093   -9.0814 H   0  0  0  0  0  0  0  0  0  0  0  0
   11.6332   -1.5125   -8.4066 H   0  0  0  0  0  0  0  0  0  0  0  0
  1  2  1  0  0  0  0
  1  3  1  0  0  0  0
  2  4  1  0  0  0  0
  2  5  2  0  0  0  0
  3  6  2  0  0  0  0
  3  7  1  0  0  0  0
  4  8  2  0  0  0  0
  4  9  1  0  0  0  0
  5  6  1  0  0  0  0
  5 39  1  0  0  0  0
  6 10  1  0  0  0  0
  7 11  1  0  0  0  0
  7 40  1  0  0  0  0
  7 41  1  0  0  0  0
  9 12  1  0  0  0  0
  9 42  1  0  0  0  0
 10 13  1  0  0  0  0
 10 43  1  0  0  0  0
 10 44  1  0  0  0  0
 11 13  1  0  0  0  0
 11 45  1  0  0  0  0
 11 46  1  0  0  0  0
 12 14  1  0  0  0  0
 12 47  1  0  0  0  0
 12 48  1  0  0  0  0
 13 15  1  0  0  0  0
 14 16  2  0  0  0  0
 14 17  1  0  0  0  0
 15 18  2  0  0  0  0
 15 19  1  0  0  0  0
 16 20  1  0  0  0  0
 16 49  1  0  0  0  0
 17 21  2  0  0  0  0
 17 50  1  0  0  0  0
 19 22  1  0  0  0  0
 19 23  2  0  0  0  0
 20 24  2  0  0  0  0
 20 51  1  0  0  0  0
 21 24  1  0  0  0  0
 21 52  1  0  0  0  0
 22 25  1  0  0  0  0
 23 26  1  0  0  0  0
 23 27  1  0  0  0  0
 24 28  1  0  0  0  0
 25 29  2  0  0  0  0
 25 26  1  0  0  0  0
 26 30  2  0  0  0  0
 27 53  1  0  0  0  0
 27 54  1  0  0  0  0
 27 55  1  0  0  0  0
 28 31  1  0  0  0  0
 28 32  1  0  0  0  0
 29 33  1  0  0  0  0
 29 56  1  0  0  0  0
 30 34  1  0  0  0  0
 30 57  1  0  0  0  0
 31 35  1  0  0  0  0
 31 58  1  0  0  0  0
 31 59  1  0  0  0  0
 32 36  1  0  0  0  0
 32 60  1  0  0  0  0
 32 61  1  0  0  0  0
 33 34  2  0  0  0  0
 33 62  1  0  0  0  0
 34 63  1  0  0  0  0
 35 37  1  0  0  0  0
 35 64  1  0  0  0  0
 35 65  1  0  0  0  0
 36 37  1  0  0  0  0
 36 66  1  0  0  0  0
 36 67  1  0  0  0  0
 37 38  1  0  0  0  0
 37 68  1  0  0  0  0
 38 69  1  0  0  0  0
 38 70  1  0  0  0  0
 38 71  1  0  0  0  0
M  CHG  1  37   1
M  END
>  <Molecule Name>
CTX-1019758

>  <SMILES>
CN1CCN(CC1)C1=CC=C(CNC(=O)C2=CC3=C(CCN(C3)C(=O)C3=C(C)C4=C(O3)C=CC=C4)S2)C=C1

>  <Batch Name>
CTX-1019758-1

>  <Batch Created Date>
2021-09-09

>  <Batch ID>
CTX-1019758-1

>  <External ID>
S04-04-0004

>  <Stereochemistry>
Achiral

>  <Amount 1>
4.9

>  <Unit 1>
mg

>  <CRO 1>
Pharmaron

>  <CRO 1 Total Amount>
64.3

>  <CRO 1 Unit>
mg

>  <Pharmaron Solubility (PBS, pH 7.4): Aqueous Solubility - Batch Mean (uM)>
8.7519

>  <Pharmaron Solubility (PBS, pH 7.4): Aqueous Solubility - Batch Mean (uM) Standard Deviation (±)>


>  <Pharmaron Solubility (PBS, pH 7.4): Aqueous Solubility - Batch Mean (uM) Count>
1.0

>  <log P>
4.43

>  <log D>
3.79

>  <Pharmaron Caliper Assay (CDK2/CCNE1): Minimum measured (%)>
29.9

>  <Pharmaron Caliper Assay (CDK2/CCNE1): IC50 - Batch Mean (uM)>
0.791

>  <Pharmaron ADPGLO (CDK2/E1-25C): Minimum measured (%)>
36.4

>  <Pharmaron ADPGLO (CDK2/E1-25C): IC50 - Batch Mean (uM)>
1.41

>  <Pharmaron ADPGLO (CDK2/E1-37C): Minimum measured (%)>
98.3

>  <Pharmaron ADPGLO (CDK2/E1-37C): IC50 - Batch Mean (uM)>
10.0

>  <IncuCyte Kuramochi RB-WT: IC50 - Batch Mean (uM)>
6.96

>  <IncuCyte Kuramochi RB-KO: IC50 - Batch Mean (uM)>
7.13

>  <DSF (npCDK2/CCNE1): dTm D - Batch Mean [Concentration: 100]>


>  <DSF (npCDK2/CCNE1): dTm D - Batch Mean [Concentration: 20.0]>
3.025

>  <DSF (pCDK2/CCNE1): dTm D - Batch Mean [Concentration: 100]>


>  <DSF (pCDK2/CCNE1): dTm D - Batch Mean [Concentration: 20.0]>
2.416

>  <RLM: t1/2 - Batch Mean (Min)>


>  <RLM: Cl int - Batch Mean (uL/min/mg protein)>


>  <RLM: ER (Hepatic extraction ratio) - Batch Mean>


>  <HLM: t1/2 - Batch Mean (Min)>
15.16

>  <HLM: Cl int - Batch Mean (uL/min/mg protein)>
91.47

>  <HLM: ER (Hepatic extraction ratio) - Batch Mean>
0.8170000000000001

>  <MDCK-WT 4% BSA: Papp (A-B) - Batch Mean (10-6, cm/s)>
2.61

>  <MDCK-WT 4% BSA: Papp (B-A) - Batch Mean (10-6, cm/s)>
2.57

>  <MDCK-WT 4% BSA: Efflux Ratio - Batch Mean>
1.01

>  <MDCK-WT 4% BSA: ~Net A_B - Batch Mean (10-6, cm/s)>
2.5874

>  <pIC50>
6.101824

>  <Selection_1>
Y

>  <Selection_N>
N

>  <Serie>
Tetrahydrothienopyridine

>  <Selection_T>


>  <Train_Vs_Test>


$$$$
CTX-1019757
 OpenBabel08272613263D

 74 79  0  0  0  0  0  0  0  0999 V2000
    2.2298   -0.7193    1.0971 O   0  0  0  0  0  0  0  0  0  0  0  0
    2.2259   -0.0072    0.0891 C   0  0  0  0  0  0  0  0  0  0  0  0
    1.5783    1.2055    0.0314 N   0  0  0  0  0  0  0  0  0  0  0  0
    2.9650   -0.4430   -1.1352 C   0  0  0  0  0  0  0  0  0  0  0  0
    0.7769    1.6710    1.1384 C   0  0  0  0  0  0  0  0  0  0  0  0
    2.5994   -0.0413   -2.4334 C   0  0  0  0  0  0  0  0  0  0  0  0
    4.0531   -1.3155   -0.9698 C   0  0  0  0  0  0  0  0  0  0  0  0
    0.6924    3.1734    1.1814 C   0  0  0  0  0  0  0  0  0  0  0  0
    3.3415   -0.4713   -3.5472 C   0  0  0  0  0  0  0  0  0  0  0  0
    4.7943   -1.7475   -2.0728 C   0  0  0  0  0  0  0  0  0  0  0  0
   -0.2961    3.8488    0.4748 C   0  0  0  0  0  0  0  0  0  0  0  0
    1.6015    3.9196    1.9381 C   0  0  0  0  0  0  0  0  0  0  0  0
    4.4548   -1.3103   -3.3545 C   0  0  0  0  0  0  0  0  0  0  0  0
    2.9473   -0.1226   -4.9712 C   0  0  0  0  0  0  0  0  0  0  0  0
   -0.3978    5.2446    0.5608 C   0  0  0  0  0  0  0  0  0  0  0  0
    1.4871    5.3177    2.0228 C   0  0  0  0  0  0  0  0  0  0  0  0
    5.2400   -1.7132   -4.5779 C   0  0  0  0  0  0  0  0  0  0  0  0
    4.0954    0.0908   -5.8544 N   0  0  0  0  0  0  0  0  0  0  0  0
    0.4825    6.0137    1.3401 C   0  0  0  0  0  0  0  0  0  0  0  0
    5.3873   -0.4958   -5.4980 C   0  0  0  0  0  0  0  0  0  0  0  0
    3.8991    0.8054   -7.0403 C   0  0  0  0  0  0  0  0  0  0  0  0
    0.2910    7.3776    1.4560 N   0  0  0  0  0  0  0  0  0  0  0  0
    2.8033    0.7935   -7.6011 O   0  0  0  0  0  0  0  0  0  0  0  0
    4.9524    1.7647   -7.4153 C   0  0  0  0  0  0  0  0  0  0  0  0
    0.7952    8.1611    2.5945 C   0  0  0  0  0  0  0  0  0  0  0  0
    0.0606    8.1916    0.2505 C   0  0  0  0  0  0  0  0  0  0  0  0
    5.6438    2.3051   -6.3476 O   0  0  0  0  0  0  0  0  0  0  0  0
    4.8967    2.7607   -8.3957 C   0  0  0  0  0  0  0  0  0  0  0  0
   -0.1887    9.3268    2.8859 C   0  0  0  0  0  0  0  0  0  0  0  0
   -0.9265    9.3325    0.5844 C   0  0  0  0  0  0  0  0  0  0  0  0
    5.2676    3.6079   -6.3514 C   0  0  0  0  0  0  0  0  0  0  0  0
    4.7321    3.9320   -7.5920 C   0  0  0  0  0  0  0  0  0  0  0  0
    4.6475    2.6523   -9.8531 C   0  0  0  0  0  0  0  0  0  0  0  0
   -0.4513   10.1811    1.7017 N   0  3  0  0  0  0  0  0  0  0  0  0
    5.2783    4.4423   -5.2440 C   0  0  0  0  0  0  0  0  0  0  0  0
    4.1244    5.1875   -7.7517 C   0  0  0  0  0  0  0  0  0  0  0  0
   -1.4419   11.2085    2.0150 C   0  0  0  0  0  0  0  0  0  0  0  0
    4.5738    5.6385   -5.3897 C   0  0  0  0  0  0  0  0  0  0  0  0
    3.9961    5.9983   -6.6147 C   0  0  0  0  0  0  0  0  0  0  0  0
    1.6625    1.7631   -0.7756 H   0  0  0  0  0  0  0  0  0  0  0  0
    1.2137    1.3234    2.0512 H   0  0  0  0  0  0  0  0  0  0  0  0
   -0.2142    1.2879    1.0128 H   0  0  0  0  0  0  0  0  0  0  0  0
    1.7812    0.5729   -2.5686 H   0  0  0  0  0  0  0  0  0  0  0  0
    4.3077   -1.6409   -0.0241 H   0  0  0  0  0  0  0  0  0  0  0  0
    5.5919   -2.3889   -1.9401 H   0  0  0  0  0  0  0  0  0  0  0  0
   -0.9577    3.3207   -0.1155 H   0  0  0  0  0  0  0  0  0  0  0  0
    2.3644    3.4384    2.4396 H   0  0  0  0  0  0  0  0  0  0  0  0
    2.3626    0.7733   -4.9519 H   0  0  0  0  0  0  0  0  0  0  0  0
    2.3983   -0.9543   -5.3606 H   0  0  0  0  0  0  0  0  0  0  0  0
   -1.1448    5.7233    0.0337 H   0  0  0  0  0  0  0  0  0  0  0  0
    2.1597    5.8439    2.6022 H   0  0  0  0  0  0  0  0  0  0  0  0
    4.7227   -2.4939   -5.0955 H   0  0  0  0  0  0  0  0  0  0  0  0
    6.2073   -2.0665   -4.2873 H   0  0  0  0  0  0  0  0  0  0  0  0
    5.8859   -0.8003   -6.3944 H   0  0  0  0  0  0  0  0  0  0  0  0
    5.9493    0.2466   -4.9708 H   0  0  0  0  0  0  0  0  0  0  0  0
    1.7602    8.5579    2.3569 H   0  0  0  0  0  0  0  0  0  0  0  0
    0.8748    7.5329    3.4570 H   0  0  0  0  0  0  0  0  0  0  0  0
   -0.3520    7.5770   -0.5221 H   0  0  0  0  0  0  0  0  0  0  0  0
    0.9882    8.6072   -0.0836 H   0  0  0  0  0  0  0  0  0  0  0  0
    0.2274    9.9373    3.6599 H   0  0  0  0  0  0  0  0  0  0  0  0
   -1.1216    8.8900    3.1755 H   0  0  0  0  0  0  0  0  0  0  0  0
   -1.8686    8.9035    0.8553 H   0  0  0  0  0  0  0  0  0  0  0  0
   -1.0134    9.9532   -0.2828 H   0  0  0  0  0  0  0  0  0  0  0  0
    4.8566    1.6543  -10.1774 H   0  0  0  0  0  0  0  0  0  0  0  0
    5.2821    3.3374  -10.3754 H   0  0  0  0  0  0  0  0  0  0  0  0
    3.6239    2.8869  -10.0583 H   0  0  0  0  0  0  0  0  0  0  0  0
    0.4129   10.6497    1.4300 H   0  0  0  0  0  0  0  0  0  0  0  0
    5.7728    4.1959   -4.3723 H   0  0  0  0  0  0  0  0  0  0  0  0
    3.7841    5.5028   -8.6735 H   0  0  0  0  0  0  0  0  0  0  0  0
   -2.3605   10.7420    2.3039 H   0  0  0  0  0  0  0  0  0  0  0  0
   -1.6078   11.8190    1.1520 H   0  0  0  0  0  0  0  0  0  0  0  0
   -1.0827   11.8170    2.8186 H   0  0  0  0  0  0  0  0  0  0  0  0
    4.4765    6.2703   -4.5795 H   0  0  0  0  0  0  0  0  0  0  0  0
    3.4640    6.8800   -6.6816 H   0  0  0  0  0  0  0  0  0  0  0  0
  1  2  2  0  0  0  0
  2  3  1  0  0  0  0
  2  4  1  0  0  0  0
  3  5  1  0  0  0  0
  3 40  1  0  0  0  0
  4  6  2  0  0  0  0
  4  7  1  0  0  0  0
  5  8  1  0  0  0  0
  5 41  1  0  0  0  0
  5 42  1  0  0  0  0
  6  9  1  0  0  0  0
  6 43  1  0  0  0  0
  7 10  2  0  0  0  0
  7 44  1  0  0  0  0
  8 11  2  0  0  0  0
  8 12  1  0  0  0  0
  9 13  2  0  0  0  0
  9 14  1  0  0  0  0
 10 13  1  0  0  0  0
 10 45  1  0  0  0  0
 11 15  1  0  0  0  0
 11 46  1  0  0  0  0
 12 16  2  0  0  0  0
 12 47  1  0  0  0  0
 13 17  1  0  0  0  0
 14 18  1  0  0  0  0
 14 48  1  0  0  0  0
 14 49  1  0  0  0  0
 15 19  2  0  0  0  0
 15 50  1  0  0  0  0
 16 19  1  0  0  0  0
 16 51  1  0  0  0  0
 17 20  1  0  0  0  0
 17 52  1  0  0  0  0
 17 53  1  0  0  0  0
 18 21  1  0  0  0  0
 18 20  1  0  0  0  0
 19 22  1  0  0  0  0
 20 54  1  0  0  0  0
 20 55  1  0  0  0  0
 21 23  2  0  0  0  0
 21 24  1  0  0  0  0
 22 25  1  0  0  0  0
 22 26  1  0  0  0  0
 24 27  1  0  0  0  0
 24 28  2  0  0  0  0
 25 29  1  0  0  0  0
 25 56  1  0  0  0  0
 25 57  1  0  0  0  0
 26 30  1  0  0  0  0
 26 58  1  0  0  0  0
 26 59  1  0  0  0  0
 27 31  1  0  0  0  0
 28 32  1  0  0  0  0
 28 33  1  0  0  0  0
 29 34  1  0  0  0  0
 29 60  1  0  0  0  0
 29 61  1  0  0  0  0
 30 34  1  0  0  0  0
 30 62  1  0  0  0  0
 30 63  1  0  0  0  0
 31 35  2  0  0  0  0
 31 32  1  0  0  0  0
 32 36  2  0  0  0  0
 33 64  1  0  0  0  0
 33 65  1  0  0  0  0
 33 66  1  0  0  0  0
 34 37  1  0  0  0  0
 34 67  1  0  0  0  0
 35 38  1  0  0  0  0
 35 68  1  0  0  0  0
 36 39  1  0  0  0  0
 36 69  1  0  0  0  0
 37 70  1  0  0  0  0
 37 71  1  0  0  0  0
 37 72  1  0  0  0  0
 38 39  2  0  0  0  0
 38 73  1  0  0  0  0
 39 74  1  0  0  0  0
M  CHG  1  34   1
M  END
>  <Molecule Name>
CTX-1019757

>  <SMILES>
CN1CCN(CC1)C1=CC=C(CNC(=O)C2=CC3=C(CCN(C3)C(=O)C3=C(C)C4=C(O3)C=CC=C4)C=C2)C=C1

>  <Batch Name>
CTX-1019757-1

>  <Batch Created Date>
2021-09-09

>  <Batch ID>
CTX-1019757-1

>  <External ID>
S04-03-0002

>  <Stereochemistry>
Achiral

>  <Amount 1>
4.3

>  <Unit 1>
mg

>  <CRO 1>
Pharmaron

>  <CRO 1 Total Amount>
23.8

>  <CRO 1 Unit>
mg

>  <Pharmaron Solubility (PBS, pH 7.4): Aqueous Solubility - Batch Mean (uM)>
25.1286

>  <Pharmaron Solubility (PBS, pH 7.4): Aqueous Solubility - Batch Mean (uM) Standard Deviation (±)>


>  <Pharmaron Solubility (PBS, pH 7.4): Aqueous Solubility - Batch Mean (uM) Count>
1.0

>  <log P>
4.38

>  <log D>
3.75

>  <Pharmaron Caliper Assay (CDK2/CCNE1): Minimum measured (%)>
51.6

>  <Pharmaron Caliper Assay (CDK2/CCNE1): IC50 - Batch Mean (uM)>
4.42

>  <Pharmaron ADPGLO (CDK2/E1-25C): Minimum measured (%)>


>  <Pharmaron ADPGLO (CDK2/E1-25C): IC50 - Batch Mean (uM)>


>  <Pharmaron ADPGLO (CDK2/E1-37C): Minimum measured (%)>


>  <Pharmaron ADPGLO (CDK2/E1-37C): IC50 - Batch Mean (uM)>


>  <IncuCyte Kuramochi RB-WT: IC50 - Batch Mean (uM)>
8.43

>  <IncuCyte Kuramochi RB-KO: IC50 - Batch Mean (uM)>
7.23

>  <DSF (npCDK2/CCNE1): dTm D - Batch Mean [Concentration: 100]>


>  <DSF (npCDK2/CCNE1): dTm D - Batch Mean [Concentration: 20.0]>
1.197

>  <DSF (pCDK2/CCNE1): dTm D - Batch Mean [Concentration: 100]>


>  <DSF (pCDK2/CCNE1): dTm D - Batch Mean [Concentration: 20.0]>


>  <RLM: t1/2 - Batch Mean (Min)>


>  <RLM: Cl int - Batch Mean (uL/min/mg protein)>


>  <RLM: ER (Hepatic extraction ratio) - Batch Mean>


>  <HLM: t1/2 - Batch Mean (Min)>
9.88

>  <HLM: Cl int - Batch Mean (uL/min/mg protein)>
140.6

>  <HLM: ER (Hepatic extraction ratio) - Batch Mean>
0.873

>  <MDCK-WT 4% BSA: Papp (A-B) - Batch Mean (10-6, cm/s)>
2.73

>  <MDCK-WT 4% BSA: Papp (B-A) - Batch Mean (10-6, cm/s)>
3.72

>  <MDCK-WT 4% BSA: Efflux Ratio - Batch Mean>
1.36

>  <MDCK-WT 4% BSA: ~Net A_B - Batch Mean (10-6, cm/s)>
3.2277

>  <pIC50>
5.354578

>  <Selection_1>
Y

>  <Selection_N>
N

>  <Serie>
Other

>  <Selection_T>
N

>  <Train_Vs_Test>


$$$$
CTX-1019660
 OpenBabel08272613263D

 69 74  0  0  0  0  0  0  0  0999 V2000
    1.2141   -0.0078   -0.0869 O   0  0  0  0  0  0  0  0  0  0  0  0
    2.3843   -0.0569    0.0509 C   0  0  0  0  0  0  0  0  0  0  0  0
    3.1115    0.8841    0.8269 N   0  0  0  0  0  0  0  0  0  0  0  0
    3.2193   -1.1773   -0.6289 C   0  0  0  0  0  0  0  0  0  0  0  0
    2.4296    2.0130    1.4748 C   0  0  0  0  0  0  0  0  0  0  0  0
    4.5928   -1.2674   -0.4412 N   0  0  0  0  0  0  0  0  0  0  0  0
    2.4763   -2.1054   -1.3362 C   0  0  0  0  0  0  0  0  0  0  0  0
    2.9205    3.3749    0.9996 C   0  0  0  0  0  0  0  0  0  0  0  0
    5.2600   -2.4076   -0.9270 C   0  0  0  0  0  0  0  0  0  0  0  0
    3.1784   -3.1737   -1.9160 C   0  0  0  0  0  0  0  0  0  0  0  0
    2.2996    4.0186   -0.0711 C   0  0  0  0  0  0  0  0  0  0  0  0
    4.0287    4.0011    1.5890 C   0  0  0  0  0  0  0  0  0  0  0  0
    4.5851   -3.3320   -1.7309 C   0  0  0  0  0  0  0  0  0  0  0  0
    6.8175   -2.7017   -0.5731 C   0  0  0  0  0  0  0  0  0  0  0  0
    2.7734    5.2447   -0.5517 C   0  0  0  0  0  0  0  0  0  0  0  0
    4.5662    5.1708    1.0352 C   0  0  0  0  0  0  0  0  0  0  0  0
    5.3146   -4.5350   -2.3040 C   0  0  0  0  0  0  0  0  0  0  0  0
    7.3849   -4.2628   -0.7408 N   0  0  0  0  0  0  0  0  0  0  0  0
    3.9212    5.8427   -0.0227 C   0  0  0  0  0  0  0  0  0  0  0  0
    6.9048   -4.5622   -2.1812 C   0  0  0  0  0  0  0  0  0  0  0  0
    8.3400   -5.0492    0.4765 C   0  0  0  0  0  0  0  0  0  0  0  0
    4.3606    7.0649   -0.4818 N   0  0  0  0  0  0  0  0  0  0  0  0
    8.4274   -4.2875    1.4614 O   0  0  0  0  0  0  0  0  0  0  0  0
    9.4765   -6.4888    0.5798 C   0  0  0  0  0  0  0  0  0  0  0  0
    5.0876    7.9745    0.3976 C   0  0  0  0  0  0  0  0  0  0  0  0
    4.3602    7.4241   -1.9092 C   0  0  0  0  0  0  0  0  0  0  0  0
   10.7662   -7.5208    1.2132 C   0  0  0  0  0  0  0  0  0  0  0  0
   10.1524   -6.3949   -0.6060 C   0  0  0  0  0  0  0  0  0  0  0  0
    4.5845    9.4175    0.1826 C   0  0  0  0  0  0  0  0  0  0  0  0
    3.9059    8.8930   -2.0669 C   0  0  0  0  0  0  0  0  0  0  0  0
   10.9492   -8.1926   -0.0124 N   0  0  0  0  0  0  0  0  0  0  0  0
   12.0493   -8.3675    2.2093 C   0  0  0  0  0  0  0  0  0  0  0  0
   10.2840   -7.6194   -1.0424 N   0  0  0  0  0  0  0  0  0  0  0  0
    4.7169    9.8217   -1.2396 N   0  3  0  0  0  0  0  0  0  0  0  0
   11.9291   -9.1334   -0.2585 C   0  0  0  0  0  0  0  0  0  0  0  0
   13.2377   -9.1514    1.6752 N   0  0  0  0  0  0  0  0  0  0  0  0
    4.3020   11.2043   -1.4306 C   0  0  0  0  0  0  0  0  0  0  0  0
   13.1569   -9.1373    0.2839 C   0  0  0  0  0  0  0  0  0  0  0  0
    4.0846    0.7788    0.9322 H   0  0  0  0  0  0  0  0  0  0  0  0
    2.5903    1.9448    2.5305 H   0  0  0  0  0  0  0  0  0  0  0  0
    1.3936    1.9447    1.2162 H   0  0  0  0  0  0  0  0  0  0  0  0
    1.4527   -2.0164   -1.4333 H   0  0  0  0  0  0  0  0  0  0  0  0
    2.6654   -3.8611   -2.4898 H   0  0  0  0  0  0  0  0  0  0  0  0
    1.4768    3.5831   -0.5164 H   0  0  0  0  0  0  0  0  0  0  0  0
    4.4523    3.5965    2.4387 H   0  0  0  0  0  0  0  0  0  0  0  0
    6.9700   -2.4168    0.4469 H   0  0  0  0  0  0  0  0  0  0  0  0
    7.3648   -2.1416   -1.3022 H   0  0  0  0  0  0  0  0  0  0  0  0
    2.2640    5.7183   -1.3141 H   0  0  0  0  0  0  0  0  0  0  0  0
    5.4512    5.5475    1.4090 H   0  0  0  0  0  0  0  0  0  0  0  0
    5.0730   -4.5898   -3.3449 H   0  0  0  0  0  0  0  0  0  0  0  0
    4.9823   -5.3617   -1.7115 H   0  0  0  0  0  0  0  0  0  0  0  0
    7.3140   -3.8258   -2.8409 H   0  0  0  0  0  0  0  0  0  0  0  0
    7.2376   -5.5454   -2.4408 H   0  0  0  0  0  0  0  0  0  0  0  0
    6.1330    7.9253    0.1747 H   0  0  0  0  0  0  0  0  0  0  0  0
    4.9240    7.6898    1.4160 H   0  0  0  0  0  0  0  0  0  0  0  0
    3.6868    6.7830   -2.4388 H   0  0  0  0  0  0  0  0  0  0  0  0
    5.3467    7.3096   -2.3076 H   0  0  0  0  0  0  0  0  0  0  0  0
   10.4894   -5.5329   -1.0626 H   0  0  0  0  0  0  0  0  0  0  0  0
    5.1610   10.0831    0.7905 H   0  0  0  0  0  0  0  0  0  0  0  0
    3.5505    9.4617    0.4543 H   0  0  0  0  0  0  0  0  0  0  0  0
    2.8813    8.9709   -1.7687 H   0  0  0  0  0  0  0  0  0  0  0  0
    4.0344    9.1688   -3.0928 H   0  0  0  0  0  0  0  0  0  0  0  0
   11.9563   -8.3064    3.2353 H   0  0  0  0  0  0  0  0  0  0  0  0
    5.6944    9.7667   -1.5260 H   0  0  0  0  0  0  0  0  0  0  0  0
   11.6986   -9.8968   -0.9136 H   0  0  0  0  0  0  0  0  0  0  0  0
    3.2773   11.3122   -1.1420 H   0  0  0  0  0  0  0  0  0  0  0  0
    4.4122   11.4706   -2.4611 H   0  0  0  0  0  0  0  0  0  0  0  0
    4.9115   11.8459   -0.8292 H   0  0  0  0  0  0  0  0  0  0  0  0
   14.0049   -9.1302   -0.3042 H   0  0  0  0  0  0  0  0  0  0  0  0
  1  2  2  0  0  0  0
  2  3  1  0  0  0  0
  2  4  1  0  0  0  0
  3  5  1  0  0  0  0
  3 39  1  0  0  0  0
  4  6  2  0  0  0  0
  4  7  1  0  0  0  0
  5  8  1  0  0  0  0
  5 40  1  0  0  0  0
  5 41  1  0  0  0  0
  6  9  1  0  0  0  0
  7 10  2  0  0  0  0
  7 42  1  0  0  0  0
  8 11  2  0  0  0  0
  8 12  1  0  0  0  0
  9 13  2  0  0  0  0
  9 14  1  0  0  0  0
 10 13  1  0  0  0  0
 10 43  1  0  0  0  0
 11 15  1  0  0  0  0
 11 44  1  0  0  0  0
 12 16  2  0  0  0  0
 12 45  1  0  0  0  0
 13 17  1  0  0  0  0
 14 18  1  0  0  0  0
 14 46  1  0  0  0  0
 14 47  1  0  0  0  0
 15 19  2  0  0  0  0
 15 48  1  0  0  0  0
 16 19  1  0  0  0  0
 16 49  1  0  0  0  0
 17 20  1  0  0  0  0
 17 50  1  0  0  0  0
 17 51  1  0  0  0  0
 18 21  1  0  0  0  0
 18 20  1  0  0  0  0
 19 22  1  0  0  0  0
 20 52  1  0  0  0  0
 20 53  1  0  0  0  0
 21 23  2  0  0  0  0
 21 24  1  0  0  0  0
 22 25  1  0  0  0  0
 22 26  1  0  0  0  0
 24 27  2  0  0  0  0
 24 28  1  0  0  0  0
 25 29  1  0  0  0  0
 25 54  1  0  0  0  0
 25 55  1  0  0  0  0
 26 30  1  0  0  0  0
 26 56  1  0  0  0  0
 26 57  1  0  0  0  0
 27 31  1  0  0  0  0
 27 32  1  0  0  0  0
 28 33  2  0  0  0  0
 28 58  1  0  0  0  0
 29 34  1  0  0  0  0
 29 59  1  0  0  0  0
 29 60  1  0  0  0  0
 30 34  1  0  0  0  0
 30 61  1  0  0  0  0
 30 62  1  0  0  0  0
 31 35  1  0  0  0  0
 31 33  1  0  0  0  0
 32 36  2  0  0  0  0
 32 63  1  0  0  0  0
 34 37  1  0  0  0  0
 34 64  1  0  0  0  0
 35 38  2  0  0  0  0
 35 65  1  0  0  0  0
 36 38  1  0  0  0  0
 37 66  1  0  0  0  0
 37 67  1  0  0  0  0
 37 68  1  0  0  0  0
 38 69  1  0  0  0  0
M  CHG  1  34   1
M  END
>  <Molecule Name>
CTX-1019660

>  <SMILES>
CN1CCN(CC1)C1=CC=C(CNC(=O)C2=NC3=C(CCN(C3)C(=O)C3=C4C=NC=CN4N=C3)C=C2)C=C1

>  <Batch Name>
CTX-1019660-1

>  <Batch Created Date>
2021-08-19

>  <Batch ID>
CTX-1019660-1

>  <External ID>
P841-0126

>  <Stereochemistry>
Achiral

>  <Amount 1>
2.45

>  <Unit 1>
mg

>  <CRO 1>
Pharmaron

>  <CRO 1 Total Amount>
10.8

>  <CRO 1 Unit>
mg

>  <Pharmaron Solubility (PBS, pH 7.4): Aqueous Solubility - Batch Mean (uM)>
273.0

>  <Pharmaron Solubility (PBS, pH 7.4): Aqueous Solubility - Batch Mean (uM) Standard Deviation (±)>


>  <Pharmaron Solubility (PBS, pH 7.4): Aqueous Solubility - Batch Mean (uM) Count>
1.0

>  <log P>
1.35

>  <log D>
0.72

>  <Pharmaron Caliper Assay (CDK2/CCNE1): Minimum measured (%)>
23.0

>  <Pharmaron Caliper Assay (CDK2/CCNE1): IC50 - Batch Mean (uM)>
7.75

>  <Pharmaron ADPGLO (CDK2/E1-25C): Minimum measured (%)>
81.4

>  <Pharmaron ADPGLO (CDK2/E1-25C): IC50 - Batch Mean (uM)>
5.23

>  <Pharmaron ADPGLO (CDK2/E1-37C): Minimum measured (%)>
101.0

>  <Pharmaron ADPGLO (CDK2/E1-37C): IC50 - Batch Mean (uM)>
10.0

>  <IncuCyte Kuramochi RB-WT: IC50 - Batch Mean (uM)>
20.0

>  <IncuCyte Kuramochi RB-KO: IC50 - Batch Mean (uM)>
20.0

>  <DSF (npCDK2/CCNE1): dTm D - Batch Mean [Concentration: 100]>
-0.22399999999999998

>  <DSF (npCDK2/CCNE1): dTm D - Batch Mean [Concentration: 20.0]>
0.017

>  <DSF (pCDK2/CCNE1): dTm D - Batch Mean [Concentration: 100]>


>  <DSF (pCDK2/CCNE1): dTm D - Batch Mean [Concentration: 20.0]>


>  <RLM: t1/2 - Batch Mean (Min)>


>  <RLM: Cl int - Batch Mean (uL/min/mg protein)>


>  <RLM: ER (Hepatic extraction ratio) - Batch Mean>


>  <HLM: t1/2 - Batch Mean (Min)>


>  <HLM: Cl int - Batch Mean (uL/min/mg protein)>


>  <HLM: ER (Hepatic extraction ratio) - Batch Mean>


>  <MDCK-WT 4% BSA: Papp (A-B) - Batch Mean (10-6, cm/s)>


>  <MDCK-WT 4% BSA: Papp (B-A) - Batch Mean (10-6, cm/s)>


>  <MDCK-WT 4% BSA: Efflux Ratio - Batch Mean>


>  <MDCK-WT 4% BSA: ~Net A_B - Batch Mean (10-6, cm/s)>


>  <pIC50>
5.110698

>  <Selection_1>
Y

>  <Selection_N>


>  <Serie>
Naphthyridine

>  <Selection_T>
N

>  <Train_Vs_Test>


$$$$
CTX-1019630
 OpenBabel08272613263D

 68 72  0  0  0  0  0  0  0  0999 V2000
    1.1549   -0.1865   -0.1014 O   0  0  0  0  0  0  0  0  0  0  0  0
    2.3642   -0.0261    0.0067 C   0  0  0  0  0  0  0  0  0  0  0  0
    3.0650    0.9314   -0.6892 N   0  0  0  0  0  0  0  0  0  0  0  0
    3.1734   -0.9111    0.9085 C   0  0  0  0  0  0  0  0  0  0  0  0
    2.4124    1.8158   -1.6280 C   0  0  0  0  0  0  0  0  0  0  0  0
    4.5128   -0.6591    1.0400 N   0  0  0  0  0  0  0  0  0  0  0  0
    2.5144   -1.9545    1.5393 C   0  0  0  0  0  0  0  0  0  0  0  0
    2.9575    1.6588   -3.0228 C   0  0  0  0  0  0  0  0  0  0  0  0
    5.2168   -1.5000    1.8510 C   0  0  0  0  0  0  0  0  0  0  0  0
    3.2466   -2.8187    2.3332 C   0  0  0  0  0  0  0  0  0  0  0  0
    2.8983    0.4251   -3.6765 C   0  0  0  0  0  0  0  0  0  0  0  0
    3.4868    2.7525   -3.7152 C   0  0  0  0  0  0  0  0  0  0  0  0
    4.6183   -2.6122    2.4714 C   0  0  0  0  0  0  0  0  0  0  0  0
    6.7117   -1.2332    2.0366 C   0  0  0  0  0  0  0  0  0  0  0  0
    3.3935    0.2884   -4.9761 C   0  0  0  0  0  0  0  0  0  0  0  0
    3.9750    2.6056   -5.0216 C   0  0  0  0  0  0  0  0  0  0  0  0
    5.4102   -3.5631    3.3193 C   0  0  0  0  0  0  0  0  0  0  0  0
    7.3408   -2.0993    3.0498 N   0  0  0  0  0  0  0  0  0  0  0  0
    3.9511    1.3689   -5.6759 C   0  0  0  0  0  0  0  0  0  0  0  0
    6.8910   -3.4862    2.9920 C   0  0  0  0  0  0  0  0  0  0  0  0
    8.0871   -1.5138    4.0815 C   0  0  0  0  0  0  0  0  0  0  0  0
    4.3783    1.1873   -6.9791 N   0  0  0  0  0  0  0  0  0  0  0  0
    8.2167   -0.2943    4.1300 O   0  0  0  0  0  0  0  0  0  0  0  0
    8.7091   -2.3747    5.0900 C   0  0  0  0  0  0  0  0  0  0  0  0
    4.4412    2.3014   -7.9338 C   0  0  0  0  0  0  0  0  0  0  0  0
    5.3661    0.1280   -7.2582 C   0  0  0  0  0  0  0  0  0  0  0  0
    8.9011   -2.0383    6.4229 N   0  0  0  0  0  0  0  0  0  0  0  0
    9.3125   -3.6212    4.9400 C   0  0  0  0  0  0  0  0  0  0  0  0
    4.2381    1.7408   -9.3634 C   0  0  0  0  0  0  0  0  0  0  0  0
    5.1637   -0.3911   -8.7017 C   0  0  0  0  0  0  0  0  0  0  0  0
    9.5412   -3.0614    7.0853 C   0  0  0  0  0  0  0  0  0  0  0  0
    8.4850   -0.8321    7.1085 C   0  0  0  0  0  0  0  0  0  0  0  0
    9.7585   -4.0812    6.1960 C   0  0  0  0  0  0  0  0  0  0  0  0
    5.2275    0.6925   -9.7124 N   0  3  0  0  0  0  0  0  0  0  0  0
    4.9636    0.1642  -11.0481 C   0  0  0  0  0  0  0  0  0  0  0  0
    4.0350    1.0164   -0.5442 H   0  0  0  0  0  0  0  0  0  0  0  0
    2.5609    2.8269   -1.3108 H   0  0  0  0  0  0  0  0  0  0  0  0
    1.3722    1.5660   -1.6493 H   0  0  0  0  0  0  0  0  0  0  0  0
    1.4976   -2.0841    1.4190 H   0  0  0  0  0  0  0  0  0  0  0  0
    2.7842   -3.6048    2.8162 H   0  0  0  0  0  0  0  0  0  0  0  0
    2.4863   -0.3903   -3.1964 H   0  0  0  0  0  0  0  0  0  0  0  0
    3.5186    3.6779   -3.2596 H   0  0  0  0  0  0  0  0  0  0  0  0
    6.8394   -0.2138    2.3357 H   0  0  0  0  0  0  0  0  0  0  0  0
    7.1881   -1.4439    1.1019 H   0  0  0  0  0  0  0  0  0  0  0  0
    3.3477   -0.6349   -5.4348 H   0  0  0  0  0  0  0  0  0  0  0  0
    4.3605    3.4280   -5.5115 H   0  0  0  0  0  0  0  0  0  0  0  0
    5.0646   -4.5601    3.1418 H   0  0  0  0  0  0  0  0  0  0  0  0
    5.2753   -3.2949    4.3464 H   0  0  0  0  0  0  0  0  0  0  0  0
    7.0574   -3.8725    2.0082 H   0  0  0  0  0  0  0  0  0  0  0  0
    7.4400   -4.0647    3.7053 H   0  0  0  0  0  0  0  0  0  0  0  0
    5.3958    2.7799   -7.8667 H   0  0  0  0  0  0  0  0  0  0  0  0
    3.6777    3.0170   -7.7104 H   0  0  0  0  0  0  0  0  0  0  0  0
    5.2320   -0.6773   -6.5665 H   0  0  0  0  0  0  0  0  0  0  0  0
    6.3551    0.5231   -7.1543 H   0  0  0  0  0  0  0  0  0  0  0  0
    9.4168   -4.1293    4.0479 H   0  0  0  0  0  0  0  0  0  0  0  0
    4.3304    2.5452  -10.0630 H   0  0  0  0  0  0  0  0  0  0  0  0
    3.2666    1.2939   -9.4007 H   0  0  0  0  0  0  0  0  0  0  0  0
    4.2053   -0.8626   -8.7650 H   0  0  0  0  0  0  0  0  0  0  0  0
    5.9566   -1.0779   -8.9130 H   0  0  0  0  0  0  0  0  0  0  0  0
    9.8113   -3.0606    8.0813 H   0  0  0  0  0  0  0  0  0  0  0  0
    8.0101   -0.1722    6.4129 H   0  0  0  0  0  0  0  0  0  0  0  0
    9.3410   -0.3488    7.5313 H   0  0  0  0  0  0  0  0  0  0  0  0
    7.7966   -1.0842    7.8879 H   0  0  0  0  0  0  0  0  0  0  0  0
   10.1684   -5.0050    6.4047 H   0  0  0  0  0  0  0  0  0  0  0  0
    6.1636    1.0976   -9.7146 H   0  0  0  0  0  0  0  0  0  0  0  0
    3.9851   -0.2679  -11.0738 H   0  0  0  0  0  0  0  0  0  0  0  0
    5.6904   -0.5843  -11.2856 H   0  0  0  0  0  0  0  0  0  0  0  0
    5.0220    0.9578  -11.7634 H   0  0  0  0  0  0  0  0  0  0  0  0
  1  2  2  0  0  0  0
  2  3  1  0  0  0  0
  2  4  1  0  0  0  0
  3  5  1  0  0  0  0
  3 36  1  0  0  0  0
  4  6  2  0  0  0  0
  4  7  1  0  0  0  0
  5  8  1  0  0  0  0
  5 37  1  0  0  0  0
  5 38  1  0  0  0  0
  6  9  1  0  0  0  0
  7 10  2  0  0  0  0
  7 39  1  0  0  0  0
  8 11  2  0  0  0  0
  8 12  1  0  0  0  0
  9 13  2  0  0  0  0
  9 14  1  0  0  0  0
 10 13  1  0  0  0  0
 10 40  1  0  0  0  0
 11 15  1  0  0  0  0
 11 41  1  0  0  0  0
 12 16  2  0  0  0  0
 12 42  1  0  0  0  0
 13 17  1  0  0  0  0
 14 18  1  0  0  0  0
 14 43  1  0  0  0  0
 14 44  1  0  0  0  0
 15 19  2  0  0  0  0
 15 45  1  0  0  0  0
 16 19  1  0  0  0  0
 16 46  1  0  0  0  0
 17 20  1  0  0  0  0
 17 47  1  0  0  0  0
 17 48  1  0  0  0  0
 18 21  1  0  0  0  0
 18 20  1  0  0  0  0
 19 22  1  0  0  0  0
 20 49  1  0  0  0  0
 20 50  1  0  0  0  0
 21 23  2  0  0  0  0
 21 24  1  0  0  0  0
 22 25  1  0  0  0  0
 22 26  1  0  0  0  0
 24 27  1  0  0  0  0
 24 28  2  0  0  0  0
 25 29  1  0  0  0  0
 25 51  1  0  0  0  0
 25 52  1  0  0  0  0
 26 30  1  0  0  0  0
 26 53  1  0  0  0  0
 26 54  1  0  0  0  0
 27 31  1  0  0  0  0
 27 32  1  0  0  0  0
 28 33  1  0  0  0  0
 28 55  1  0  0  0  0
 29 34  1  0  0  0  0
 29 56  1  0  0  0  0
 29 57  1  0  0  0  0
 30 34  1  0  0  0  0
 30 58  1  0  0  0  0
 30 59  1  0  0  0  0
 31 33  2  0  0  0  0
 31 60  1  0  0  0  0
 32 61  1  0  0  0  0
 32 62  1  0  0  0  0
 32 63  1  0  0  0  0
 33 64  1  0  0  0  0
 34 35  1  0  0  0  0
 34 65  1  0  0  0  0
 35 66  1  0  0  0  0
 35 67  1  0  0  0  0
 35 68  1  0  0  0  0
M  CHG  1  34   1
M  END
>  <Molecule Name>
CTX-1019630

>  <SMILES>
CN1C=CC=C1C(=O)N1CCC2=C(C1)N=C(C=C2)C(=O)NCC1=CC=C(C=C1)N1CCN(C)CC1

>  <Batch Name>
CTX-1019630-1

>  <Batch Created Date>
2021-08-19

>  <Batch ID>
CTX-1019630-1

>  <External ID>
P841-0145

>  <Stereochemistry>
Achiral

>  <Amount 1>
4.4

>  <Unit 1>
mg

>  <CRO 1>
Pharmaron

>  <CRO 1 Total Amount>
15.27

>  <CRO 1 Unit>
mg

>  <Pharmaron Solubility (PBS, pH 7.4): Aqueous Solubility - Batch Mean (uM)>
262.14

>  <Pharmaron Solubility (PBS, pH 7.4): Aqueous Solubility - Batch Mean (uM) Standard Deviation (±)>


>  <Pharmaron Solubility (PBS, pH 7.4): Aqueous Solubility - Batch Mean (uM) Count>
1.0

>  <log P>
2.26

>  <log D>
1.63

>  <Pharmaron Caliper Assay (CDK2/CCNE1): Minimum measured (%)>
70.2

>  <Pharmaron Caliper Assay (CDK2/CCNE1): IC50 - Batch Mean (uM)>
8.8

>  <Pharmaron ADPGLO (CDK2/E1-25C): Minimum measured (%)>


>  <Pharmaron ADPGLO (CDK2/E1-25C): IC50 - Batch Mean (uM)>


>  <Pharmaron ADPGLO (CDK2/E1-37C): Minimum measured (%)>


>  <Pharmaron ADPGLO (CDK2/E1-37C): IC50 - Batch Mean (uM)>


>  <IncuCyte Kuramochi RB-WT: IC50 - Batch Mean (uM)>
20.0

>  <IncuCyte Kuramochi RB-KO: IC50 - Batch Mean (uM)>
20.0

>  <DSF (npCDK2/CCNE1): dTm D - Batch Mean [Concentration: 100]>
0.129

>  <DSF (npCDK2/CCNE1): dTm D - Batch Mean [Concentration: 20.0]>


>  <DSF (pCDK2/CCNE1): dTm D - Batch Mean [Concentration: 100]>


>  <DSF (pCDK2/CCNE1): dTm D - Batch Mean [Concentration: 20.0]>


>  <RLM: t1/2 - Batch Mean (Min)>


>  <RLM: Cl int - Batch Mean (uL/min/mg protein)>


>  <RLM: ER (Hepatic extraction ratio) - Batch Mean>


>  <HLM: t1/2 - Batch Mean (Min)>


>  <HLM: Cl int - Batch Mean (uL/min/mg protein)>


>  <HLM: ER (Hepatic extraction ratio) - Batch Mean>


>  <MDCK-WT 4% BSA: Papp (A-B) - Batch Mean (10-6, cm/s)>


>  <MDCK-WT 4% BSA: Papp (B-A) - Batch Mean (10-6, cm/s)>


>  <MDCK-WT 4% BSA: Efflux Ratio - Batch Mean>


>  <MDCK-WT 4% BSA: ~Net A_B - Batch Mean (10-6, cm/s)>


>  <pIC50>
5.055517

>  <Selection_1>
Y

>  <Selection_N>


>  <Serie>
Naphthyridine

>  <Selection_T>
N

>  <Train_Vs_Test>


$$$$
CTX-1019613
 OpenBabel08272613263D

 73 78  0  0  0  0  0  0  0  0999 V2000
    3.1809   -2.5777   -0.0968 S   0  0  0  0  0  0  0  0  0  0  0  0
    4.8694   -2.0324    0.0339 C   0  0  0  0  0  0  0  0  0  0  0  0
    3.5208   -4.2357   -0.1323 C   0  0  0  0  0  0  0  0  0  0  0  0
    5.6679   -3.1815    0.0634 C   0  0  0  0  0  0  0  0  0  0  0  0
    4.9365   -0.5320    0.0662 C   0  0  0  0  0  0  0  0  0  0  0  0
    4.8872   -4.4540   -0.0400 C   0  0  0  0  0  0  0  0  0  0  0  0
    2.5836   -5.2924   -0.2380 C   0  0  0  0  0  0  0  0  0  0  0  0
    7.1465   -3.2716    0.1851 C   0  0  0  0  0  0  0  0  0  0  0  0
    3.8301    0.0451    0.0458 O   0  0  0  0  0  0  0  0  0  0  0  0
    6.0457    0.4091    0.0898 N   0  0  0  0  0  0  0  0  0  0  0  0
    5.3076   -5.8144   -0.0563 C   0  0  0  0  0  0  0  0  0  0  0  0
    3.0307   -6.6126   -0.2526 C   0  0  0  0  0  0  0  0  0  0  0  0
    7.5317    0.2291    0.1932 C   0  0  0  0  0  0  0  0  0  0  0  0
    5.5313    1.7700   -0.1227 C   0  0  0  0  0  0  0  0  0  0  0  0
    4.3870   -6.8750   -0.1619 C   0  0  0  0  0  0  0  0  0  0  0  0
    8.4557    1.5019    0.1876 C   0  0  0  0  0  0  0  0  0  0  0  0
    6.4173    2.9895   -0.0523 C   0  0  0  0  0  0  0  0  0  0  0  0
    9.8365    1.3807    0.3188 N   0  0  0  0  0  0  0  0  0  0  0  0
    7.8737    2.7627    0.0504 C   0  0  0  0  0  0  0  0  0  0  0  0
   10.5824    2.5533    0.3239 C   0  0  0  0  0  0  0  0  0  0  0  0
    8.6693    3.9160    0.0426 C   0  0  0  0  0  0  0  0  0  0  0  0
   12.0955    2.5893    0.4905 C   0  0  0  0  0  0  0  0  0  0  0  0
   10.0299    3.8182    0.1865 C   0  0  0  0  0  0  0  0  0  0  0  0
   12.6666    3.6681    0.6160 O   0  0  0  0  0  0  0  0  0  0  0  0
   12.8081    1.4141    0.4632 N   0  0  0  0  0  0  0  0  0  0  0  0
   14.2658    1.4522    0.4746 C   0  0  0  0  0  0  0  0  0  0  0  0
   14.8419    0.2470    1.1592 C   0  0  0  0  0  0  0  0  0  0  0  0
   15.6358   -0.6756    0.4798 C   0  0  0  0  0  0  0  0  0  0  0  0
   14.5667    0.0207    2.5069 C   0  0  0  0  0  0  0  0  0  0  0  0
   16.0422   -1.8591    1.1131 C   0  0  0  0  0  0  0  0  0  0  0  0
   14.9936   -1.1545    3.1316 C   0  0  0  0  0  0  0  0  0  0  0  0
   15.6991   -2.1529    2.4432 C   0  0  0  0  0  0  0  0  0  0  0  0
   15.9582   -3.3938    3.0025 N   0  0  0  0  0  0  0  0  0  0  0  0
   17.1899   -4.1436    2.6909 C   0  0  0  0  0  0  0  0  0  0  0  0
   15.3408   -3.8050    4.2773 C   0  0  0  0  0  0  0  0  0  0  0  0
   16.9072   -5.6665    2.7328 C   0  0  0  0  0  0  0  0  0  0  0  0
   15.0963   -5.3309    4.2787 C   0  0  0  0  0  0  0  0  0  0  0  0
   16.3315   -6.1025    4.0256 N   0  3  0  0  0  0  0  0  0  0  0  0
   16.0474   -7.5341    4.0153 C   0  0  0  0  0  0  0  0  0  0  0  0
    1.5746   -5.0859   -0.3040 H   0  0  0  0  0  0  0  0  0  0  0  0
    7.5597   -2.2866    0.2491 H   0  0  0  0  0  0  0  0  0  0  0  0
    7.5453   -3.7706   -0.6733 H   0  0  0  0  0  0  0  0  0  0  0  0
    7.3989   -3.8222    1.0671 H   0  0  0  0  0  0  0  0  0  0  0  0
    6.3148   -6.0292    0.0110 H   0  0  0  0  0  0  0  0  0  0  0  0
    2.3554   -7.3890   -0.3306 H   0  0  0  0  0  0  0  0  0  0  0  0
    7.8321   -0.3801   -0.6336 H   0  0  0  0  0  0  0  0  0  0  0  0
    7.6728   -0.1864    1.1690 H   0  0  0  0  0  0  0  0  0  0  0  0
    4.7650    1.9163    0.6096 H   0  0  0  0  0  0  0  0  0  0  0  0
    5.2696    1.7473   -1.1599 H   0  0  0  0  0  0  0  0  0  0  0  0
    4.7243   -7.8502   -0.1716 H   0  0  0  0  0  0  0  0  0  0  0  0
    6.1187    3.5550    0.8056 H   0  0  0  0  0  0  0  0  0  0  0  0
    6.2813    3.4830   -0.9919 H   0  0  0  0  0  0  0  0  0  0  0  0
    8.2299    4.8427   -0.0718 H   0  0  0  0  0  0  0  0  0  0  0  0
   10.6252    4.6611    0.1923 H   0  0  0  0  0  0  0  0  0  0  0  0
   12.3364    0.5503    0.4362 H   0  0  0  0  0  0  0  0  0  0  0  0
   14.5867    2.3324    0.9916 H   0  0  0  0  0  0  0  0  0  0  0  0
   14.6096    1.4594   -0.5387 H   0  0  0  0  0  0  0  0  0  0  0  0
   15.9256   -0.4871   -0.4926 H   0  0  0  0  0  0  0  0  0  0  0  0
   14.0434    0.7268    3.0479 H   0  0  0  0  0  0  0  0  0  0  0  0
   16.6127   -2.5371    0.5839 H   0  0  0  0  0  0  0  0  0  0  0  0
   14.7828   -1.2925    4.1324 H   0  0  0  0  0  0  0  0  0  0  0  0
   17.9432   -3.9029    3.4116 H   0  0  0  0  0  0  0  0  0  0  0  0
   17.5265   -3.8753    1.7113 H   0  0  0  0  0  0  0  0  0  0  0  0
   14.4072   -3.2966    4.3990 H   0  0  0  0  0  0  0  0  0  0  0  0
   15.9986   -3.5541    5.0830 H   0  0  0  0  0  0  0  0  0  0  0  0
   17.8263   -6.1904    2.5727 H   0  0  0  0  0  0  0  0  0  0  0  0
   16.1908   -5.8847    1.9685 H   0  0  0  0  0  0  0  0  0  0  0  0
   14.3833   -5.5648    3.5160 H   0  0  0  0  0  0  0  0  0  0  0  0
   14.7372   -5.6016    5.2496 H   0  0  0  0  0  0  0  0  0  0  0  0
   17.0060   -5.9297    4.7709 H   0  0  0  0  0  0  0  0  0  0  0  0
   15.3404   -7.7519    3.2423 H   0  0  0  0  0  0  0  0  0  0  0  0
   15.6414   -7.8239    4.9619 H   0  0  0  0  0  0  0  0  0  0  0  0
   16.9521   -8.0760    3.8342 H   0  0  0  0  0  0  0  0  0  0  0  0
  1  2  1  0  0  0  0
  1  3  1  0  0  0  0
  2  4  2  0  0  0  0
  2  5  1  0  0  0  0
  3  6  2  0  0  0  0
  3  7  1  0  0  0  0
  4  8  1  0  0  0  0
  4  6  1  0  0  0  0
  5  9  2  0  0  0  0
  5 10  1  0  0  0  0
  6 11  1  0  0  0  0
  7 12  2  0  0  0  0
  7 40  1  0  0  0  0
  8 41  1  0  0  0  0
  8 42  1  0  0  0  0
  8 43  1  0  0  0  0
 10 13  1  0  0  0  0
 10 14  1  0  0  0  0
 11 15  2  0  0  0  0
 11 44  1  0  0  0  0
 12 15  1  0  0  0  0
 12 45  1  0  0  0  0
 13 16  1  0  0  0  0
 13 46  1  0  0  0  0
 13 47  1  0  0  0  0
 14 17  1  0  0  0  0
 14 48  1  0  0  0  0
 14 49  1  0  0  0  0
 15 50  1  0  0  0  0
 16 18  2  0  0  0  0
 16 19  1  0  0  0  0
 17 19  1  0  0  0  0
 17 51  1  0  0  0  0
 17 52  1  0  0  0  0
 18 20  1  0  0  0  0
 19 21  2  0  0  0  0
 20 22  1  0  0  0  0
 20 23  2  0  0  0  0
 21 23  1  0  0  0  0
 21 53  1  0  0  0  0
 22 24  2  0  0  0  0
 22 25  1  0  0  0  0
 23 54  1  0  0  0  0
 25 26  1  0  0  0  0
 25 55  1  0  0  0  0
 26 27  1  0  0  0  0
 26 56  1  0  0  0  0
 26 57  1  0  0  0  0
 27 28  2  0  0  0  0
 27 29  1  0  0  0  0
 28 30  1  0  0  0  0
 28 58  1  0  0  0  0
 29 31  2  0  0  0  0
 29 59  1  0  0  0  0
 30 32  2  0  0  0  0
 30 60  1  0  0  0  0
 31 32  1  0  0  0  0
 31 61  1  0  0  0  0
 32 33  1  0  0  0  0
 33 34  1  0  0  0  0
 33 35  1  0  0  0  0
 34 36  1  0  0  0  0
 34 62  1  0  0  0  0
 34 63  1  0  0  0  0
 35 37  1  0  0  0  0
 35 64  1  0  0  0  0
 35 65  1  0  0  0  0
 36 38  1  0  0  0  0
 36 66  1  0  0  0  0
 36 67  1  0  0  0  0
 37 38  1  0  0  0  0
 37 68  1  0  0  0  0
 37 69  1  0  0  0  0
 38 39  1  0  0  0  0
 38 70  1  0  0  0  0
 39 71  1  0  0  0  0
 39 72  1  0  0  0  0
 39 73  1  0  0  0  0
M  CHG  1  38   1
M  END
>  <Molecule Name>
CTX-1019613

>  <SMILES>
CN1CCN(CC1)C1=CC=C(CNC(=O)C2=CC=C3CCN(CC3=N2)C(=O)C2=C(C)C3=C(S2)C=CC=C3)C=C1

>  <Batch Name>
CTX-1019613-1

>  <Batch Created Date>
2021-08-19

>  <Batch ID>
CTX-1019613-1

>  <External ID>
P841-0128

>  <Stereochemistry>
Achiral

>  <Amount 1>
5.2

>  <Unit 1>
mg

>  <CRO 1>
Pharmaron

>  <CRO 1 Total Amount>
23.9

>  <CRO 1 Unit>
mg

>  <Pharmaron Solubility (PBS, pH 7.4): Aqueous Solubility - Batch Mean (uM)>
151.34

>  <Pharmaron Solubility (PBS, pH 7.4): Aqueous Solubility - Batch Mean (uM) Standard Deviation (±)>


>  <Pharmaron Solubility (PBS, pH 7.4): Aqueous Solubility - Batch Mean (uM) Count>
1.0

>  <log P>
4.56

>  <log D>
3.93

>  <Pharmaron Caliper Assay (CDK2/CCNE1): Minimum measured (%)>
43.0

>  <Pharmaron Caliper Assay (CDK2/CCNE1): IC50 - Batch Mean (uM)>
2.41

>  <Pharmaron ADPGLO (CDK2/E1-25C): Minimum measured (%)>
27.8

>  <Pharmaron ADPGLO (CDK2/E1-25C): IC50 - Batch Mean (uM)>
4.13

>  <Pharmaron ADPGLO (CDK2/E1-37C): Minimum measured (%)>
98.2

>  <Pharmaron ADPGLO (CDK2/E1-37C): IC50 - Batch Mean (uM)>
100

>  <IncuCyte Kuramochi RB-WT: IC50 - Batch Mean (uM)>
11.7

>  <IncuCyte Kuramochi RB-KO: IC50 - Batch Mean (uM)>
12.4

>  <DSF (npCDK2/CCNE1): dTm D - Batch Mean [Concentration: 100]>
1.216

>  <DSF (npCDK2/CCNE1): dTm D - Batch Mean [Concentration: 20.0]>
1.36

>  <DSF (pCDK2/CCNE1): dTm D - Batch Mean [Concentration: 100]>


>  <DSF (pCDK2/CCNE1): dTm D - Batch Mean [Concentration: 20.0]>


>  <RLM: t1/2 - Batch Mean (Min)>


>  <RLM: Cl int - Batch Mean (uL/min/mg protein)>


>  <RLM: ER (Hepatic extraction ratio) - Batch Mean>


>  <HLM: t1/2 - Batch Mean (Min)>
9.1

>  <HLM: Cl int - Batch Mean (uL/min/mg protein)>
152.48

>  <HLM: ER (Hepatic extraction ratio) - Batch Mean>
0.882

>  <MDCK-WT 4% BSA: Papp (A-B) - Batch Mean (10-6, cm/s)>


>  <MDCK-WT 4% BSA: Papp (B-A) - Batch Mean (10-6, cm/s)>


>  <MDCK-WT 4% BSA: Efflux Ratio - Batch Mean>


>  <MDCK-WT 4% BSA: ~Net A_B - Batch Mean (10-6, cm/s)>


>  <pIC50>
5.617983

>  <Selection_1>
Y

>  <Selection_N>


>  <Serie>
Naphthyridine

>  <Selection_T>
N

>  <Train_Vs_Test>


$$$$
CTX-1019496
 OpenBabel08272613263D

 51 55  0  0  0  0  0  0  0  0999 V2000
   -3.3997    6.8120    1.6580 S   0  0  0  0  0  0  0  0  0  0  0  0
   -2.3213    5.5479    2.0936 C   0  0  0  0  0  0  0  0  0  0  0  0
   -3.9248    6.9041    3.2866 C   0  0  0  0  0  0  0  0  0  0  0  0
   -2.4448    5.2853    3.4422 C   0  0  0  0  0  0  0  0  0  0  0  0
   -1.4688    4.8775    1.0793 C   0  0  0  0  0  0  0  0  0  0  0  0
   -3.3628    6.0631    4.1264 N   0  0  0  0  0  0  0  0  0  0  0  0
   -0.2125    5.5649    0.9588 N   0  0  0  0  0  0  0  0  0  0  0  0
    0.7618    5.1161    0.0862 C   0  0  0  0  0  0  0  0  0  0  0  0
    0.6221    4.1105   -0.6136 O   0  0  0  0  0  0  0  0  0  0  0  0
    2.0217    5.9209    0.0470 C   0  0  0  0  0  0  0  0  0  0  0  0
    2.1153    6.9900    0.9089 N   0  0  0  0  0  0  0  0  0  0  0  0
    3.0271    5.5483   -0.8341 C   0  0  0  0  0  0  0  0  0  0  0  0
    3.2908    7.6859    0.8983 C   0  0  0  0  0  0  0  0  0  0  0  0
    4.2056    6.2812   -0.8415 C   0  0  0  0  0  0  0  0  0  0  0  0
    4.3492    7.3645    0.0283 C   0  0  0  0  0  0  0  0  0  0  0  0
    3.4126    8.8636    1.8647 C   0  0  0  0  0  0  0  0  0  0  0  0
    5.6617    8.1028    0.0790 C   0  0  0  0  0  0  0  0  0  0  0  0
    4.7885    9.3292    2.0296 N   0  0  0  0  0  0  0  0  0  0  0  0
    5.5712    9.4390    0.8091 C   0  0  0  0  0  0  0  0  0  0  0  0
    5.2048    9.9007    3.2375 C   0  0  0  0  0  0  0  0  0  0  0  0
    4.3969   10.4125    4.0115 O   0  0  0  0  0  0  0  0  0  0  0  0
    6.5887    9.6009    3.6257 C   0  0  0  0  0  0  0  0  0  0  0  0
    7.0952    8.4388    3.0825 O   0  0  0  0  0  0  0  0  0  0  0  0
    7.2930    9.8256    4.8109 C   0  0  0  0  0  0  0  0  0  0  0  0
    7.4956    7.7060    4.1475 C   0  0  0  0  0  0  0  0  0  0  0  0
    7.5193    8.5001    5.2828 C   0  0  0  0  0  0  0  0  0  0  0  0
    7.6518   11.0771    5.5186 C   0  0  0  0  0  0  0  0  0  0  0  0
    7.7628    6.3496    4.1124 C   0  0  0  0  0  0  0  0  0  0  0  0
    7.7522    7.8783    6.5236 C   0  0  0  0  0  0  0  0  0  0  0  0
    7.9491    5.7449    5.3576 C   0  0  0  0  0  0  0  0  0  0  0  0
    7.9194    6.4885    6.5430 C   0  0  0  0  0  0  0  0  0  0  0  0
   -4.6416    7.5813    3.5910 H   0  0  0  0  0  0  0  0  0  0  0  0
   -1.8874    4.5546    3.9117 H   0  0  0  0  0  0  0  0  0  0  0  0
   -1.9696    4.8870    0.1338 H   0  0  0  0  0  0  0  0  0  0  0  0
   -1.2881    3.8682    1.3852 H   0  0  0  0  0  0  0  0  0  0  0  0
   -0.0432    6.3663    1.5051 H   0  0  0  0  0  0  0  0  0  0  0  0
    2.9013    4.7447   -1.4692 H   0  0  0  0  0  0  0  0  0  0  0  0
    4.9710    6.0273   -1.4855 H   0  0  0  0  0  0  0  0  0  0  0  0
    3.0388    8.5602    2.8203 H   0  0  0  0  0  0  0  0  0  0  0  0
    2.8482    9.6741    1.4532 H   0  0  0  0  0  0  0  0  0  0  0  0
    5.9888    8.2844   -0.9234 H   0  0  0  0  0  0  0  0  0  0  0  0
    6.3508    7.4898    0.6215 H   0  0  0  0  0  0  0  0  0  0  0  0
    5.1095   10.1569    0.1638 H   0  0  0  0  0  0  0  0  0  0  0  0
    6.5621    9.7444    1.0730 H   0  0  0  0  0  0  0  0  0  0  0  0
    7.3620   11.9184    4.9244 H   0  0  0  0  0  0  0  0  0  0  0  0
    8.7088   11.1035    5.6828 H   0  0  0  0  0  0  0  0  0  0  0  0
    7.1437   11.1130    6.4596 H   0  0  0  0  0  0  0  0  0  0  0  0
    7.8205    5.8210    3.2280 H   0  0  0  0  0  0  0  0  0  0  0  0
    7.7985    8.4309    7.3939 H   0  0  0  0  0  0  0  0  0  0  0  0
    8.1124    4.7270    5.4047 H   0  0  0  0  0  0  0  0  0  0  0  0
    8.0225    6.0033    7.4480 H   0  0  0  0  0  0  0  0  0  0  0  0
  1  2  1  0  0  0  0
  1  3  1  0  0  0  0
  2  4  2  0  0  0  0
  2  5  1  0  0  0  0
  3  6  2  0  0  0  0
  3 32  1  0  0  0  0
  4  6  1  0  0  0  0
  4 33  1  0  0  0  0
  5  7  1  0  0  0  0
  5 34  1  0  0  0  0
  5 35  1  0  0  0  0
  7  8  1  0  0  0  0
  7 36  1  0  0  0  0
  8  9  2  0  0  0  0
  8 10  1  0  0  0  0
 10 11  2  0  0  0  0
 10 12  1  0  0  0  0
 11 13  1  0  0  0  0
 12 14  2  0  0  0  0
 12 37  1  0  0  0  0
 13 15  2  0  0  0  0
 13 16  1  0  0  0  0
 14 15  1  0  0  0  0
 14 38  1  0  0  0  0
 15 17  1  0  0  0  0
 16 18  1  0  0  0  0
 16 39  1  0  0  0  0
 16 40  1  0  0  0  0
 17 19  1  0  0  0  0
 17 41  1  0  0  0  0
 17 42  1  0  0  0  0
 18 20  1  0  0  0  0
 18 19  1  0  0  0  0
 19 43  1  0  0  0  0
 19 44  1  0  0  0  0
 20 21  2  0  0  0  0
 20 22  1  0  0  0  0
 22 23  1  0  0  0  0
 22 24  2  0  0  0  0
 23 25  1  0  0  0  0
 24 26  1  0  0  0  0
 24 27  1  0  0  0  0
 25 28  2  0  0  0  0
 25 26  1  0  0  0  0
 26 29  2  0  0  0  0
 27 45  1  0  0  0  0
 27 46  1  0  0  0  0
 27 47  1  0  0  0  0
 28 30  1  0  0  0  0
 28 48  1  0  0  0  0
 29 31  1  0  0  0  0
 29 49  1  0  0  0  0
 30 31  2  0  0  0  0
 30 50  1  0  0  0  0
 31 51  1  0  0  0  0
M  END
>  <Molecule Name>
CTX-1019496

>  <SMILES>
CC1=C(OC2=C1C=CC=C2)C(=O)N1CCC2=C(C1)N=C(C=C2)C(=O)NCC1=CN=CS1

>  <Batch Name>
CTX-1019496-1

>  <Batch Created Date>
2021-07-30

>  <Batch ID>
CTX-1019496-1

>  <External ID>
P841-0109

>  <Stereochemistry>
Achiral

>  <Amount 1>
2.3

>  <Unit 1>
mg

>  <CRO 1>
Pharmaron

>  <CRO 1 Total Amount>
13.7

>  <CRO 1 Unit>
mg

>  <Pharmaron Solubility (PBS, pH 7.4): Aqueous Solubility - Batch Mean (uM)>
13.7

>  <Pharmaron Solubility (PBS, pH 7.4): Aqueous Solubility - Batch Mean (uM) Standard Deviation (±)>


>  <Pharmaron Solubility (PBS, pH 7.4): Aqueous Solubility - Batch Mean (uM) Count>
1.0

>  <log P>
2.47

>  <log D>
2.47

>  <Pharmaron Caliper Assay (CDK2/CCNE1): Minimum measured (%)>
66.1

>  <Pharmaron Caliper Assay (CDK2/CCNE1): IC50 - Batch Mean (uM)>
5.47

>  <Pharmaron ADPGLO (CDK2/E1-25C): Minimum measured (%)>


>  <Pharmaron ADPGLO (CDK2/E1-25C): IC50 - Batch Mean (uM)>


>  <Pharmaron ADPGLO (CDK2/E1-37C): Minimum measured (%)>


>  <Pharmaron ADPGLO (CDK2/E1-37C): IC50 - Batch Mean (uM)>


>  <IncuCyte Kuramochi RB-WT: IC50 - Batch Mean (uM)>
20.0

>  <IncuCyte Kuramochi RB-KO: IC50 - Batch Mean (uM)>
20.0

>  <DSF (npCDK2/CCNE1): dTm D - Batch Mean [Concentration: 100]>


>  <DSF (npCDK2/CCNE1): dTm D - Batch Mean [Concentration: 20.0]>
0.631

>  <DSF (pCDK2/CCNE1): dTm D - Batch Mean [Concentration: 100]>


>  <DSF (pCDK2/CCNE1): dTm D - Batch Mean [Concentration: 20.0]>


>  <RLM: t1/2 - Batch Mean (Min)>


>  <RLM: Cl int - Batch Mean (uL/min/mg protein)>


>  <RLM: ER (Hepatic extraction ratio) - Batch Mean>


>  <HLM: t1/2 - Batch Mean (Min)>


>  <HLM: Cl int - Batch Mean (uL/min/mg protein)>


>  <HLM: ER (Hepatic extraction ratio) - Batch Mean>


>  <MDCK-WT 4% BSA: Papp (A-B) - Batch Mean (10-6, cm/s)>


>  <MDCK-WT 4% BSA: Papp (B-A) - Batch Mean (10-6, cm/s)>


>  <MDCK-WT 4% BSA: Efflux Ratio - Batch Mean>


>  <MDCK-WT 4% BSA: ~Net A_B - Batch Mean (10-6, cm/s)>


>  <pIC50>
5.262013

>  <Selection_1>
Y

>  <Selection_N>


>  <Serie>
Naphthyridine

>  <Selection_T>
N

>  <Train_Vs_Test>


$$$$
CTX-1019480
 OpenBabel08272613263D

 55 59  0  0  0  0  0  0  0  0999 V2000
    1.4570    0.4722    0.6847 O   0  0  0  0  0  0  0  0  0  0  0  0
    2.3777    0.0487   -0.0157 C   0  0  0  0  0  0  0  0  0  0  0  0
    2.8378   -1.2450    0.0676 N   0  0  0  0  0  0  0  0  0  0  0  0
    3.0423    0.9490   -1.0238 C   0  0  0  0  0  0  0  0  0  0  0  0
    2.2155   -2.2118    0.9561 C   0  0  0  0  0  0  0  0  0  0  0  0
    4.0320    0.4503   -1.8300 N   0  0  0  0  0  0  0  0  0  0  0  0
    2.5708    2.2525   -1.0885 C   0  0  0  0  0  0  0  0  0  0  0  0
    3.1711   -2.6890    2.0235 C   0  0  0  0  0  0  0  0  0  0  0  0
    4.5630    1.3107   -2.7591 C   0  0  0  0  0  0  0  0  0  0  0  0
    3.1248    3.1091   -2.0221 C   0  0  0  0  0  0  0  0  0  0  0  0
    3.2982   -1.9967    3.2377 C   0  0  0  0  0  0  0  0  0  0  0  0
    3.9401   -3.8384    1.8148 C   0  0  0  0  0  0  0  0  0  0  0  0
    4.1364    2.6483   -2.8678 C   0  0  0  0  0  0  0  0  0  0  0  0
    5.6791    0.7988   -3.6862 C   0  0  0  0  0  0  0  0  0  0  0  0
    4.1739   -2.4454    4.2317 C   0  0  0  0  0  0  0  0  0  0  0  0
    4.8239   -4.2839    2.8025 C   0  0  0  0  0  0  0  0  0  0  0  0
    4.6661    3.5828   -3.9242 C   0  0  0  0  0  0  0  0  0  0  0  0
    5.9227    1.6810   -4.8357 N   0  0  0  0  0  0  0  0  0  0  0  0
    4.9355   -3.5914    4.0064 C   0  0  0  0  0  0  0  0  0  0  0  0
    5.9679    3.1040   -4.5483 C   0  0  0  0  0  0  0  0  0  0  0  0
    6.3625    1.1732   -6.0633 C   0  0  0  0  0  0  0  0  0  0  0  0
    7.0075    0.1281   -6.1294 O   0  0  0  0  0  0  0  0  0  0  0  0
    5.7693    1.8131   -7.2457 C   0  0  0  0  0  0  0  0  0  0  0  0
    4.5595    2.4340   -7.0203 O   0  0  0  0  0  0  0  0  0  0  0  0
    5.8174    1.5033   -8.6069 C   0  0  0  0  0  0  0  0  0  0  0  0
    3.7242    1.9100   -7.9495 C   0  0  0  0  0  0  0  0  0  0  0  0
    4.4493    1.2114   -8.8976 C   0  0  0  0  0  0  0  0  0  0  0  0
    6.9627    1.3501   -9.5353 C   0  0  0  0  0  0  0  0  0  0  0  0
    2.3415    1.9902   -7.8885 C   0  0  0  0  0  0  0  0  0  0  0  0
    3.7448    0.4441   -9.8383 C   0  0  0  0  0  0  0  0  0  0  0  0
    1.6586    1.1815   -8.7954 C   0  0  0  0  0  0  0  0  0  0  0  0
    2.3457    0.4005   -9.7332 C   0  0  0  0  0  0  0  0  0  0  0  0
    3.6038   -1.5213   -0.4857 H   0  0  0  0  0  0  0  0  0  0  0  0
    1.8915   -3.0533    0.3801 H   0  0  0  0  0  0  0  0  0  0  0  0
    1.3883   -1.7351    1.4393 H   0  0  0  0  0  0  0  0  0  0  0  0
    1.8236    2.5754   -0.4542 H   0  0  0  0  0  0  0  0  0  0  0  0
    2.7926    4.0836   -2.0936 H   0  0  0  0  0  0  0  0  0  0  0  0
    2.7380   -1.1452    3.3993 H   0  0  0  0  0  0  0  0  0  0  0  0
    3.8550   -4.3598    0.9283 H   0  0  0  0  0  0  0  0  0  0  0  0
    5.4019   -0.1679   -4.0516 H   0  0  0  0  0  0  0  0  0  0  0  0
    6.5813    0.7661   -3.1119 H   0  0  0  0  0  0  0  0  0  0  0  0
    4.2556   -1.9329    5.1238 H   0  0  0  0  0  0  0  0  0  0  0  0
    5.3949   -5.1279    2.6395 H   0  0  0  0  0  0  0  0  0  0  0  0
    4.8349    4.5404   -3.4777 H   0  0  0  0  0  0  0  0  0  0  0  0
    3.9360    3.6271   -4.7052 H   0  0  0  0  0  0  0  0  0  0  0  0
    5.5848   -3.9281    4.7345 H   0  0  0  0  0  0  0  0  0  0  0  0
    6.7719    3.2972   -3.8692 H   0  0  0  0  0  0  0  0  0  0  0  0
    6.1151    3.6300   -5.4684 H   0  0  0  0  0  0  0  0  0  0  0  0
    7.8646    1.6452   -9.0409 H   0  0  0  0  0  0  0  0  0  0  0  0
    6.8093    1.9673  -10.3958 H   0  0  0  0  0  0  0  0  0  0  0  0
    7.0410    0.3272   -9.8394 H   0  0  0  0  0  0  0  0  0  0  0  0
    1.8525    2.6049   -7.2191 H   0  0  0  0  0  0  0  0  0  0  0  0
    4.2394   -0.0714  -10.5830 H   0  0  0  0  0  0  0  0  0  0  0  0
    0.6271    1.1577   -8.7754 H   0  0  0  0  0  0  0  0  0  0  0  0
    1.8116   -0.2206  -10.3609 H   0  0  0  0  0  0  0  0  0  0  0  0
  1  2  2  0  0  0  0
  2  3  1  0  0  0  0
  2  4  1  0  0  0  0
  3  5  1  0  0  0  0
  3 33  1  0  0  0  0
  4  6  2  0  0  0  0
  4  7  1  0  0  0  0
  5  8  1  0  0  0  0
  5 34  1  0  0  0  0
  5 35  1  0  0  0  0
  6  9  1  0  0  0  0
  7 10  2  0  0  0  0
  7 36  1  0  0  0  0
  8 11  2  0  0  0  0
  8 12  1  0  0  0  0
  9 13  2  0  0  0  0
  9 14  1  0  0  0  0
 10 13  1  0  0  0  0
 10 37  1  0  0  0  0
 11 15  1  0  0  0  0
 11 38  1  0  0  0  0
 12 16  2  0  0  0  0
 12 39  1  0  0  0  0
 13 17  1  0  0  0  0
 14 18  1  0  0  0  0
 14 40  1  0  0  0  0
 14 41  1  0  0  0  0
 15 19  2  0  0  0  0
 15 42  1  0  0  0  0
 16 19  1  0  0  0  0
 16 43  1  0  0  0  0
 17 20  1  0  0  0  0
 17 44  1  0  0  0  0
 17 45  1  0  0  0  0
 18 21  1  0  0  0  0
 18 20  1  0  0  0  0
 19 46  1  0  0  0  0
 20 47  1  0  0  0  0
 20 48  1  0  0  0  0
 21 22  2  0  0  0  0
 21 23  1  0  0  0  0
 23 24  1  0  0  0  0
 23 25  2  0  0  0  0
 24 26  1  0  0  0  0
 25 27  1  0  0  0  0
 25 28  1  0  0  0  0
 26 29  2  0  0  0  0
 26 27  1  0  0  0  0
 27 30  2  0  0  0  0
 28 49  1  0  0  0  0
 28 50  1  0  0  0  0
 28 51  1  0  0  0  0
 29 31  1  0  0  0  0
 29 52  1  0  0  0  0
 30 32  1  0  0  0  0
 30 53  1  0  0  0  0
 31 32  2  0  0  0  0
 31 54  1  0  0  0  0
 32 55  1  0  0  0  0
M  END
>  <Molecule Name>
CTX-1019480

>  <SMILES>
CC1=C(OC2=C1C=CC=C2)C(=O)N1CCC2=C(C1)N=C(C=C2)C(=O)NCC1=CC=CC=C1

>  <Batch Name>
CTX-1019480-1

>  <Batch Created Date>
2021-07-30

>  <Batch ID>
CTX-1019480-1

>  <External ID>
P841-0093

>  <Stereochemistry>
Achiral

>  <Amount 1>
3.1

>  <Unit 1>
mg

>  <CRO 1>
Pharmaron

>  <CRO 1 Total Amount>
12.2

>  <CRO 1 Unit>
mg

>  <Pharmaron Solubility (PBS, pH 7.4): Aqueous Solubility - Batch Mean (uM)>
0.0192

>  <Pharmaron Solubility (PBS, pH 7.4): Aqueous Solubility - Batch Mean (uM) Standard Deviation (±)>


>  <Pharmaron Solubility (PBS, pH 7.4): Aqueous Solubility - Batch Mean (uM) Count>
1.0

>  <log P>
3.68

>  <log D>
3.68

>  <Pharmaron Caliper Assay (CDK2/CCNE1): Minimum measured (%)>
71.2

>  <Pharmaron Caliper Assay (CDK2/CCNE1): IC50 - Batch Mean (uM)>
0.43

>  <Pharmaron ADPGLO (CDK2/E1-25C): Minimum measured (%)>
82.2

>  <Pharmaron ADPGLO (CDK2/E1-25C): IC50 - Batch Mean (uM)>
4.21

>  <Pharmaron ADPGLO (CDK2/E1-37C): Minimum measured (%)>
101.0

>  <Pharmaron ADPGLO (CDK2/E1-37C): IC50 - Batch Mean (uM)>
10.0

>  <IncuCyte Kuramochi RB-WT: IC50 - Batch Mean (uM)>
20.0

>  <IncuCyte Kuramochi RB-KO: IC50 - Batch Mean (uM)>
20.0

>  <DSF (npCDK2/CCNE1): dTm D - Batch Mean [Concentration: 100]>


>  <DSF (npCDK2/CCNE1): dTm D - Batch Mean [Concentration: 20.0]>
1.162

>  <DSF (pCDK2/CCNE1): dTm D - Batch Mean [Concentration: 100]>


>  <DSF (pCDK2/CCNE1): dTm D - Batch Mean [Concentration: 20.0]>
0.212

>  <RLM: t1/2 - Batch Mean (Min)>


>  <RLM: Cl int - Batch Mean (uL/min/mg protein)>


>  <RLM: ER (Hepatic extraction ratio) - Batch Mean>


>  <HLM: t1/2 - Batch Mean (Min)>
4.83

>  <HLM: Cl int - Batch Mean (uL/min/mg protein)>
288.47

>  <HLM: ER (Hepatic extraction ratio) - Batch Mean>
0.934

>  <MDCK-WT 4% BSA: Papp (A-B) - Batch Mean (10-6, cm/s)>


>  <MDCK-WT 4% BSA: Papp (B-A) - Batch Mean (10-6, cm/s)>


>  <MDCK-WT 4% BSA: Efflux Ratio - Batch Mean>


>  <MDCK-WT 4% BSA: ~Net A_B - Batch Mean (10-6, cm/s)>


>  <pIC50>
6.366532

>  <Selection_1>
Y

>  <Selection_N>


>  <Serie>
Naphthyridine

>  <Selection_T>
N

>  <Train_Vs_Test>


$$$$
CTX-1019473
 OpenBabel08272613263D

 63 67  0  0  0  0  0  0  0  0999 V2000
    1.2651   -0.6819   -0.5115 O   0  0  0  0  0  0  0  0  0  0  0  0
    2.3025   -0.1449   -0.1356 C   0  0  0  0  0  0  0  0  0  0  0  0
    2.7921    1.0137   -0.6991 N   0  0  0  0  0  0  0  0  0  0  0  0
    3.1096   -0.7465    0.9803 C   0  0  0  0  0  0  0  0  0  0  0  0
    2.1161    1.6761   -1.7899 C   0  0  0  0  0  0  0  0  0  0  0  0
    4.2278   -0.0896    1.4121 N   0  0  0  0  0  0  0  0  0  0  0  0
    2.6665   -1.9503    1.5130 C   0  0  0  0  0  0  0  0  0  0  0  0
    2.9690    1.7450   -3.0255 C   0  0  0  0  0  0  0  0  0  0  0  0
    4.9340   -0.6718    2.4341 C   0  0  0  0  0  0  0  0  0  0  0  0
    3.4153   -2.5447    2.5197 C   0  0  0  0  0  0  0  0  0  0  0  0
    2.9579    0.7122   -3.9643 C   0  0  0  0  0  0  0  0  0  0  0  0
    3.8119    2.8311   -3.2626 C   0  0  0  0  0  0  0  0  0  0  0  0
    4.5730   -1.9145    2.9836 C   0  0  0  0  0  0  0  0  0  0  0  0
    6.1587    0.0758    2.9666 C   0  0  0  0  0  0  0  0  0  0  0  0
    3.7714    0.7684   -5.1084 C   0  0  0  0  0  0  0  0  0  0  0  0
    4.6244    2.8717   -4.4100 C   0  0  0  0  0  0  0  0  0  0  0  0
    5.3491   -2.5468    4.1150 C   0  0  0  0  0  0  0  0  0  0  0  0
    6.6449   -0.4478    4.2487 N   0  0  0  0  0  0  0  0  0  0  0  0
    4.6368    1.8435   -5.3696 C   0  0  0  0  0  0  0  0  0  0  0  0
    6.7184   -1.9022    4.3325 C   0  0  0  0  0  0  0  0  0  0  0  0
    7.2014    0.4257    5.2012 C   0  0  0  0  0  0  0  0  0  0  0  0
    5.4892    1.8733   -6.4653 N   0  0  0  0  0  0  0  0  0  0  0  0
    7.5356    1.5677    4.8794 O   0  0  0  0  0  0  0  0  0  0  0  0
    7.1578   -0.0085    6.6216 C   0  0  0  0  0  0  0  0  0  0  0  0
    5.8890    3.1297   -7.0973 C   0  0  0  0  0  0  0  0  0  0  0  0
    5.7700    0.6887   -7.2730 C   0  0  0  0  0  0  0  0  0  0  0  0
    6.0631   -0.8347    6.8738 O   0  0  0  0  0  0  0  0  0  0  0  0
    7.2543    0.7662    7.7860 C   0  0  0  0  0  0  0  0  0  0  0  0
    5.2012   -0.0126    7.5207 C   0  0  0  0  0  0  0  0  0  0  0  0
    5.8840    1.0603    8.0572 C   0  0  0  0  0  0  0  0  0  0  0  0
    8.3766    1.0813    8.6971 C   0  0  0  0  0  0  0  0  0  0  0  0
    3.8317   -0.2230    7.6293 C   0  0  0  0  0  0  0  0  0  0  0  0
    5.1776    2.0329    8.7696 C   0  0  0  0  0  0  0  0  0  0  0  0
    3.1313    0.7854    8.2789 C   0  0  0  0  0  0  0  0  0  0  0  0
    3.7792    1.9021    8.8320 C   0  0  0  0  0  0  0  0  0  0  0  0
    3.6265    1.4007   -0.3480 H   0  0  0  0  0  0  0  0  0  0  0  0
    1.8663    2.6715   -1.4872 H   0  0  0  0  0  0  0  0  0  0  0  0
    1.2392    1.1104   -2.0261 H   0  0  0  0  0  0  0  0  0  0  0  0
    1.8003   -2.3929    1.1682 H   0  0  0  0  0  0  0  0  0  0  0  0
    3.1186   -3.4470    2.9231 H   0  0  0  0  0  0  0  0  0  0  0  0
    2.3438   -0.1039   -3.8160 H   0  0  0  0  0  0  0  0  0  0  0  0
    3.8395    3.6127   -2.5893 H   0  0  0  0  0  0  0  0  0  0  0  0
    5.8982    1.1054    3.0969 H   0  0  0  0  0  0  0  0  0  0  0  0
    6.9448   -0.0533    2.2523 H   0  0  0  0  0  0  0  0  0  0  0  0
    3.7315   -0.0110   -5.7836 H   0  0  0  0  0  0  0  0  0  0  0  0
    5.2369    3.6897   -4.5537 H   0  0  0  0  0  0  0  0  0  0  0  0
    5.4916   -3.5838    3.8931 H   0  0  0  0  0  0  0  0  0  0  0  0
    4.7821   -2.4049    5.0112 H   0  0  0  0  0  0  0  0  0  0  0  0
    7.3938   -2.2597    3.5835 H   0  0  0  0  0  0  0  0  0  0  0  0
    7.0610   -2.1648    5.3115 H   0  0  0  0  0  0  0  0  0  0  0  0
    5.6523    3.9467   -6.4482 H   0  0  0  0  0  0  0  0  0  0  0  0
    5.3648    3.2460   -8.0229 H   0  0  0  0  0  0  0  0  0  0  0  0
    6.9426    3.1158   -7.2835 H   0  0  0  0  0  0  0  0  0  0  0  0
    5.4508   -0.1861   -6.7460 H   0  0  0  0  0  0  0  0  0  0  0  0
    6.8212    0.6273   -7.4625 H   0  0  0  0  0  0  0  0  0  0  0  0
    5.2434    0.7574   -8.2019 H   0  0  0  0  0  0  0  0  0  0  0  0
    9.2959    0.7569    8.2560 H   0  0  0  0  0  0  0  0  0  0  0  0
    8.2311    0.5774    9.6297 H   0  0  0  0  0  0  0  0  0  0  0  0
    8.4144    2.1375    8.8644 H   0  0  0  0  0  0  0  0  0  0  0  0
    3.3693   -1.0662    7.2549 H   0  0  0  0  0  0  0  0  0  0  0  0
    5.6637    2.8170    9.2322 H   0  0  0  0  0  0  0  0  0  0  0  0
    2.1049    0.7120    8.3574 H   0  0  0  0  0  0  0  0  0  0  0  0
    3.2201    2.6380    9.2913 H   0  0  0  0  0  0  0  0  0  0  0  0
  1  2  2  0  0  0  0
  2  3  1  0  0  0  0
  2  4  1  0  0  0  0
  3  5  1  0  0  0  0
  3 36  1  0  0  0  0
  4  6  2  0  0  0  0
  4  7  1  0  0  0  0
  5  8  1  0  0  0  0
  5 37  1  0  0  0  0
  5 38  1  0  0  0  0
  6  9  1  0  0  0  0
  7 10  2  0  0  0  0
  7 39  1  0  0  0  0
  8 11  2  0  0  0  0
  8 12  1  0  0  0  0
  9 13  2  0  0  0  0
  9 14  1  0  0  0  0
 10 13  1  0  0  0  0
 10 40  1  0  0  0  0
 11 15  1  0  0  0  0
 11 41  1  0  0  0  0
 12 16  2  0  0  0  0
 12 42  1  0  0  0  0
 13 17  1  0  0  0  0
 14 18  1  0  0  0  0
 14 43  1  0  0  0  0
 14 44  1  0  0  0  0
 15 19  2  0  0  0  0
 15 45  1  0  0  0  0
 16 19  1  0  0  0  0
 16 46  1  0  0  0  0
 17 20  1  0  0  0  0
 17 47  1  0  0  0  0
 17 48  1  0  0  0  0
 18 21  1  0  0  0  0
 18 20  1  0  0  0  0
 19 22  1  0  0  0  0
 20 49  1  0  0  0  0
 20 50  1  0  0  0  0
 21 23  2  0  0  0  0
 21 24  1  0  0  0  0
 22 25  1  0  0  0  0
 22 26  1  0  0  0  0
 24 27  1  0  0  0  0
 24 28  2  0  0  0  0
 25 51  1  0  0  0  0
 25 52  1  0  0  0  0
 25 53  1  0  0  0  0
 26 54  1  0  0  0  0
 26 55  1  0  0  0  0
 26 56  1  0  0  0  0
 27 29  1  0  0  0  0
 28 30  1  0  0  0  0
 28 31  1  0  0  0  0
 29 32  2  0  0  0  0
 29 30  1  0  0  0  0
 30 33  2  0  0  0  0
 31 57  1  0  0  0  0
 31 58  1  0  0  0  0
 31 59  1  0  0  0  0
 32 34  1  0  0  0  0
 32 60  1  0  0  0  0
 33 35  1  0  0  0  0
 33 61  1  0  0  0  0
 34 35  2  0  0  0  0
 34 62  1  0  0  0  0
 35 63  1  0  0  0  0
M  END
>  <Molecule Name>
CTX-1019473

>  <SMILES>
CN(C)C1=CC=C(CNC(=O)C2=NC3=C(CCN(C3)C(=O)C3=C(C)C4=C(O3)C=CC=C4)C=C2)C=C1

>  <Batch Name>
CTX-1019473-1

>  <Batch Created Date>
2021-07-30

>  <Batch ID>
CTX-1019473-1

>  <External ID>
P841-0086

>  <Stereochemistry>
Achiral

>  <Amount 1>
1.9

>  <Unit 1>
mg

>  <CRO 1>
Pharmaron

>  <CRO 1 Total Amount>
10.9

>  <CRO 1 Unit>
mg

>  <Pharmaron Solubility (PBS, pH 7.4): Aqueous Solubility - Batch Mean (uM)>
0.0021

>  <Pharmaron Solubility (PBS, pH 7.4): Aqueous Solubility - Batch Mean (uM) Standard Deviation (±)>


>  <Pharmaron Solubility (PBS, pH 7.4): Aqueous Solubility - Batch Mean (uM) Count>
1.0

>  <log P>
3.78

>  <log D>
3.78

>  <Pharmaron Caliper Assay (CDK2/CCNE1): Minimum measured (%)>
75.0

>  <Pharmaron Caliper Assay (CDK2/CCNE1): IC50 - Batch Mean (uM)>
0.875

>  <Pharmaron ADPGLO (CDK2/E1-25C): Minimum measured (%)>
83.2

>  <Pharmaron ADPGLO (CDK2/E1-25C): IC50 - Batch Mean (uM)>
4.37

>  <Pharmaron ADPGLO (CDK2/E1-37C): Minimum measured (%)>
97.9

>  <Pharmaron ADPGLO (CDK2/E1-37C): IC50 - Batch Mean (uM)>
10.0

>  <IncuCyte Kuramochi RB-WT: IC50 - Batch Mean (uM)>
20.0

>  <IncuCyte Kuramochi RB-KO: IC50 - Batch Mean (uM)>
20.0

>  <DSF (npCDK2/CCNE1): dTm D - Batch Mean [Concentration: 100]>


>  <DSF (npCDK2/CCNE1): dTm D - Batch Mean [Concentration: 20.0]>
0.8240000000000001

>  <DSF (pCDK2/CCNE1): dTm D - Batch Mean [Concentration: 100]>


>  <DSF (pCDK2/CCNE1): dTm D - Batch Mean [Concentration: 20.0]>


>  <RLM: t1/2 - Batch Mean (Min)>


>  <RLM: Cl int - Batch Mean (uL/min/mg protein)>


>  <RLM: ER (Hepatic extraction ratio) - Batch Mean>


>  <HLM: t1/2 - Batch Mean (Min)>
10.38

>  <HLM: Cl int - Batch Mean (uL/min/mg protein)>
133.74

>  <HLM: ER (Hepatic extraction ratio) - Batch Mean>
0.867

>  <MDCK-WT 4% BSA: Papp (A-B) - Batch Mean (10-6, cm/s)>


>  <MDCK-WT 4% BSA: Papp (B-A) - Batch Mean (10-6, cm/s)>


>  <MDCK-WT 4% BSA: Efflux Ratio - Batch Mean>


>  <MDCK-WT 4% BSA: ~Net A_B - Batch Mean (10-6, cm/s)>


>  <pIC50>
6.057992

>  <Selection_1>
Y

>  <Selection_N>


>  <Serie>
Naphthyridine

>  <Selection_T>
N

>  <Train_Vs_Test>


$$$$
CTX-1019471
 OpenBabel08272613263D

 54 58  0  0  0  0  0  0  0  0999 V2000
    1.5911    0.8373   -0.5244 O   0  0  0  0  0  0  0  0  0  0  0  0
    2.4315    0.0856   -0.0340 C   0  0  0  0  0  0  0  0  0  0  0  0
    2.7910    0.1277    1.2935 N   0  0  0  0  0  0  0  0  0  0  0  0
    3.1248   -0.9421   -0.8824 C   0  0  0  0  0  0  0  0  0  0  0  0
    2.1667    1.0541    2.2156 C   0  0  0  0  0  0  0  0  0  0  0  0
    4.0844   -1.7341   -0.3091 N   0  0  0  0  0  0  0  0  0  0  0  0
    2.7496   -1.0202   -2.2165 C   0  0  0  0  0  0  0  0  0  0  0  0
    0.9756    0.4523    2.9091 C   0  0  0  0  0  0  0  0  0  0  0  0
    4.6838   -2.6620   -1.1179 C   0  0  0  0  0  0  0  0  0  0  0  0
    3.3762   -1.9546   -3.0236 C   0  0  0  0  0  0  0  0  0  0  0  0
    1.1004   -0.1302    4.1723 C   0  0  0  0  0  0  0  0  0  0  0  0
   -0.2840    0.4429    2.2849 C   0  0  0  0  0  0  0  0  0  0  0  0
    4.3594   -2.7876   -2.4812 C   0  0  0  0  0  0  0  0  0  0  0  0
    5.7625   -3.5652   -0.5080 C   0  0  0  0  0  0  0  0  0  0  0  0
   -0.0305   -0.6826    4.7678 C   0  0  0  0  0  0  0  0  0  0  0  0
   -1.3436   -0.1434    2.9608 C   0  0  0  0  0  0  0  0  0  0  0  0
    4.9681   -3.8532   -3.3557 C   0  0  0  0  0  0  0  0  0  0  0  0
    6.0647   -4.7346   -1.3374 N   0  0  0  0  0  0  0  0  0  0  0  0
   -1.2452   -0.7074    4.1847 N   0  0  0  0  0  0  0  0  0  0  0  0
    6.2210   -4.4817   -2.7596 C   0  0  0  0  0  0  0  0  0  0  0  0
    6.4797   -5.9370   -0.7560 C   0  0  0  0  0  0  0  0  0  0  0  0
    7.0305   -5.9578    0.3437 O   0  0  0  0  0  0  0  0  0  0  0  0
    5.9676   -7.1489   -1.4050 C   0  0  0  0  0  0  0  0  0  0  0  0
    4.8129   -6.9730   -2.1368 O   0  0  0  0  0  0  0  0  0  0  0  0
    6.0268   -8.4979   -1.0533 C   0  0  0  0  0  0  0  0  0  0  0  0
    3.9597   -7.9187   -1.6765 C   0  0  0  0  0  0  0  0  0  0  0  0
    4.6467   -8.8259   -0.8844 C   0  0  0  0  0  0  0  0  0  0  0  0
    7.1764   -9.3865   -0.7617 C   0  0  0  0  0  0  0  0  0  0  0  0
    2.5868   -7.9199   -1.8916 C   0  0  0  0  0  0  0  0  0  0  0  0
    3.9031   -9.7746   -0.1643 C   0  0  0  0  0  0  0  0  0  0  0  0
    1.8648   -8.8419   -1.1392 C   0  0  0  0  0  0  0  0  0  0  0  0
    2.5043   -9.7308   -0.2674 C   0  0  0  0  0  0  0  0  0  0  0  0
    3.4874   -0.4849    1.6237 H   0  0  0  0  0  0  0  0  0  0  0  0
    1.8480    1.9188    1.6719 H   0  0  0  0  0  0  0  0  0  0  0  0
    2.8881    1.3077    2.9641 H   0  0  0  0  0  0  0  0  0  0  0  0
    2.0209   -0.3966   -2.5977 H   0  0  0  0  0  0  0  0  0  0  0  0
    3.1190   -2.0357   -4.0197 H   0  0  0  0  0  0  0  0  0  0  0  0
    2.0126   -0.1508    4.6546 H   0  0  0  0  0  0  0  0  0  0  0  0
   -0.4164    0.8604    1.3505 H   0  0  0  0  0  0  0  0  0  0  0  0
    5.4231   -3.9038    0.4486 H   0  0  0  0  0  0  0  0  0  0  0  0
    6.6592   -2.9864   -0.4311 H   0  0  0  0  0  0  0  0  0  0  0  0
    0.0670   -1.0960    5.7083 H   0  0  0  0  0  0  0  0  0  0  0  0
   -2.2666   -0.1494    2.4992 H   0  0  0  0  0  0  0  0  0  0  0  0
    5.2240   -3.4140   -4.2973 H   0  0  0  0  0  0  0  0  0  0  0  0
    4.2414   -4.6320   -3.4571 H   0  0  0  0  0  0  0  0  0  0  0  0
    7.0468   -3.8172   -2.9060 H   0  0  0  0  0  0  0  0  0  0  0  0
    6.3933   -5.4170   -3.2500 H   0  0  0  0  0  0  0  0  0  0  0  0
    8.0889   -8.8737   -0.9835 H   0  0  0  0  0  0  0  0  0  0  0  0
    7.1074  -10.2683   -1.3639 H   0  0  0  0  0  0  0  0  0  0  0  0
    7.1629   -9.6593    0.2729 H   0  0  0  0  0  0  0  0  0  0  0  0
    2.1335   -7.2809   -2.5634 H   0  0  0  0  0  0  0  0  0  0  0  0
    4.3711  -10.4826    0.4228 H   0  0  0  0  0  0  0  0  0  0  0  0
    0.8369   -8.8707   -1.2260 H   0  0  0  0  0  0  0  0  0  0  0  0
    1.9349  -10.3674    0.3119 H   0  0  0  0  0  0  0  0  0  0  0  0
  1  2  2  0  0  0  0
  2  3  1  0  0  0  0
  2  4  1  0  0  0  0
  3  5  1  0  0  0  0
  3 33  1  0  0  0  0
  4  6  2  0  0  0  0
  4  7  1  0  0  0  0
  5  8  1  0  0  0  0
  5 34  1  0  0  0  0
  5 35  1  0  0  0  0
  6  9  1  0  0  0  0
  7 10  2  0  0  0  0
  7 36  1  0  0  0  0
  8 11  2  0  0  0  0
  8 12  1  0  0  0  0
  9 13  2  0  0  0  0
  9 14  1  0  0  0  0
 10 13  1  0  0  0  0
 10 37  1  0  0  0  0
 11 15  1  0  0  0  0
 11 38  1  0  0  0  0
 12 16  2  0  0  0  0
 12 39  1  0  0  0  0
 13 17  1  0  0  0  0
 14 18  1  0  0  0  0
 14 40  1  0  0  0  0
 14 41  1  0  0  0  0
 15 19  2  0  0  0  0
 15 42  1  0  0  0  0
 16 19  1  0  0  0  0
 16 43  1  0  0  0  0
 17 20  1  0  0  0  0
 17 44  1  0  0  0  0
 17 45  1  0  0  0  0
 18 21  1  0  0  0  0
 18 20  1  0  0  0  0
 20 46  1  0  0  0  0
 20 47  1  0  0  0  0
 21 22  2  0  0  0  0
 21 23  1  0  0  0  0
 23 24  1  0  0  0  0
 23 25  2  0  0  0  0
 24 26  1  0  0  0  0
 25 27  1  0  0  0  0
 25 28  1  0  0  0  0
 26 29  2  0  0  0  0
 26 27  1  0  0  0  0
 27 30  2  0  0  0  0
 28 48  1  0  0  0  0
 28 49  1  0  0  0  0
 28 50  1  0  0  0  0
 29 31  1  0  0  0  0
 29 51  1  0  0  0  0
 30 32  1  0  0  0  0
 30 52  1  0  0  0  0
 31 32  2  0  0  0  0
 31 53  1  0  0  0  0
 32 54  1  0  0  0  0
M  END
>  <Molecule Name>
CTX-1019471

>  <SMILES>
CC1=C(OC2=C1C=CC=C2)C(=O)N1CCC2=C(C1)N=C(C=C2)C(=O)NCC1=CC=NC=C1

>  <Batch Name>
CTX-1019471-1

>  <Batch Created Date>
2021-07-30

>  <Batch ID>
CTX-1019471-1

>  <External ID>
P841-0084

>  <Stereochemistry>
Achiral

>  <Amount 1>
2.9

>  <Unit 1>
mg

>  <CRO 1>
Pharmaron

>  <CRO 1 Total Amount>
11.9

>  <CRO 1 Unit>
mg

>  <Pharmaron Solubility (PBS, pH 7.4): Aqueous Solubility - Batch Mean (uM)>
12.55

>  <Pharmaron Solubility (PBS, pH 7.4): Aqueous Solubility - Batch Mean (uM) Standard Deviation (±)>


>  <Pharmaron Solubility (PBS, pH 7.4): Aqueous Solubility - Batch Mean (uM) Count>
1.0

>  <log P>
2.46

>  <log D>
2.46

>  <Pharmaron Caliper Assay (CDK2/CCNE1): Minimum measured (%)>
60.9

>  <Pharmaron Caliper Assay (CDK2/CCNE1): IC50 - Batch Mean (uM)>
3.25

>  <Pharmaron ADPGLO (CDK2/E1-25C): Minimum measured (%)>
82.7

>  <Pharmaron ADPGLO (CDK2/E1-25C): IC50 - Batch Mean (uM)>
10.0

>  <Pharmaron ADPGLO (CDK2/E1-37C): Minimum measured (%)>
105.0

>  <Pharmaron ADPGLO (CDK2/E1-37C): IC50 - Batch Mean (uM)>
10.0

>  <IncuCyte Kuramochi RB-WT: IC50 - Batch Mean (uM)>
20.0

>  <IncuCyte Kuramochi RB-KO: IC50 - Batch Mean (uM)>
12.0

>  <DSF (npCDK2/CCNE1): dTm D - Batch Mean [Concentration: 100]>


>  <DSF (npCDK2/CCNE1): dTm D - Batch Mean [Concentration: 20.0]>
1.0170000000000001

>  <DSF (pCDK2/CCNE1): dTm D - Batch Mean [Concentration: 100]>


>  <DSF (pCDK2/CCNE1): dTm D - Batch Mean [Concentration: 20.0]>


>  <RLM: t1/2 - Batch Mean (Min)>


>  <RLM: Cl int - Batch Mean (uL/min/mg protein)>


>  <RLM: ER (Hepatic extraction ratio) - Batch Mean>


>  <HLM: t1/2 - Batch Mean (Min)>


>  <HLM: Cl int - Batch Mean (uL/min/mg protein)>


>  <HLM: ER (Hepatic extraction ratio) - Batch Mean>


>  <MDCK-WT 4% BSA: Papp (A-B) - Batch Mean (10-6, cm/s)>


>  <MDCK-WT 4% BSA: Papp (B-A) - Batch Mean (10-6, cm/s)>


>  <MDCK-WT 4% BSA: Efflux Ratio - Batch Mean>


>  <MDCK-WT 4% BSA: ~Net A_B - Batch Mean (10-6, cm/s)>


>  <pIC50>
5.488117

>  <Selection_1>
Y

>  <Selection_N>


>  <Serie>
Naphthyridine

>  <Selection_T>
N

>  <Train_Vs_Test>


$$$$
CTX-1017233
 OpenBabel08272613263D

 73 78  0  0  0  0  0  0  0  0999 V2000
    1.8674    1.1483   -0.5899 O   0  0  0  0  0  0  0  0  0  0  0  0
    2.4167    0.1383   -0.1472 C   0  0  0  0  0  0  0  0  0  0  0  0
    2.3805   -0.2090    1.1895 N   0  0  0  0  0  0  0  0  0  0  0  0
    3.1227   -0.8160   -1.0630 C   0  0  0  0  0  0  0  0  0  0  0  0
    1.6754    0.5822    2.1667 C   0  0  0  0  0  0  0  0  0  0  0  0
    4.0445   -1.6797   -0.5463 N   0  0  0  0  0  0  0  0  0  0  0  0
    2.7584   -0.7750   -2.4080 C   0  0  0  0  0  0  0  0  0  0  0  0
    2.6062    1.0282    3.2585 C   0  0  0  0  0  0  0  0  0  0  0  0
    4.6564   -2.5307   -1.4229 C   0  0  0  0  0  0  0  0  0  0  0  0
    3.3768   -1.6590   -3.2750 C   0  0  0  0  0  0  0  0  0  0  0  0
    3.3361    2.2102    3.1170 C   0  0  0  0  0  0  0  0  0  0  0  0
    2.7896    0.2598    4.4111 C   0  0  0  0  0  0  0  0  0  0  0  0
    4.3468   -2.5421   -2.7928 C   0  0  0  0  0  0  0  0  0  0  0  0
    5.7350   -3.4729   -0.8781 C   0  0  0  0  0  0  0  0  0  0  0  0
    4.2296    2.6102    4.1131 C   0  0  0  0  0  0  0  0  0  0  0  0
    3.6856    0.6742    5.4046 C   0  0  0  0  0  0  0  0  0  0  0  0
    4.9604   -3.5382   -3.7427 C   0  0  0  0  0  0  0  0  0  0  0  0
    6.0333   -4.5891   -1.7816 N   0  0  0  0  0  0  0  0  0  0  0  0
    4.4289    1.8536    5.2769 C   0  0  0  0  0  0  0  0  0  0  0  0
    6.1999   -4.2315   -3.1835 C   0  0  0  0  0  0  0  0  0  0  0  0
    6.4474   -5.8285   -1.2707 C   0  0  0  0  0  0  0  0  0  0  0  0
    5.2776    2.3212    6.2618 N   0  0  0  0  0  0  0  0  0  0  0  0
    6.9089   -5.9199   -0.1319 O   0  0  0  0  0  0  0  0  0  0  0  0
    6.0555   -7.0067   -2.0606 C   0  0  0  0  0  0  0  0  0  0  0  0
    5.1239    1.9280    7.6668 C   0  0  0  0  0  0  0  0  0  0  0  0
    6.6540    2.7155    5.9125 C   0  0  0  0  0  0  0  0  0  0  0  0
    4.9105   -6.8098   -2.8117 O   0  0  0  0  0  0  0  0  0  0  0  0
    6.0845   -8.3770   -1.7668 C   0  0  0  0  0  0  0  0  0  0  0  0
    5.5833    3.1038    8.5618 C   0  0  0  0  0  0  0  0  0  0  0  0
    7.1090    3.8642    6.8449 C   0  0  0  0  0  0  0  0  0  0  0  0
    4.0418   -7.7429   -2.3552 C   0  0  0  0  0  0  0  0  0  0  0  0
    4.7078   -8.6828   -1.5884 C   0  0  0  0  0  0  0  0  0  0  0  0
    7.2004   -9.3483   -1.6610 C   0  0  0  0  0  0  0  0  0  0  0  0
    6.9765    3.5284    8.2840 N   0  3  0  0  0  0  0  0  0  0  0  0
    2.6865   -7.7195   -2.5699 C   0  0  0  0  0  0  0  0  0  0  0  0
    3.9603   -9.6691   -0.9253 C   0  0  0  0  0  0  0  0  0  0  0  0
    7.3297    4.6787    9.1123 C   0  0  0  0  0  0  0  0  0  0  0  0
    1.9411   -8.6754   -1.8696 C   0  0  0  0  0  0  0  0  0  0  0  0
    2.5632   -9.6175   -1.0432 C   0  0  0  0  0  0  0  0  0  0  0  0
    2.8510   -1.0222    1.4839 H   0  0  0  0  0  0  0  0  0  0  0  0
    0.8891   -0.0049    2.5932 H   0  0  0  0  0  0  0  0  0  0  0  0
    1.2717    1.4472    1.6834 H   0  0  0  0  0  0  0  0  0  0  0  0
    2.0493   -0.1060   -2.7468 H   0  0  0  0  0  0  0  0  0  0  0  0
    3.1223   -1.6661   -4.2751 H   0  0  0  0  0  0  0  0  0  0  0  0
    3.2147    2.7909    2.2726 H   0  0  0  0  0  0  0  0  0  0  0  0
    2.2615   -0.6186    4.5310 H   0  0  0  0  0  0  0  0  0  0  0  0
    5.3987   -3.8715    0.0562 H   0  0  0  0  0  0  0  0  0  0  0  0
    6.6330   -2.9013   -0.7696 H   0  0  0  0  0  0  0  0  0  0  0  0
    4.7583    3.4877    3.9891 H   0  0  0  0  0  0  0  0  0  0  0  0
    3.8005    0.0960    6.2516 H   0  0  0  0  0  0  0  0  0  0  0  0
    5.2358   -3.0247   -4.6401 H   0  0  0  0  0  0  0  0  0  0  0  0
    4.2276   -4.2980   -3.9175 H   0  0  0  0  0  0  0  0  0  0  0  0
    7.0371   -3.5715   -3.2755 H   0  0  0  0  0  0  0  0  0  0  0  0
    6.3571   -5.1318   -3.7400 H   0  0  0  0  0  0  0  0  0  0  0  0
    5.7251    1.0659    7.8677 H   0  0  0  0  0  0  0  0  0  0  0  0
    4.1003    1.6919    7.8704 H   0  0  0  0  0  0  0  0  0  0  0  0
    6.6836    3.0474    4.8957 H   0  0  0  0  0  0  0  0  0  0  0  0
    7.3081    1.8771    6.0310 H   0  0  0  0  0  0  0  0  0  0  0  0
    5.5162    2.8003    9.5857 H   0  0  0  0  0  0  0  0  0  0  0  0
    4.9451    3.9365    8.3515 H   0  0  0  0  0  0  0  0  0  0  0  0
    6.5110    4.7275    6.6395 H   0  0  0  0  0  0  0  0  0  0  0  0
    8.1462    4.0423    6.6514 H   0  0  0  0  0  0  0  0  0  0  0  0
    8.1281   -8.8468   -1.8418 H   0  0  0  0  0  0  0  0  0  0  0  0
    7.0675  -10.1246   -2.3853 H   0  0  0  0  0  0  0  0  0  0  0  0
    7.2107   -9.7742   -0.6794 H   0  0  0  0  0  0  0  0  0  0  0  0
    7.6147    2.7656    8.5101 H   0  0  0  0  0  0  0  0  0  0  0  0
    2.2444   -7.0395   -3.2080 H   0  0  0  0  0  0  0  0  0  0  0  0
    4.4225  -10.4064   -0.3706 H   0  0  0  0  0  0  0  0  0  0  0  0
    6.6714    5.4928    8.8914 H   0  0  0  0  0  0  0  0  0  0  0  0
    8.3386    4.9699    8.9068 H   0  0  0  0  0  0  0  0  0  0  0  0
    7.2377    4.4159   10.1455 H   0  0  0  0  0  0  0  0  0  0  0  0
    0.9135   -8.6853   -1.9647 H   0  0  0  0  0  0  0  0  0  0  0  0
    1.9844  -10.2860   -0.5110 H   0  0  0  0  0  0  0  0  0  0  0  0
  1  2  2  0  0  0  0
  2  3  1  0  0  0  0
  2  4  1  0  0  0  0
  3  5  1  0  0  0  0
  3 40  1  0  0  0  0
  4  6  2  0  0  0  0
  4  7  1  0  0  0  0
  5  8  1  0  0  0  0
  5 41  1  0  0  0  0
  5 42  1  0  0  0  0
  6  9  1  0  0  0  0
  7 10  2  0  0  0  0
  7 43  1  0  0  0  0
  8 11  2  0  0  0  0
  8 12  1  0  0  0  0
  9 13  2  0  0  0  0
  9 14  1  0  0  0  0
 10 13  1  0  0  0  0
 10 44  1  0  0  0  0
 11 15  1  0  0  0  0
 11 45  1  0  0  0  0
 12 16  2  0  0  0  0
 12 46  1  0  0  0  0
 13 17  1  0  0  0  0
 14 18  1  0  0  0  0
 14 47  1  0  0  0  0
 14 48  1  0  0  0  0
 15 19  2  0  0  0  0
 15 49  1  0  0  0  0
 16 19  1  0  0  0  0
 16 50  1  0  0  0  0
 17 20  1  0  0  0  0
 17 51  1  0  0  0  0
 17 52  1  0  0  0  0
 18 21  1  0  0  0  0
 18 20  1  0  0  0  0
 19 22  1  0  0  0  0
 20 53  1  0  0  0  0
 20 54  1  0  0  0  0
 21 23  2  0  0  0  0
 21 24  1  0  0  0  0
 22 25  1  0  0  0  0
 22 26  1  0  0  0  0
 24 27  1  0  0  0  0
 24 28  2  0  0  0  0
 25 29  1  0  0  0  0
 25 55  1  0  0  0  0
 25 56  1  0  0  0  0
 26 30  1  0  0  0  0
 26 57  1  0  0  0  0
 26 58  1  0  0  0  0
 27 31  1  0  0  0  0
 28 32  1  0  0  0  0
 28 33  1  0  0  0  0
 29 34  1  0  0  0  0
 29 59  1  0  0  0  0
 29 60  1  0  0  0  0
 30 34  1  0  0  0  0
 30 61  1  0  0  0  0
 30 62  1  0  0  0  0
 31 35  2  0  0  0  0
 31 32  1  0  0  0  0
 32 36  2  0  0  0  0
 33 63  1  0  0  0  0
 33 64  1  0  0  0  0
 33 65  1  0  0  0  0
 34 37  1  0  0  0  0
 34 66  1  0  0  0  0
 35 38  1  0  0  0  0
 35 67  1  0  0  0  0
 36 39  1  0  0  0  0
 36 68  1  0  0  0  0
 37 69  1  0  0  0  0
 37 70  1  0  0  0  0
 37 71  1  0  0  0  0
 38 39  2  0  0  0  0
 38 72  1  0  0  0  0
 39 73  1  0  0  0  0
M  CHG  1  34   1
M  END
>  <Molecule Name>
CTX-1017233

>  <SMILES>
CN1CCN(CC1)C1=CC=C(CNC(=O)C2=NC3=C(CCN(C3)C(=O)C3=C(C)C4=CC=CC=C4O3)C=C2)C=C1

>  <Batch Name>
CTX-1017233-3

>  <Batch Created Date>
2021-11-18

>  <Batch ID>
CTX-1017233-3

>  <External ID>
P841-0235

>  <Stereochemistry>
Achiral

>  <Amount 1>
4.3

>  <Unit 1>
mg

>  <CRO 1>
Pharmaron

>  <CRO 1 Total Amount>
36.5

>  <CRO 1 Unit>
mg

>  <Pharmaron Solubility (PBS, pH 7.4): Aqueous Solubility - Batch Mean (uM)>


>  <Pharmaron Solubility (PBS, pH 7.4): Aqueous Solubility - Batch Mean (uM) Standard Deviation (±)>


>  <Pharmaron Solubility (PBS, pH 7.4): Aqueous Solubility - Batch Mean (uM) Count>


>  <log P>
3.63

>  <log D>
3.0

>  <Pharmaron Caliper Assay (CDK2/CCNE1): Minimum measured (%)>
50.0

>  <Pharmaron Caliper Assay (CDK2/CCNE1): IC50 - Batch Mean (uM)>
2.55

>  <Pharmaron ADPGLO (CDK2/E1-25C): Minimum measured (%)>
49.7

>  <Pharmaron ADPGLO (CDK2/E1-25C): IC50 - Batch Mean (uM)>
6.28

>  <Pharmaron ADPGLO (CDK2/E1-37C): Minimum measured (%)>
107.0

>  <Pharmaron ADPGLO (CDK2/E1-37C): IC50 - Batch Mean (uM)>
100

>  <IncuCyte Kuramochi RB-WT: IC50 - Batch Mean (uM)>
7.72

>  <IncuCyte Kuramochi RB-KO: IC50 - Batch Mean (uM)>
6.47

>  <DSF (npCDK2/CCNE1): dTm D - Batch Mean [Concentration: 100]>


>  <DSF (npCDK2/CCNE1): dTm D - Batch Mean [Concentration: 20.0]>
1.7369999999999999

>  <DSF (pCDK2/CCNE1): dTm D - Batch Mean [Concentration: 100]>


>  <DSF (pCDK2/CCNE1): dTm D - Batch Mean [Concentration: 20.0]>
1.092

>  <RLM: t1/2 - Batch Mean (Min)>


>  <RLM: Cl int - Batch Mean (uL/min/mg protein)>


>  <RLM: ER (Hepatic extraction ratio) - Batch Mean>


>  <HLM: t1/2 - Batch Mean (Min)>


>  <HLM: Cl int - Batch Mean (uL/min/mg protein)>


>  <HLM: ER (Hepatic extraction ratio) - Batch Mean>


>  <MDCK-WT 4% BSA: Papp (A-B) - Batch Mean (10-6, cm/s)>


>  <MDCK-WT 4% BSA: Papp (B-A) - Batch Mean (10-6, cm/s)>


>  <MDCK-WT 4% BSA: Efflux Ratio - Batch Mean>


>  <MDCK-WT 4% BSA: ~Net A_B - Batch Mean (10-6, cm/s)>


>  <pIC50>
5.59346

>  <Selection_1>
Y

>  <Selection_N>


>  <Serie>
Naphthyridine

>  <Selection_T>
N

>  <Train_Vs_Test>


$$$$
