CTX-1020912
     RDKit          2D

 37 42  0  0  0  0  0  0  0  0999 V2000
    7.8987    0.9945    0.0000 S   0  0  0  0  0  0  0  0  0  0  0  0
    7.7942    0.0000    0.0000 C   0  0  0  0  0  0  0  0  0  0  0  0
    8.8769    1.2024    0.0000 C   0  0  0  0  0  0  0  0  0  0  0  0
    6.9282   -0.5000    0.0000 C   0  0  0  0  0  0  0  0  0  0  0  0
    8.7077   -0.4067    0.0000 C   0  0  0  0  0  0  0  0  0  0  0  0
    9.3769    0.3364    0.0000 C   0  0  0  0  0  0  0  0  0  0  0  0
    9.3769    2.0684    0.0000 C   0  0  0  0  0  0  0  0  0  0  0  0
    6.0621    0.0000    0.0000 C   0  0  0  0  0  0  0  0  0  0  0  0
    6.9282   -1.4999    0.0000 C   0  0  0  0  0  0  0  0  0  0  0  0
    8.9156   -1.3848    0.0000 C   0  0  0  0  0  0  0  0  0  0  0  0
   10.3769    0.3364    0.0000 C   0  0  0  0  0  0  0  0  0  0  0  0
   10.3769    2.0684    0.0000 C   0  0  0  0  0  0  0  0  0  0  0  0
    5.1961   -0.5000    0.0000 C   0  0  0  0  0  0  0  0  0  0  0  0
    6.0621   -1.9999    0.0000 C   0  0  0  0  0  0  0  0  0  0  0  0
   10.8769    1.2024    0.0000 C   0  0  0  0  0  0  0  0  0  0  0  0
    4.3301    0.0000    0.0000 N   0  0  0  0  0  0  0  0  0  0  0  0
    5.1961   -1.4999    0.0000 C   0  0  0  0  0  0  0  0  0  0  0  0
    3.4641   -0.5000    0.0000 C   0  0  0  0  0  0  0  0  0  0  0  0
    4.3301   -2.0000    0.0000 C   0  0  0  0  0  0  0  0  0  0  0  0
    2.5980    0.0000    0.0000 C   0  0  0  0  0  0  0  0  0  0  0  0
    3.4641   -1.4999    0.0000 C   0  0  0  0  0  0  0  0  0  0  0  0
    2.5980    1.0000    0.0000 O   0  0  0  0  0  0  0  0  0  0  0  0
    1.7320   -0.5000    0.0000 N   0  0  0  0  0  0  0  0  0  0  0  0
    0.8660    0.0000    0.0000 C   0  0  0  0  0  0  0  0  0  0  0  0
    0.0000   -0.5000    0.0000 C   0  0  0  0  0  0  0  0  0  0  0  0
   -0.8660    0.0000    0.0000 C   0  0  0  0  0  0  0  0  0  0  0  0
    0.0000   -1.4999    0.0000 C   0  0  0  0  0  0  0  0  0  0  0  0
   -1.7320   -0.4999    0.0000 C   0  0  0  0  0  0  0  0  0  0  0  0
   -0.8660   -1.9999    0.0000 C   0  0  0  0  0  0  0  0  0  0  0  0
   -1.7320   -1.4999    0.0000 C   0  0  0  0  0  0  0  0  0  0  0  0
   -2.5980   -1.9999    0.0000 N   0  0  0  0  0  0  0  0  0  0  0  0
   -3.4641   -1.4999    0.0000 C   0  0  0  0  0  0  0  0  0  0  0  0
   -2.5980   -2.9999    0.0000 C   0  0  0  0  0  0  0  0  0  0  0  0
   -4.3301   -1.9999    0.0000 C   0  0  0  0  0  0  0  0  0  0  0  0
   -3.4641   -3.4999    0.0000 C   0  0  0  0  0  0  0  0  0  0  0  0
   -4.3301   -2.9999    0.0000 N   0  0  0  0  0  0  0  0  0  0  0  0
   -5.1961   -3.4999    0.0000 C   0  0  0  0  0  0  0  0  0  0  0  0
  1  2  1  0
  1  3  1  0
  2  4  1  0
  2  5  2  0
  3  6  2  0
  3  7  1  0
  4  8  2  0
  4  9  1  0
  5 10  1  0
  6 11  1  0
  7 12  2  0
  8 13  1  0
  9 14  2  0
 11 15  2  0
 13 16  2  0
 13 17  1  0
 16 18  1  0
 17 19  2  0
 18 20  1  0
 18 21  2  0
 20 22  2  0
 20 23  1  0
 23 24  1  0
 24 25  1  0
 25 26  2  0
 25 27  1  0
 26 28  1  0
 27 29  2  0
 28 30  2  0
 30 31  1  0
 31 32  1  0
 31 33  1  0
 32 34  1  0
 33 35  1  0
 34 36  1  0
 36 37  1  0
  5  6  1  0
 12 15  1  0
 14 17  1  0
 19 21  1  0
 29 30  1  0
 35 36  1  0
M  END
>  <Molecule Name>  (1) 
CTX-1020912

>  <SMILES>  (1) 
CN1CCN(CC1)C1=CC=C(CNC(=O)C2=NC3=CC(=CC=C3C=C2)C2=C(C)C3=CC=CC=C3S2)C=C1

>  <Batch Name>  (1) 
CTX-1020912-1

>  <Batch Created Date>  (1) 
2022-01-20

>  <Batch ID>  (1) 
CTX-1020912-1

>  <External ID>  (1) 
P841-0314

>  <Stereochemistry>  (1) 
Achiral

>  <Amount 1>  (1) 
5.5

>  <Unit 1>  (1) 
mg

>  <CRO 1>  (1) 
Pharmaron

>  <CRO 1 Total Amount>  (1) 
3.8

>  <CRO 1 Unit>  (1) 
mg

>  <Pharmaron Solubility (PBS, pH 7.4): Aqueous Solubility - Batch Mean (uM)>  (1) 
0.0037

>  <Pharmaron Solubility (PBS, pH 7.4): Aqueous Solubility - Batch Mean (uM) Standard Deviation (±)>  (1) 


>  <Pharmaron Solubility (PBS, pH 7.4): Aqueous Solubility - Batch Mean (uM) Count>  (1) 
1.0

>  <log P>  (1) 
6.3

>  <log D>  (1) 
5.67

>  <Pharmaron Caliper Assay (CDK2/CCNE1): Minimum measured (%)>  (1) 
84.1

>  <Pharmaron Caliper Assay (CDK2/CCNE1): IC50 - Batch Mean (uM)>  (1) 
47.6

>  <Pharmaron ADPGLO (CDK2/E1-25C): Minimum measured (%)>  (1) 
93.2

>  <Pharmaron ADPGLO (CDK2/E1-25C): IC50 - Batch Mean (uM)>  (1) 
100

>  <Pharmaron ADPGLO (CDK2/E1-37C): Minimum measured (%)>  (1) 
93.2

>  <Pharmaron ADPGLO (CDK2/E1-37C): IC50 - Batch Mean (uM)>  (1) 
100

>  <IncuCyte Kuramochi RB-WT: IC50 - Batch Mean (uM)>  (1) 
4.19

>  <IncuCyte Kuramochi RB-KO: IC50 - Batch Mean (uM)>  (1) 
5.41

>  <DSF (npCDK2/CCNE1): dTm D - Batch Mean [Concentration: 100]>  (1) 


>  <DSF (npCDK2/CCNE1): dTm D - Batch Mean [Concentration: 20.0]>  (1) 
-0.302

>  <DSF (pCDK2/CCNE1): dTm D - Batch Mean [Concentration: 100]>  (1) 


>  <DSF (pCDK2/CCNE1): dTm D - Batch Mean [Concentration: 20.0]>  (1) 
-0.243

>  <RLM: t1/2 - Batch Mean (Min)>  (1) 


>  <RLM: Cl int - Batch Mean (uL/min/mg protein)>  (1) 


>  <RLM: ER (Hepatic extraction ratio) - Batch Mean>  (1) 


>  <HLM: t1/2 - Batch Mean (Min)>  (1) 


>  <HLM: Cl int - Batch Mean (uL/min/mg protein)>  (1) 


>  <HLM: ER (Hepatic extraction ratio) - Batch Mean>  (1) 


>  <MDCK-WT 4% BSA: Papp (A-B) - Batch Mean (10-6, cm/s)>  (1) 


>  <MDCK-WT 4% BSA: Papp (B-A) - Batch Mean (10-6, cm/s)>  (1) 


>  <MDCK-WT 4% BSA: Efflux Ratio - Batch Mean>  (1) 


>  <MDCK-WT 4% BSA: ~Net A_B - Batch Mean (10-6, cm/s)>  (1) 


>  <pIC50>  (1) 
4.322393

>  <Selection_1>  (1) 
Y

>  <Selection_N>  (1) 
N

>  <Serie>  (1) 
Other

>  <Selection_T>  (1) 
N

>  <Train_Vs_Test>  (1) 


$$$$
CTX-1020903
     RDKit          2D

 39 44  0  0  0  0  0  0  0  0999 V2000
    8.0467   -0.8364    0.0000 O   0  0  0  0  0  0  0  0  0  0  0  0
    7.5467   -1.7024    0.0000 C   0  0  0  0  0  0  0  0  0  0  0  0
    6.5467   -1.7024    0.0000 N   0  0  0  0  0  0  0  0  0  0  0  0
    8.0467   -2.5684    0.0000 C   0  0  0  0  0  0  0  0  0  0  0  0
    6.0467   -0.8364    0.0000 C   0  0  0  0  0  0  0  0  0  0  0  0
    6.0467   -2.5684    0.0000 C   0  0  0  0  0  0  0  0  0  0  0  0
    7.6400   -3.4820    0.0000 O   0  0  0  0  0  0  0  0  0  0  0  0
    9.0412   -2.6729    0.0000 C   0  0  0  0  0  0  0  0  0  0  0  0
    5.0467   -0.8364    0.0000 C   0  0  0  0  0  0  0  0  0  0  0  0
    5.0467   -2.5684    0.0000 C   0  0  0  0  0  0  0  0  0  0  0  0
    8.3831   -4.1511    0.0000 C   0  0  0  0  0  0  0  0  0  0  0  0
    9.2492   -3.6511    0.0000 C   0  0  0  0  0  0  0  0  0  0  0  0
    9.7104   -1.9298    0.0000 C   0  0  0  0  0  0  0  0  0  0  0  0
    4.3776   -0.0932    0.0000 N   0  0  0  0  0  0  0  0  0  0  0  0
    4.5467   -1.7024    0.0000 C   0  0  0  0  0  0  0  0  0  0  0  0
    8.3831   -5.1511    0.0000 C   0  0  0  0  0  0  0  0  0  0  0  0
   10.1152   -4.1511    0.0000 C   0  0  0  0  0  0  0  0  0  0  0  0
    3.4641   -0.5000    0.0000 C   0  0  0  0  0  0  0  0  0  0  0  0
    3.5686   -1.4945    0.0000 N   0  0  0  0  0  0  0  0  0  0  0  0
    9.2492   -5.6511    0.0000 C   0  0  0  0  0  0  0  0  0  0  0  0
   10.1152   -5.1511    0.0000 C   0  0  0  0  0  0  0  0  0  0  0  0
    2.5980    0.0000    0.0000 C   0  0  0  0  0  0  0  0  0  0  0  0
    2.8254   -2.1636    0.0000 C   0  0  0  0  0  0  0  0  0  0  0  0
    2.5980    1.0000    0.0000 O   0  0  0  0  0  0  0  0  0  0  0  0
    1.7320   -0.5000    0.0000 N   0  0  0  0  0  0  0  0  0  0  0  0
    0.8660    0.0000    0.0000 C   0  0  0  0  0  0  0  0  0  0  0  0
    0.0000   -0.5000    0.0000 C   0  0  0  0  0  0  0  0  0  0  0  0
   -0.8660    0.0000    0.0000 C   0  0  0  0  0  0  0  0  0  0  0  0
    0.0000   -1.4999    0.0000 C   0  0  0  0  0  0  0  0  0  0  0  0
   -1.7320   -0.4999    0.0000 C   0  0  0  0  0  0  0  0  0  0  0  0
   -0.8660   -1.9999    0.0000 C   0  0  0  0  0  0  0  0  0  0  0  0
   -1.7320   -1.4999    0.0000 C   0  0  0  0  0  0  0  0  0  0  0  0
   -2.5980   -1.9999    0.0000 N   0  0  0  0  0  0  0  0  0  0  0  0
   -3.4641   -1.4999    0.0000 C   0  0  0  0  0  0  0  0  0  0  0  0
   -2.5980   -2.9999    0.0000 C   0  0  0  0  0  0  0  0  0  0  0  0
   -4.3301   -1.9999    0.0000 C   0  0  0  0  0  0  0  0  0  0  0  0
   -3.4641   -3.4999    0.0000 C   0  0  0  0  0  0  0  0  0  0  0  0
   -4.3301   -2.9999    0.0000 N   0  0  0  0  0  0  0  0  0  0  0  0
   -5.1961   -3.4999    0.0000 C   0  0  0  0  0  0  0  0  0  0  0  0
  1  2  2  0
  2  3  1  0
  2  4  1  0
  3  5  1  0
  3  6  1  0
  4  7  1  0
  4  8  2  0
  5  9  1  0
  6 10  1  0
  7 11  1  0
  8 12  1  0
  8 13  1  0
  9 14  1  0
  9 15  2  0
 11 16  2  0
 12 17  2  0
 14 18  2  0
 15 19  1  0
 16 20  1  0
 17 21  1  0
 18 22  1  0
 19 23  1  0
 22 24  2  0
 22 25  1  0
 25 26  1  0
 26 27  1  0
 27 28  2  0
 27 29  1  0
 28 30  1  0
 29 31  2  0
 30 32  2  0
 32 33  1  0
 33 34  1  0
 33 35  1  0
 34 36  1  0
 35 37  1  0
 36 38  1  0
 38 39  1  0
 10 15  1  0
 11 12  1  0
 18 19  1  0
 20 21  2  0
 31 32  1  0
 37 38  1  0
M  END
>  <Molecule Name>  (2) 
CTX-1020903

>  <SMILES>  (2) 
CN1C2=C(CN(CC2)C(=O)C2=C(C)C3=CC=CC=C3O2)N=C1C(=O)NCC1=CC=C(C=C1)N1CCN(C)CC1

>  <Batch Name>  (2) 
CTX-1020903-1

>  <Batch Created Date>  (2) 
2022-01-20

>  <Batch ID>  (2) 
CTX-1020903-1

>  <External ID>  (2) 
P841-0275

>  <Stereochemistry>  (2) 
Achiral

>  <Amount 1>  (2) 
9.1

>  <Unit 1>  (2) 
mg

>  <CRO 1>  (2) 
Pharmaron

>  <CRO 1 Total Amount>  (2) 
16.5

>  <CRO 1 Unit>  (2) 
mg

>  <Pharmaron Solubility (PBS, pH 7.4): Aqueous Solubility - Batch Mean (uM)>  (2) 
52.8358

>  <Pharmaron Solubility (PBS, pH 7.4): Aqueous Solubility - Batch Mean (uM) Standard Deviation (±)>  (2) 


>  <Pharmaron Solubility (PBS, pH 7.4): Aqueous Solubility - Batch Mean (uM) Count>  (2) 
1.0

>  <log P>  (2) 
2.64

>  <log D>  (2) 
2.0

>  <Pharmaron Caliper Assay (CDK2/CCNE1): Minimum measured (%)>  (2) 
17.4

>  <Pharmaron Caliper Assay (CDK2/CCNE1): IC50 - Batch Mean (uM)>  (2) 
0.275

>  <Pharmaron ADPGLO (CDK2/E1-25C): Minimum measured (%)>  (2) 
30.6

>  <Pharmaron ADPGLO (CDK2/E1-25C): IC50 - Batch Mean (uM)>  (2) 
2.67

>  <Pharmaron ADPGLO (CDK2/E1-37C): Minimum measured (%)>  (2) 
71.8

>  <Pharmaron ADPGLO (CDK2/E1-37C): IC50 - Batch Mean (uM)>  (2) 
16.8

>  <IncuCyte Kuramochi RB-WT: IC50 - Batch Mean (uM)>  (2) 
7.7

>  <IncuCyte Kuramochi RB-KO: IC50 - Batch Mean (uM)>  (2) 
7.41

>  <DSF (npCDK2/CCNE1): dTm D - Batch Mean [Concentration: 100]>  (2) 


>  <DSF (npCDK2/CCNE1): dTm D - Batch Mean [Concentration: 20.0]>  (2) 
3.807

>  <DSF (pCDK2/CCNE1): dTm D - Batch Mean [Concentration: 100]>  (2) 


>  <DSF (pCDK2/CCNE1): dTm D - Batch Mean [Concentration: 20.0]>  (2) 
2.451

>  <RLM: t1/2 - Batch Mean (Min)>  (2) 


>  <RLM: Cl int - Batch Mean (uL/min/mg protein)>  (2) 


>  <RLM: ER (Hepatic extraction ratio) - Batch Mean>  (2) 


>  <HLM: t1/2 - Batch Mean (Min)>  (2) 


>  <HLM: Cl int - Batch Mean (uL/min/mg protein)>  (2) 


>  <HLM: ER (Hepatic extraction ratio) - Batch Mean>  (2) 


>  <MDCK-WT 4% BSA: Papp (A-B) - Batch Mean (10-6, cm/s)>  (2) 


>  <MDCK-WT 4% BSA: Papp (B-A) - Batch Mean (10-6, cm/s)>  (2) 


>  <MDCK-WT 4% BSA: Efflux Ratio - Batch Mean>  (2) 


>  <MDCK-WT 4% BSA: ~Net A_B - Batch Mean (10-6, cm/s)>  (2) 


>  <pIC50>  (2) 
6.560667

>  <Selection_1>  (2) 
Y

>  <Selection_N>  (2) 
N

>  <Serie>  (2) 
Other

>  <Selection_T>  (2) 
N

>  <Train_Vs_Test>  (2) 


$$$$
CTX-1020902
     RDKit          2D

 38 43  0  0  0  0  0  0  0  0999 V2000
    7.7942    1.0000    0.0000 O   0  0  0  0  0  0  0  0  0  0  0  0
    7.7942    0.0000    0.0000 C   0  0  0  0  0  0  0  0  0  0  0  0
    6.9282   -0.5000    0.0000 N   0  0  0  0  0  0  0  0  0  0  0  0
    8.6602   -0.5000    0.0000 C   0  0  0  0  0  0  0  0  0  0  0  0
    6.0621    0.0000    0.0000 C   0  0  0  0  0  0  0  0  0  0  0  0
    6.9282   -1.4999    0.0000 C   0  0  0  0  0  0  0  0  0  0  0  0
    8.7647   -1.4945    0.0000 O   0  0  0  0  0  0  0  0  0  0  0  0
    9.5737   -0.0932    0.0000 C   0  0  0  0  0  0  0  0  0  0  0  0
    5.1961   -0.5000    0.0000 C   0  0  0  0  0  0  0  0  0  0  0  0
    6.0621   -1.9999    0.0000 C   0  0  0  0  0  0  0  0  0  0  0  0
    9.7429   -1.7024    0.0000 C   0  0  0  0  0  0  0  0  0  0  0  0
   10.2429   -0.8364    0.0000 C   0  0  0  0  0  0  0  0  0  0  0  0
    9.7817    0.8848    0.0000 C   0  0  0  0  0  0  0  0  0  0  0  0
    4.3301    0.0000    0.0000 N   0  0  0  0  0  0  0  0  0  0  0  0
    5.1961   -1.4999    0.0000 C   0  0  0  0  0  0  0  0  0  0  0  0
   10.2429   -2.5684    0.0000 C   0  0  0  0  0  0  0  0  0  0  0  0
   11.2429   -0.8364    0.0000 C   0  0  0  0  0  0  0  0  0  0  0  0
    3.4641   -0.5000    0.0000 C   0  0  0  0  0  0  0  0  0  0  0  0
    4.3301   -2.0000    0.0000 C   0  0  0  0  0  0  0  0  0  0  0  0
   11.2429   -2.5684    0.0000 C   0  0  0  0  0  0  0  0  0  0  0  0
   11.7429   -1.7024    0.0000 C   0  0  0  0  0  0  0  0  0  0  0  0
    3.4641   -1.4999    0.0000 C   0  0  0  0  0  0  0  0  0  0  0  0
    2.5980    0.0000    0.0000 C   0  0  0  0  0  0  0  0  0  0  0  0
    1.7320   -0.5000    0.0000 N   0  0  0  0  0  0  0  0  0  0  0  0
    0.8660    0.0000    0.0000 C   0  0  0  0  0  0  0  0  0  0  0  0
    0.0000   -0.5000    0.0000 C   0  0  0  0  0  0  0  0  0  0  0  0
   -0.8660    0.0000    0.0000 C   0  0  0  0  0  0  0  0  0  0  0  0
    0.0000   -1.4999    0.0000 C   0  0  0  0  0  0  0  0  0  0  0  0
   -1.7320   -0.4999    0.0000 C   0  0  0  0  0  0  0  0  0  0  0  0
   -0.8660   -1.9999    0.0000 C   0  0  0  0  0  0  0  0  0  0  0  0
   -1.7320   -1.4999    0.0000 C   0  0  0  0  0  0  0  0  0  0  0  0
   -2.5980   -1.9999    0.0000 N   0  0  0  0  0  0  0  0  0  0  0  0
   -3.4641   -1.4999    0.0000 C   0  0  0  0  0  0  0  0  0  0  0  0
   -2.5980   -2.9999    0.0000 C   0  0  0  0  0  0  0  0  0  0  0  0
   -4.3301   -1.9999    0.0000 C   0  0  0  0  0  0  0  0  0  0  0  0
   -3.4641   -3.4999    0.0000 C   0  0  0  0  0  0  0  0  0  0  0  0
   -4.3301   -2.9999    0.0000 N   0  0  0  0  0  0  0  0  0  0  0  0
   -5.1961   -3.4999    0.0000 C   0  0  0  0  0  0  0  0  0  0  0  0
  1  2  2  0
  2  3  1  0
  2  4  1  0
  3  5  1  0
  3  6  1  0
  4  7  1  0
  4  8  2  0
  5  9  1  0
  6 10  1  0
  7 11  1  0
  8 12  1  0
  8 13  1  0
  9 14  2  0
  9 15  1  0
 11 16  2  0
 12 17  2  0
 14 18  1  0
 15 19  2  0
 16 20  1  0
 17 21  1  0
 18 22  2  0
 18 23  1  0
 23 24  1  0
 24 25  1  0
 25 26  1  0
 26 27  2  0
 26 28  1  0
 27 29  1  0
 28 30  2  0
 29 31  2  0
 31 32  1  0
 32 33  1  0
 32 34  1  0
 33 35  1  0
 34 36  1  0
 35 37  1  0
 37 38  1  0
 10 15  1  0
 11 12  1  0
 19 22  1  0
 20 21  2  0
 30 31  1  0
 36 37  1  0
M  END
>  <Molecule Name>  (3) 
CTX-1020902

>  <SMILES>  (3) 
CN1CCN(CC1)C1=CC=C(CNCC2=CC=C3CCN(CC3=N2)C(=O)C2=C(C)C3=CC=CC=C3O2)C=C1

>  <Batch Name>  (3) 
CTX-1020902-1

>  <Batch Created Date>  (3) 
2022-01-20

>  <Batch ID>  (3) 
CTX-1020902-1

>  <External ID>  (3) 
P841-0274

>  <Stereochemistry>  (3) 
Achiral

>  <Amount 1>  (3) 
2.8

>  <Unit 1>  (3) 
mg

>  <CRO 1>  (3) 
Pharmaron

>  <CRO 1 Total Amount>  (3) 
2.1

>  <CRO 1 Unit>  (3) 
mg

>  <Pharmaron Solubility (PBS, pH 7.4): Aqueous Solubility - Batch Mean (uM)>  (3) 
239.5833

>  <Pharmaron Solubility (PBS, pH 7.4): Aqueous Solubility - Batch Mean (uM) Standard Deviation (±)>  (3) 


>  <Pharmaron Solubility (PBS, pH 7.4): Aqueous Solubility - Batch Mean (uM) Count>  (3) 
1.0

>  <log P>  (3) 
3.81

>  <log D>  (3) 
2.67

>  <Pharmaron Caliper Assay (CDK2/CCNE1): Minimum measured (%)>  (3) 
76.3

>  <Pharmaron Caliper Assay (CDK2/CCNE1): IC50 - Batch Mean (uM)>  (3) 
45.6

>  <Pharmaron ADPGLO (CDK2/E1-25C): Minimum measured (%)>  (3) 
94.3

>  <Pharmaron ADPGLO (CDK2/E1-25C): IC50 - Batch Mean (uM)>  (3) 
100

>  <Pharmaron ADPGLO (CDK2/E1-37C): Minimum measured (%)>  (3) 
98.0

>  <Pharmaron ADPGLO (CDK2/E1-37C): IC50 - Batch Mean (uM)>  (3) 
100

>  <IncuCyte Kuramochi RB-WT: IC50 - Batch Mean (uM)>  (3) 
5.57

>  <IncuCyte Kuramochi RB-KO: IC50 - Batch Mean (uM)>  (3) 
5.79

>  <DSF (npCDK2/CCNE1): dTm D - Batch Mean [Concentration: 100]>  (3) 


>  <DSF (npCDK2/CCNE1): dTm D - Batch Mean [Concentration: 20.0]>  (3) 
-0.034

>  <DSF (pCDK2/CCNE1): dTm D - Batch Mean [Concentration: 100]>  (3) 


>  <DSF (pCDK2/CCNE1): dTm D - Batch Mean [Concentration: 20.0]>  (3) 
-0.021

>  <RLM: t1/2 - Batch Mean (Min)>  (3) 
2.1

>  <RLM: Cl int - Batch Mean (uL/min/mg protein)>  (3) 
659.88

>  <RLM: ER (Hepatic extraction ratio) - Batch Mean>  (3) 
0.9590000000000001

>  <HLM: t1/2 - Batch Mean (Min)>  (3) 
9.86

>  <HLM: Cl int - Batch Mean (uL/min/mg protein)>  (3) 
141.27

>  <HLM: ER (Hepatic extraction ratio) - Batch Mean>  (3) 
0.873

>  <MDCK-WT 4% BSA: Papp (A-B) - Batch Mean (10-6, cm/s)>  (3) 


>  <MDCK-WT 4% BSA: Papp (B-A) - Batch Mean (10-6, cm/s)>  (3) 


>  <MDCK-WT 4% BSA: Efflux Ratio - Batch Mean>  (3) 


>  <MDCK-WT 4% BSA: ~Net A_B - Batch Mean (10-6, cm/s)>  (3) 


>  <pIC50>  (3) 
4.341035

>  <Selection_1>  (3) 
Y

>  <Selection_N>  (3) 


>  <Serie>  (3) 
Naphthyridine

>  <Selection_T>  (3) 
N

>  <Train_Vs_Test>  (3) 


$$$$
CTX-1020882
     RDKit          2D

 39 44  0  0  0  0  0  0  0  0999 V2000
    6.5664   -0.1398    0.0000 S   0  0  0  0  0  0  0  0  0  0  0  0
    5.1961   -0.7500    0.0000 C   0  0  0  0  0  0  0  0  0  0  0  0
    7.5701   -1.2546    0.0000 C   0  0  0  0  0  0  0  0  0  0  0  0
    3.8971    0.0000    0.0000 C   0  0  0  0  0  0  0  0  0  0  0  0
    5.3529   -2.2417    0.0000 C   0  0  0  0  0  0  0  0  0  0  0  0
    6.8201   -2.5536    0.0000 C   0  0  0  0  0  0  0  0  0  0  0  0
    9.0701   -1.2546    0.0000 C   0  0  0  0  0  0  0  0  0  0  0  0
    3.8971    1.5000    0.0000 O   0  0  0  0  0  0  0  0  0  0  0  0
    2.5980   -0.7500    0.0000 N   0  0  0  0  0  0  0  0  0  0  0  0
    7.5701   -3.8526    0.0000 C   0  0  0  0  0  0  0  0  0  0  0  0
    9.8201   -2.5536    0.0000 C   0  0  0  0  0  0  0  0  0  0  0  0
    1.2990    0.0000    0.0000 C   0  0  0  0  0  0  0  0  0  0  0  0
    9.0701   -3.8526    0.0000 N   0  0  0  0  0  0  0  0  0  0  0  0
    0.0000   -0.7500    0.0000 C   0  0  0  0  0  0  0  0  0  0  0  0
    9.8201   -5.1517    0.0000 C   0  0  0  0  0  0  0  0  0  0  0  0
   -1.2990    0.0000    0.0000 C   0  0  0  0  0  0  0  0  0  0  0  0
    0.0000   -2.2499    0.0000 C   0  0  0  0  0  0  0  0  0  0  0  0
    9.0701   -6.4507    0.0000 O   0  0  0  0  0  0  0  0  0  0  0  0
   11.3201   -5.1517    0.0000 C   0  0  0  0  0  0  0  0  0  0  0  0
   -2.5980   -0.7499    0.0000 C   0  0  0  0  0  0  0  0  0  0  0  0
   -1.2990   -2.9999    0.0000 C   0  0  0  0  0  0  0  0  0  0  0  0
   12.2018   -6.3652    0.0000 O   0  0  0  0  0  0  0  0  0  0  0  0
   12.2018   -3.9382    0.0000 C   0  0  0  0  0  0  0  0  0  0  0  0
   -2.5980   -2.2499    0.0000 C   0  0  0  0  0  0  0  0  0  0  0  0
   13.6284   -5.9017    0.0000 C   0  0  0  0  0  0  0  0  0  0  0  0
   13.6284   -4.4017    0.0000 C   0  0  0  0  0  0  0  0  0  0  0  0
   11.7383   -2.5116    0.0000 C   0  0  0  0  0  0  0  0  0  0  0  0
   -3.8971   -2.9999    0.0000 N   0  0  0  0  0  0  0  0  0  0  0  0
   14.9274   -6.6517    0.0000 C   0  0  0  0  0  0  0  0  0  0  0  0
   14.9274   -3.6517    0.0000 C   0  0  0  0  0  0  0  0  0  0  0  0
   -5.1961   -2.2499    0.0000 C   0  0  0  0  0  0  0  0  0  0  0  0
   -3.8971   -4.4999    0.0000 C   0  0  0  0  0  0  0  0  0  0  0  0
   14.9274   -8.1517    0.0000 O   0  0  0  0  0  0  0  0  0  0  0  0
   16.2265   -5.9017    0.0000 C   0  0  0  0  0  0  0  0  0  0  0  0
   16.2265   -4.4017    0.0000 C   0  0  0  0  0  0  0  0  0  0  0  0
   -6.4951   -2.9999    0.0000 C   0  0  0  0  0  0  0  0  0  0  0  0
   -5.1961   -5.2499    0.0000 C   0  0  0  0  0  0  0  0  0  0  0  0
   -6.4951   -4.4999    0.0000 N   0  0  0  0  0  0  0  0  0  0  0  0
   -7.7942   -5.2499    0.0000 C   0  0  0  0  0  0  0  0  0  0  0  0
  1  2  1  0
  1  3  1  0
  2  4  1  0
  2  5  2  0
  3  6  2  0
  3  7  1  0
  4  8  2  0
  4  9  1  0
  6 10  1  0
  7 11  1  0
  9 12  1  0
 10 13  1  0
 12 14  1  0
 13 15  1  0
 14 16  2  0
 14 17  1  0
 15 18  2  0
 15 19  1  0
 16 20  1  0
 17 21  2  0
 19 22  1  0
 19 23  2  0
 20 24  2  0
 22 25  1  0
 23 26  1  0
 23 27  1  0
 24 28  1  0
 25 29  2  0
 26 30  2  0
 28 31  1  0
 28 32  1  0
 29 33  1  0
 29 34  1  0
 30 35  1  0
 31 36  1  0
 32 37  1  0
 36 38  1  0
 38 39  1  0
  5  6  1  0
 11 13  1  0
 21 24  1  0
 25 26  1  0
 34 35  2  0
 37 38  1  0
M  END
>  <Molecule Name>  (4) 
CTX-1020882

>  <SMILES>  (4) 
CN1CCN(CC1)C1=CC=C(CNC(=O)C2=CC3=C(CCN(C3)C(=O)C3=C(C)C4=CC=CC(O)=C4O3)S2)C=C1

>  <Batch Name>  (4) 
CTX-1020882-1

>  <Batch Created Date>  (4) 
2022-01-13

>  <Batch ID>  (4) 
CTX-1020882-1

>  <External ID>  (4) 
CD-44-2-D

>  <Stereochemistry>  (4) 
Achiral

>  <Amount 1>  (4) 
7.2

>  <Unit 1>  (4) 
mg

>  <CRO 1>  (4) 
Pharmaron

>  <CRO 1 Total Amount>  (4) 
35.5

>  <CRO 1 Unit>  (4) 
mg

>  <Pharmaron Solubility (PBS, pH 7.4): Aqueous Solubility - Batch Mean (uM)>  (4) 
7.6644

>  <Pharmaron Solubility (PBS, pH 7.4): Aqueous Solubility - Batch Mean (uM) Standard Deviation (±)>  (4) 


>  <Pharmaron Solubility (PBS, pH 7.4): Aqueous Solubility - Batch Mean (uM) Count>  (4) 
1.0

>  <log P>  (4) 
3.51

>  <log D>  (4) 
3.38

>  <Pharmaron Caliper Assay (CDK2/CCNE1): Minimum measured (%)>  (4) 
30.0

>  <Pharmaron Caliper Assay (CDK2/CCNE1): IC50 - Batch Mean (uM)>  (4) 
4.72

>  <Pharmaron ADPGLO (CDK2/E1-25C): Minimum measured (%)>  (4) 
71.5

>  <Pharmaron ADPGLO (CDK2/E1-25C): IC50 - Batch Mean (uM)>  (4) 
5.03

>  <Pharmaron ADPGLO (CDK2/E1-37C): Minimum measured (%)>  (4) 
101.0

>  <Pharmaron ADPGLO (CDK2/E1-37C): IC50 - Batch Mean (uM)>  (4) 
100

>  <IncuCyte Kuramochi RB-WT: IC50 - Batch Mean (uM)>  (4) 
8.68

>  <IncuCyte Kuramochi RB-KO: IC50 - Batch Mean (uM)>  (4) 
11.0

>  <DSF (npCDK2/CCNE1): dTm D - Batch Mean [Concentration: 100]>  (4) 


>  <DSF (npCDK2/CCNE1): dTm D - Batch Mean [Concentration: 20.0]>  (4) 
1.117

>  <DSF (pCDK2/CCNE1): dTm D - Batch Mean [Concentration: 100]>  (4) 


>  <DSF (pCDK2/CCNE1): dTm D - Batch Mean [Concentration: 20.0]>  (4) 
0.517

>  <RLM: t1/2 - Batch Mean (Min)>  (4) 


>  <RLM: Cl int - Batch Mean (uL/min/mg protein)>  (4) 


>  <RLM: ER (Hepatic extraction ratio) - Batch Mean>  (4) 


>  <HLM: t1/2 - Batch Mean (Min)>  (4) 


>  <HLM: Cl int - Batch Mean (uL/min/mg protein)>  (4) 


>  <HLM: ER (Hepatic extraction ratio) - Batch Mean>  (4) 


>  <MDCK-WT 4% BSA: Papp (A-B) - Batch Mean (10-6, cm/s)>  (4) 


>  <MDCK-WT 4% BSA: Papp (B-A) - Batch Mean (10-6, cm/s)>  (4) 


>  <MDCK-WT 4% BSA: Efflux Ratio - Batch Mean>  (4) 


>  <MDCK-WT 4% BSA: ~Net A_B - Batch Mean (10-6, cm/s)>  (4) 


>  <pIC50>  (4) 
5.326058

>  <Selection_1>  (4) 
Y

>  <Selection_N>  (4) 
N

>  <Serie>  (4) 
Tetrahydrothienopyridine

>  <Selection_T>  (4) 


>  <Train_Vs_Test>  (4) 


$$$$
CTX-1020845
     RDKit          2D

 38 43  0  0  0  0  0  0  0  0999 V2000
   11.1474   -8.1329    0.0000 Cl  0  0  0  0  0  0  0  0  0  0  0  0
    9.6802   -7.8210    0.0000 C   0  0  0  0  0  0  0  0  0  0  0  0
    9.0701   -6.4507    0.0000 C   0  0  0  0  0  0  0  0  0  0  0  0
    8.5655   -8.8247    0.0000 C   0  0  0  0  0  0  0  0  0  0  0  0
    7.5783   -6.6075    0.0000 S   0  0  0  0  0  0  0  0  0  0  0  0
    9.8201   -5.1517    0.0000 C   0  0  0  0  0  0  0  0  0  0  0  0
    7.2665   -8.0747    0.0000 C   0  0  0  0  0  0  0  0  0  0  0  0
    8.5655  -10.3247    0.0000 C   0  0  0  0  0  0  0  0  0  0  0  0
   11.3201   -5.1517    0.0000 O   0  0  0  0  0  0  0  0  0  0  0  0
    9.0701   -3.8526    0.0000 N   0  0  0  0  0  0  0  0  0  0  0  0
    5.9674   -8.8247    0.0000 C   0  0  0  0  0  0  0  0  0  0  0  0
    7.2665  -11.0747    0.0000 N   0  0  0  0  0  0  0  0  0  0  0  0
    7.5701   -3.8526    0.0000 C   0  0  0  0  0  0  0  0  0  0  0  0
    9.8201   -2.5536    0.0000 C   0  0  0  0  0  0  0  0  0  0  0  0
    5.9674  -10.3247    0.0000 C   0  0  0  0  0  0  0  0  0  0  0  0
    6.8201   -2.5536    0.0000 C   0  0  0  0  0  0  0  0  0  0  0  0
    9.0701   -1.2546    0.0000 C   0  0  0  0  0  0  0  0  0  0  0  0
    7.5701   -1.2546    0.0000 C   0  0  0  0  0  0  0  0  0  0  0  0
    5.3529   -2.2417    0.0000 C   0  0  0  0  0  0  0  0  0  0  0  0
    6.5664   -0.1398    0.0000 S   0  0  0  0  0  0  0  0  0  0  0  0
    5.1961   -0.7500    0.0000 C   0  0  0  0  0  0  0  0  0  0  0  0
    3.8971    0.0000    0.0000 C   0  0  0  0  0  0  0  0  0  0  0  0
    3.8971    1.5000    0.0000 O   0  0  0  0  0  0  0  0  0  0  0  0
    2.5980   -0.7500    0.0000 N   0  0  0  0  0  0  0  0  0  0  0  0
    1.2990    0.0000    0.0000 C   0  0  0  0  0  0  0  0  0  0  0  0
    0.0000   -0.7500    0.0000 C   0  0  0  0  0  0  0  0  0  0  0  0
   -1.2990    0.0000    0.0000 C   0  0  0  0  0  0  0  0  0  0  0  0
    0.0000   -2.2499    0.0000 C   0  0  0  0  0  0  0  0  0  0  0  0
   -2.5980   -0.7499    0.0000 C   0  0  0  0  0  0  0  0  0  0  0  0
   -1.2990   -2.9999    0.0000 C   0  0  0  0  0  0  0  0  0  0  0  0
   -2.5980   -2.2499    0.0000 C   0  0  0  0  0  0  0  0  0  0  0  0
   -3.8971   -2.9999    0.0000 N   0  0  0  0  0  0  0  0  0  0  0  0
   -5.1961   -2.2499    0.0000 C   0  0  0  0  0  0  0  0  0  0  0  0
   -3.8971   -4.4999    0.0000 C   0  0  0  0  0  0  0  0  0  0  0  0
   -6.4951   -2.9999    0.0000 C   0  0  0  0  0  0  0  0  0  0  0  0
   -5.1961   -5.2499    0.0000 C   0  0  0  0  0  0  0  0  0  0  0  0
   -6.4951   -4.4999    0.0000 N   0  0  0  0  0  0  0  0  0  0  0  0
   -7.7942   -5.2499    0.0000 C   0  0  0  0  0  0  0  0  0  0  0  0
  1  2  1  0
  2  3  2  0
  2  4  1  0
  3  5  1  0
  3  6  1  0
  4  7  2  0
  4  8  1  0
  6  9  2  0
  6 10  1  0
  7 11  1  0
  8 12  2  0
 10 13  1  0
 10 14  1  0
 11 15  2  0
 13 16  1  0
 14 17  1  0
 16 18  2  0
 16 19  1  0
 18 20  1  0
 19 21  2  0
 21 22  1  0
 22 23  2  0
 22 24  1  0
 24 25  1  0
 25 26  1  0
 26 27  2  0
 26 28  1  0
 27 29  1  0
 28 30  2  0
 29 31  2  0
 31 32  1  0
 32 33  1  0
 32 34  1  0
 33 35  1  0
 34 36  1  0
 35 37  1  0
 37 38  1  0
  5  7  1  0
 12 15  1  0
 17 18  1  0
 20 21  1  0
 30 31  1  0
 36 37  1  0
M  END
>  <Molecule Name>  (5) 
CTX-1020845

>  <SMILES>  (5) 
CN1CCN(CC1)C1=CC=C(CNC(=O)C2=CC3=C(CCN(C3)C(=O)C3=C(Cl)C4=CN=CC=C4S3)S2)C=C1

>  <Batch Name>  (5) 
CTX-1020845-1

>  <Batch Created Date>  (5) 
2022-01-06

>  <Batch ID>  (5) 
CTX-1020845-1

>  <External ID>  (5) 
CD-44-2-L

>  <Stereochemistry>  (5) 
Achiral

>  <Amount 1>  (5) 
4.0

>  <Unit 1>  (5) 
mg

>  <CRO 1>  (5) 
Pharmaron

>  <CRO 1 Total Amount>  (5) 
18.8

>  <CRO 1 Unit>  (5) 
mg

>  <Pharmaron Solubility (PBS, pH 7.4): Aqueous Solubility - Batch Mean (uM)>  (5) 
107.46

>  <Pharmaron Solubility (PBS, pH 7.4): Aqueous Solubility - Batch Mean (uM) Standard Deviation (±)>  (5) 


>  <Pharmaron Solubility (PBS, pH 7.4): Aqueous Solubility - Batch Mean (uM) Count>  (5) 
1.0

>  <log P>  (5) 
4.23

>  <log D>  (5) 
3.6

>  <Pharmaron Caliper Assay (CDK2/CCNE1): Minimum measured (%)>  (5) 
37.0

>  <Pharmaron Caliper Assay (CDK2/CCNE1): IC50 - Batch Mean (uM)>  (5) 
85.4

>  <Pharmaron ADPGLO (CDK2/E1-25C): Minimum measured (%)>  (5) 
61.1

>  <Pharmaron ADPGLO (CDK2/E1-25C): IC50 - Batch Mean (uM)>  (5) 
100

>  <Pharmaron ADPGLO (CDK2/E1-37C): Minimum measured (%)>  (5) 
89.8

>  <Pharmaron ADPGLO (CDK2/E1-37C): IC50 - Batch Mean (uM)>  (5) 
100

>  <IncuCyte Kuramochi RB-WT: IC50 - Batch Mean (uM)>  (5) 
7.94

>  <IncuCyte Kuramochi RB-KO: IC50 - Batch Mean (uM)>  (5) 
9.53

>  <DSF (npCDK2/CCNE1): dTm D - Batch Mean [Concentration: 100]>  (5) 


>  <DSF (npCDK2/CCNE1): dTm D - Batch Mean [Concentration: 20.0]>  (5) 
0.635

>  <DSF (pCDK2/CCNE1): dTm D - Batch Mean [Concentration: 100]>  (5) 


>  <DSF (pCDK2/CCNE1): dTm D - Batch Mean [Concentration: 20.0]>  (5) 
0.267

>  <RLM: t1/2 - Batch Mean (Min)>  (5) 


>  <RLM: Cl int - Batch Mean (uL/min/mg protein)>  (5) 


>  <RLM: ER (Hepatic extraction ratio) - Batch Mean>  (5) 


>  <HLM: t1/2 - Batch Mean (Min)>  (5) 


>  <HLM: Cl int - Batch Mean (uL/min/mg protein)>  (5) 


>  <HLM: ER (Hepatic extraction ratio) - Batch Mean>  (5) 


>  <MDCK-WT 4% BSA: Papp (A-B) - Batch Mean (10-6, cm/s)>  (5) 


>  <MDCK-WT 4% BSA: Papp (B-A) - Batch Mean (10-6, cm/s)>  (5) 


>  <MDCK-WT 4% BSA: Efflux Ratio - Batch Mean>  (5) 


>  <MDCK-WT 4% BSA: ~Net A_B - Batch Mean (10-6, cm/s)>  (5) 


>  <pIC50>  (5) 
4.068542

>  <Selection_1>  (5) 
Y

>  <Selection_N>  (5) 
N

>  <Serie>  (5) 
Tetrahydrothienopyridine

>  <Selection_T>  (5) 
Y

>  <Train_Vs_Test>  (5) 


$$$$
CTX-1020842
     RDKit          2D

 39 44  0  0  0  0  0  0  0  0999 V2000
    6.5664   -0.1398    0.0000 S   0  0  0  0  0  0  0  0  0  0  0  0
    5.1961   -0.7500    0.0000 C   0  0  0  0  0  0  0  0  0  0  0  0
    7.5701   -1.2546    0.0000 C   0  0  0  0  0  0  0  0  0  0  0  0
    3.8971    0.0000    0.0000 C   0  0  0  0  0  0  0  0  0  0  0  0
    5.3529   -2.2417    0.0000 C   0  0  0  0  0  0  0  0  0  0  0  0
    6.8201   -2.5536    0.0000 C   0  0  0  0  0  0  0  0  0  0  0  0
    9.0701   -1.2546    0.0000 C   0  0  0  0  0  0  0  0  0  0  0  0
    3.8971    1.5000    0.0000 O   0  0  0  0  0  0  0  0  0  0  0  0
    2.5980   -0.7500    0.0000 N   0  0  0  0  0  0  0  0  0  0  0  0
    7.5701   -3.8526    0.0000 C   0  0  0  0  0  0  0  0  0  0  0  0
    9.8201   -2.5536    0.0000 C   0  0  0  0  0  0  0  0  0  0  0  0
    1.2990    0.0000    0.0000 C   0  0  0  0  0  0  0  0  0  0  0  0
    9.0701   -3.8526    0.0000 N   0  0  0  0  0  0  0  0  0  0  0  0
    0.0000   -0.7500    0.0000 C   0  0  0  0  0  0  0  0  0  0  0  0
    9.8201   -5.1517    0.0000 C   0  0  0  0  0  0  0  0  0  0  0  0
   -1.2990    0.0000    0.0000 C   0  0  0  0  0  0  0  0  0  0  0  0
    0.0000   -2.2499    0.0000 C   0  0  0  0  0  0  0  0  0  0  0  0
    9.0701   -6.4507    0.0000 O   0  0  0  0  0  0  0  0  0  0  0  0
   11.3201   -5.1517    0.0000 C   0  0  0  0  0  0  0  0  0  0  0  0
   -2.5980   -0.7499    0.0000 C   0  0  0  0  0  0  0  0  0  0  0  0
   -1.2990   -2.9999    0.0000 C   0  0  0  0  0  0  0  0  0  0  0  0
   12.2018   -6.3652    0.0000 O   0  0  0  0  0  0  0  0  0  0  0  0
   12.2018   -3.9382    0.0000 C   0  0  0  0  0  0  0  0  0  0  0  0
   -2.5980   -2.2499    0.0000 C   0  0  0  0  0  0  0  0  0  0  0  0
   13.6284   -5.9017    0.0000 C   0  0  0  0  0  0  0  0  0  0  0  0
   11.7383   -2.5116    0.0000 O   0  0  0  0  0  0  0  0  0  0  0  0
   13.6284   -4.4017    0.0000 C   0  0  0  0  0  0  0  0  0  0  0  0
   -3.8971   -2.9999    0.0000 N   0  0  0  0  0  0  0  0  0  0  0  0
   14.9274   -6.6517    0.0000 C   0  0  0  0  0  0  0  0  0  0  0  0
   12.7420   -1.3968    0.0000 C   0  0  0  0  0  0  0  0  0  0  0  0
   14.9274   -3.6517    0.0000 C   0  0  0  0  0  0  0  0  0  0  0  0
   -5.1961   -2.2499    0.0000 C   0  0  0  0  0  0  0  0  0  0  0  0
   -3.8971   -4.4999    0.0000 C   0  0  0  0  0  0  0  0  0  0  0  0
   16.2265   -5.9017    0.0000 C   0  0  0  0  0  0  0  0  0  0  0  0
   16.2265   -4.4017    0.0000 C   0  0  0  0  0  0  0  0  0  0  0  0
   -6.4951   -2.9999    0.0000 C   0  0  0  0  0  0  0  0  0  0  0  0
   -5.1961   -5.2499    0.0000 C   0  0  0  0  0  0  0  0  0  0  0  0
   -6.4951   -4.4999    0.0000 N   0  0  0  0  0  0  0  0  0  0  0  0
   -7.7942   -5.2499    0.0000 C   0  0  0  0  0  0  0  0  0  0  0  0
  1  2  1  0
  1  3  1  0
  2  4  1  0
  2  5  2  0
  3  6  2  0
  3  7  1  0
  4  8  2  0
  4  9  1  0
  6 10  1  0
  7 11  1  0
  9 12  1  0
 10 13  1  0
 12 14  1  0
 13 15  1  0
 14 16  2  0
 14 17  1  0
 15 18  2  0
 15 19  1  0
 16 20  1  0
 17 21  2  0
 19 22  1  0
 19 23  2  0
 20 24  2  0
 22 25  1  0
 23 26  1  0
 23 27  1  0
 24 28  1  0
 25 29  2  0
 26 30  1  0
 27 31  2  0
 28 32  1  0
 28 33  1  0
 29 34  1  0
 31 35  1  0
 32 36  1  0
 33 37  1  0
 36 38  1  0
 38 39  1  0
  5  6  1  0
 11 13  1  0
 21 24  1  0
 25 27  1  0
 34 35  2  0
 37 38  1  0
M  END
>  <Molecule Name>  (6) 
CTX-1020842

>  <SMILES>  (6) 
COC1=C(OC2=CC=CC=C12)C(=O)N1CCC2=C(C1)C=C(S2)C(=O)NCC1=CC=C(C=C1)N1CCN(C)CC1

>  <Batch Name>  (6) 
CTX-1020842-1

>  <Batch Created Date>  (6) 
2022-01-06

>  <Batch ID>  (6) 
CTX-1020842-1

>  <External ID>  (6) 
CD-44-2-B

>  <Stereochemistry>  (6) 
Achiral

>  <Amount 1>  (6) 
1.3

>  <Unit 1>  (6) 
mg

>  <CRO 1>  (6) 
Pharmaron

>  <CRO 1 Total Amount>  (6) 
9.7

>  <CRO 1 Unit>  (6) 
mg

>  <Pharmaron Solubility (PBS, pH 7.4): Aqueous Solubility - Batch Mean (uM)>  (6) 
16.61

>  <Pharmaron Solubility (PBS, pH 7.4): Aqueous Solubility - Batch Mean (uM) Standard Deviation (±)>  (6) 


>  <Pharmaron Solubility (PBS, pH 7.4): Aqueous Solubility - Batch Mean (uM) Count>  (6) 
1.0

>  <log P>  (6) 
3.76

>  <log D>  (6) 
3.12

>  <Pharmaron Caliper Assay (CDK2/CCNE1): Minimum measured (%)>  (6) 
38.4

>  <Pharmaron Caliper Assay (CDK2/CCNE1): IC50 - Batch Mean (uM)>  (6) 
6.02

>  <Pharmaron ADPGLO (CDK2/E1-25C): Minimum measured (%)>  (6) 
33.3

>  <Pharmaron ADPGLO (CDK2/E1-25C): IC50 - Batch Mean (uM)>  (6) 
30.9

>  <Pharmaron ADPGLO (CDK2/E1-37C): Minimum measured (%)>  (6) 
96.7

>  <Pharmaron ADPGLO (CDK2/E1-37C): IC50 - Batch Mean (uM)>  (6) 
100

>  <IncuCyte Kuramochi RB-WT: IC50 - Batch Mean (uM)>  (6) 
7.44

>  <IncuCyte Kuramochi RB-KO: IC50 - Batch Mean (uM)>  (6) 
5.37

>  <DSF (npCDK2/CCNE1): dTm D - Batch Mean [Concentration: 100]>  (6) 


>  <DSF (npCDK2/CCNE1): dTm D - Batch Mean [Concentration: 20.0]>  (6) 
2.238

>  <DSF (pCDK2/CCNE1): dTm D - Batch Mean [Concentration: 100]>  (6) 


>  <DSF (pCDK2/CCNE1): dTm D - Batch Mean [Concentration: 20.0]>  (6) 
1.186

>  <RLM: t1/2 - Batch Mean (Min)>  (6) 


>  <RLM: Cl int - Batch Mean (uL/min/mg protein)>  (6) 


>  <RLM: ER (Hepatic extraction ratio) - Batch Mean>  (6) 


>  <HLM: t1/2 - Batch Mean (Min)>  (6) 


>  <HLM: Cl int - Batch Mean (uL/min/mg protein)>  (6) 


>  <HLM: ER (Hepatic extraction ratio) - Batch Mean>  (6) 


>  <MDCK-WT 4% BSA: Papp (A-B) - Batch Mean (10-6, cm/s)>  (6) 


>  <MDCK-WT 4% BSA: Papp (B-A) - Batch Mean (10-6, cm/s)>  (6) 


>  <MDCK-WT 4% BSA: Efflux Ratio - Batch Mean>  (6) 


>  <MDCK-WT 4% BSA: ~Net A_B - Batch Mean (10-6, cm/s)>  (6) 


>  <pIC50>  (6) 
5.220404

>  <Selection_1>  (6) 
Y

>  <Selection_N>  (6) 
N

>  <Serie>  (6) 
Tetrahydrothienopyridine

>  <Selection_T>  (6) 


>  <Train_Vs_Test>  (6) 


$$$$
CTX-1020838
     RDKit          2D

 40 45  0  0  0  0  0  0  0  0999 V2000
    9.7817    0.8848    0.0000 Cl  0  0  0  0  0  0  0  0  0  0  0  0
    9.5737   -0.0932    0.0000 C   0  0  0  0  0  0  0  0  0  0  0  0
    8.6602   -0.5000    0.0000 C   0  0  0  0  0  0  0  0  0  0  0  0
   10.2429   -0.8364    0.0000 C   0  0  0  0  0  0  0  0  0  0  0  0
    8.7647   -1.4945    0.0000 O   0  0  0  0  0  0  0  0  0  0  0  0
    7.7942    0.0000    0.0000 C   0  0  0  0  0  0  0  0  0  0  0  0
    9.7429   -1.7024    0.0000 C   0  0  0  0  0  0  0  0  0  0  0  0
   11.2429   -0.8364    0.0000 C   0  0  0  0  0  0  0  0  0  0  0  0
    7.7942    0.9999    0.0000 O   0  0  0  0  0  0  0  0  0  0  0  0
    6.9282   -0.5000    0.0000 N   0  0  0  0  0  0  0  0  0  0  0  0
   10.2429   -2.5684    0.0000 C   0  0  0  0  0  0  0  0  0  0  0  0
   11.7429   -1.7024    0.0000 C   0  0  0  0  0  0  0  0  0  0  0  0
    6.0621    0.0000    0.0000 C   0  0  0  0  0  0  0  0  0  0  0  0
    6.9282   -1.4999    0.0000 C   0  0  0  0  0  0  0  0  0  0  0  0
    9.7429   -3.4344    0.0000 F   0  0  0  0  0  0  0  0  0  0  0  0
   11.2429   -2.5684    0.0000 C   0  0  0  0  0  0  0  0  0  0  0  0
    5.1961   -0.5000    0.0000 C   0  0  0  0  0  0  0  0  0  0  0  0
    6.0621   -1.9999    0.0000 C   0  0  0  0  0  0  0  0  0  0  0  0
    4.3301    0.0000    0.0000 N   0  0  0  0  0  0  0  0  0  0  0  0
    5.1961   -1.4999    0.0000 C   0  0  0  0  0  0  0  0  0  0  0  0
    3.4641   -0.5000    0.0000 C   0  0  0  0  0  0  0  0  0  0  0  0
    4.3301   -2.0000    0.0000 C   0  0  0  0  0  0  0  0  0  0  0  0
    2.5980    0.0000    0.0000 C   0  0  0  0  0  0  0  0  0  0  0  0
    3.4641   -1.4999    0.0000 C   0  0  0  0  0  0  0  0  0  0  0  0
    2.5980    1.0000    0.0000 O   0  0  0  0  0  0  0  0  0  0  0  0
    1.7320   -0.5000    0.0000 N   0  0  0  0  0  0  0  0  0  0  0  0
    0.8660    0.0000    0.0000 C   0  0  0  0  0  0  0  0  0  0  0  0
    0.0000   -0.5000    0.0000 C   0  0  0  0  0  0  0  0  0  0  0  0
   -0.8660    0.0000    0.0000 C   0  0  0  0  0  0  0  0  0  0  0  0
    0.0000   -1.4999    0.0000 C   0  0  0  0  0  0  0  0  0  0  0  0
   -1.7320   -0.4999    0.0000 C   0  0  0  0  0  0  0  0  0  0  0  0
   -0.8660   -1.9999    0.0000 C   0  0  0  0  0  0  0  0  0  0  0  0
   -1.7320   -1.4999    0.0000 C   0  0  0  0  0  0  0  0  0  0  0  0
   -2.5980   -1.9999    0.0000 N   0  0  0  0  0  0  0  0  0  0  0  0
   -3.4641   -1.4999    0.0000 C   0  0  0  0  0  0  0  0  0  0  0  0
   -2.5980   -2.9999    0.0000 C   0  0  0  0  0  0  0  0  0  0  0  0
   -4.3301   -1.9999    0.0000 C   0  0  0  0  0  0  0  0  0  0  0  0
   -3.4641   -3.4999    0.0000 C   0  0  0  0  0  0  0  0  0  0  0  0
   -4.3301   -2.9999    0.0000 N   0  0  0  0  0  0  0  0  0  0  0  0
   -5.1961   -3.4999    0.0000 C   0  0  0  0  0  0  0  0  0  0  0  0
  1  2  1  0
  2  3  2  0
  2  4  1  0
  3  5  1  0
  3  6  1  0
  4  7  2  0
  4  8  1  0
  6  9  2  0
  6 10  1  0
  7 11  1  0
  8 12  2  0
 10 13  1  0
 10 14  1  0
 11 15  1  0
 11 16  2  0
 13 17  1  0
 14 18  1  0
 17 19  2  0
 17 20  1  0
 19 21  1  0
 20 22  2  0
 21 23  1  0
 21 24  2  0
 23 25  2  0
 23 26  1  0
 26 27  1  0
 27 28  1  0
 28 29  2  0
 28 30  1  0
 29 31  1  0
 30 32  2  0
 31 33  2  0
 33 34  1  0
 34 35  1  0
 34 36  1  0
 35 37  1  0
 36 38  1  0
 37 39  1  0
 39 40  1  0
  5  7  1  0
 12 16  1  0
 18 20  1  0
 22 24  1  0
 32 33  1  0
 38 39  1  0
M  END
>  <Molecule Name>  (7) 
CTX-1020838

>  <SMILES>  (7) 
CN1CCN(CC1)C1=CC=C(CNC(=O)C2=CC=C3CCN(CC3=N2)C(=O)C2=C(Cl)C3=C(O2)C(F)=CC=C3)C=C1

>  <Batch Name>  (7) 
CTX-1020838-1

>  <Batch Created Date>  (7) 
2022-01-06

>  <Batch ID>  (7) 
CTX-1020838-1

>  <External ID>  (7) 
CD-42-P

>  <Stereochemistry>  (7) 
Achiral

>  <Amount 1>  (7) 
6.2

>  <Unit 1>  (7) 
mg

>  <CRO 1>  (7) 
Pharmaron

>  <CRO 1 Total Amount>  (7) 
20.9

>  <CRO 1 Unit>  (7) 
mg

>  <Pharmaron Solubility (PBS, pH 7.4): Aqueous Solubility - Batch Mean (uM)>  (7) 
134.72

>  <Pharmaron Solubility (PBS, pH 7.4): Aqueous Solubility - Batch Mean (uM) Standard Deviation (±)>  (7) 


>  <Pharmaron Solubility (PBS, pH 7.4): Aqueous Solubility - Batch Mean (uM) Count>  (7) 
1.0

>  <log P>  (7) 
3.87

>  <log D>  (7) 
3.23

>  <Pharmaron Caliper Assay (CDK2/CCNE1): Minimum measured (%)>  (7) 
23.5

>  <Pharmaron Caliper Assay (CDK2/CCNE1): IC50 - Batch Mean (uM)>  (7) 
6.19

>  <Pharmaron ADPGLO (CDK2/E1-25C): Minimum measured (%)>  (7) 
32.3

>  <Pharmaron ADPGLO (CDK2/E1-25C): IC50 - Batch Mean (uM)>  (7) 
7.79

>  <Pharmaron ADPGLO (CDK2/E1-37C): Minimum measured (%)>  (7) 
88.1

>  <Pharmaron ADPGLO (CDK2/E1-37C): IC50 - Batch Mean (uM)>  (7) 
100

>  <IncuCyte Kuramochi RB-WT: IC50 - Batch Mean (uM)>  (7) 
6.97

>  <IncuCyte Kuramochi RB-KO: IC50 - Batch Mean (uM)>  (7) 
6.95

>  <DSF (npCDK2/CCNE1): dTm D - Batch Mean [Concentration: 100]>  (7) 


>  <DSF (npCDK2/CCNE1): dTm D - Batch Mean [Concentration: 20.0]>  (7) 
1.57

>  <DSF (pCDK2/CCNE1): dTm D - Batch Mean [Concentration: 100]>  (7) 


>  <DSF (pCDK2/CCNE1): dTm D - Batch Mean [Concentration: 20.0]>  (7) 
0.46799999999999997

>  <RLM: t1/2 - Batch Mean (Min)>  (7) 


>  <RLM: Cl int - Batch Mean (uL/min/mg protein)>  (7) 


>  <RLM: ER (Hepatic extraction ratio) - Batch Mean>  (7) 


>  <HLM: t1/2 - Batch Mean (Min)>  (7) 


>  <HLM: Cl int - Batch Mean (uL/min/mg protein)>  (7) 


>  <HLM: ER (Hepatic extraction ratio) - Batch Mean>  (7) 


>  <MDCK-WT 4% BSA: Papp (A-B) - Batch Mean (10-6, cm/s)>  (7) 


>  <MDCK-WT 4% BSA: Papp (B-A) - Batch Mean (10-6, cm/s)>  (7) 


>  <MDCK-WT 4% BSA: Efflux Ratio - Batch Mean>  (7) 


>  <MDCK-WT 4% BSA: ~Net A_B - Batch Mean (10-6, cm/s)>  (7) 


>  <pIC50>  (7) 
5.208309

>  <Selection_1>  (7) 
Y

>  <Selection_N>  (7) 


>  <Serie>  (7) 
Naphthyridine

>  <Selection_T>  (7) 
N

>  <Train_Vs_Test>  (7) 


$$$$
CTX-1020818
     RDKit          2D

 30 35  0  0  0  0  0  0  0  0999 V2000
    4.3776   -0.0932    0.0000 S   0  0  0  0  0  0  0  0  0  0  0  0
    3.4641   -0.5000    0.0000 C   0  0  0  0  0  0  0  0  0  0  0  0
    5.0467   -0.8364    0.0000 C   0  0  0  0  0  0  0  0  0  0  0  0
    2.5980    0.0000    0.0000 C   0  0  0  0  0  0  0  0  0  0  0  0
    3.5686   -1.4945    0.0000 C   0  0  0  0  0  0  0  0  0  0  0  0
    4.5467   -1.7024    0.0000 C   0  0  0  0  0  0  0  0  0  0  0  0
    6.0467   -0.8364    0.0000 C   0  0  0  0  0  0  0  0  0  0  0  0
    2.5980    1.0000    0.0000 O   0  0  0  0  0  0  0  0  0  0  0  0
    1.7320   -0.5000    0.0000 N   0  0  0  0  0  0  0  0  0  0  0  0
    5.0467   -2.5684    0.0000 C   0  0  0  0  0  0  0  0  0  0  0  0
    6.5467   -1.7024    0.0000 C   0  0  0  0  0  0  0  0  0  0  0  0
    0.8660    0.0000    0.0000 C   0  0  0  0  0  0  0  0  0  0  0  0
    6.0467   -2.5684    0.0000 N   0  0  0  0  0  0  0  0  0  0  0  0
    0.0000   -0.5000    0.0000 C   0  0  0  0  0  0  0  0  0  0  0  0
    6.5467   -3.4344    0.0000 C   0  0  0  0  0  0  0  0  0  0  0  0
   -0.9270   -0.1251    0.0000 C   0  0  0  0  0  0  0  0  0  0  0  0
   -0.4007   -1.3660    0.0000 C   0  0  0  0  0  0  0  0  0  0  0  0
   -0.1908   -1.8610    0.0000 C   0  0  0  0  0  0  0  0  0  0  0  0
    6.0467   -4.3005    0.0000 O   0  0  0  0  0  0  0  0  0  0  0  0
    7.5467   -3.4344    0.0000 C   0  0  0  0  0  0  0  0  0  0  0  0
   -1.3019   -1.0521    0.0000 C   0  0  0  0  0  0  0  0  0  0  0  0
    8.1345   -4.2435    0.0000 O   0  0  0  0  0  0  0  0  0  0  0  0
    8.1345   -2.6254    0.0000 C   0  0  0  0  0  0  0  0  0  0  0  0
    9.0856   -3.9344    0.0000 C   0  0  0  0  0  0  0  0  0  0  0  0
    9.0856   -2.9344    0.0000 C   0  0  0  0  0  0  0  0  0  0  0  0
    7.8255   -1.6744    0.0000 C   0  0  0  0  0  0  0  0  0  0  0  0
    9.9516   -4.4344    0.0000 C   0  0  0  0  0  0  0  0  0  0  0  0
    9.9516   -2.4344    0.0000 C   0  0  0  0  0  0  0  0  0  0  0  0
   10.8176   -3.9344    0.0000 C   0  0  0  0  0  0  0  0  0  0  0  0
   10.8176   -2.9344    0.0000 C   0  0  0  0  0  0  0  0  0  0  0  0
  1  2  1  0
  1  3  1  0
  2  4  1  0
  2  5  2  0
  3  6  2  0
  3  7  1  0
  4  8  2  0
  4  9  1  0
  6 10  1  0
  7 11  1  0
  9 12  1  0
 10 13  1  0
 12 14  1  0
 13 15  1  0
 14 16  1  0
 14 17  1  0
 14 18  1  0
 15 19  2  0
 15 20  1  0
 16 21  1  0
 20 22  1  0
 20 23  2  0
 22 24  1  0
 23 25  1  0
 23 26  1  0
 24 27  2  0
 25 28  2  0
 27 29  1  0
 28 30  1  0
  5  6  1  0
 11 13  1  0
 17 21  1  0
 18 21  1  0
 24 25  1  0
 29 30  2  0
M  END
>  <Molecule Name>  (8) 
CTX-1020818

>  <SMILES>  (8) 
CC1=C(OC2=C1C=CC=C2)C(=O)N1CCC2=C(C1)C=C(S2)C(=O)NCC12CC(C1)C2

>  <Batch Name>  (8) 
CTX-1020818-1

>  <Batch Created Date>  (8) 
2021-12-30

>  <Batch ID>  (8) 
CTX-1020818-1

>  <External ID>  (8) 
CD-44-L

>  <Stereochemistry>  (8) 
Achiral

>  <Amount 1>  (8) 
4.1

>  <Unit 1>  (8) 
mg

>  <CRO 1>  (8) 
Pharmaron

>  <CRO 1 Total Amount>  (8) 
30.3

>  <CRO 1 Unit>  (8) 
mg

>  <Pharmaron Solubility (PBS, pH 7.4): Aqueous Solubility - Batch Mean (uM)>  (8) 
0.0335

>  <Pharmaron Solubility (PBS, pH 7.4): Aqueous Solubility - Batch Mean (uM) Standard Deviation (±)>  (8) 


>  <Pharmaron Solubility (PBS, pH 7.4): Aqueous Solubility - Batch Mean (uM) Count>  (8) 
1.0

>  <log P>  (8) 
3.73

>  <log D>  (8) 
3.73

>  <Pharmaron Caliper Assay (CDK2/CCNE1): Minimum measured (%)>  (8) 
85.3

>  <Pharmaron Caliper Assay (CDK2/CCNE1): IC50 - Batch Mean (uM)>  (8) 
30.9

>  <Pharmaron ADPGLO (CDK2/E1-25C): Minimum measured (%)>  (8) 
94.5

>  <Pharmaron ADPGLO (CDK2/E1-25C): IC50 - Batch Mean (uM)>  (8) 
100

>  <Pharmaron ADPGLO (CDK2/E1-37C): Minimum measured (%)>  (8) 
97.0

>  <Pharmaron ADPGLO (CDK2/E1-37C): IC50 - Batch Mean (uM)>  (8) 
100

>  <IncuCyte Kuramochi RB-WT: IC50 - Batch Mean (uM)>  (8) 
20.0

>  <IncuCyte Kuramochi RB-KO: IC50 - Batch Mean (uM)>  (8) 
15.5

>  <DSF (npCDK2/CCNE1): dTm D - Batch Mean [Concentration: 100]>  (8) 


>  <DSF (npCDK2/CCNE1): dTm D - Batch Mean [Concentration: 20.0]>  (8) 
0.33399999999999996

>  <DSF (pCDK2/CCNE1): dTm D - Batch Mean [Concentration: 100]>  (8) 


>  <DSF (pCDK2/CCNE1): dTm D - Batch Mean [Concentration: 20.0]>  (8) 
-0.11699999999999999

>  <RLM: t1/2 - Batch Mean (Min)>  (8) 


>  <RLM: Cl int - Batch Mean (uL/min/mg protein)>  (8) 


>  <RLM: ER (Hepatic extraction ratio) - Batch Mean>  (8) 


>  <HLM: t1/2 - Batch Mean (Min)>  (8) 


>  <HLM: Cl int - Batch Mean (uL/min/mg protein)>  (8) 


>  <HLM: ER (Hepatic extraction ratio) - Batch Mean>  (8) 


>  <MDCK-WT 4% BSA: Papp (A-B) - Batch Mean (10-6, cm/s)>  (8) 


>  <MDCK-WT 4% BSA: Papp (B-A) - Batch Mean (10-6, cm/s)>  (8) 


>  <MDCK-WT 4% BSA: Efflux Ratio - Batch Mean>  (8) 


>  <MDCK-WT 4% BSA: ~Net A_B - Batch Mean (10-6, cm/s)>  (8) 


>  <pIC50>  (8) 
4.510042

>  <Selection_1>  (8) 
Y

>  <Selection_N>  (8) 
N

>  <Serie>  (8) 
Tetrahydrothienopyridine

>  <Selection_T>  (8) 


>  <Train_Vs_Test>  (8) 


$$$$
CTX-1020817
     RDKit          2D

 38 43  0  0  0  0  0  0  0  0999 V2000
   11.1474   -8.1329    0.0000 Cl  0  0  0  0  0  0  0  0  0  0  0  0
    9.6802   -7.8210    0.0000 C   0  0  0  0  0  0  0  0  0  0  0  0
    9.0701   -6.4507    0.0000 C   0  0  0  0  0  0  0  0  0  0  0  0
    8.5655   -8.8247    0.0000 C   0  0  0  0  0  0  0  0  0  0  0  0
    7.5783   -6.6075    0.0000 S   0  0  0  0  0  0  0  0  0  0  0  0
    9.8201   -5.1517    0.0000 C   0  0  0  0  0  0  0  0  0  0  0  0
    7.2665   -8.0747    0.0000 C   0  0  0  0  0  0  0  0  0  0  0  0
    8.5655  -10.3247    0.0000 C   0  0  0  0  0  0  0  0  0  0  0  0
   11.3201   -5.1517    0.0000 O   0  0  0  0  0  0  0  0  0  0  0  0
    9.0701   -3.8526    0.0000 N   0  0  0  0  0  0  0  0  0  0  0  0
    5.9674   -8.8247    0.0000 C   0  0  0  0  0  0  0  0  0  0  0  0
    7.2665  -11.0747    0.0000 C   0  0  0  0  0  0  0  0  0  0  0  0
    7.5701   -3.8526    0.0000 C   0  0  0  0  0  0  0  0  0  0  0  0
    9.8201   -2.5536    0.0000 C   0  0  0  0  0  0  0  0  0  0  0  0
    5.9674  -10.3247    0.0000 N   0  0  0  0  0  0  0  0  0  0  0  0
    6.8201   -2.5536    0.0000 C   0  0  0  0  0  0  0  0  0  0  0  0
    9.0701   -1.2546    0.0000 C   0  0  0  0  0  0  0  0  0  0  0  0
    7.5701   -1.2546    0.0000 C   0  0  0  0  0  0  0  0  0  0  0  0
    5.3529   -2.2417    0.0000 C   0  0  0  0  0  0  0  0  0  0  0  0
    6.5664   -0.1398    0.0000 S   0  0  0  0  0  0  0  0  0  0  0  0
    5.1961   -0.7500    0.0000 C   0  0  0  0  0  0  0  0  0  0  0  0
    3.8971    0.0000    0.0000 C   0  0  0  0  0  0  0  0  0  0  0  0
    3.8971    1.5000    0.0000 O   0  0  0  0  0  0  0  0  0  0  0  0
    2.5980   -0.7500    0.0000 N   0  0  0  0  0  0  0  0  0  0  0  0
    1.2990    0.0000    0.0000 C   0  0  0  0  0  0  0  0  0  0  0  0
    0.0000   -0.7500    0.0000 C   0  0  0  0  0  0  0  0  0  0  0  0
   -1.2990    0.0000    0.0000 C   0  0  0  0  0  0  0  0  0  0  0  0
    0.0000   -2.2499    0.0000 C   0  0  0  0  0  0  0  0  0  0  0  0
   -2.5980   -0.7499    0.0000 C   0  0  0  0  0  0  0  0  0  0  0  0
   -1.2990   -2.9999    0.0000 C   0  0  0  0  0  0  0  0  0  0  0  0
   -2.5980   -2.2499    0.0000 C   0  0  0  0  0  0  0  0  0  0  0  0
   -3.8971   -2.9999    0.0000 N   0  0  0  0  0  0  0  0  0  0  0  0
   -5.1961   -2.2499    0.0000 C   0  0  0  0  0  0  0  0  0  0  0  0
   -3.8971   -4.4999    0.0000 C   0  0  0  0  0  0  0  0  0  0  0  0
   -6.4951   -2.9999    0.0000 C   0  0  0  0  0  0  0  0  0  0  0  0
   -5.1961   -5.2499    0.0000 C   0  0  0  0  0  0  0  0  0  0  0  0
   -6.4951   -4.4999    0.0000 N   0  0  0  0  0  0  0  0  0  0  0  0
   -7.7942   -5.2499    0.0000 C   0  0  0  0  0  0  0  0  0  0  0  0
  1  2  1  0
  2  3  2  0
  2  4  1  0
  3  5  1  0
  3  6  1  0
  4  7  2  0
  4  8  1  0
  6  9  2  0
  6 10  1  0
  7 11  1  0
  8 12  2  0
 10 13  1  0
 10 14  1  0
 11 15  2  0
 13 16  1  0
 14 17  1  0
 16 18  2  0
 16 19  1  0
 18 20  1  0
 19 21  2  0
 21 22  1  0
 22 23  2  0
 22 24  1  0
 24 25  1  0
 25 26  1  0
 26 27  2  0
 26 28  1  0
 27 29  1  0
 28 30  2  0
 29 31  2  0
 31 32  1  0
 32 33  1  0
 32 34  1  0
 33 35  1  0
 34 36  1  0
 35 37  1  0
 37 38  1  0
  5  7  1  0
 12 15  1  0
 17 18  1  0
 20 21  1  0
 30 31  1  0
 36 37  1  0
M  END
>  <Molecule Name>  (9) 
CTX-1020817

>  <SMILES>  (9) 
CN1CCN(CC1)C1=CC=C(CNC(=O)C2=CC3=C(CCN(C3)C(=O)C3=C(Cl)C4=CC=NC=C4S3)S2)C=C1

>  <Batch Name>  (9) 
CTX-1020817-1

>  <Batch Created Date>  (9) 
2021-12-30

>  <Batch ID>  (9) 
CTX-1020817-1

>  <External ID>  (9) 
CD-44-2-J

>  <Stereochemistry>  (9) 
Achiral

>  <Amount 1>  (9) 
9.1

>  <Unit 1>  (9) 
mg

>  <CRO 1>  (9) 
Pharmaron

>  <CRO 1 Total Amount>  (9) 
34.5

>  <CRO 1 Unit>  (9) 
mg

>  <Pharmaron Solubility (PBS, pH 7.4): Aqueous Solubility - Batch Mean (uM)>  (9) 
9.6667

>  <Pharmaron Solubility (PBS, pH 7.4): Aqueous Solubility - Batch Mean (uM) Standard Deviation (±)>  (9) 


>  <Pharmaron Solubility (PBS, pH 7.4): Aqueous Solubility - Batch Mean (uM) Count>  (9) 
1.0

>  <log P>  (9) 
4.23

>  <log D>  (9) 
3.6

>  <Pharmaron Caliper Assay (CDK2/CCNE1): Minimum measured (%)>  (9) 
15.7

>  <Pharmaron Caliper Assay (CDK2/CCNE1): IC50 - Batch Mean (uM)>  (9) 
8.46

>  <Pharmaron ADPGLO (CDK2/E1-25C): Minimum measured (%)>  (9) 
30.9

>  <Pharmaron ADPGLO (CDK2/E1-25C): IC50 - Batch Mean (uM)>  (9) 
17.2

>  <Pharmaron ADPGLO (CDK2/E1-37C): Minimum measured (%)>  (9) 
55.5

>  <Pharmaron ADPGLO (CDK2/E1-37C): IC50 - Batch Mean (uM)>  (9) 
37.5

>  <IncuCyte Kuramochi RB-WT: IC50 - Batch Mean (uM)>  (9) 
12.6

>  <IncuCyte Kuramochi RB-KO: IC50 - Batch Mean (uM)>  (9) 
8.69

>  <DSF (npCDK2/CCNE1): dTm D - Batch Mean [Concentration: 100]>  (9) 


>  <DSF (npCDK2/CCNE1): dTm D - Batch Mean [Concentration: 20.0]>  (9) 
0.835

>  <DSF (pCDK2/CCNE1): dTm D - Batch Mean [Concentration: 100]>  (9) 


>  <DSF (pCDK2/CCNE1): dTm D - Batch Mean [Concentration: 20.0]>  (9) 
0.5329999999999999

>  <RLM: t1/2 - Batch Mean (Min)>  (9) 


>  <RLM: Cl int - Batch Mean (uL/min/mg protein)>  (9) 


>  <RLM: ER (Hepatic extraction ratio) - Batch Mean>  (9) 


>  <HLM: t1/2 - Batch Mean (Min)>  (9) 


>  <HLM: Cl int - Batch Mean (uL/min/mg protein)>  (9) 


>  <HLM: ER (Hepatic extraction ratio) - Batch Mean>  (9) 


>  <MDCK-WT 4% BSA: Papp (A-B) - Batch Mean (10-6, cm/s)>  (9) 


>  <MDCK-WT 4% BSA: Papp (B-A) - Batch Mean (10-6, cm/s)>  (9) 


>  <MDCK-WT 4% BSA: Efflux Ratio - Batch Mean>  (9) 


>  <MDCK-WT 4% BSA: ~Net A_B - Batch Mean (10-6, cm/s)>  (9) 


>  <pIC50>  (9) 
5.07263

>  <Selection_1>  (9) 
Y

>  <Selection_N>  (9) 
N

>  <Serie>  (9) 
Tetrahydrothienopyridine

>  <Selection_T>  (9) 


>  <Train_Vs_Test>  (9) 


$$$$
CTX-1020816
     RDKit          2D

 40 45  0  0  0  0  0  0  0  0999 V2000
    6.5664   -0.1398    0.0000 S   0  0  0  0  0  0  0  0  0  0  0  0
    5.1961   -0.7500    0.0000 C   0  0  0  0  0  0  0  0  0  0  0  0
    7.5701   -1.2546    0.0000 C   0  0  0  0  0  0  0  0  0  0  0  0
    3.8971    0.0000    0.0000 C   0  0  0  0  0  0  0  0  0  0  0  0
    5.3529   -2.2417    0.0000 C   0  0  0  0  0  0  0  0  0  0  0  0
    6.8201   -2.5536    0.0000 C   0  0  0  0  0  0  0  0  0  0  0  0
    9.0701   -1.2546    0.0000 C   0  0  0  0  0  0  0  0  0  0  0  0
    3.8971    1.5000    0.0000 O   0  0  0  0  0  0  0  0  0  0  0  0
    2.5980   -0.7500    0.0000 N   0  0  0  0  0  0  0  0  0  0  0  0
    7.5701   -3.8526    0.0000 C   0  0  0  0  0  0  0  0  0  0  0  0
    9.8201   -2.5536    0.0000 C   0  0  0  0  0  0  0  0  0  0  0  0
    1.2990    0.0000    0.0000 C   0  0  0  0  0  0  0  0  0  0  0  0
    9.0701   -3.8526    0.0000 N   0  0  0  0  0  0  0  0  0  0  0  0
    0.0000   -0.7500    0.0000 C   0  0  0  0  0  0  0  0  0  0  0  0
    9.8201   -5.1517    0.0000 C   0  0  0  0  0  0  0  0  0  0  0  0
   -1.2990    0.0000    0.0000 C   0  0  0  0  0  0  0  0  0  0  0  0
    0.0000   -2.2499    0.0000 C   0  0  0  0  0  0  0  0  0  0  0  0
    9.0701   -6.4507    0.0000 O   0  0  0  0  0  0  0  0  0  0  0  0
   11.3201   -5.1517    0.0000 C   0  0  0  0  0  0  0  0  0  0  0  0
   -2.5980   -0.7499    0.0000 C   0  0  0  0  0  0  0  0  0  0  0  0
   -1.2990   -2.9999    0.0000 C   0  0  0  0  0  0  0  0  0  0  0  0
   12.2018   -6.3652    0.0000 O   0  0  0  0  0  0  0  0  0  0  0  0
   12.2018   -3.9382    0.0000 C   0  0  0  0  0  0  0  0  0  0  0  0
   -2.5980   -2.2499    0.0000 C   0  0  0  0  0  0  0  0  0  0  0  0
   13.6284   -5.9017    0.0000 C   0  0  0  0  0  0  0  0  0  0  0  0
   13.6284   -4.4017    0.0000 C   0  0  0  0  0  0  0  0  0  0  0  0
   11.7383   -2.5116    0.0000 C   0  0  0  0  0  0  0  0  0  0  0  0
   -3.8971   -2.9999    0.0000 N   0  0  0  0  0  0  0  0  0  0  0  0
   14.9274   -6.6517    0.0000 C   0  0  0  0  0  0  0  0  0  0  0  0
   14.9274   -3.6517    0.0000 C   0  0  0  0  0  0  0  0  0  0  0  0
   -5.1961   -2.2499    0.0000 C   0  0  0  0  0  0  0  0  0  0  0  0
   -3.8971   -4.4999    0.0000 C   0  0  0  0  0  0  0  0  0  0  0  0
   14.9274   -8.1517    0.0000 C   0  0  0  0  0  0  0  0  0  0  0  0
   16.2265   -5.9017    0.0000 C   0  0  0  0  0  0  0  0  0  0  0  0
   16.2265   -4.4017    0.0000 C   0  0  0  0  0  0  0  0  0  0  0  0
   -6.4951   -2.9999    0.0000 C   0  0  0  0  0  0  0  0  0  0  0  0
   -5.1961   -5.2499    0.0000 C   0  0  0  0  0  0  0  0  0  0  0  0
   14.9274   -9.6517    0.0000 N   0  0  0  0  0  0  0  0  0  0  0  0
   -6.4951   -4.4999    0.0000 N   0  0  0  0  0  0  0  0  0  0  0  0
   -7.7942   -5.2499    0.0000 C   0  0  0  0  0  0  0  0  0  0  0  0
  1  2  1  0
  1  3  1  0
  2  4  1  0
  2  5  2  0
  3  6  2  0
  3  7  1  0
  4  8  2  0
  4  9  1  0
  6 10  1  0
  7 11  1  0
  9 12  1  0
 10 13  1  0
 12 14  1  0
 13 15  1  0
 14 16  2  0
 14 17  1  0
 15 18  2  0
 15 19  1  0
 16 20  1  0
 17 21  2  0
 19 22  1  0
 19 23  2  0
 20 24  2  0
 22 25  1  0
 23 26  1  0
 23 27  1  0
 24 28  1  0
 25 29  2  0
 26 30  2  0
 28 31  1  0
 28 32  1  0
 29 33  1  0
 29 34  1  0
 30 35  1  0
 31 36  1  0
 32 37  1  0
 33 38  3  0
 36 39  1  0
 39 40  1  0
  5  6  1  0
 11 13  1  0
 21 24  1  0
 25 26  1  0
 34 35  2  0
 37 39  1  0
M  END
>  <Molecule Name>  (10) 
CTX-1020816

>  <SMILES>  (10) 
CN1CCN(CC1)C1=CC=C(CNC(=O)C2=CC3=C(CCN(C3)C(=O)C3=C(C)C4=CC=CC(C#N)=C4O3)S2)C=C1

>  <Batch Name>  (10) 
CTX-1020816-1

>  <Batch Created Date>  (10) 
2021-12-30

>  <Batch ID>  (10) 
CTX-1020816-1

>  <External ID>  (10) 
CD-44-2-G-5

>  <Stereochemistry>  (10) 
Achiral

>  <Amount 1>  (10) 
2.0

>  <Unit 1>  (10) 
mg

>  <CRO 1>  (10) 
Pharmaron

>  <CRO 1 Total Amount>  (10) 
16.9

>  <CRO 1 Unit>  (10) 
mg

>  <Pharmaron Solubility (PBS, pH 7.4): Aqueous Solubility - Batch Mean (uM)>  (10) 
4.5678

>  <Pharmaron Solubility (PBS, pH 7.4): Aqueous Solubility - Batch Mean (uM) Standard Deviation (±)>  (10) 


>  <Pharmaron Solubility (PBS, pH 7.4): Aqueous Solubility - Batch Mean (uM) Count>  (10) 
1.0

>  <log P>  (10) 
4.28

>  <log D>  (10) 
3.65

>  <Pharmaron Caliper Assay (CDK2/CCNE1): Minimum measured (%)>  (10) 
27.1

>  <Pharmaron Caliper Assay (CDK2/CCNE1): IC50 - Batch Mean (uM)>  (10) 
8.98

>  <Pharmaron ADPGLO (CDK2/E1-25C): Minimum measured (%)>  (10) 
58.7

>  <Pharmaron ADPGLO (CDK2/E1-25C): IC50 - Batch Mean (uM)>  (10) 
9.95

>  <Pharmaron ADPGLO (CDK2/E1-37C): Minimum measured (%)>  (10) 
108.0

>  <Pharmaron ADPGLO (CDK2/E1-37C): IC50 - Batch Mean (uM)>  (10) 
100

>  <IncuCyte Kuramochi RB-WT: IC50 - Batch Mean (uM)>  (10) 
10.8

>  <IncuCyte Kuramochi RB-KO: IC50 - Batch Mean (uM)>  (10) 
7.9

>  <DSF (npCDK2/CCNE1): dTm D - Batch Mean [Concentration: 100]>  (10) 


>  <DSF (npCDK2/CCNE1): dTm D - Batch Mean [Concentration: 20.0]>  (10) 
1.77

>  <DSF (pCDK2/CCNE1): dTm D - Batch Mean [Concentration: 100]>  (10) 


>  <DSF (pCDK2/CCNE1): dTm D - Batch Mean [Concentration: 20.0]>  (10) 
0.9

>  <RLM: t1/2 - Batch Mean (Min)>  (10) 


>  <RLM: Cl int - Batch Mean (uL/min/mg protein)>  (10) 


>  <RLM: ER (Hepatic extraction ratio) - Batch Mean>  (10) 


>  <HLM: t1/2 - Batch Mean (Min)>  (10) 


>  <HLM: Cl int - Batch Mean (uL/min/mg protein)>  (10) 


>  <HLM: ER (Hepatic extraction ratio) - Batch Mean>  (10) 


>  <MDCK-WT 4% BSA: Papp (A-B) - Batch Mean (10-6, cm/s)>  (10) 


>  <MDCK-WT 4% BSA: Papp (B-A) - Batch Mean (10-6, cm/s)>  (10) 


>  <MDCK-WT 4% BSA: Efflux Ratio - Batch Mean>  (10) 


>  <MDCK-WT 4% BSA: ~Net A_B - Batch Mean (10-6, cm/s)>  (10) 


>  <pIC50>  (10) 
5.046724

>  <Selection_1>  (10) 
Y

>  <Selection_N>  (10) 
N

>  <Serie>  (10) 
Tetrahydrothienopyridine

>  <Selection_T>  (10) 


>  <Train_Vs_Test>  (10) 


$$$$
CTX-1020811
     RDKit          2D

 40 45  0  0  0  0  0  0  0  0999 V2000
    5.1961   -0.7500    0.0000 O   0  0  0  0  0  0  0  0  0  0  0  0
    3.8971    0.0000    0.0000 C   0  0  0  0  0  0  0  0  0  0  0  0
    2.5980   -0.7500    0.0000 N   0  0  0  0  0  0  0  0  0  0  0  0
    3.8971    1.5000    0.0000 C   0  0  0  0  0  0  0  0  0  0  0  0
    1.2990    0.0000    0.0000 C   0  0  0  0  0  0  0  0  0  0  0  0
    5.1961    2.2500    0.0000 N   0  0  0  0  0  0  0  0  0  0  0  0
    2.5980    2.2500    0.0000 C   0  0  0  0  0  0  0  0  0  0  0  0
    0.0000   -0.7500    0.0000 C   0  0  0  0  0  0  0  0  0  0  0  0
    5.1961    3.7500    0.0000 C   0  0  0  0  0  0  0  0  0  0  0  0
    2.5980    3.7500    0.0000 C   0  0  0  0  0  0  0  0  0  0  0  0
   -1.2990    0.0000    0.0000 C   0  0  0  0  0  0  0  0  0  0  0  0
    0.0000   -2.2499    0.0000 C   0  0  0  0  0  0  0  0  0  0  0  0
    3.8971    4.5000    0.0000 C   0  0  0  0  0  0  0  0  0  0  0  0
    6.4951    4.5000    0.0000 C   0  0  0  0  0  0  0  0  0  0  0  0
   -2.5980   -0.7499    0.0000 C   0  0  0  0  0  0  0  0  0  0  0  0
   -1.2990   -2.9999    0.0000 C   0  0  0  0  0  0  0  0  0  0  0  0
    3.8971    6.0000    0.0000 C   0  0  0  0  0  0  0  0  0  0  0  0
    6.4951    6.0000    0.0000 N   0  0  0  0  0  0  0  0  0  0  0  0
   -2.5980   -2.2499    0.0000 C   0  0  0  0  0  0  0  0  0  0  0  0
    5.1961    6.7500    0.0000 C   0  0  0  0  0  0  0  0  0  0  0  0
    7.7942    6.7500    0.0000 C   0  0  0  0  0  0  0  0  0  0  0  0
   -3.8971   -2.9999    0.0000 N   0  0  0  0  0  0  0  0  0  0  0  0
    7.7942    8.2499    0.0000 O   0  0  0  0  0  0  0  0  0  0  0  0
    9.0932    5.9999    0.0000 C   0  0  0  0  0  0  0  0  0  0  0  0
   -5.1961   -2.2499    0.0000 C   0  0  0  0  0  0  0  0  0  0  0  0
   -3.8971   -4.4999    0.0000 C   0  0  0  0  0  0  0  0  0  0  0  0
   10.4635    6.6101    0.0000 O   0  0  0  0  0  0  0  0  0  0  0  0
    9.2500    4.5082    0.0000 C   0  0  0  0  0  0  0  0  0  0  0  0
   -6.4951   -2.9999    0.0000 C   0  0  0  0  0  0  0  0  0  0  0  0
   -5.1961   -5.2499    0.0000 C   0  0  0  0  0  0  0  0  0  0  0  0
   11.4672    5.4953    0.0000 C   0  0  0  0  0  0  0  0  0  0  0  0
   10.7172    4.1963    0.0000 C   0  0  0  0  0  0  0  0  0  0  0  0
    8.1353    3.5045    0.0000 C   0  0  0  0  0  0  0  0  0  0  0  0
   -6.4951   -4.4999    0.0000 N   0  0  0  0  0  0  0  0  0  0  0  0
   12.9672    5.4953    0.0000 C   0  0  0  0  0  0  0  0  0  0  0  0
   11.4672    2.8973    0.0000 C   0  0  0  0  0  0  0  0  0  0  0  0
    8.4472    2.0372    0.0000 C   0  0  0  0  0  0  0  0  0  0  0  0
   -7.7942   -5.2499    0.0000 C   0  0  0  0  0  0  0  0  0  0  0  0
   13.7172    4.1963    0.0000 C   0  0  0  0  0  0  0  0  0  0  0  0
   12.9672    2.8973    0.0000 C   0  0  0  0  0  0  0  0  0  0  0  0
  1  2  2  0
  2  3  1  0
  2  4  1  0
  3  5  1  0
  4  6  2  0
  4  7  1  0
  5  8  1  0
  6  9  1  0
  7 10  2  0
  8 11  2  0
  8 12  1  0
  9 13  2  0
  9 14  1  0
 11 15  1  0
 12 16  2  0
 13 17  1  0
 14 18  1  0
 15 19  2  0
 17 20  1  0
 18 21  1  0
 19 22  1  0
 21 23  2  0
 21 24  1  0
 22 25  1  0
 22 26  1  0
 24 27  1  0
 24 28  2  0
 25 29  1  0
 26 30  1  0
 27 31  1  0
 28 32  1  0
 28 33  1  0
 29 34  1  0
 31 35  2  0
 32 36  2  0
 33 37  1  0
 34 38  1  0
 35 39  1  0
 36 40  1  0
 10 13  1  0
 16 19  1  0
 18 20  1  0
 30 34  1  0
 31 32  1  0
 39 40  2  0
M  END
>  <Molecule Name>  (11) 
CTX-1020811

>  <SMILES>  (11) 
CCC1=C(OC2=C1C=CC=C2)C(=O)N1CCC2=C(C1)N=C(C=C2)C(=O)NCC1=CC=C(C=C1)N1CCN(C)CC1

>  <Batch Name>  (11) 
CTX-1020811-1

>  <Batch Created Date>  (11) 
2021-12-30

>  <Batch ID>  (11) 
CTX-1020811-1

>  <External ID>  (11) 
CD-42-R

>  <Stereochemistry>  (11) 
Achiral

>  <Amount 1>  (11) 
4.3

>  <Unit 1>  (11) 
mg

>  <CRO 1>  (11) 
Pharmaron

>  <CRO 1 Total Amount>  (11) 
19.3

>  <CRO 1 Unit>  (11) 
mg

>  <Pharmaron Solubility (PBS, pH 7.4): Aqueous Solubility - Batch Mean (uM)>  (11) 
72.0524

>  <Pharmaron Solubility (PBS, pH 7.4): Aqueous Solubility - Batch Mean (uM) Standard Deviation (±)>  (11) 


>  <Pharmaron Solubility (PBS, pH 7.4): Aqueous Solubility - Batch Mean (uM) Count>  (11) 
1.0

>  <log P>  (11) 
4.08

>  <log D>  (11) 
3.44

>  <Pharmaron Caliper Assay (CDK2/CCNE1): Minimum measured (%)>  (11) 
41.0

>  <Pharmaron Caliper Assay (CDK2/CCNE1): IC50 - Batch Mean (uM)>  (11) 
12.4

>  <Pharmaron ADPGLO (CDK2/E1-25C): Minimum measured (%)>  (11) 
48.9

>  <Pharmaron ADPGLO (CDK2/E1-25C): IC50 - Batch Mean (uM)>  (11) 
100

>  <Pharmaron ADPGLO (CDK2/E1-37C): Minimum measured (%)>  (11) 
102.0

>  <Pharmaron ADPGLO (CDK2/E1-37C): IC50 - Batch Mean (uM)>  (11) 
100

>  <IncuCyte Kuramochi RB-WT: IC50 - Batch Mean (uM)>  (11) 
8.82

>  <IncuCyte Kuramochi RB-KO: IC50 - Batch Mean (uM)>  (11) 
7.03

>  <DSF (npCDK2/CCNE1): dTm D - Batch Mean [Concentration: 100]>  (11) 


>  <DSF (npCDK2/CCNE1): dTm D - Batch Mean [Concentration: 20.0]>  (11) 
0.46799999999999997

>  <DSF (pCDK2/CCNE1): dTm D - Batch Mean [Concentration: 100]>  (11) 


>  <DSF (pCDK2/CCNE1): dTm D - Batch Mean [Concentration: 20.0]>  (11) 
0.141

>  <RLM: t1/2 - Batch Mean (Min)>  (11) 


>  <RLM: Cl int - Batch Mean (uL/min/mg protein)>  (11) 


>  <RLM: ER (Hepatic extraction ratio) - Batch Mean>  (11) 


>  <HLM: t1/2 - Batch Mean (Min)>  (11) 


>  <HLM: Cl int - Batch Mean (uL/min/mg protein)>  (11) 


>  <HLM: ER (Hepatic extraction ratio) - Batch Mean>  (11) 


>  <MDCK-WT 4% BSA: Papp (A-B) - Batch Mean (10-6, cm/s)>  (11) 


>  <MDCK-WT 4% BSA: Papp (B-A) - Batch Mean (10-6, cm/s)>  (11) 


>  <MDCK-WT 4% BSA: Efflux Ratio - Batch Mean>  (11) 


>  <MDCK-WT 4% BSA: ~Net A_B - Batch Mean (10-6, cm/s)>  (11) 


>  <pIC50>  (11) 
4.906578

>  <Selection_1>  (11) 
Y

>  <Selection_N>  (11) 


>  <Serie>  (11) 
Naphthyridine

>  <Selection_T>  (11) 
N

>  <Train_Vs_Test>  (11) 


$$$$
CTX-1020810
     RDKit          2D

 40 45  0  0  0  0  0  0  0  0999 V2000
    8.7647   -1.4945    0.0000 S   0  0  0  0  0  0  0  0  0  0  0  0
    9.7429   -1.7024    0.0000 C   0  0  0  0  0  0  0  0  0  0  0  0
    8.6602   -0.5000    0.0000 C   0  0  0  0  0  0  0  0  0  0  0  0
   10.2429   -2.5684    0.0000 C   0  0  0  0  0  0  0  0  0  0  0  0
   10.2429   -0.8364    0.0000 C   0  0  0  0  0  0  0  0  0  0  0  0
    9.5737   -0.0932    0.0000 C   0  0  0  0  0  0  0  0  0  0  0  0
    7.7942    0.0000    0.0000 C   0  0  0  0  0  0  0  0  0  0  0  0
    9.7429   -3.4344    0.0000 F   0  0  0  0  0  0  0  0  0  0  0  0
   11.2429   -2.5684    0.0000 C   0  0  0  0  0  0  0  0  0  0  0  0
   11.2429   -0.8364    0.0000 C   0  0  0  0  0  0  0  0  0  0  0  0
    9.7817    0.8848    0.0000 C   0  0  0  0  0  0  0  0  0  0  0  0
    7.7942    0.9999    0.0000 O   0  0  0  0  0  0  0  0  0  0  0  0
    6.9282   -0.5000    0.0000 N   0  0  0  0  0  0  0  0  0  0  0  0
   11.7429   -1.7024    0.0000 C   0  0  0  0  0  0  0  0  0  0  0  0
    6.0621    0.0000    0.0000 C   0  0  0  0  0  0  0  0  0  0  0  0
    6.9282   -1.4999    0.0000 C   0  0  0  0  0  0  0  0  0  0  0  0
    5.1961   -0.5000    0.0000 C   0  0  0  0  0  0  0  0  0  0  0  0
    6.0621   -1.9999    0.0000 C   0  0  0  0  0  0  0  0  0  0  0  0
    4.3301    0.0000    0.0000 N   0  0  0  0  0  0  0  0  0  0  0  0
    5.1961   -1.4999    0.0000 C   0  0  0  0  0  0  0  0  0  0  0  0
    3.4641   -0.5000    0.0000 C   0  0  0  0  0  0  0  0  0  0  0  0
    4.3301   -2.0000    0.0000 C   0  0  0  0  0  0  0  0  0  0  0  0
    2.5980    0.0000    0.0000 C   0  0  0  0  0  0  0  0  0  0  0  0
    3.4641   -1.4999    0.0000 C   0  0  0  0  0  0  0  0  0  0  0  0
    2.5980    1.0000    0.0000 O   0  0  0  0  0  0  0  0  0  0  0  0
    1.7320   -0.5000    0.0000 N   0  0  0  0  0  0  0  0  0  0  0  0
    0.8660    0.0000    0.0000 C   0  0  0  0  0  0  0  0  0  0  0  0
    0.0000   -0.5000    0.0000 C   0  0  0  0  0  0  0  0  0  0  0  0
   -0.8660    0.0000    0.0000 C   0  0  0  0  0  0  0  0  0  0  0  0
    0.0000   -1.4999    0.0000 C   0  0  0  0  0  0  0  0  0  0  0  0
   -1.7320   -0.4999    0.0000 C   0  0  0  0  0  0  0  0  0  0  0  0
   -0.8660   -1.9999    0.0000 C   0  0  0  0  0  0  0  0  0  0  0  0
   -1.7320   -1.4999    0.0000 C   0  0  0  0  0  0  0  0  0  0  0  0
   -2.5980   -1.9999    0.0000 N   0  0  0  0  0  0  0  0  0  0  0  0
   -3.4641   -1.4999    0.0000 C   0  0  0  0  0  0  0  0  0  0  0  0
   -2.5980   -2.9999    0.0000 C   0  0  0  0  0  0  0  0  0  0  0  0
   -4.3301   -1.9999    0.0000 C   0  0  0  0  0  0  0  0  0  0  0  0
   -3.4641   -3.4999    0.0000 C   0  0  0  0  0  0  0  0  0  0  0  0
   -4.3301   -2.9999    0.0000 N   0  0  0  0  0  0  0  0  0  0  0  0
   -5.1961   -3.4999    0.0000 C   0  0  0  0  0  0  0  0  0  0  0  0
  1  2  1  0
  1  3  1  0
  2  4  2  0
  2  5  1  0
  3  6  2  0
  3  7  1  0
  4  8  1  0
  4  9  1  0
  5 10  2  0
  6 11  1  0
  7 12  2  0
  7 13  1  0
  9 14  2  0
 13 15  1  0
 13 16  1  0
 15 17  1  0
 16 18  1  0
 17 19  2  0
 17 20  1  0
 19 21  1  0
 20 22  2  0
 21 23  1  0
 21 24  2  0
 23 25  2  0
 23 26  1  0
 26 27  1  0
 27 28  1  0
 28 29  2  0
 28 30  1  0
 29 31  1  0
 30 32  2  0
 31 33  2  0
 33 34  1  0
 34 35  1  0
 34 36  1  0
 35 37  1  0
 36 38  1  0
 37 39  1  0
 39 40  1  0
  5  6  1  0
 10 14  1  0
 18 20  1  0
 22 24  1  0
 32 33  1  0
 38 39  1  0
M  END
>  <Molecule Name>  (12) 
CTX-1020810

>  <SMILES>  (12) 
CN1CCN(CC1)C1=CC=C(CNC(=O)C2=CC=C3CCN(CC3=N2)C(=O)C2=C(C)C3=C(S2)C(F)=CC=C3)C=C1

>  <Batch Name>  (12) 
CTX-1020810-1

>  <Batch Created Date>  (12) 
2021-12-30

>  <Batch ID>  (12) 
CTX-1020810-1

>  <External ID>  (12) 
CD-42-Q

>  <Stereochemistry>  (12) 
Achiral

>  <Amount 1>  (12) 
13.8

>  <Unit 1>  (12) 
mg

>  <CRO 1>  (12) 
Pharmaron

>  <CRO 1 Total Amount>  (12) 
32.5

>  <CRO 1 Unit>  (12) 
mg

>  <Pharmaron Solubility (PBS, pH 7.4): Aqueous Solubility - Batch Mean (uM)>  (12) 
158.8983

>  <Pharmaron Solubility (PBS, pH 7.4): Aqueous Solubility - Batch Mean (uM) Standard Deviation (±)>  (12) 


>  <Pharmaron Solubility (PBS, pH 7.4): Aqueous Solubility - Batch Mean (uM) Count>  (12) 
1.0

>  <log P>  (12) 
4.7

>  <log D>  (12) 
4.07

>  <Pharmaron Caliper Assay (CDK2/CCNE1): Minimum measured (%)>  (12) 
14.1

>  <Pharmaron Caliper Assay (CDK2/CCNE1): IC50 - Batch Mean (uM)>  (12) 
0.684

>  <Pharmaron ADPGLO (CDK2/E1-25C): Minimum measured (%)>  (12) 
22.7

>  <Pharmaron ADPGLO (CDK2/E1-25C): IC50 - Batch Mean (uM)>  (12) 
0.66

>  <Pharmaron ADPGLO (CDK2/E1-37C): Minimum measured (%)>  (12) 
82.8

>  <Pharmaron ADPGLO (CDK2/E1-37C): IC50 - Batch Mean (uM)>  (12) 
20.9

>  <IncuCyte Kuramochi RB-WT: IC50 - Batch Mean (uM)>  (12) 
3.93

>  <IncuCyte Kuramochi RB-KO: IC50 - Batch Mean (uM)>  (12) 
3.87

>  <DSF (npCDK2/CCNE1): dTm D - Batch Mean [Concentration: 100]>  (12) 


>  <DSF (npCDK2/CCNE1): dTm D - Batch Mean [Concentration: 20.0]>  (12) 
3.34

>  <DSF (pCDK2/CCNE1): dTm D - Batch Mean [Concentration: 100]>  (12) 


>  <DSF (pCDK2/CCNE1): dTm D - Batch Mean [Concentration: 20.0]>  (12) 
1.8

>  <RLM: t1/2 - Batch Mean (Min)>  (12) 


>  <RLM: Cl int - Batch Mean (uL/min/mg protein)>  (12) 


>  <RLM: ER (Hepatic extraction ratio) - Batch Mean>  (12) 


>  <HLM: t1/2 - Batch Mean (Min)>  (12) 


>  <HLM: Cl int - Batch Mean (uL/min/mg protein)>  (12) 


>  <HLM: ER (Hepatic extraction ratio) - Batch Mean>  (12) 


>  <MDCK-WT 4% BSA: Papp (A-B) - Batch Mean (10-6, cm/s)>  (12) 


>  <MDCK-WT 4% BSA: Papp (B-A) - Batch Mean (10-6, cm/s)>  (12) 


>  <MDCK-WT 4% BSA: Efflux Ratio - Batch Mean>  (12) 


>  <MDCK-WT 4% BSA: ~Net A_B - Batch Mean (10-6, cm/s)>  (12) 


>  <pIC50>  (12) 
6.164944

>  <Selection_1>  (12) 
Y

>  <Selection_N>  (12) 


>  <Serie>  (12) 
Naphthyridine

>  <Selection_T>  (12) 
N

>  <Train_Vs_Test>  (12) 


$$$$
CTX-1020800
     RDKit          2D

 38 43  0  0  0  0  0  0  0  0999 V2000
    7.5467   -3.4344    0.0000 O   0  0  0  0  0  0  0  0  0  0  0  0
    6.5467   -3.4344    0.0000 C   0  0  0  0  0  0  0  0  0  0  0  0
    6.0467   -2.5684    0.0000 N   0  0  0  0  0  0  0  0  0  0  0  0
    6.0467   -4.3005    0.0000 C   0  0  0  0  0  0  0  0  0  0  0  0
    5.0467   -2.5684    0.0000 C   0  0  0  0  0  0  0  0  0  0  0  0
    6.5467   -1.7024    0.0000 C   0  0  0  0  0  0  0  0  0  0  0  0
    5.0522   -4.4050    0.0000 O   0  0  0  0  0  0  0  0  0  0  0  0
    6.4535   -5.2140    0.0000 C   0  0  0  0  0  0  0  0  0  0  0  0
    4.5467   -1.7024    0.0000 C   0  0  0  0  0  0  0  0  0  0  0  0
    6.0467   -0.8364    0.0000 C   0  0  0  0  0  0  0  0  0  0  0  0
    4.8443   -5.3831    0.0000 C   0  0  0  0  0  0  0  0  0  0  0  0
    5.7103   -5.8831    0.0000 C   0  0  0  0  0  0  0  0  0  0  0  0
    7.4316   -5.4219    0.0000 C   0  0  0  0  0  0  0  0  0  0  0  0
    5.0467   -0.8364    0.0000 C   0  0  0  0  0  0  0  0  0  0  0  0
    3.5686   -1.4945    0.0000 C   0  0  0  0  0  0  0  0  0  0  0  0
    3.9783   -5.8831    0.0000 C   0  0  0  0  0  0  0  0  0  0  0  0
    5.7103   -6.8831    0.0000 C   0  0  0  0  0  0  0  0  0  0  0  0
    4.3776   -0.0932    0.0000 N   0  0  0  0  0  0  0  0  0  0  0  0
    3.4641   -0.5000    0.0000 C   0  0  0  0  0  0  0  0  0  0  0  0
    3.9783   -6.8831    0.0000 C   0  0  0  0  0  0  0  0  0  0  0  0
    4.8443   -7.3831    0.0000 C   0  0  0  0  0  0  0  0  0  0  0  0
    2.5980    0.0000    0.0000 C   0  0  0  0  0  0  0  0  0  0  0  0
    2.5980    1.0000    0.0000 O   0  0  0  0  0  0  0  0  0  0  0  0
    1.7320   -0.5000    0.0000 N   0  0  0  0  0  0  0  0  0  0  0  0
    0.8660    0.0000    0.0000 C   0  0  0  0  0  0  0  0  0  0  0  0
    0.0000   -0.5000    0.0000 C   0  0  0  0  0  0  0  0  0  0  0  0
   -0.8660    0.0000    0.0000 C   0  0  0  0  0  0  0  0  0  0  0  0
    0.0000   -1.4999    0.0000 C   0  0  0  0  0  0  0  0  0  0  0  0
   -1.7320   -0.4999    0.0000 C   0  0  0  0  0  0  0  0  0  0  0  0
   -0.8660   -1.9999    0.0000 C   0  0  0  0  0  0  0  0  0  0  0  0
   -1.7320   -1.4999    0.0000 C   0  0  0  0  0  0  0  0  0  0  0  0
   -2.5980   -1.9999    0.0000 N   0  0  0  0  0  0  0  0  0  0  0  0
   -3.4641   -1.4999    0.0000 C   0  0  0  0  0  0  0  0  0  0  0  0
   -2.5980   -2.9999    0.0000 C   0  0  0  0  0  0  0  0  0  0  0  0
   -4.3301   -1.9999    0.0000 C   0  0  0  0  0  0  0  0  0  0  0  0
   -3.4641   -3.4999    0.0000 C   0  0  0  0  0  0  0  0  0  0  0  0
   -4.3301   -2.9999    0.0000 N   0  0  0  0  0  0  0  0  0  0  0  0
   -5.1961   -3.4999    0.0000 C   0  0  0  0  0  0  0  0  0  0  0  0
  1  2  2  0
  2  3  1  0
  2  4  1  0
  3  5  1  0
  3  6  1  0
  4  7  1  0
  4  8  2  0
  5  9  1  0
  6 10  1  0
  7 11  1  0
  8 12  1  0
  8 13  1  0
  9 14  2  0
  9 15  1  0
 11 16  2  0
 12 17  2  0
 14 18  1  0
 15 19  2  0
 16 20  1  0
 17 21  1  0
 19 22  1  0
 22 23  2  0
 22 24  1  0
 24 25  1  0
 25 26  1  0
 26 27  2  0
 26 28  1  0
 27 29  1  0
 28 30  2  0
 29 31  2  0
 31 32  1  0
 32 33  1  0
 32 34  1  0
 33 35  1  0
 34 36  1  0
 35 37  1  0
 37 38  1  0
 10 14  1  0
 11 12  1  0
 18 19  1  0
 20 21  2  0
 30 31  1  0
 36 37  1  0
M  END
>  <Molecule Name>  (13) 
CTX-1020800

>  <SMILES>  (13) 
CN1CCN(CC1)C1=CC=C(CNC(=O)C2=CC3=C(CCN(C3)C(=O)C3=C(C)C4=C(O3)C=CC=C4)N2)C=C1

>  <Batch Name>  (13) 
CTX-1020800-1

>  <Batch Created Date>  (13) 
2021-12-24

>  <Batch ID>  (13) 
CTX-1020800-1

>  <External ID>  (13) 
CD-44-Q

>  <Stereochemistry>  (13) 
Achiral

>  <Amount 1>  (13) 
2.6

>  <Unit 1>  (13) 
mg

>  <CRO 1>  (13) 
Pharmaron

>  <CRO 1 Total Amount>  (13) 
16.1

>  <CRO 1 Unit>  (13) 
mg

>  <Pharmaron Solubility (PBS, pH 7.4): Aqueous Solubility - Batch Mean (uM)>  (13) 


>  <Pharmaron Solubility (PBS, pH 7.4): Aqueous Solubility - Batch Mean (uM) Standard Deviation (±)>  (13) 


>  <Pharmaron Solubility (PBS, pH 7.4): Aqueous Solubility - Batch Mean (uM) Count>  (13) 


>  <log P>  (13) 
3.07

>  <log D>  (13) 
2.44

>  <Pharmaron Caliper Assay (CDK2/CCNE1): Minimum measured (%)>  (13) 
22.8

>  <Pharmaron Caliper Assay (CDK2/CCNE1): IC50 - Batch Mean (uM)>  (13) 
1.17

>  <Pharmaron ADPGLO (CDK2/E1-25C): Minimum measured (%)>  (13) 
41.9

>  <Pharmaron ADPGLO (CDK2/E1-25C): IC50 - Batch Mean (uM)>  (13) 
1.67

>  <Pharmaron ADPGLO (CDK2/E1-37C): Minimum measured (%)>  (13) 
105.0

>  <Pharmaron ADPGLO (CDK2/E1-37C): IC50 - Batch Mean (uM)>  (13) 
10.0

>  <IncuCyte Kuramochi RB-WT: IC50 - Batch Mean (uM)>  (13) 
9.85

>  <IncuCyte Kuramochi RB-KO: IC50 - Batch Mean (uM)>  (13) 
10.6

>  <DSF (npCDK2/CCNE1): dTm D - Batch Mean [Concentration: 100]>  (13) 


>  <DSF (npCDK2/CCNE1): dTm D - Batch Mean [Concentration: 20.0]>  (13) 
1.9969999999999999

>  <DSF (pCDK2/CCNE1): dTm D - Batch Mean [Concentration: 100]>  (13) 


>  <DSF (pCDK2/CCNE1): dTm D - Batch Mean [Concentration: 20.0]>  (13) 
0.917

>  <RLM: t1/2 - Batch Mean (Min)>  (13) 


>  <RLM: Cl int - Batch Mean (uL/min/mg protein)>  (13) 


>  <RLM: ER (Hepatic extraction ratio) - Batch Mean>  (13) 


>  <HLM: t1/2 - Batch Mean (Min)>  (13) 


>  <HLM: Cl int - Batch Mean (uL/min/mg protein)>  (13) 


>  <HLM: ER (Hepatic extraction ratio) - Batch Mean>  (13) 


>  <MDCK-WT 4% BSA: Papp (A-B) - Batch Mean (10-6, cm/s)>  (13) 


>  <MDCK-WT 4% BSA: Papp (B-A) - Batch Mean (10-6, cm/s)>  (13) 


>  <MDCK-WT 4% BSA: Efflux Ratio - Batch Mean>  (13) 


>  <MDCK-WT 4% BSA: ~Net A_B - Batch Mean (10-6, cm/s)>  (13) 


>  <pIC50>  (13) 
5.931814

>  <Selection_1>  (13) 
Y

>  <Selection_N>  (13) 
N

>  <Serie>  (13) 
Other

>  <Selection_T>  (13) 
N

>  <Train_Vs_Test>  (13) 


$$$$
CTX-1020799
     RDKit          2D

 39 45  0  0  0  0  0  0  0  0999 V2000
    7.4316   -5.4219    0.0000 Cl  0  0  0  0  0  0  0  0  0  0  0  0
    6.4535   -5.2140    0.0000 C   0  0  0  0  0  0  0  0  0  0  0  0
    6.0467   -4.3005    0.0000 C   0  0  0  0  0  0  0  0  0  0  0  0
    5.7103   -5.8831    0.0000 C   0  0  0  0  0  0  0  0  0  0  0  0
    5.0522   -4.4050    0.0000 S   0  0  0  0  0  0  0  0  0  0  0  0
    6.5467   -3.4344    0.0000 C   0  0  0  0  0  0  0  0  0  0  0  0
    4.8443   -5.3831    0.0000 C   0  0  0  0  0  0  0  0  0  0  0  0
    5.7103   -6.8831    0.0000 C   0  0  0  0  0  0  0  0  0  0  0  0
    7.5467   -3.4344    0.0000 O   0  0  0  0  0  0  0  0  0  0  0  0
    6.0467   -2.5684    0.0000 N   0  0  0  0  0  0  0  0  0  0  0  0
    3.9783   -5.8831    0.0000 C   0  0  0  0  0  0  0  0  0  0  0  0
    4.8443   -7.3831    0.0000 C   0  0  0  0  0  0  0  0  0  0  0  0
    5.0467   -2.5684    0.0000 C   0  0  0  0  0  0  0  0  0  0  0  0
    6.5467   -1.7024    0.0000 C   0  0  0  0  0  0  0  0  0  0  0  0
    3.9783   -6.8831    0.0000 C   0  0  0  0  0  0  0  0  0  0  0  0
    4.5467   -1.7024    0.0000 C   0  0  0  0  0  0  0  0  0  0  0  0
    6.0467   -0.8364    0.0000 C   0  0  0  0  0  0  0  0  0  0  0  0
    5.0467   -0.8364    0.0000 C   0  0  0  0  0  0  0  0  0  0  0  0
    3.5686   -1.4945    0.0000 C   0  0  0  0  0  0  0  0  0  0  0  0
    4.3776   -0.0932    0.0000 S   0  0  0  0  0  0  0  0  0  0  0  0
    3.4641   -0.5000    0.0000 C   0  0  0  0  0  0  0  0  0  0  0  0
    2.5980    0.0000    0.0000 C   0  0  0  0  0  0  0  0  0  0  0  0
    2.5980    1.0000    0.0000 O   0  0  0  0  0  0  0  0  0  0  0  0
    1.7320   -0.5000    0.0000 N   0  0  0  0  0  0  0  0  0  0  0  0
    0.8660    0.0000    0.0000 C   0  0  0  0  0  0  0  0  0  0  0  0
    0.0000   -0.5000    0.0000 C   0  0  0  0  0  0  0  0  0  0  0  0
   -0.8660    0.0000    0.0000 C   0  0  0  0  0  0  0  0  0  0  0  0
    0.0000   -1.4999    0.0000 C   0  0  0  0  0  0  0  0  0  0  0  0
   -1.7320   -0.4999    0.0000 C   0  0  0  0  0  0  0  0  0  0  0  0
   -0.8660   -1.9999    0.0000 C   0  0  0  0  0  0  0  0  0  0  0  0
   -1.7320   -1.4999    0.0000 C   0  0  0  0  0  0  0  0  0  0  0  0
   -2.5980   -1.9999    0.0000 N   0  0  0  0  0  0  0  0  0  0  0  0
   -3.5640   -1.7411    0.0000 C   0  0  0  0  0  0  0  0  0  0  0  0
   -2.8568   -2.9659    0.0000 C   0  0  0  0  0  0  0  0  0  0  0  0
   -3.8228   -2.7071    0.0000 C   0  0  0  0  0  0  0  0  0  0  0  0
   -4.7887   -2.4482    0.0000 C   0  0  0  0  0  0  0  0  0  0  0  0
   -4.0816   -3.6730    0.0000 C   0  0  0  0  0  0  0  0  0  0  0  0
   -5.0475   -3.4142    0.0000 N   0  0  0  0  0  0  0  0  0  0  0  0
   -5.9135   -3.9142    0.0000 C   0  0  0  0  0  0  0  0  0  0  0  0
  1  2  1  0
  2  3  2  0
  2  4  1  0
  3  5  1  0
  3  6  1  0
  4  7  2  0
  4  8  1  0
  6  9  2  0
  6 10  1  0
  7 11  1  0
  8 12  2  0
 10 13  1  0
 10 14  1  0
 11 15  2  0
 13 16  1  0
 14 17  1  0
 16 18  2  0
 16 19  1  0
 18 20  1  0
 19 21  2  0
 21 22  1  0
 22 23  2  0
 22 24  1  0
 24 25  1  0
 25 26  1  0
 26 27  2  0
 26 28  1  0
 27 29  1  0
 28 30  2  0
 29 31  2  0
 31 32  1  0
 32 33  1  0
 32 34  1  0
 33 35  1  0
 35 36  1  0
 35 37  1  0
 36 38  1  0
 38 39  1  0
  5  7  1  0
 12 15  1  0
 17 18  1  0
 20 21  1  0
 30 31  1  0
 34 35  1  0
 37 38  1  0
M  END
>  <Molecule Name>  (14) 
CTX-1020799

>  <SMILES>  (14) 
CN1CC2(C1)CN(C2)C1=CC=C(CNC(=O)C2=CC3=C(CCN(C3)C(=O)C3=C(Cl)C4=CC=CC=C4S3)S2)C=C1

>  <Batch Name>  (14) 
CTX-1020799-1

>  <Batch Created Date>  (14) 
2021-12-24

>  <Batch ID>  (14) 
CTX-1020799-1

>  <External ID>  (14) 
CD-44-2-N

>  <Stereochemistry>  (14) 
Achiral

>  <Amount 1>  (14) 
20.6

>  <Unit 1>  (14) 
mg

>  <CRO 1>  (14) 
Pharmaron

>  <CRO 1 Total Amount>  (14) 
29.2

>  <CRO 1 Unit>  (14) 
mg

>  <Pharmaron Solubility (PBS, pH 7.4): Aqueous Solubility - Batch Mean (uM)>  (14) 


>  <Pharmaron Solubility (PBS, pH 7.4): Aqueous Solubility - Batch Mean (uM) Standard Deviation (±)>  (14) 


>  <Pharmaron Solubility (PBS, pH 7.4): Aqueous Solubility - Batch Mean (uM) Count>  (14) 


>  <log P>  (14) 
5.13

>  <log D>  (14) 
4.59

>  <Pharmaron Caliper Assay (CDK2/CCNE1): Minimum measured (%)>  (14) 
47.7

>  <Pharmaron Caliper Assay (CDK2/CCNE1): IC50 - Batch Mean (uM)>  (14) 
7.88

>  <Pharmaron ADPGLO (CDK2/E1-25C): Minimum measured (%)>  (14) 
84.9

>  <Pharmaron ADPGLO (CDK2/E1-25C): IC50 - Batch Mean (uM)>  (14) 
9.52

>  <Pharmaron ADPGLO (CDK2/E1-37C): Minimum measured (%)>  (14) 
112.0

>  <Pharmaron ADPGLO (CDK2/E1-37C): IC50 - Batch Mean (uM)>  (14) 
10.0

>  <IncuCyte Kuramochi RB-WT: IC50 - Batch Mean (uM)>  (14) 
2.51

>  <IncuCyte Kuramochi RB-KO: IC50 - Batch Mean (uM)>  (14) 
2.45

>  <DSF (npCDK2/CCNE1): dTm D - Batch Mean [Concentration: 100]>  (14) 


>  <DSF (npCDK2/CCNE1): dTm D - Batch Mean [Concentration: 20.0]>  (14) 
1.429

>  <DSF (pCDK2/CCNE1): dTm D - Batch Mean [Concentration: 100]>  (14) 


>  <DSF (pCDK2/CCNE1): dTm D - Batch Mean [Concentration: 20.0]>  (14) 
0.5

>  <RLM: t1/2 - Batch Mean (Min)>  (14) 


>  <RLM: Cl int - Batch Mean (uL/min/mg protein)>  (14) 


>  <RLM: ER (Hepatic extraction ratio) - Batch Mean>  (14) 


>  <HLM: t1/2 - Batch Mean (Min)>  (14) 


>  <HLM: Cl int - Batch Mean (uL/min/mg protein)>  (14) 


>  <HLM: ER (Hepatic extraction ratio) - Batch Mean>  (14) 


>  <MDCK-WT 4% BSA: Papp (A-B) - Batch Mean (10-6, cm/s)>  (14) 


>  <MDCK-WT 4% BSA: Papp (B-A) - Batch Mean (10-6, cm/s)>  (14) 


>  <MDCK-WT 4% BSA: Efflux Ratio - Batch Mean>  (14) 


>  <MDCK-WT 4% BSA: ~Net A_B - Batch Mean (10-6, cm/s)>  (14) 


>  <pIC50>  (14) 
5.103474

>  <Selection_1>  (14) 
Y

>  <Selection_N>  (14) 
N

>  <Serie>  (14) 
Tetrahydrothienopyridine

>  <Selection_T>  (14) 


>  <Train_Vs_Test>  (14) 


$$$$
CTX-1020795
     RDKit          2D

 40 45  0  0  0  0  0  0  0  0999 V2000
   11.7429    0.0296    0.0000 Cl  0  0  0  0  0  0  0  0  0  0  0  0
   11.2429   -0.8364    0.0000 C   0  0  0  0  0  0  0  0  0  0  0  0
   10.2429   -0.8364    0.0000 C   0  0  0  0  0  0  0  0  0  0  0  0
   11.7429   -1.7024    0.0000 C   0  0  0  0  0  0  0  0  0  0  0  0
    9.5737   -0.0932    0.0000 O   0  0  0  0  0  0  0  0  0  0  0  0
    9.7429   -1.7024    0.0000 C   0  0  0  0  0  0  0  0  0  0  0  0
   11.2429   -2.5684    0.0000 C   0  0  0  0  0  0  0  0  0  0  0  0
    8.6602   -0.5000    0.0000 C   0  0  0  0  0  0  0  0  0  0  0  0
    8.7647   -1.4945    0.0000 C   0  0  0  0  0  0  0  0  0  0  0  0
   10.2429   -2.5684    0.0000 C   0  0  0  0  0  0  0  0  0  0  0  0
    7.7942    0.0000    0.0000 C   0  0  0  0  0  0  0  0  0  0  0  0
    8.0216   -2.1636    0.0000 C   0  0  0  0  0  0  0  0  0  0  0  0
    7.7942    0.9999    0.0000 O   0  0  0  0  0  0  0  0  0  0  0  0
    6.9282   -0.5000    0.0000 N   0  0  0  0  0  0  0  0  0  0  0  0
    6.0621    0.0000    0.0000 C   0  0  0  0  0  0  0  0  0  0  0  0
    6.9282   -1.4999    0.0000 C   0  0  0  0  0  0  0  0  0  0  0  0
    5.1961   -0.5000    0.0000 C   0  0  0  0  0  0  0  0  0  0  0  0
    6.0621   -1.9999    0.0000 C   0  0  0  0  0  0  0  0  0  0  0  0
    4.3301    0.0000    0.0000 N   0  0  0  0  0  0  0  0  0  0  0  0
    5.1961   -1.4999    0.0000 C   0  0  0  0  0  0  0  0  0  0  0  0
    3.4641   -0.5000    0.0000 C   0  0  0  0  0  0  0  0  0  0  0  0
    4.3301   -2.0000    0.0000 C   0  0  0  0  0  0  0  0  0  0  0  0
    2.5980    0.0000    0.0000 C   0  0  0  0  0  0  0  0  0  0  0  0
    3.4641   -1.4999    0.0000 C   0  0  0  0  0  0  0  0  0  0  0  0
    2.5980    1.0000    0.0000 O   0  0  0  0  0  0  0  0  0  0  0  0
    1.7320   -0.5000    0.0000 N   0  0  0  0  0  0  0  0  0  0  0  0
    0.8660    0.0000    0.0000 C   0  0  0  0  0  0  0  0  0  0  0  0
    0.0000   -0.5000    0.0000 C   0  0  0  0  0  0  0  0  0  0  0  0
   -0.8660    0.0000    0.0000 C   0  0  0  0  0  0  0  0  0  0  0  0
    0.0000   -1.4999    0.0000 C   0  0  0  0  0  0  0  0  0  0  0  0
   -1.7320   -0.4999    0.0000 C   0  0  0  0  0  0  0  0  0  0  0  0
   -0.8660   -1.9999    0.0000 C   0  0  0  0  0  0  0  0  0  0  0  0
   -1.7320   -1.4999    0.0000 C   0  0  0  0  0  0  0  0  0  0  0  0
   -2.5980   -1.9999    0.0000 N   0  0  0  0  0  0  0  0  0  0  0  0
   -3.4641   -1.4999    0.0000 C   0  0  0  0  0  0  0  0  0  0  0  0
   -2.5980   -2.9999    0.0000 C   0  0  0  0  0  0  0  0  0  0  0  0
   -4.3301   -1.9999    0.0000 C   0  0  0  0  0  0  0  0  0  0  0  0
   -3.4641   -3.4999    0.0000 C   0  0  0  0  0  0  0  0  0  0  0  0
   -4.3301   -2.9999    0.0000 N   0  0  0  0  0  0  0  0  0  0  0  0
   -5.1961   -3.4999    0.0000 C   0  0  0  0  0  0  0  0  0  0  0  0
  1  2  1  0
  2  3  2  0
  2  4  1  0
  3  5  1  0
  3  6  1  0
  4  7  2  0
  5  8  1  0
  6  9  1  0
  6 10  2  0
  8 11  1  0
  9 12  1  0
 11 13  2  0
 11 14  1  0
 14 15  1  0
 14 16  1  0
 15 17  1  0
 16 18  1  0
 17 19  2  0
 17 20  1  0
 19 21  1  0
 20 22  2  0
 21 23  1  0
 21 24  2  0
 23 25  2  0
 23 26  1  0
 26 27  1  0
 27 28  1  0
 28 29  2  0
 28 30  1  0
 29 31  1  0
 30 32  2  0
 31 33  2  0
 33 34  1  0
 34 35  1  0
 34 36  1  0
 35 37  1  0
 36 38  1  0
 37 39  1  0
 39 40  1  0
  7 10  1  0
  8  9  2  0
 18 20  1  0
 22 24  1  0
 32 33  1  0
 38 39  1  0
M  END
>  <Molecule Name>  (15) 
CTX-1020795

>  <SMILES>  (15) 
CN1CCN(CC1)C1=CC=C(CNC(=O)C2=CC=C3CCN(CC3=N2)C(=O)C2=C(C)C3=C(O2)C(Cl)=CC=C3)C=C1

>  <Batch Name>  (15) 
CTX-1020795-1

>  <Batch Created Date>  (15) 
2021-12-24

>  <Batch ID>  (15) 
CTX-1020795-1

>  <External ID>  (15) 
CD-42-O

>  <Stereochemistry>  (15) 
Achiral

>  <Amount 1>  (15) 
2.3

>  <Unit 1>  (15) 
mg

>  <CRO 1>  (15) 
Pharmaron

>  <CRO 1 Total Amount>  (15) 
13.3

>  <CRO 1 Unit>  (15) 
mg

>  <Pharmaron Solubility (PBS, pH 7.4): Aqueous Solubility - Batch Mean (uM)>  (15) 


>  <Pharmaron Solubility (PBS, pH 7.4): Aqueous Solubility - Batch Mean (uM) Standard Deviation (±)>  (15) 


>  <Pharmaron Solubility (PBS, pH 7.4): Aqueous Solubility - Batch Mean (uM) Count>  (15) 


>  <log P>  (15) 
4.24

>  <log D>  (15) 
3.6

>  <Pharmaron Caliper Assay (CDK2/CCNE1): Minimum measured (%)>  (15) 
30.0

>  <Pharmaron Caliper Assay (CDK2/CCNE1): IC50 - Batch Mean (uM)>  (15) 
18.7

>  <Pharmaron ADPGLO (CDK2/E1-25C): Minimum measured (%)>  (15) 
81.4

>  <Pharmaron ADPGLO (CDK2/E1-25C): IC50 - Batch Mean (uM)>  (15) 
10.0

>  <Pharmaron ADPGLO (CDK2/E1-37C): Minimum measured (%)>  (15) 
110.0

>  <Pharmaron ADPGLO (CDK2/E1-37C): IC50 - Batch Mean (uM)>  (15) 
10.0

>  <IncuCyte Kuramochi RB-WT: IC50 - Batch Mean (uM)>  (15) 
8.78

>  <IncuCyte Kuramochi RB-KO: IC50 - Batch Mean (uM)>  (15) 
6.74

>  <DSF (npCDK2/CCNE1): dTm D - Batch Mean [Concentration: 100]>  (15) 


>  <DSF (npCDK2/CCNE1): dTm D - Batch Mean [Concentration: 20.0]>  (15) 
0.828

>  <DSF (pCDK2/CCNE1): dTm D - Batch Mean [Concentration: 100]>  (15) 


>  <DSF (pCDK2/CCNE1): dTm D - Batch Mean [Concentration: 20.0]>  (15) 
0.21600000000000003

>  <RLM: t1/2 - Batch Mean (Min)>  (15) 


>  <RLM: Cl int - Batch Mean (uL/min/mg protein)>  (15) 


>  <RLM: ER (Hepatic extraction ratio) - Batch Mean>  (15) 


>  <HLM: t1/2 - Batch Mean (Min)>  (15) 


>  <HLM: Cl int - Batch Mean (uL/min/mg protein)>  (15) 


>  <HLM: ER (Hepatic extraction ratio) - Batch Mean>  (15) 


>  <MDCK-WT 4% BSA: Papp (A-B) - Batch Mean (10-6, cm/s)>  (15) 


>  <MDCK-WT 4% BSA: Papp (B-A) - Batch Mean (10-6, cm/s)>  (15) 


>  <MDCK-WT 4% BSA: Efflux Ratio - Batch Mean>  (15) 


>  <MDCK-WT 4% BSA: ~Net A_B - Batch Mean (10-6, cm/s)>  (15) 


>  <pIC50>  (15) 
4.728158

>  <Selection_1>  (15) 
Y

>  <Selection_N>  (15) 


>  <Serie>  (15) 
Naphthyridine

>  <Selection_T>  (15) 
N

>  <Train_Vs_Test>  (15) 


$$$$
CTX-1020772
     RDKit          2D

 30 34  0  0  0  0  0  0  0  0999 V2000
    6.5664   -0.1398    0.0000 S   0  0  0  0  0  0  0  0  0  0  0  0
    5.1961   -0.7500    0.0000 C   0  0  0  0  0  0  0  0  0  0  0  0
    7.5701   -1.2546    0.0000 C   0  0  0  0  0  0  0  0  0  0  0  0
    3.8971    0.0000    0.0000 C   0  0  0  0  0  0  0  0  0  0  0  0
    5.3529   -2.2417    0.0000 C   0  0  0  0  0  0  0  0  0  0  0  0
    6.8201   -2.5536    0.0000 C   0  0  0  0  0  0  0  0  0  0  0  0
    9.0701   -1.2546    0.0000 C   0  0  0  0  0  0  0  0  0  0  0  0
    3.8971    1.5000    0.0000 O   0  0  0  0  0  0  0  0  0  0  0  0
    2.5980   -0.7500    0.0000 N   0  0  0  0  0  0  0  0  0  0  0  0
    7.5701   -3.8526    0.0000 C   0  0  0  0  0  0  0  0  0  0  0  0
    9.8201   -2.5536    0.0000 C   0  0  0  0  0  0  0  0  0  0  0  0
    1.2990    0.0000    0.0000 C   0  0  0  0  0  0  0  0  0  0  0  0
    9.0701   -3.8526    0.0000 N   0  0  0  0  0  0  0  0  0  0  0  0
    0.0000   -0.7500    0.0000 C   0  0  0  0  0  0  0  0  0  0  0  0
    9.8201   -5.1517    0.0000 C   0  0  0  0  0  0  0  0  0  0  0  0
   -1.3703   -0.1398    0.0000 O   0  0  0  0  0  0  0  0  0  0  0  0
   -0.1567   -2.2417    0.0000 C   0  0  0  0  0  0  0  0  0  0  0  0
    9.0701   -6.4507    0.0000 O   0  0  0  0  0  0  0  0  0  0  0  0
   11.3201   -5.1517    0.0000 C   0  0  0  0  0  0  0  0  0  0  0  0
   -2.3740   -1.2546    0.0000 C   0  0  0  0  0  0  0  0  0  0  0  0
   -1.6240   -2.5536    0.0000 N   0  0  0  0  0  0  0  0  0  0  0  0
   12.2018   -6.3652    0.0000 O   0  0  0  0  0  0  0  0  0  0  0  0
   12.2018   -3.9382    0.0000 C   0  0  0  0  0  0  0  0  0  0  0  0
   13.6284   -5.9017    0.0000 C   0  0  0  0  0  0  0  0  0  0  0  0
   13.6284   -4.4017    0.0000 C   0  0  0  0  0  0  0  0  0  0  0  0
   11.7383   -2.5116    0.0000 C   0  0  0  0  0  0  0  0  0  0  0  0
   14.9274   -6.6517    0.0000 C   0  0  0  0  0  0  0  0  0  0  0  0
   14.9274   -3.6517    0.0000 C   0  0  0  0  0  0  0  0  0  0  0  0
   16.2265   -5.9017    0.0000 C   0  0  0  0  0  0  0  0  0  0  0  0
   16.2265   -4.4017    0.0000 C   0  0  0  0  0  0  0  0  0  0  0  0
  1  2  1  0
  1  3  1  0
  2  4  1  0
  2  5  2  0
  3  6  2  0
  3  7  1  0
  4  8  2  0
  4  9  1  0
  6 10  1  0
  7 11  1  0
  9 12  1  0
 10 13  1  0
 12 14  1  0
 13 15  1  0
 14 16  1  0
 14 17  2  0
 15 18  2  0
 15 19  1  0
 16 20  1  0
 17 21  1  0
 19 22  1  0
 19 23  2  0
 22 24  1  0
 23 25  1  0
 23 26  1  0
 24 27  2  0
 25 28  2  0
 27 29  1  0
 28 30  1  0
  5  6  1  0
 11 13  1  0
 20 21  2  0
 24 25  1  0
 29 30  2  0
M  END
>  <Molecule Name>  (16) 
CTX-1020772

>  <SMILES>  (16) 
CC1=C(OC2=C1C=CC=C2)C(=O)N1CCC2=C(C1)C=C(S2)C(=O)NCC1=CN=CO1

>  <Batch Name>  (16) 
CTX-1020772-1

>  <Batch Created Date>  (16) 
2021-12-16

>  <Batch ID>  (16) 
CTX-1020772-1

>  <External ID>  (16) 
P841-0353

>  <Stereochemistry>  (16) 
Achiral

>  <Amount 1>  (16) 
4.0

>  <Unit 1>  (16) 
mg

>  <CRO 1>  (16) 
Pharmaron

>  <CRO 1 Total Amount>  (16) 
14.8

>  <CRO 1 Unit>  (16) 
mg

>  <Pharmaron Solubility (PBS, pH 7.4): Aqueous Solubility - Batch Mean (uM)>  (16) 
7.5673

>  <Pharmaron Solubility (PBS, pH 7.4): Aqueous Solubility - Batch Mean (uM) Standard Deviation (±)>  (16) 


>  <Pharmaron Solubility (PBS, pH 7.4): Aqueous Solubility - Batch Mean (uM) Count>  (16) 
1.0

>  <log P>  (16) 
2.33

>  <log D>  (16) 
2.33

>  <Pharmaron Caliper Assay (CDK2/CCNE1): Minimum measured (%)>  (16) 
56.6

>  <Pharmaron Caliper Assay (CDK2/CCNE1): IC50 - Batch Mean (uM)>  (16) 
11.0

>  <Pharmaron ADPGLO (CDK2/E1-25C): Minimum measured (%)>  (16) 


>  <Pharmaron ADPGLO (CDK2/E1-25C): IC50 - Batch Mean (uM)>  (16) 


>  <Pharmaron ADPGLO (CDK2/E1-37C): Minimum measured (%)>  (16) 


>  <Pharmaron ADPGLO (CDK2/E1-37C): IC50 - Batch Mean (uM)>  (16) 


>  <IncuCyte Kuramochi RB-WT: IC50 - Batch Mean (uM)>  (16) 
20.0

>  <IncuCyte Kuramochi RB-KO: IC50 - Batch Mean (uM)>  (16) 
20.0

>  <DSF (npCDK2/CCNE1): dTm D - Batch Mean [Concentration: 100]>  (16) 


>  <DSF (npCDK2/CCNE1): dTm D - Batch Mean [Concentration: 20.0]>  (16) 
0.7879999999999999

>  <DSF (pCDK2/CCNE1): dTm D - Batch Mean [Concentration: 100]>  (16) 


>  <DSF (pCDK2/CCNE1): dTm D - Batch Mean [Concentration: 20.0]>  (16) 


>  <RLM: t1/2 - Batch Mean (Min)>  (16) 


>  <RLM: Cl int - Batch Mean (uL/min/mg protein)>  (16) 


>  <RLM: ER (Hepatic extraction ratio) - Batch Mean>  (16) 


>  <HLM: t1/2 - Batch Mean (Min)>  (16) 


>  <HLM: Cl int - Batch Mean (uL/min/mg protein)>  (16) 


>  <HLM: ER (Hepatic extraction ratio) - Batch Mean>  (16) 


>  <MDCK-WT 4% BSA: Papp (A-B) - Batch Mean (10-6, cm/s)>  (16) 


>  <MDCK-WT 4% BSA: Papp (B-A) - Batch Mean (10-6, cm/s)>  (16) 


>  <MDCK-WT 4% BSA: Efflux Ratio - Batch Mean>  (16) 


>  <MDCK-WT 4% BSA: ~Net A_B - Batch Mean (10-6, cm/s)>  (16) 


>  <pIC50>  (16) 
4.958607

>  <Selection_1>  (16) 
Y

>  <Selection_N>  (16) 
N

>  <Serie>  (16) 
Tetrahydrothienopyridine

>  <Selection_T>  (16) 


>  <Train_Vs_Test>  (16) 


$$$$
CTX-1020771
     RDKit          2D

 31 35  0  0  0  0  0  0  0  0999 V2000
    6.5664   -0.1398    0.0000 S   0  0  0  0  0  0  0  0  0  0  0  0
    5.1961   -0.7500    0.0000 C   0  0  0  0  0  0  0  0  0  0  0  0
    7.5701   -1.2546    0.0000 C   0  0  0  0  0  0  0  0  0  0  0  0
    3.8971    0.0000    0.0000 C   0  0  0  0  0  0  0  0  0  0  0  0
    5.3529   -2.2417    0.0000 C   0  0  0  0  0  0  0  0  0  0  0  0
    6.8201   -2.5536    0.0000 C   0  0  0  0  0  0  0  0  0  0  0  0
    9.0701   -1.2546    0.0000 C   0  0  0  0  0  0  0  0  0  0  0  0
    3.8971    1.5000    0.0000 O   0  0  0  0  0  0  0  0  0  0  0  0
    2.5980   -0.7500    0.0000 N   0  0  0  0  0  0  0  0  0  0  0  0
    7.5701   -3.8526    0.0000 C   0  0  0  0  0  0  0  0  0  0  0  0
    9.8201   -2.5536    0.0000 C   0  0  0  0  0  0  0  0  0  0  0  0
    1.2990    0.0000    0.0000 C   0  0  0  0  0  0  0  0  0  0  0  0
    9.0701   -3.8526    0.0000 N   0  0  0  0  0  0  0  0  0  0  0  0
    0.0000   -0.7500    0.0000 C   0  0  0  0  0  0  0  0  0  0  0  0
    9.8201   -5.1517    0.0000 C   0  0  0  0  0  0  0  0  0  0  0  0
   -1.3703   -0.1398    0.0000 N   0  0  0  0  0  0  0  0  0  0  0  0
   -0.1567   -2.2417    0.0000 C   0  0  0  0  0  0  0  0  0  0  0  0
    9.0701   -6.4507    0.0000 O   0  0  0  0  0  0  0  0  0  0  0  0
   11.3201   -5.1517    0.0000 C   0  0  0  0  0  0  0  0  0  0  0  0
   -2.3740   -1.2546    0.0000 C   0  0  0  0  0  0  0  0  0  0  0  0
   -1.6240   -2.5536    0.0000 N   0  0  0  0  0  0  0  0  0  0  0  0
   12.2018   -6.3652    0.0000 O   0  0  0  0  0  0  0  0  0  0  0  0
   12.2018   -3.9382    0.0000 C   0  0  0  0  0  0  0  0  0  0  0  0
   -2.2341   -3.9239    0.0000 C   0  0  0  0  0  0  0  0  0  0  0  0
   13.6284   -5.9017    0.0000 C   0  0  0  0  0  0  0  0  0  0  0  0
   13.6284   -4.4017    0.0000 C   0  0  0  0  0  0  0  0  0  0  0  0
   11.7383   -2.5116    0.0000 C   0  0  0  0  0  0  0  0  0  0  0  0
   14.9274   -6.6517    0.0000 C   0  0  0  0  0  0  0  0  0  0  0  0
   14.9274   -3.6517    0.0000 C   0  0  0  0  0  0  0  0  0  0  0  0
   16.2265   -5.9017    0.0000 C   0  0  0  0  0  0  0  0  0  0  0  0
   16.2265   -4.4017    0.0000 C   0  0  0  0  0  0  0  0  0  0  0  0
  1  2  1  0
  1  3  1  0
  2  4  1  0
  2  5  2  0
  3  6  2  0
  3  7  1  0
  4  8  2  0
  4  9  1  0
  6 10  1  0
  7 11  1  0
  9 12  1  0
 10 13  1  0
 12 14  1  0
 13 15  1  0
 14 16  1  0
 14 17  2  0
 15 18  2  0
 15 19  1  0
 16 20  2  0
 17 21  1  0
 19 22  1  0
 19 23  2  0
 21 24  1  0
 22 25  1  0
 23 26  1  0
 23 27  1  0
 25 28  2  0
 26 29  2  0
 28 30  1  0
 29 31  1  0
  5  6  1  0
 11 13  1  0
 20 21  1  0
 25 26  1  0
 30 31  2  0
M  END
>  <Molecule Name>  (17) 
CTX-1020771

>  <SMILES>  (17) 
CN1C=NC(CNC(=O)C2=CC3=C(CCN(C3)C(=O)C3=C(C)C4=C(O3)C=CC=C4)S2)=C1

>  <Batch Name>  (17) 
CTX-1020771-1

>  <Batch Created Date>  (17) 
2021-12-16

>  <Batch ID>  (17) 
CTX-1020771-1

>  <External ID>  (17) 
P841-0352

>  <Stereochemistry>  (17) 
Achiral

>  <Amount 1>  (17) 
4.5

>  <Unit 1>  (17) 
mg

>  <CRO 1>  (17) 
Pharmaron

>  <CRO 1 Total Amount>  (17) 
20.05

>  <CRO 1 Unit>  (17) 
mg

>  <Pharmaron Solubility (PBS, pH 7.4): Aqueous Solubility - Batch Mean (uM)>  (17) 
29.6438

>  <Pharmaron Solubility (PBS, pH 7.4): Aqueous Solubility - Batch Mean (uM) Standard Deviation (±)>  (17) 


>  <Pharmaron Solubility (PBS, pH 7.4): Aqueous Solubility - Batch Mean (uM) Count>  (17) 
1.0

>  <log P>  (17) 
2.66

>  <log D>  (17) 
2.65

>  <Pharmaron Caliper Assay (CDK2/CCNE1): Minimum measured (%)>  (17) 
36.1

>  <Pharmaron Caliper Assay (CDK2/CCNE1): IC50 - Batch Mean (uM)>  (17) 
11.2

>  <Pharmaron ADPGLO (CDK2/E1-25C): Minimum measured (%)>  (17) 


>  <Pharmaron ADPGLO (CDK2/E1-25C): IC50 - Batch Mean (uM)>  (17) 


>  <Pharmaron ADPGLO (CDK2/E1-37C): Minimum measured (%)>  (17) 


>  <Pharmaron ADPGLO (CDK2/E1-37C): IC50 - Batch Mean (uM)>  (17) 


>  <IncuCyte Kuramochi RB-WT: IC50 - Batch Mean (uM)>  (17) 
20.0

>  <IncuCyte Kuramochi RB-KO: IC50 - Batch Mean (uM)>  (17) 
20.0

>  <DSF (npCDK2/CCNE1): dTm D - Batch Mean [Concentration: 100]>  (17) 


>  <DSF (npCDK2/CCNE1): dTm D - Batch Mean [Concentration: 20.0]>  (17) 
1.256

>  <DSF (pCDK2/CCNE1): dTm D - Batch Mean [Concentration: 100]>  (17) 


>  <DSF (pCDK2/CCNE1): dTm D - Batch Mean [Concentration: 20.0]>  (17) 


>  <RLM: t1/2 - Batch Mean (Min)>  (17) 


>  <RLM: Cl int - Batch Mean (uL/min/mg protein)>  (17) 


>  <RLM: ER (Hepatic extraction ratio) - Batch Mean>  (17) 


>  <HLM: t1/2 - Batch Mean (Min)>  (17) 


>  <HLM: Cl int - Batch Mean (uL/min/mg protein)>  (17) 


>  <HLM: ER (Hepatic extraction ratio) - Batch Mean>  (17) 


>  <MDCK-WT 4% BSA: Papp (A-B) - Batch Mean (10-6, cm/s)>  (17) 


>  <MDCK-WT 4% BSA: Papp (B-A) - Batch Mean (10-6, cm/s)>  (17) 


>  <MDCK-WT 4% BSA: Efflux Ratio - Batch Mean>  (17) 


>  <MDCK-WT 4% BSA: ~Net A_B - Batch Mean (10-6, cm/s)>  (17) 


>  <pIC50>  (17) 
4.950782

>  <Selection_1>  (17) 
Y

>  <Selection_N>  (17) 
N

>  <Serie>  (17) 
Tetrahydrothienopyridine

>  <Selection_T>  (17) 


>  <Train_Vs_Test>  (17) 


$$$$
CTX-1020770
     RDKit          2D

 30 34  0  0  0  0  0  0  0  0999 V2000
    6.5664   -0.1398    0.0000 S   0  0  0  0  0  0  0  0  0  0  0  0
    5.1961   -0.7500    0.0000 C   0  0  0  0  0  0  0  0  0  0  0  0
    7.5701   -1.2546    0.0000 C   0  0  0  0  0  0  0  0  0  0  0  0
    3.8971    0.0000    0.0000 C   0  0  0  0  0  0  0  0  0  0  0  0
    5.3529   -2.2417    0.0000 C   0  0  0  0  0  0  0  0  0  0  0  0
    6.8201   -2.5536    0.0000 C   0  0  0  0  0  0  0  0  0  0  0  0
    9.0701   -1.2546    0.0000 C   0  0  0  0  0  0  0  0  0  0  0  0
    3.8971    1.5000    0.0000 O   0  0  0  0  0  0  0  0  0  0  0  0
    2.5980   -0.7500    0.0000 N   0  0  0  0  0  0  0  0  0  0  0  0
    7.5701   -3.8526    0.0000 C   0  0  0  0  0  0  0  0  0  0  0  0
    9.8201   -2.5536    0.0000 C   0  0  0  0  0  0  0  0  0  0  0  0
    1.2990    0.0000    0.0000 C   0  0  0  0  0  0  0  0  0  0  0  0
    9.0701   -3.8526    0.0000 N   0  0  0  0  0  0  0  0  0  0  0  0
    0.0000   -0.7500    0.0000 C   0  0  0  0  0  0  0  0  0  0  0  0
    9.8201   -5.1517    0.0000 C   0  0  0  0  0  0  0  0  0  0  0  0
   -1.3703   -0.1398    0.0000 N   0  0  0  0  0  0  0  0  0  0  0  0
   -0.1567   -2.2417    0.0000 C   0  0  0  0  0  0  0  0  0  0  0  0
    9.0701   -6.4507    0.0000 O   0  0  0  0  0  0  0  0  0  0  0  0
   11.3201   -5.1517    0.0000 C   0  0  0  0  0  0  0  0  0  0  0  0
   -2.3740   -1.2546    0.0000 C   0  0  0  0  0  0  0  0  0  0  0  0
   -1.6240   -2.5536    0.0000 S   0  0  0  0  0  0  0  0  0  0  0  0
   12.2018   -6.3652    0.0000 O   0  0  0  0  0  0  0  0  0  0  0  0
   12.2018   -3.9382    0.0000 C   0  0  0  0  0  0  0  0  0  0  0  0
   13.6284   -5.9017    0.0000 C   0  0  0  0  0  0  0  0  0  0  0  0
   13.6284   -4.4017    0.0000 C   0  0  0  0  0  0  0  0  0  0  0  0
   11.7383   -2.5116    0.0000 C   0  0  0  0  0  0  0  0  0  0  0  0
   14.9274   -6.6517    0.0000 C   0  0  0  0  0  0  0  0  0  0  0  0
   14.9274   -3.6517    0.0000 C   0  0  0  0  0  0  0  0  0  0  0  0
   16.2265   -5.9017    0.0000 C   0  0  0  0  0  0  0  0  0  0  0  0
   16.2265   -4.4017    0.0000 C   0  0  0  0  0  0  0  0  0  0  0  0
  1  2  1  0
  1  3  1  0
  2  4  1  0
  2  5  2  0
  3  6  2  0
  3  7  1  0
  4  8  2  0
  4  9  1  0
  6 10  1  0
  7 11  1  0
  9 12  1  0
 10 13  1  0
 12 14  1  0
 13 15  1  0
 14 16  1  0
 14 17  2  0
 15 18  2  0
 15 19  1  0
 16 20  2  0
 17 21  1  0
 19 22  1  0
 19 23  2  0
 22 24  1  0
 23 25  1  0
 23 26  1  0
 24 27  2  0
 25 28  2  0
 27 29  1  0
 28 30  1  0
  5  6  1  0
 11 13  1  0
 20 21  1  0
 24 25  1  0
 29 30  2  0
M  END
>  <Molecule Name>  (18) 
CTX-1020770

>  <SMILES>  (18) 
CC1=C(OC2=C1C=CC=C2)C(=O)N1CCC2=C(C1)C=C(S2)C(=O)NCC1=CSC=N1

>  <Batch Name>  (18) 
CTX-1020770-1

>  <Batch Created Date>  (18) 
2021-12-16

>  <Batch ID>  (18) 
CTX-1020770-1

>  <External ID>  (18) 
P841-0351

>  <Stereochemistry>  (18) 
Achiral

>  <Amount 1>  (18) 
2.45

>  <Unit 1>  (18) 
mg

>  <CRO 1>  (18) 
Pharmaron

>  <CRO 1 Total Amount>  (18) 
11.65

>  <CRO 1 Unit>  (18) 
mg

>  <Pharmaron Solubility (PBS, pH 7.4): Aqueous Solubility - Batch Mean (uM)>  (18) 
2.8527

>  <Pharmaron Solubility (PBS, pH 7.4): Aqueous Solubility - Batch Mean (uM) Standard Deviation (±)>  (18) 


>  <Pharmaron Solubility (PBS, pH 7.4): Aqueous Solubility - Batch Mean (uM) Count>  (18) 
1.0

>  <log P>  (18) 
3.21

>  <log D>  (18) 
3.21

>  <Pharmaron Caliper Assay (CDK2/CCNE1): Minimum measured (%)>  (18) 
46.0

>  <Pharmaron Caliper Assay (CDK2/CCNE1): IC50 - Batch Mean (uM)>  (18) 
28.3

>  <Pharmaron ADPGLO (CDK2/E1-25C): Minimum measured (%)>  (18) 


>  <Pharmaron ADPGLO (CDK2/E1-25C): IC50 - Batch Mean (uM)>  (18) 


>  <Pharmaron ADPGLO (CDK2/E1-37C): Minimum measured (%)>  (18) 


>  <Pharmaron ADPGLO (CDK2/E1-37C): IC50 - Batch Mean (uM)>  (18) 


>  <IncuCyte Kuramochi RB-WT: IC50 - Batch Mean (uM)>  (18) 
20.0

>  <IncuCyte Kuramochi RB-KO: IC50 - Batch Mean (uM)>  (18) 
20.0

>  <DSF (npCDK2/CCNE1): dTm D - Batch Mean [Concentration: 100]>  (18) 


>  <DSF (npCDK2/CCNE1): dTm D - Batch Mean [Concentration: 20.0]>  (18) 
1.055

>  <DSF (pCDK2/CCNE1): dTm D - Batch Mean [Concentration: 100]>  (18) 


>  <DSF (pCDK2/CCNE1): dTm D - Batch Mean [Concentration: 20.0]>  (18) 


>  <RLM: t1/2 - Batch Mean (Min)>  (18) 


>  <RLM: Cl int - Batch Mean (uL/min/mg protein)>  (18) 


>  <RLM: ER (Hepatic extraction ratio) - Batch Mean>  (18) 


>  <HLM: t1/2 - Batch Mean (Min)>  (18) 


>  <HLM: Cl int - Batch Mean (uL/min/mg protein)>  (18) 


>  <HLM: ER (Hepatic extraction ratio) - Batch Mean>  (18) 


>  <MDCK-WT 4% BSA: Papp (A-B) - Batch Mean (10-6, cm/s)>  (18) 


>  <MDCK-WT 4% BSA: Papp (B-A) - Batch Mean (10-6, cm/s)>  (18) 


>  <MDCK-WT 4% BSA: Efflux Ratio - Batch Mean>  (18) 


>  <MDCK-WT 4% BSA: ~Net A_B - Batch Mean (10-6, cm/s)>  (18) 


>  <pIC50>  (18) 
4.548214

>  <Selection_1>  (18) 
Y

>  <Selection_N>  (18) 
N

>  <Serie>  (18) 
Tetrahydrothienopyridine

>  <Selection_T>  (18) 


>  <Train_Vs_Test>  (18) 


$$$$
CTX-1020769
     RDKit          2D

 32 36  0  0  0  0  0  0  0  0999 V2000
    5.1961   -0.7500    0.0000 O   0  0  0  0  0  0  0  0  0  0  0  0
    3.8971    0.0000    0.0000 C   0  0  0  0  0  0  0  0  0  0  0  0
    2.5980   -0.7500    0.0000 N   0  0  0  0  0  0  0  0  0  0  0  0
    3.8971    1.5000    0.0000 C   0  0  0  0  0  0  0  0  0  0  0  0
    1.2990    0.0000    0.0000 C   0  0  0  0  0  0  0  0  0  0  0  0
    5.1961    2.2500    0.0000 N   0  0  0  0  0  0  0  0  0  0  0  0
    2.5980    2.2500    0.0000 C   0  0  0  0  0  0  0  0  0  0  0  0
    0.0000   -0.7500    0.0000 C   0  0  0  0  0  0  0  0  0  0  0  0
    5.1961    3.7500    0.0000 C   0  0  0  0  0  0  0  0  0  0  0  0
    2.5980    3.7500    0.0000 C   0  0  0  0  0  0  0  0  0  0  0  0
   -1.3703   -0.1398    0.0000 N   0  0  0  0  0  0  0  0  0  0  0  0
   -0.1567   -2.2417    0.0000 C   0  0  0  0  0  0  0  0  0  0  0  0
    3.8971    4.5000    0.0000 C   0  0  0  0  0  0  0  0  0  0  0  0
    6.4951    4.5000    0.0000 C   0  0  0  0  0  0  0  0  0  0  0  0
   -2.3740   -1.2546    0.0000 C   0  0  0  0  0  0  0  0  0  0  0  0
   -1.6240   -2.5536    0.0000 N   0  0  0  0  0  0  0  0  0  0  0  0
    3.8971    6.0000    0.0000 C   0  0  0  0  0  0  0  0  0  0  0  0
    6.4951    6.0000    0.0000 N   0  0  0  0  0  0  0  0  0  0  0  0
   -2.2341   -3.9239    0.0000 C   0  0  0  0  0  0  0  0  0  0  0  0
    5.1961    6.7500    0.0000 C   0  0  0  0  0  0  0  0  0  0  0  0
    7.7942    6.7500    0.0000 C   0  0  0  0  0  0  0  0  0  0  0  0
    9.0932    6.0000    0.0000 O   0  0  0  0  0  0  0  0  0  0  0  0
    7.7942    8.2500    0.0000 C   0  0  0  0  0  0  0  0  0  0  0  0
    9.0077    9.1316    0.0000 O   0  0  0  0  0  0  0  0  0  0  0  0
    6.5807    9.1316    0.0000 C   0  0  0  0  0  0  0  0  0  0  0  0
    8.5442   10.5582    0.0000 C   0  0  0  0  0  0  0  0  0  0  0  0
    7.0442   10.5582    0.0000 C   0  0  0  0  0  0  0  0  0  0  0  0
    5.1541    8.6681    0.0000 C   0  0  0  0  0  0  0  0  0  0  0  0
    9.2942   11.8573    0.0000 C   0  0  0  0  0  0  0  0  0  0  0  0
    6.2942   11.8573    0.0000 C   0  0  0  0  0  0  0  0  0  0  0  0
    8.5442   13.1563    0.0000 C   0  0  0  0  0  0  0  0  0  0  0  0
    7.0442   13.1563    0.0000 C   0  0  0  0  0  0  0  0  0  0  0  0
  1  2  2  0
  2  3  1  0
  2  4  1  0
  3  5  1  0
  4  6  2  0
  4  7  1  0
  5  8  1  0
  6  9  1  0
  7 10  2  0
  8 11  1  0
  8 12  2  0
  9 13  2  0
  9 14  1  0
 11 15  2  0
 12 16  1  0
 13 17  1  0
 14 18  1  0
 16 19  1  0
 17 20  1  0
 18 21  1  0
 21 22  2  0
 21 23  1  0
 23 24  1  0
 23 25  2  0
 24 26  1  0
 25 27  1  0
 25 28  1  0
 26 29  2  0
 27 30  2  0
 29 31  1  0
 30 32  1  0
 10 13  1  0
 15 16  1  0
 18 20  1  0
 26 27  1  0
 31 32  2  0
M  END
>  <Molecule Name>  (19) 
CTX-1020769

>  <SMILES>  (19) 
CN1C=NC(CNC(=O)C2=NC3=C(CCN(C3)C(=O)C3=C(C)C4=C(O3)C=CC=C4)C=C2)=C1

>  <Batch Name>  (19) 
CTX-1020769-1

>  <Batch Created Date>  (19) 
2021-12-16

>  <Batch ID>  (19) 
CTX-1020769-1

>  <External ID>  (19) 
P841-0364

>  <Stereochemistry>  (19) 
Achiral

>  <Amount 1>  (19) 
5.95

>  <Unit 1>  (19) 
mg

>  <CRO 1>  (19) 
Pharmaron

>  <CRO 1 Total Amount>  (19) 
29.85

>  <CRO 1 Unit>  (19) 
mg

>  <Pharmaron Solubility (PBS, pH 7.4): Aqueous Solubility - Batch Mean (uM)>  (19) 
303.4483

>  <Pharmaron Solubility (PBS, pH 7.4): Aqueous Solubility - Batch Mean (uM) Standard Deviation (±)>  (19) 


>  <Pharmaron Solubility (PBS, pH 7.4): Aqueous Solubility - Batch Mean (uM) Count>  (19) 
1.0

>  <log P>  (19) 
1.86

>  <log D>  (19) 
1.85

>  <Pharmaron Caliper Assay (CDK2/CCNE1): Minimum measured (%)>  (19) 
83.9

>  <Pharmaron Caliper Assay (CDK2/CCNE1): IC50 - Batch Mean (uM)>  (19) 
45.1

>  <Pharmaron ADPGLO (CDK2/E1-25C): Minimum measured (%)>  (19) 


>  <Pharmaron ADPGLO (CDK2/E1-25C): IC50 - Batch Mean (uM)>  (19) 


>  <Pharmaron ADPGLO (CDK2/E1-37C): Minimum measured (%)>  (19) 


>  <Pharmaron ADPGLO (CDK2/E1-37C): IC50 - Batch Mean (uM)>  (19) 


>  <IncuCyte Kuramochi RB-WT: IC50 - Batch Mean (uM)>  (19) 
20.0

>  <IncuCyte Kuramochi RB-KO: IC50 - Batch Mean (uM)>  (19) 
20.0

>  <DSF (npCDK2/CCNE1): dTm D - Batch Mean [Concentration: 100]>  (19) 


>  <DSF (npCDK2/CCNE1): dTm D - Batch Mean [Concentration: 20.0]>  (19) 
-0.046

>  <DSF (pCDK2/CCNE1): dTm D - Batch Mean [Concentration: 100]>  (19) 


>  <DSF (pCDK2/CCNE1): dTm D - Batch Mean [Concentration: 20.0]>  (19) 


>  <RLM: t1/2 - Batch Mean (Min)>  (19) 


>  <RLM: Cl int - Batch Mean (uL/min/mg protein)>  (19) 


>  <RLM: ER (Hepatic extraction ratio) - Batch Mean>  (19) 


>  <HLM: t1/2 - Batch Mean (Min)>  (19) 


>  <HLM: Cl int - Batch Mean (uL/min/mg protein)>  (19) 


>  <HLM: ER (Hepatic extraction ratio) - Batch Mean>  (19) 


>  <MDCK-WT 4% BSA: Papp (A-B) - Batch Mean (10-6, cm/s)>  (19) 


>  <MDCK-WT 4% BSA: Papp (B-A) - Batch Mean (10-6, cm/s)>  (19) 


>  <MDCK-WT 4% BSA: Efflux Ratio - Batch Mean>  (19) 


>  <MDCK-WT 4% BSA: ~Net A_B - Batch Mean (10-6, cm/s)>  (19) 


>  <pIC50>  (19) 
4.345823

>  <Selection_1>  (19) 
Y

>  <Selection_N>  (19) 


>  <Serie>  (19) 
Naphthyridine

>  <Selection_T>  (19) 
N

>  <Train_Vs_Test>  (19) 


$$$$
CTX-1020767
     RDKit          2D

 31 35  0  0  0  0  0  0  0  0999 V2000
    5.1961   -0.7500    0.0000 O   0  0  0  0  0  0  0  0  0  0  0  0
    3.8971    0.0000    0.0000 C   0  0  0  0  0  0  0  0  0  0  0  0
    2.5980   -0.7500    0.0000 N   0  0  0  0  0  0  0  0  0  0  0  0
    3.8971    1.5000    0.0000 C   0  0  0  0  0  0  0  0  0  0  0  0
    1.2990    0.0000    0.0000 C   0  0  0  0  0  0  0  0  0  0  0  0
    5.1961    2.2500    0.0000 N   0  0  0  0  0  0  0  0  0  0  0  0
    2.5980    2.2500    0.0000 C   0  0  0  0  0  0  0  0  0  0  0  0
    0.0000   -0.7500    0.0000 C   0  0  0  0  0  0  0  0  0  0  0  0
    5.1961    3.7500    0.0000 C   0  0  0  0  0  0  0  0  0  0  0  0
    2.5980    3.7500    0.0000 C   0  0  0  0  0  0  0  0  0  0  0  0
   -1.3703   -0.1398    0.0000 N   0  0  0  0  0  0  0  0  0  0  0  0
   -0.1567   -2.2417    0.0000 C   0  0  0  0  0  0  0  0  0  0  0  0
    3.8971    4.5000    0.0000 C   0  0  0  0  0  0  0  0  0  0  0  0
    6.4951    4.5000    0.0000 C   0  0  0  0  0  0  0  0  0  0  0  0
   -2.3740   -1.2546    0.0000 C   0  0  0  0  0  0  0  0  0  0  0  0
   -1.6240   -2.5536    0.0000 N   0  0  0  0  0  0  0  0  0  0  0  0
    3.8971    6.0000    0.0000 C   0  0  0  0  0  0  0  0  0  0  0  0
    6.4951    6.0000    0.0000 N   0  0  0  0  0  0  0  0  0  0  0  0
    5.1961    6.7500    0.0000 C   0  0  0  0  0  0  0  0  0  0  0  0
    7.7942    6.7500    0.0000 C   0  0  0  0  0  0  0  0  0  0  0  0
    9.0932    6.0000    0.0000 O   0  0  0  0  0  0  0  0  0  0  0  0
    7.7942    8.2500    0.0000 C   0  0  0  0  0  0  0  0  0  0  0  0
    9.0077    9.1316    0.0000 O   0  0  0  0  0  0  0  0  0  0  0  0
    6.5807    9.1316    0.0000 C   0  0  0  0  0  0  0  0  0  0  0  0
    8.5442   10.5582    0.0000 C   0  0  0  0  0  0  0  0  0  0  0  0
    7.0442   10.5582    0.0000 C   0  0  0  0  0  0  0  0  0  0  0  0
    5.1541    8.6681    0.0000 C   0  0  0  0  0  0  0  0  0  0  0  0
    9.2942   11.8573    0.0000 C   0  0  0  0  0  0  0  0  0  0  0  0
    6.2942   11.8573    0.0000 C   0  0  0  0  0  0  0  0  0  0  0  0
    8.5442   13.1563    0.0000 C   0  0  0  0  0  0  0  0  0  0  0  0
    7.0442   13.1563    0.0000 C   0  0  0  0  0  0  0  0  0  0  0  0
  1  2  2  0
  2  3  1  0
  2  4  1  0
  3  5  1  0
  4  6  2  0
  4  7  1  0
  5  8  1  0
  6  9  1  0
  7 10  2  0
  8 11  1  0
  8 12  2  0
  9 13  2  0
  9 14  1  0
 11 15  2  0
 12 16  1  0
 13 17  1  0
 14 18  1  0
 17 19  1  0
 18 20  1  0
 20 21  2  0
 20 22  1  0
 22 23  1  0
 22 24  2  0
 23 25  1  0
 24 26  1  0
 24 27  1  0
 25 28  2  0
 26 29  2  0
 28 30  1  0
 29 31  1  0
 10 13  1  0
 15 16  1  0
 18 19  1  0
 25 26  1  0
 30 31  2  0
M  END
>  <Molecule Name>  (20) 
CTX-1020767

>  <SMILES>  (20) 
CC1=C(OC2=C1C=CC=C2)C(=O)N1CCC2=C(C1)N=C(C=C2)C(=O)NCC1=CNC=N1

>  <Batch Name>  (20) 
CTX-1020767-1

>  <Batch Created Date>  (20) 
2021-12-16

>  <Batch ID>  (20) 
CTX-1020767-1

>  <External ID>  (20) 
P841-0365

>  <Stereochemistry>  (20) 
Achiral

>  <Amount 1>  (20) 
3.95

>  <Unit 1>  (20) 
mg

>  <CRO 1>  (20) 
Pharmaron

>  <CRO 1 Total Amount>  (20) 
24.15

>  <CRO 1 Unit>  (20) 
mg

>  <Pharmaron Solubility (PBS, pH 7.4): Aqueous Solubility - Batch Mean (uM)>  (20) 
101.3274

>  <Pharmaron Solubility (PBS, pH 7.4): Aqueous Solubility - Batch Mean (uM) Standard Deviation (±)>  (20) 


>  <Pharmaron Solubility (PBS, pH 7.4): Aqueous Solubility - Batch Mean (uM) Count>  (20) 
1.0

>  <log P>  (20) 
1.48

>  <log D>  (20) 
1.43

>  <Pharmaron Caliper Assay (CDK2/CCNE1): Minimum measured (%)>  (20) 
66.7

>  <Pharmaron Caliper Assay (CDK2/CCNE1): IC50 - Batch Mean (uM)>  (20) 
89.0

>  <Pharmaron ADPGLO (CDK2/E1-25C): Minimum measured (%)>  (20) 


>  <Pharmaron ADPGLO (CDK2/E1-25C): IC50 - Batch Mean (uM)>  (20) 


>  <Pharmaron ADPGLO (CDK2/E1-37C): Minimum measured (%)>  (20) 


>  <Pharmaron ADPGLO (CDK2/E1-37C): IC50 - Batch Mean (uM)>  (20) 


>  <IncuCyte Kuramochi RB-WT: IC50 - Batch Mean (uM)>  (20) 
20.0

>  <IncuCyte Kuramochi RB-KO: IC50 - Batch Mean (uM)>  (20) 
20.0

>  <DSF (npCDK2/CCNE1): dTm D - Batch Mean [Concentration: 100]>  (20) 


>  <DSF (npCDK2/CCNE1): dTm D - Batch Mean [Concentration: 20.0]>  (20) 
0.054000000000000006

>  <DSF (pCDK2/CCNE1): dTm D - Batch Mean [Concentration: 100]>  (20) 


>  <DSF (pCDK2/CCNE1): dTm D - Batch Mean [Concentration: 20.0]>  (20) 


>  <RLM: t1/2 - Batch Mean (Min)>  (20) 


>  <RLM: Cl int - Batch Mean (uL/min/mg protein)>  (20) 


>  <RLM: ER (Hepatic extraction ratio) - Batch Mean>  (20) 


>  <HLM: t1/2 - Batch Mean (Min)>  (20) 


>  <HLM: Cl int - Batch Mean (uL/min/mg protein)>  (20) 


>  <HLM: ER (Hepatic extraction ratio) - Batch Mean>  (20) 


>  <MDCK-WT 4% BSA: Papp (A-B) - Batch Mean (10-6, cm/s)>  (20) 


>  <MDCK-WT 4% BSA: Papp (B-A) - Batch Mean (10-6, cm/s)>  (20) 


>  <MDCK-WT 4% BSA: Efflux Ratio - Batch Mean>  (20) 


>  <MDCK-WT 4% BSA: ~Net A_B - Batch Mean (10-6, cm/s)>  (20) 


>  <pIC50>  (20) 
4.05061

>  <Selection_1>  (20) 
Y

>  <Selection_N>  (20) 
Y

>  <Serie>  (20) 
Naphthyridine

>  <Selection_T>  (20) 
N

>  <Train_Vs_Test>  (20) 


$$$$
CTX-1020766
     RDKit          2D

 31 35  0  0  0  0  0  0  0  0999 V2000
    4.5467   -1.7024    0.0000 S   0  0  0  0  0  0  0  0  0  0  0  0
    5.0467   -0.8364    0.0000 C   0  0  0  0  0  0  0  0  0  0  0  0
    3.5686   -1.4945    0.0000 C   0  0  0  0  0  0  0  0  0  0  0  0
    4.3776   -0.0932    0.0000 N   0  0  0  0  0  0  0  0  0  0  0  0
    3.4641   -0.5000    0.0000 C   0  0  0  0  0  0  0  0  0  0  0  0
    2.5980    0.0000    0.0000 C   0  0  0  0  0  0  0  0  0  0  0  0
    1.7320   -0.5000    0.0000 N   0  0  0  0  0  0  0  0  0  0  0  0
    0.8660    0.0000    0.0000 C   0  0  0  0  0  0  0  0  0  0  0  0
    0.8660    1.0000    0.0000 O   0  0  0  0  0  0  0  0  0  0  0  0
    0.0000   -0.5000    0.0000 C   0  0  0  0  0  0  0  0  0  0  0  0
   -0.8660    0.0000    0.0000 N   0  0  0  0  0  0  0  0  0  0  0  0
    0.0000   -1.4999    0.0000 C   0  0  0  0  0  0  0  0  0  0  0  0
   -1.7320   -0.4999    0.0000 C   0  0  0  0  0  0  0  0  0  0  0  0
   -0.8660   -1.9999    0.0000 C   0  0  0  0  0  0  0  0  0  0  0  0
   -1.7320   -1.4999    0.0000 C   0  0  0  0  0  0  0  0  0  0  0  0
   -2.5980    0.0000    0.0000 C   0  0  0  0  0  0  0  0  0  0  0  0
   -2.5980   -1.9999    0.0000 C   0  0  0  0  0  0  0  0  0  0  0  0
   -3.4641   -0.4999    0.0000 N   0  0  0  0  0  0  0  0  0  0  0  0
   -3.4641   -1.4999    0.0000 C   0  0  0  0  0  0  0  0  0  0  0  0
   -4.3301    0.0000    0.0000 C   0  0  0  0  0  0  0  0  0  0  0  0
   -4.3301    1.0000    0.0000 O   0  0  0  0  0  0  0  0  0  0  0  0
   -5.1961   -0.4999    0.0000 C   0  0  0  0  0  0  0  0  0  0  0  0
   -6.1096   -0.0932    0.0000 O   0  0  0  0  0  0  0  0  0  0  0  0
   -5.3006   -1.4945    0.0000 C   0  0  0  0  0  0  0  0  0  0  0  0
   -6.7788   -0.8364    0.0000 C   0  0  0  0  0  0  0  0  0  0  0  0
   -6.2788   -1.7024    0.0000 C   0  0  0  0  0  0  0  0  0  0  0  0
   -4.5575   -2.1636    0.0000 C   0  0  0  0  0  0  0  0  0  0  0  0
   -7.7788   -0.8364    0.0000 C   0  0  0  0  0  0  0  0  0  0  0  0
   -6.7788   -2.5684    0.0000 C   0  0  0  0  0  0  0  0  0  0  0  0
   -8.2788   -1.7024    0.0000 C   0  0  0  0  0  0  0  0  0  0  0  0
   -7.7788   -2.5684    0.0000 C   0  0  0  0  0  0  0  0  0  0  0  0
  1  2  1  0
  1  3  1  0
  2  4  2  0
  3  5  2  0
  5  6  1  0
  6  7  1  0
  7  8  1  0
  8  9  2  0
  8 10  1  0
 10 11  2  0
 10 12  1  0
 11 13  1  0
 12 14  2  0
 13 15  2  0
 13 16  1  0
 15 17  1  0
 16 18  1  0
 17 19  1  0
 18 20  1  0
 20 21  2  0
 20 22  1  0
 22 23  1  0
 22 24  2  0
 23 25  1  0
 24 26  1  0
 24 27  1  0
 25 28  2  0
 26 29  2  0
 28 30  1  0
 29 31  1  0
  4  5  1  0
 14 15  1  0
 18 19  1  0
 25 26  1  0
 30 31  2  0
M  END
>  <Molecule Name>  (21) 
CTX-1020766

>  <SMILES>  (21) 
CC1=C(OC2=C1C=CC=C2)C(=O)N1CCC2=C(C1)N=C(C=C2)C(=O)NCC1=CSC=N1

>  <Batch Name>  (21) 
CTX-1020766-1

>  <Batch Created Date>  (21) 
2021-12-16

>  <Batch ID>  (21) 
CTX-1020766-1

>  <External ID>  (21) 
P841-0371

>  <Stereochemistry>  (21) 
Achiral

>  <Amount 1>  (21) 
0.0

>  <Unit 1>  (21) 
mg

>  <CRO 1>  (21) 
Pharmaron

>  <CRO 1 Total Amount>  (21) 
0.0

>  <CRO 1 Unit>  (21) 
mg

>  <Pharmaron Solubility (PBS, pH 7.4): Aqueous Solubility - Batch Mean (uM)>  (21) 


>  <Pharmaron Solubility (PBS, pH 7.4): Aqueous Solubility - Batch Mean (uM) Standard Deviation (±)>  (21) 


>  <Pharmaron Solubility (PBS, pH 7.4): Aqueous Solubility - Batch Mean (uM) Count>  (21) 


>  <log P>  (21) 
2.42

>  <log D>  (21) 
2.42

>  <Pharmaron Caliper Assay (CDK2/CCNE1): Minimum measured (%)>  (21) 
67.9

>  <Pharmaron Caliper Assay (CDK2/CCNE1): IC50 - Batch Mean (uM)>  (21) 
40.0

>  <Pharmaron ADPGLO (CDK2/E1-25C): Minimum measured (%)>  (21) 


>  <Pharmaron ADPGLO (CDK2/E1-25C): IC50 - Batch Mean (uM)>  (21) 


>  <Pharmaron ADPGLO (CDK2/E1-37C): Minimum measured (%)>  (21) 


>  <Pharmaron ADPGLO (CDK2/E1-37C): IC50 - Batch Mean (uM)>  (21) 


>  <IncuCyte Kuramochi RB-WT: IC50 - Batch Mean (uM)>  (21) 


>  <IncuCyte Kuramochi RB-KO: IC50 - Batch Mean (uM)>  (21) 


>  <DSF (npCDK2/CCNE1): dTm D - Batch Mean [Concentration: 100]>  (21) 


>  <DSF (npCDK2/CCNE1): dTm D - Batch Mean [Concentration: 20.0]>  (21) 


>  <DSF (pCDK2/CCNE1): dTm D - Batch Mean [Concentration: 100]>  (21) 


>  <DSF (pCDK2/CCNE1): dTm D - Batch Mean [Concentration: 20.0]>  (21) 


>  <RLM: t1/2 - Batch Mean (Min)>  (21) 


>  <RLM: Cl int - Batch Mean (uL/min/mg protein)>  (21) 


>  <RLM: ER (Hepatic extraction ratio) - Batch Mean>  (21) 


>  <HLM: t1/2 - Batch Mean (Min)>  (21) 


>  <HLM: Cl int - Batch Mean (uL/min/mg protein)>  (21) 


>  <HLM: ER (Hepatic extraction ratio) - Batch Mean>  (21) 


>  <MDCK-WT 4% BSA: Papp (A-B) - Batch Mean (10-6, cm/s)>  (21) 


>  <MDCK-WT 4% BSA: Papp (B-A) - Batch Mean (10-6, cm/s)>  (21) 


>  <MDCK-WT 4% BSA: Efflux Ratio - Batch Mean>  (21) 


>  <MDCK-WT 4% BSA: ~Net A_B - Batch Mean (10-6, cm/s)>  (21) 


>  <pIC50>  (21) 
4.39794

>  <Selection_1>  (21) 
Y

>  <Selection_N>  (21) 


>  <Serie>  (21) 
Naphthyridine

>  <Selection_T>  (21) 
N

>  <Train_Vs_Test>  (21) 


$$$$
CTX-1020759
     RDKit          2D

 41 46  0  0  0  0  0  0  0  0999 V2000
    3.4641   -0.5000    0.0000 O   0  0  0  0  0  0  0  0  0  0  0  0
    2.5980    0.0000    0.0000 C   0  0  0  0  0  0  0  0  0  0  0  0
    1.7320   -0.5000    0.0000 N   0  0  0  0  0  0  0  0  0  0  0  0
    2.5980    1.0000    0.0000 C   0  0  0  0  0  0  0  0  0  0  0  0
    0.8660    0.0000    0.0000 C   0  0  0  0  0  0  0  0  0  0  0  0
    3.4641    1.5000    0.0000 N   0  0  0  0  0  0  0  0  0  0  0  0
    1.7320    1.5000    0.0000 C   0  0  0  0  0  0  0  0  0  0  0  0
    0.0000   -0.5000    0.0000 C   0  0  0  0  0  0  0  0  0  0  0  0
    3.4641    2.5000    0.0000 C   0  0  0  0  0  0  0  0  0  0  0  0
    1.7320    2.5000    0.0000 C   0  0  0  0  0  0  0  0  0  0  0  0
   -0.8660    0.0000    0.0000 C   0  0  0  0  0  0  0  0  0  0  0  0
    0.0000   -1.4999    0.0000 C   0  0  0  0  0  0  0  0  0  0  0  0
    2.5980    2.9999    0.0000 C   0  0  0  0  0  0  0  0  0  0  0  0
    4.3301    3.0000    0.0000 C   0  0  0  0  0  0  0  0  0  0  0  0
   -1.7320   -0.4999    0.0000 C   0  0  0  0  0  0  0  0  0  0  0  0
   -0.8660   -1.9999    0.0000 C   0  0  0  0  0  0  0  0  0  0  0  0
    2.5980    4.0000    0.0000 C   0  0  0  0  0  0  0  0  0  0  0  0
    4.3301    4.0000    0.0000 N   0  0  0  0  0  0  0  0  0  0  0  0
   -1.7320   -1.4999    0.0000 C   0  0  0  0  0  0  0  0  0  0  0  0
    3.4641    4.5000    0.0000 C   0  0  0  0  0  0  0  0  0  0  0  0
    5.1961    4.5000    0.0000 C   0  0  0  0  0  0  0  0  0  0  0  0
   -2.5980   -1.9999    0.0000 N   0  0  0  0  0  0  0  0  0  0  0  0
    6.0621    4.0000    0.0000 O   0  0  0  0  0  0  0  0  0  0  0  0
    5.1961    5.5000    0.0000 C   0  0  0  0  0  0  0  0  0  0  0  0
   -3.4641   -1.4999    0.0000 C   0  0  0  0  0  0  0  0  0  0  0  0
   -2.5980   -2.9999    0.0000 C   0  0  0  0  0  0  0  0  0  0  0  0
    6.0051    6.0877    0.0000 N   0  0  0  0  0  0  0  0  0  0  0  0
    4.3871    6.0877    0.0000 C   0  0  0  0  0  0  0  0  0  0  0  0
   -4.3301   -1.9999    0.0000 C   0  0  0  0  0  0  0  0  0  0  0  0
   -3.4641   -3.4999    0.0000 C   0  0  0  0  0  0  0  0  0  0  0  0
    5.6961    7.0388    0.0000 C   0  0  0  0  0  0  0  0  0  0  0  0
    6.9562    5.7787    0.0000 C   0  0  0  0  0  0  0  0  0  0  0  0
    4.6961    7.0388    0.0000 C   0  0  0  0  0  0  0  0  0  0  0  0
   -4.3301   -2.9999    0.0000 N   0  0  0  0  0  0  0  0  0  0  0  0
    6.1961    7.9048    0.0000 C   0  0  0  0  0  0  0  0  0  0  0  0
    7.1641    4.8006    0.0000 C   0  0  0  0  0  0  0  0  0  0  0  0
    4.1961    7.9048    0.0000 C   0  0  0  0  0  0  0  0  0  0  0  0
   -5.1961   -3.4999    0.0000 C   0  0  0  0  0  0  0  0  0  0  0  0
    5.6961    8.7708    0.0000 C   0  0  0  0  0  0  0  0  0  0  0  0
    8.1151    4.4916    0.0000 O   0  0  0  0  0  0  0  0  0  0  0  0
    4.6961    8.7708    0.0000 C   0  0  0  0  0  0  0  0  0  0  0  0
  1  2  2  0
  2  3  1  0
  2  4  1  0
  3  5  1  0
  4  6  2  0
  4  7  1  0
  5  8  1  0
  6  9  1  0
  7 10  2  0
  8 11  2  0
  8 12  1  0
  9 13  2  0
  9 14  1  0
 11 15  1  0
 12 16  2  0
 13 17  1  0
 14 18  1  0
 15 19  2  0
 17 20  1  0
 18 21  1  0
 19 22  1  0
 21 23  2  0
 21 24  1  0
 22 25  1  0
 22 26  1  0
 24 27  1  0
 24 28  2  0
 25 29  1  0
 26 30  1  0
 27 31  1  0
 27 32  1  0
 28 33  1  0
 29 34  1  0
 31 35  2  0
 32 36  1  0
 33 37  2  0
 34 38  1  0
 35 39  1  0
 36 40  1  0
 37 41  1  0
 10 13  1  0
 16 19  1  0
 18 20  1  0
 30 34  1  0
 31 33  1  0
 39 41  2  0
M  END
>  <Molecule Name>  (22) 
CTX-1020759

>  <SMILES>  (22) 
CN1CCN(CC1)C1=CC=C(CNC(=O)C2=NC3=C(CCN(C3)C(=O)C3=CC4=C(C=CC=C4)N3CCO)C=C2)C=C1

>  <Batch Name>  (22) 
CTX-1020759-1

>  <Batch Created Date>  (22) 
2021-12-16

>  <Batch ID>  (22) 
CTX-1020759-1

>  <External ID>  (22) 
P841-0381

>  <Stereochemistry>  (22) 
Achiral

>  <Amount 1>  (22) 
5.05

>  <Unit 1>  (22) 
mg

>  <CRO 1>  (22) 
Pharmaron

>  <CRO 1 Total Amount>  (22) 
20.45

>  <CRO 1 Unit>  (22) 
mg

>  <Pharmaron Solubility (PBS, pH 7.4): Aqueous Solubility - Batch Mean (uM)>  (22) 
308.3799

>  <Pharmaron Solubility (PBS, pH 7.4): Aqueous Solubility - Batch Mean (uM) Standard Deviation (±)>  (22) 


>  <Pharmaron Solubility (PBS, pH 7.4): Aqueous Solubility - Batch Mean (uM) Count>  (22) 
1.0

>  <log P>  (22) 
2.59

>  <log D>  (22) 
1.96

>  <Pharmaron Caliper Assay (CDK2/CCNE1): Minimum measured (%)>  (22) 
29.5

>  <Pharmaron Caliper Assay (CDK2/CCNE1): IC50 - Batch Mean (uM)>  (22) 
44.2

>  <Pharmaron ADPGLO (CDK2/E1-25C): Minimum measured (%)>  (22) 


>  <Pharmaron ADPGLO (CDK2/E1-25C): IC50 - Batch Mean (uM)>  (22) 


>  <Pharmaron ADPGLO (CDK2/E1-37C): Minimum measured (%)>  (22) 


>  <Pharmaron ADPGLO (CDK2/E1-37C): IC50 - Batch Mean (uM)>  (22) 


>  <IncuCyte Kuramochi RB-WT: IC50 - Batch Mean (uM)>  (22) 
20.0

>  <IncuCyte Kuramochi RB-KO: IC50 - Batch Mean (uM)>  (22) 
20.0

>  <DSF (npCDK2/CCNE1): dTm D - Batch Mean [Concentration: 100]>  (22) 


>  <DSF (npCDK2/CCNE1): dTm D - Batch Mean [Concentration: 20.0]>  (22) 
0.45399999999999996

>  <DSF (pCDK2/CCNE1): dTm D - Batch Mean [Concentration: 100]>  (22) 


>  <DSF (pCDK2/CCNE1): dTm D - Batch Mean [Concentration: 20.0]>  (22) 


>  <RLM: t1/2 - Batch Mean (Min)>  (22) 


>  <RLM: Cl int - Batch Mean (uL/min/mg protein)>  (22) 


>  <RLM: ER (Hepatic extraction ratio) - Batch Mean>  (22) 


>  <HLM: t1/2 - Batch Mean (Min)>  (22) 


>  <HLM: Cl int - Batch Mean (uL/min/mg protein)>  (22) 


>  <HLM: ER (Hepatic extraction ratio) - Batch Mean>  (22) 


>  <MDCK-WT 4% BSA: Papp (A-B) - Batch Mean (10-6, cm/s)>  (22) 


>  <MDCK-WT 4% BSA: Papp (B-A) - Batch Mean (10-6, cm/s)>  (22) 


>  <MDCK-WT 4% BSA: Efflux Ratio - Batch Mean>  (22) 


>  <MDCK-WT 4% BSA: ~Net A_B - Batch Mean (10-6, cm/s)>  (22) 


>  <pIC50>  (22) 
4.354578

>  <Selection_1>  (22) 
Y

>  <Selection_N>  (22) 


>  <Serie>  (22) 
Naphthyridine

>  <Selection_T>  (22) 
N

>  <Train_Vs_Test>  (22) 


$$$$
CTX-1020755
     RDKit          2D

 39 44  0  0  0  0  0  0  0  0999 V2000
    5.1961   -0.7500    0.0000 O   0  0  0  0  0  0  0  0  0  0  0  0
    3.8971    0.0000    0.0000 C   0  0  0  0  0  0  0  0  0  0  0  0
    2.5980   -0.7500    0.0000 N   0  0  0  0  0  0  0  0  0  0  0  0
    3.8971    1.5000    0.0000 C   0  0  0  0  0  0  0  0  0  0  0  0
    1.2990    0.0000    0.0000 C   0  0  0  0  0  0  0  0  0  0  0  0
    5.1961    2.2500    0.0000 N   0  0  0  0  0  0  0  0  0  0  0  0
    2.5980    2.2500    0.0000 C   0  0  0  0  0  0  0  0  0  0  0  0
    0.0000   -0.7500    0.0000 C   0  0  0  0  0  0  0  0  0  0  0  0
    5.1961    3.7500    0.0000 C   0  0  0  0  0  0  0  0  0  0  0  0
    2.5980    3.7500    0.0000 C   0  0  0  0  0  0  0  0  0  0  0  0
   -1.2990    0.0000    0.0000 C   0  0  0  0  0  0  0  0  0  0  0  0
    0.0000   -2.2499    0.0000 C   0  0  0  0  0  0  0  0  0  0  0  0
    3.8971    4.5000    0.0000 C   0  0  0  0  0  0  0  0  0  0  0  0
    6.4951    4.5000    0.0000 C   0  0  0  0  0  0  0  0  0  0  0  0
   -2.5980   -0.7499    0.0000 C   0  0  0  0  0  0  0  0  0  0  0  0
   -1.2990   -2.9999    0.0000 C   0  0  0  0  0  0  0  0  0  0  0  0
    3.8971    6.0000    0.0000 C   0  0  0  0  0  0  0  0  0  0  0  0
    6.4951    6.0000    0.0000 N   0  0  0  0  0  0  0  0  0  0  0  0
   -2.5980   -2.2499    0.0000 C   0  0  0  0  0  0  0  0  0  0  0  0
    5.1961    6.7500    0.0000 C   0  0  0  0  0  0  0  0  0  0  0  0
    7.7942    6.7500    0.0000 C   0  0  0  0  0  0  0  0  0  0  0  0
   -3.8971   -2.9999    0.0000 N   0  0  0  0  0  0  0  0  0  0  0  0
    9.0932    6.0000    0.0000 O   0  0  0  0  0  0  0  0  0  0  0  0
    7.7942    8.2500    0.0000 C   0  0  0  0  0  0  0  0  0  0  0  0
   -5.1961   -2.2499    0.0000 C   0  0  0  0  0  0  0  0  0  0  0  0
   -3.8971   -4.4999    0.0000 C   0  0  0  0  0  0  0  0  0  0  0  0
    9.0077    9.1316    0.0000 O   0  0  0  0  0  0  0  0  0  0  0  0
    6.5807    9.1316    0.0000 C   0  0  0  0  0  0  0  0  0  0  0  0
   -6.4951   -2.9999    0.0000 C   0  0  0  0  0  0  0  0  0  0  0  0
   -5.1961   -5.2499    0.0000 C   0  0  0  0  0  0  0  0  0  0  0  0
    8.5442   10.5582    0.0000 C   0  0  0  0  0  0  0  0  0  0  0  0
    7.0442   10.5582    0.0000 C   0  0  0  0  0  0  0  0  0  0  0  0
    5.1541    8.6681    0.0000 C   0  0  0  0  0  0  0  0  0  0  0  0
   -6.4951   -4.4999    0.0000 N   0  0  0  0  0  0  0  0  0  0  0  0
    9.2942   11.8573    0.0000 C   0  0  0  0  0  0  0  0  0  0  0  0
    6.2942   11.8573    0.0000 C   0  0  0  0  0  0  0  0  0  0  0  0
   -7.7942   -5.2499    0.0000 C   0  0  0  0  0  0  0  0  0  0  0  0
    8.5442   13.1563    0.0000 C   0  0  0  0  0  0  0  0  0  0  0  0
    7.0442   13.1563    0.0000 C   0  0  0  0  0  0  0  0  0  0  0  0
  1  2  2  0
  2  3  1  0
  2  4  1  0
  3  5  1  0
  4  6  2  0
  4  7  1  0
  5  8  1  0
  6  9  1  0
  7 10  2  0
  8 11  2  0
  8 12  1  0
  9 13  2  0
  9 14  1  0
 11 15  1  0
 12 16  2  0
 13 17  1  0
 14 18  1  0
 15 19  2  0
 17 20  1  0
 18 21  1  0
 19 22  1  0
 21 23  2  0
 21 24  1  0
 22 25  1  0
 22 26  1  0
 24 27  1  0
 24 28  2  0
 25 29  1  0
 26 30  1  0
 27 31  1  0
 28 32  1  0
 28 33  1  0
 29 34  1  0
 31 35  1  0
 32 36  1  0
 34 37  1  0
 35 38  1  0
 36 39  1  0
 10 13  1  0
 16 19  1  0
 18 20  1  0
 30 34  1  0
 31 32  2  0
 38 39  1  0
M  END
>  <Molecule Name>  (23) 
CTX-1020755

>  <SMILES>  (23) 
CN1CCN(CC1)C1=CC=C(CNC(=O)C2=NC3=C(CCN(C3)C(=O)C3=C(C)C4=C(CCCC4)O3)C=C2)C=C1

>  <Batch Name>  (23) 
CTX-1020755-1

>  <Batch Created Date>  (23) 
2021-12-16

>  <Batch ID>  (23) 
CTX-1020755-1

>  <External ID>  (23) 
P841-0382

>  <Stereochemistry>  (23) 
Achiral

>  <Amount 1>  (23) 
5.65

>  <Unit 1>  (23) 
mg

>  <CRO 1>  (23) 
Pharmaron

>  <CRO 1 Total Amount>  (23) 
14.2

>  <CRO 1 Unit>  (23) 
mg

>  <Pharmaron Solubility (PBS, pH 7.4): Aqueous Solubility - Batch Mean (uM)>  (23) 
11.2077

>  <Pharmaron Solubility (PBS, pH 7.4): Aqueous Solubility - Batch Mean (uM) Standard Deviation (±)>  (23) 


>  <Pharmaron Solubility (PBS, pH 7.4): Aqueous Solubility - Batch Mean (uM) Count>  (23) 
1.0

>  <log P>  (23) 
3.83

>  <log D>  (23) 
3.2

>  <Pharmaron Caliper Assay (CDK2/CCNE1): Minimum measured (%)>  (23) 
52.8

>  <Pharmaron Caliper Assay (CDK2/CCNE1): IC50 - Batch Mean (uM)>  (23) 
10.7

>  <Pharmaron ADPGLO (CDK2/E1-25C): Minimum measured (%)>  (23) 


>  <Pharmaron ADPGLO (CDK2/E1-25C): IC50 - Batch Mean (uM)>  (23) 


>  <Pharmaron ADPGLO (CDK2/E1-37C): Minimum measured (%)>  (23) 


>  <Pharmaron ADPGLO (CDK2/E1-37C): IC50 - Batch Mean (uM)>  (23) 


>  <IncuCyte Kuramochi RB-WT: IC50 - Batch Mean (uM)>  (23) 
9.01

>  <IncuCyte Kuramochi RB-KO: IC50 - Batch Mean (uM)>  (23) 
9.76

>  <DSF (npCDK2/CCNE1): dTm D - Batch Mean [Concentration: 100]>  (23) 


>  <DSF (npCDK2/CCNE1): dTm D - Batch Mean [Concentration: 20.0]>  (23) 
0.742

>  <DSF (pCDK2/CCNE1): dTm D - Batch Mean [Concentration: 100]>  (23) 


>  <DSF (pCDK2/CCNE1): dTm D - Batch Mean [Concentration: 20.0]>  (23) 


>  <RLM: t1/2 - Batch Mean (Min)>  (23) 


>  <RLM: Cl int - Batch Mean (uL/min/mg protein)>  (23) 


>  <RLM: ER (Hepatic extraction ratio) - Batch Mean>  (23) 


>  <HLM: t1/2 - Batch Mean (Min)>  (23) 


>  <HLM: Cl int - Batch Mean (uL/min/mg protein)>  (23) 


>  <HLM: ER (Hepatic extraction ratio) - Batch Mean>  (23) 


>  <MDCK-WT 4% BSA: Papp (A-B) - Batch Mean (10-6, cm/s)>  (23) 


>  <MDCK-WT 4% BSA: Papp (B-A) - Batch Mean (10-6, cm/s)>  (23) 


>  <MDCK-WT 4% BSA: Efflux Ratio - Batch Mean>  (23) 


>  <MDCK-WT 4% BSA: ~Net A_B - Batch Mean (10-6, cm/s)>  (23) 


>  <pIC50>  (23) 
4.970616

>  <Selection_1>  (23) 
Y

>  <Selection_N>  (23) 


>  <Serie>  (23) 
Naphthyridine

>  <Selection_T>  (23) 
N

>  <Train_Vs_Test>  (23) 


$$$$
CTX-1020754
     RDKit          2D

 31 35  0  0  0  0  0  0  0  0999 V2000
    5.1961   -0.7500    0.0000 O   0  0  0  0  0  0  0  0  0  0  0  0
    3.8971    0.0000    0.0000 C   0  0  0  0  0  0  0  0  0  0  0  0
    2.5980   -0.7500    0.0000 N   0  0  0  0  0  0  0  0  0  0  0  0
    3.8971    1.5000    0.0000 C   0  0  0  0  0  0  0  0  0  0  0  0
    1.2990    0.0000    0.0000 C   0  0  0  0  0  0  0  0  0  0  0  0
    5.1961    2.2500    0.0000 N   0  0  0  0  0  0  0  0  0  0  0  0
    2.5980    2.2500    0.0000 C   0  0  0  0  0  0  0  0  0  0  0  0
    0.0000   -0.7500    0.0000 C   0  0  0  0  0  0  0  0  0  0  0  0
    5.1961    3.7500    0.0000 C   0  0  0  0  0  0  0  0  0  0  0  0
    2.5980    3.7500    0.0000 C   0  0  0  0  0  0  0  0  0  0  0  0
   -1.3703   -0.1398    0.0000 O   0  0  0  0  0  0  0  0  0  0  0  0
   -0.1567   -2.2417    0.0000 C   0  0  0  0  0  0  0  0  0  0  0  0
    3.8971    4.5000    0.0000 C   0  0  0  0  0  0  0  0  0  0  0  0
    6.4951    4.5000    0.0000 C   0  0  0  0  0  0  0  0  0  0  0  0
   -2.3740   -1.2546    0.0000 C   0  0  0  0  0  0  0  0  0  0  0  0
   -1.6240   -2.5536    0.0000 N   0  0  0  0  0  0  0  0  0  0  0  0
    3.8971    6.0000    0.0000 C   0  0  0  0  0  0  0  0  0  0  0  0
    6.4951    6.0000    0.0000 N   0  0  0  0  0  0  0  0  0  0  0  0
    5.1961    6.7500    0.0000 C   0  0  0  0  0  0  0  0  0  0  0  0
    7.7942    6.7500    0.0000 C   0  0  0  0  0  0  0  0  0  0  0  0
    9.0932    6.0000    0.0000 O   0  0  0  0  0  0  0  0  0  0  0  0
    7.7942    8.2500    0.0000 C   0  0  0  0  0  0  0  0  0  0  0  0
    9.0077    9.1316    0.0000 O   0  0  0  0  0  0  0  0  0  0  0  0
    6.5807    9.1316    0.0000 C   0  0  0  0  0  0  0  0  0  0  0  0
    8.5442   10.5582    0.0000 C   0  0  0  0  0  0  0  0  0  0  0  0
    7.0442   10.5582    0.0000 C   0  0  0  0  0  0  0  0  0  0  0  0
    5.1541    8.6681    0.0000 C   0  0  0  0  0  0  0  0  0  0  0  0
    9.2942   11.8573    0.0000 C   0  0  0  0  0  0  0  0  0  0  0  0
    6.2942   11.8573    0.0000 C   0  0  0  0  0  0  0  0  0  0  0  0
    8.5442   13.1563    0.0000 C   0  0  0  0  0  0  0  0  0  0  0  0
    7.0442   13.1563    0.0000 C   0  0  0  0  0  0  0  0  0  0  0  0
  1  2  2  0
  2  3  1  0
  2  4  1  0
  3  5  1  0
  4  6  2  0
  4  7  1  0
  5  8  1  0
  6  9  1  0
  7 10  2  0
  8 11  1  0
  8 12  2  0
  9 13  2  0
  9 14  1  0
 11 15  1  0
 12 16  1  0
 13 17  1  0
 14 18  1  0
 17 19  1  0
 18 20  1  0
 20 21  2  0
 20 22  1  0
 22 23  1  0
 22 24  2  0
 23 25  1  0
 24 26  1  0
 24 27  1  0
 25 28  2  0
 26 29  2  0
 28 30  1  0
 29 31  1  0
 10 13  1  0
 15 16  2  0
 18 19  1  0
 25 26  1  0
 30 31  2  0
M  END
>  <Molecule Name>  (24) 
CTX-1020754

>  <SMILES>  (24) 
CC1=C(OC2=C1C=CC=C2)C(=O)N1CCC2=C(C1)N=C(C=C2)C(=O)NCC1=CN=CO1

>  <Batch Name>  (24) 
CTX-1020754-1

>  <Batch Created Date>  (24) 
2021-12-16

>  <Batch ID>  (24) 
CTX-1020754-1

>  <External ID>  (24) 
P841-0363

>  <Stereochemistry>  (24) 
Achiral

>  <Amount 1>  (24) 
4.45

>  <Unit 1>  (24) 
mg

>  <CRO 1>  (24) 
Pharmaron

>  <CRO 1 Total Amount>  (24) 
21.85

>  <CRO 1 Unit>  (24) 
mg

>  <Pharmaron Solubility (PBS, pH 7.4): Aqueous Solubility - Batch Mean (uM)>  (24) 
4.7938

>  <Pharmaron Solubility (PBS, pH 7.4): Aqueous Solubility - Batch Mean (uM) Standard Deviation (±)>  (24) 


>  <Pharmaron Solubility (PBS, pH 7.4): Aqueous Solubility - Batch Mean (uM) Count>  (24) 
1.0

>  <log P>  (24) 
1.54

>  <log D>  (24) 
1.54

>  <Pharmaron Caliper Assay (CDK2/CCNE1): Minimum measured (%)>  (24) 
69.5

>  <Pharmaron Caliper Assay (CDK2/CCNE1): IC50 - Batch Mean (uM)>  (24) 
48.9

>  <Pharmaron ADPGLO (CDK2/E1-25C): Minimum measured (%)>  (24) 


>  <Pharmaron ADPGLO (CDK2/E1-25C): IC50 - Batch Mean (uM)>  (24) 


>  <Pharmaron ADPGLO (CDK2/E1-37C): Minimum measured (%)>  (24) 


>  <Pharmaron ADPGLO (CDK2/E1-37C): IC50 - Batch Mean (uM)>  (24) 


>  <IncuCyte Kuramochi RB-WT: IC50 - Batch Mean (uM)>  (24) 
20.0

>  <IncuCyte Kuramochi RB-KO: IC50 - Batch Mean (uM)>  (24) 
20.0

>  <DSF (npCDK2/CCNE1): dTm D - Batch Mean [Concentration: 100]>  (24) 


>  <DSF (npCDK2/CCNE1): dTm D - Batch Mean [Concentration: 20.0]>  (24) 
0.04

>  <DSF (pCDK2/CCNE1): dTm D - Batch Mean [Concentration: 100]>  (24) 


>  <DSF (pCDK2/CCNE1): dTm D - Batch Mean [Concentration: 20.0]>  (24) 


>  <RLM: t1/2 - Batch Mean (Min)>  (24) 


>  <RLM: Cl int - Batch Mean (uL/min/mg protein)>  (24) 


>  <RLM: ER (Hepatic extraction ratio) - Batch Mean>  (24) 


>  <HLM: t1/2 - Batch Mean (Min)>  (24) 


>  <HLM: Cl int - Batch Mean (uL/min/mg protein)>  (24) 


>  <HLM: ER (Hepatic extraction ratio) - Batch Mean>  (24) 


>  <MDCK-WT 4% BSA: Papp (A-B) - Batch Mean (10-6, cm/s)>  (24) 


>  <MDCK-WT 4% BSA: Papp (B-A) - Batch Mean (10-6, cm/s)>  (24) 


>  <MDCK-WT 4% BSA: Efflux Ratio - Batch Mean>  (24) 


>  <MDCK-WT 4% BSA: ~Net A_B - Batch Mean (10-6, cm/s)>  (24) 


>  <pIC50>  (24) 
4.310691

>  <Selection_1>  (24) 
Y

>  <Selection_N>  (24) 


>  <Serie>  (24) 
Naphthyridine

>  <Selection_T>  (24) 
N

>  <Train_Vs_Test>  (24) 


$$$$
CTX-1020753
     RDKit          2D

 40 45  0  0  0  0  0  0  0  0999 V2000
    9.7817    0.8848    0.0000 Cl  0  0  0  0  0  0  0  0  0  0  0  0
    9.5737   -0.0932    0.0000 C   0  0  0  0  0  0  0  0  0  0  0  0
    8.6602   -0.5000    0.0000 C   0  0  0  0  0  0  0  0  0  0  0  0
   10.2429   -0.8364    0.0000 C   0  0  0  0  0  0  0  0  0  0  0  0
    8.7647   -1.4945    0.0000 N   0  0  0  0  0  0  0  0  0  0  0  0
    7.7942    0.0000    0.0000 C   0  0  0  0  0  0  0  0  0  0  0  0
    9.7429   -1.7024    0.0000 C   0  0  0  0  0  0  0  0  0  0  0  0
   11.2429   -0.8364    0.0000 C   0  0  0  0  0  0  0  0  0  0  0  0
    8.0216   -2.1636    0.0000 C   0  0  0  0  0  0  0  0  0  0  0  0
    7.7942    0.9999    0.0000 O   0  0  0  0  0  0  0  0  0  0  0  0
    6.9282   -0.5000    0.0000 N   0  0  0  0  0  0  0  0  0  0  0  0
   10.2429   -2.5684    0.0000 C   0  0  0  0  0  0  0  0  0  0  0  0
   11.7429   -1.7024    0.0000 C   0  0  0  0  0  0  0  0  0  0  0  0
    6.0621    0.0000    0.0000 C   0  0  0  0  0  0  0  0  0  0  0  0
    6.9282   -1.4999    0.0000 C   0  0  0  0  0  0  0  0  0  0  0  0
   11.2429   -2.5684    0.0000 C   0  0  0  0  0  0  0  0  0  0  0  0
    5.1961   -0.5000    0.0000 C   0  0  0  0  0  0  0  0  0  0  0  0
    6.0621   -1.9999    0.0000 C   0  0  0  0  0  0  0  0  0  0  0  0
    4.3301    0.0000    0.0000 N   0  0  0  0  0  0  0  0  0  0  0  0
    5.1961   -1.4999    0.0000 C   0  0  0  0  0  0  0  0  0  0  0  0
    3.4641   -0.5000    0.0000 C   0  0  0  0  0  0  0  0  0  0  0  0
    4.3301   -2.0000    0.0000 C   0  0  0  0  0  0  0  0  0  0  0  0
    2.5980    0.0000    0.0000 C   0  0  0  0  0  0  0  0  0  0  0  0
    3.4641   -1.4999    0.0000 C   0  0  0  0  0  0  0  0  0  0  0  0
    2.5980    1.0000    0.0000 O   0  0  0  0  0  0  0  0  0  0  0  0
    1.7320   -0.5000    0.0000 N   0  0  0  0  0  0  0  0  0  0  0  0
    0.8660    0.0000    0.0000 C   0  0  0  0  0  0  0  0  0  0  0  0
    0.0000   -0.5000    0.0000 C   0  0  0  0  0  0  0  0  0  0  0  0
   -0.8660    0.0000    0.0000 C   0  0  0  0  0  0  0  0  0  0  0  0
    0.0000   -1.4999    0.0000 C   0  0  0  0  0  0  0  0  0  0  0  0
   -1.7320   -0.4999    0.0000 C   0  0  0  0  0  0  0  0  0  0  0  0
   -0.8660   -1.9999    0.0000 C   0  0  0  0  0  0  0  0  0  0  0  0
   -1.7320   -1.4999    0.0000 C   0  0  0  0  0  0  0  0  0  0  0  0
   -2.5980   -1.9999    0.0000 N   0  0  0  0  0  0  0  0  0  0  0  0
   -3.4641   -1.4999    0.0000 C   0  0  0  0  0  0  0  0  0  0  0  0
   -2.5980   -2.9999    0.0000 C   0  0  0  0  0  0  0  0  0  0  0  0
   -4.3301   -1.9999    0.0000 C   0  0  0  0  0  0  0  0  0  0  0  0
   -3.4641   -3.4999    0.0000 C   0  0  0  0  0  0  0  0  0  0  0  0
   -4.3301   -2.9999    0.0000 N   0  0  0  0  0  0  0  0  0  0  0  0
   -5.1961   -3.4999    0.0000 C   0  0  0  0  0  0  0  0  0  0  0  0
  1  2  1  0
  2  3  2  0
  2  4  1  0
  3  5  1  0
  3  6  1  0
  4  7  2  0
  4  8  1  0
  5  9  1  0
  6 10  2  0
  6 11  1  0
  7 12  1  0
  8 13  2  0
 11 14  1  0
 11 15  1  0
 12 16  2  0
 14 17  1  0
 15 18  1  0
 17 19  2  0
 17 20  1  0
 19 21  1  0
 20 22  2  0
 21 23  1  0
 21 24  2  0
 23 25  2  0
 23 26  1  0
 26 27  1  0
 27 28  1  0
 28 29  2  0
 28 30  1  0
 29 31  1  0
 30 32  2  0
 31 33  2  0
 33 34  1  0
 34 35  1  0
 34 36  1  0
 35 37  1  0
 36 38  1  0
 37 39  1  0
 39 40  1  0
  5  7  1  0
 13 16  1  0
 18 20  1  0
 22 24  1  0
 32 33  1  0
 38 39  1  0
M  END
>  <Molecule Name>  (25) 
CTX-1020753

>  <SMILES>  (25) 
CN1C2=C(C=CC=C2)C(Cl)=C1C(=O)N1CCC2=CC=C(N=C2C1)C(=O)NCC1=CC=C(C=C1)N1CCN(C)CC1

>  <Batch Name>  (25) 
CTX-1020753-1

>  <Batch Created Date>  (25) 
2021-12-16

>  <Batch ID>  (25) 
CTX-1020753-1

>  <External ID>  (25) 
P841-0369

>  <Stereochemistry>  (25) 
Achiral

>  <Amount 1>  (25) 
5.1

>  <Unit 1>  (25) 
mg

>  <CRO 1>  (25) 
Pharmaron

>  <CRO 1 Total Amount>  (25) 
26.75

>  <CRO 1 Unit>  (25) 
mg

>  <Pharmaron Solubility (PBS, pH 7.4): Aqueous Solubility - Batch Mean (uM)>  (25) 
8.9921

>  <Pharmaron Solubility (PBS, pH 7.4): Aqueous Solubility - Batch Mean (uM) Standard Deviation (±)>  (25) 


>  <Pharmaron Solubility (PBS, pH 7.4): Aqueous Solubility - Batch Mean (uM) Count>  (25) 
1.0

>  <log P>  (25) 
3.89

>  <log D>  (25) 
3.25

>  <Pharmaron Caliper Assay (CDK2/CCNE1): Minimum measured (%)>  (25) 
23.6

>  <Pharmaron Caliper Assay (CDK2/CCNE1): IC50 - Batch Mean (uM)>  (25) 
3.4

>  <Pharmaron ADPGLO (CDK2/E1-25C): Minimum measured (%)>  (25) 


>  <Pharmaron ADPGLO (CDK2/E1-25C): IC50 - Batch Mean (uM)>  (25) 


>  <Pharmaron ADPGLO (CDK2/E1-37C): Minimum measured (%)>  (25) 


>  <Pharmaron ADPGLO (CDK2/E1-37C): IC50 - Batch Mean (uM)>  (25) 


>  <IncuCyte Kuramochi RB-WT: IC50 - Batch Mean (uM)>  (25) 
8.69

>  <IncuCyte Kuramochi RB-KO: IC50 - Batch Mean (uM)>  (25) 
8.63

>  <DSF (npCDK2/CCNE1): dTm D - Batch Mean [Concentration: 100]>  (25) 


>  <DSF (npCDK2/CCNE1): dTm D - Batch Mean [Concentration: 20.0]>  (25) 
1.31

>  <DSF (pCDK2/CCNE1): dTm D - Batch Mean [Concentration: 100]>  (25) 


>  <DSF (pCDK2/CCNE1): dTm D - Batch Mean [Concentration: 20.0]>  (25) 


>  <RLM: t1/2 - Batch Mean (Min)>  (25) 


>  <RLM: Cl int - Batch Mean (uL/min/mg protein)>  (25) 


>  <RLM: ER (Hepatic extraction ratio) - Batch Mean>  (25) 


>  <HLM: t1/2 - Batch Mean (Min)>  (25) 


>  <HLM: Cl int - Batch Mean (uL/min/mg protein)>  (25) 


>  <HLM: ER (Hepatic extraction ratio) - Batch Mean>  (25) 


>  <MDCK-WT 4% BSA: Papp (A-B) - Batch Mean (10-6, cm/s)>  (25) 


>  <MDCK-WT 4% BSA: Papp (B-A) - Batch Mean (10-6, cm/s)>  (25) 


>  <MDCK-WT 4% BSA: Efflux Ratio - Batch Mean>  (25) 


>  <MDCK-WT 4% BSA: ~Net A_B - Batch Mean (10-6, cm/s)>  (25) 


>  <pIC50>  (25) 
5.468521

>  <Selection_1>  (25) 
Y

>  <Selection_N>  (25) 


>  <Serie>  (25) 
Naphthyridine

>  <Selection_T>  (25) 
N

>  <Train_Vs_Test>  (25) 


$$$$
CTX-1020752
     RDKit          2D

 40 45  0  0  0  0  0  0  0  0999 V2000
    5.1961   -0.7500    0.0000 O   0  0  0  0  0  0  0  0  0  0  0  0
    3.8971    0.0000    0.0000 C   0  0  0  0  0  0  0  0  0  0  0  0
    2.5980   -0.7500    0.0000 N   0  0  0  0  0  0  0  0  0  0  0  0
    3.8971    1.5000    0.0000 C   0  0  0  0  0  0  0  0  0  0  0  0
    1.2990    0.0000    0.0000 C   0  0  0  0  0  0  0  0  0  0  0  0
    5.1961    2.2500    0.0000 N   0  0  0  0  0  0  0  0  0  0  0  0
    2.5980    2.2500    0.0000 C   0  0  0  0  0  0  0  0  0  0  0  0
    0.0000   -0.7500    0.0000 C   0  0  0  0  0  0  0  0  0  0  0  0
    5.1961    3.7500    0.0000 C   0  0  0  0  0  0  0  0  0  0  0  0
    2.5980    3.7500    0.0000 C   0  0  0  0  0  0  0  0  0  0  0  0
   -1.2990    0.0000    0.0000 C   0  0  0  0  0  0  0  0  0  0  0  0
    0.0000   -2.2499    0.0000 C   0  0  0  0  0  0  0  0  0  0  0  0
    3.8971    4.5000    0.0000 C   0  0  0  0  0  0  0  0  0  0  0  0
    6.4951    4.5000    0.0000 C   0  0  0  0  0  0  0  0  0  0  0  0
   -2.5980   -0.7499    0.0000 C   0  0  0  0  0  0  0  0  0  0  0  0
   -1.2990   -2.9999    0.0000 C   0  0  0  0  0  0  0  0  0  0  0  0
    3.8971    6.0000    0.0000 C   0  0  0  0  0  0  0  0  0  0  0  0
    6.4951    6.0000    0.0000 N   0  0  0  0  0  0  0  0  0  0  0  0
   -2.5980   -2.2499    0.0000 C   0  0  0  0  0  0  0  0  0  0  0  0
    5.1961    6.7500    0.0000 C   0  0  0  0  0  0  0  0  0  0  0  0
    7.7942    6.7500    0.0000 C   0  0  0  0  0  0  0  0  0  0  0  0
   -3.8971   -2.9999    0.0000 N   0  0  0  0  0  0  0  0  0  0  0  0
    9.0932    6.0000    0.0000 O   0  0  0  0  0  0  0  0  0  0  0  0
    7.7942    8.2500    0.0000 C   0  0  0  0  0  0  0  0  0  0  0  0
   -5.1961   -2.2499    0.0000 C   0  0  0  0  0  0  0  0  0  0  0  0
   -3.8971   -4.4999    0.0000 C   0  0  0  0  0  0  0  0  0  0  0  0
    9.0077    9.1316    0.0000 N   0  0  0  0  0  0  0  0  0  0  0  0
    6.5807    9.1316    0.0000 C   0  0  0  0  0  0  0  0  0  0  0  0
   -6.4951   -2.9999    0.0000 C   0  0  0  0  0  0  0  0  0  0  0  0
   -5.1961   -5.2499    0.0000 C   0  0  0  0  0  0  0  0  0  0  0  0
    8.5442   10.5582    0.0000 C   0  0  0  0  0  0  0  0  0  0  0  0
   10.4343    8.6681    0.0000 C   0  0  0  0  0  0  0  0  0  0  0  0
    7.0442   10.5582    0.0000 C   0  0  0  0  0  0  0  0  0  0  0  0
    5.1541    8.6681    0.0000 C   0  0  0  0  0  0  0  0  0  0  0  0
   -6.4951   -4.4999    0.0000 N   0  0  0  0  0  0  0  0  0  0  0  0
    9.2942   11.8573    0.0000 C   0  0  0  0  0  0  0  0  0  0  0  0
    6.2942   11.8573    0.0000 C   0  0  0  0  0  0  0  0  0  0  0  0
   -7.7942   -5.2499    0.0000 C   0  0  0  0  0  0  0  0  0  0  0  0
    8.5442   13.1563    0.0000 C   0  0  0  0  0  0  0  0  0  0  0  0
    7.0442   13.1563    0.0000 C   0  0  0  0  0  0  0  0  0  0  0  0
  1  2  2  0
  2  3  1  0
  2  4  1  0
  3  5  1  0
  4  6  2  0
  4  7  1  0
  5  8  1  0
  6  9  1  0
  7 10  2  0
  8 11  2  0
  8 12  1  0
  9 13  2  0
  9 14  1  0
 11 15  1  0
 12 16  2  0
 13 17  1  0
 14 18  1  0
 15 19  2  0
 17 20  1  0
 18 21  1  0
 19 22  1  0
 21 23  2  0
 21 24  1  0
 22 25  1  0
 22 26  1  0
 24 27  1  0
 24 28  2  0
 25 29  1  0
 26 30  1  0
 27 31  1  0
 27 32  1  0
 28 33  1  0
 28 34  1  0
 29 35  1  0
 31 36  2  0
 33 37  2  0
 35 38  1  0
 36 39  1  0
 37 40  1  0
 10 13  1  0
 16 19  1  0
 18 20  1  0
 30 35  1  0
 31 33  1  0
 39 40  2  0
M  END
>  <Molecule Name>  (26) 
CTX-1020752

>  <SMILES>  (26) 
CN1C2=C(C=CC=C2)C(C)=C1C(=O)N1CCC2=C(C1)N=C(C=C2)C(=O)NCC1=CC=C(C=C1)N1CCN(C)CC1

>  <Batch Name>  (26) 
CTX-1020752-1

>  <Batch Created Date>  (26) 
2021-12-16

>  <Batch ID>  (26) 
CTX-1020752-1

>  <External ID>  (26) 
P841-0368

>  <Stereochemistry>  (26) 
Achiral

>  <Amount 1>  (26) 
4.6

>  <Unit 1>  (26) 
mg

>  <CRO 1>  (26) 
Pharmaron

>  <CRO 1 Total Amount>  (26) 
25.65

>  <CRO 1 Unit>  (26) 
mg

>  <Pharmaron Solubility (PBS, pH 7.4): Aqueous Solubility - Batch Mean (uM)>  (26) 
181.5126

>  <Pharmaron Solubility (PBS, pH 7.4): Aqueous Solubility - Batch Mean (uM) Standard Deviation (±)>  (26) 


>  <Pharmaron Solubility (PBS, pH 7.4): Aqueous Solubility - Batch Mean (uM) Count>  (26) 
1.0

>  <log P>  (26) 
3.8

>  <log D>  (26) 
3.16

>  <Pharmaron Caliper Assay (CDK2/CCNE1): Minimum measured (%)>  (26) 
43.0

>  <Pharmaron Caliper Assay (CDK2/CCNE1): IC50 - Batch Mean (uM)>  (26) 
87.0

>  <Pharmaron ADPGLO (CDK2/E1-25C): Minimum measured (%)>  (26) 


>  <Pharmaron ADPGLO (CDK2/E1-25C): IC50 - Batch Mean (uM)>  (26) 


>  <Pharmaron ADPGLO (CDK2/E1-37C): Minimum measured (%)>  (26) 


>  <Pharmaron ADPGLO (CDK2/E1-37C): IC50 - Batch Mean (uM)>  (26) 


>  <IncuCyte Kuramochi RB-WT: IC50 - Batch Mean (uM)>  (26) 
11.1

>  <IncuCyte Kuramochi RB-KO: IC50 - Batch Mean (uM)>  (26) 
9.67

>  <DSF (npCDK2/CCNE1): dTm D - Batch Mean [Concentration: 100]>  (26) 


>  <DSF (npCDK2/CCNE1): dTm D - Batch Mean [Concentration: 20.0]>  (26) 
0.408

>  <DSF (pCDK2/CCNE1): dTm D - Batch Mean [Concentration: 100]>  (26) 


>  <DSF (pCDK2/CCNE1): dTm D - Batch Mean [Concentration: 20.0]>  (26) 


>  <RLM: t1/2 - Batch Mean (Min)>  (26) 


>  <RLM: Cl int - Batch Mean (uL/min/mg protein)>  (26) 


>  <RLM: ER (Hepatic extraction ratio) - Batch Mean>  (26) 


>  <HLM: t1/2 - Batch Mean (Min)>  (26) 


>  <HLM: Cl int - Batch Mean (uL/min/mg protein)>  (26) 


>  <HLM: ER (Hepatic extraction ratio) - Batch Mean>  (26) 


>  <MDCK-WT 4% BSA: Papp (A-B) - Batch Mean (10-6, cm/s)>  (26) 


>  <MDCK-WT 4% BSA: Papp (B-A) - Batch Mean (10-6, cm/s)>  (26) 


>  <MDCK-WT 4% BSA: Efflux Ratio - Batch Mean>  (26) 


>  <MDCK-WT 4% BSA: ~Net A_B - Batch Mean (10-6, cm/s)>  (26) 


>  <pIC50>  (26) 
4.060481

>  <Selection_1>  (26) 
Y

>  <Selection_N>  (26) 
Y

>  <Serie>  (26) 
Naphthyridine

>  <Selection_T>  (26) 
N

>  <Train_Vs_Test>  (26) 


$$$$
CTX-1020751
     RDKit          2D

 36 40  0  0  0  0  0  0  0  0999 V2000
    6.5621   -1.1339    0.0000 F   0  0  0  0  0  0  0  0  0  0  0  0
    6.0621   -1.9999    0.0000 C   0  0  0  0  0  0  0  0  0  0  0  0
    6.9282   -2.5000    0.0000 F   0  0  0  0  0  0  0  0  0  0  0  0
    5.5621   -2.8660    0.0000 F   0  0  0  0  0  0  0  0  0  0  0  0
    5.1961   -1.4999    0.0000 C   0  0  0  0  0  0  0  0  0  0  0  0
    5.1961   -0.5000    0.0000 C   0  0  0  0  0  0  0  0  0  0  0  0
    4.3301   -1.9999    0.0000 C   0  0  0  0  0  0  0  0  0  0  0  0
    4.3301    0.0000    0.0000 C   0  0  0  0  0  0  0  0  0  0  0  0
    3.4641   -1.5000    0.0000 C   0  0  0  0  0  0  0  0  0  0  0  0
    3.4641   -0.5000    0.0000 C   0  0  0  0  0  0  0  0  0  0  0  0
    2.5980    0.0000    0.0000 C   0  0  0  0  0  0  0  0  0  0  0  0
    1.7320   -0.5000    0.0000 N   0  0  0  0  0  0  0  0  0  0  0  0
    0.8660    0.0000    0.0000 C   0  0  0  0  0  0  0  0  0  0  0  0
    0.8660    1.0000    0.0000 O   0  0  0  0  0  0  0  0  0  0  0  0
    0.0000   -0.5000    0.0000 C   0  0  0  0  0  0  0  0  0  0  0  0
   -0.8660    0.0000    0.0000 N   0  0  0  0  0  0  0  0  0  0  0  0
    0.0000   -1.4999    0.0000 C   0  0  0  0  0  0  0  0  0  0  0  0
   -1.7320   -0.4999    0.0000 C   0  0  0  0  0  0  0  0  0  0  0  0
   -0.8660   -1.9999    0.0000 C   0  0  0  0  0  0  0  0  0  0  0  0
   -1.7320   -1.4999    0.0000 C   0  0  0  0  0  0  0  0  0  0  0  0
   -2.5980    0.0000    0.0000 C   0  0  0  0  0  0  0  0  0  0  0  0
   -2.5980   -1.9999    0.0000 C   0  0  0  0  0  0  0  0  0  0  0  0
   -3.4641   -0.4999    0.0000 N   0  0  0  0  0  0  0  0  0  0  0  0
   -3.4641   -1.4999    0.0000 C   0  0  0  0  0  0  0  0  0  0  0  0
   -4.3301    0.0000    0.0000 C   0  0  0  0  0  0  0  0  0  0  0  0
   -4.3301    1.0000    0.0000 O   0  0  0  0  0  0  0  0  0  0  0  0
   -5.1961   -0.4999    0.0000 C   0  0  0  0  0  0  0  0  0  0  0  0
   -6.1096   -0.0932    0.0000 O   0  0  0  0  0  0  0  0  0  0  0  0
   -5.3006   -1.4945    0.0000 C   0  0  0  0  0  0  0  0  0  0  0  0
   -6.7788   -0.8364    0.0000 C   0  0  0  0  0  0  0  0  0  0  0  0
   -6.2788   -1.7024    0.0000 C   0  0  0  0  0  0  0  0  0  0  0  0
   -4.5575   -2.1636    0.0000 C   0  0  0  0  0  0  0  0  0  0  0  0
   -7.7788   -0.8364    0.0000 C   0  0  0  0  0  0  0  0  0  0  0  0
   -6.7788   -2.5684    0.0000 C   0  0  0  0  0  0  0  0  0  0  0  0
   -8.2788   -1.7024    0.0000 C   0  0  0  0  0  0  0  0  0  0  0  0
   -7.7788   -2.5684    0.0000 C   0  0  0  0  0  0  0  0  0  0  0  0
  1  2  1  0
  2  3  1  0
  2  4  1  0
  2  5  1  0
  5  6  2  0
  5  7  1  0
  6  8  1  0
  7  9  2  0
  8 10  2  0
 10 11  1  0
 11 12  1  0
 12 13  1  0
 13 14  2  0
 13 15  1  0
 15 16  2  0
 15 17  1  0
 16 18  1  0
 17 19  2  0
 18 20  2  0
 18 21  1  0
 20 22  1  0
 21 23  1  0
 22 24  1  0
 23 25  1  0
 25 26  2  0
 25 27  1  0
 27 28  1  0
 27 29  2  0
 28 30  1  0
 29 31  1  0
 29 32  1  0
 30 33  2  0
 31 34  2  0
 33 35  1  0
 34 36  1  0
  9 10  1  0
 19 20  1  0
 23 24  1  0
 30 31  1  0
 35 36  2  0
M  END
>  <Molecule Name>  (27) 
CTX-1020751

>  <SMILES>  (27) 
CC1=C(OC2=C1C=CC=C2)C(=O)N1CCC2=C(C1)N=C(C=C2)C(=O)NCC1=CC=C(C=C1)C(F)(F)F

>  <Batch Name>  (27) 
CTX-1020751-1

>  <Batch Created Date>  (27) 
2021-12-16

>  <Batch ID>  (27) 
CTX-1020751-1

>  <External ID>  (27) 
P841-0366

>  <Stereochemistry>  (27) 
Achiral

>  <Amount 1>  (27) 
4.55

>  <Unit 1>  (27) 
mg

>  <CRO 1>  (27) 
Pharmaron

>  <CRO 1 Total Amount>  (27) 
21.6

>  <CRO 1 Unit>  (27) 
mg

>  <Pharmaron Solubility (PBS, pH 7.4): Aqueous Solubility - Batch Mean (uM)>  (27) 
0.0001

>  <Pharmaron Solubility (PBS, pH 7.4): Aqueous Solubility - Batch Mean (uM) Standard Deviation (±)>  (27) 


>  <Pharmaron Solubility (PBS, pH 7.4): Aqueous Solubility - Batch Mean (uM) Count>  (27) 
1.0

>  <log P>  (27) 
4.55

>  <log D>  (27) 
4.55

>  <Pharmaron Caliper Assay (CDK2/CCNE1): Minimum measured (%)>  (27) 
84.9

>  <Pharmaron Caliper Assay (CDK2/CCNE1): IC50 - Batch Mean (uM)>  (27) 
90.4

>  <Pharmaron ADPGLO (CDK2/E1-25C): Minimum measured (%)>  (27) 


>  <Pharmaron ADPGLO (CDK2/E1-25C): IC50 - Batch Mean (uM)>  (27) 


>  <Pharmaron ADPGLO (CDK2/E1-37C): Minimum measured (%)>  (27) 


>  <Pharmaron ADPGLO (CDK2/E1-37C): IC50 - Batch Mean (uM)>  (27) 


>  <IncuCyte Kuramochi RB-WT: IC50 - Batch Mean (uM)>  (27) 
20.0

>  <IncuCyte Kuramochi RB-KO: IC50 - Batch Mean (uM)>  (27) 
20.0

>  <DSF (npCDK2/CCNE1): dTm D - Batch Mean [Concentration: 100]>  (27) 


>  <DSF (npCDK2/CCNE1): dTm D - Batch Mean [Concentration: 20.0]>  (27) 
0.24

>  <DSF (pCDK2/CCNE1): dTm D - Batch Mean [Concentration: 100]>  (27) 


>  <DSF (pCDK2/CCNE1): dTm D - Batch Mean [Concentration: 20.0]>  (27) 


>  <RLM: t1/2 - Batch Mean (Min)>  (27) 


>  <RLM: Cl int - Batch Mean (uL/min/mg protein)>  (27) 


>  <RLM: ER (Hepatic extraction ratio) - Batch Mean>  (27) 


>  <HLM: t1/2 - Batch Mean (Min)>  (27) 


>  <HLM: Cl int - Batch Mean (uL/min/mg protein)>  (27) 


>  <HLM: ER (Hepatic extraction ratio) - Batch Mean>  (27) 


>  <MDCK-WT 4% BSA: Papp (A-B) - Batch Mean (10-6, cm/s)>  (27) 


>  <MDCK-WT 4% BSA: Papp (B-A) - Batch Mean (10-6, cm/s)>  (27) 


>  <MDCK-WT 4% BSA: Efflux Ratio - Batch Mean>  (27) 


>  <MDCK-WT 4% BSA: ~Net A_B - Batch Mean (10-6, cm/s)>  (27) 


>  <pIC50>  (27) 
4.043832

>  <Selection_1>  (27) 
Y

>  <Selection_N>  (27) 
Y

>  <Serie>  (27) 
Naphthyridine

>  <Selection_T>  (27) 
N

>  <Train_Vs_Test>  (27) 


$$$$
CTX-1020750
     RDKit          2D

 34 38  0  0  0  0  0  0  0  0999 V2000
    5.1961   -0.7500    0.0000 O   0  0  0  0  0  0  0  0  0  0  0  0
    3.8971    0.0000    0.0000 C   0  0  0  0  0  0  0  0  0  0  0  0
    2.5980   -0.7500    0.0000 N   0  0  0  0  0  0  0  0  0  0  0  0
    3.8971    1.5000    0.0000 C   0  0  0  0  0  0  0  0  0  0  0  0
    1.2990    0.0000    0.0000 C   0  0  0  0  0  0  0  0  0  0  0  0
    5.1961    2.2500    0.0000 N   0  0  0  0  0  0  0  0  0  0  0  0
    2.5980    2.2500    0.0000 C   0  0  0  0  0  0  0  0  0  0  0  0
    0.0000   -0.7500    0.0000 C   0  0  0  0  0  0  0  0  0  0  0  0
    5.1961    3.7500    0.0000 C   0  0  0  0  0  0  0  0  0  0  0  0
    2.5980    3.7500    0.0000 C   0  0  0  0  0  0  0  0  0  0  0  0
   -1.2990    0.0000    0.0000 C   0  0  0  0  0  0  0  0  0  0  0  0
    0.0000   -2.2500    0.0000 C   0  0  0  0  0  0  0  0  0  0  0  0
    3.8971    4.5000    0.0000 C   0  0  0  0  0  0  0  0  0  0  0  0
    6.4951    4.5000    0.0000 C   0  0  0  0  0  0  0  0  0  0  0  0
   -2.5980   -0.7499    0.0000 C   0  0  0  0  0  0  0  0  0  0  0  0
   -1.2990   -2.9999    0.0000 C   0  0  0  0  0  0  0  0  0  0  0  0
    3.8971    6.0000    0.0000 C   0  0  0  0  0  0  0  0  0  0  0  0
    6.4951    6.0000    0.0000 N   0  0  0  0  0  0  0  0  0  0  0  0
   -2.5980   -2.2499    0.0000 C   0  0  0  0  0  0  0  0  0  0  0  0
    5.1961    6.7500    0.0000 C   0  0  0  0  0  0  0  0  0  0  0  0
    7.7942    6.7500    0.0000 C   0  0  0  0  0  0  0  0  0  0  0  0
   -3.8971   -2.9999    0.0000 O   0  0  0  0  0  0  0  0  0  0  0  0
    9.0932    6.0000    0.0000 O   0  0  0  0  0  0  0  0  0  0  0  0
    7.7942    8.2500    0.0000 C   0  0  0  0  0  0  0  0  0  0  0  0
   -3.8971   -4.4999    0.0000 C   0  0  0  0  0  0  0  0  0  0  0  0
    9.0077    9.1316    0.0000 O   0  0  0  0  0  0  0  0  0  0  0  0
    6.5807    9.1316    0.0000 C   0  0  0  0  0  0  0  0  0  0  0  0
    8.5442   10.5582    0.0000 C   0  0  0  0  0  0  0  0  0  0  0  0
    7.0442   10.5582    0.0000 C   0  0  0  0  0  0  0  0  0  0  0  0
    5.1541    8.6681    0.0000 C   0  0  0  0  0  0  0  0  0  0  0  0
    9.2942   11.8573    0.0000 C   0  0  0  0  0  0  0  0  0  0  0  0
    6.2942   11.8573    0.0000 C   0  0  0  0  0  0  0  0  0  0  0  0
    8.5442   13.1563    0.0000 C   0  0  0  0  0  0  0  0  0  0  0  0
    7.0442   13.1563    0.0000 C   0  0  0  0  0  0  0  0  0  0  0  0
  1  2  2  0
  2  3  1  0
  2  4  1  0
  3  5  1  0
  4  6  2  0
  4  7  1  0
  5  8  1  0
  6  9  1  0
  7 10  2  0
  8 11  2  0
  8 12  1  0
  9 13  2  0
  9 14  1  0
 11 15  1  0
 12 16  2  0
 13 17  1  0
 14 18  1  0
 15 19  2  0
 17 20  1  0
 18 21  1  0
 19 22  1  0
 21 23  2  0
 21 24  1  0
 22 25  1  0
 24 26  1  0
 24 27  2  0
 26 28  1  0
 27 29  1  0
 27 30  1  0
 28 31  2  0
 29 32  2  0
 31 33  1  0
 32 34  1  0
 10 13  1  0
 16 19  1  0
 18 20  1  0
 28 29  1  0
 33 34  2  0
M  END
>  <Molecule Name>  (28) 
CTX-1020750

>  <SMILES>  (28) 
COC1=CC=C(CNC(=O)C2=NC3=C(CCN(C3)C(=O)C3=C(C)C4=C(O3)C=CC=C4)C=C2)C=C1

>  <Batch Name>  (28) 
CTX-1020750-1

>  <Batch Created Date>  (28) 
2021-12-16

>  <Batch ID>  (28) 
CTX-1020750-1

>  <External ID>  (28) 
P841-0367

>  <Stereochemistry>  (28) 
Achiral

>  <Amount 1>  (28) 
5.0

>  <Unit 1>  (28) 
mg

>  <CRO 1>  (28) 
Pharmaron

>  <CRO 1 Total Amount>  (28) 
13.85

>  <CRO 1 Unit>  (28) 
mg

>  <Pharmaron Solubility (PBS, pH 7.4): Aqueous Solubility - Batch Mean (uM)>  (28) 
0.0005

>  <Pharmaron Solubility (PBS, pH 7.4): Aqueous Solubility - Batch Mean (uM) Standard Deviation (±)>  (28) 


>  <Pharmaron Solubility (PBS, pH 7.4): Aqueous Solubility - Batch Mean (uM) Count>  (28) 
1.0

>  <log P>  (28) 
3.52

>  <log D>  (28) 
3.52

>  <Pharmaron Caliper Assay (CDK2/CCNE1): Minimum measured (%)>  (28) 
66.2

>  <Pharmaron Caliper Assay (CDK2/CCNE1): IC50 - Batch Mean (uM)>  (28) 
0.765

>  <Pharmaron ADPGLO (CDK2/E1-25C): Minimum measured (%)>  (28) 


>  <Pharmaron ADPGLO (CDK2/E1-25C): IC50 - Batch Mean (uM)>  (28) 


>  <Pharmaron ADPGLO (CDK2/E1-37C): Minimum measured (%)>  (28) 


>  <Pharmaron ADPGLO (CDK2/E1-37C): IC50 - Batch Mean (uM)>  (28) 


>  <IncuCyte Kuramochi RB-WT: IC50 - Batch Mean (uM)>  (28) 
20.0

>  <IncuCyte Kuramochi RB-KO: IC50 - Batch Mean (uM)>  (28) 
20.0

>  <DSF (npCDK2/CCNE1): dTm D - Batch Mean [Concentration: 100]>  (28) 


>  <DSF (npCDK2/CCNE1): dTm D - Batch Mean [Concentration: 20.0]>  (28) 
1.21

>  <DSF (pCDK2/CCNE1): dTm D - Batch Mean [Concentration: 100]>  (28) 


>  <DSF (pCDK2/CCNE1): dTm D - Batch Mean [Concentration: 20.0]>  (28) 


>  <RLM: t1/2 - Batch Mean (Min)>  (28) 


>  <RLM: Cl int - Batch Mean (uL/min/mg protein)>  (28) 


>  <RLM: ER (Hepatic extraction ratio) - Batch Mean>  (28) 


>  <HLM: t1/2 - Batch Mean (Min)>  (28) 


>  <HLM: Cl int - Batch Mean (uL/min/mg protein)>  (28) 


>  <HLM: ER (Hepatic extraction ratio) - Batch Mean>  (28) 


>  <MDCK-WT 4% BSA: Papp (A-B) - Batch Mean (10-6, cm/s)>  (28) 


>  <MDCK-WT 4% BSA: Papp (B-A) - Batch Mean (10-6, cm/s)>  (28) 


>  <MDCK-WT 4% BSA: Efflux Ratio - Batch Mean>  (28) 


>  <MDCK-WT 4% BSA: ~Net A_B - Batch Mean (10-6, cm/s)>  (28) 


>  <pIC50>  (28) 
6.116339

>  <Selection_1>  (28) 
Y

>  <Selection_N>  (28) 


>  <Serie>  (28) 
Naphthyridine

>  <Selection_T>  (28) 
N

>  <Train_Vs_Test>  (28) 


$$$$
CTX-1020749
     RDKit          2D

 38 43  0  0  0  0  0  0  0  0999 V2000
   11.1474   -8.1329    0.0000 Cl  0  0  0  0  0  0  0  0  0  0  0  0
    9.6802   -7.8210    0.0000 C   0  0  0  0  0  0  0  0  0  0  0  0
    9.0701   -6.4507    0.0000 C   0  0  0  0  0  0  0  0  0  0  0  0
    8.5655   -8.8247    0.0000 C   0  0  0  0  0  0  0  0  0  0  0  0
    7.5783   -6.6075    0.0000 O   0  0  0  0  0  0  0  0  0  0  0  0
    9.8201   -5.1517    0.0000 C   0  0  0  0  0  0  0  0  0  0  0  0
    7.2665   -8.0747    0.0000 C   0  0  0  0  0  0  0  0  0  0  0  0
    8.5655  -10.3247    0.0000 C   0  0  0  0  0  0  0  0  0  0  0  0
   11.3201   -5.1517    0.0000 O   0  0  0  0  0  0  0  0  0  0  0  0
    9.0701   -3.8526    0.0000 N   0  0  0  0  0  0  0  0  0  0  0  0
    5.9674   -8.8247    0.0000 C   0  0  0  0  0  0  0  0  0  0  0  0
    7.2665  -11.0747    0.0000 C   0  0  0  0  0  0  0  0  0  0  0  0
    7.5701   -3.8526    0.0000 C   0  0  0  0  0  0  0  0  0  0  0  0
    9.8201   -2.5536    0.0000 C   0  0  0  0  0  0  0  0  0  0  0  0
    5.9674  -10.3247    0.0000 C   0  0  0  0  0  0  0  0  0  0  0  0
    6.8201   -2.5536    0.0000 C   0  0  0  0  0  0  0  0  0  0  0  0
    9.0701   -1.2546    0.0000 C   0  0  0  0  0  0  0  0  0  0  0  0
    7.5701   -1.2546    0.0000 C   0  0  0  0  0  0  0  0  0  0  0  0
    5.3529   -2.2417    0.0000 C   0  0  0  0  0  0  0  0  0  0  0  0
    6.5664   -0.1398    0.0000 S   0  0  0  0  0  0  0  0  0  0  0  0
    5.1961   -0.7500    0.0000 C   0  0  0  0  0  0  0  0  0  0  0  0
    3.8971    0.0000    0.0000 C   0  0  0  0  0  0  0  0  0  0  0  0
    3.8971    1.5000    0.0000 O   0  0  0  0  0  0  0  0  0  0  0  0
    2.5980   -0.7500    0.0000 N   0  0  0  0  0  0  0  0  0  0  0  0
    1.2990    0.0000    0.0000 C   0  0  0  0  0  0  0  0  0  0  0  0
    0.0000   -0.7500    0.0000 C   0  0  0  0  0  0  0  0  0  0  0  0
   -1.2990    0.0000    0.0000 C   0  0  0  0  0  0  0  0  0  0  0  0
    0.0000   -2.2499    0.0000 C   0  0  0  0  0  0  0  0  0  0  0  0
   -2.5980   -0.7499    0.0000 C   0  0  0  0  0  0  0  0  0  0  0  0
   -1.2990   -2.9999    0.0000 C   0  0  0  0  0  0  0  0  0  0  0  0
   -2.5980   -2.2499    0.0000 C   0  0  0  0  0  0  0  0  0  0  0  0
   -3.8971   -2.9999    0.0000 N   0  0  0  0  0  0  0  0  0  0  0  0
   -5.1961   -2.2499    0.0000 C   0  0  0  0  0  0  0  0  0  0  0  0
   -3.8971   -4.4999    0.0000 C   0  0  0  0  0  0  0  0  0  0  0  0
   -6.4951   -2.9999    0.0000 C   0  0  0  0  0  0  0  0  0  0  0  0
   -5.1961   -5.2499    0.0000 C   0  0  0  0  0  0  0  0  0  0  0  0
   -6.4951   -4.4999    0.0000 N   0  0  0  0  0  0  0  0  0  0  0  0
   -7.7942   -5.2499    0.0000 C   0  0  0  0  0  0  0  0  0  0  0  0
  1  2  1  0
  2  3  2  0
  2  4  1  0
  3  5  1  0
  3  6  1  0
  4  7  2  0
  4  8  1  0
  6  9  2  0
  6 10  1  0
  7 11  1  0
  8 12  2  0
 10 13  1  0
 10 14  1  0
 11 15  2  0
 13 16  1  0
 14 17  1  0
 16 18  2  0
 16 19  1  0
 18 20  1  0
 19 21  2  0
 21 22  1  0
 22 23  2  0
 22 24  1  0
 24 25  1  0
 25 26  1  0
 26 27  2  0
 26 28  1  0
 27 29  1  0
 28 30  2  0
 29 31  2  0
 31 32  1  0
 32 33  1  0
 32 34  1  0
 33 35  1  0
 34 36  1  0
 35 37  1  0
 37 38  1  0
  5  7  1  0
 12 15  1  0
 17 18  1  0
 20 21  1  0
 30 31  1  0
 36 37  1  0
M  END
>  <Molecule Name>  (29) 
CTX-1020749

>  <SMILES>  (29) 
CN1CCN(CC1)C1=CC=C(CNC(=O)C2=CC3=C(CCN(C3)C(=O)C3=C(Cl)C4=C(O3)C=CC=C4)S2)C=C1

>  <Batch Name>  (29) 
CTX-1020749-1

>  <Batch Created Date>  (29) 
2021-12-16

>  <Batch ID>  (29) 
CTX-1020749-1

>  <External ID>  (29) 
P841-0370

>  <Stereochemistry>  (29) 
Achiral

>  <Amount 1>  (29) 
3.15

>  <Unit 1>  (29) 
mg

>  <CRO 1>  (29) 
Pharmaron

>  <CRO 1 Total Amount>  (29) 
0.0

>  <CRO 1 Unit>  (29) 
mg

>  <Pharmaron Solubility (PBS, pH 7.4): Aqueous Solubility - Batch Mean (uM)>  (29) 


>  <Pharmaron Solubility (PBS, pH 7.4): Aqueous Solubility - Batch Mean (uM) Standard Deviation (±)>  (29) 


>  <Pharmaron Solubility (PBS, pH 7.4): Aqueous Solubility - Batch Mean (uM) Count>  (29) 


>  <log P>  (29) 
4.52

>  <log D>  (29) 
3.89

>  <Pharmaron Caliper Assay (CDK2/CCNE1): Minimum measured (%)>  (29) 
22.5

>  <Pharmaron Caliper Assay (CDK2/CCNE1): IC50 - Batch Mean (uM)>  (29) 
1.63

>  <Pharmaron ADPGLO (CDK2/E1-25C): Minimum measured (%)>  (29) 


>  <Pharmaron ADPGLO (CDK2/E1-25C): IC50 - Batch Mean (uM)>  (29) 


>  <Pharmaron ADPGLO (CDK2/E1-37C): Minimum measured (%)>  (29) 


>  <Pharmaron ADPGLO (CDK2/E1-37C): IC50 - Batch Mean (uM)>  (29) 


>  <IncuCyte Kuramochi RB-WT: IC50 - Batch Mean (uM)>  (29) 
9.17

>  <IncuCyte Kuramochi RB-KO: IC50 - Batch Mean (uM)>  (29) 
7.17

>  <DSF (npCDK2/CCNE1): dTm D - Batch Mean [Concentration: 100]>  (29) 


>  <DSF (npCDK2/CCNE1): dTm D - Batch Mean [Concentration: 20.0]>  (29) 
2.9139999999999997

>  <DSF (pCDK2/CCNE1): dTm D - Batch Mean [Concentration: 100]>  (29) 


>  <DSF (pCDK2/CCNE1): dTm D - Batch Mean [Concentration: 20.0]>  (29) 
1.286

>  <RLM: t1/2 - Batch Mean (Min)>  (29) 


>  <RLM: Cl int - Batch Mean (uL/min/mg protein)>  (29) 


>  <RLM: ER (Hepatic extraction ratio) - Batch Mean>  (29) 


>  <HLM: t1/2 - Batch Mean (Min)>  (29) 


>  <HLM: Cl int - Batch Mean (uL/min/mg protein)>  (29) 


>  <HLM: ER (Hepatic extraction ratio) - Batch Mean>  (29) 


>  <MDCK-WT 4% BSA: Papp (A-B) - Batch Mean (10-6, cm/s)>  (29) 


>  <MDCK-WT 4% BSA: Papp (B-A) - Batch Mean (10-6, cm/s)>  (29) 


>  <MDCK-WT 4% BSA: Efflux Ratio - Batch Mean>  (29) 


>  <MDCK-WT 4% BSA: ~Net A_B - Batch Mean (10-6, cm/s)>  (29) 


>  <pIC50>  (29) 
5.787812

>  <Selection_1>  (29) 
Y

>  <Selection_N>  (29) 
N

>  <Serie>  (29) 
Tetrahydrothienopyridine

>  <Selection_T>  (29) 


>  <Train_Vs_Test>  (29) 


$$$$
CTX-1020748
     RDKit          2D

 39 44  0  0  0  0  0  0  0  0999 V2000
    7.4316   -5.4219    0.0000 Cl  0  0  0  0  0  0  0  0  0  0  0  0
    6.4535   -5.2140    0.0000 C   0  0  0  0  0  0  0  0  0  0  0  0
    6.0467   -4.3005    0.0000 C   0  0  0  0  0  0  0  0  0  0  0  0
    5.7103   -5.8831    0.0000 C   0  0  0  0  0  0  0  0  0  0  0  0
    5.0522   -4.4050    0.0000 N   0  0  0  0  0  0  0  0  0  0  0  0
    6.5467   -3.4344    0.0000 C   0  0  0  0  0  0  0  0  0  0  0  0
    4.8443   -5.3831    0.0000 C   0  0  0  0  0  0  0  0  0  0  0  0
    5.7103   -6.8831    0.0000 C   0  0  0  0  0  0  0  0  0  0  0  0
    4.3831   -3.6618    0.0000 C   0  0  0  0  0  0  0  0  0  0  0  0
    7.5467   -3.4344    0.0000 O   0  0  0  0  0  0  0  0  0  0  0  0
    6.0467   -2.5684    0.0000 N   0  0  0  0  0  0  0  0  0  0  0  0
    3.9783   -5.8831    0.0000 C   0  0  0  0  0  0  0  0  0  0  0  0
    4.8443   -7.3831    0.0000 C   0  0  0  0  0  0  0  0  0  0  0  0
    5.0467   -2.5684    0.0000 C   0  0  0  0  0  0  0  0  0  0  0  0
    6.5467   -1.7024    0.0000 C   0  0  0  0  0  0  0  0  0  0  0  0
    3.9783   -6.8831    0.0000 C   0  0  0  0  0  0  0  0  0  0  0  0
    4.5467   -1.7024    0.0000 C   0  0  0  0  0  0  0  0  0  0  0  0
    6.0467   -0.8364    0.0000 C   0  0  0  0  0  0  0  0  0  0  0  0
    5.0467   -0.8364    0.0000 C   0  0  0  0  0  0  0  0  0  0  0  0
    3.5686   -1.4945    0.0000 C   0  0  0  0  0  0  0  0  0  0  0  0
    4.3776   -0.0932    0.0000 S   0  0  0  0  0  0  0  0  0  0  0  0
    3.4641   -0.5000    0.0000 C   0  0  0  0  0  0  0  0  0  0  0  0
    2.5980    0.0000    0.0000 C   0  0  0  0  0  0  0  0  0  0  0  0
    2.5980    1.0000    0.0000 O   0  0  0  0  0  0  0  0  0  0  0  0
    1.7320   -0.5000    0.0000 N   0  0  0  0  0  0  0  0  0  0  0  0
    0.8660    0.0000    0.0000 C   0  0  0  0  0  0  0  0  0  0  0  0
    0.0000   -0.5000    0.0000 C   0  0  0  0  0  0  0  0  0  0  0  0
   -0.8660    0.0000    0.0000 C   0  0  0  0  0  0  0  0  0  0  0  0
    0.0000   -1.4999    0.0000 C   0  0  0  0  0  0  0  0  0  0  0  0
   -1.7320   -0.4999    0.0000 C   0  0  0  0  0  0  0  0  0  0  0  0
   -0.8660   -1.9999    0.0000 C   0  0  0  0  0  0  0  0  0  0  0  0
   -1.7320   -1.4999    0.0000 C   0  0  0  0  0  0  0  0  0  0  0  0
   -2.5980   -1.9999    0.0000 N   0  0  0  0  0  0  0  0  0  0  0  0
   -3.4641   -1.4999    0.0000 C   0  0  0  0  0  0  0  0  0  0  0  0
   -2.5980   -2.9999    0.0000 C   0  0  0  0  0  0  0  0  0  0  0  0
   -4.3301   -1.9999    0.0000 C   0  0  0  0  0  0  0  0  0  0  0  0
   -3.4641   -3.4999    0.0000 C   0  0  0  0  0  0  0  0  0  0  0  0
   -4.3301   -2.9999    0.0000 N   0  0  0  0  0  0  0  0  0  0  0  0
   -5.1961   -3.4999    0.0000 C   0  0  0  0  0  0  0  0  0  0  0  0
  1  2  1  0
  2  3  2  0
  2  4  1  0
  3  5  1  0
  3  6  1  0
  4  7  2  0
  4  8  1  0
  5  9  1  0
  6 10  2  0
  6 11  1  0
  7 12  1  0
  8 13  2  0
 11 14  1  0
 11 15  1  0
 12 16  2  0
 14 17  1  0
 15 18  1  0
 17 19  2  0
 17 20  1  0
 19 21  1  0
 20 22  2  0
 22 23  1  0
 23 24  2  0
 23 25  1  0
 25 26  1  0
 26 27  1  0
 27 28  2  0
 27 29  1  0
 28 30  1  0
 29 31  2  0
 30 32  2  0
 32 33  1  0
 33 34  1  0
 33 35  1  0
 34 36  1  0
 35 37  1  0
 36 38  1  0
 38 39  1  0
  5  7  1  0
 13 16  1  0
 18 19  1  0
 21 22  1  0
 31 32  1  0
 37 38  1  0
M  END
>  <Molecule Name>  (30) 
CTX-1020748

>  <SMILES>  (30) 
CN1C2=C(C=CC=C2)C(Cl)=C1C(=O)N1CCC2=C(C1)C=C(S2)C(=O)NCC1=CC=C(C=C1)N1CCN(C)CC1

>  <Batch Name>  (30) 
CTX-1020748-1

>  <Batch Created Date>  (30) 
2021-12-16

>  <Batch ID>  (30) 
CTX-1020748-1

>  <External ID>  (30) 
P841-0362

>  <Stereochemistry>  (30) 
Achiral

>  <Amount 1>  (30) 
4.7

>  <Unit 1>  (30) 
mg

>  <CRO 1>  (30) 
Pharmaron

>  <CRO 1 Total Amount>  (30) 
22.05

>  <CRO 1 Unit>  (30) 
mg

>  <Pharmaron Solubility (PBS, pH 7.4): Aqueous Solubility - Batch Mean (uM)>  (30) 
0.1867

>  <Pharmaron Solubility (PBS, pH 7.4): Aqueous Solubility - Batch Mean (uM) Standard Deviation (±)>  (30) 


>  <Pharmaron Solubility (PBS, pH 7.4): Aqueous Solubility - Batch Mean (uM) Count>  (30) 
1.0

>  <log P>  (30) 
4.68

>  <log D>  (30) 
4.05

>  <Pharmaron Caliper Assay (CDK2/CCNE1): Minimum measured (%)>  (30) 
56.6

>  <Pharmaron Caliper Assay (CDK2/CCNE1): IC50 - Batch Mean (uM)>  (30) 
2.78

>  <Pharmaron ADPGLO (CDK2/E1-25C): Minimum measured (%)>  (30) 


>  <Pharmaron ADPGLO (CDK2/E1-25C): IC50 - Batch Mean (uM)>  (30) 


>  <Pharmaron ADPGLO (CDK2/E1-37C): Minimum measured (%)>  (30) 


>  <Pharmaron ADPGLO (CDK2/E1-37C): IC50 - Batch Mean (uM)>  (30) 


>  <IncuCyte Kuramochi RB-WT: IC50 - Batch Mean (uM)>  (30) 
9.28

>  <IncuCyte Kuramochi RB-KO: IC50 - Batch Mean (uM)>  (30) 
8.69

>  <DSF (npCDK2/CCNE1): dTm D - Batch Mean [Concentration: 100]>  (30) 


>  <DSF (npCDK2/CCNE1): dTm D - Batch Mean [Concentration: 20.0]>  (30) 
1.143

>  <DSF (pCDK2/CCNE1): dTm D - Batch Mean [Concentration: 100]>  (30) 


>  <DSF (pCDK2/CCNE1): dTm D - Batch Mean [Concentration: 20.0]>  (30) 


>  <RLM: t1/2 - Batch Mean (Min)>  (30) 


>  <RLM: Cl int - Batch Mean (uL/min/mg protein)>  (30) 


>  <RLM: ER (Hepatic extraction ratio) - Batch Mean>  (30) 


>  <HLM: t1/2 - Batch Mean (Min)>  (30) 


>  <HLM: Cl int - Batch Mean (uL/min/mg protein)>  (30) 


>  <HLM: ER (Hepatic extraction ratio) - Batch Mean>  (30) 


>  <MDCK-WT 4% BSA: Papp (A-B) - Batch Mean (10-6, cm/s)>  (30) 


>  <MDCK-WT 4% BSA: Papp (B-A) - Batch Mean (10-6, cm/s)>  (30) 


>  <MDCK-WT 4% BSA: Efflux Ratio - Batch Mean>  (30) 


>  <MDCK-WT 4% BSA: ~Net A_B - Batch Mean (10-6, cm/s)>  (30) 


>  <pIC50>  (30) 
5.555955

>  <Selection_1>  (30) 
Y

>  <Selection_N>  (30) 
N

>  <Serie>  (30) 
Tetrahydrothienopyridine

>  <Selection_T>  (30) 


>  <Train_Vs_Test>  (30) 


$$$$
CTX-1020747
     RDKit          2D

 39 44  0  0  0  0  0  0  0  0999 V2000
    6.5664   -0.1398    0.0000 S   0  0  0  0  0  0  0  0  0  0  0  0
    5.1961   -0.7500    0.0000 C   0  0  0  0  0  0  0  0  0  0  0  0
    7.5701   -1.2546    0.0000 C   0  0  0  0  0  0  0  0  0  0  0  0
    3.8971    0.0000    0.0000 C   0  0  0  0  0  0  0  0  0  0  0  0
    5.3529   -2.2417    0.0000 C   0  0  0  0  0  0  0  0  0  0  0  0
    6.8201   -2.5536    0.0000 C   0  0  0  0  0  0  0  0  0  0  0  0
    9.0701   -1.2546    0.0000 C   0  0  0  0  0  0  0  0  0  0  0  0
    3.8971    1.5000    0.0000 O   0  0  0  0  0  0  0  0  0  0  0  0
    2.5980   -0.7500    0.0000 N   0  0  0  0  0  0  0  0  0  0  0  0
    7.5701   -3.8526    0.0000 C   0  0  0  0  0  0  0  0  0  0  0  0
    9.8201   -2.5536    0.0000 C   0  0  0  0  0  0  0  0  0  0  0  0
    1.2990    0.0000    0.0000 C   0  0  0  0  0  0  0  0  0  0  0  0
    9.0701   -3.8526    0.0000 N   0  0  0  0  0  0  0  0  0  0  0  0
    0.0000   -0.7500    0.0000 C   0  0  0  0  0  0  0  0  0  0  0  0
    9.8201   -5.1517    0.0000 C   0  0  0  0  0  0  0  0  0  0  0  0
   -1.2990    0.0000    0.0000 C   0  0  0  0  0  0  0  0  0  0  0  0
    0.0000   -2.2499    0.0000 C   0  0  0  0  0  0  0  0  0  0  0  0
    9.0701   -6.4507    0.0000 O   0  0  0  0  0  0  0  0  0  0  0  0
   11.3201   -5.1517    0.0000 C   0  0  0  0  0  0  0  0  0  0  0  0
   -2.5980   -0.7499    0.0000 C   0  0  0  0  0  0  0  0  0  0  0  0
   -1.2990   -2.9999    0.0000 C   0  0  0  0  0  0  0  0  0  0  0  0
   12.2018   -6.3652    0.0000 O   0  0  0  0  0  0  0  0  0  0  0  0
   12.2018   -3.9382    0.0000 C   0  0  0  0  0  0  0  0  0  0  0  0
   -2.5980   -2.2499    0.0000 C   0  0  0  0  0  0  0  0  0  0  0  0
   13.6284   -5.9017    0.0000 C   0  0  0  0  0  0  0  0  0  0  0  0
   13.6284   -4.4017    0.0000 C   0  0  0  0  0  0  0  0  0  0  0  0
   11.7383   -2.5116    0.0000 C   0  0  0  0  0  0  0  0  0  0  0  0
   -3.8971   -2.9999    0.0000 N   0  0  0  0  0  0  0  0  0  0  0  0
   14.9274   -6.6517    0.0000 C   0  0  0  0  0  0  0  0  0  0  0  0
   14.9274   -3.6517    0.0000 C   0  0  0  0  0  0  0  0  0  0  0  0
   -5.1961   -2.2499    0.0000 C   0  0  0  0  0  0  0  0  0  0  0  0
   -3.8971   -4.4999    0.0000 C   0  0  0  0  0  0  0  0  0  0  0  0
   14.9274   -8.1517    0.0000 F   0  0  0  0  0  0  0  0  0  0  0  0
   16.2265   -5.9017    0.0000 C   0  0  0  0  0  0  0  0  0  0  0  0
   16.2265   -4.4017    0.0000 C   0  0  0  0  0  0  0  0  0  0  0  0
   -6.4951   -2.9999    0.0000 C   0  0  0  0  0  0  0  0  0  0  0  0
   -5.1961   -5.2499    0.0000 C   0  0  0  0  0  0  0  0  0  0  0  0
   -6.4951   -4.4999    0.0000 N   0  0  0  0  0  0  0  0  0  0  0  0
   -7.7942   -5.2499    0.0000 C   0  0  0  0  0  0  0  0  0  0  0  0
  1  2  1  0
  1  3  1  0
  2  4  1  0
  2  5  2  0
  3  6  2  0
  3  7  1  0
  4  8  2  0
  4  9  1  0
  6 10  1  0
  7 11  1  0
  9 12  1  0
 10 13  1  0
 12 14  1  0
 13 15  1  0
 14 16  2  0
 14 17  1  0
 15 18  2  0
 15 19  1  0
 16 20  1  0
 17 21  2  0
 19 22  1  0
 19 23  2  0
 20 24  2  0
 22 25  1  0
 23 26  1  0
 23 27  1  0
 24 28  1  0
 25 29  2  0
 26 30  2  0
 28 31  1  0
 28 32  1  0
 29 33  1  0
 29 34  1  0
 30 35  1  0
 31 36  1  0
 32 37  1  0
 36 38  1  0
 38 39  1  0
  5  6  1  0
 11 13  1  0
 21 24  1  0
 25 26  1  0
 34 35  2  0
 37 38  1  0
M  END
>  <Molecule Name>  (31) 
CTX-1020747

>  <SMILES>  (31) 
CN1CCN(CC1)C1=CC=C(CNC(=O)C2=CC3=C(CCN(C3)C(=O)C3=C(C)C4=C(O3)C(F)=CC=C4)S2)C=C1

>  <Batch Name>  (31) 
CTX-1020747-1

>  <Batch Created Date>  (31) 
2021-12-16

>  <Batch ID>  (31) 
CTX-1020747-1

>  <External ID>  (31) 
P841-0361

>  <Stereochemistry>  (31) 
Achiral

>  <Amount 1>  (31) 
3.85

>  <Unit 1>  (31) 
mg

>  <CRO 1>  (31) 
Pharmaron

>  <CRO 1 Total Amount>  (31) 
22.1

>  <CRO 1 Unit>  (31) 
mg

>  <Pharmaron Solubility (PBS, pH 7.4): Aqueous Solubility - Batch Mean (uM)>  (31) 
1.4216

>  <Pharmaron Solubility (PBS, pH 7.4): Aqueous Solubility - Batch Mean (uM) Standard Deviation (±)>  (31) 


>  <Pharmaron Solubility (PBS, pH 7.4): Aqueous Solubility - Batch Mean (uM) Count>  (31) 
1.0

>  <log P>  (31) 
4.57

>  <log D>  (31) 
3.94

>  <Pharmaron Caliper Assay (CDK2/CCNE1): Minimum measured (%)>  (31) 
22.7

>  <Pharmaron Caliper Assay (CDK2/CCNE1): IC50 - Batch Mean (uM)>  (31) 
0.611

>  <Pharmaron ADPGLO (CDK2/E1-25C): Minimum measured (%)>  (31) 
28.6

>  <Pharmaron ADPGLO (CDK2/E1-25C): IC50 - Batch Mean (uM)>  (31) 
0.77

>  <Pharmaron ADPGLO (CDK2/E1-37C): Minimum measured (%)>  (31) 
86.1

>  <Pharmaron ADPGLO (CDK2/E1-37C): IC50 - Batch Mean (uM)>  (31) 
100

>  <IncuCyte Kuramochi RB-WT: IC50 - Batch Mean (uM)>  (31) 
6.9

>  <IncuCyte Kuramochi RB-KO: IC50 - Batch Mean (uM)>  (31) 
8.0

>  <DSF (npCDK2/CCNE1): dTm D - Batch Mean [Concentration: 100]>  (31) 


>  <DSF (npCDK2/CCNE1): dTm D - Batch Mean [Concentration: 20.0]>  (31) 
4.3180000000000005

>  <DSF (pCDK2/CCNE1): dTm D - Batch Mean [Concentration: 100]>  (31) 


>  <DSF (pCDK2/CCNE1): dTm D - Batch Mean [Concentration: 20.0]>  (31) 
2.3209999999999997

>  <RLM: t1/2 - Batch Mean (Min)>  (31) 


>  <RLM: Cl int - Batch Mean (uL/min/mg protein)>  (31) 


>  <RLM: ER (Hepatic extraction ratio) - Batch Mean>  (31) 


>  <HLM: t1/2 - Batch Mean (Min)>  (31) 


>  <HLM: Cl int - Batch Mean (uL/min/mg protein)>  (31) 


>  <HLM: ER (Hepatic extraction ratio) - Batch Mean>  (31) 


>  <MDCK-WT 4% BSA: Papp (A-B) - Batch Mean (10-6, cm/s)>  (31) 


>  <MDCK-WT 4% BSA: Papp (B-A) - Batch Mean (10-6, cm/s)>  (31) 


>  <MDCK-WT 4% BSA: Efflux Ratio - Batch Mean>  (31) 


>  <MDCK-WT 4% BSA: ~Net A_B - Batch Mean (10-6, cm/s)>  (31) 


>  <pIC50>  (31) 
6.213959

>  <Selection_1>  (31) 
Y

>  <Selection_N>  (31) 
N

>  <Serie>  (31) 
Tetrahydrothienopyridine

>  <Selection_T>  (31) 


>  <Train_Vs_Test>  (31) 


$$$$
CTX-1020746
     RDKit          2D

 38 43  0  0  0  0  0  0  0  0999 V2000
    8.0467   -0.8364    0.0000 O   0  0  0  0  0  0  0  0  0  0  0  0
    7.5467   -1.7024    0.0000 C   0  0  0  0  0  0  0  0  0  0  0  0
    6.5467   -1.7024    0.0000 N   0  0  0  0  0  0  0  0  0  0  0  0
    8.0467   -2.5684    0.0000 C   0  0  0  0  0  0  0  0  0  0  0  0
    6.0467   -0.8364    0.0000 C   0  0  0  0  0  0  0  0  0  0  0  0
    6.0467   -2.5684    0.0000 C   0  0  0  0  0  0  0  0  0  0  0  0
    7.6400   -3.4820    0.0000 O   0  0  0  0  0  0  0  0  0  0  0  0
    9.0412   -2.6729    0.0000 C   0  0  0  0  0  0  0  0  0  0  0  0
    5.0467   -0.8364    0.0000 C   0  0  0  0  0  0  0  0  0  0  0  0
    5.0467   -2.5684    0.0000 C   0  0  0  0  0  0  0  0  0  0  0  0
    8.3831   -4.1511    0.0000 C   0  0  0  0  0  0  0  0  0  0  0  0
    9.2492   -3.6511    0.0000 C   0  0  0  0  0  0  0  0  0  0  0  0
    9.7104   -1.9298    0.0000 C   0  0  0  0  0  0  0  0  0  0  0  0
    4.3776   -0.0932    0.0000 N   0  0  0  0  0  0  0  0  0  0  0  0
    4.5467   -1.7024    0.0000 C   0  0  0  0  0  0  0  0  0  0  0  0
    8.3831   -5.1511    0.0000 C   0  0  0  0  0  0  0  0  0  0  0  0
   10.1152   -4.1511    0.0000 C   0  0  0  0  0  0  0  0  0  0  0  0
    3.4641   -0.5000    0.0000 C   0  0  0  0  0  0  0  0  0  0  0  0
    3.5686   -1.4945    0.0000 N   0  0  0  0  0  0  0  0  0  0  0  0
    9.2492   -5.6511    0.0000 C   0  0  0  0  0  0  0  0  0  0  0  0
   10.1152   -5.1511    0.0000 C   0  0  0  0  0  0  0  0  0  0  0  0
    2.5980    0.0000    0.0000 C   0  0  0  0  0  0  0  0  0  0  0  0
    2.5980    1.0000    0.0000 O   0  0  0  0  0  0  0  0  0  0  0  0
    1.7320   -0.5000    0.0000 N   0  0  0  0  0  0  0  0  0  0  0  0
    0.8660    0.0000    0.0000 C   0  0  0  0  0  0  0  0  0  0  0  0
    0.0000   -0.5000    0.0000 C   0  0  0  0  0  0  0  0  0  0  0  0
   -0.8660    0.0000    0.0000 C   0  0  0  0  0  0  0  0  0  0  0  0
    0.0000   -1.4999    0.0000 C   0  0  0  0  0  0  0  0  0  0  0  0
   -1.7320   -0.4999    0.0000 C   0  0  0  0  0  0  0  0  0  0  0  0
   -0.8660   -1.9999    0.0000 C   0  0  0  0  0  0  0  0  0  0  0  0
   -1.7320   -1.4999    0.0000 C   0  0  0  0  0  0  0  0  0  0  0  0
   -2.5980   -1.9999    0.0000 N   0  0  0  0  0  0  0  0  0  0  0  0
   -3.4641   -1.4999    0.0000 C   0  0  0  0  0  0  0  0  0  0  0  0
   -2.5980   -2.9999    0.0000 C   0  0  0  0  0  0  0  0  0  0  0  0
   -4.3301   -1.9999    0.0000 C   0  0  0  0  0  0  0  0  0  0  0  0
   -3.4641   -3.4999    0.0000 C   0  0  0  0  0  0  0  0  0  0  0  0
   -4.3301   -2.9999    0.0000 N   0  0  0  0  0  0  0  0  0  0  0  0
   -5.1961   -3.4999    0.0000 C   0  0  0  0  0  0  0  0  0  0  0  0
  1  2  2  0
  2  3  1  0
  2  4  1  0
  3  5  1  0
  3  6  1  0
  4  7  1  0
  4  8  2  0
  5  9  1  0
  6 10  1  0
  7 11  1  0
  8 12  1  0
  8 13  1  0
  9 14  1  0
  9 15  2  0
 11 16  2  0
 12 17  2  0
 14 18  2  0
 15 19  1  0
 16 20  1  0
 17 21  1  0
 18 22  1  0
 22 23  2  0
 22 24  1  0
 24 25  1  0
 25 26  1  0
 26 27  2  0
 26 28  1  0
 27 29  1  0
 28 30  2  0
 29 31  2  0
 31 32  1  0
 32 33  1  0
 32 34  1  0
 33 35  1  0
 34 36  1  0
 35 37  1  0
 37 38  1  0
 10 15  1  0
 11 12  1  0
 18 19  1  0
 20 21  2  0
 30 31  1  0
 36 37  1  0
M  END
>  <Molecule Name>  (32) 
CTX-1020746

>  <SMILES>  (32) 
CN1CCN(CC1)C1=CC=C(CNC(=O)C2=NC3=C(CN(CC3)C(=O)C3=C(C)C4=C(O3)C=CC=C4)N2)C=C1

>  <Batch Name>  (32) 
CTX-1020746-1

>  <Batch Created Date>  (32) 
2021-12-16

>  <Batch ID>  (32) 
CTX-1020746-1

>  <External ID>  (32) 
P841-0291

>  <Stereochemistry>  (32) 
Achiral

>  <Amount 1>  (32) 
4.5

>  <Unit 1>  (32) 
mg

>  <CRO 1>  (32) 
Pharmaron

>  <CRO 1 Total Amount>  (32) 
0.0

>  <CRO 1 Unit>  (32) 
mg

>  <Pharmaron Solubility (PBS, pH 7.4): Aqueous Solubility - Batch Mean (uM)>  (32) 


>  <Pharmaron Solubility (PBS, pH 7.4): Aqueous Solubility - Batch Mean (uM) Standard Deviation (±)>  (32) 


>  <Pharmaron Solubility (PBS, pH 7.4): Aqueous Solubility - Batch Mean (uM) Count>  (32) 


>  <log P>  (32) 
2.59

>  <log D>  (32) 
1.94

>  <Pharmaron Caliper Assay (CDK2/CCNE1): Minimum measured (%)>  (32) 
23.2

>  <Pharmaron Caliper Assay (CDK2/CCNE1): IC50 - Batch Mean (uM)>  (32) 
5.18

>  <Pharmaron ADPGLO (CDK2/E1-25C): Minimum measured (%)>  (32) 


>  <Pharmaron ADPGLO (CDK2/E1-25C): IC50 - Batch Mean (uM)>  (32) 


>  <Pharmaron ADPGLO (CDK2/E1-37C): Minimum measured (%)>  (32) 


>  <Pharmaron ADPGLO (CDK2/E1-37C): IC50 - Batch Mean (uM)>  (32) 


>  <IncuCyte Kuramochi RB-WT: IC50 - Batch Mean (uM)>  (32) 
10.0

>  <IncuCyte Kuramochi RB-KO: IC50 - Batch Mean (uM)>  (32) 
8.23

>  <DSF (npCDK2/CCNE1): dTm D - Batch Mean [Concentration: 100]>  (32) 


>  <DSF (npCDK2/CCNE1): dTm D - Batch Mean [Concentration: 20.0]>  (32) 
1.577

>  <DSF (pCDK2/CCNE1): dTm D - Batch Mean [Concentration: 100]>  (32) 


>  <DSF (pCDK2/CCNE1): dTm D - Batch Mean [Concentration: 20.0]>  (32) 


>  <RLM: t1/2 - Batch Mean (Min)>  (32) 


>  <RLM: Cl int - Batch Mean (uL/min/mg protein)>  (32) 


>  <RLM: ER (Hepatic extraction ratio) - Batch Mean>  (32) 


>  <HLM: t1/2 - Batch Mean (Min)>  (32) 


>  <HLM: Cl int - Batch Mean (uL/min/mg protein)>  (32) 


>  <HLM: ER (Hepatic extraction ratio) - Batch Mean>  (32) 


>  <MDCK-WT 4% BSA: Papp (A-B) - Batch Mean (10-6, cm/s)>  (32) 


>  <MDCK-WT 4% BSA: Papp (B-A) - Batch Mean (10-6, cm/s)>  (32) 


>  <MDCK-WT 4% BSA: Efflux Ratio - Batch Mean>  (32) 


>  <MDCK-WT 4% BSA: ~Net A_B - Batch Mean (10-6, cm/s)>  (32) 


>  <pIC50>  (32) 
5.28567

>  <Selection_1>  (32) 
Y

>  <Selection_N>  (32) 
N

>  <Serie>  (32) 
Other

>  <Selection_T>  (32) 
N

>  <Train_Vs_Test>  (32) 


$$$$
CTX-1020745
     RDKit          2D

 39 44  0  0  0  0  0  0  0  0999 V2000
    6.5664   -0.1398    0.0000 S   0  0  0  0  0  0  0  0  0  0  0  0
    5.1961   -0.7500    0.0000 C   0  0  0  0  0  0  0  0  0  0  0  0
    7.5701   -1.2546    0.0000 C   0  0  0  0  0  0  0  0  0  0  0  0
    3.8971    0.0000    0.0000 C   0  0  0  0  0  0  0  0  0  0  0  0
    5.3529   -2.2417    0.0000 C   0  0  0  0  0  0  0  0  0  0  0  0
    6.8201   -2.5536    0.0000 C   0  0  0  0  0  0  0  0  0  0  0  0
    9.0701   -1.2546    0.0000 C   0  0  0  0  0  0  0  0  0  0  0  0
    3.8971    1.5000    0.0000 O   0  0  0  0  0  0  0  0  0  0  0  0
    2.5980   -0.7500    0.0000 N   0  0  0  0  0  0  0  0  0  0  0  0
    7.5701   -3.8526    0.0000 C   0  0  0  0  0  0  0  0  0  0  0  0
    9.8201   -2.5536    0.0000 C   0  0  0  0  0  0  0  0  0  0  0  0
    1.2990    0.0000    0.0000 C   0  0  0  0  0  0  0  0  0  0  0  0
    9.0701   -3.8526    0.0000 N   0  0  0  0  0  0  0  0  0  0  0  0
    0.0000   -0.7500    0.0000 C   0  0  0  0  0  0  0  0  0  0  0  0
    9.8201   -5.1517    0.0000 C   0  0  0  0  0  0  0  0  0  0  0  0
   -1.2990    0.0000    0.0000 C   0  0  0  0  0  0  0  0  0  0  0  0
    0.0000   -2.2499    0.0000 C   0  0  0  0  0  0  0  0  0  0  0  0
    9.0701   -6.4507    0.0000 O   0  0  0  0  0  0  0  0  0  0  0  0
   11.3201   -5.1517    0.0000 C   0  0  0  0  0  0  0  0  0  0  0  0
   -2.5980   -0.7499    0.0000 C   0  0  0  0  0  0  0  0  0  0  0  0
   -1.2990   -2.9999    0.0000 C   0  0  0  0  0  0  0  0  0  0  0  0
   12.2018   -6.3652    0.0000 N   0  0  0  0  0  0  0  0  0  0  0  0
   12.2018   -3.9382    0.0000 C   0  0  0  0  0  0  0  0  0  0  0  0
   -2.5980   -2.2499    0.0000 C   0  0  0  0  0  0  0  0  0  0  0  0
   13.6284   -5.9017    0.0000 C   0  0  0  0  0  0  0  0  0  0  0  0
   11.7383   -7.7918    0.0000 C   0  0  0  0  0  0  0  0  0  0  0  0
   13.6284   -4.4017    0.0000 C   0  0  0  0  0  0  0  0  0  0  0  0
   11.7383   -2.5116    0.0000 C   0  0  0  0  0  0  0  0  0  0  0  0
   -3.8971   -2.9999    0.0000 N   0  0  0  0  0  0  0  0  0  0  0  0
   14.9274   -6.6517    0.0000 C   0  0  0  0  0  0  0  0  0  0  0  0
   14.9274   -3.6517    0.0000 C   0  0  0  0  0  0  0  0  0  0  0  0
   -5.1961   -2.2499    0.0000 C   0  0  0  0  0  0  0  0  0  0  0  0
   -3.8971   -4.4999    0.0000 C   0  0  0  0  0  0  0  0  0  0  0  0
   16.2265   -5.9017    0.0000 C   0  0  0  0  0  0  0  0  0  0  0  0
   16.2265   -4.4017    0.0000 C   0  0  0  0  0  0  0  0  0  0  0  0
   -6.4951   -2.9999    0.0000 C   0  0  0  0  0  0  0  0  0  0  0  0
   -5.1961   -5.2499    0.0000 C   0  0  0  0  0  0  0  0  0  0  0  0
   -6.4951   -4.4999    0.0000 N   0  0  0  0  0  0  0  0  0  0  0  0
   -7.7942   -5.2499    0.0000 C   0  0  0  0  0  0  0  0  0  0  0  0
  1  2  1  0
  1  3  1  0
  2  4  1  0
  2  5  2  0
  3  6  2  0
  3  7  1  0
  4  8  2  0
  4  9  1  0
  6 10  1  0
  7 11  1  0
  9 12  1  0
 10 13  1  0
 12 14  1  0
 13 15  1  0
 14 16  2  0
 14 17  1  0
 15 18  2  0
 15 19  1  0
 16 20  1  0
 17 21  2  0
 19 22  1  0
 19 23  2  0
 20 24  2  0
 22 25  1  0
 22 26  1  0
 23 27  1  0
 23 28  1  0
 24 29  1  0
 25 30  2  0
 27 31  2  0
 29 32  1  0
 29 33  1  0
 30 34  1  0
 31 35  1  0
 32 36  1  0
 33 37  1  0
 36 38  1  0
 38 39  1  0
  5  6  1  0
 11 13  1  0
 21 24  1  0
 25 27  1  0
 34 35  2  0
 37 38  1  0
M  END
>  <Molecule Name>  (33) 
CTX-1020745

>  <SMILES>  (33) 
CN1C2=C(C=CC=C2)C(C)=C1C(=O)N1CCC2=C(C1)C=C(S2)C(=O)NCC1=CC=C(C=C1)N1CCN(C)CC1

>  <Batch Name>  (33) 
CTX-1020745-1

>  <Batch Created Date>  (33) 
2021-12-16

>  <Batch ID>  (33) 
CTX-1020745-1

>  <External ID>  (33) 
P841-0360

>  <Stereochemistry>  (33) 
Achiral

>  <Amount 1>  (33) 
3.45

>  <Unit 1>  (33) 
mg

>  <CRO 1>  (33) 
Pharmaron

>  <CRO 1 Total Amount>  (33) 
31.75

>  <CRO 1 Unit>  (33) 
mg

>  <Pharmaron Solubility (PBS, pH 7.4): Aqueous Solubility - Batch Mean (uM)>  (33) 
9.9095

>  <Pharmaron Solubility (PBS, pH 7.4): Aqueous Solubility - Batch Mean (uM) Standard Deviation (±)>  (33) 


>  <Pharmaron Solubility (PBS, pH 7.4): Aqueous Solubility - Batch Mean (uM) Count>  (33) 
1.0

>  <log P>  (33) 
4.59

>  <log D>  (33) 
3.96

>  <Pharmaron Caliper Assay (CDK2/CCNE1): Minimum measured (%)>  (33) 
51.3

>  <Pharmaron Caliper Assay (CDK2/CCNE1): IC50 - Batch Mean (uM)>  (33) 
30.4

>  <Pharmaron ADPGLO (CDK2/E1-25C): Minimum measured (%)>  (33) 


>  <Pharmaron ADPGLO (CDK2/E1-25C): IC50 - Batch Mean (uM)>  (33) 


>  <Pharmaron ADPGLO (CDK2/E1-37C): Minimum measured (%)>  (33) 


>  <Pharmaron ADPGLO (CDK2/E1-37C): IC50 - Batch Mean (uM)>  (33) 


>  <IncuCyte Kuramochi RB-WT: IC50 - Batch Mean (uM)>  (33) 
8.12

>  <IncuCyte Kuramochi RB-KO: IC50 - Batch Mean (uM)>  (33) 
7.47

>  <DSF (npCDK2/CCNE1): dTm D - Batch Mean [Concentration: 100]>  (33) 


>  <DSF (npCDK2/CCNE1): dTm D - Batch Mean [Concentration: 20.0]>  (33) 
0.27399999999999997

>  <DSF (pCDK2/CCNE1): dTm D - Batch Mean [Concentration: 100]>  (33) 


>  <DSF (pCDK2/CCNE1): dTm D - Batch Mean [Concentration: 20.0]>  (33) 


>  <RLM: t1/2 - Batch Mean (Min)>  (33) 


>  <RLM: Cl int - Batch Mean (uL/min/mg protein)>  (33) 


>  <RLM: ER (Hepatic extraction ratio) - Batch Mean>  (33) 


>  <HLM: t1/2 - Batch Mean (Min)>  (33) 


>  <HLM: Cl int - Batch Mean (uL/min/mg protein)>  (33) 


>  <HLM: ER (Hepatic extraction ratio) - Batch Mean>  (33) 


>  <MDCK-WT 4% BSA: Papp (A-B) - Batch Mean (10-6, cm/s)>  (33) 


>  <MDCK-WT 4% BSA: Papp (B-A) - Batch Mean (10-6, cm/s)>  (33) 


>  <MDCK-WT 4% BSA: Efflux Ratio - Batch Mean>  (33) 


>  <MDCK-WT 4% BSA: ~Net A_B - Batch Mean (10-6, cm/s)>  (33) 


>  <pIC50>  (33) 
4.517126

>  <Selection_1>  (33) 
Y

>  <Selection_N>  (33) 
N

>  <Serie>  (33) 
Tetrahydrothienopyridine

>  <Selection_T>  (33) 


>  <Train_Vs_Test>  (33) 


$$$$
CTX-1020744
     RDKit          2D

 38 43  0  0  0  0  0  0  0  0999 V2000
    6.5664   -0.1398    0.0000 S   0  0  0  0  0  0  0  0  0  0  0  0
    5.1961   -0.7500    0.0000 C   0  0  0  0  0  0  0  0  0  0  0  0
    7.5701   -1.2546    0.0000 C   0  0  0  0  0  0  0  0  0  0  0  0
    3.8971    0.0000    0.0000 C   0  0  0  0  0  0  0  0  0  0  0  0
    5.3529   -2.2417    0.0000 C   0  0  0  0  0  0  0  0  0  0  0  0
    6.8201   -2.5536    0.0000 C   0  0  0  0  0  0  0  0  0  0  0  0
    9.0701   -1.2546    0.0000 C   0  0  0  0  0  0  0  0  0  0  0  0
    3.8971    1.5000    0.0000 O   0  0  0  0  0  0  0  0  0  0  0  0
    2.5980   -0.7500    0.0000 N   0  0  0  0  0  0  0  0  0  0  0  0
    7.5701   -3.8526    0.0000 C   0  0  0  0  0  0  0  0  0  0  0  0
    9.8201   -2.5536    0.0000 C   0  0  0  0  0  0  0  0  0  0  0  0
    1.2990    0.0000    0.0000 C   0  0  0  0  0  0  0  0  0  0  0  0
    9.0701   -3.8526    0.0000 N   0  0  0  0  0  0  0  0  0  0  0  0
    0.0000   -0.7500    0.0000 C   0  0  0  0  0  0  0  0  0  0  0  0
    9.8201   -5.1517    0.0000 C   0  0  0  0  0  0  0  0  0  0  0  0
   -1.2990    0.0000    0.0000 C   0  0  0  0  0  0  0  0  0  0  0  0
    0.0000   -2.2499    0.0000 C   0  0  0  0  0  0  0  0  0  0  0  0
    9.0701   -6.4507    0.0000 O   0  0  0  0  0  0  0  0  0  0  0  0
   11.3201   -5.1517    0.0000 C   0  0  0  0  0  0  0  0  0  0  0  0
   -2.5980   -0.7499    0.0000 C   0  0  0  0  0  0  0  0  0  0  0  0
   -1.2990   -2.9999    0.0000 C   0  0  0  0  0  0  0  0  0  0  0  0
   12.2018   -6.3652    0.0000 O   0  0  0  0  0  0  0  0  0  0  0  0
   12.2018   -3.9382    0.0000 C   0  0  0  0  0  0  0  0  0  0  0  0
   -2.5980   -2.2499    0.0000 C   0  0  0  0  0  0  0  0  0  0  0  0
   13.6284   -5.9017    0.0000 C   0  0  0  0  0  0  0  0  0  0  0  0
   13.6284   -4.4017    0.0000 C   0  0  0  0  0  0  0  0  0  0  0  0
   11.7383   -2.5116    0.0000 C   0  0  0  0  0  0  0  0  0  0  0  0
   -3.8971   -2.9999    0.0000 N   0  0  0  0  0  0  0  0  0  0  0  0
   14.9274   -6.6517    0.0000 C   0  0  0  0  0  0  0  0  0  0  0  0
   14.9274   -3.6517    0.0000 N   0  0  0  0  0  0  0  0  0  0  0  0
   -5.1961   -2.2499    0.0000 C   0  0  0  0  0  0  0  0  0  0  0  0
   -3.8971   -4.4999    0.0000 C   0  0  0  0  0  0  0  0  0  0  0  0
   16.2265   -5.9017    0.0000 C   0  0  0  0  0  0  0  0  0  0  0  0
   16.2265   -4.4017    0.0000 C   0  0  0  0  0  0  0  0  0  0  0  0
   -6.4951   -2.9999    0.0000 C   0  0  0  0  0  0  0  0  0  0  0  0
   -5.1961   -5.2499    0.0000 C   0  0  0  0  0  0  0  0  0  0  0  0
   -6.4951   -4.4999    0.0000 N   0  0  0  0  0  0  0  0  0  0  0  0
   -7.7942   -5.2499    0.0000 C   0  0  0  0  0  0  0  0  0  0  0  0
  1  2  1  0
  1  3  1  0
  2  4  1  0
  2  5  2  0
  3  6  2  0
  3  7  1  0
  4  8  2  0
  4  9  1  0
  6 10  1  0
  7 11  1  0
  9 12  1  0
 10 13  1  0
 12 14  1  0
 13 15  1  0
 14 16  2  0
 14 17  1  0
 15 18  2  0
 15 19  1  0
 16 20  1  0
 17 21  2  0
 19 22  1  0
 19 23  2  0
 20 24  2  0
 22 25  1  0
 23 26  1  0
 23 27  1  0
 24 28  1  0
 25 29  2  0
 26 30  2  0
 28 31  1  0
 28 32  1  0
 29 33  1  0
 30 34  1  0
 31 35  1  0
 32 36  1  0
 35 37  1  0
 37 38  1  0
  5  6  1  0
 11 13  1  0
 21 24  1  0
 25 26  1  0
 33 34  2  0
 36 37  1  0
M  END
>  <Molecule Name>  (34) 
CTX-1020744

>  <SMILES>  (34) 
CN1CCN(CC1)C1=CC=C(CNC(=O)C2=CC3=C(CCN(C3)C(=O)C3=C(C)C4=C(O3)C=CC=N4)S2)C=C1

>  <Batch Name>  (34) 
CTX-1020744-1

>  <Batch Created Date>  (34) 
2021-12-16

>  <Batch ID>  (34) 
CTX-1020744-1

>  <External ID>  (34) 
P841-0359

>  <Stereochemistry>  (34) 
Achiral

>  <Amount 1>  (34) 
4.05

>  <Unit 1>  (34) 
mg

>  <CRO 1>  (34) 
Pharmaron

>  <CRO 1 Total Amount>  (34) 
26.95

>  <CRO 1 Unit>  (34) 
mg

>  <Pharmaron Solubility (PBS, pH 7.4): Aqueous Solubility - Batch Mean (uM)>  (34) 
138.1343

>  <Pharmaron Solubility (PBS, pH 7.4): Aqueous Solubility - Batch Mean (uM) Standard Deviation (±)>  (34) 


>  <Pharmaron Solubility (PBS, pH 7.4): Aqueous Solubility - Batch Mean (uM) Count>  (34) 
1.0

>  <log P>  (34) 
3.6

>  <log D>  (34) 
2.96

>  <Pharmaron Caliper Assay (CDK2/CCNE1): Minimum measured (%)>  (34) 
47.6

>  <Pharmaron Caliper Assay (CDK2/CCNE1): IC50 - Batch Mean (uM)>  (34) 
37.4

>  <Pharmaron ADPGLO (CDK2/E1-25C): Minimum measured (%)>  (34) 


>  <Pharmaron ADPGLO (CDK2/E1-25C): IC50 - Batch Mean (uM)>  (34) 


>  <Pharmaron ADPGLO (CDK2/E1-37C): Minimum measured (%)>  (34) 


>  <Pharmaron ADPGLO (CDK2/E1-37C): IC50 - Batch Mean (uM)>  (34) 


>  <IncuCyte Kuramochi RB-WT: IC50 - Batch Mean (uM)>  (34) 
20.0

>  <IncuCyte Kuramochi RB-KO: IC50 - Batch Mean (uM)>  (34) 
20.0

>  <DSF (npCDK2/CCNE1): dTm D - Batch Mean [Concentration: 100]>  (34) 


>  <DSF (npCDK2/CCNE1): dTm D - Batch Mean [Concentration: 20.0]>  (34) 
0.04

>  <DSF (pCDK2/CCNE1): dTm D - Batch Mean [Concentration: 100]>  (34) 


>  <DSF (pCDK2/CCNE1): dTm D - Batch Mean [Concentration: 20.0]>  (34) 


>  <RLM: t1/2 - Batch Mean (Min)>  (34) 


>  <RLM: Cl int - Batch Mean (uL/min/mg protein)>  (34) 


>  <RLM: ER (Hepatic extraction ratio) - Batch Mean>  (34) 


>  <HLM: t1/2 - Batch Mean (Min)>  (34) 


>  <HLM: Cl int - Batch Mean (uL/min/mg protein)>  (34) 


>  <HLM: ER (Hepatic extraction ratio) - Batch Mean>  (34) 


>  <MDCK-WT 4% BSA: Papp (A-B) - Batch Mean (10-6, cm/s)>  (34) 


>  <MDCK-WT 4% BSA: Papp (B-A) - Batch Mean (10-6, cm/s)>  (34) 


>  <MDCK-WT 4% BSA: Efflux Ratio - Batch Mean>  (34) 


>  <MDCK-WT 4% BSA: ~Net A_B - Batch Mean (10-6, cm/s)>  (34) 


>  <pIC50>  (34) 
4.427128

>  <Selection_1>  (34) 
Y

>  <Selection_N>  (34) 
N

>  <Serie>  (34) 
Tetrahydrothienopyridine

>  <Selection_T>  (34) 


>  <Train_Vs_Test>  (34) 


$$$$
CTX-1020743
     RDKit          2D

 39 44  0  0  0  0  0  0  0  0999 V2000
    6.5664   -0.1398    0.0000 S   0  0  0  0  0  0  0  0  0  0  0  0
    5.1961   -0.7500    0.0000 C   0  0  0  0  0  0  0  0  0  0  0  0
    7.5701   -1.2546    0.0000 C   0  0  0  0  0  0  0  0  0  0  0  0
    3.8971    0.0000    0.0000 C   0  0  0  0  0  0  0  0  0  0  0  0
    5.3529   -2.2417    0.0000 C   0  0  0  0  0  0  0  0  0  0  0  0
    6.8201   -2.5536    0.0000 C   0  0  0  0  0  0  0  0  0  0  0  0
    9.0701   -1.2546    0.0000 C   0  0  0  0  0  0  0  0  0  0  0  0
    3.8971    1.5000    0.0000 O   0  0  0  0  0  0  0  0  0  0  0  0
    2.5980   -0.7500    0.0000 N   0  0  0  0  0  0  0  0  0  0  0  0
    7.5701   -3.8526    0.0000 C   0  0  0  0  0  0  0  0  0  0  0  0
    9.8201   -2.5536    0.0000 C   0  0  0  0  0  0  0  0  0  0  0  0
    1.2990    0.0000    0.0000 C   0  0  0  0  0  0  0  0  0  0  0  0
    9.0701   -3.8526    0.0000 N   0  0  0  0  0  0  0  0  0  0  0  0
    0.0000   -0.7500    0.0000 C   0  0  0  0  0  0  0  0  0  0  0  0
    9.8201   -5.1517    0.0000 C   0  0  0  0  0  0  0  0  0  0  0  0
   -1.2990    0.0000    0.0000 C   0  0  0  0  0  0  0  0  0  0  0  0
    0.0000   -2.2499    0.0000 C   0  0  0  0  0  0  0  0  0  0  0  0
    9.0701   -6.4507    0.0000 O   0  0  0  0  0  0  0  0  0  0  0  0
   11.3201   -5.1517    0.0000 C   0  0  0  0  0  0  0  0  0  0  0  0
   -2.5980   -0.7499    0.0000 C   0  0  0  0  0  0  0  0  0  0  0  0
   -1.2990   -2.9999    0.0000 C   0  0  0  0  0  0  0  0  0  0  0  0
   12.2018   -6.3652    0.0000 O   0  0  0  0  0  0  0  0  0  0  0  0
   12.2018   -3.9382    0.0000 C   0  0  0  0  0  0  0  0  0  0  0  0
   -2.5980   -2.2499    0.0000 C   0  0  0  0  0  0  0  0  0  0  0  0
   13.6284   -5.9017    0.0000 C   0  0  0  0  0  0  0  0  0  0  0  0
   13.6284   -4.4017    0.0000 C   0  0  0  0  0  0  0  0  0  0  0  0
   11.7383   -2.5116    0.0000 C   0  0  0  0  0  0  0  0  0  0  0  0
   -3.8971   -2.9999    0.0000 N   0  0  0  0  0  0  0  0  0  0  0  0
   14.9274   -6.6517    0.0000 C   0  0  0  0  0  0  0  0  0  0  0  0
   14.9274   -3.6517    0.0000 C   0  0  0  0  0  0  0  0  0  0  0  0
   -5.1961   -2.2499    0.0000 C   0  0  0  0  0  0  0  0  0  0  0  0
   -3.8971   -4.4999    0.0000 C   0  0  0  0  0  0  0  0  0  0  0  0
   16.2265   -5.9017    0.0000 C   0  0  0  0  0  0  0  0  0  0  0  0
   16.2265   -4.4017    0.0000 C   0  0  0  0  0  0  0  0  0  0  0  0
   -6.4951   -2.9999    0.0000 C   0  0  0  0  0  0  0  0  0  0  0  0
   -5.1961   -5.2499    0.0000 C   0  0  0  0  0  0  0  0  0  0  0  0
   17.5255   -6.6517    0.0000 C   0  0  0  0  0  0  0  0  0  0  0  0
   -6.4951   -4.4999    0.0000 N   0  0  0  0  0  0  0  0  0  0  0  0
   -7.7942   -5.2499    0.0000 C   0  0  0  0  0  0  0  0  0  0  0  0
  1  2  1  0
  1  3  1  0
  2  4  1  0
  2  5  2  0
  3  6  2  0
  3  7  1  0
  4  8  2  0
  4  9  1  0
  6 10  1  0
  7 11  1  0
  9 12  1  0
 10 13  1  0
 12 14  1  0
 13 15  1  0
 14 16  2  0
 14 17  1  0
 15 18  2  0
 15 19  1  0
 16 20  1  0
 17 21  2  0
 19 22  1  0
 19 23  2  0
 20 24  2  0
 22 25  1  0
 23 26  1  0
 23 27  1  0
 24 28  1  0
 25 29  2  0
 26 30  2  0
 28 31  1  0
 28 32  1  0
 29 33  1  0
 30 34  1  0
 31 35  1  0
 32 36  1  0
 33 37  1  0
 35 38  1  0
 38 39  1  0
  5  6  1  0
 11 13  1  0
 21 24  1  0
 25 26  1  0
 33 34  2  0
 36 38  1  0
M  END
>  <Molecule Name>  (35) 
CTX-1020743

>  <SMILES>  (35) 
CN1CCN(CC1)C1=CC=C(CNC(=O)C2=CC3=C(CCN(C3)C(=O)C3=C(C)C4=C(O3)C=C(C)C=C4)S2)C=C1

>  <Batch Name>  (35) 
CTX-1020743-1

>  <Batch Created Date>  (35) 
2021-12-16

>  <Batch ID>  (35) 
CTX-1020743-1

>  <External ID>  (35) 
P841-0358

>  <Stereochemistry>  (35) 
Achiral

>  <Amount 1>  (35) 
4.25

>  <Unit 1>  (35) 
mg

>  <CRO 1>  (35) 
Pharmaron

>  <CRO 1 Total Amount>  (35) 
22.1

>  <CRO 1 Unit>  (35) 
mg

>  <Pharmaron Solubility (PBS, pH 7.4): Aqueous Solubility - Batch Mean (uM)>  (35) 
0.0136

>  <Pharmaron Solubility (PBS, pH 7.4): Aqueous Solubility - Batch Mean (uM) Standard Deviation (±)>  (35) 


>  <Pharmaron Solubility (PBS, pH 7.4): Aqueous Solubility - Batch Mean (uM) Count>  (35) 
1.0

>  <log P>  (35) 
4.94

>  <log D>  (35) 
4.31

>  <Pharmaron Caliper Assay (CDK2/CCNE1): Minimum measured (%)>  (35) 
18.2

>  <Pharmaron Caliper Assay (CDK2/CCNE1): IC50 - Batch Mean (uM)>  (35) 
1.42

>  <Pharmaron ADPGLO (CDK2/E1-25C): Minimum measured (%)>  (35) 
44.5

>  <Pharmaron ADPGLO (CDK2/E1-25C): IC50 - Batch Mean (uM)>  (35) 
0.476

>  <Pharmaron ADPGLO (CDK2/E1-37C): Minimum measured (%)>  (35) 
111.0

>  <Pharmaron ADPGLO (CDK2/E1-37C): IC50 - Batch Mean (uM)>  (35) 
100

>  <IncuCyte Kuramochi RB-WT: IC50 - Batch Mean (uM)>  (35) 
7.57

>  <IncuCyte Kuramochi RB-KO: IC50 - Batch Mean (uM)>  (35) 
7.88

>  <DSF (npCDK2/CCNE1): dTm D - Batch Mean [Concentration: 100]>  (35) 


>  <DSF (npCDK2/CCNE1): dTm D - Batch Mean [Concentration: 20.0]>  (35) 
3.95

>  <DSF (pCDK2/CCNE1): dTm D - Batch Mean [Concentration: 100]>  (35) 


>  <DSF (pCDK2/CCNE1): dTm D - Batch Mean [Concentration: 20.0]>  (35) 
2.0540000000000003

>  <RLM: t1/2 - Batch Mean (Min)>  (35) 


>  <RLM: Cl int - Batch Mean (uL/min/mg protein)>  (35) 


>  <RLM: ER (Hepatic extraction ratio) - Batch Mean>  (35) 


>  <HLM: t1/2 - Batch Mean (Min)>  (35) 


>  <HLM: Cl int - Batch Mean (uL/min/mg protein)>  (35) 


>  <HLM: ER (Hepatic extraction ratio) - Batch Mean>  (35) 


>  <MDCK-WT 4% BSA: Papp (A-B) - Batch Mean (10-6, cm/s)>  (35) 


>  <MDCK-WT 4% BSA: Papp (B-A) - Batch Mean (10-6, cm/s)>  (35) 


>  <MDCK-WT 4% BSA: Efflux Ratio - Batch Mean>  (35) 


>  <MDCK-WT 4% BSA: ~Net A_B - Batch Mean (10-6, cm/s)>  (35) 


>  <pIC50>  (35) 
5.847712

>  <Selection_1>  (35) 
Y

>  <Selection_N>  (35) 
N

>  <Serie>  (35) 
Tetrahydrothienopyridine

>  <Selection_T>  (35) 


>  <Train_Vs_Test>  (35) 


$$$$
CTX-1020742
     RDKit          2D

 38 43  0  0  0  0  0  0  0  0999 V2000
    9.6802   -7.8210    0.0000 S   0  0  0  0  0  0  0  0  0  0  0  0
    9.0701   -6.4507    0.0000 C   0  0  0  0  0  0  0  0  0  0  0  0
    8.5655   -8.8247    0.0000 C   0  0  0  0  0  0  0  0  0  0  0  0
    7.5783   -6.6075    0.0000 C   0  0  0  0  0  0  0  0  0  0  0  0
    9.8201   -5.1517    0.0000 C   0  0  0  0  0  0  0  0  0  0  0  0
    7.2665   -8.0747    0.0000 C   0  0  0  0  0  0  0  0  0  0  0  0
    8.5655  -10.3247    0.0000 C   0  0  0  0  0  0  0  0  0  0  0  0
    6.5746   -5.4928    0.0000 C   0  0  0  0  0  0  0  0  0  0  0  0
   11.3201   -5.1517    0.0000 O   0  0  0  0  0  0  0  0  0  0  0  0
    9.0701   -3.8526    0.0000 N   0  0  0  0  0  0  0  0  0  0  0  0
    5.9674   -8.8247    0.0000 C   0  0  0  0  0  0  0  0  0  0  0  0
    7.2665  -11.0747    0.0000 N   0  0  0  0  0  0  0  0  0  0  0  0
    7.5701   -3.8526    0.0000 C   0  0  0  0  0  0  0  0  0  0  0  0
    9.8201   -2.5536    0.0000 C   0  0  0  0  0  0  0  0  0  0  0  0
    5.9674  -10.3247    0.0000 C   0  0  0  0  0  0  0  0  0  0  0  0
    6.8201   -2.5536    0.0000 C   0  0  0  0  0  0  0  0  0  0  0  0
    9.0701   -1.2546    0.0000 C   0  0  0  0  0  0  0  0  0  0  0  0
    7.5701   -1.2546    0.0000 C   0  0  0  0  0  0  0  0  0  0  0  0
    5.3529   -2.2417    0.0000 C   0  0  0  0  0  0  0  0  0  0  0  0
    6.5664   -0.1398    0.0000 S   0  0  0  0  0  0  0  0  0  0  0  0
    5.1961   -0.7500    0.0000 C   0  0  0  0  0  0  0  0  0  0  0  0
    3.8971    0.0000    0.0000 C   0  0  0  0  0  0  0  0  0  0  0  0
    3.8971    1.5000    0.0000 O   0  0  0  0  0  0  0  0  0  0  0  0
    2.5980   -0.7500    0.0000 N   0  0  0  0  0  0  0  0  0  0  0  0
    1.2990    0.0000    0.0000 C   0  0  0  0  0  0  0  0  0  0  0  0
    0.0000   -0.7500    0.0000 C   0  0  0  0  0  0  0  0  0  0  0  0
   -1.2990    0.0000    0.0000 C   0  0  0  0  0  0  0  0  0  0  0  0
    0.0000   -2.2499    0.0000 C   0  0  0  0  0  0  0  0  0  0  0  0
   -2.5980   -0.7499    0.0000 C   0  0  0  0  0  0  0  0  0  0  0  0
   -1.2990   -2.9999    0.0000 C   0  0  0  0  0  0  0  0  0  0  0  0
   -2.5980   -2.2499    0.0000 C   0  0  0  0  0  0  0  0  0  0  0  0
   -3.8971   -2.9999    0.0000 N   0  0  0  0  0  0  0  0  0  0  0  0
   -5.1961   -2.2499    0.0000 C   0  0  0  0  0  0  0  0  0  0  0  0
   -3.8971   -4.4999    0.0000 C   0  0  0  0  0  0  0  0  0  0  0  0
   -6.4951   -2.9999    0.0000 C   0  0  0  0  0  0  0  0  0  0  0  0
   -5.1961   -5.2499    0.0000 C   0  0  0  0  0  0  0  0  0  0  0  0
   -6.4951   -4.4999    0.0000 N   0  0  0  0  0  0  0  0  0  0  0  0
   -7.7942   -5.2499    0.0000 C   0  0  0  0  0  0  0  0  0  0  0  0
  1  2  1  0
  1  3  1  0
  2  4  2  0
  2  5  1  0
  3  6  2  0
  3  7  1  0
  4  8  1  0
  5  9  2  0
  5 10  1  0
  6 11  1  0
  7 12  2  0
 10 13  1  0
 10 14  1  0
 11 15  2  0
 13 16  1  0
 14 17  1  0
 16 18  2  0
 16 19  1  0
 18 20  1  0
 19 21  2  0
 21 22  1  0
 22 23  2  0
 22 24  1  0
 24 25  1  0
 25 26  1  0
 26 27  2  0
 26 28  1  0
 27 29  1  0
 28 30  2  0
 29 31  2  0
 31 32  1  0
 32 33  1  0
 32 34  1  0
 33 35  1  0
 34 36  1  0
 35 37  1  0
 37 38  1  0
  4  6  1  0
 12 15  1  0
 17 18  1  0
 20 21  1  0
 30 31  1  0
 36 37  1  0
M  END
>  <Molecule Name>  (36) 
CTX-1020742

>  <SMILES>  (36) 
CN1CCN(CC1)C1=CC=C(CNC(=O)C2=CC3=C(CCN(C3)C(=O)C3=C(C)C4=C(S3)C=NC=C4)S2)C=C1

>  <Batch Name>  (36) 
CTX-1020742-1

>  <Batch Created Date>  (36) 
2021-12-16

>  <Batch ID>  (36) 
CTX-1020742-1

>  <External ID>  (36) 
P841-0357

>  <Stereochemistry>  (36) 
Achiral

>  <Amount 1>  (36) 
5.1

>  <Unit 1>  (36) 
mg

>  <CRO 1>  (36) 
Pharmaron

>  <CRO 1 Total Amount>  (36) 
39.3

>  <CRO 1 Unit>  (36) 
mg

>  <Pharmaron Solubility (PBS, pH 7.4): Aqueous Solubility - Batch Mean (uM)>  (36) 
130.015

>  <Pharmaron Solubility (PBS, pH 7.4): Aqueous Solubility - Batch Mean (uM) Standard Deviation (±)>  (36) 


>  <Pharmaron Solubility (PBS, pH 7.4): Aqueous Solubility - Batch Mean (uM) Count>  (36) 
1.0

>  <log P>  (36) 
4.14

>  <log D>  (36) 
3.51

>  <Pharmaron Caliper Assay (CDK2/CCNE1): Minimum measured (%)>  (36) 
28.2

>  <Pharmaron Caliper Assay (CDK2/CCNE1): IC50 - Batch Mean (uM)>  (36) 
11.1

>  <Pharmaron ADPGLO (CDK2/E1-25C): Minimum measured (%)>  (36) 


>  <Pharmaron ADPGLO (CDK2/E1-25C): IC50 - Batch Mean (uM)>  (36) 


>  <Pharmaron ADPGLO (CDK2/E1-37C): Minimum measured (%)>  (36) 


>  <Pharmaron ADPGLO (CDK2/E1-37C): IC50 - Batch Mean (uM)>  (36) 


>  <IncuCyte Kuramochi RB-WT: IC50 - Batch Mean (uM)>  (36) 
20.0

>  <IncuCyte Kuramochi RB-KO: IC50 - Batch Mean (uM)>  (36) 
20.0

>  <DSF (npCDK2/CCNE1): dTm D - Batch Mean [Concentration: 100]>  (36) 


>  <DSF (npCDK2/CCNE1): dTm D - Batch Mean [Concentration: 20.0]>  (36) 
0.775

>  <DSF (pCDK2/CCNE1): dTm D - Batch Mean [Concentration: 100]>  (36) 


>  <DSF (pCDK2/CCNE1): dTm D - Batch Mean [Concentration: 20.0]>  (36) 


>  <RLM: t1/2 - Batch Mean (Min)>  (36) 


>  <RLM: Cl int - Batch Mean (uL/min/mg protein)>  (36) 


>  <RLM: ER (Hepatic extraction ratio) - Batch Mean>  (36) 


>  <HLM: t1/2 - Batch Mean (Min)>  (36) 


>  <HLM: Cl int - Batch Mean (uL/min/mg protein)>  (36) 


>  <HLM: ER (Hepatic extraction ratio) - Batch Mean>  (36) 


>  <MDCK-WT 4% BSA: Papp (A-B) - Batch Mean (10-6, cm/s)>  (36) 


>  <MDCK-WT 4% BSA: Papp (B-A) - Batch Mean (10-6, cm/s)>  (36) 


>  <MDCK-WT 4% BSA: Efflux Ratio - Batch Mean>  (36) 


>  <MDCK-WT 4% BSA: ~Net A_B - Batch Mean (10-6, cm/s)>  (36) 


>  <pIC50>  (36) 
4.954677

>  <Selection_1>  (36) 
Y

>  <Selection_N>  (36) 
N

>  <Serie>  (36) 
Tetrahydrothienopyridine

>  <Selection_T>  (36) 


>  <Train_Vs_Test>  (36) 


$$$$
CTX-1020741
     RDKit          2D

 33 37  0  0  0  0  0  0  0  0999 V2000
    6.5664   -0.1398    0.0000 S   0  0  0  0  0  0  0  0  0  0  0  0
    5.1961   -0.7500    0.0000 C   0  0  0  0  0  0  0  0  0  0  0  0
    7.5701   -1.2546    0.0000 C   0  0  0  0  0  0  0  0  0  0  0  0
    3.8971    0.0000    0.0000 C   0  0  0  0  0  0  0  0  0  0  0  0
    5.3529   -2.2417    0.0000 C   0  0  0  0  0  0  0  0  0  0  0  0
    6.8201   -2.5536    0.0000 C   0  0  0  0  0  0  0  0  0  0  0  0
    9.0701   -1.2546    0.0000 C   0  0  0  0  0  0  0  0  0  0  0  0
    3.8971    1.5000    0.0000 O   0  0  0  0  0  0  0  0  0  0  0  0
    2.5980   -0.7500    0.0000 N   0  0  0  0  0  0  0  0  0  0  0  0
    7.5701   -3.8526    0.0000 C   0  0  0  0  0  0  0  0  0  0  0  0
    9.8201   -2.5536    0.0000 C   0  0  0  0  0  0  0  0  0  0  0  0
    1.2990    0.0000    0.0000 C   0  0  0  0  0  0  0  0  0  0  0  0
    9.0701   -3.8526    0.0000 N   0  0  0  0  0  0  0  0  0  0  0  0
    0.0000   -0.7500    0.0000 C   0  0  0  0  0  0  0  0  0  0  0  0
    9.8201   -5.1517    0.0000 C   0  0  0  0  0  0  0  0  0  0  0  0
   -1.2990    0.0000    0.0000 C   0  0  0  0  0  0  0  0  0  0  0  0
    0.0000   -2.2500    0.0000 C   0  0  0  0  0  0  0  0  0  0  0  0
    9.0701   -6.4507    0.0000 O   0  0  0  0  0  0  0  0  0  0  0  0
   11.3201   -5.1517    0.0000 C   0  0  0  0  0  0  0  0  0  0  0  0
   -2.5980   -0.7499    0.0000 C   0  0  0  0  0  0  0  0  0  0  0  0
   -1.2990   -2.9999    0.0000 C   0  0  0  0  0  0  0  0  0  0  0  0
   12.2018   -6.3652    0.0000 O   0  0  0  0  0  0  0  0  0  0  0  0
   12.2018   -3.9382    0.0000 C   0  0  0  0  0  0  0  0  0  0  0  0
   -2.5980   -2.2499    0.0000 C   0  0  0  0  0  0  0  0  0  0  0  0
   13.6284   -5.9017    0.0000 C   0  0  0  0  0  0  0  0  0  0  0  0
   13.6284   -4.4017    0.0000 C   0  0  0  0  0  0  0  0  0  0  0  0
   11.7383   -2.5116    0.0000 C   0  0  0  0  0  0  0  0  0  0  0  0
   -3.8971   -2.9999    0.0000 O   0  0  0  0  0  0  0  0  0  0  0  0
   14.9274   -6.6517    0.0000 C   0  0  0  0  0  0  0  0  0  0  0  0
   14.9274   -3.6517    0.0000 C   0  0  0  0  0  0  0  0  0  0  0  0
   -3.8971   -4.4999    0.0000 C   0  0  0  0  0  0  0  0  0  0  0  0
   16.2265   -5.9017    0.0000 C   0  0  0  0  0  0  0  0  0  0  0  0
   16.2265   -4.4017    0.0000 C   0  0  0  0  0  0  0  0  0  0  0  0
  1  2  1  0
  1  3  1  0
  2  4  1  0
  2  5  2  0
  3  6  2  0
  3  7  1  0
  4  8  2  0
  4  9  1  0
  6 10  1  0
  7 11  1  0
  9 12  1  0
 10 13  1  0
 12 14  1  0
 13 15  1  0
 14 16  2  0
 14 17  1  0
 15 18  2  0
 15 19  1  0
 16 20  1  0
 17 21  2  0
 19 22  1  0
 19 23  2  0
 20 24  2  0
 22 25  1  0
 23 26  1  0
 23 27  1  0
 24 28  1  0
 25 29  2  0
 26 30  2  0
 28 31  1  0
 29 32  1  0
 30 33  1  0
  5  6  1  0
 11 13  1  0
 21 24  1  0
 25 26  1  0
 32 33  2  0
M  END
>  <Molecule Name>  (37) 
CTX-1020741

>  <SMILES>  (37) 
COC1=CC=C(CNC(=O)C2=CC3=C(CCN(C3)C(=O)C3=C(C)C4=C(O3)C=CC=C4)S2)C=C1

>  <Batch Name>  (37) 
CTX-1020741-1

>  <Batch Created Date>  (37) 
2021-12-16

>  <Batch ID>  (37) 
CTX-1020741-1

>  <External ID>  (37) 
P841-0356

>  <Stereochemistry>  (37) 
Achiral

>  <Amount 1>  (37) 
4.55

>  <Unit 1>  (37) 
mg

>  <CRO 1>  (37) 
Pharmaron

>  <CRO 1 Total Amount>  (37) 
19.75

>  <CRO 1 Unit>  (37) 
mg

>  <Pharmaron Solubility (PBS, pH 7.4): Aqueous Solubility - Batch Mean (uM)>  (37) 
0.0005

>  <Pharmaron Solubility (PBS, pH 7.4): Aqueous Solubility - Batch Mean (uM) Standard Deviation (±)>  (37) 


>  <Pharmaron Solubility (PBS, pH 7.4): Aqueous Solubility - Batch Mean (uM) Count>  (37) 
1.0

>  <log P>  (37) 
4.31

>  <log D>  (37) 
4.31

>  <Pharmaron Caliper Assay (CDK2/CCNE1): Minimum measured (%)>  (37) 
40.2

>  <Pharmaron Caliper Assay (CDK2/CCNE1): IC50 - Batch Mean (uM)>  (37) 
0.764

>  <Pharmaron ADPGLO (CDK2/E1-25C): Minimum measured (%)>  (37) 
55.5

>  <Pharmaron ADPGLO (CDK2/E1-25C): IC50 - Batch Mean (uM)>  (37) 
2.01

>  <Pharmaron ADPGLO (CDK2/E1-37C): Minimum measured (%)>  (37) 
97.4

>  <Pharmaron ADPGLO (CDK2/E1-37C): IC50 - Batch Mean (uM)>  (37) 
100

>  <IncuCyte Kuramochi RB-WT: IC50 - Batch Mean (uM)>  (37) 
20.0

>  <IncuCyte Kuramochi RB-KO: IC50 - Batch Mean (uM)>  (37) 
20.0

>  <DSF (npCDK2/CCNE1): dTm D - Batch Mean [Concentration: 100]>  (37) 


>  <DSF (npCDK2/CCNE1): dTm D - Batch Mean [Concentration: 20.0]>  (37) 
2.8139999999999996

>  <DSF (pCDK2/CCNE1): dTm D - Batch Mean [Concentration: 100]>  (37) 


>  <DSF (pCDK2/CCNE1): dTm D - Batch Mean [Concentration: 20.0]>  (37) 
0.578

>  <RLM: t1/2 - Batch Mean (Min)>  (37) 


>  <RLM: Cl int - Batch Mean (uL/min/mg protein)>  (37) 


>  <RLM: ER (Hepatic extraction ratio) - Batch Mean>  (37) 


>  <HLM: t1/2 - Batch Mean (Min)>  (37) 


>  <HLM: Cl int - Batch Mean (uL/min/mg protein)>  (37) 


>  <HLM: ER (Hepatic extraction ratio) - Batch Mean>  (37) 


>  <MDCK-WT 4% BSA: Papp (A-B) - Batch Mean (10-6, cm/s)>  (37) 


>  <MDCK-WT 4% BSA: Papp (B-A) - Batch Mean (10-6, cm/s)>  (37) 


>  <MDCK-WT 4% BSA: Efflux Ratio - Batch Mean>  (37) 


>  <MDCK-WT 4% BSA: ~Net A_B - Batch Mean (10-6, cm/s)>  (37) 


>  <pIC50>  (37) 
6.116907

>  <Selection_1>  (37) 
Y

>  <Selection_N>  (37) 
N

>  <Serie>  (37) 
Tetrahydrothienopyridine

>  <Selection_T>  (37) 


>  <Train_Vs_Test>  (37) 


$$$$
CTX-1020740
     RDKit          2D

 35 39  0  0  0  0  0  0  0  0999 V2000
    6.5664   -0.1398    0.0000 S   0  0  0  0  0  0  0  0  0  0  0  0
    5.1961   -0.7500    0.0000 C   0  0  0  0  0  0  0  0  0  0  0  0
    7.5701   -1.2546    0.0000 C   0  0  0  0  0  0  0  0  0  0  0  0
    3.8971    0.0000    0.0000 C   0  0  0  0  0  0  0  0  0  0  0  0
    5.3529   -2.2417    0.0000 C   0  0  0  0  0  0  0  0  0  0  0  0
    6.8201   -2.5536    0.0000 C   0  0  0  0  0  0  0  0  0  0  0  0
    9.0701   -1.2546    0.0000 C   0  0  0  0  0  0  0  0  0  0  0  0
    3.8971    1.5000    0.0000 O   0  0  0  0  0  0  0  0  0  0  0  0
    2.5980   -0.7500    0.0000 N   0  0  0  0  0  0  0  0  0  0  0  0
    7.5701   -3.8526    0.0000 C   0  0  0  0  0  0  0  0  0  0  0  0
    9.8201   -2.5536    0.0000 C   0  0  0  0  0  0  0  0  0  0  0  0
    1.2990    0.0000    0.0000 C   0  0  0  0  0  0  0  0  0  0  0  0
    9.0701   -3.8526    0.0000 N   0  0  0  0  0  0  0  0  0  0  0  0
    0.0000   -0.7500    0.0000 C   0  0  0  0  0  0  0  0  0  0  0  0
    9.8201   -5.1517    0.0000 C   0  0  0  0  0  0  0  0  0  0  0  0
   -1.2990    0.0000    0.0000 C   0  0  0  0  0  0  0  0  0  0  0  0
    0.0000   -2.2500    0.0000 C   0  0  0  0  0  0  0  0  0  0  0  0
    9.0701   -6.4507    0.0000 O   0  0  0  0  0  0  0  0  0  0  0  0
   11.3201   -5.1517    0.0000 C   0  0  0  0  0  0  0  0  0  0  0  0
   -2.5980   -0.7499    0.0000 C   0  0  0  0  0  0  0  0  0  0  0  0
   -1.2990   -2.9999    0.0000 C   0  0  0  0  0  0  0  0  0  0  0  0
   12.2018   -6.3652    0.0000 O   0  0  0  0  0  0  0  0  0  0  0  0
   12.2018   -3.9382    0.0000 C   0  0  0  0  0  0  0  0  0  0  0  0
   -2.5980   -2.2499    0.0000 C   0  0  0  0  0  0  0  0  0  0  0  0
   13.6284   -5.9017    0.0000 C   0  0  0  0  0  0  0  0  0  0  0  0
   13.6284   -4.4017    0.0000 C   0  0  0  0  0  0  0  0  0  0  0  0
   11.7383   -2.5116    0.0000 C   0  0  0  0  0  0  0  0  0  0  0  0
   -3.8971   -2.9999    0.0000 C   0  0  0  0  0  0  0  0  0  0  0  0
   14.9274   -6.6517    0.0000 C   0  0  0  0  0  0  0  0  0  0  0  0
   14.9274   -3.6517    0.0000 C   0  0  0  0  0  0  0  0  0  0  0  0
   -3.1471   -4.2990    0.0000 F   0  0  0  0  0  0  0  0  0  0  0  0
   -5.1961   -3.7499    0.0000 F   0  0  0  0  0  0  0  0  0  0  0  0
   -4.6471   -1.7009    0.0000 F   0  0  0  0  0  0  0  0  0  0  0  0
   16.2265   -5.9017    0.0000 C   0  0  0  0  0  0  0  0  0  0  0  0
   16.2265   -4.4017    0.0000 C   0  0  0  0  0  0  0  0  0  0  0  0
  1  2  1  0
  1  3  1  0
  2  4  1  0
  2  5  2  0
  3  6  2  0
  3  7  1  0
  4  8  2  0
  4  9  1  0
  6 10  1  0
  7 11  1  0
  9 12  1  0
 10 13  1  0
 12 14  1  0
 13 15  1  0
 14 16  2  0
 14 17  1  0
 15 18  2  0
 15 19  1  0
 16 20  1  0
 17 21  2  0
 19 22  1  0
 19 23  2  0
 20 24  2  0
 22 25  1  0
 23 26  1  0
 23 27  1  0
 24 28  1  0
 25 29  2  0
 26 30  2  0
 28 31  1  0
 28 32  1  0
 28 33  1  0
 29 34  1  0
 30 35  1  0
  5  6  1  0
 11 13  1  0
 21 24  1  0
 25 26  1  0
 34 35  2  0
M  END
>  <Molecule Name>  (38) 
CTX-1020740

>  <SMILES>  (38) 
CC1=C(OC2=C1C=CC=C2)C(=O)N1CCC2=C(C1)C=C(S2)C(=O)NCC1=CC=C(C=C1)C(F)(F)F

>  <Batch Name>  (38) 
CTX-1020740-1

>  <Batch Created Date>  (38) 
2021-12-16

>  <Batch ID>  (38) 
CTX-1020740-1

>  <External ID>  (38) 
P841-0355

>  <Stereochemistry>  (38) 
Achiral

>  <Amount 1>  (38) 
3.95

>  <Unit 1>  (38) 
mg

>  <CRO 1>  (38) 
Pharmaron

>  <CRO 1 Total Amount>  (38) 
16.75

>  <CRO 1 Unit>  (38) 
mg

>  <Pharmaron Solubility (PBS, pH 7.4): Aqueous Solubility - Batch Mean (uM)>  (38) 
0.0017

>  <Pharmaron Solubility (PBS, pH 7.4): Aqueous Solubility - Batch Mean (uM) Standard Deviation (±)>  (38) 


>  <Pharmaron Solubility (PBS, pH 7.4): Aqueous Solubility - Batch Mean (uM) Count>  (38) 
1.0

>  <log P>  (38) 
5.35

>  <log D>  (38) 
5.35

>  <Pharmaron Caliper Assay (CDK2/CCNE1): Minimum measured (%)>  (38) 
73.5

>  <Pharmaron Caliper Assay (CDK2/CCNE1): IC50 - Batch Mean (uM)>  (38) 
3.05

>  <Pharmaron ADPGLO (CDK2/E1-25C): Minimum measured (%)>  (38) 


>  <Pharmaron ADPGLO (CDK2/E1-25C): IC50 - Batch Mean (uM)>  (38) 


>  <Pharmaron ADPGLO (CDK2/E1-37C): Minimum measured (%)>  (38) 


>  <Pharmaron ADPGLO (CDK2/E1-37C): IC50 - Batch Mean (uM)>  (38) 


>  <IncuCyte Kuramochi RB-WT: IC50 - Batch Mean (uM)>  (38) 
20.0

>  <IncuCyte Kuramochi RB-KO: IC50 - Batch Mean (uM)>  (38) 
20.0

>  <DSF (npCDK2/CCNE1): dTm D - Batch Mean [Concentration: 100]>  (38) 


>  <DSF (npCDK2/CCNE1): dTm D - Batch Mean [Concentration: 20.0]>  (38) 
0.775

>  <DSF (pCDK2/CCNE1): dTm D - Batch Mean [Concentration: 100]>  (38) 


>  <DSF (pCDK2/CCNE1): dTm D - Batch Mean [Concentration: 20.0]>  (38) 


>  <RLM: t1/2 - Batch Mean (Min)>  (38) 


>  <RLM: Cl int - Batch Mean (uL/min/mg protein)>  (38) 


>  <RLM: ER (Hepatic extraction ratio) - Batch Mean>  (38) 


>  <HLM: t1/2 - Batch Mean (Min)>  (38) 


>  <HLM: Cl int - Batch Mean (uL/min/mg protein)>  (38) 


>  <HLM: ER (Hepatic extraction ratio) - Batch Mean>  (38) 


>  <MDCK-WT 4% BSA: Papp (A-B) - Batch Mean (10-6, cm/s)>  (38) 


>  <MDCK-WT 4% BSA: Papp (B-A) - Batch Mean (10-6, cm/s)>  (38) 


>  <MDCK-WT 4% BSA: Efflux Ratio - Batch Mean>  (38) 


>  <MDCK-WT 4% BSA: ~Net A_B - Batch Mean (10-6, cm/s)>  (38) 


>  <pIC50>  (38) 
5.5157

>  <Selection_1>  (38) 
Y

>  <Selection_N>  (38) 
N

>  <Serie>  (38) 
Tetrahydrothienopyridine

>  <Selection_T>  (38) 


>  <Train_Vs_Test>  (38) 


$$$$
CTX-1020739
     RDKit          2D

 31 35  0  0  0  0  0  0  0  0999 V2000
    6.5664   -0.1398    0.0000 S   0  0  0  0  0  0  0  0  0  0  0  0
    5.1961   -0.7500    0.0000 C   0  0  0  0  0  0  0  0  0  0  0  0
    7.5701   -1.2546    0.0000 C   0  0  0  0  0  0  0  0  0  0  0  0
    3.8971    0.0000    0.0000 C   0  0  0  0  0  0  0  0  0  0  0  0
    5.3529   -2.2417    0.0000 C   0  0  0  0  0  0  0  0  0  0  0  0
    6.8201   -2.5536    0.0000 C   0  0  0  0  0  0  0  0  0  0  0  0
    9.0701   -1.2546    0.0000 C   0  0  0  0  0  0  0  0  0  0  0  0
    3.8971    1.5000    0.0000 O   0  0  0  0  0  0  0  0  0  0  0  0
    2.5980   -0.7500    0.0000 N   0  0  0  0  0  0  0  0  0  0  0  0
    7.5701   -3.8526    0.0000 C   0  0  0  0  0  0  0  0  0  0  0  0
    9.8201   -2.5536    0.0000 C   0  0  0  0  0  0  0  0  0  0  0  0
    1.2990    0.0000    0.0000 C   0  0  0  0  0  0  0  0  0  0  0  0
    9.0701   -3.8526    0.0000 N   0  0  0  0  0  0  0  0  0  0  0  0
    0.0000   -0.7500    0.0000 C   0  0  0  0  0  0  0  0  0  0  0  0
    9.8201   -5.1517    0.0000 C   0  0  0  0  0  0  0  0  0  0  0  0
   -1.2990    0.0000    0.0000 C   0  0  0  0  0  0  0  0  0  0  0  0
    0.0000   -2.2500    0.0000 C   0  0  0  0  0  0  0  0  0  0  0  0
    9.0701   -6.4507    0.0000 O   0  0  0  0  0  0  0  0  0  0  0  0
   11.3201   -5.1517    0.0000 C   0  0  0  0  0  0  0  0  0  0  0  0
   -2.5980   -0.7499    0.0000 C   0  0  0  0  0  0  0  0  0  0  0  0
   -1.2990   -2.9999    0.0000 C   0  0  0  0  0  0  0  0  0  0  0  0
   12.2018   -6.3652    0.0000 O   0  0  0  0  0  0  0  0  0  0  0  0
   12.2018   -3.9382    0.0000 C   0  0  0  0  0  0  0  0  0  0  0  0
   -2.5980   -2.2499    0.0000 N   0  0  0  0  0  0  0  0  0  0  0  0
   13.6284   -5.9017    0.0000 C   0  0  0  0  0  0  0  0  0  0  0  0
   13.6284   -4.4017    0.0000 C   0  0  0  0  0  0  0  0  0  0  0  0
   11.7383   -2.5116    0.0000 C   0  0  0  0  0  0  0  0  0  0  0  0
   14.9274   -6.6517    0.0000 C   0  0  0  0  0  0  0  0  0  0  0  0
   14.9274   -3.6517    0.0000 C   0  0  0  0  0  0  0  0  0  0  0  0
   16.2265   -5.9017    0.0000 C   0  0  0  0  0  0  0  0  0  0  0  0
   16.2265   -4.4017    0.0000 C   0  0  0  0  0  0  0  0  0  0  0  0
  1  2  1  0
  1  3  1  0
  2  4  1  0
  2  5  2  0
  3  6  2  0
  3  7  1  0
  4  8  2  0
  4  9  1  0
  6 10  1  0
  7 11  1  0
  9 12  1  0
 10 13  1  0
 12 14  1  0
 13 15  1  0
 14 16  2  0
 14 17  1  0
 15 18  2  0
 15 19  1  0
 16 20  1  0
 17 21  2  0
 19 22  1  0
 19 23  2  0
 20 24  2  0
 22 25  1  0
 23 26  1  0
 23 27  1  0
 25 28  2  0
 26 29  2  0
 28 30  1  0
 29 31  1  0
  5  6  1  0
 11 13  1  0
 21 24  1  0
 25 26  1  0
 30 31  2  0
M  END
>  <Molecule Name>  (39) 
CTX-1020739

>  <SMILES>  (39) 
CC1=C(OC2=C1C=CC=C2)C(=O)N1CCC2=C(C1)C=C(S2)C(=O)NCC1=CC=NC=C1

>  <Batch Name>  (39) 
CTX-1020739-1

>  <Batch Created Date>  (39) 
2021-12-16

>  <Batch ID>  (39) 
CTX-1020739-1

>  <External ID>  (39) 
P841-0354

>  <Stereochemistry>  (39) 
Achiral

>  <Amount 1>  (39) 
3.85

>  <Unit 1>  (39) 
mg

>  <CRO 1>  (39) 
Pharmaron

>  <CRO 1 Total Amount>  (39) 
27.55

>  <CRO 1 Unit>  (39) 
mg

>  <Pharmaron Solubility (PBS, pH 7.4): Aqueous Solubility - Batch Mean (uM)>  (39) 
13.2512

>  <Pharmaron Solubility (PBS, pH 7.4): Aqueous Solubility - Batch Mean (uM) Standard Deviation (±)>  (39) 


>  <Pharmaron Solubility (PBS, pH 7.4): Aqueous Solubility - Batch Mean (uM) Count>  (39) 
1.0

>  <log P>  (39) 
3.25

>  <log D>  (39) 
3.25

>  <Pharmaron Caliper Assay (CDK2/CCNE1): Minimum measured (%)>  (39) 
39.8

>  <Pharmaron Caliper Assay (CDK2/CCNE1): IC50 - Batch Mean (uM)>  (39) 
8.89

>  <Pharmaron ADPGLO (CDK2/E1-25C): Minimum measured (%)>  (39) 
46.7

>  <Pharmaron ADPGLO (CDK2/E1-25C): IC50 - Batch Mean (uM)>  (39) 
4.71

>  <Pharmaron ADPGLO (CDK2/E1-37C): Minimum measured (%)>  (39) 
109.0

>  <Pharmaron ADPGLO (CDK2/E1-37C): IC50 - Batch Mean (uM)>  (39) 
100

>  <IncuCyte Kuramochi RB-WT: IC50 - Batch Mean (uM)>  (39) 
20.0

>  <IncuCyte Kuramochi RB-KO: IC50 - Batch Mean (uM)>  (39) 
20.0

>  <DSF (npCDK2/CCNE1): dTm D - Batch Mean [Concentration: 100]>  (39) 


>  <DSF (npCDK2/CCNE1): dTm D - Batch Mean [Concentration: 20.0]>  (39) 
2.074

>  <DSF (pCDK2/CCNE1): dTm D - Batch Mean [Concentration: 100]>  (39) 


>  <DSF (pCDK2/CCNE1): dTm D - Batch Mean [Concentration: 20.0]>  (39) 
0.312

>  <RLM: t1/2 - Batch Mean (Min)>  (39) 


>  <RLM: Cl int - Batch Mean (uL/min/mg protein)>  (39) 


>  <RLM: ER (Hepatic extraction ratio) - Batch Mean>  (39) 


>  <HLM: t1/2 - Batch Mean (Min)>  (39) 


>  <HLM: Cl int - Batch Mean (uL/min/mg protein)>  (39) 


>  <HLM: ER (Hepatic extraction ratio) - Batch Mean>  (39) 


>  <MDCK-WT 4% BSA: Papp (A-B) - Batch Mean (10-6, cm/s)>  (39) 


>  <MDCK-WT 4% BSA: Papp (B-A) - Batch Mean (10-6, cm/s)>  (39) 


>  <MDCK-WT 4% BSA: Efflux Ratio - Batch Mean>  (39) 


>  <MDCK-WT 4% BSA: ~Net A_B - Batch Mean (10-6, cm/s)>  (39) 


>  <pIC50>  (39) 
5.051098

>  <Selection_1>  (39) 
Y

>  <Selection_N>  (39) 
N

>  <Serie>  (39) 
Tetrahydrothienopyridine

>  <Selection_T>  (39) 


>  <Train_Vs_Test>  (39) 


$$$$
CTX-1020735
     RDKit          2D

 36 41  0  0  0  0  0  0  0  0999 V2000
    6.5664   -0.1398    0.0000 S   0  0  0  0  0  0  0  0  0  0  0  0
    5.1961   -0.7500    0.0000 C   0  0  0  0  0  0  0  0  0  0  0  0
    7.5701   -1.2546    0.0000 C   0  0  0  0  0  0  0  0  0  0  0  0
    3.8971    0.0000    0.0000 C   0  0  0  0  0  0  0  0  0  0  0  0
    5.3529   -2.2417    0.0000 C   0  0  0  0  0  0  0  0  0  0  0  0
    6.8201   -2.5536    0.0000 C   0  0  0  0  0  0  0  0  0  0  0  0
    9.0701   -1.2546    0.0000 C   0  0  0  0  0  0  0  0  0  0  0  0
    3.8971    1.5000    0.0000 O   0  0  0  0  0  0  0  0  0  0  0  0
    2.5980   -0.7500    0.0000 N   0  0  0  0  0  0  0  0  0  0  0  0
    7.5701   -3.8526    0.0000 C   0  0  0  0  0  0  0  0  0  0  0  0
    9.8201   -2.5536    0.0000 C   0  0  0  0  0  0  0  0  0  0  0  0
    1.2990    0.0000    0.0000 C   0  0  0  0  0  0  0  0  0  0  0  0
    9.0701   -3.8526    0.0000 N   0  0  0  0  0  0  0  0  0  0  0  0
    0.0000   -0.7500    0.0000 C   0  0  0  0  0  0  0  0  0  0  0  0
    9.8201   -5.1517    0.0000 C   0  0  0  0  0  0  0  0  0  0  0  0
   -1.4488   -0.3617    0.0000 C   0  0  0  0  0  0  0  0  0  0  0  0
   -0.3882   -2.1988    0.0000 C   0  0  0  0  0  0  0  0  0  0  0  0
    9.0701   -6.4507    0.0000 O   0  0  0  0  0  0  0  0  0  0  0  0
   11.3201   -5.1517    0.0000 C   0  0  0  0  0  0  0  0  0  0  0  0
   -1.8371   -1.8106    0.0000 C   0  0  0  0  0  0  0  0  0  0  0  0
   12.2018   -6.3652    0.0000 O   0  0  0  0  0  0  0  0  0  0  0  0
   12.2018   -3.9382    0.0000 C   0  0  0  0  0  0  0  0  0  0  0  0
   -3.1361   -2.5606    0.0000 N   0  0  0  0  0  0  0  0  0  0  0  0
   13.6284   -5.9017    0.0000 C   0  0  0  0  0  0  0  0  0  0  0  0
   13.6284   -4.4017    0.0000 C   0  0  0  0  0  0  0  0  0  0  0  0
   11.7383   -2.5116    0.0000 C   0  0  0  0  0  0  0  0  0  0  0  0
   -4.4351   -1.8106    0.0000 C   0  0  0  0  0  0  0  0  0  0  0  0
   -3.1361   -4.0606    0.0000 C   0  0  0  0  0  0  0  0  0  0  0  0
   14.9274   -6.6517    0.0000 C   0  0  0  0  0  0  0  0  0  0  0  0
   14.9274   -3.6517    0.0000 C   0  0  0  0  0  0  0  0  0  0  0  0
   -5.7342   -2.5606    0.0000 C   0  0  0  0  0  0  0  0  0  0  0  0
   -4.4351   -4.8106    0.0000 C   0  0  0  0  0  0  0  0  0  0  0  0
   16.2265   -5.9017    0.0000 C   0  0  0  0  0  0  0  0  0  0  0  0
   16.2265   -4.4017    0.0000 C   0  0  0  0  0  0  0  0  0  0  0  0
   -5.7342   -4.0606    0.0000 N   0  0  0  0  0  0  0  0  0  0  0  0
   -7.0332   -4.8106    0.0000 C   0  0  0  0  0  0  0  0  0  0  0  0
  1  2  1  0
  1  3  1  0
  2  4  1  0
  2  5  2  0
  3  6  2  0
  3  7  1  0
  4  8  2  0
  4  9  1  0
  6 10  1  0
  7 11  1  0
  9 12  1  0
 10 13  1  0
 12 14  1  0
 13 15  1  0
 14 16  1  0
 14 17  1  0
 15 18  2  0
 15 19  1  0
 16 20  1  0
 19 21  1  0
 19 22  2  0
 20 23  1  0
 21 24  1  0
 22 25  1  0
 22 26  1  0
 23 27  1  0
 23 28  1  0
 24 29  2  0
 25 30  2  0
 27 31  1  0
 28 32  1  0
 29 33  1  0
 30 34  1  0
 31 35  1  0
 35 36  1  0
  5  6  1  0
 11 13  1  0
 17 20  1  0
 24 25  1  0
 32 35  1  0
 33 34  2  0
M  END
>  <Molecule Name>  (40) 
CTX-1020735

>  <SMILES>  (40) 
CN1CCN(CC1)C1CC(CNC(=O)C2=CC3=C(CCN(C3)C(=O)C3=C(C)C4=C(O3)C=CC=C4)S2)C1

>  <Batch Name>  (40) 
CTX-1020735-1

>  <Batch Created Date>  (40) 
2021-12-16

>  <Batch ID>  (40) 
CTX-1020735-1

>  <External ID>  (40) 
CD-44-M

>  <Stereochemistry>  (40) 
Achiral

>  <Amount 1>  (40) 
13.8

>  <Unit 1>  (40) 
mg

>  <CRO 1>  (40) 
Pharmaron

>  <CRO 1 Total Amount>  (40) 
21.4

>  <CRO 1 Unit>  (40) 
mg

>  <Pharmaron Solubility (PBS, pH 7.4): Aqueous Solubility - Batch Mean (uM)>  (40) 
276.7241

>  <Pharmaron Solubility (PBS, pH 7.4): Aqueous Solubility - Batch Mean (uM) Standard Deviation (±)>  (40) 


>  <Pharmaron Solubility (PBS, pH 7.4): Aqueous Solubility - Batch Mean (uM) Count>  (40) 
1.0

>  <log P>  (40) 
3.14

>  <log D>  (40) 
2.19

>  <Pharmaron Caliper Assay (CDK2/CCNE1): Minimum measured (%)>  (40) 
70.3

>  <Pharmaron Caliper Assay (CDK2/CCNE1): IC50 - Batch Mean (uM)>  (40) 
41.6

>  <Pharmaron ADPGLO (CDK2/E1-25C): Minimum measured (%)>  (40) 


>  <Pharmaron ADPGLO (CDK2/E1-25C): IC50 - Batch Mean (uM)>  (40) 


>  <Pharmaron ADPGLO (CDK2/E1-37C): Minimum measured (%)>  (40) 


>  <Pharmaron ADPGLO (CDK2/E1-37C): IC50 - Batch Mean (uM)>  (40) 


>  <IncuCyte Kuramochi RB-WT: IC50 - Batch Mean (uM)>  (40) 
13.0

>  <IncuCyte Kuramochi RB-KO: IC50 - Batch Mean (uM)>  (40) 
10.8

>  <DSF (npCDK2/CCNE1): dTm D - Batch Mean [Concentration: 100]>  (40) 


>  <DSF (npCDK2/CCNE1): dTm D - Batch Mean [Concentration: 20.0]>  (40) 
-0.134

>  <DSF (pCDK2/CCNE1): dTm D - Batch Mean [Concentration: 100]>  (40) 


>  <DSF (pCDK2/CCNE1): dTm D - Batch Mean [Concentration: 20.0]>  (40) 


>  <RLM: t1/2 - Batch Mean (Min)>  (40) 


>  <RLM: Cl int - Batch Mean (uL/min/mg protein)>  (40) 


>  <RLM: ER (Hepatic extraction ratio) - Batch Mean>  (40) 


>  <HLM: t1/2 - Batch Mean (Min)>  (40) 


>  <HLM: Cl int - Batch Mean (uL/min/mg protein)>  (40) 


>  <HLM: ER (Hepatic extraction ratio) - Batch Mean>  (40) 


>  <MDCK-WT 4% BSA: Papp (A-B) - Batch Mean (10-6, cm/s)>  (40) 


>  <MDCK-WT 4% BSA: Papp (B-A) - Batch Mean (10-6, cm/s)>  (40) 


>  <MDCK-WT 4% BSA: Efflux Ratio - Batch Mean>  (40) 


>  <MDCK-WT 4% BSA: ~Net A_B - Batch Mean (10-6, cm/s)>  (40) 


>  <pIC50>  (40) 
4.380907

>  <Selection_1>  (40) 
Y

>  <Selection_N>  (40) 
N

>  <Serie>  (40) 
Tetrahydrothienopyridine

>  <Selection_T>  (40) 


>  <Train_Vs_Test>  (40) 


$$$$
CTX-1020734
     RDKit          2D

 38 44  0  0  0  0  0  0  0  0999 V2000
    7.4316   -5.4219    0.0000 Cl  0  0  0  0  0  0  0  0  0  0  0  0
    6.4535   -5.2140    0.0000 C   0  0  0  0  0  0  0  0  0  0  0  0
    6.0467   -4.3005    0.0000 C   0  0  0  0  0  0  0  0  0  0  0  0
    5.7103   -5.8831    0.0000 C   0  0  0  0  0  0  0  0  0  0  0  0
    5.0522   -4.4050    0.0000 S   0  0  0  0  0  0  0  0  0  0  0  0
    6.5467   -3.4344    0.0000 C   0  0  0  0  0  0  0  0  0  0  0  0
    4.8443   -5.3831    0.0000 C   0  0  0  0  0  0  0  0  0  0  0  0
    5.7103   -6.8831    0.0000 C   0  0  0  0  0  0  0  0  0  0  0  0
    7.5467   -3.4344    0.0000 O   0  0  0  0  0  0  0  0  0  0  0  0
    6.0467   -2.5684    0.0000 N   0  0  0  0  0  0  0  0  0  0  0  0
    3.9783   -5.8831    0.0000 C   0  0  0  0  0  0  0  0  0  0  0  0
    4.8443   -7.3831    0.0000 C   0  0  0  0  0  0  0  0  0  0  0  0
    5.0467   -2.5684    0.0000 C   0  0  0  0  0  0  0  0  0  0  0  0
    6.5467   -1.7024    0.0000 C   0  0  0  0  0  0  0  0  0  0  0  0
    3.9783   -6.8831    0.0000 C   0  0  0  0  0  0  0  0  0  0  0  0
    4.5467   -1.7024    0.0000 C   0  0  0  0  0  0  0  0  0  0  0  0
    6.0467   -0.8364    0.0000 C   0  0  0  0  0  0  0  0  0  0  0  0
    5.0467   -0.8364    0.0000 C   0  0  0  0  0  0  0  0  0  0  0  0
    3.5686   -1.4945    0.0000 C   0  0  0  0  0  0  0  0  0  0  0  0
    4.3776   -0.0932    0.0000 S   0  0  0  0  0  0  0  0  0  0  0  0
    3.4641   -0.5000    0.0000 C   0  0  0  0  0  0  0  0  0  0  0  0
    2.5980    0.0000    0.0000 C   0  0  0  0  0  0  0  0  0  0  0  0
    2.5980    1.0000    0.0000 O   0  0  0  0  0  0  0  0  0  0  0  0
    1.7320   -0.5000    0.0000 N   0  0  0  0  0  0  0  0  0  0  0  0
    0.8660    0.0000    0.0000 C   0  0  0  0  0  0  0  0  0  0  0  0
    0.0000   -0.5000    0.0000 C   0  0  0  0  0  0  0  0  0  0  0  0
   -0.8660    0.0000    0.0000 C   0  0  0  0  0  0  0  0  0  0  0  0
    0.0000   -1.4999    0.0000 C   0  0  0  0  0  0  0  0  0  0  0  0
   -1.7320   -0.4999    0.0000 C   0  0  0  0  0  0  0  0  0  0  0  0
   -0.8660   -1.9999    0.0000 C   0  0  0  0  0  0  0  0  0  0  0  0
   -1.7320   -1.4999    0.0000 C   0  0  0  0  0  0  0  0  0  0  0  0
   -2.5980   -1.9999    0.0000 N   0  0  0  0  0  0  0  0  0  0  0  0
   -3.5640   -1.7411    0.0000 C   0  0  0  0  0  0  0  0  0  0  0  0
   -2.8568   -2.9659    0.0000 C   0  0  0  0  0  0  0  0  0  0  0  0
   -3.8228   -2.7071    0.0000 C   0  0  0  0  0  0  0  0  0  0  0  0
   -4.7887   -2.4482    0.0000 C   0  0  0  0  0  0  0  0  0  0  0  0
   -4.0816   -3.6730    0.0000 C   0  0  0  0  0  0  0  0  0  0  0  0
   -5.0475   -3.4142    0.0000 O   0  0  0  0  0  0  0  0  0  0  0  0
  1  2  1  0
  2  3  2  0
  2  4  1  0
  3  5  1  0
  3  6  1  0
  4  7  2  0
  4  8  1  0
  6  9  2  0
  6 10  1  0
  7 11  1  0
  8 12  2  0
 10 13  1  0
 10 14  1  0
 11 15  2  0
 13 16  1  0
 14 17  1  0
 16 18  2  0
 16 19  1  0
 18 20  1  0
 19 21  2  0
 21 22  1  0
 22 23  2  0
 22 24  1  0
 24 25  1  0
 25 26  1  0
 26 27  2  0
 26 28  1  0
 27 29  1  0
 28 30  2  0
 29 31  2  0
 31 32  1  0
 32 33  1  0
 32 34  1  0
 33 35  1  0
 35 36  1  0
 35 37  1  0
 36 38  1  0
  5  7  1  0
 12 15  1  0
 17 18  1  0
 20 21  1  0
 30 31  1  0
 34 35  1  0
 37 38  1  0
M  END
>  <Molecule Name>  (41) 
CTX-1020734

>  <SMILES>  (41) 
ClC1=C(SC2=CC=CC=C12)C(=O)N1CCC2=C(C1)C=C(S2)C(=O)NCC1=CC=C(C=C1)N1CC2(COC2)C1

>  <Batch Name>  (41) 
CTX-1020734-1

>  <Batch Created Date>  (41) 
2021-12-16

>  <Batch ID>  (41) 
CTX-1020734-1

>  <External ID>  (41) 
CD-44-2-O

>  <Stereochemistry>  (41) 
Achiral

>  <Amount 1>  (41) 
6.5

>  <Unit 1>  (41) 
mg

>  <CRO 1>  (41) 
Pharmaron

>  <CRO 1 Total Amount>  (41) 
22.1

>  <CRO 1 Unit>  (41) 
mg

>  <Pharmaron Solubility (PBS, pH 7.4): Aqueous Solubility - Batch Mean (uM)>  (41) 
0.0024

>  <Pharmaron Solubility (PBS, pH 7.4): Aqueous Solubility - Batch Mean (uM) Standard Deviation (±)>  (41) 


>  <Pharmaron Solubility (PBS, pH 7.4): Aqueous Solubility - Batch Mean (uM) Count>  (41) 
1.0

>  <log P>  (41) 
5.06

>  <log D>  (41) 
5.06

>  <Pharmaron Caliper Assay (CDK2/CCNE1): Minimum measured (%)>  (41) 
59.3

>  <Pharmaron Caliper Assay (CDK2/CCNE1): IC50 - Batch Mean (uM)>  (41) 
0.788

>  <Pharmaron ADPGLO (CDK2/E1-25C): Minimum measured (%)>  (41) 


>  <Pharmaron ADPGLO (CDK2/E1-25C): IC50 - Batch Mean (uM)>  (41) 


>  <Pharmaron ADPGLO (CDK2/E1-37C): Minimum measured (%)>  (41) 


>  <Pharmaron ADPGLO (CDK2/E1-37C): IC50 - Batch Mean (uM)>  (41) 


>  <IncuCyte Kuramochi RB-WT: IC50 - Batch Mean (uM)>  (41) 
20.0

>  <IncuCyte Kuramochi RB-KO: IC50 - Batch Mean (uM)>  (41) 
20.0

>  <DSF (npCDK2/CCNE1): dTm D - Batch Mean [Concentration: 100]>  (41) 


>  <DSF (npCDK2/CCNE1): dTm D - Batch Mean [Concentration: 20.0]>  (41) 
1.906

>  <DSF (pCDK2/CCNE1): dTm D - Batch Mean [Concentration: 100]>  (41) 


>  <DSF (pCDK2/CCNE1): dTm D - Batch Mean [Concentration: 20.0]>  (41) 


>  <RLM: t1/2 - Batch Mean (Min)>  (41) 


>  <RLM: Cl int - Batch Mean (uL/min/mg protein)>  (41) 


>  <RLM: ER (Hepatic extraction ratio) - Batch Mean>  (41) 


>  <HLM: t1/2 - Batch Mean (Min)>  (41) 


>  <HLM: Cl int - Batch Mean (uL/min/mg protein)>  (41) 


>  <HLM: ER (Hepatic extraction ratio) - Batch Mean>  (41) 


>  <MDCK-WT 4% BSA: Papp (A-B) - Batch Mean (10-6, cm/s)>  (41) 


>  <MDCK-WT 4% BSA: Papp (B-A) - Batch Mean (10-6, cm/s)>  (41) 


>  <MDCK-WT 4% BSA: Efflux Ratio - Batch Mean>  (41) 


>  <MDCK-WT 4% BSA: ~Net A_B - Batch Mean (10-6, cm/s)>  (41) 


>  <pIC50>  (41) 
6.103474

>  <Selection_1>  (41) 
Y

>  <Selection_N>  (41) 
N

>  <Serie>  (41) 
Tetrahydrothienopyridine

>  <Selection_T>  (41) 


>  <Train_Vs_Test>  (41) 


$$$$
CTX-1020733
     RDKit          2D

 31 35  0  0  0  0  0  0  0  0999 V2000
    7.4316   -5.4219    0.0000 Cl  0  0  0  0  0  0  0  0  0  0  0  0
    6.4535   -5.2140    0.0000 C   0  0  0  0  0  0  0  0  0  0  0  0
    6.0467   -4.3005    0.0000 C   0  0  0  0  0  0  0  0  0  0  0  0
    5.7103   -5.8831    0.0000 C   0  0  0  0  0  0  0  0  0  0  0  0
    5.0522   -4.4050    0.0000 S   0  0  0  0  0  0  0  0  0  0  0  0
    6.5467   -3.4344    0.0000 C   0  0  0  0  0  0  0  0  0  0  0  0
    4.8443   -5.3831    0.0000 C   0  0  0  0  0  0  0  0  0  0  0  0
    5.7103   -6.8831    0.0000 C   0  0  0  0  0  0  0  0  0  0  0  0
    7.5467   -3.4344    0.0000 O   0  0  0  0  0  0  0  0  0  0  0  0
    6.0467   -2.5684    0.0000 N   0  0  0  0  0  0  0  0  0  0  0  0
    3.9783   -5.8831    0.0000 C   0  0  0  0  0  0  0  0  0  0  0  0
    4.8443   -7.3831    0.0000 C   0  0  0  0  0  0  0  0  0  0  0  0
    5.0467   -2.5684    0.0000 C   0  0  0  0  0  0  0  0  0  0  0  0
    6.5467   -1.7024    0.0000 C   0  0  0  0  0  0  0  0  0  0  0  0
    3.9783   -6.8831    0.0000 C   0  0  0  0  0  0  0  0  0  0  0  0
    4.5467   -1.7024    0.0000 C   0  0  0  0  0  0  0  0  0  0  0  0
    6.0467   -0.8364    0.0000 C   0  0  0  0  0  0  0  0  0  0  0  0
    5.0467   -0.8364    0.0000 C   0  0  0  0  0  0  0  0  0  0  0  0
    3.5686   -1.4945    0.0000 C   0  0  0  0  0  0  0  0  0  0  0  0
    4.3776   -0.0932    0.0000 S   0  0  0  0  0  0  0  0  0  0  0  0
    3.4641   -0.5000    0.0000 C   0  0  0  0  0  0  0  0  0  0  0  0
    2.5980    0.0000    0.0000 C   0  0  0  0  0  0  0  0  0  0  0  0
    2.5980    1.0000    0.0000 O   0  0  0  0  0  0  0  0  0  0  0  0
    1.7320   -0.5000    0.0000 N   0  0  0  0  0  0  0  0  0  0  0  0
    0.8660    0.0000    0.0000 C   0  0  0  0  0  0  0  0  0  0  0  0
    0.0000   -0.5000    0.0000 C   0  0  0  0  0  0  0  0  0  0  0  0
   -0.8660    0.0000    0.0000 C   0  0  0  0  0  0  0  0  0  0  0  0
    0.0000   -1.4999    0.0000 C   0  0  0  0  0  0  0  0  0  0  0  0
   -1.7320   -0.4999    0.0000 C   0  0  0  0  0  0  0  0  0  0  0  0
   -0.8660   -1.9999    0.0000 C   0  0  0  0  0  0  0  0  0  0  0  0
   -1.7320   -1.4999    0.0000 N   0  0  0  0  0  0  0  0  0  0  0  0
  1  2  1  0
  2  3  2  0
  2  4  1  0
  3  5  1  0
  3  6  1  0
  4  7  2  0
  4  8  1  0
  6  9  2  0
  6 10  1  0
  7 11  1  0
  8 12  2  0
 10 13  1  0
 10 14  1  0
 11 15  2  0
 13 16  1  0
 14 17  1  0
 16 18  2  0
 16 19  1  0
 18 20  1  0
 19 21  2  0
 21 22  1  0
 22 23  2  0
 22 24  1  0
 24 25  1  0
 25 26  1  0
 26 27  2  0
 26 28  1  0
 27 29  1  0
 28 30  2  0
 29 31  2  0
  5  7  1  0
 12 15  1  0
 17 18  1  0
 20 21  1  0
 30 31  1  0
M  END
>  <Molecule Name>  (42) 
CTX-1020733

>  <SMILES>  (42) 
ClC1=C(SC2=CC=CC=C12)C(=O)N1CCC2=C(C1)C=C(S2)C(=O)NCC1=CC=NC=C1

>  <Batch Name>  (42) 
CTX-1020733-1

>  <Batch Created Date>  (42) 
2021-12-16

>  <Batch ID>  (42) 
CTX-1020733-1

>  <External ID>  (42) 
CD-44-2-M

>  <Stereochemistry>  (42) 
Achiral

>  <Amount 1>  (42) 
2.7

>  <Unit 1>  (42) 
mg

>  <CRO 1>  (42) 
Pharmaron

>  <CRO 1 Total Amount>  (42) 
18.1

>  <CRO 1 Unit>  (42) 
mg

>  <Pharmaron Solubility (PBS, pH 7.4): Aqueous Solubility - Batch Mean (uM)>  (42) 
0.408

>  <Pharmaron Solubility (PBS, pH 7.4): Aqueous Solubility - Batch Mean (uM) Standard Deviation (±)>  (42) 


>  <Pharmaron Solubility (PBS, pH 7.4): Aqueous Solubility - Batch Mean (uM) Count>  (42) 
1.0

>  <log P>  (42) 
4.27

>  <log D>  (42) 
4.27

>  <Pharmaron Caliper Assay (CDK2/CCNE1): Minimum measured (%)>  (42) 
68.7

>  <Pharmaron Caliper Assay (CDK2/CCNE1): IC50 - Batch Mean (uM)>  (42) 
5.36

>  <Pharmaron ADPGLO (CDK2/E1-25C): Minimum measured (%)>  (42) 


>  <Pharmaron ADPGLO (CDK2/E1-25C): IC50 - Batch Mean (uM)>  (42) 


>  <Pharmaron ADPGLO (CDK2/E1-37C): Minimum measured (%)>  (42) 


>  <Pharmaron ADPGLO (CDK2/E1-37C): IC50 - Batch Mean (uM)>  (42) 


>  <IncuCyte Kuramochi RB-WT: IC50 - Batch Mean (uM)>  (42) 


>  <IncuCyte Kuramochi RB-KO: IC50 - Batch Mean (uM)>  (42) 


>  <DSF (npCDK2/CCNE1): dTm D - Batch Mean [Concentration: 100]>  (42) 


>  <DSF (npCDK2/CCNE1): dTm D - Batch Mean [Concentration: 20.0]>  (42) 


>  <DSF (pCDK2/CCNE1): dTm D - Batch Mean [Concentration: 100]>  (42) 


>  <DSF (pCDK2/CCNE1): dTm D - Batch Mean [Concentration: 20.0]>  (42) 


>  <RLM: t1/2 - Batch Mean (Min)>  (42) 


>  <RLM: Cl int - Batch Mean (uL/min/mg protein)>  (42) 


>  <RLM: ER (Hepatic extraction ratio) - Batch Mean>  (42) 


>  <HLM: t1/2 - Batch Mean (Min)>  (42) 


>  <HLM: Cl int - Batch Mean (uL/min/mg protein)>  (42) 


>  <HLM: ER (Hepatic extraction ratio) - Batch Mean>  (42) 


>  <MDCK-WT 4% BSA: Papp (A-B) - Batch Mean (10-6, cm/s)>  (42) 


>  <MDCK-WT 4% BSA: Papp (B-A) - Batch Mean (10-6, cm/s)>  (42) 


>  <MDCK-WT 4% BSA: Efflux Ratio - Batch Mean>  (42) 


>  <MDCK-WT 4% BSA: ~Net A_B - Batch Mean (10-6, cm/s)>  (42) 


>  <pIC50>  (42) 
5.270835

>  <Selection_1>  (42) 
Y

>  <Selection_N>  (42) 
N

>  <Serie>  (42) 
Tetrahydrothienopyridine

>  <Selection_T>  (42) 


>  <Train_Vs_Test>  (42) 


$$$$
CTX-1020732
     RDKit          2D

 38 43  0  0  0  0  0  0  0  0999 V2000
   11.1474   -8.1329    0.0000 Cl  0  0  0  0  0  0  0  0  0  0  0  0
    9.6802   -7.8210    0.0000 C   0  0  0  0  0  0  0  0  0  0  0  0
    9.0701   -6.4507    0.0000 C   0  0  0  0  0  0  0  0  0  0  0  0
    8.5655   -8.8247    0.0000 C   0  0  0  0  0  0  0  0  0  0  0  0
    7.5783   -6.6075    0.0000 S   0  0  0  0  0  0  0  0  0  0  0  0
    9.8201   -5.1517    0.0000 C   0  0  0  0  0  0  0  0  0  0  0  0
    7.2665   -8.0747    0.0000 C   0  0  0  0  0  0  0  0  0  0  0  0
    8.5655  -10.3247    0.0000 C   0  0  0  0  0  0  0  0  0  0  0  0
   11.3201   -5.1517    0.0000 O   0  0  0  0  0  0  0  0  0  0  0  0
    9.0701   -3.8526    0.0000 N   0  0  0  0  0  0  0  0  0  0  0  0
    5.9674   -8.8247    0.0000 N   0  0  0  0  0  0  0  0  0  0  0  0
    7.2665  -11.0747    0.0000 C   0  0  0  0  0  0  0  0  0  0  0  0
    7.5701   -3.8526    0.0000 C   0  0  0  0  0  0  0  0  0  0  0  0
    9.8201   -2.5536    0.0000 C   0  0  0  0  0  0  0  0  0  0  0  0
    5.9674  -10.3247    0.0000 C   0  0  0  0  0  0  0  0  0  0  0  0
    6.8201   -2.5536    0.0000 C   0  0  0  0  0  0  0  0  0  0  0  0
    9.0701   -1.2546    0.0000 C   0  0  0  0  0  0  0  0  0  0  0  0
    7.5701   -1.2546    0.0000 C   0  0  0  0  0  0  0  0  0  0  0  0
    5.3529   -2.2417    0.0000 C   0  0  0  0  0  0  0  0  0  0  0  0
    6.5664   -0.1398    0.0000 S   0  0  0  0  0  0  0  0  0  0  0  0
    5.1961   -0.7500    0.0000 C   0  0  0  0  0  0  0  0  0  0  0  0
    3.8971    0.0000    0.0000 C   0  0  0  0  0  0  0  0  0  0  0  0
    3.8971    1.5000    0.0000 O   0  0  0  0  0  0  0  0  0  0  0  0
    2.5980   -0.7500    0.0000 N   0  0  0  0  0  0  0  0  0  0  0  0
    1.2990    0.0000    0.0000 C   0  0  0  0  0  0  0  0  0  0  0  0
    0.0000   -0.7500    0.0000 C   0  0  0  0  0  0  0  0  0  0  0  0
   -1.2990    0.0000    0.0000 C   0  0  0  0  0  0  0  0  0  0  0  0
    0.0000   -2.2499    0.0000 C   0  0  0  0  0  0  0  0  0  0  0  0
   -2.5980   -0.7499    0.0000 C   0  0  0  0  0  0  0  0  0  0  0  0
   -1.2990   -2.9999    0.0000 C   0  0  0  0  0  0  0  0  0  0  0  0
   -2.5980   -2.2499    0.0000 C   0  0  0  0  0  0  0  0  0  0  0  0
   -3.8971   -2.9999    0.0000 N   0  0  0  0  0  0  0  0  0  0  0  0
   -5.1961   -2.2499    0.0000 C   0  0  0  0  0  0  0  0  0  0  0  0
   -3.8971   -4.4999    0.0000 C   0  0  0  0  0  0  0  0  0  0  0  0
   -6.4951   -2.9999    0.0000 C   0  0  0  0  0  0  0  0  0  0  0  0
   -5.1961   -5.2499    0.0000 C   0  0  0  0  0  0  0  0  0  0  0  0
   -6.4951   -4.4999    0.0000 N   0  0  0  0  0  0  0  0  0  0  0  0
   -7.7942   -5.2499    0.0000 C   0  0  0  0  0  0  0  0  0  0  0  0
  1  2  1  0
  2  3  2  0
  2  4  1  0
  3  5  1  0
  3  6  1  0
  4  7  2  0
  4  8  1  0
  6  9  2  0
  6 10  1  0
  7 11  1  0
  8 12  2  0
 10 13  1  0
 10 14  1  0
 11 15  2  0
 13 16  1  0
 14 17  1  0
 16 18  2  0
 16 19  1  0
 18 20  1  0
 19 21  2  0
 21 22  1  0
 22 23  2  0
 22 24  1  0
 24 25  1  0
 25 26  1  0
 26 27  2  0
 26 28  1  0
 27 29  1  0
 28 30  2  0
 29 31  2  0
 31 32  1  0
 32 33  1  0
 32 34  1  0
 33 35  1  0
 34 36  1  0
 35 37  1  0
 37 38  1  0
  5  7  1  0
 12 15  1  0
 17 18  1  0
 20 21  1  0
 30 31  1  0
 36 37  1  0
M  END
>  <Molecule Name>  (43) 
CTX-1020732

>  <SMILES>  (43) 
CN1CCN(CC1)C1=CC=C(CNC(=O)C2=CC3=C(CCN(C3)C(=O)C3=C(Cl)C4=CC=CN=C4S3)S2)C=C1

>  <Batch Name>  (43) 
CTX-1020732-1

>  <Batch Created Date>  (43) 
2021-12-16

>  <Batch ID>  (43) 
CTX-1020732-1

>  <External ID>  (43) 
CD-44-2-I

>  <Stereochemistry>  (43) 
Achiral

>  <Amount 1>  (43) 
18.9

>  <Unit 1>  (43) 
mg

>  <CRO 1>  (43) 
Pharmaron

>  <CRO 1 Total Amount>  (43) 
32.2

>  <CRO 1 Unit>  (43) 
mg

>  <Pharmaron Solubility (PBS, pH 7.4): Aqueous Solubility - Batch Mean (uM)>  (43) 
26.0789

>  <Pharmaron Solubility (PBS, pH 7.4): Aqueous Solubility - Batch Mean (uM) Standard Deviation (±)>  (43) 


>  <Pharmaron Solubility (PBS, pH 7.4): Aqueous Solubility - Batch Mean (uM) Count>  (43) 
1.0

>  <log P>  (43) 
4.6

>  <log D>  (43) 
3.96

>  <Pharmaron Caliper Assay (CDK2/CCNE1): Minimum measured (%)>  (43) 
32.8

>  <Pharmaron Caliper Assay (CDK2/CCNE1): IC50 - Batch Mean (uM)>  (43) 
9.29

>  <Pharmaron ADPGLO (CDK2/E1-25C): Minimum measured (%)>  (43) 


>  <Pharmaron ADPGLO (CDK2/E1-25C): IC50 - Batch Mean (uM)>  (43) 


>  <Pharmaron ADPGLO (CDK2/E1-37C): Minimum measured (%)>  (43) 


>  <Pharmaron ADPGLO (CDK2/E1-37C): IC50 - Batch Mean (uM)>  (43) 


>  <IncuCyte Kuramochi RB-WT: IC50 - Batch Mean (uM)>  (43) 
8.08

>  <IncuCyte Kuramochi RB-KO: IC50 - Batch Mean (uM)>  (43) 
11.6

>  <DSF (npCDK2/CCNE1): dTm D - Batch Mean [Concentration: 100]>  (43) 


>  <DSF (npCDK2/CCNE1): dTm D - Batch Mean [Concentration: 20.0]>  (43) 
1.07

>  <DSF (pCDK2/CCNE1): dTm D - Batch Mean [Concentration: 100]>  (43) 


>  <DSF (pCDK2/CCNE1): dTm D - Batch Mean [Concentration: 20.0]>  (43) 


>  <RLM: t1/2 - Batch Mean (Min)>  (43) 


>  <RLM: Cl int - Batch Mean (uL/min/mg protein)>  (43) 


>  <RLM: ER (Hepatic extraction ratio) - Batch Mean>  (43) 


>  <HLM: t1/2 - Batch Mean (Min)>  (43) 


>  <HLM: Cl int - Batch Mean (uL/min/mg protein)>  (43) 


>  <HLM: ER (Hepatic extraction ratio) - Batch Mean>  (43) 


>  <MDCK-WT 4% BSA: Papp (A-B) - Batch Mean (10-6, cm/s)>  (43) 


>  <MDCK-WT 4% BSA: Papp (B-A) - Batch Mean (10-6, cm/s)>  (43) 


>  <MDCK-WT 4% BSA: Efflux Ratio - Batch Mean>  (43) 


>  <MDCK-WT 4% BSA: ~Net A_B - Batch Mean (10-6, cm/s)>  (43) 


>  <pIC50>  (43) 
5.031984

>  <Selection_1>  (43) 
Y

>  <Selection_N>  (43) 
N

>  <Serie>  (43) 
Tetrahydrothienopyridine

>  <Selection_T>  (43) 


>  <Train_Vs_Test>  (43) 


$$$$
CTX-1020726
     RDKit          2D

 34 39  0  0  0  0  0  0  0  0999 V2000
    3.8971    0.0000    0.0000 O   0  0  0  0  0  0  0  0  0  0  0  0
    2.5980   -0.7500    0.0000 C   0  0  0  0  0  0  0  0  0  0  0  0
    1.2990    0.0000    0.0000 N   0  0  0  0  0  0  0  0  0  0  0  0
    2.5980   -2.2500    0.0000 C   0  0  0  0  0  0  0  0  0  0  0  0
    0.0000   -0.7500    0.0000 C   0  0  0  0  0  0  0  0  0  0  0  0
    1.2990   -3.0000    0.0000 N   0  0  0  0  0  0  0  0  0  0  0  0
    3.8971   -3.0000    0.0000 C   0  0  0  0  0  0  0  0  0  0  0  0
   -1.3703   -0.1398    0.0000 C   0  0  0  0  0  0  0  0  0  0  0  0
   -0.1567   -2.2417    0.0000 C   0  0  0  0  0  0  0  0  0  0  0  0
    1.2990   -4.5000    0.0000 C   0  0  0  0  0  0  0  0  0  0  0  0
    3.8971   -4.5000    0.0000 C   0  0  0  0  0  0  0  0  0  0  0  0
   -2.3740   -1.2546    0.0000 N   0  0  0  0  0  0  0  0  0  0  0  0
   -1.8338    1.2866    0.0000 C   0  0  0  0  0  0  0  0  0  0  0  0
   -1.6240   -2.5536    0.0000 N   0  0  0  0  0  0  0  0  0  0  0  0
    2.5980   -5.2500    0.0000 C   0  0  0  0  0  0  0  0  0  0  0  0
    0.0000   -5.2500    0.0000 C   0  0  0  0  0  0  0  0  0  0  0  0
   -3.8412   -0.9427    0.0000 C   0  0  0  0  0  0  0  0  0  0  0  0
   -3.3010    1.5985    0.0000 C   0  0  0  0  0  0  0  0  0  0  0  0
    2.5980   -6.7500    0.0000 C   0  0  0  0  0  0  0  0  0  0  0  0
    0.0000   -6.7500    0.0000 N   0  0  0  0  0  0  0  0  0  0  0  0
   -4.3047    0.4838    0.0000 C   0  0  0  0  0  0  0  0  0  0  0  0
    1.2990   -7.5000    0.0000 C   0  0  0  0  0  0  0  0  0  0  0  0
   -1.2990   -7.5000    0.0000 C   0  0  0  0  0  0  0  0  0  0  0  0
   -2.5980   -6.7500    0.0000 O   0  0  0  0  0  0  0  0  0  0  0  0
   -1.2990   -9.0000    0.0000 C   0  0  0  0  0  0  0  0  0  0  0  0
   -2.5125   -9.8816    0.0000 O   0  0  0  0  0  0  0  0  0  0  0  0
   -0.0855   -9.8816    0.0000 C   0  0  0  0  0  0  0  0  0  0  0  0
   -2.0490  -11.3082    0.0000 C   0  0  0  0  0  0  0  0  0  0  0  0
   -0.5490  -11.3082    0.0000 C   0  0  0  0  0  0  0  0  0  0  0  0
    1.3410   -9.4181    0.0000 C   0  0  0  0  0  0  0  0  0  0  0  0
   -2.7990  -12.6073    0.0000 C   0  0  0  0  0  0  0  0  0  0  0  0
    0.2009  -12.6073    0.0000 C   0  0  0  0  0  0  0  0  0  0  0  0
   -2.0490  -13.9063    0.0000 C   0  0  0  0  0  0  0  0  0  0  0  0
   -0.5490  -13.9063    0.0000 C   0  0  0  0  0  0  0  0  0  0  0  0
  1  2  2  0
  2  3  1  0
  2  4  1  0
  3  5  1  0
  4  6  2  0
  4  7  1  0
  5  8  2  0
  5  9  1  0
  6 10  1  0
  7 11  2  0
  8 12  1  0
  8 13  1  0
  9 14  2  0
 10 15  2  0
 10 16  1  0
 12 17  1  0
 13 18  2  0
 15 19  1  0
 16 20  1  0
 17 21  2  0
 19 22  1  0
 20 23  1  0
 23 24  2  0
 23 25  1  0
 25 26  1  0
 25 27  2  0
 26 28  1  0
 27 29  1  0
 27 30  1  0
 28 31  2  0
 29 32  2  0
 31 33  1  0
 32 34  1  0
 11 15  1  0
 12 14  1  0
 18 21  1  0
 20 22  1  0
 28 29  1  0
 33 34  2  0
M  END
>  <Molecule Name>  (44) 
CTX-1020726

>  <SMILES>  (44) 
CC1=C(OC2=C1C=CC=C2)C(=O)N1CCC2=CC=C(N=C2C1)C(=O)NC1=C2C=CC=CN2N=C1

>  <Batch Name>  (44) 
CTX-1020726-1

>  <Batch Created Date>  (44) 
2021-12-16

>  <Batch ID>  (44) 
CTX-1020726-1

>  <External ID>  (44) 
CD-42-E

>  <Stereochemistry>  (44) 
Achiral

>  <Amount 1>  (44) 
3.3

>  <Unit 1>  (44) 
mg

>  <CRO 1>  (44) 
Pharmaron

>  <CRO 1 Total Amount>  (44) 
17.6

>  <CRO 1 Unit>  (44) 
mg

>  <Pharmaron Solubility (PBS, pH 7.4): Aqueous Solubility - Batch Mean (uM)>  (44) 
0.0286

>  <Pharmaron Solubility (PBS, pH 7.4): Aqueous Solubility - Batch Mean (uM) Standard Deviation (±)>  (44) 


>  <Pharmaron Solubility (PBS, pH 7.4): Aqueous Solubility - Batch Mean (uM) Count>  (44) 
1.0

>  <log P>  (44) 
3.5

>  <log D>  (44) 
3.5

>  <Pharmaron Caliper Assay (CDK2/CCNE1): Minimum measured (%)>  (44) 
73.5

>  <Pharmaron Caliper Assay (CDK2/CCNE1): IC50 - Batch Mean (uM)>  (44) 
81.6

>  <Pharmaron ADPGLO (CDK2/E1-25C): Minimum measured (%)>  (44) 


>  <Pharmaron ADPGLO (CDK2/E1-25C): IC50 - Batch Mean (uM)>  (44) 


>  <Pharmaron ADPGLO (CDK2/E1-37C): Minimum measured (%)>  (44) 


>  <Pharmaron ADPGLO (CDK2/E1-37C): IC50 - Batch Mean (uM)>  (44) 


>  <IncuCyte Kuramochi RB-WT: IC50 - Batch Mean (uM)>  (44) 
20.0

>  <IncuCyte Kuramochi RB-KO: IC50 - Batch Mean (uM)>  (44) 
20.0

>  <DSF (npCDK2/CCNE1): dTm D - Batch Mean [Concentration: 100]>  (44) 


>  <DSF (npCDK2/CCNE1): dTm D - Batch Mean [Concentration: 20.0]>  (44) 
-0.033

>  <DSF (pCDK2/CCNE1): dTm D - Batch Mean [Concentration: 100]>  (44) 


>  <DSF (pCDK2/CCNE1): dTm D - Batch Mean [Concentration: 20.0]>  (44) 


>  <RLM: t1/2 - Batch Mean (Min)>  (44) 


>  <RLM: Cl int - Batch Mean (uL/min/mg protein)>  (44) 


>  <RLM: ER (Hepatic extraction ratio) - Batch Mean>  (44) 


>  <HLM: t1/2 - Batch Mean (Min)>  (44) 


>  <HLM: Cl int - Batch Mean (uL/min/mg protein)>  (44) 


>  <HLM: ER (Hepatic extraction ratio) - Batch Mean>  (44) 


>  <MDCK-WT 4% BSA: Papp (A-B) - Batch Mean (10-6, cm/s)>  (44) 


>  <MDCK-WT 4% BSA: Papp (B-A) - Batch Mean (10-6, cm/s)>  (44) 


>  <MDCK-WT 4% BSA: Efflux Ratio - Batch Mean>  (44) 


>  <MDCK-WT 4% BSA: ~Net A_B - Batch Mean (10-6, cm/s)>  (44) 


>  <pIC50>  (44) 
4.08831

>  <Selection_1>  (44) 
Y

>  <Selection_N>  (44) 
Y

>  <Serie>  (44) 
Naphthyridine

>  <Selection_T>  (44) 
N

>  <Train_Vs_Test>  (44) 


$$$$
CTX-1020699
     RDKit          2D

  0  0  0  0  0  0  0  0  0  0999 V3000
M  V30 BEGIN CTAB
M  V30 COUNTS 35 40 0 0 0
M  V30 BEGIN ATOM
M  V30 1 O 2.598000 0.000000 0.000000 0
M  V30 2 C 1.732000 -0.500000 0.000000 0
M  V30 3 N 0.866000 0.000000 0.000000 0
M  V30 4 C 1.732000 -1.500000 0.000000 0
M  V30 5 C 0.000000 -0.500000 0.000000 0
M  V30 6 N 0.866000 -2.000000 0.000000 0
M  V30 7 C 2.598000 -2.000000 0.000000 0
M  V30 8 C -0.866000 0.000000 0.000000 0
M  V30 9 C 0.000000 -1.499900 0.000000 0
M  V30 10 C 0.866000 -3.000000 0.000000 0
M  V30 11 C 2.598000 -2.999900 0.000000 0
M  V30 12 C -1.732000 -0.499900 0.000000 0
M  V30 13 C -0.866000 1.000000 0.000000 0
M  V30 14 C -0.866000 -1.999900 0.000000 0
M  V30 15 C 1.732000 -3.500000 0.000000 0
M  V30 16 C 0.000000 -3.500000 0.000000 0
M  V30 17 C -2.598000 0.000000 0.000000 0
M  V30 18 C -1.732000 -1.499900 0.000000 0
M  V30 19 C -1.732000 1.500000 0.000000 0
M  V30 20 C 1.732000 -4.500000 0.000000 0
M  V30 21 N 0.000000 -4.500000 0.000000 0
M  V30 22 C -2.598000 1.000000 0.000000 0
M  V30 23 C 0.866000 -5.000000 0.000000 0
M  V30 24 C -0.866000 -5.000000 0.000000 0
M  V30 25 O -1.732000 -4.500000 0.000000 0
M  V30 26 C -0.866000 -6.000000 0.000000 0
M  V30 27 O -1.675000 -6.587700 0.000000 0
M  V30 28 C -0.057000 -6.587700 0.000000 0
M  V30 29 C -1.366000 -7.538800 0.000000 0
M  V30 30 C -0.366000 -7.538800 0.000000 0
M  V30 31 C 0.894000 -6.278700 0.000000 0
M  V30 32 C -1.866000 -8.404800 0.000000 0
M  V30 33 C 0.133900 -8.404800 0.000000 0
M  V30 34 C -1.366000 -9.270800 0.000000 0
M  V30 35 C -0.366000 -9.270800 0.000000 0
M  V30 END ATOM
M  V30 BEGIN BOND
M  V30 1 2 1 2
M  V30 2 1 2 3
M  V30 3 1 2 4
M  V30 4 1 5 3 CFG=1
M  V30 5 2 4 6
M  V30 6 1 4 7
M  V30 7 1 5 8
M  V30 8 1 5 9
M  V30 9 1 6 10
M  V30 10 2 7 11
M  V30 11 2 8 12
M  V30 12 1 8 13
M  V30 13 1 9 14
M  V30 14 2 10 15
M  V30 15 1 10 16
M  V30 16 1 12 17
M  V30 17 1 12 18
M  V30 18 2 13 19
M  V30 19 1 15 20
M  V30 20 1 16 21
M  V30 21 2 17 22
M  V30 22 1 20 23
M  V30 23 1 21 24
M  V30 24 2 24 25
M  V30 25 1 24 26
M  V30 26 1 26 27
M  V30 27 2 26 28
M  V30 28 1 27 29
M  V30 29 1 28 30
M  V30 30 1 28 31
M  V30 31 2 29 32
M  V30 32 2 30 33
M  V30 33 1 32 34
M  V30 34 1 33 35
M  V30 35 1 11 15
M  V30 36 1 14 18
M  V30 37 1 19 22
M  V30 38 1 21 23
M  V30 39 1 29 30
M  V30 40 2 34 35
M  V30 END BOND
M  V30 BEGIN COLLECTION
M  V30 MDLV30/STERAC1 ATOMS=(1 5)
M  V30 END COLLECTION
M  V30 END CTAB
M  END
>  <Molecule Name>  (45) 
CTX-1020699

>  <SMILES>  (45) 
CC1=C(OC2=C1C=CC=C2)C(=O)N1CCC2=CC=C(N=C2C1)C(=O)NC1CCCC2=C1C=CC=C2

>  <Batch Name>  (45) 
CTX-1020699-1

>  <Batch Created Date>  (45) 
2021-12-09

>  <Batch ID>  (45) 
CTX-1020699-1

>  <External ID>  (45) 
CD-42-G

>  <Stereochemistry>  (45) 
Racemic or presumed racemic

>  <Amount 1>  (45) 
2.3

>  <Unit 1>  (45) 
mg

>  <CRO 1>  (45) 
Pharmaron

>  <CRO 1 Total Amount>  (45) 
15.7

>  <CRO 1 Unit>  (45) 
mg

>  <Pharmaron Solubility (PBS, pH 7.4): Aqueous Solubility - Batch Mean (uM)>  (45) 
0.0006

>  <Pharmaron Solubility (PBS, pH 7.4): Aqueous Solubility - Batch Mean (uM) Standard Deviation (±)>  (45) 


>  <Pharmaron Solubility (PBS, pH 7.4): Aqueous Solubility - Batch Mean (uM) Count>  (45) 
1.0

>  <log P>  (45) 
4.67

>  <log D>  (45) 
4.67

>  <Pharmaron Caliper Assay (CDK2/CCNE1): Minimum measured (%)>  (45) 
77.3

>  <Pharmaron Caliper Assay (CDK2/CCNE1): IC50 - Batch Mean (uM)>  (45) 
19.0

>  <Pharmaron ADPGLO (CDK2/E1-25C): Minimum measured (%)>  (45) 


>  <Pharmaron ADPGLO (CDK2/E1-25C): IC50 - Batch Mean (uM)>  (45) 


>  <Pharmaron ADPGLO (CDK2/E1-37C): Minimum measured (%)>  (45) 


>  <Pharmaron ADPGLO (CDK2/E1-37C): IC50 - Batch Mean (uM)>  (45) 


>  <IncuCyte Kuramochi RB-WT: IC50 - Batch Mean (uM)>  (45) 
20.0

>  <IncuCyte Kuramochi RB-KO: IC50 - Batch Mean (uM)>  (45) 
20.0

>  <DSF (npCDK2/CCNE1): dTm D - Batch Mean [Concentration: 100]>  (45) 


>  <DSF (npCDK2/CCNE1): dTm D - Batch Mean [Concentration: 20.0]>  (45) 
-1.14

>  <DSF (pCDK2/CCNE1): dTm D - Batch Mean [Concentration: 100]>  (45) 


>  <DSF (pCDK2/CCNE1): dTm D - Batch Mean [Concentration: 20.0]>  (45) 
-0.207

>  <RLM: t1/2 - Batch Mean (Min)>  (45) 


>  <RLM: Cl int - Batch Mean (uL/min/mg protein)>  (45) 


>  <RLM: ER (Hepatic extraction ratio) - Batch Mean>  (45) 


>  <HLM: t1/2 - Batch Mean (Min)>  (45) 


>  <HLM: Cl int - Batch Mean (uL/min/mg protein)>  (45) 


>  <HLM: ER (Hepatic extraction ratio) - Batch Mean>  (45) 


>  <MDCK-WT 4% BSA: Papp (A-B) - Batch Mean (10-6, cm/s)>  (45) 


>  <MDCK-WT 4% BSA: Papp (B-A) - Batch Mean (10-6, cm/s)>  (45) 


>  <MDCK-WT 4% BSA: Efflux Ratio - Batch Mean>  (45) 


>  <MDCK-WT 4% BSA: ~Net A_B - Batch Mean (10-6, cm/s)>  (45) 


>  <pIC50>  (45) 
4.721246

>  <Selection_1>  (45) 
Y

>  <Selection_N>  (45) 


>  <Serie>  (45) 
Naphthyridine

>  <Selection_T>  (45) 
N

>  <Train_Vs_Test>  (45) 


$$$$
CTX-1020698
     RDKit          2D

 38 43  0  0  0  0  0  0  0  0999 V2000
    5.1961   -0.7500    0.0000 O   0  0  0  0  0  0  0  0  0  0  0  0
    3.8971    0.0000    0.0000 C   0  0  0  0  0  0  0  0  0  0  0  0
    2.5980   -0.7500    0.0000 N   0  0  0  0  0  0  0  0  0  0  0  0
    3.8971    1.5000    0.0000 C   0  0  0  0  0  0  0  0  0  0  0  0
    1.2990    0.0000    0.0000 C   0  0  0  0  0  0  0  0  0  0  0  0
    5.1961    2.2500    0.0000 N   0  0  0  0  0  0  0  0  0  0  0  0
    2.5980    2.2500    0.0000 C   0  0  0  0  0  0  0  0  0  0  0  0
    0.0000   -0.7500    0.0000 C   0  0  0  0  0  0  0  0  0  0  0  0
    5.1961    3.7500    0.0000 C   0  0  0  0  0  0  0  0  0  0  0  0
    2.5980    3.7500    0.0000 C   0  0  0  0  0  0  0  0  0  0  0  0
   -1.2990    0.0000    0.0000 C   0  0  0  0  0  0  0  0  0  0  0  0
    0.0000   -2.2499    0.0000 C   0  0  0  0  0  0  0  0  0  0  0  0
    3.8971    4.5000    0.0000 C   0  0  0  0  0  0  0  0  0  0  0  0
    6.4951    4.5000    0.0000 C   0  0  0  0  0  0  0  0  0  0  0  0
   -2.5980   -0.7499    0.0000 C   0  0  0  0  0  0  0  0  0  0  0  0
   -1.2990   -2.9999    0.0000 C   0  0  0  0  0  0  0  0  0  0  0  0
    3.8971    6.0000    0.0000 C   0  0  0  0  0  0  0  0  0  0  0  0
    6.4951    6.0000    0.0000 N   0  0  0  0  0  0  0  0  0  0  0  0
   -2.5980   -2.2499    0.0000 C   0  0  0  0  0  0  0  0  0  0  0  0
    5.1961    6.7500    0.0000 C   0  0  0  0  0  0  0  0  0  0  0  0
    7.7942    6.7500    0.0000 C   0  0  0  0  0  0  0  0  0  0  0  0
   -3.8971   -2.9999    0.0000 C   0  0  0  0  0  0  0  0  0  0  0  0
    9.0932    6.0000    0.0000 O   0  0  0  0  0  0  0  0  0  0  0  0
    7.7942    8.2500    0.0000 C   0  0  0  0  0  0  0  0  0  0  0  0
   -5.1961   -2.2499    0.0000 C   0  0  0  0  0  0  0  0  0  0  0  0
   -3.8971   -4.4999    0.0000 C   0  0  0  0  0  0  0  0  0  0  0  0
    9.0077    9.1316    0.0000 O   0  0  0  0  0  0  0  0  0  0  0  0
    6.5807    9.1316    0.0000 C   0  0  0  0  0  0  0  0  0  0  0  0
   -6.4951   -2.9999    0.0000 C   0  0  0  0  0  0  0  0  0  0  0  0
   -5.1961   -5.2499    0.0000 C   0  0  0  0  0  0  0  0  0  0  0  0
    8.5442   10.5582    0.0000 C   0  0  0  0  0  0  0  0  0  0  0  0
    7.0442   10.5582    0.0000 C   0  0  0  0  0  0  0  0  0  0  0  0
    5.1541    8.6681    0.0000 C   0  0  0  0  0  0  0  0  0  0  0  0
   -6.4951   -4.4999    0.0000 N   0  0  0  0  0  0  0  0  0  0  0  0
    9.2942   11.8573    0.0000 C   0  0  0  0  0  0  0  0  0  0  0  0
    6.2942   11.8573    0.0000 C   0  0  0  0  0  0  0  0  0  0  0  0
    8.5442   13.1563    0.0000 C   0  0  0  0  0  0  0  0  0  0  0  0
    7.0442   13.1563    0.0000 C   0  0  0  0  0  0  0  0  0  0  0  0
  1  2  2  0
  2  3  1  0
  2  4  1  0
  3  5  1  0
  4  6  2  0
  4  7  1  0
  5  8  1  0
  6  9  1  0
  7 10  2  0
  8 11  2  0
  8 12  1  0
  9 13  2  0
  9 14  1  0
 11 15  1  0
 12 16  2  0
 13 17  1  0
 14 18  1  0
 15 19  2  0
 17 20  1  0
 18 21  1  0
 19 22  1  0
 21 23  2  0
 21 24  1  0
 22 25  2  0
 22 26  1  0
 24 27  1  0
 24 28  2  0
 25 29  1  0
 26 30  2  0
 27 31  1  0
 28 32  1  0
 28 33  1  0
 29 34  2  0
 31 35  2  0
 32 36  2  0
 35 37  1  0
 36 38  1  0
 10 13  1  0
 16 19  1  0
 18 20  1  0
 30 34  1  0
 31 32  1  0
 37 38  2  0
M  END
>  <Molecule Name>  (46) 
CTX-1020698

>  <SMILES>  (46) 
CC1=C(OC2=C1C=CC=C2)C(=O)N1CCC2=CC=C(N=C2C1)C(=O)NCC1=CC=C(C=C1)C1=CC=NC=C1

>  <Batch Name>  (46) 
CTX-1020698-1

>  <Batch Created Date>  (46) 
2021-12-09

>  <Batch ID>  (46) 
CTX-1020698-1

>  <External ID>  (46) 
CD-42-D

>  <Stereochemistry>  (46) 
Achiral

>  <Amount 1>  (46) 
2.5

>  <Unit 1>  (46) 
mg

>  <CRO 1>  (46) 
Pharmaron

>  <CRO 1 Total Amount>  (46) 
19.2

>  <CRO 1 Unit>  (46) 
mg

>  <Pharmaron Solubility (PBS, pH 7.4): Aqueous Solubility - Batch Mean (uM)>  (46) 


>  <Pharmaron Solubility (PBS, pH 7.4): Aqueous Solubility - Batch Mean (uM) Standard Deviation (±)>  (46) 


>  <Pharmaron Solubility (PBS, pH 7.4): Aqueous Solubility - Batch Mean (uM) Count>  (46) 


>  <log P>  (46) 
4.11

>  <log D>  (46) 
4.1

>  <Pharmaron Caliper Assay (CDK2/CCNE1): Minimum measured (%)>  (46) 
39.5

>  <Pharmaron Caliper Assay (CDK2/CCNE1): IC50 - Batch Mean (uM)>  (46) 
1.11

>  <Pharmaron ADPGLO (CDK2/E1-25C): Minimum measured (%)>  (46) 


>  <Pharmaron ADPGLO (CDK2/E1-25C): IC50 - Batch Mean (uM)>  (46) 


>  <Pharmaron ADPGLO (CDK2/E1-37C): Minimum measured (%)>  (46) 


>  <Pharmaron ADPGLO (CDK2/E1-37C): IC50 - Batch Mean (uM)>  (46) 


>  <IncuCyte Kuramochi RB-WT: IC50 - Batch Mean (uM)>  (46) 
20.0

>  <IncuCyte Kuramochi RB-KO: IC50 - Batch Mean (uM)>  (46) 
8.64

>  <DSF (npCDK2/CCNE1): dTm D - Batch Mean [Concentration: 100]>  (46) 


>  <DSF (npCDK2/CCNE1): dTm D - Batch Mean [Concentration: 20.0]>  (46) 
1.097

>  <DSF (pCDK2/CCNE1): dTm D - Batch Mean [Concentration: 100]>  (46) 


>  <DSF (pCDK2/CCNE1): dTm D - Batch Mean [Concentration: 20.0]>  (46) 
0.226

>  <RLM: t1/2 - Batch Mean (Min)>  (46) 
24.7

>  <RLM: Cl int - Batch Mean (uL/min/mg protein)>  (46) 
56.42

>  <RLM: ER (Hepatic extraction ratio) - Batch Mean>  (46) 
0.669

>  <HLM: t1/2 - Batch Mean (Min)>  (46) 
5.33

>  <HLM: Cl int - Batch Mean (uL/min/mg protein)>  (46) 
259.89

>  <HLM: ER (Hepatic extraction ratio) - Batch Mean>  (46) 
0.927

>  <MDCK-WT 4% BSA: Papp (A-B) - Batch Mean (10-6, cm/s)>  (46) 


>  <MDCK-WT 4% BSA: Papp (B-A) - Batch Mean (10-6, cm/s)>  (46) 


>  <MDCK-WT 4% BSA: Efflux Ratio - Batch Mean>  (46) 


>  <MDCK-WT 4% BSA: ~Net A_B - Batch Mean (10-6, cm/s)>  (46) 


>  <pIC50>  (46) 
5.954677

>  <Selection_1>  (46) 
Y

>  <Selection_N>  (46) 


>  <Serie>  (46) 
Naphthyridine

>  <Selection_T>  (46) 
N

>  <Train_Vs_Test>  (46) 


$$$$
CTX-1020697
     RDKit          2D

 39 44  0  0  0  0  0  0  0  0999 V2000
    5.1961   -0.7500    0.0000 O   0  0  0  0  0  0  0  0  0  0  0  0
    3.8971    0.0000    0.0000 C   0  0  0  0  0  0  0  0  0  0  0  0
    2.5980   -0.7500    0.0000 N   0  0  0  0  0  0  0  0  0  0  0  0
    3.8971    1.5000    0.0000 C   0  0  0  0  0  0  0  0  0  0  0  0
    1.2990    0.0000    0.0000 C   0  0  0  0  0  0  0  0  0  0  0  0
    5.1961    2.2500    0.0000 N   0  0  0  0  0  0  0  0  0  0  0  0
    2.5980    2.2500    0.0000 C   0  0  0  0  0  0  0  0  0  0  0  0
    0.0000   -0.7500    0.0000 C   0  0  0  0  0  0  0  0  0  0  0  0
    5.1961    3.7500    0.0000 C   0  0  0  0  0  0  0  0  0  0  0  0
    2.5980    3.7500    0.0000 C   0  0  0  0  0  0  0  0  0  0  0  0
   -1.2990    0.0000    0.0000 C   0  0  0  0  0  0  0  0  0  0  0  0
    0.0000   -2.2499    0.0000 C   0  0  0  0  0  0  0  0  0  0  0  0
    3.8971    4.5000    0.0000 C   0  0  0  0  0  0  0  0  0  0  0  0
    6.4951    4.5000    0.0000 C   0  0  0  0  0  0  0  0  0  0  0  0
   -2.5980   -0.7499    0.0000 C   0  0  0  0  0  0  0  0  0  0  0  0
   -1.2990   -2.9999    0.0000 C   0  0  0  0  0  0  0  0  0  0  0  0
    3.8971    6.0000    0.0000 C   0  0  0  0  0  0  0  0  0  0  0  0
    6.4951    6.0000    0.0000 N   0  0  0  0  0  0  0  0  0  0  0  0
   -2.5980   -2.2499    0.0000 C   0  0  0  0  0  0  0  0  0  0  0  0
    5.1961    6.7500    0.0000 C   0  0  0  0  0  0  0  0  0  0  0  0
    7.7942    6.7500    0.0000 C   0  0  0  0  0  0  0  0  0  0  0  0
   -3.8971   -2.9999    0.0000 C   0  0  0  0  0  0  0  0  0  0  0  0
    9.0932    6.0000    0.0000 O   0  0  0  0  0  0  0  0  0  0  0  0
    7.7942    8.2500    0.0000 C   0  0  0  0  0  0  0  0  0  0  0  0
   -5.1961   -2.2499    0.0000 C   0  0  0  0  0  0  0  0  0  0  0  0
   -3.8971   -4.4999    0.0000 C   0  0  0  0  0  0  0  0  0  0  0  0
    9.0077    9.1316    0.0000 O   0  0  0  0  0  0  0  0  0  0  0  0
    6.5807    9.1316    0.0000 C   0  0  0  0  0  0  0  0  0  0  0  0
   -6.4951   -2.9999    0.0000 C   0  0  0  0  0  0  0  0  0  0  0  0
   -5.1961   -5.2499    0.0000 C   0  0  0  0  0  0  0  0  0  0  0  0
    8.5442   10.5582    0.0000 C   0  0  0  0  0  0  0  0  0  0  0  0
    7.0442   10.5582    0.0000 C   0  0  0  0  0  0  0  0  0  0  0  0
    5.1541    8.6681    0.0000 C   0  0  0  0  0  0  0  0  0  0  0  0
   -6.4951   -4.4999    0.0000 N   0  0  0  0  0  0  0  0  0  0  0  0
    9.2942   11.8573    0.0000 C   0  0  0  0  0  0  0  0  0  0  0  0
    6.2942   11.8573    0.0000 C   0  0  0  0  0  0  0  0  0  0  0  0
   -7.7942   -5.2499    0.0000 C   0  0  0  0  0  0  0  0  0  0  0  0
    8.5442   13.1563    0.0000 C   0  0  0  0  0  0  0  0  0  0  0  0
    7.0442   13.1563    0.0000 C   0  0  0  0  0  0  0  0  0  0  0  0
  1  2  2  0
  2  3  1  0
  2  4  1  0
  3  5  1  0
  4  6  2  0
  4  7  1  0
  5  8  1  0
  6  9  1  0
  7 10  2  0
  8 11  2  0
  8 12  1  0
  9 13  2  0
  9 14  1  0
 11 15  1  0
 12 16  2  0
 13 17  1  0
 14 18  1  0
 15 19  2  0
 17 20  1  0
 18 21  1  0
 19 22  1  0
 21 23  2  0
 21 24  1  0
 22 25  1  0
 22 26  1  0
 24 27  1  0
 24 28  2  0
 25 29  1  0
 26 30  1  0
 27 31  1  0
 28 32  1  0
 28 33  1  0
 29 34  1  0
 31 35  2  0
 32 36  2  0
 34 37  1  0
 35 38  1  0
 36 39  1  0
 10 13  1  0
 16 19  1  0
 18 20  1  0
 30 34  1  0
 31 32  1  0
 38 39  2  0
M  END
>  <Molecule Name>  (47) 
CTX-1020697

>  <SMILES>  (47) 
CN1CCC(CC1)C1=CC=C(CNC(=O)C2=CC=C3CCN(CC3=N2)C(=O)C2=C(C)C3=C(O2)C=CC=C3)C=C1

>  <Batch Name>  (47) 
CTX-1020697-1

>  <Batch Created Date>  (47) 
2021-12-09

>  <Batch ID>  (47) 
CTX-1020697-1

>  <External ID>  (47) 
CD-42-C

>  <Stereochemistry>  (47) 
Achiral

>  <Amount 1>  (47) 
2.1

>  <Unit 1>  (47) 
mg

>  <CRO 1>  (47) 
Pharmaron

>  <CRO 1 Total Amount>  (47) 
17.1

>  <CRO 1 Unit>  (47) 
mg

>  <Pharmaron Solubility (PBS, pH 7.4): Aqueous Solubility - Batch Mean (uM)>  (47) 


>  <Pharmaron Solubility (PBS, pH 7.4): Aqueous Solubility - Batch Mean (uM) Standard Deviation (±)>  (47) 


>  <Pharmaron Solubility (PBS, pH 7.4): Aqueous Solubility - Batch Mean (uM) Count>  (47) 


>  <log P>  (47) 
4.16

>  <log D>  (47) 
2.43

>  <Pharmaron Caliper Assay (CDK2/CCNE1): Minimum measured (%)>  (47) 
18.2

>  <Pharmaron Caliper Assay (CDK2/CCNE1): IC50 - Batch Mean (uM)>  (47) 
3.87

>  <Pharmaron ADPGLO (CDK2/E1-25C): Minimum measured (%)>  (47) 


>  <Pharmaron ADPGLO (CDK2/E1-25C): IC50 - Batch Mean (uM)>  (47) 


>  <Pharmaron ADPGLO (CDK2/E1-37C): Minimum measured (%)>  (47) 


>  <Pharmaron ADPGLO (CDK2/E1-37C): IC50 - Batch Mean (uM)>  (47) 


>  <IncuCyte Kuramochi RB-WT: IC50 - Batch Mean (uM)>  (47) 
11.3

>  <IncuCyte Kuramochi RB-KO: IC50 - Batch Mean (uM)>  (47) 
6.02

>  <DSF (npCDK2/CCNE1): dTm D - Batch Mean [Concentration: 100]>  (47) 


>  <DSF (npCDK2/CCNE1): dTm D - Batch Mean [Concentration: 20.0]>  (47) 
0.6629999999999999

>  <DSF (pCDK2/CCNE1): dTm D - Batch Mean [Concentration: 100]>  (47) 


>  <DSF (pCDK2/CCNE1): dTm D - Batch Mean [Concentration: 20.0]>  (47) 
0.16

>  <RLM: t1/2 - Batch Mean (Min)>  (47) 
5.25

>  <RLM: Cl int - Batch Mean (uL/min/mg protein)>  (47) 
264.05

>  <RLM: ER (Hepatic extraction ratio) - Batch Mean>  (47) 
0.905

>  <HLM: t1/2 - Batch Mean (Min)>  (47) 
38.67

>  <HLM: Cl int - Batch Mean (uL/min/mg protein)>  (47) 
36.44

>  <HLM: ER (Hepatic extraction ratio) - Batch Mean>  (47) 
0.638

>  <MDCK-WT 4% BSA: Papp (A-B) - Batch Mean (10-6, cm/s)>  (47) 


>  <MDCK-WT 4% BSA: Papp (B-A) - Batch Mean (10-6, cm/s)>  (47) 


>  <MDCK-WT 4% BSA: Efflux Ratio - Batch Mean>  (47) 


>  <MDCK-WT 4% BSA: ~Net A_B - Batch Mean (10-6, cm/s)>  (47) 


>  <pIC50>  (47) 
5.412289

>  <Selection_1>  (47) 
Y

>  <Selection_N>  (47) 


>  <Serie>  (47) 
Naphthyridine

>  <Selection_T>  (47) 
N

>  <Train_Vs_Test>  (47) 


$$$$
CTX-1020696
     RDKit          2D

 38 43  0  0  0  0  0  0  0  0999 V2000
    5.1961   -0.7500    0.0000 O   0  0  0  0  0  0  0  0  0  0  0  0
    3.8971    0.0000    0.0000 C   0  0  0  0  0  0  0  0  0  0  0  0
    2.5980   -0.7500    0.0000 N   0  0  0  0  0  0  0  0  0  0  0  0
    3.8971    1.5000    0.0000 C   0  0  0  0  0  0  0  0  0  0  0  0
    1.2990    0.0000    0.0000 C   0  0  0  0  0  0  0  0  0  0  0  0
    5.1961    2.2500    0.0000 N   0  0  0  0  0  0  0  0  0  0  0  0
    2.5980    2.2500    0.0000 C   0  0  0  0  0  0  0  0  0  0  0  0
    0.0000   -0.7500    0.0000 C   0  0  0  0  0  0  0  0  0  0  0  0
    5.1961    3.7500    0.0000 C   0  0  0  0  0  0  0  0  0  0  0  0
    2.5980    3.7500    0.0000 C   0  0  0  0  0  0  0  0  0  0  0  0
   -1.2990    0.0000    0.0000 C   0  0  0  0  0  0  0  0  0  0  0  0
    0.0000   -2.2499    0.0000 C   0  0  0  0  0  0  0  0  0  0  0  0
    3.8971    4.5000    0.0000 C   0  0  0  0  0  0  0  0  0  0  0  0
    6.4951    4.5000    0.0000 C   0  0  0  0  0  0  0  0  0  0  0  0
   -2.5980   -0.7499    0.0000 C   0  0  0  0  0  0  0  0  0  0  0  0
   -1.2990   -2.9999    0.0000 C   0  0  0  0  0  0  0  0  0  0  0  0
    3.8971    6.0000    0.0000 C   0  0  0  0  0  0  0  0  0  0  0  0
    6.4951    6.0000    0.0000 N   0  0  0  0  0  0  0  0  0  0  0  0
   -2.5980   -2.2499    0.0000 C   0  0  0  0  0  0  0  0  0  0  0  0
    5.1961    6.7500    0.0000 C   0  0  0  0  0  0  0  0  0  0  0  0
    7.7942    6.7500    0.0000 C   0  0  0  0  0  0  0  0  0  0  0  0
   -3.8971   -2.9999    0.0000 C   0  0  0  0  0  0  0  0  0  0  0  0
    9.0932    6.0000    0.0000 O   0  0  0  0  0  0  0  0  0  0  0  0
    7.7942    8.2500    0.0000 C   0  0  0  0  0  0  0  0  0  0  0  0
   -5.1961   -2.2499    0.0000 C   0  0  0  0  0  0  0  0  0  0  0  0
   -3.8971   -4.4999    0.0000 C   0  0  0  0  0  0  0  0  0  0  0  0
    9.0077    9.1316    0.0000 O   0  0  0  0  0  0  0  0  0  0  0  0
    6.5807    9.1316    0.0000 C   0  0  0  0  0  0  0  0  0  0  0  0
   -6.4951   -2.9999    0.0000 C   0  0  0  0  0  0  0  0  0  0  0  0
   -5.1961   -5.2499    0.0000 C   0  0  0  0  0  0  0  0  0  0  0  0
    8.5442   10.5582    0.0000 C   0  0  0  0  0  0  0  0  0  0  0  0
    7.0442   10.5582    0.0000 C   0  0  0  0  0  0  0  0  0  0  0  0
    5.1541    8.6681    0.0000 C   0  0  0  0  0  0  0  0  0  0  0  0
   -6.4951   -4.4999    0.0000 O   0  0  0  0  0  0  0  0  0  0  0  0
    9.2942   11.8573    0.0000 C   0  0  0  0  0  0  0  0  0  0  0  0
    6.2942   11.8573    0.0000 C   0  0  0  0  0  0  0  0  0  0  0  0
    8.5442   13.1563    0.0000 C   0  0  0  0  0  0  0  0  0  0  0  0
    7.0442   13.1563    0.0000 C   0  0  0  0  0  0  0  0  0  0  0  0
  1  2  2  0
  2  3  1  0
  2  4  1  0
  3  5  1  0
  4  6  2  0
  4  7  1  0
  5  8  1  0
  6  9  1  0
  7 10  2  0
  8 11  2  0
  8 12  1  0
  9 13  2  0
  9 14  1  0
 11 15  1  0
 12 16  2  0
 13 17  1  0
 14 18  1  0
 15 19  2  0
 17 20  1  0
 18 21  1  0
 19 22  1  0
 21 23  2  0
 21 24  1  0
 22 25  1  0
 22 26  1  0
 24 27  1  0
 24 28  2  0
 25 29  1  0
 26 30  1  0
 27 31  1  0
 28 32  1  0
 28 33  1  0
 29 34  1  0
 31 35  2  0
 32 36  2  0
 35 37  1  0
 36 38  1  0
 10 13  1  0
 16 19  1  0
 18 20  1  0
 30 34  1  0
 31 32  1  0
 37 38  2  0
M  END
>  <Molecule Name>  (48) 
CTX-1020696

>  <SMILES>  (48) 
CC1=C(OC2=C1C=CC=C2)C(=O)N1CCC2=CC=C(N=C2C1)C(=O)NCC1=CC=C(C=C1)C1CCOCC1

>  <Batch Name>  (48) 
CTX-1020696-1

>  <Batch Created Date>  (48) 
2021-12-09

>  <Batch ID>  (48) 
CTX-1020696-1

>  <External ID>  (48) 
CD-42-B

>  <Stereochemistry>  (48) 
Achiral

>  <Amount 1>  (48) 
2.3

>  <Unit 1>  (48) 
mg

>  <CRO 1>  (48) 
Pharmaron

>  <CRO 1 Total Amount>  (48) 
20.5

>  <CRO 1 Unit>  (48) 
mg

>  <Pharmaron Solubility (PBS, pH 7.4): Aqueous Solubility - Batch Mean (uM)>  (48) 


>  <Pharmaron Solubility (PBS, pH 7.4): Aqueous Solubility - Batch Mean (uM) Standard Deviation (±)>  (48) 


>  <Pharmaron Solubility (PBS, pH 7.4): Aqueous Solubility - Batch Mean (uM) Count>  (48) 


>  <log P>  (48) 
4.1

>  <log D>  (48) 
4.1

>  <Pharmaron Caliper Assay (CDK2/CCNE1): Minimum measured (%)>  (48) 
45.2

>  <Pharmaron Caliper Assay (CDK2/CCNE1): IC50 - Batch Mean (uM)>  (48) 
1.32

>  <Pharmaron ADPGLO (CDK2/E1-25C): Minimum measured (%)>  (48) 


>  <Pharmaron ADPGLO (CDK2/E1-25C): IC50 - Batch Mean (uM)>  (48) 


>  <Pharmaron ADPGLO (CDK2/E1-37C): Minimum measured (%)>  (48) 


>  <Pharmaron ADPGLO (CDK2/E1-37C): IC50 - Batch Mean (uM)>  (48) 


>  <IncuCyte Kuramochi RB-WT: IC50 - Batch Mean (uM)>  (48) 
20.0

>  <IncuCyte Kuramochi RB-KO: IC50 - Batch Mean (uM)>  (48) 
20.0

>  <DSF (npCDK2/CCNE1): dTm D - Batch Mean [Concentration: 100]>  (48) 


>  <DSF (npCDK2/CCNE1): dTm D - Batch Mean [Concentration: 20.0]>  (48) 
1.431

>  <DSF (pCDK2/CCNE1): dTm D - Batch Mean [Concentration: 100]>  (48) 


>  <DSF (pCDK2/CCNE1): dTm D - Batch Mean [Concentration: 20.0]>  (48) 
0.226

>  <RLM: t1/2 - Batch Mean (Min)>  (48) 
11.04

>  <RLM: Cl int - Batch Mean (uL/min/mg protein)>  (48) 
125.5

>  <RLM: ER (Hepatic extraction ratio) - Batch Mean>  (48) 
0.816

>  <HLM: t1/2 - Batch Mean (Min)>  (48) 
3.22

>  <HLM: Cl int - Batch Mean (uL/min/mg protein)>  (48) 
430.55

>  <HLM: ER (Hepatic extraction ratio) - Batch Mean>  (48) 
0.955

>  <MDCK-WT 4% BSA: Papp (A-B) - Batch Mean (10-6, cm/s)>  (48) 


>  <MDCK-WT 4% BSA: Papp (B-A) - Batch Mean (10-6, cm/s)>  (48) 


>  <MDCK-WT 4% BSA: Efflux Ratio - Batch Mean>  (48) 


>  <MDCK-WT 4% BSA: ~Net A_B - Batch Mean (10-6, cm/s)>  (48) 


>  <pIC50>  (48) 
5.879426

>  <Selection_1>  (48) 
Y

>  <Selection_N>  (48) 


>  <Serie>  (48) 
Naphthyridine

>  <Selection_T>  (48) 
N

>  <Train_Vs_Test>  (48) 


$$$$
CTX-1020695
     RDKit          2D

 36 41  0  0  0  0  0  0  0  0999 V2000
    5.1961   -0.7500    0.0000 O   0  0  0  0  0  0  0  0  0  0  0  0
    3.8971    0.0000    0.0000 C   0  0  0  0  0  0  0  0  0  0  0  0
    2.5980   -0.7500    0.0000 N   0  0  0  0  0  0  0  0  0  0  0  0
    3.8971    1.5000    0.0000 C   0  0  0  0  0  0  0  0  0  0  0  0
    1.2990    0.0000    0.0000 C   0  0  0  0  0  0  0  0  0  0  0  0
    5.1961    2.2500    0.0000 N   0  0  0  0  0  0  0  0  0  0  0  0
    2.5980    2.2500    0.0000 C   0  0  0  0  0  0  0  0  0  0  0  0
    0.0000   -0.7500    0.0000 C   0  0  0  0  0  0  0  0  0  0  0  0
    5.1961    3.7500    0.0000 C   0  0  0  0  0  0  0  0  0  0  0  0
    2.5980    3.7500    0.0000 C   0  0  0  0  0  0  0  0  0  0  0  0
   -1.2990    0.0000    0.0000 C   0  0  0  0  0  0  0  0  0  0  0  0
    0.0000   -2.2500    0.0000 C   0  0  0  0  0  0  0  0  0  0  0  0
    3.8971    4.5000    0.0000 C   0  0  0  0  0  0  0  0  0  0  0  0
    6.4951    4.5000    0.0000 C   0  0  0  0  0  0  0  0  0  0  0  0
   -2.5980   -0.7499    0.0000 C   0  0  0  0  0  0  0  0  0  0  0  0
   -1.2990   -2.9999    0.0000 C   0  0  0  0  0  0  0  0  0  0  0  0
    3.8971    6.0000    0.0000 C   0  0  0  0  0  0  0  0  0  0  0  0
    6.4951    6.0000    0.0000 N   0  0  0  0  0  0  0  0  0  0  0  0
   -3.8971    0.0000    0.0000 N   0  0  0  0  0  0  0  0  0  0  0  0
   -2.5980   -2.2499    0.0000 C   0  0  0  0  0  0  0  0  0  0  0  0
    5.1961    6.7500    0.0000 C   0  0  0  0  0  0  0  0  0  0  0  0
    7.7942    6.7500    0.0000 C   0  0  0  0  0  0  0  0  0  0  0  0
   -5.1961   -0.7499    0.0000 C   0  0  0  0  0  0  0  0  0  0  0  0
   -3.8971   -2.9999    0.0000 C   0  0  0  0  0  0  0  0  0  0  0  0
    9.0932    6.0000    0.0000 O   0  0  0  0  0  0  0  0  0  0  0  0
    7.7942    8.2500    0.0000 C   0  0  0  0  0  0  0  0  0  0  0  0
   -5.1961   -2.2499    0.0000 C   0  0  0  0  0  0  0  0  0  0  0  0
    9.0077    9.1316    0.0000 O   0  0  0  0  0  0  0  0  0  0  0  0
    6.5807    9.1316    0.0000 C   0  0  0  0  0  0  0  0  0  0  0  0
    8.5442   10.5582    0.0000 C   0  0  0  0  0  0  0  0  0  0  0  0
    7.0442   10.5582    0.0000 C   0  0  0  0  0  0  0  0  0  0  0  0
    5.1541    8.6681    0.0000 C   0  0  0  0  0  0  0  0  0  0  0  0
    9.2942   11.8573    0.0000 C   0  0  0  0  0  0  0  0  0  0  0  0
    6.2942   11.8573    0.0000 C   0  0  0  0  0  0  0  0  0  0  0  0
    8.5442   13.1563    0.0000 C   0  0  0  0  0  0  0  0  0  0  0  0
    7.0442   13.1563    0.0000 C   0  0  0  0  0  0  0  0  0  0  0  0
  1  2  2  0
  2  3  1  0
  2  4  1  0
  3  5  1  0
  4  6  2  0
  4  7  1  0
  5  8  1  0
  6  9  1  0
  7 10  2  0
  8 11  2  0
  8 12  1  0
  9 13  2  0
  9 14  1  0
 11 15  1  0
 12 16  2  0
 13 17  1  0
 14 18  1  0
 15 19  1  0
 15 20  2  0
 17 21  1  0
 18 22  1  0
 19 23  1  0
 20 24  1  0
 22 25  2  0
 22 26  1  0
 23 27  1  0
 26 28  1  0
 26 29  2  0
 28 30  1  0
 29 31  1  0
 29 32  1  0
 30 33  2  0
 31 34  2  0
 33 35  1  0
 34 36  1  0
 10 13  1  0
 16 20  1  0
 18 21  1  0
 24 27  1  0
 30 31  1  0
 35 36  2  0
M  END
>  <Molecule Name>  (49) 
CTX-1020695

>  <SMILES>  (49) 
CC1=C(OC2=C1C=CC=C2)C(=O)N1CCC2=CC=C(N=C2C1)C(=O)NCC1=CC=C2CCCNC2=C1

>  <Batch Name>  (49) 
CTX-1020695-1

>  <Batch Created Date>  (49) 
2021-12-09

>  <Batch ID>  (49) 
CTX-1020695-1

>  <External ID>  (49) 
CD-42-A

>  <Stereochemistry>  (49) 
Achiral

>  <Amount 1>  (49) 
7.6

>  <Unit 1>  (49) 
mg

>  <CRO 1>  (49) 
Pharmaron

>  <CRO 1 Total Amount>  (49) 
16.9

>  <CRO 1 Unit>  (49) 
mg

>  <Pharmaron Solubility (PBS, pH 7.4): Aqueous Solubility - Batch Mean (uM)>  (49) 


>  <Pharmaron Solubility (PBS, pH 7.4): Aqueous Solubility - Batch Mean (uM) Standard Deviation (±)>  (49) 


>  <Pharmaron Solubility (PBS, pH 7.4): Aqueous Solubility - Batch Mean (uM) Count>  (49) 


>  <log P>  (49) 
3.63

>  <log D>  (49) 
3.63

>  <Pharmaron Caliper Assay (CDK2/CCNE1): Minimum measured (%)>  (49) 
63.4

>  <Pharmaron Caliper Assay (CDK2/CCNE1): IC50 - Batch Mean (uM)>  (49) 
2.72

>  <Pharmaron ADPGLO (CDK2/E1-25C): Minimum measured (%)>  (49) 


>  <Pharmaron ADPGLO (CDK2/E1-25C): IC50 - Batch Mean (uM)>  (49) 


>  <Pharmaron ADPGLO (CDK2/E1-37C): Minimum measured (%)>  (49) 


>  <Pharmaron ADPGLO (CDK2/E1-37C): IC50 - Batch Mean (uM)>  (49) 


>  <IncuCyte Kuramochi RB-WT: IC50 - Batch Mean (uM)>  (49) 
7.53

>  <IncuCyte Kuramochi RB-KO: IC50 - Batch Mean (uM)>  (49) 
20.0

>  <DSF (npCDK2/CCNE1): dTm D - Batch Mean [Concentration: 100]>  (49) 


>  <DSF (npCDK2/CCNE1): dTm D - Batch Mean [Concentration: 20.0]>  (49) 
0.29600000000000004

>  <DSF (pCDK2/CCNE1): dTm D - Batch Mean [Concentration: 100]>  (49) 


>  <DSF (pCDK2/CCNE1): dTm D - Batch Mean [Concentration: 20.0]>  (49) 
0.16

>  <RLM: t1/2 - Batch Mean (Min)>  (49) 


>  <RLM: Cl int - Batch Mean (uL/min/mg protein)>  (49) 


>  <RLM: ER (Hepatic extraction ratio) - Batch Mean>  (49) 


>  <HLM: t1/2 - Batch Mean (Min)>  (49) 


>  <HLM: Cl int - Batch Mean (uL/min/mg protein)>  (49) 


>  <HLM: ER (Hepatic extraction ratio) - Batch Mean>  (49) 


>  <MDCK-WT 4% BSA: Papp (A-B) - Batch Mean (10-6, cm/s)>  (49) 


>  <MDCK-WT 4% BSA: Papp (B-A) - Batch Mean (10-6, cm/s)>  (49) 


>  <MDCK-WT 4% BSA: Efflux Ratio - Batch Mean>  (49) 


>  <MDCK-WT 4% BSA: ~Net A_B - Batch Mean (10-6, cm/s)>  (49) 


>  <pIC50>  (49) 
5.565431

>  <Selection_1>  (49) 
Y

>  <Selection_N>  (49) 


>  <Serie>  (49) 
Naphthyridine

>  <Selection_T>  (49) 
N

>  <Train_Vs_Test>  (49) 


$$$$
CTX-1020685
     RDKit          2D

 38 43  0  0  0  0  0  0  0  0999 V2000
    5.1961   -0.7500    0.0000 O   0  0  0  0  0  0  0  0  0  0  0  0
    3.8971    0.0000    0.0000 C   0  0  0  0  0  0  0  0  0  0  0  0
    2.5980   -0.7500    0.0000 N   0  0  0  0  0  0  0  0  0  0  0  0
    3.8971    1.5000    0.0000 C   0  0  0  0  0  0  0  0  0  0  0  0
    1.2990    0.0000    0.0000 C   0  0  0  0  0  0  0  0  0  0  0  0
    5.1961    2.2500    0.0000 N   0  0  0  0  0  0  0  0  0  0  0  0
    2.5980    2.2500    0.0000 C   0  0  0  0  0  0  0  0  0  0  0  0
    0.0000   -0.7500    0.0000 C   0  0  0  0  0  0  0  0  0  0  0  0
    5.1961    3.7500    0.0000 C   0  0  0  0  0  0  0  0  0  0  0  0
    2.5980    3.7500    0.0000 C   0  0  0  0  0  0  0  0  0  0  0  0
   -1.2990    0.0000    0.0000 C   0  0  0  0  0  0  0  0  0  0  0  0
    0.0000   -2.2499    0.0000 C   0  0  0  0  0  0  0  0  0  0  0  0
    3.8971    4.5000    0.0000 C   0  0  0  0  0  0  0  0  0  0  0  0
    6.4951    4.5000    0.0000 C   0  0  0  0  0  0  0  0  0  0  0  0
   -2.5980   -0.7499    0.0000 C   0  0  0  0  0  0  0  0  0  0  0  0
   -1.2990   -2.9999    0.0000 C   0  0  0  0  0  0  0  0  0  0  0  0
    3.8971    6.0000    0.0000 C   0  0  0  0  0  0  0  0  0  0  0  0
    6.4951    6.0000    0.0000 N   0  0  0  0  0  0  0  0  0  0  0  0
   -2.5980   -2.2499    0.0000 C   0  0  0  0  0  0  0  0  0  0  0  0
    5.1961    6.7500    0.0000 C   0  0  0  0  0  0  0  0  0  0  0  0
    7.7942    6.7500    0.0000 C   0  0  0  0  0  0  0  0  0  0  0  0
   -3.8971   -2.9999    0.0000 N   0  0  0  0  0  0  0  0  0  0  0  0
    9.0932    6.0000    0.0000 O   0  0  0  0  0  0  0  0  0  0  0  0
    7.7942    8.2500    0.0000 C   0  0  0  0  0  0  0  0  0  0  0  0
   -5.1961   -2.2499    0.0000 C   0  0  0  0  0  0  0  0  0  0  0  0
   -3.8971   -4.4999    0.0000 C   0  0  0  0  0  0  0  0  0  0  0  0
    9.0077    9.1316    0.0000 O   0  0  0  0  0  0  0  0  0  0  0  0
    6.5807    9.1316    0.0000 C   0  0  0  0  0  0  0  0  0  0  0  0
   -6.4951   -2.9999    0.0000 C   0  0  0  0  0  0  0  0  0  0  0  0
   -5.1961   -5.2499    0.0000 C   0  0  0  0  0  0  0  0  0  0  0  0
    8.5442   10.5582    0.0000 C   0  0  0  0  0  0  0  0  0  0  0  0
    7.0442   10.5582    0.0000 C   0  0  0  0  0  0  0  0  0  0  0  0
    5.1541    8.6681    0.0000 C   0  0  0  0  0  0  0  0  0  0  0  0
   -6.4951   -4.4999    0.0000 N   0  0  0  0  0  0  0  0  0  0  0  0
    9.2942   11.8573    0.0000 C   0  0  0  0  0  0  0  0  0  0  0  0
    6.2942   11.8573    0.0000 C   0  0  0  0  0  0  0  0  0  0  0  0
    8.5442   13.1563    0.0000 C   0  0  0  0  0  0  0  0  0  0  0  0
    7.0442   13.1563    0.0000 C   0  0  0  0  0  0  0  0  0  0  0  0
  1  2  2  0
  2  3  1  0
  2  4  1  0
  3  5  1  0
  4  6  2  0
  4  7  1  0
  5  8  1  0
  6  9  1  0
  7 10  2  0
  8 11  2  0
  8 12  1  0
  9 13  2  0
  9 14  1  0
 11 15  1  0
 12 16  2  0
 13 17  1  0
 14 18  1  0
 15 19  2  0
 17 20  1  0
 18 21  1  0
 19 22  1  0
 21 23  2  0
 21 24  1  0
 22 25  1  0
 22 26  1  0
 24 27  1  0
 24 28  2  0
 25 29  1  0
 26 30  1  0
 27 31  1  0
 28 32  1  0
 28 33  1  0
 29 34  1  0
 31 35  2  0
 32 36  2  0
 35 37  1  0
 36 38  1  0
 10 13  1  0
 16 19  1  0
 18 20  1  0
 30 34  1  0
 31 32  1  0
 37 38  2  0
M  END
>  <Molecule Name>  (50) 
CTX-1020685

>  <SMILES>  (50) 
CC1=C(OC2=C1C=CC=C2)C(=O)N1CCC2=CC=C(N=C2C1)C(=O)NCC1=CC=C(C=C1)N1CCNCC1

>  <Batch Name>  (50) 
CTX-1020685-1

>  <Batch Created Date>  (50) 
2021-12-03

>  <Batch ID>  (50) 
CTX-1020685-1

>  <External ID>  (50) 
CD-42-H

>  <Stereochemistry>  (50) 
Achiral

>  <Amount 1>  (50) 
4.9

>  <Unit 1>  (50) 
mg

>  <CRO 1>  (50) 
Pharmaron

>  <CRO 1 Total Amount>  (50) 
16.4

>  <CRO 1 Unit>  (50) 
mg

>  <Pharmaron Solubility (PBS, pH 7.4): Aqueous Solubility - Batch Mean (uM)>  (50) 
313.2668

>  <Pharmaron Solubility (PBS, pH 7.4): Aqueous Solubility - Batch Mean (uM) Standard Deviation (±)>  (50) 


>  <Pharmaron Solubility (PBS, pH 7.4): Aqueous Solubility - Batch Mean (uM) Count>  (50) 
1.0

>  <log P>  (50) 
3.25

>  <log D>  (50) 
1.76

>  <Pharmaron Caliper Assay (CDK2/CCNE1): Minimum measured (%)>  (50) 
38.3

>  <Pharmaron Caliper Assay (CDK2/CCNE1): IC50 - Batch Mean (uM)>  (50) 
53.2

>  <Pharmaron ADPGLO (CDK2/E1-25C): Minimum measured (%)>  (50) 


>  <Pharmaron ADPGLO (CDK2/E1-25C): IC50 - Batch Mean (uM)>  (50) 


>  <Pharmaron ADPGLO (CDK2/E1-37C): Minimum measured (%)>  (50) 


>  <Pharmaron ADPGLO (CDK2/E1-37C): IC50 - Batch Mean (uM)>  (50) 


>  <IncuCyte Kuramochi RB-WT: IC50 - Batch Mean (uM)>  (50) 
7.39

>  <IncuCyte Kuramochi RB-KO: IC50 - Batch Mean (uM)>  (50) 
5.98

>  <DSF (npCDK2/CCNE1): dTm D - Batch Mean [Concentration: 100]>  (50) 


>  <DSF (npCDK2/CCNE1): dTm D - Batch Mean [Concentration: 20.0]>  (50) 
1.403

>  <DSF (pCDK2/CCNE1): dTm D - Batch Mean [Concentration: 100]>  (50) 


>  <DSF (pCDK2/CCNE1): dTm D - Batch Mean [Concentration: 20.0]>  (50) 
0.31

>  <RLM: t1/2 - Batch Mean (Min)>  (50) 
18.44

>  <RLM: Cl int - Batch Mean (uL/min/mg protein)>  (50) 
75.18

>  <RLM: ER (Hepatic extraction ratio) - Batch Mean>  (50) 
0.73

>  <HLM: t1/2 - Batch Mean (Min)>  (50) 
35.19

>  <HLM: Cl int - Batch Mean (uL/min/mg protein)>  (50) 
39.39

>  <HLM: ER (Hepatic extraction ratio) - Batch Mean>  (50) 
0.6579999999999999

>  <MDCK-WT 4% BSA: Papp (A-B) - Batch Mean (10-6, cm/s)>  (50) 


>  <MDCK-WT 4% BSA: Papp (B-A) - Batch Mean (10-6, cm/s)>  (50) 


>  <MDCK-WT 4% BSA: Efflux Ratio - Batch Mean>  (50) 


>  <MDCK-WT 4% BSA: ~Net A_B - Batch Mean (10-6, cm/s)>  (50) 


>  <pIC50>  (50) 
4.274088

>  <Selection_1>  (50) 
Y

>  <Selection_N>  (50) 


>  <Serie>  (50) 
Naphthyridine

>  <Selection_T>  (50) 
N

>  <Train_Vs_Test>  (50) 


$$$$
CTX-1020671
     RDKit          2D

 30 34  0  0  0  0  0  0  0  0999 V2000
    6.5664   -0.1398    0.0000 S   0  0  0  0  0  0  0  0  0  0  0  0
    5.1961   -0.7500    0.0000 C   0  0  0  0  0  0  0  0  0  0  0  0
    7.5701   -1.2546    0.0000 C   0  0  0  0  0  0  0  0  0  0  0  0
    3.8971    0.0000    0.0000 C   0  0  0  0  0  0  0  0  0  0  0  0
    5.3529   -2.2417    0.0000 C   0  0  0  0  0  0  0  0  0  0  0  0
    6.8201   -2.5536    0.0000 C   0  0  0  0  0  0  0  0  0  0  0  0
    9.0701   -1.2546    0.0000 C   0  0  0  0  0  0  0  0  0  0  0  0
    3.8971    1.5000    0.0000 O   0  0  0  0  0  0  0  0  0  0  0  0
    2.5980   -0.7500    0.0000 N   0  0  0  0  0  0  0  0  0  0  0  0
    7.5701   -3.8526    0.0000 C   0  0  0  0  0  0  0  0  0  0  0  0
    9.8201   -2.5536    0.0000 C   0  0  0  0  0  0  0  0  0  0  0  0
    1.2990    0.0000    0.0000 C   0  0  0  0  0  0  0  0  0  0  0  0
    9.0701   -3.8526    0.0000 N   0  0  0  0  0  0  0  0  0  0  0  0
    0.0000   -0.7500    0.0000 C   0  0  0  0  0  0  0  0  0  0  0  0
    9.8201   -5.1517    0.0000 C   0  0  0  0  0  0  0  0  0  0  0  0
   -1.2990    0.0000    0.0000 C   0  0  0  0  0  0  0  0  0  0  0  0
    0.0000   -2.2500    0.0000 C   0  0  0  0  0  0  0  0  0  0  0  0
    9.0701   -6.4507    0.0000 O   0  0  0  0  0  0  0  0  0  0  0  0
   11.3201   -5.1517    0.0000 C   0  0  0  0  0  0  0  0  0  0  0  0
   -2.5980   -0.7499    0.0000 C   0  0  0  0  0  0  0  0  0  0  0  0
   -1.2990   -2.9999    0.0000 C   0  0  0  0  0  0  0  0  0  0  0  0
   12.2018   -6.3652    0.0000 C   0  0  0  0  0  0  0  0  0  0  0  0
   12.2018   -3.9382    0.0000 C   0  0  0  0  0  0  0  0  0  0  0  0
   -2.5980   -2.2499    0.0000 C   0  0  0  0  0  0  0  0  0  0  0  0
   13.6284   -5.9017    0.0000 N   0  0  0  0  0  0  0  0  0  0  0  0
   11.8899   -7.8324    0.0000 C   0  0  0  0  0  0  0  0  0  0  0  0
   13.6284   -4.4017    0.0000 N   0  0  0  0  0  0  0  0  0  0  0  0
   14.7431   -6.9054    0.0000 C   0  0  0  0  0  0  0  0  0  0  0  0
   13.0046   -8.8361    0.0000 N   0  0  0  0  0  0  0  0  0  0  0  0
   14.4312   -8.3726    0.0000 C   0  0  0  0  0  0  0  0  0  0  0  0
  1  2  1  0
  1  3  1  0
  2  4  1  0
  2  5  2  0
  3  6  2  0
  3  7  1  0
  4  8  2  0
  4  9  1  0
  6 10  1  0
  7 11  1  0
  9 12  1  0
 10 13  1  0
 12 14  1  0
 13 15  1  0
 14 16  2  0
 14 17  1  0
 15 18  2  0
 15 19  1  0
 16 20  1  0
 17 21  2  0
 19 22  2  0
 19 23  1  0
 20 24  2  0
 22 25  1  0
 22 26  1  0
 23 27  2  0
 25 28  1  0
 26 29  2  0
 28 30  2  0
  5  6  1  0
 11 13  1  0
 21 24  1  0
 25 27  1  0
 29 30  1  0
M  END
>  <Molecule Name>  (51) 
CTX-1020671

>  <SMILES>  (51) 
O=C(NCC1=CC=CC=C1)C1=CC2=C(CCN(C2)C(=O)C2=C3C=NC=CN3N=C2)S1

>  <Batch Name>  (51) 
CTX-1020671-1

>  <Batch Created Date>  (51) 
2021-12-03

>  <Batch ID>  (51) 
CTX-1020671-1

>  <External ID>  (51) 
610EDL218-3

>  <Stereochemistry>  (51) 
Achiral

>  <Amount 1>  (51) 
5.4

>  <Unit 1>  (51) 
mg

>  <CRO 1>  (51) 
Pharmaron

>  <CRO 1 Total Amount>  (51) 
21.2

>  <CRO 1 Unit>  (51) 
mg

>  <Pharmaron Solubility (PBS, pH 7.4): Aqueous Solubility - Batch Mean (uM)>  (51) 
60.0

>  <Pharmaron Solubility (PBS, pH 7.4): Aqueous Solubility - Batch Mean (uM) Standard Deviation (±)>  (51) 


>  <Pharmaron Solubility (PBS, pH 7.4): Aqueous Solubility - Batch Mean (uM) Count>  (51) 
1.0

>  <log P>  (51) 
2.19

>  <log D>  (51) 
2.19

>  <Pharmaron Caliper Assay (CDK2/CCNE1): Minimum measured (%)>  (51) 
8.18

>  <Pharmaron Caliper Assay (CDK2/CCNE1): IC50 - Batch Mean (uM)>  (51) 
3.44

>  <Pharmaron ADPGLO (CDK2/E1-25C): Minimum measured (%)>  (51) 


>  <Pharmaron ADPGLO (CDK2/E1-25C): IC50 - Batch Mean (uM)>  (51) 


>  <Pharmaron ADPGLO (CDK2/E1-37C): Minimum measured (%)>  (51) 


>  <Pharmaron ADPGLO (CDK2/E1-37C): IC50 - Batch Mean (uM)>  (51) 


>  <IncuCyte Kuramochi RB-WT: IC50 - Batch Mean (uM)>  (51) 
6.11

>  <IncuCyte Kuramochi RB-KO: IC50 - Batch Mean (uM)>  (51) 
9.1

>  <DSF (npCDK2/CCNE1): dTm D - Batch Mean [Concentration: 100]>  (51) 


>  <DSF (npCDK2/CCNE1): dTm D - Batch Mean [Concentration: 20.0]>  (51) 
0.996

>  <DSF (pCDK2/CCNE1): dTm D - Batch Mean [Concentration: 100]>  (51) 


>  <DSF (pCDK2/CCNE1): dTm D - Batch Mean [Concentration: 20.0]>  (51) 
1.111

>  <RLM: t1/2 - Batch Mean (Min)>  (51) 


>  <RLM: Cl int - Batch Mean (uL/min/mg protein)>  (51) 


>  <RLM: ER (Hepatic extraction ratio) - Batch Mean>  (51) 


>  <HLM: t1/2 - Batch Mean (Min)>  (51) 


>  <HLM: Cl int - Batch Mean (uL/min/mg protein)>  (51) 


>  <HLM: ER (Hepatic extraction ratio) - Batch Mean>  (51) 


>  <MDCK-WT 4% BSA: Papp (A-B) - Batch Mean (10-6, cm/s)>  (51) 


>  <MDCK-WT 4% BSA: Papp (B-A) - Batch Mean (10-6, cm/s)>  (51) 


>  <MDCK-WT 4% BSA: Efflux Ratio - Batch Mean>  (51) 


>  <MDCK-WT 4% BSA: ~Net A_B - Batch Mean (10-6, cm/s)>  (51) 


>  <pIC50>  (51) 
5.463442

>  <Selection_1>  (51) 
Y

>  <Selection_N>  (51) 
N

>  <Serie>  (51) 
Tetrahydrothienopyridine

>  <Selection_T>  (51) 


>  <Train_Vs_Test>  (51) 


$$$$
CTX-1020670
     RDKit          2D

 31 35  0  0  0  0  0  0  0  0999 V2000
    7.4316   -5.4219    0.0000 Cl  0  0  0  0  0  0  0  0  0  0  0  0
    6.4535   -5.2140    0.0000 C   0  0  0  0  0  0  0  0  0  0  0  0
    6.0467   -4.3005    0.0000 C   0  0  0  0  0  0  0  0  0  0  0  0
    5.7103   -5.8831    0.0000 C   0  0  0  0  0  0  0  0  0  0  0  0
    5.0522   -4.4050    0.0000 S   0  0  0  0  0  0  0  0  0  0  0  0
    6.5467   -3.4344    0.0000 C   0  0  0  0  0  0  0  0  0  0  0  0
    4.8443   -5.3831    0.0000 C   0  0  0  0  0  0  0  0  0  0  0  0
    5.7103   -6.8831    0.0000 C   0  0  0  0  0  0  0  0  0  0  0  0
    7.5467   -3.4344    0.0000 O   0  0  0  0  0  0  0  0  0  0  0  0
    6.0467   -2.5684    0.0000 N   0  0  0  0  0  0  0  0  0  0  0  0
    3.9783   -5.8831    0.0000 C   0  0  0  0  0  0  0  0  0  0  0  0
    4.8443   -7.3831    0.0000 C   0  0  0  0  0  0  0  0  0  0  0  0
    5.0467   -2.5684    0.0000 C   0  0  0  0  0  0  0  0  0  0  0  0
    6.5467   -1.7024    0.0000 C   0  0  0  0  0  0  0  0  0  0  0  0
    3.9783   -6.8831    0.0000 C   0  0  0  0  0  0  0  0  0  0  0  0
    4.5467   -1.7024    0.0000 C   0  0  0  0  0  0  0  0  0  0  0  0
    6.0467   -0.8364    0.0000 C   0  0  0  0  0  0  0  0  0  0  0  0
    5.0467   -0.8364    0.0000 C   0  0  0  0  0  0  0  0  0  0  0  0
    3.5686   -1.4945    0.0000 C   0  0  0  0  0  0  0  0  0  0  0  0
    4.3776   -0.0932    0.0000 S   0  0  0  0  0  0  0  0  0  0  0  0
    3.4641   -0.5000    0.0000 C   0  0  0  0  0  0  0  0  0  0  0  0
    2.5980    0.0000    0.0000 C   0  0  0  0  0  0  0  0  0  0  0  0
    2.5980    1.0000    0.0000 O   0  0  0  0  0  0  0  0  0  0  0  0
    1.7320   -0.5000    0.0000 N   0  0  0  0  0  0  0  0  0  0  0  0
    0.8660    0.0000    0.0000 C   0  0  0  0  0  0  0  0  0  0  0  0
    0.0000   -0.5000    0.0000 C   0  0  0  0  0  0  0  0  0  0  0  0
   -0.8660    0.0000    0.0000 C   0  0  0  0  0  0  0  0  0  0  0  0
    0.0000   -1.4999    0.0000 C   0  0  0  0  0  0  0  0  0  0  0  0
   -1.7320   -0.4999    0.0000 C   0  0  0  0  0  0  0  0  0  0  0  0
   -0.8660   -1.9999    0.0000 C   0  0  0  0  0  0  0  0  0  0  0  0
   -1.7320   -1.4999    0.0000 C   0  0  0  0  0  0  0  0  0  0  0  0
  1  2  1  0
  2  3  2  0
  2  4  1  0
  3  5  1  0
  3  6  1  0
  4  7  2  0
  4  8  1  0
  6  9  2  0
  6 10  1  0
  7 11  1  0
  8 12  2  0
 10 13  1  0
 10 14  1  0
 11 15  2  0
 13 16  1  0
 14 17  1  0
 16 18  2  0
 16 19  1  0
 18 20  1  0
 19 21  2  0
 21 22  1  0
 22 23  2  0
 22 24  1  0
 24 25  1  0
 25 26  1  0
 26 27  2  0
 26 28  1  0
 27 29  1  0
 28 30  2  0
 29 31  2  0
  5  7  1  0
 12 15  1  0
 17 18  1  0
 20 21  1  0
 30 31  1  0
M  END
>  <Molecule Name>  (52) 
CTX-1020670

>  <SMILES>  (52) 
ClC1=C(SC2=C1C=CC=C2)C(=O)N1CCC2=C(C1)C=C(S2)C(=O)NCC1=CC=CC=C1

>  <Batch Name>  (52) 
CTX-1020670-1

>  <Batch Created Date>  (52) 
2021-12-03

>  <Batch ID>  (52) 
CTX-1020670-1

>  <External ID>  (52) 
610EDL217-3

>  <Stereochemistry>  (52) 
Achiral

>  <Amount 1>  (52) 
6.9

>  <Unit 1>  (52) 
mg

>  <CRO 1>  (52) 
Pharmaron

>  <CRO 1 Total Amount>  (52) 
35.5

>  <CRO 1 Unit>  (52) 
mg

>  <Pharmaron Solubility (PBS, pH 7.4): Aqueous Solubility - Batch Mean (uM)>  (52) 
0.0001

>  <Pharmaron Solubility (PBS, pH 7.4): Aqueous Solubility - Batch Mean (uM) Standard Deviation (±)>  (52) 


>  <Pharmaron Solubility (PBS, pH 7.4): Aqueous Solubility - Batch Mean (uM) Count>  (52) 
1.0

>  <log P>  (52) 
5.49

>  <log D>  (52) 
5.49

>  <Pharmaron Caliper Assay (CDK2/CCNE1): Minimum measured (%)>  (52) 
73.0

>  <Pharmaron Caliper Assay (CDK2/CCNE1): IC50 - Batch Mean (uM)>  (52) 
1.25

>  <Pharmaron ADPGLO (CDK2/E1-25C): Minimum measured (%)>  (52) 


>  <Pharmaron ADPGLO (CDK2/E1-25C): IC50 - Batch Mean (uM)>  (52) 


>  <Pharmaron ADPGLO (CDK2/E1-37C): Minimum measured (%)>  (52) 


>  <Pharmaron ADPGLO (CDK2/E1-37C): IC50 - Batch Mean (uM)>  (52) 


>  <IncuCyte Kuramochi RB-WT: IC50 - Batch Mean (uM)>  (52) 
20.0

>  <IncuCyte Kuramochi RB-KO: IC50 - Batch Mean (uM)>  (52) 
20.0

>  <DSF (npCDK2/CCNE1): dTm D - Batch Mean [Concentration: 100]>  (52) 


>  <DSF (npCDK2/CCNE1): dTm D - Batch Mean [Concentration: 20.0]>  (52) 
0.32899999999999996

>  <DSF (pCDK2/CCNE1): dTm D - Batch Mean [Concentration: 100]>  (52) 


>  <DSF (pCDK2/CCNE1): dTm D - Batch Mean [Concentration: 20.0]>  (52) 
0.14300000000000002

>  <RLM: t1/2 - Batch Mean (Min)>  (52) 


>  <RLM: Cl int - Batch Mean (uL/min/mg protein)>  (52) 


>  <RLM: ER (Hepatic extraction ratio) - Batch Mean>  (52) 


>  <HLM: t1/2 - Batch Mean (Min)>  (52) 


>  <HLM: Cl int - Batch Mean (uL/min/mg protein)>  (52) 


>  <HLM: ER (Hepatic extraction ratio) - Batch Mean>  (52) 


>  <MDCK-WT 4% BSA: Papp (A-B) - Batch Mean (10-6, cm/s)>  (52) 


>  <MDCK-WT 4% BSA: Papp (B-A) - Batch Mean (10-6, cm/s)>  (52) 


>  <MDCK-WT 4% BSA: Efflux Ratio - Batch Mean>  (52) 


>  <MDCK-WT 4% BSA: ~Net A_B - Batch Mean (10-6, cm/s)>  (52) 


>  <pIC50>  (52) 
5.90309

>  <Selection_1>  (52) 
Y

>  <Selection_N>  (52) 
N

>  <Serie>  (52) 
Tetrahydrothienopyridine

>  <Selection_T>  (52) 


>  <Train_Vs_Test>  (52) 


$$$$
CTX-1020669
     RDKit          2D

 38 43  0  0  0  0  0  0  0  0999 V2000
   11.1474   -8.1329    0.0000 Cl  0  0  0  0  0  0  0  0  0  0  0  0
    9.6802   -7.8210    0.0000 C   0  0  0  0  0  0  0  0  0  0  0  0
    9.0701   -6.4507    0.0000 C   0  0  0  0  0  0  0  0  0  0  0  0
    8.5655   -8.8247    0.0000 C   0  0  0  0  0  0  0  0  0  0  0  0
    7.5783   -6.6075    0.0000 S   0  0  0  0  0  0  0  0  0  0  0  0
    9.8201   -5.1517    0.0000 C   0  0  0  0  0  0  0  0  0  0  0  0
    7.2665   -8.0747    0.0000 C   0  0  0  0  0  0  0  0  0  0  0  0
    8.5655  -10.3247    0.0000 C   0  0  0  0  0  0  0  0  0  0  0  0
   11.3201   -5.1517    0.0000 O   0  0  0  0  0  0  0  0  0  0  0  0
    9.0701   -3.8526    0.0000 N   0  0  0  0  0  0  0  0  0  0  0  0
    5.9674   -8.8247    0.0000 C   0  0  0  0  0  0  0  0  0  0  0  0
    7.2665  -11.0747    0.0000 C   0  0  0  0  0  0  0  0  0  0  0  0
    7.5701   -3.8526    0.0000 C   0  0  0  0  0  0  0  0  0  0  0  0
    9.8201   -2.5536    0.0000 C   0  0  0  0  0  0  0  0  0  0  0  0
    5.9674  -10.3247    0.0000 C   0  0  0  0  0  0  0  0  0  0  0  0
    6.8201   -2.5536    0.0000 C   0  0  0  0  0  0  0  0  0  0  0  0
    9.0701   -1.2546    0.0000 C   0  0  0  0  0  0  0  0  0  0  0  0
    7.5701   -1.2546    0.0000 C   0  0  0  0  0  0  0  0  0  0  0  0
    5.3529   -2.2417    0.0000 C   0  0  0  0  0  0  0  0  0  0  0  0
    6.5664   -0.1398    0.0000 S   0  0  0  0  0  0  0  0  0  0  0  0
    5.1961   -0.7500    0.0000 C   0  0  0  0  0  0  0  0  0  0  0  0
    3.8971    0.0000    0.0000 C   0  0  0  0  0  0  0  0  0  0  0  0
    3.8971    1.5000    0.0000 O   0  0  0  0  0  0  0  0  0  0  0  0
    2.5980   -0.7500    0.0000 N   0  0  0  0  0  0  0  0  0  0  0  0
    1.2990    0.0000    0.0000 C   0  0  0  0  0  0  0  0  0  0  0  0
    0.0000   -0.7500    0.0000 C   0  0  0  0  0  0  0  0  0  0  0  0
   -1.2990    0.0000    0.0000 C   0  0  0  0  0  0  0  0  0  0  0  0
    0.0000   -2.2499    0.0000 C   0  0  0  0  0  0  0  0  0  0  0  0
   -2.5980   -0.7499    0.0000 C   0  0  0  0  0  0  0  0  0  0  0  0
   -1.2990   -2.9999    0.0000 C   0  0  0  0  0  0  0  0  0  0  0  0
   -2.5980   -2.2499    0.0000 C   0  0  0  0  0  0  0  0  0  0  0  0
   -3.8971   -2.9999    0.0000 N   0  0  0  0  0  0  0  0  0  0  0  0
   -5.1961   -2.2499    0.0000 C   0  0  0  0  0  0  0  0  0  0  0  0
   -3.8971   -4.4999    0.0000 C   0  0  0  0  0  0  0  0  0  0  0  0
   -6.4951   -2.9999    0.0000 C   0  0  0  0  0  0  0  0  0  0  0  0
   -5.1961   -5.2499    0.0000 C   0  0  0  0  0  0  0  0  0  0  0  0
   -6.4951   -4.4999    0.0000 N   0  0  0  0  0  0  0  0  0  0  0  0
   -7.7942   -5.2499    0.0000 C   0  0  0  0  0  0  0  0  0  0  0  0
  1  2  1  0
  2  3  2  0
  2  4  1  0
  3  5  1  0
  3  6  1  0
  4  7  2  0
  4  8  1  0
  6  9  2  0
  6 10  1  0
  7 11  1  0
  8 12  2  0
 10 13  1  0
 10 14  1  0
 11 15  2  0
 13 16  1  0
 14 17  1  0
 16 18  2  0
 16 19  1  0
 18 20  1  0
 19 21  2  0
 21 22  1  0
 22 23  2  0
 22 24  1  0
 24 25  1  0
 25 26  1  0
 26 27  2  0
 26 28  1  0
 27 29  1  0
 28 30  2  0
 29 31  2  0
 31 32  1  0
 32 33  1  0
 32 34  1  0
 33 35  1  0
 34 36  1  0
 35 37  1  0
 37 38  1  0
  5  7  1  0
 12 15  1  0
 17 18  1  0
 20 21  1  0
 30 31  1  0
 36 37  1  0
M  END
>  <Molecule Name>  (53) 
CTX-1020669

>  <SMILES>  (53) 
CN1CCN(CC1)C1=CC=C(CNC(=O)C2=CC3=C(CCN(C3)C(=O)C3=C(Cl)C4=C(S3)C=CC=C4)S2)C=C1

>  <Batch Name>  (53) 
CTX-1020669-1

>  <Batch Created Date>  (53) 
2021-12-03

>  <Batch ID>  (53) 
CTX-1020669-1

>  <External ID>  (53) 
610EDL216-4

>  <Stereochemistry>  (53) 
Achiral

>  <Amount 1>  (53) 
5.2

>  <Unit 1>  (53) 
mg

>  <CRO 1>  (53) 
Pharmaron

>  <CRO 1 Total Amount>  (53) 
22.8

>  <CRO 1 Unit>  (53) 
mg

>  <Pharmaron Solubility (PBS, pH 7.4): Aqueous Solubility - Batch Mean (uM)>  (53) 
0.2684

>  <Pharmaron Solubility (PBS, pH 7.4): Aqueous Solubility - Batch Mean (uM) Standard Deviation (±)>  (53) 


>  <Pharmaron Solubility (PBS, pH 7.4): Aqueous Solubility - Batch Mean (uM) Count>  (53) 
1.0

>  <log P>  (53) 
5.45

>  <log D>  (53) 
4.81

>  <Pharmaron Caliper Assay (CDK2/CCNE1): Minimum measured (%)>  (53) 
44.6

>  <Pharmaron Caliper Assay (CDK2/CCNE1): IC50 - Batch Mean (uM)>  (53) 
2.03

>  <Pharmaron ADPGLO (CDK2/E1-25C): Minimum measured (%)>  (53) 


>  <Pharmaron ADPGLO (CDK2/E1-25C): IC50 - Batch Mean (uM)>  (53) 


>  <Pharmaron ADPGLO (CDK2/E1-37C): Minimum measured (%)>  (53) 


>  <Pharmaron ADPGLO (CDK2/E1-37C): IC50 - Batch Mean (uM)>  (53) 


>  <IncuCyte Kuramochi RB-WT: IC50 - Batch Mean (uM)>  (53) 
5.49

>  <IncuCyte Kuramochi RB-KO: IC50 - Batch Mean (uM)>  (53) 
4.58

>  <DSF (npCDK2/CCNE1): dTm D - Batch Mean [Concentration: 100]>  (53) 


>  <DSF (npCDK2/CCNE1): dTm D - Batch Mean [Concentration: 20.0]>  (53) 
1.57

>  <DSF (pCDK2/CCNE1): dTm D - Batch Mean [Concentration: 100]>  (53) 


>  <DSF (pCDK2/CCNE1): dTm D - Batch Mean [Concentration: 20.0]>  (53) 
0.7440000000000001

>  <RLM: t1/2 - Batch Mean (Min)>  (53) 


>  <RLM: Cl int - Batch Mean (uL/min/mg protein)>  (53) 


>  <RLM: ER (Hepatic extraction ratio) - Batch Mean>  (53) 


>  <HLM: t1/2 - Batch Mean (Min)>  (53) 
13.8

>  <HLM: Cl int - Batch Mean (uL/min/mg protein)>  (53) 
100.41

>  <HLM: ER (Hepatic extraction ratio) - Batch Mean>  (53) 
0.831

>  <MDCK-WT 4% BSA: Papp (A-B) - Batch Mean (10-6, cm/s)>  (53) 
2.71

>  <MDCK-WT 4% BSA: Papp (B-A) - Batch Mean (10-6, cm/s)>  (53) 
2.8

>  <MDCK-WT 4% BSA: Efflux Ratio - Batch Mean>  (53) 
1.04

>  <MDCK-WT 4% BSA: ~Net A_B - Batch Mean (10-6, cm/s)>  (53) 
2.7533

>  <pIC50>  (53) 
5.692504

>  <Selection_1>  (53) 
Y

>  <Selection_N>  (53) 
N

>  <Serie>  (53) 
Tetrahydrothienopyridine

>  <Selection_T>  (53) 


>  <Train_Vs_Test>  (53) 


$$$$
CTX-1020667
     RDKit          2D

 38 43  0  0  0  0  0  0  0  0999 V2000
    6.5664   -0.1398    0.0000 S   0  0  0  0  0  0  0  0  0  0  0  0
    5.1961   -0.7500    0.0000 C   0  0  0  0  0  0  0  0  0  0  0  0
    7.5701   -1.2546    0.0000 C   0  0  0  0  0  0  0  0  0  0  0  0
    5.3529   -2.2417    0.0000 N   0  0  0  0  0  0  0  0  0  0  0  0
    3.8971    0.0000    0.0000 C   0  0  0  0  0  0  0  0  0  0  0  0
    6.8201   -2.5536    0.0000 C   0  0  0  0  0  0  0  0  0  0  0  0
    9.0701   -1.2546    0.0000 C   0  0  0  0  0  0  0  0  0  0  0  0
    3.8971    1.5000    0.0000 O   0  0  0  0  0  0  0  0  0  0  0  0
    2.5980   -0.7500    0.0000 N   0  0  0  0  0  0  0  0  0  0  0  0
    7.5701   -3.8526    0.0000 C   0  0  0  0  0  0  0  0  0  0  0  0
    9.8201   -2.5536    0.0000 C   0  0  0  0  0  0  0  0  0  0  0  0
    1.2990    0.0000    0.0000 C   0  0  0  0  0  0  0  0  0  0  0  0
    9.0701   -3.8526    0.0000 N   0  0  0  0  0  0  0  0  0  0  0  0
    0.0000   -0.7500    0.0000 C   0  0  0  0  0  0  0  0  0  0  0  0
    9.8201   -5.1517    0.0000 C   0  0  0  0  0  0  0  0  0  0  0  0
   -1.2990    0.0000    0.0000 C   0  0  0  0  0  0  0  0  0  0  0  0
    0.0000   -2.2499    0.0000 C   0  0  0  0  0  0  0  0  0  0  0  0
    9.0701   -6.4507    0.0000 O   0  0  0  0  0  0  0  0  0  0  0  0
   11.3201   -5.1517    0.0000 C   0  0  0  0  0  0  0  0  0  0  0  0
   -2.5980   -0.7499    0.0000 C   0  0  0  0  0  0  0  0  0  0  0  0
   -1.2990   -2.9999    0.0000 C   0  0  0  0  0  0  0  0  0  0  0  0
   12.2018   -6.3652    0.0000 O   0  0  0  0  0  0  0  0  0  0  0  0
   12.2018   -3.9382    0.0000 C   0  0  0  0  0  0  0  0  0  0  0  0
   -2.5980   -2.2499    0.0000 C   0  0  0  0  0  0  0  0  0  0  0  0
   13.6284   -5.9017    0.0000 C   0  0  0  0  0  0  0  0  0  0  0  0
   13.6284   -4.4017    0.0000 C   0  0  0  0  0  0  0  0  0  0  0  0
   11.7383   -2.5116    0.0000 C   0  0  0  0  0  0  0  0  0  0  0  0
   -3.8971   -2.9999    0.0000 N   0  0  0  0  0  0  0  0  0  0  0  0
   14.9274   -6.6517    0.0000 C   0  0  0  0  0  0  0  0  0  0  0  0
   14.9274   -3.6517    0.0000 C   0  0  0  0  0  0  0  0  0  0  0  0
   -5.1961   -2.2499    0.0000 C   0  0  0  0  0  0  0  0  0  0  0  0
   -3.8971   -4.4999    0.0000 C   0  0  0  0  0  0  0  0  0  0  0  0
   16.2265   -5.9017    0.0000 C   0  0  0  0  0  0  0  0  0  0  0  0
   16.2265   -4.4017    0.0000 C   0  0  0  0  0  0  0  0  0  0  0  0
   -6.4951   -2.9999    0.0000 C   0  0  0  0  0  0  0  0  0  0  0  0
   -5.1961   -5.2499    0.0000 C   0  0  0  0  0  0  0  0  0  0  0  0
   -6.4951   -4.4999    0.0000 N   0  0  0  0  0  0  0  0  0  0  0  0
   -7.7942   -5.2499    0.0000 C   0  0  0  0  0  0  0  0  0  0  0  0
  1  2  1  0
  1  3  1  0
  2  4  2  0
  2  5  1  0
  3  6  2  0
  3  7  1  0
  5  8  2  0
  5  9  1  0
  6 10  1  0
  7 11  1  0
  9 12  1  0
 10 13  1  0
 12 14  1  0
 13 15  1  0
 14 16  2  0
 14 17  1  0
 15 18  2  0
 15 19  1  0
 16 20  1  0
 17 21  2  0
 19 22  1  0
 19 23  2  0
 20 24  2  0
 22 25  1  0
 23 26  1  0
 23 27  1  0
 24 28  1  0
 25 29  2  0
 26 30  2  0
 28 31  1  0
 28 32  1  0
 29 33  1  0
 30 34  1  0
 31 35  1  0
 32 36  1  0
 35 37  1  0
 37 38  1  0
  4  6  1  0
 11 13  1  0
 21 24  1  0
 25 26  1  0
 33 34  2  0
 36 37  1  0
M  END
>  <Molecule Name>  (54) 
CTX-1020667

>  <SMILES>  (54) 
CN1CCN(CC1)C1=CC=C(CNC(=O)C2=NC3=C(CCN(C3)C(=O)C3=C(C)C4=C(O3)C=CC=C4)S2)C=C1

>  <Batch Name>  (54) 
CTX-1020667-1

>  <Batch Created Date>  (54) 
2021-12-03

>  <Batch ID>  (54) 
CTX-1020667-1

>  <External ID>  (54) 
610EDL180-C

>  <Stereochemistry>  (54) 
Achiral

>  <Amount 1>  (54) 
4.6

>  <Unit 1>  (54) 
mg

>  <CRO 1>  (54) 
Pharmaron

>  <CRO 1 Total Amount>  (54) 
7.8

>  <CRO 1 Unit>  (54) 
mg

>  <Pharmaron Solubility (PBS, pH 7.4): Aqueous Solubility - Batch Mean (uM)>  (54) 
15.157

>  <Pharmaron Solubility (PBS, pH 7.4): Aqueous Solubility - Batch Mean (uM) Standard Deviation (±)>  (54) 


>  <Pharmaron Solubility (PBS, pH 7.4): Aqueous Solubility - Batch Mean (uM) Count>  (54) 
1.0

>  <log P>  (54) 
3.63

>  <log D>  (54) 
3.0

>  <Pharmaron Caliper Assay (CDK2/CCNE1): Minimum measured (%)>  (54) 
27.5

>  <Pharmaron Caliper Assay (CDK2/CCNE1): IC50 - Batch Mean (uM)>  (54) 
0.383

>  <Pharmaron ADPGLO (CDK2/E1-25C): Minimum measured (%)>  (54) 
32.1

>  <Pharmaron ADPGLO (CDK2/E1-25C): IC50 - Batch Mean (uM)>  (54) 
0.628

>  <Pharmaron ADPGLO (CDK2/E1-37C): Minimum measured (%)>  (54) 
94.9

>  <Pharmaron ADPGLO (CDK2/E1-37C): IC50 - Batch Mean (uM)>  (54) 
100

>  <IncuCyte Kuramochi RB-WT: IC50 - Batch Mean (uM)>  (54) 
7.38

>  <IncuCyte Kuramochi RB-KO: IC50 - Batch Mean (uM)>  (54) 
7.24

>  <DSF (npCDK2/CCNE1): dTm D - Batch Mean [Concentration: 100]>  (54) 


>  <DSF (npCDK2/CCNE1): dTm D - Batch Mean [Concentration: 20.0]>  (54) 
3.398

>  <DSF (pCDK2/CCNE1): dTm D - Batch Mean [Concentration: 100]>  (54) 


>  <DSF (pCDK2/CCNE1): dTm D - Batch Mean [Concentration: 20.0]>  (54) 
2.352

>  <RLM: t1/2 - Batch Mean (Min)>  (54) 


>  <RLM: Cl int - Batch Mean (uL/min/mg protein)>  (54) 


>  <RLM: ER (Hepatic extraction ratio) - Batch Mean>  (54) 


>  <HLM: t1/2 - Batch Mean (Min)>  (54) 
13.38

>  <HLM: Cl int - Batch Mean (uL/min/mg protein)>  (54) 
103.68

>  <HLM: ER (Hepatic extraction ratio) - Batch Mean>  (54) 
0.835

>  <MDCK-WT 4% BSA: Papp (A-B) - Batch Mean (10-6, cm/s)>  (54) 


>  <MDCK-WT 4% BSA: Papp (B-A) - Batch Mean (10-6, cm/s)>  (54) 


>  <MDCK-WT 4% BSA: Efflux Ratio - Batch Mean>  (54) 


>  <MDCK-WT 4% BSA: ~Net A_B - Batch Mean (10-6, cm/s)>  (54) 


>  <pIC50>  (54) 
6.416801

>  <Selection_1>  (54) 
Y

>  <Selection_N>  (54) 
N

>  <Serie>  (54) 
Other

>  <Selection_T>  (54) 
N

>  <Train_Vs_Test>  (54) 


$$$$
CTX-1020582
     RDKit          2D

 39 44  0  0  0  0  0  0  0  0999 V2000
    9.5737   -0.0932    0.0000 S   0  0  0  0  0  0  0  0  0  0  0  0
    8.6602   -0.5000    0.0000 C   0  0  0  0  0  0  0  0  0  0  0  0
   10.2429   -0.8364    0.0000 C   0  0  0  0  0  0  0  0  0  0  0  0
    8.7647   -1.4945    0.0000 C   0  0  0  0  0  0  0  0  0  0  0  0
    7.7942    0.0000    0.0000 C   0  0  0  0  0  0  0  0  0  0  0  0
    9.7429   -1.7024    0.0000 C   0  0  0  0  0  0  0  0  0  0  0  0
   11.2429   -0.8364    0.0000 C   0  0  0  0  0  0  0  0  0  0  0  0
    8.0216   -2.1636    0.0000 C   0  0  0  0  0  0  0  0  0  0  0  0
    7.7942    0.9999    0.0000 O   0  0  0  0  0  0  0  0  0  0  0  0
    6.9282   -0.5000    0.0000 N   0  0  0  0  0  0  0  0  0  0  0  0
   10.2429   -2.5684    0.0000 C   0  0  0  0  0  0  0  0  0  0  0  0
   11.7429   -1.7024    0.0000 N   0  0  0  0  0  0  0  0  0  0  0  0
    6.0621    0.0000    0.0000 C   0  0  0  0  0  0  0  0  0  0  0  0
    6.9282   -1.4999    0.0000 C   0  0  0  0  0  0  0  0  0  0  0  0
   11.2429   -2.5684    0.0000 C   0  0  0  0  0  0  0  0  0  0  0  0
    5.1961   -0.5000    0.0000 C   0  0  0  0  0  0  0  0  0  0  0  0
    6.0621   -1.9999    0.0000 C   0  0  0  0  0  0  0  0  0  0  0  0
    4.3301    0.0000    0.0000 N   0  0  0  0  0  0  0  0  0  0  0  0
    5.1961   -1.4999    0.0000 C   0  0  0  0  0  0  0  0  0  0  0  0
    3.4641   -0.5000    0.0000 C   0  0  0  0  0  0  0  0  0  0  0  0
    4.3301   -2.0000    0.0000 C   0  0  0  0  0  0  0  0  0  0  0  0
    2.5980    0.0000    0.0000 C   0  0  0  0  0  0  0  0  0  0  0  0
    3.4641   -1.4999    0.0000 C   0  0  0  0  0  0  0  0  0  0  0  0
    2.5980    1.0000    0.0000 O   0  0  0  0  0  0  0  0  0  0  0  0
    1.7320   -0.5000    0.0000 N   0  0  0  0  0  0  0  0  0  0  0  0
    0.8660    0.0000    0.0000 C   0  0  0  0  0  0  0  0  0  0  0  0
    0.0000   -0.5000    0.0000 C   0  0  0  0  0  0  0  0  0  0  0  0
   -0.8660    0.0000    0.0000 C   0  0  0  0  0  0  0  0  0  0  0  0
    0.0000   -1.4999    0.0000 C   0  0  0  0  0  0  0  0  0  0  0  0
   -1.7320   -0.4999    0.0000 C   0  0  0  0  0  0  0  0  0  0  0  0
   -0.8660   -1.9999    0.0000 C   0  0  0  0  0  0  0  0  0  0  0  0
   -1.7320   -1.4999    0.0000 C   0  0  0  0  0  0  0  0  0  0  0  0
   -2.5980   -1.9999    0.0000 N   0  0  0  0  0  0  0  0  0  0  0  0
   -3.4641   -1.4999    0.0000 C   0  0  0  0  0  0  0  0  0  0  0  0
   -2.5980   -2.9999    0.0000 C   0  0  0  0  0  0  0  0  0  0  0  0
   -4.3301   -1.9999    0.0000 C   0  0  0  0  0  0  0  0  0  0  0  0
   -3.4641   -3.4999    0.0000 C   0  0  0  0  0  0  0  0  0  0  0  0
   -4.3301   -2.9999    0.0000 N   0  0  0  0  0  0  0  0  0  0  0  0
   -5.1961   -3.4999    0.0000 C   0  0  0  0  0  0  0  0  0  0  0  0
  1  2  1  0
  1  3  1  0
  2  4  2  0
  2  5  1  0
  3  6  2  0
  3  7  1  0
  4  8  1  0
  5  9  2  0
  5 10  1  0
  6 11  1  0
  7 12  2  0
 10 13  1  0
 10 14  1  0
 11 15  2  0
 13 16  1  0
 14 17  1  0
 16 18  2  0
 16 19  1  0
 18 20  1  0
 19 21  2  0
 20 22  1  0
 20 23  2  0
 22 24  2  0
 22 25  1  0
 25 26  1  0
 26 27  1  0
 27 28  2  0
 27 29  1  0
 28 30  1  0
 29 31  2  0
 30 32  2  0
 32 33  1  0
 33 34  1  0
 33 35  1  0
 34 36  1  0
 35 37  1  0
 36 38  1  0
 38 39  1  0
  4  6  1  0
 12 15  1  0
 17 19  1  0
 21 23  1  0
 31 32  1  0
 37 38  1  0
M  END
>  <Molecule Name>  (55) 
CTX-1020582

>  <SMILES>  (55) 
CN1CCN(CC1)C1=CC=C(CNC(=O)C2=CC=C3CCN(CC3=N2)C(=O)C2=C(C)C3=C(S2)C=NC=C3)C=C1

>  <Batch Name>  (55) 
CTX-1020582-1

>  <Batch Created Date>  (55) 
2021-11-18

>  <Batch ID>  (55) 
CTX-1020582-1

>  <External ID>  (55) 
P841-0239

>  <Stereochemistry>  (55) 
Achiral

>  <Amount 1>  (55) 
4.6

>  <Unit 1>  (55) 
mg

>  <CRO 1>  (55) 
Pharmaron

>  <CRO 1 Total Amount>  (55) 
15.7

>  <CRO 1 Unit>  (55) 
mg

>  <Pharmaron Solubility (PBS, pH 7.4): Aqueous Solubility - Batch Mean (uM)>  (55) 
286.6525

>  <Pharmaron Solubility (PBS, pH 7.4): Aqueous Solubility - Batch Mean (uM) Standard Deviation (±)>  (55) 


>  <Pharmaron Solubility (PBS, pH 7.4): Aqueous Solubility - Batch Mean (uM) Count>  (55) 
1.0

>  <log P>  (55) 
3.34

>  <log D>  (55) 
2.71

>  <Pharmaron Caliper Assay (CDK2/CCNE1): Minimum measured (%)>  (55) 
80.0

>  <Pharmaron Caliper Assay (CDK2/CCNE1): IC50 - Batch Mean (uM)>  (55) 
2.2

>  <Pharmaron ADPGLO (CDK2/E1-25C): Minimum measured (%)>  (55) 


>  <Pharmaron ADPGLO (CDK2/E1-25C): IC50 - Batch Mean (uM)>  (55) 


>  <Pharmaron ADPGLO (CDK2/E1-37C): Minimum measured (%)>  (55) 


>  <Pharmaron ADPGLO (CDK2/E1-37C): IC50 - Batch Mean (uM)>  (55) 


>  <IncuCyte Kuramochi RB-WT: IC50 - Batch Mean (uM)>  (55) 
8.4

>  <IncuCyte Kuramochi RB-KO: IC50 - Batch Mean (uM)>  (55) 
8.12

>  <DSF (npCDK2/CCNE1): dTm D - Batch Mean [Concentration: 100]>  (55) 


>  <DSF (npCDK2/CCNE1): dTm D - Batch Mean [Concentration: 20.0]>  (55) 
0.534

>  <DSF (pCDK2/CCNE1): dTm D - Batch Mean [Concentration: 100]>  (55) 


>  <DSF (pCDK2/CCNE1): dTm D - Batch Mean [Concentration: 20.0]>  (55) 
0.179

>  <RLM: t1/2 - Batch Mean (Min)>  (55) 


>  <RLM: Cl int - Batch Mean (uL/min/mg protein)>  (55) 


>  <RLM: ER (Hepatic extraction ratio) - Batch Mean>  (55) 


>  <HLM: t1/2 - Batch Mean (Min)>  (55) 


>  <HLM: Cl int - Batch Mean (uL/min/mg protein)>  (55) 


>  <HLM: ER (Hepatic extraction ratio) - Batch Mean>  (55) 


>  <MDCK-WT 4% BSA: Papp (A-B) - Batch Mean (10-6, cm/s)>  (55) 


>  <MDCK-WT 4% BSA: Papp (B-A) - Batch Mean (10-6, cm/s)>  (55) 


>  <MDCK-WT 4% BSA: Efflux Ratio - Batch Mean>  (55) 


>  <MDCK-WT 4% BSA: ~Net A_B - Batch Mean (10-6, cm/s)>  (55) 


>  <pIC50>  (55) 
5.657577

>  <Selection_1>  (55) 
Y

>  <Selection_N>  (55) 


>  <Serie>  (55) 
Naphthyridine

>  <Selection_T>  (55) 
N

>  <Train_Vs_Test>  (55) 


$$$$
CTX-1020566
     RDKit          2D

 33 37  0  0  0  0  0  0  0  0999 V2000
    5.1961   -0.7500    0.0000 O   0  0  0  0  0  0  0  0  0  0  0  0
    3.8971    0.0000    0.0000 C   0  0  0  0  0  0  0  0  0  0  0  0
    2.5980   -0.7500    0.0000 N   0  0  0  0  0  0  0  0  0  0  0  0
    3.8971    1.5000    0.0000 C   0  0  0  0  0  0  0  0  0  0  0  0
    1.2990    0.0000    0.0000 C   0  0  0  0  0  0  0  0  0  0  0  0
    5.1961    2.2500    0.0000 N   0  0  0  0  0  0  0  0  0  0  0  0
    2.5980    2.2500    0.0000 C   0  0  0  0  0  0  0  0  0  0  0  0
    0.0000   -0.7500    0.0000 C   0  0  0  0  0  0  0  0  0  0  0  0
    5.1961    3.7500    0.0000 C   0  0  0  0  0  0  0  0  0  0  0  0
    2.5980    3.7500    0.0000 C   0  0  0  0  0  0  0  0  0  0  0  0
   -1.2990    0.0000    0.0000 C   0  0  0  0  0  0  0  0  0  0  0  0
    0.0000   -2.2500    0.0000 C   0  0  0  0  0  0  0  0  0  0  0  0
    3.8971    4.5000    0.0000 C   0  0  0  0  0  0  0  0  0  0  0  0
    6.4951    4.5000    0.0000 C   0  0  0  0  0  0  0  0  0  0  0  0
   -2.5980   -0.7499    0.0000 C   0  0  0  0  0  0  0  0  0  0  0  0
   -1.2990   -2.9999    0.0000 C   0  0  0  0  0  0  0  0  0  0  0  0
    3.8971    6.0000    0.0000 C   0  0  0  0  0  0  0  0  0  0  0  0
    6.4951    6.0000    0.0000 N   0  0  0  0  0  0  0  0  0  0  0  0
   -2.5980   -2.2499    0.0000 C   0  0  0  0  0  0  0  0  0  0  0  0
    5.1961    6.7500    0.0000 C   0  0  0  0  0  0  0  0  0  0  0  0
    7.7942    6.7500    0.0000 C   0  0  0  0  0  0  0  0  0  0  0  0
   -3.8971   -2.9999    0.0000 O   0  0  0  0  0  0  0  0  0  0  0  0
    9.0932    6.0000    0.0000 O   0  0  0  0  0  0  0  0  0  0  0  0
    7.7942    8.2500    0.0000 C   0  0  0  0  0  0  0  0  0  0  0  0
    9.0077    9.1316    0.0000 O   0  0  0  0  0  0  0  0  0  0  0  0
    6.5807    9.1316    0.0000 C   0  0  0  0  0  0  0  0  0  0  0  0
    8.5442   10.5582    0.0000 C   0  0  0  0  0  0  0  0  0  0  0  0
    7.0442   10.5582    0.0000 C   0  0  0  0  0  0  0  0  0  0  0  0
    5.1541    8.6681    0.0000 C   0  0  0  0  0  0  0  0  0  0  0  0
    9.2942   11.8573    0.0000 C   0  0  0  0  0  0  0  0  0  0  0  0
    6.2942   11.8573    0.0000 C   0  0  0  0  0  0  0  0  0  0  0  0
    8.5442   13.1563    0.0000 C   0  0  0  0  0  0  0  0  0  0  0  0
    7.0442   13.1563    0.0000 C   0  0  0  0  0  0  0  0  0  0  0  0
  1  2  2  0
  2  3  1  0
  2  4  1  0
  3  5  1  0
  4  6  2  0
  4  7  1  0
  5  8  1  0
  6  9  1  0
  7 10  2  0
  8 11  2  0
  8 12  1  0
  9 13  2  0
  9 14  1  0
 11 15  1  0
 12 16  2  0
 13 17  1  0
 14 18  1  0
 15 19  2  0
 17 20  1  0
 18 21  1  0
 19 22  1  0
 21 23  2  0
 21 24  1  0
 24 25  1  0
 24 26  2  0
 25 27  1  0
 26 28  1  0
 26 29  1  0
 27 30  2  0
 28 31  2  0
 30 32  1  0
 31 33  1  0
 10 13  1  0
 16 19  1  0
 18 20  1  0
 27 28  1  0
 32 33  2  0
M  END
>  <Molecule Name>  (56) 
CTX-1020566

>  <SMILES>  (56) 
CC1=C(OC2=C1C=CC=C2)C(=O)N1CCC2=C(C1)N=C(C=C2)C(=O)NCC1=CC=C(O)C=C1

>  <Batch Name>  (56) 
CTX-1020566-1

>  <Batch Created Date>  (56) 
2021-11-18

>  <Batch ID>  (56) 
CTX-1020566-1

>  <External ID>  (56) 
P841-0232

>  <Stereochemistry>  (56) 
Achiral

>  <Amount 1>  (56) 
3.9

>  <Unit 1>  (56) 
mg

>  <CRO 1>  (56) 
Pharmaron

>  <CRO 1 Total Amount>  (56) 
22.5

>  <CRO 1 Unit>  (56) 
mg

>  <Pharmaron Solubility (PBS, pH 7.4): Aqueous Solubility - Batch Mean (uM)>  (56) 
0.1229

>  <Pharmaron Solubility (PBS, pH 7.4): Aqueous Solubility - Batch Mean (uM) Standard Deviation (±)>  (56) 


>  <Pharmaron Solubility (PBS, pH 7.4): Aqueous Solubility - Batch Mean (uM) Count>  (56) 
1.0

>  <log P>  (56) 
3.37

>  <log D>  (56) 
3.37

>  <Pharmaron Caliper Assay (CDK2/CCNE1): Minimum measured (%)>  (56) 
53.3

>  <Pharmaron Caliper Assay (CDK2/CCNE1): IC50 - Batch Mean (uM)>  (56) 
3.88

>  <Pharmaron ADPGLO (CDK2/E1-25C): Minimum measured (%)>  (56) 


>  <Pharmaron ADPGLO (CDK2/E1-25C): IC50 - Batch Mean (uM)>  (56) 


>  <Pharmaron ADPGLO (CDK2/E1-37C): Minimum measured (%)>  (56) 


>  <Pharmaron ADPGLO (CDK2/E1-37C): IC50 - Batch Mean (uM)>  (56) 


>  <IncuCyte Kuramochi RB-WT: IC50 - Batch Mean (uM)>  (56) 
12.9

>  <IncuCyte Kuramochi RB-KO: IC50 - Batch Mean (uM)>  (56) 
12.2

>  <DSF (npCDK2/CCNE1): dTm D - Batch Mean [Concentration: 100]>  (56) 


>  <DSF (npCDK2/CCNE1): dTm D - Batch Mean [Concentration: 20.0]>  (56) 
1.537

>  <DSF (pCDK2/CCNE1): dTm D - Batch Mean [Concentration: 100]>  (56) 


>  <DSF (pCDK2/CCNE1): dTm D - Batch Mean [Concentration: 20.0]>  (56) 
0.451

>  <RLM: t1/2 - Batch Mean (Min)>  (56) 


>  <RLM: Cl int - Batch Mean (uL/min/mg protein)>  (56) 


>  <RLM: ER (Hepatic extraction ratio) - Batch Mean>  (56) 


>  <HLM: t1/2 - Batch Mean (Min)>  (56) 


>  <HLM: Cl int - Batch Mean (uL/min/mg protein)>  (56) 


>  <HLM: ER (Hepatic extraction ratio) - Batch Mean>  (56) 


>  <MDCK-WT 4% BSA: Papp (A-B) - Batch Mean (10-6, cm/s)>  (56) 


>  <MDCK-WT 4% BSA: Papp (B-A) - Batch Mean (10-6, cm/s)>  (56) 


>  <MDCK-WT 4% BSA: Efflux Ratio - Batch Mean>  (56) 


>  <MDCK-WT 4% BSA: ~Net A_B - Batch Mean (10-6, cm/s)>  (56) 


>  <pIC50>  (56) 
5.411168

>  <Selection_1>  (56) 
Y

>  <Selection_N>  (56) 


>  <Serie>  (56) 
Naphthyridine

>  <Selection_T>  (56) 
N

>  <Train_Vs_Test>  (56) 


$$$$
CTX-1020565
     RDKit          2D

 38 43  0  0  0  0  0  0  0  0999 V2000
    5.1961   -0.7500    0.0000 O   0  0  0  0  0  0  0  0  0  0  0  0
    3.8971    0.0000    0.0000 C   0  0  0  0  0  0  0  0  0  0  0  0
    2.5980   -0.7500    0.0000 N   0  0  0  0  0  0  0  0  0  0  0  0
    3.8971    1.5000    0.0000 C   0  0  0  0  0  0  0  0  0  0  0  0
    1.2990    0.0000    0.0000 C   0  0  0  0  0  0  0  0  0  0  0  0
    5.1961    2.2500    0.0000 N   0  0  0  0  0  0  0  0  0  0  0  0
    2.5980    2.2500    0.0000 C   0  0  0  0  0  0  0  0  0  0  0  0
    0.0000   -0.7500    0.0000 C   0  0  0  0  0  0  0  0  0  0  0  0
    5.1961    3.7500    0.0000 C   0  0  0  0  0  0  0  0  0  0  0  0
    2.5980    3.7500    0.0000 C   0  0  0  0  0  0  0  0  0  0  0  0
   -1.2990    0.0000    0.0000 C   0  0  0  0  0  0  0  0  0  0  0  0
    0.0000   -2.2499    0.0000 C   0  0  0  0  0  0  0  0  0  0  0  0
    3.8971    4.5000    0.0000 C   0  0  0  0  0  0  0  0  0  0  0  0
    6.4951    4.5000    0.0000 C   0  0  0  0  0  0  0  0  0  0  0  0
   -2.5980   -0.7499    0.0000 C   0  0  0  0  0  0  0  0  0  0  0  0
   -1.2990   -2.9999    0.0000 C   0  0  0  0  0  0  0  0  0  0  0  0
    3.8971    6.0000    0.0000 C   0  0  0  0  0  0  0  0  0  0  0  0
    6.4951    6.0000    0.0000 N   0  0  0  0  0  0  0  0  0  0  0  0
   -2.5980   -2.2499    0.0000 C   0  0  0  0  0  0  0  0  0  0  0  0
    5.1961    6.7500    0.0000 C   0  0  0  0  0  0  0  0  0  0  0  0
    7.7942    6.7500    0.0000 C   0  0  0  0  0  0  0  0  0  0  0  0
   -3.8971   -2.9999    0.0000 N   0  0  0  0  0  0  0  0  0  0  0  0
    9.0932    6.0000    0.0000 O   0  0  0  0  0  0  0  0  0  0  0  0
    7.7942    8.2500    0.0000 C   0  0  0  0  0  0  0  0  0  0  0  0
   -5.1961   -2.2499    0.0000 C   0  0  0  0  0  0  0  0  0  0  0  0
   -3.8971   -4.4999    0.0000 C   0  0  0  0  0  0  0  0  0  0  0  0
    9.0077    9.1316    0.0000 O   0  0  0  0  0  0  0  0  0  0  0  0
    6.5807    9.1316    0.0000 C   0  0  0  0  0  0  0  0  0  0  0  0
   -6.4951   -2.9999    0.0000 C   0  0  0  0  0  0  0  0  0  0  0  0
   -5.1961   -5.2499    0.0000 C   0  0  0  0  0  0  0  0  0  0  0  0
    8.5442   10.5582    0.0000 C   0  0  0  0  0  0  0  0  0  0  0  0
    7.0442   10.5582    0.0000 C   0  0  0  0  0  0  0  0  0  0  0  0
    5.1541    8.6681    0.0000 C   0  0  0  0  0  0  0  0  0  0  0  0
   -6.4951   -4.4999    0.0000 O   0  0  0  0  0  0  0  0  0  0  0  0
    9.2942   11.8573    0.0000 C   0  0  0  0  0  0  0  0  0  0  0  0
    6.2942   11.8573    0.0000 C   0  0  0  0  0  0  0  0  0  0  0  0
    8.5442   13.1563    0.0000 C   0  0  0  0  0  0  0  0  0  0  0  0
    7.0442   13.1563    0.0000 C   0  0  0  0  0  0  0  0  0  0  0  0
  1  2  2  0
  2  3  1  0
  2  4  1  0
  3  5  1  0
  4  6  2  0
  4  7  1  0
  5  8  1  0
  6  9  1  0
  7 10  2  0
  8 11  2  0
  8 12  1  0
  9 13  2  0
  9 14  1  0
 11 15  1  0
 12 16  2  0
 13 17  1  0
 14 18  1  0
 15 19  2  0
 17 20  1  0
 18 21  1  0
 19 22  1  0
 21 23  2  0
 21 24  1  0
 22 25  1  0
 22 26  1  0
 24 27  1  0
 24 28  2  0
 25 29  1  0
 26 30  1  0
 27 31  1  0
 28 32  1  0
 28 33  1  0
 29 34  1  0
 31 35  2  0
 32 36  2  0
 35 37  1  0
 36 38  1  0
 10 13  1  0
 16 19  1  0
 18 20  1  0
 30 34  1  0
 31 32  1  0
 37 38  2  0
M  END
>  <Molecule Name>  (57) 
CTX-1020565

>  <SMILES>  (57) 
CC1=C(OC2=C1C=CC=C2)C(=O)N1CCC2=C(C1)N=C(C=C2)C(=O)NCC1=CC=C(C=C1)N1CCOCC1

>  <Batch Name>  (57) 
CTX-1020565-1

>  <Batch Created Date>  (57) 
2021-11-18

>  <Batch ID>  (57) 
CTX-1020565-1

>  <External ID>  (57) 
P841-0233

>  <Stereochemistry>  (57) 
Achiral

>  <Amount 1>  (57) 
5.15

>  <Unit 1>  (57) 
mg

>  <CRO 1>  (57) 
Pharmaron

>  <CRO 1 Total Amount>  (57) 
11.5

>  <CRO 1 Unit>  (57) 
mg

>  <Pharmaron Solubility (PBS, pH 7.4): Aqueous Solubility - Batch Mean (uM)>  (57) 
0.0028

>  <Pharmaron Solubility (PBS, pH 7.4): Aqueous Solubility - Batch Mean (uM) Standard Deviation (±)>  (57) 


>  <Pharmaron Solubility (PBS, pH 7.4): Aqueous Solubility - Batch Mean (uM) Count>  (57) 
1.0

>  <log P>  (57) 
3.57

>  <log D>  (57) 
3.57

>  <Pharmaron Caliper Assay (CDK2/CCNE1): Minimum measured (%)>  (57) 
43.6

>  <Pharmaron Caliper Assay (CDK2/CCNE1): IC50 - Batch Mean (uM)>  (57) 
1.55

>  <Pharmaron ADPGLO (CDK2/E1-25C): Minimum measured (%)>  (57) 


>  <Pharmaron ADPGLO (CDK2/E1-25C): IC50 - Batch Mean (uM)>  (57) 


>  <Pharmaron ADPGLO (CDK2/E1-37C): Minimum measured (%)>  (57) 


>  <Pharmaron ADPGLO (CDK2/E1-37C): IC50 - Batch Mean (uM)>  (57) 


>  <IncuCyte Kuramochi RB-WT: IC50 - Batch Mean (uM)>  (57) 
20.0

>  <IncuCyte Kuramochi RB-KO: IC50 - Batch Mean (uM)>  (57) 
20.0

>  <DSF (npCDK2/CCNE1): dTm D - Batch Mean [Concentration: 100]>  (57) 


>  <DSF (npCDK2/CCNE1): dTm D - Batch Mean [Concentration: 20.0]>  (57) 
1.6369999999999998

>  <DSF (pCDK2/CCNE1): dTm D - Batch Mean [Concentration: 100]>  (57) 


>  <DSF (pCDK2/CCNE1): dTm D - Batch Mean [Concentration: 20.0]>  (57) 
0.768

>  <RLM: t1/2 - Batch Mean (Min)>  (57) 


>  <RLM: Cl int - Batch Mean (uL/min/mg protein)>  (57) 


>  <RLM: ER (Hepatic extraction ratio) - Batch Mean>  (57) 


>  <HLM: t1/2 - Batch Mean (Min)>  (57) 


>  <HLM: Cl int - Batch Mean (uL/min/mg protein)>  (57) 


>  <HLM: ER (Hepatic extraction ratio) - Batch Mean>  (57) 


>  <MDCK-WT 4% BSA: Papp (A-B) - Batch Mean (10-6, cm/s)>  (57) 


>  <MDCK-WT 4% BSA: Papp (B-A) - Batch Mean (10-6, cm/s)>  (57) 


>  <MDCK-WT 4% BSA: Efflux Ratio - Batch Mean>  (57) 


>  <MDCK-WT 4% BSA: ~Net A_B - Batch Mean (10-6, cm/s)>  (57) 


>  <pIC50>  (57) 
5.809668

>  <Selection_1>  (57) 
Y

>  <Selection_N>  (57) 


>  <Serie>  (57) 
Naphthyridine

>  <Selection_T>  (57) 
N

>  <Train_Vs_Test>  (57) 


$$$$
CTX-1020562
     RDKit          2D

 43 48  0  0  0  0  0  0  0  0999 V2000
    9.6602   -4.5000    0.0000 F   0  0  0  0  0  0  0  0  0  0  0  0
    8.6602   -4.5000    0.0000 C   0  0  0  0  0  0  0  0  0  0  0  0
    8.6602   -5.5000    0.0000 F   0  0  0  0  0  0  0  0  0  0  0  0
    7.6602   -4.5000    0.0000 F   0  0  0  0  0  0  0  0  0  0  0  0
    8.6602   -3.5000    0.0000 C   0  0  0  0  0  0  0  0  0  0  0  0
    7.7942   -3.0000    0.0000 N   0  0  0  0  0  0  0  0  0  0  0  0
    7.7942   -2.0000    0.0000 C   0  0  0  0  0  0  0  0  0  0  0  0
    6.9282   -3.4999    0.0000 C   0  0  0  0  0  0  0  0  0  0  0  0
    6.9282   -1.4999    0.0000 C   0  0  0  0  0  0  0  0  0  0  0  0
    6.0621   -2.9999    0.0000 C   0  0  0  0  0  0  0  0  0  0  0  0
    6.0621   -2.0000    0.0000 N   0  0  0  0  0  0  0  0  0  0  0  0
    5.1961   -1.4999    0.0000 C   0  0  0  0  0  0  0  0  0  0  0  0
    5.1961   -0.5000    0.0000 C   0  0  0  0  0  0  0  0  0  0  0  0
    4.3301   -1.9999    0.0000 C   0  0  0  0  0  0  0  0  0  0  0  0
    4.3301    0.0000    0.0000 C   0  0  0  0  0  0  0  0  0  0  0  0
    3.4641   -1.5000    0.0000 C   0  0  0  0  0  0  0  0  0  0  0  0
    3.4641   -0.5000    0.0000 C   0  0  0  0  0  0  0  0  0  0  0  0
    2.5980    0.0000    0.0000 C   0  0  0  0  0  0  0  0  0  0  0  0
    1.7320   -0.5000    0.0000 N   0  0  0  0  0  0  0  0  0  0  0  0
    0.8660    0.0000    0.0000 C   0  0  0  0  0  0  0  0  0  0  0  0
    0.8660    1.0000    0.0000 O   0  0  0  0  0  0  0  0  0  0  0  0
    0.0000   -0.5000    0.0000 C   0  0  0  0  0  0  0  0  0  0  0  0
   -0.8660    0.0000    0.0000 N   0  0  0  0  0  0  0  0  0  0  0  0
    0.0000   -1.4999    0.0000 C   0  0  0  0  0  0  0  0  0  0  0  0
   -1.7320   -0.4999    0.0000 C   0  0  0  0  0  0  0  0  0  0  0  0
   -0.8660   -1.9999    0.0000 C   0  0  0  0  0  0  0  0  0  0  0  0
   -1.7320   -1.4999    0.0000 C   0  0  0  0  0  0  0  0  0  0  0  0
   -2.5980    0.0000    0.0000 C   0  0  0  0  0  0  0  0  0  0  0  0
   -2.5980   -1.9999    0.0000 C   0  0  0  0  0  0  0  0  0  0  0  0
   -3.4641   -0.4999    0.0000 N   0  0  0  0  0  0  0  0  0  0  0  0
   -3.4641   -1.4999    0.0000 C   0  0  0  0  0  0  0  0  0  0  0  0
   -4.3301    0.0000    0.0000 C   0  0  0  0  0  0  0  0  0  0  0  0
   -4.3301    1.0000    0.0000 O   0  0  0  0  0  0  0  0  0  0  0  0
   -5.1961   -0.4999    0.0000 C   0  0  0  0  0  0  0  0  0  0  0  0
   -6.1096   -0.0932    0.0000 O   0  0  0  0  0  0  0  0  0  0  0  0
   -5.3006   -1.4945    0.0000 C   0  0  0  0  0  0  0  0  0  0  0  0
   -6.7788   -0.8364    0.0000 C   0  0  0  0  0  0  0  0  0  0  0  0
   -6.2788   -1.7024    0.0000 C   0  0  0  0  0  0  0  0  0  0  0  0
   -4.5575   -2.1636    0.0000 C   0  0  0  0  0  0  0  0  0  0  0  0
   -7.7788   -0.8364    0.0000 C   0  0  0  0  0  0  0  0  0  0  0  0
   -6.7788   -2.5684    0.0000 C   0  0  0  0  0  0  0  0  0  0  0  0
   -8.2788   -1.7024    0.0000 C   0  0  0  0  0  0  0  0  0  0  0  0
   -7.7788   -2.5684    0.0000 C   0  0  0  0  0  0  0  0  0  0  0  0
  1  2  1  0
  2  3  1  0
  2  4  1  0
  2  5  1  0
  5  6  1  0
  6  7  1  0
  6  8  1  0
  7  9  1  0
  8 10  1  0
  9 11  1  0
 11 12  1  0
 12 13  2  0
 12 14  1  0
 13 15  1  0
 14 16  2  0
 15 17  2  0
 17 18  1  0
 18 19  1  0
 19 20  1  0
 20 21  2  0
 20 22  1  0
 22 23  2  0
 22 24  1  0
 23 25  1  0
 24 26  2  0
 25 27  2  0
 25 28  1  0
 27 29  1  0
 28 30  1  0
 29 31  1  0
 30 32  1  0
 32 33  2  0
 32 34  1  0
 34 35  1  0
 34 36  2  0
 35 37  1  0
 36 38  1  0
 36 39  1  0
 37 40  2  0
 38 41  2  0
 40 42  1  0
 41 43  1  0
 10 11  1  0
 16 17  1  0
 26 27  1  0
 30 31  1  0
 37 38  1  0
 42 43  2  0
M  END
>  <Molecule Name>  (58) 
CTX-1020562

>  <SMILES>  (58) 
CC1=C(OC2=C1C=CC=C2)C(=O)N1CCC2=C(C1)N=C(C=C2)C(=O)NCC1=CC=C(C=C1)N1CCN(CC(F)(F)F)CC1

>  <Batch Name>  (58) 
CTX-1020562-1

>  <Batch Created Date>  (58) 
2021-11-18

>  <Batch ID>  (58) 
CTX-1020562-1

>  <External ID>  (58) 
P841-0237

>  <Stereochemistry>  (58) 
Achiral

>  <Amount 1>  (58) 
3.95

>  <Unit 1>  (58) 
mg

>  <CRO 1>  (58) 
Pharmaron

>  <CRO 1 Total Amount>  (58) 
40.2

>  <CRO 1 Unit>  (58) 
mg

>  <Pharmaron Solubility (PBS, pH 7.4): Aqueous Solubility - Batch Mean (uM)>  (58) 
0.0001

>  <Pharmaron Solubility (PBS, pH 7.4): Aqueous Solubility - Batch Mean (uM) Standard Deviation (±)>  (58) 


>  <Pharmaron Solubility (PBS, pH 7.4): Aqueous Solubility - Batch Mean (uM) Count>  (58) 
1.0

>  <log P>  (58) 
4.59

>  <log D>  (58) 
4.59

>  <Pharmaron Caliper Assay (CDK2/CCNE1): Minimum measured (%)>  (58) 
67.6

>  <Pharmaron Caliper Assay (CDK2/CCNE1): IC50 - Batch Mean (uM)>  (58) 
2.17

>  <Pharmaron ADPGLO (CDK2/E1-25C): Minimum measured (%)>  (58) 


>  <Pharmaron ADPGLO (CDK2/E1-25C): IC50 - Batch Mean (uM)>  (58) 


>  <Pharmaron ADPGLO (CDK2/E1-37C): Minimum measured (%)>  (58) 


>  <Pharmaron ADPGLO (CDK2/E1-37C): IC50 - Batch Mean (uM)>  (58) 


>  <IncuCyte Kuramochi RB-WT: IC50 - Batch Mean (uM)>  (58) 
20.0

>  <IncuCyte Kuramochi RB-KO: IC50 - Batch Mean (uM)>  (58) 
20.0

>  <DSF (npCDK2/CCNE1): dTm D - Batch Mean [Concentration: 100]>  (58) 


>  <DSF (npCDK2/CCNE1): dTm D - Batch Mean [Concentration: 20.0]>  (58) 
0.434

>  <DSF (pCDK2/CCNE1): dTm D - Batch Mean [Concentration: 100]>  (58) 


>  <DSF (pCDK2/CCNE1): dTm D - Batch Mean [Concentration: 20.0]>  (58) 
0.207

>  <RLM: t1/2 - Batch Mean (Min)>  (58) 


>  <RLM: Cl int - Batch Mean (uL/min/mg protein)>  (58) 


>  <RLM: ER (Hepatic extraction ratio) - Batch Mean>  (58) 


>  <HLM: t1/2 - Batch Mean (Min)>  (58) 


>  <HLM: Cl int - Batch Mean (uL/min/mg protein)>  (58) 


>  <HLM: ER (Hepatic extraction ratio) - Batch Mean>  (58) 


>  <MDCK-WT 4% BSA: Papp (A-B) - Batch Mean (10-6, cm/s)>  (58) 


>  <MDCK-WT 4% BSA: Papp (B-A) - Batch Mean (10-6, cm/s)>  (58) 


>  <MDCK-WT 4% BSA: Efflux Ratio - Batch Mean>  (58) 


>  <MDCK-WT 4% BSA: ~Net A_B - Batch Mean (10-6, cm/s)>  (58) 


>  <pIC50>  (58) 
5.66354

>  <Selection_1>  (58) 
Y

>  <Selection_N>  (58) 


>  <Serie>  (58) 
Naphthyridine

>  <Selection_T>  (58) 
N

>  <Train_Vs_Test>  (58) 


$$$$
CTX-1020555
     RDKit          2D

 38 43  0  0  0  0  0  0  0  0999 V2000
    3.2986   -7.9981    0.0000 Cl  0  0  0  0  0  0  0  0  0  0  0  0
    4.7252   -7.5346    0.0000 C   0  0  0  0  0  0  0  0  0  0  0  0
    5.8399   -8.5383    0.0000 C   0  0  0  0  0  0  0  0  0  0  0  0
    5.0370   -6.0673    0.0000 C   0  0  0  0  0  0  0  0  0  0  0  0
    7.2665   -8.0747    0.0000 N   0  0  0  0  0  0  0  0  0  0  0  0
    6.4636   -5.6038    0.0000 C   0  0  0  0  0  0  0  0  0  0  0  0
    8.5655   -8.8247    0.0000 N   0  0  0  0  0  0  0  0  0  0  0  0
    7.5783   -6.6075    0.0000 C   0  0  0  0  0  0  0  0  0  0  0  0
    9.6802   -7.8210    0.0000 C   0  0  0  0  0  0  0  0  0  0  0  0
    9.0701   -6.4507    0.0000 C   0  0  0  0  0  0  0  0  0  0  0  0
    9.8201   -5.1517    0.0000 C   0  0  0  0  0  0  0  0  0  0  0  0
   11.3201   -5.1517    0.0000 O   0  0  0  0  0  0  0  0  0  0  0  0
    9.0701   -3.8526    0.0000 N   0  0  0  0  0  0  0  0  0  0  0  0
    7.5701   -3.8526    0.0000 C   0  0  0  0  0  0  0  0  0  0  0  0
    9.8201   -2.5536    0.0000 C   0  0  0  0  0  0  0  0  0  0  0  0
    6.8201   -2.5536    0.0000 C   0  0  0  0  0  0  0  0  0  0  0  0
    9.0701   -1.2546    0.0000 C   0  0  0  0  0  0  0  0  0  0  0  0
    7.5701   -1.2546    0.0000 C   0  0  0  0  0  0  0  0  0  0  0  0
    5.3529   -2.2417    0.0000 C   0  0  0  0  0  0  0  0  0  0  0  0
    6.5664   -0.1398    0.0000 S   0  0  0  0  0  0  0  0  0  0  0  0
    5.1961   -0.7500    0.0000 C   0  0  0  0  0  0  0  0  0  0  0  0
    3.8971    0.0000    0.0000 C   0  0  0  0  0  0  0  0  0  0  0  0
    3.8971    1.5000    0.0000 O   0  0  0  0  0  0  0  0  0  0  0  0
    2.5980   -0.7500    0.0000 N   0  0  0  0  0  0  0  0  0  0  0  0
    1.2990    0.0000    0.0000 C   0  0  0  0  0  0  0  0  0  0  0  0
    0.0000   -0.7500    0.0000 C   0  0  0  0  0  0  0  0  0  0  0  0
   -1.2990    0.0000    0.0000 C   0  0  0  0  0  0  0  0  0  0  0  0
    0.0000   -2.2499    0.0000 C   0  0  0  0  0  0  0  0  0  0  0  0
   -2.5980   -0.7499    0.0000 C   0  0  0  0  0  0  0  0  0  0  0  0
   -1.2990   -2.9999    0.0000 C   0  0  0  0  0  0  0  0  0  0  0  0
   -2.5980   -2.2499    0.0000 C   0  0  0  0  0  0  0  0  0  0  0  0
   -3.8971   -2.9999    0.0000 N   0  0  0  0  0  0  0  0  0  0  0  0
   -5.1961   -2.2499    0.0000 C   0  0  0  0  0  0  0  0  0  0  0  0
   -3.8971   -4.4999    0.0000 C   0  0  0  0  0  0  0  0  0  0  0  0
   -6.4951   -2.9999    0.0000 C   0  0  0  0  0  0  0  0  0  0  0  0
   -5.1961   -5.2499    0.0000 C   0  0  0  0  0  0  0  0  0  0  0  0
   -6.4951   -4.4999    0.0000 N   0  0  0  0  0  0  0  0  0  0  0  0
   -7.7942   -5.2499    0.0000 C   0  0  0  0  0  0  0  0  0  0  0  0
  1  2  1  0
  2  3  2  0
  2  4  1  0
  3  5  1  0
  4  6  2  0
  5  7  1  0
  5  8  1  0
  7  9  2  0
  8 10  2  0
 10 11  1  0
 11 12  2  0
 11 13  1  0
 13 14  1  0
 13 15  1  0
 14 16  1  0
 15 17  1  0
 16 18  2  0
 16 19  1  0
 18 20  1  0
 19 21  2  0
 21 22  1  0
 22 23  2  0
 22 24  1  0
 24 25  1  0
 25 26  1  0
 26 27  2  0
 26 28  1  0
 27 29  1  0
 28 30  2  0
 29 31  2  0
 31 32  1  0
 32 33  1  0
 32 34  1  0
 33 35  1  0
 34 36  1  0
 35 37  1  0
 37 38  1  0
  6  8  1  0
  9 10  1  0
 17 18  1  0
 20 21  1  0
 30 31  1  0
 36 37  1  0
M  END
>  <Molecule Name>  (59) 
CTX-1020555

>  <SMILES>  (59) 
CN1CCN(CC1)C1=CC=C(CNC(=O)C2=CC3=C(CCN(C3)C(=O)C3=C4C=CC(Cl)=CN4N=C3)S2)C=C1

>  <Batch Name>  (59) 
CTX-1020555-1

>  <Batch Created Date>  (59) 
2021-11-18

>  <Batch ID>  (59) 
CTX-1020555-1

>  <External ID>  (59) 
CD-44-K

>  <Stereochemistry>  (59) 
Achiral

>  <Amount 1>  (59) 
2.5

>  <Unit 1>  (59) 
mg

>  <CRO 1>  (59) 
Pharmaron

>  <CRO 1 Total Amount>  (59) 
12.2

>  <CRO 1 Unit>  (59) 
mg

>  <Pharmaron Solubility (PBS, pH 7.4): Aqueous Solubility - Batch Mean (uM)>  (59) 
118.75

>  <Pharmaron Solubility (PBS, pH 7.4): Aqueous Solubility - Batch Mean (uM) Standard Deviation (±)>  (59) 


>  <Pharmaron Solubility (PBS, pH 7.4): Aqueous Solubility - Batch Mean (uM) Count>  (59) 
1.0

>  <log P>  (59) 
3.97

>  <log D>  (59) 
3.34

>  <Pharmaron Caliper Assay (CDK2/CCNE1): Minimum measured (%)>  (59) 
74.6

>  <Pharmaron Caliper Assay (CDK2/CCNE1): IC50 - Batch Mean (uM)>  (59) 
6.46

>  <Pharmaron ADPGLO (CDK2/E1-25C): Minimum measured (%)>  (59) 


>  <Pharmaron ADPGLO (CDK2/E1-25C): IC50 - Batch Mean (uM)>  (59) 


>  <Pharmaron ADPGLO (CDK2/E1-37C): Minimum measured (%)>  (59) 


>  <Pharmaron ADPGLO (CDK2/E1-37C): IC50 - Batch Mean (uM)>  (59) 


>  <IncuCyte Kuramochi RB-WT: IC50 - Batch Mean (uM)>  (59) 
7.34

>  <IncuCyte Kuramochi RB-KO: IC50 - Batch Mean (uM)>  (59) 
20.0

>  <DSF (npCDK2/CCNE1): dTm D - Batch Mean [Concentration: 100]>  (59) 


>  <DSF (npCDK2/CCNE1): dTm D - Batch Mean [Concentration: 20.0]>  (59) 


>  <DSF (pCDK2/CCNE1): dTm D - Batch Mean [Concentration: 100]>  (59) 


>  <DSF (pCDK2/CCNE1): dTm D - Batch Mean [Concentration: 20.0]>  (59) 
0.741

>  <RLM: t1/2 - Batch Mean (Min)>  (59) 


>  <RLM: Cl int - Batch Mean (uL/min/mg protein)>  (59) 


>  <RLM: ER (Hepatic extraction ratio) - Batch Mean>  (59) 


>  <HLM: t1/2 - Batch Mean (Min)>  (59) 


>  <HLM: Cl int - Batch Mean (uL/min/mg protein)>  (59) 


>  <HLM: ER (Hepatic extraction ratio) - Batch Mean>  (59) 


>  <MDCK-WT 4% BSA: Papp (A-B) - Batch Mean (10-6, cm/s)>  (59) 


>  <MDCK-WT 4% BSA: Papp (B-A) - Batch Mean (10-6, cm/s)>  (59) 


>  <MDCK-WT 4% BSA: Efflux Ratio - Batch Mean>  (59) 


>  <MDCK-WT 4% BSA: ~Net A_B - Batch Mean (10-6, cm/s)>  (59) 


>  <pIC50>  (59) 
5.189767

>  <Selection_1>  (59) 
Y

>  <Selection_N>  (59) 
N

>  <Serie>  (59) 
Tetrahydrothienopyridine

>  <Selection_T>  (59) 


>  <Train_Vs_Test>  (59) 


$$$$
CTX-1020523
     RDKit          2D

 39 44  0  0  0  0  0  0  0  0999 V2000
    5.1961   -0.7500    0.0000 O   0  0  0  0  0  0  0  0  0  0  0  0
    3.8971    0.0000    0.0000 C   0  0  0  0  0  0  0  0  0  0  0  0
    2.5980   -0.7500    0.0000 N   0  0  0  0  0  0  0  0  0  0  0  0
    3.8971    1.5000    0.0000 C   0  0  0  0  0  0  0  0  0  0  0  0
    1.2990    0.0000    0.0000 C   0  0  0  0  0  0  0  0  0  0  0  0
    5.1961    2.2500    0.0000 N   0  0  0  0  0  0  0  0  0  0  0  0
    2.5980    2.2500    0.0000 N   0  0  0  0  0  0  0  0  0  0  0  0
    0.0000   -0.7500    0.0000 C   0  0  0  0  0  0  0  0  0  0  0  0
    5.1961    3.7500    0.0000 C   0  0  0  0  0  0  0  0  0  0  0  0
    2.5980    3.7500    0.0000 C   0  0  0  0  0  0  0  0  0  0  0  0
   -1.2990    0.0000    0.0000 C   0  0  0  0  0  0  0  0  0  0  0  0
    0.0000   -2.2499    0.0000 C   0  0  0  0  0  0  0  0  0  0  0  0
    3.8971    4.5000    0.0000 C   0  0  0  0  0  0  0  0  0  0  0  0
    6.4951    4.5000    0.0000 C   0  0  0  0  0  0  0  0  0  0  0  0
   -2.5980   -0.7499    0.0000 C   0  0  0  0  0  0  0  0  0  0  0  0
   -1.2990   -2.9999    0.0000 C   0  0  0  0  0  0  0  0  0  0  0  0
    3.8971    6.0000    0.0000 C   0  0  0  0  0  0  0  0  0  0  0  0
    6.4951    6.0000    0.0000 N   0  0  0  0  0  0  0  0  0  0  0  0
   -2.5980   -2.2499    0.0000 C   0  0  0  0  0  0  0  0  0  0  0  0
    5.1961    6.7500    0.0000 C   0  0  0  0  0  0  0  0  0  0  0  0
    7.7942    6.7500    0.0000 C   0  0  0  0  0  0  0  0  0  0  0  0
   -3.8971   -2.9999    0.0000 N   0  0  0  0  0  0  0  0  0  0  0  0
    9.0932    6.0000    0.0000 O   0  0  0  0  0  0  0  0  0  0  0  0
    7.7942    8.2500    0.0000 C   0  0  0  0  0  0  0  0  0  0  0  0
   -5.1961   -2.2499    0.0000 C   0  0  0  0  0  0  0  0  0  0  0  0
   -3.8971   -4.4999    0.0000 C   0  0  0  0  0  0  0  0  0  0  0  0
    9.0077    9.1316    0.0000 O   0  0  0  0  0  0  0  0  0  0  0  0
    6.5807    9.1316    0.0000 C   0  0  0  0  0  0  0  0  0  0  0  0
   -6.4951   -2.9999    0.0000 C   0  0  0  0  0  0  0  0  0  0  0  0
   -5.1961   -5.2499    0.0000 C   0  0  0  0  0  0  0  0  0  0  0  0
    8.5442   10.5582    0.0000 C   0  0  0  0  0  0  0  0  0  0  0  0
    7.0442   10.5582    0.0000 C   0  0  0  0  0  0  0  0  0  0  0  0
    5.1541    8.6681    0.0000 C   0  0  0  0  0  0  0  0  0  0  0  0
   -6.4951   -4.4999    0.0000 N   0  0  0  0  0  0  0  0  0  0  0  0
    9.2942   11.8573    0.0000 C   0  0  0  0  0  0  0  0  0  0  0  0
    6.2942   11.8573    0.0000 C   0  0  0  0  0  0  0  0  0  0  0  0
   -7.7942   -5.2499    0.0000 C   0  0  0  0  0  0  0  0  0  0  0  0
    8.5442   13.1563    0.0000 C   0  0  0  0  0  0  0  0  0  0  0  0
    7.0442   13.1563    0.0000 C   0  0  0  0  0  0  0  0  0  0  0  0
  1  2  2  0
  2  3  1  0
  2  4  1  0
  3  5  1  0
  4  6  2  0
  4  7  1  0
  5  8  1  0
  6  9  1  0
  7 10  2  0
  8 11  2  0
  8 12  1  0
  9 13  2  0
  9 14  1  0
 11 15  1  0
 12 16  2  0
 13 17  1  0
 14 18  1  0
 15 19  2  0
 17 20  1  0
 18 21  1  0
 19 22  1  0
 21 23  2  0
 21 24  1  0
 22 25  1  0
 22 26  1  0
 24 27  1  0
 24 28  2  0
 25 29  1  0
 26 30  1  0
 27 31  1  0
 28 32  1  0
 28 33  1  0
 29 34  1  0
 31 35  2  0
 32 36  2  0
 34 37  1  0
 35 38  1  0
 36 39  1  0
 10 13  1  0
 16 19  1  0
 18 20  1  0
 30 34  1  0
 31 32  1  0
 38 39  2  0
M  END
>  <Molecule Name>  (60) 
CTX-1020523

>  <SMILES>  (60) 
CN1CCN(CC1)C1=CC=C(CNC(=O)C2=NC=C3CCN(CC3=N2)C(=O)C2=C(C)C3=C(O2)C=CC=C3)C=C1

>  <Batch Name>  (60) 
CTX-1020523-1

>  <Batch Created Date>  (60) 
2021-11-04

>  <Batch ID>  (60) 
CTX-1020523-1

>  <External ID>  (60) 
610EDL081-B

>  <Stereochemistry>  (60) 
Achiral

>  <Amount 1>  (60) 
5.3

>  <Unit 1>  (60) 
mg

>  <CRO 1>  (60) 
Pharmaron

>  <CRO 1 Total Amount>  (60) 
23.0

>  <CRO 1 Unit>  (60) 
mg

>  <Pharmaron Solubility (PBS, pH 7.4): Aqueous Solubility - Batch Mean (uM)>  (60) 
78.7748

>  <Pharmaron Solubility (PBS, pH 7.4): Aqueous Solubility - Batch Mean (uM) Standard Deviation (±)>  (60) 


>  <Pharmaron Solubility (PBS, pH 7.4): Aqueous Solubility - Batch Mean (uM) Count>  (60) 
1.0

>  <log P>  (60) 
3.33

>  <log D>  (60) 
2.69

>  <Pharmaron Caliper Assay (CDK2/CCNE1): Minimum measured (%)>  (60) 
76.7

>  <Pharmaron Caliper Assay (CDK2/CCNE1): IC50 - Batch Mean (uM)>  (60) 
6.52

>  <Pharmaron ADPGLO (CDK2/E1-25C): Minimum measured (%)>  (60) 


>  <Pharmaron ADPGLO (CDK2/E1-25C): IC50 - Batch Mean (uM)>  (60) 


>  <Pharmaron ADPGLO (CDK2/E1-37C): Minimum measured (%)>  (60) 


>  <Pharmaron ADPGLO (CDK2/E1-37C): IC50 - Batch Mean (uM)>  (60) 


>  <IncuCyte Kuramochi RB-WT: IC50 - Batch Mean (uM)>  (60) 


>  <IncuCyte Kuramochi RB-KO: IC50 - Batch Mean (uM)>  (60) 


>  <DSF (npCDK2/CCNE1): dTm D - Batch Mean [Concentration: 100]>  (60) 


>  <DSF (npCDK2/CCNE1): dTm D - Batch Mean [Concentration: 20.0]>  (60) 
0.765

>  <DSF (pCDK2/CCNE1): dTm D - Batch Mean [Concentration: 100]>  (60) 


>  <DSF (pCDK2/CCNE1): dTm D - Batch Mean [Concentration: 20.0]>  (60) 


>  <RLM: t1/2 - Batch Mean (Min)>  (60) 


>  <RLM: Cl int - Batch Mean (uL/min/mg protein)>  (60) 


>  <RLM: ER (Hepatic extraction ratio) - Batch Mean>  (60) 


>  <HLM: t1/2 - Batch Mean (Min)>  (60) 
36.62

>  <HLM: Cl int - Batch Mean (uL/min/mg protein)>  (60) 
37.87

>  <HLM: ER (Hepatic extraction ratio) - Batch Mean>  (60) 
0.65

>  <MDCK-WT 4% BSA: Papp (A-B) - Batch Mean (10-6, cm/s)>  (60) 


>  <MDCK-WT 4% BSA: Papp (B-A) - Batch Mean (10-6, cm/s)>  (60) 


>  <MDCK-WT 4% BSA: Efflux Ratio - Batch Mean>  (60) 


>  <MDCK-WT 4% BSA: ~Net A_B - Batch Mean (10-6, cm/s)>  (60) 


>  <pIC50>  (60) 
5.185752

>  <Selection_1>  (60) 
Y

>  <Selection_N>  (60) 
N

>  <Serie>  (60) 
Other

>  <Selection_T>  (60) 
N

>  <Train_Vs_Test>  (60) 


$$$$
CTX-1020521
     RDKit          2D

 45 51  0  0  0  0  0  0  0  0999 V2000
    5.1961   -0.7500    0.0000 O   0  0  0  0  0  0  0  0  0  0  0  0
    3.8971    0.0000    0.0000 C   0  0  0  0  0  0  0  0  0  0  0  0
    2.5980   -0.7500    0.0000 N   0  0  0  0  0  0  0  0  0  0  0  0
    3.8971    1.5000    0.0000 C   0  0  0  0  0  0  0  0  0  0  0  0
    1.2990    0.0000    0.0000 C   0  0  0  0  0  0  0  0  0  0  0  0
    5.1961    2.2500    0.0000 N   0  0  0  0  0  0  0  0  0  0  0  0
    2.5980    2.2500    0.0000 C   0  0  0  0  0  0  0  0  0  0  0  0
    0.0000   -0.7500    0.0000 C   0  0  0  0  0  0  0  0  0  0  0  0
    5.1961    3.7500    0.0000 C   0  0  0  0  0  0  0  0  0  0  0  0
    2.5980    3.7500    0.0000 C   0  0  0  0  0  0  0  0  0  0  0  0
   -1.2990    0.0000    0.0000 C   0  0  0  0  0  0  0  0  0  0  0  0
    0.0000   -2.2499    0.0000 C   0  0  0  0  0  0  0  0  0  0  0  0
    3.8971    4.5000    0.0000 C   0  0  0  0  0  0  0  0  0  0  0  0
    6.4951    4.5000    0.0000 C   0  0  0  0  0  0  0  0  0  0  0  0
    1.2990    4.5000    0.0000 C   0  0  0  0  0  0  0  0  0  0  0  0
   -2.5980   -0.7499    0.0000 C   0  0  0  0  0  0  0  0  0  0  0  0
   -1.2990   -2.9999    0.0000 C   0  0  0  0  0  0  0  0  0  0  0  0
    3.8971    6.0000    0.0000 C   0  0  0  0  0  0  0  0  0  0  0  0
    6.4951    6.0000    0.0000 N   0  0  0  0  0  0  0  0  0  0  0  0
    1.1422    5.9917    0.0000 C   0  0  0  0  0  0  0  0  0  0  0  0
   -0.0712    3.8898    0.0000 C   0  0  0  0  0  0  0  0  0  0  0  0
   -2.5980   -2.2499    0.0000 C   0  0  0  0  0  0  0  0  0  0  0  0
    5.1961    6.7500    0.0000 C   0  0  0  0  0  0  0  0  0  0  0  0
    7.7942    6.7500    0.0000 C   0  0  0  0  0  0  0  0  0  0  0  0
   -0.3249    6.3036    0.0000 N   0  0  0  0  0  0  0  0  0  0  0  0
   -1.0749    5.0046    0.0000 N   0  0  0  0  0  0  0  0  0  0  0  0
   -3.8971   -2.9999    0.0000 N   0  0  0  0  0  0  0  0  0  0  0  0
    9.0932    6.0000    0.0000 O   0  0  0  0  0  0  0  0  0  0  0  0
    7.7942    8.2500    0.0000 C   0  0  0  0  0  0  0  0  0  0  0  0
   -2.5667    4.8478    0.0000 C   0  0  0  0  0  0  0  0  0  0  0  0
   -5.1961   -2.2499    0.0000 C   0  0  0  0  0  0  0  0  0  0  0  0
   -3.8971   -4.4999    0.0000 C   0  0  0  0  0  0  0  0  0  0  0  0
    9.0077    9.1316    0.0000 O   0  0  0  0  0  0  0  0  0  0  0  0
    6.5807    9.1316    0.0000 C   0  0  0  0  0  0  0  0  0  0  0  0
   -6.4951   -2.9999    0.0000 C   0  0  0  0  0  0  0  0  0  0  0  0
   -5.1961   -5.2499    0.0000 C   0  0  0  0  0  0  0  0  0  0  0  0
    8.5442   10.5582    0.0000 C   0  0  0  0  0  0  0  0  0  0  0  0
    7.0442   10.5582    0.0000 C   0  0  0  0  0  0  0  0  0  0  0  0
    5.1541    8.6681    0.0000 C   0  0  0  0  0  0  0  0  0  0  0  0
   -6.4951   -4.4999    0.0000 N   0  0  0  0  0  0  0  0  0  0  0  0
    9.2942   11.8573    0.0000 C   0  0  0  0  0  0  0  0  0  0  0  0
    6.2942   11.8573    0.0000 C   0  0  0  0  0  0  0  0  0  0  0  0
   -7.7942   -5.2499    0.0000 C   0  0  0  0  0  0  0  0  0  0  0  0
    8.5442   13.1563    0.0000 C   0  0  0  0  0  0  0  0  0  0  0  0
    7.0442   13.1563    0.0000 C   0  0  0  0  0  0  0  0  0  0  0  0
  1  2  2  0
  2  3  1  0
  2  4  1  0
  3  5  1  0
  4  6  2  0
  4  7  1  0
  5  8  1  0
  6  9  1  0
  7 10  2  0
  8 11  2  0
  8 12  1  0
  9 13  2  0
  9 14  1  0
 10 15  1  0
 11 16  1  0
 12 17  2  0
 13 18  1  0
 14 19  1  0
 15 20  1  0
 15 21  2  0
 16 22  2  0
 18 23  1  0
 19 24  1  0
 20 25  2  0
 21 26  1  0
 22 27  1  0
 24 28  2  0
 24 29  1  0
 26 30  1  0
 27 31  1  0
 27 32  1  0
 29 33  1  0
 29 34  2  0
 31 35  1  0
 32 36  1  0
 33 37  1  0
 34 38  1  0
 34 39  1  0
 35 40  1  0
 37 41  2  0
 38 42  2  0
 40 43  1  0
 41 44  1  0
 42 45  1  0
 10 13  1  0
 17 22  1  0
 19 23  1  0
 25 26  1  0
 36 40  1  0
 37 38  1  0
 44 45  2  0
M  END
>  <Molecule Name>  (61) 
CTX-1020521

>  <SMILES>  (61) 
CN1C=C(C=N1)C1=C2CCN(CC2=NC(=C1)C(=O)NCC1=CC=C(C=C1)N1CCN(C)CC1)C(=O)C1=C(C)C2=C(O1)C=CC=C2

>  <Batch Name>  (61) 
CTX-1020521-1

>  <Batch Created Date>  (61) 
2021-11-04

>  <Batch ID>  (61) 
CTX-1020521-1

>  <External ID>  (61) 
610EDL131-3

>  <Stereochemistry>  (61) 
Achiral

>  <Amount 1>  (61) 
3.5

>  <Unit 1>  (61) 
mg

>  <CRO 1>  (61) 
Pharmaron

>  <CRO 1 Total Amount>  (61) 
24.1

>  <CRO 1 Unit>  (61) 
mg

>  <Pharmaron Solubility (PBS, pH 7.4): Aqueous Solubility - Batch Mean (uM)>  (61) 
5.2039

>  <Pharmaron Solubility (PBS, pH 7.4): Aqueous Solubility - Batch Mean (uM) Standard Deviation (±)>  (61) 


>  <Pharmaron Solubility (PBS, pH 7.4): Aqueous Solubility - Batch Mean (uM) Count>  (61) 
1.0

>  <log P>  (61) 
3.71

>  <log D>  (61) 
3.07

>  <Pharmaron Caliper Assay (CDK2/CCNE1): Minimum measured (%)>  (61) 
83.4

>  <Pharmaron Caliper Assay (CDK2/CCNE1): IC50 - Batch Mean (uM)>  (61) 
5.43

>  <Pharmaron ADPGLO (CDK2/E1-25C): Minimum measured (%)>  (61) 


>  <Pharmaron ADPGLO (CDK2/E1-25C): IC50 - Batch Mean (uM)>  (61) 


>  <Pharmaron ADPGLO (CDK2/E1-37C): Minimum measured (%)>  (61) 


>  <Pharmaron ADPGLO (CDK2/E1-37C): IC50 - Batch Mean (uM)>  (61) 


>  <IncuCyte Kuramochi RB-WT: IC50 - Batch Mean (uM)>  (61) 


>  <IncuCyte Kuramochi RB-KO: IC50 - Batch Mean (uM)>  (61) 


>  <DSF (npCDK2/CCNE1): dTm D - Batch Mean [Concentration: 100]>  (61) 


>  <DSF (npCDK2/CCNE1): dTm D - Batch Mean [Concentration: 20.0]>  (61) 
0.397

>  <DSF (pCDK2/CCNE1): dTm D - Batch Mean [Concentration: 100]>  (61) 


>  <DSF (pCDK2/CCNE1): dTm D - Batch Mean [Concentration: 20.0]>  (61) 


>  <RLM: t1/2 - Batch Mean (Min)>  (61) 


>  <RLM: Cl int - Batch Mean (uL/min/mg protein)>  (61) 


>  <RLM: ER (Hepatic extraction ratio) - Batch Mean>  (61) 


>  <HLM: t1/2 - Batch Mean (Min)>  (61) 


>  <HLM: Cl int - Batch Mean (uL/min/mg protein)>  (61) 


>  <HLM: ER (Hepatic extraction ratio) - Batch Mean>  (61) 


>  <MDCK-WT 4% BSA: Papp (A-B) - Batch Mean (10-6, cm/s)>  (61) 


>  <MDCK-WT 4% BSA: Papp (B-A) - Batch Mean (10-6, cm/s)>  (61) 


>  <MDCK-WT 4% BSA: Efflux Ratio - Batch Mean>  (61) 


>  <MDCK-WT 4% BSA: ~Net A_B - Batch Mean (10-6, cm/s)>  (61) 


>  <pIC50>  (61) 
5.2652

>  <Selection_1>  (61) 
Y

>  <Selection_N>  (61) 


>  <Serie>  (61) 
Naphthyridine

>  <Selection_T>  (61) 
N

>  <Train_Vs_Test>  (61) 


$$$$
CTX-1020520
     RDKit          2D

 44 50  0  0  0  0  0  0  0  0999 V2000
    5.1961   -0.7500    0.0000 O   0  0  0  0  0  0  0  0  0  0  0  0
    3.8971    0.0000    0.0000 C   0  0  0  0  0  0  0  0  0  0  0  0
    2.5980   -0.7500    0.0000 N   0  0  0  0  0  0  0  0  0  0  0  0
    3.8971    1.5000    0.0000 C   0  0  0  0  0  0  0  0  0  0  0  0
    1.2990    0.0000    0.0000 C   0  0  0  0  0  0  0  0  0  0  0  0
    5.1961    2.2500    0.0000 N   0  0  0  0  0  0  0  0  0  0  0  0
    2.5980    2.2500    0.0000 C   0  0  0  0  0  0  0  0  0  0  0  0
    0.0000   -0.7500    0.0000 C   0  0  0  0  0  0  0  0  0  0  0  0
    5.1961    3.7500    0.0000 C   0  0  0  0  0  0  0  0  0  0  0  0
    2.5980    3.7500    0.0000 C   0  0  0  0  0  0  0  0  0  0  0  0
   -1.2990    0.0000    0.0000 C   0  0  0  0  0  0  0  0  0  0  0  0
    0.0000   -2.2499    0.0000 C   0  0  0  0  0  0  0  0  0  0  0  0
    3.8971    4.5000    0.0000 C   0  0  0  0  0  0  0  0  0  0  0  0
    6.4951    4.5000    0.0000 C   0  0  0  0  0  0  0  0  0  0  0  0
    1.2990    4.5000    0.0000 N   0  0  0  0  0  0  0  0  0  0  0  0
   -2.5980   -0.7499    0.0000 C   0  0  0  0  0  0  0  0  0  0  0  0
   -1.2990   -2.9999    0.0000 C   0  0  0  0  0  0  0  0  0  0  0  0
    3.8971    6.0000    0.0000 C   0  0  0  0  0  0  0  0  0  0  0  0
    6.4951    6.0000    0.0000 N   0  0  0  0  0  0  0  0  0  0  0  0
    1.1422    5.9917    0.0000 N   0  0  0  0  0  0  0  0  0  0  0  0
   -0.0712    3.8898    0.0000 C   0  0  0  0  0  0  0  0  0  0  0  0
   -2.5980   -2.2499    0.0000 C   0  0  0  0  0  0  0  0  0  0  0  0
    5.1961    6.7500    0.0000 C   0  0  0  0  0  0  0  0  0  0  0  0
    7.7942    6.7500    0.0000 C   0  0  0  0  0  0  0  0  0  0  0  0
   -0.3249    6.3036    0.0000 C   0  0  0  0  0  0  0  0  0  0  0  0
   -1.0749    5.0046    0.0000 C   0  0  0  0  0  0  0  0  0  0  0  0
   -3.8971   -2.9999    0.0000 N   0  0  0  0  0  0  0  0  0  0  0  0
    9.0932    6.0000    0.0000 O   0  0  0  0  0  0  0  0  0  0  0  0
    7.7942    8.2500    0.0000 C   0  0  0  0  0  0  0  0  0  0  0  0
   -5.1961   -2.2499    0.0000 C   0  0  0  0  0  0  0  0  0  0  0  0
   -3.8971   -4.4999    0.0000 C   0  0  0  0  0  0  0  0  0  0  0  0
    9.0077    9.1316    0.0000 O   0  0  0  0  0  0  0  0  0  0  0  0
    6.5807    9.1316    0.0000 C   0  0  0  0  0  0  0  0  0  0  0  0
   -6.4951   -2.9999    0.0000 C   0  0  0  0  0  0  0  0  0  0  0  0
   -5.1961   -5.2499    0.0000 C   0  0  0  0  0  0  0  0  0  0  0  0
    8.5442   10.5582    0.0000 C   0  0  0  0  0  0  0  0  0  0  0  0
    7.0442   10.5582    0.0000 C   0  0  0  0  0  0  0  0  0  0  0  0
    5.1541    8.6681    0.0000 C   0  0  0  0  0  0  0  0  0  0  0  0
   -6.4951   -4.4999    0.0000 N   0  0  0  0  0  0  0  0  0  0  0  0
    9.2942   11.8573    0.0000 C   0  0  0  0  0  0  0  0  0  0  0  0
    6.2942   11.8573    0.0000 C   0  0  0  0  0  0  0  0  0  0  0  0
   -7.7942   -5.2499    0.0000 C   0  0  0  0  0  0  0  0  0  0  0  0
    8.5442   13.1563    0.0000 C   0  0  0  0  0  0  0  0  0  0  0  0
    7.0442   13.1563    0.0000 C   0  0  0  0  0  0  0  0  0  0  0  0
  1  2  2  0
  2  3  1  0
  2  4  1  0
  3  5  1  0
  4  6  2  0
  4  7  1  0
  5  8  1  0
  6  9  1  0
  7 10  2  0
  8 11  2  0
  8 12  1  0
  9 13  2  0
  9 14  1  0
 10 15  1  0
 11 16  1  0
 12 17  2  0
 13 18  1  0
 14 19  1  0
 15 20  1  0
 15 21  1  0
 16 22  2  0
 18 23  1  0
 19 24  1  0
 20 25  2  0
 21 26  2  0
 22 27  1  0
 24 28  2  0
 24 29  1  0
 27 30  1  0
 27 31  1  0
 29 32  1  0
 29 33  2  0
 30 34  1  0
 31 35  1  0
 32 36  1  0
 33 37  1  0
 33 38  1  0
 34 39  1  0
 36 40  2  0
 37 41  2  0
 39 42  1  0
 40 43  1  0
 41 44  1  0
 10 13  1  0
 17 22  1  0
 19 23  1  0
 25 26  1  0
 35 39  1  0
 36 37  1  0
 43 44  2  0
M  END
>  <Molecule Name>  (62) 
CTX-1020520

>  <SMILES>  (62) 
CN1CCN(CC1)C1=CC=C(CNC(=O)C2=CC(N3C=CC=N3)=C3CCN(CC3=N2)C(=O)C2=C(C)C3=C(O2)C=CC=C3)C=C1

>  <Batch Name>  (62) 
CTX-1020520-1

>  <Batch Created Date>  (62) 
2021-11-04

>  <Batch ID>  (62) 
CTX-1020520-1

>  <External ID>  (62) 
610EDL127-2

>  <Stereochemistry>  (62) 
Achiral

>  <Amount 1>  (62) 
5.0

>  <Unit 1>  (62) 
mg

>  <CRO 1>  (62) 
Pharmaron

>  <CRO 1 Total Amount>  (62) 
22.6

>  <CRO 1 Unit>  (62) 
mg

>  <Pharmaron Solubility (PBS, pH 7.4): Aqueous Solubility - Batch Mean (uM)>  (62) 
7.0256

>  <Pharmaron Solubility (PBS, pH 7.4): Aqueous Solubility - Batch Mean (uM) Standard Deviation (±)>  (62) 


>  <Pharmaron Solubility (PBS, pH 7.4): Aqueous Solubility - Batch Mean (uM) Count>  (62) 
1.0

>  <log P>  (62) 
3.72

>  <log D>  (62) 
3.08

>  <Pharmaron Caliper Assay (CDK2/CCNE1): Minimum measured (%)>  (62) 
79.1

>  <Pharmaron Caliper Assay (CDK2/CCNE1): IC50 - Batch Mean (uM)>  (62) 
2.93

>  <Pharmaron ADPGLO (CDK2/E1-25C): Minimum measured (%)>  (62) 


>  <Pharmaron ADPGLO (CDK2/E1-25C): IC50 - Batch Mean (uM)>  (62) 


>  <Pharmaron ADPGLO (CDK2/E1-37C): Minimum measured (%)>  (62) 


>  <Pharmaron ADPGLO (CDK2/E1-37C): IC50 - Batch Mean (uM)>  (62) 


>  <IncuCyte Kuramochi RB-WT: IC50 - Batch Mean (uM)>  (62) 


>  <IncuCyte Kuramochi RB-KO: IC50 - Batch Mean (uM)>  (62) 


>  <DSF (npCDK2/CCNE1): dTm D - Batch Mean [Concentration: 100]>  (62) 


>  <DSF (npCDK2/CCNE1): dTm D - Batch Mean [Concentration: 20.0]>  (62) 
0.564

>  <DSF (pCDK2/CCNE1): dTm D - Batch Mean [Concentration: 100]>  (62) 


>  <DSF (pCDK2/CCNE1): dTm D - Batch Mean [Concentration: 20.0]>  (62) 


>  <RLM: t1/2 - Batch Mean (Min)>  (62) 


>  <RLM: Cl int - Batch Mean (uL/min/mg protein)>  (62) 


>  <RLM: ER (Hepatic extraction ratio) - Batch Mean>  (62) 


>  <HLM: t1/2 - Batch Mean (Min)>  (62) 


>  <HLM: Cl int - Batch Mean (uL/min/mg protein)>  (62) 


>  <HLM: ER (Hepatic extraction ratio) - Batch Mean>  (62) 


>  <MDCK-WT 4% BSA: Papp (A-B) - Batch Mean (10-6, cm/s)>  (62) 


>  <MDCK-WT 4% BSA: Papp (B-A) - Batch Mean (10-6, cm/s)>  (62) 


>  <MDCK-WT 4% BSA: Efflux Ratio - Batch Mean>  (62) 


>  <MDCK-WT 4% BSA: ~Net A_B - Batch Mean (10-6, cm/s)>  (62) 


>  <pIC50>  (62) 
5.533132

>  <Selection_1>  (62) 
Y

>  <Selection_N>  (62) 


>  <Serie>  (62) 
Naphthyridine

>  <Selection_T>  (62) 
N

>  <Train_Vs_Test>  (62) 


$$$$
CTX-1020518
     RDKit          2D

 34 38  0  0  0  0  0  0  0  0999 V2000
    6.5664   -0.1398    0.0000 S   0  0  0  0  0  0  0  0  0  0  0  0
    5.1961   -0.7500    0.0000 C   0  0  0  0  0  0  0  0  0  0  0  0
    7.5701   -1.2546    0.0000 C   0  0  0  0  0  0  0  0  0  0  0  0
    3.8971    0.0000    0.0000 C   0  0  0  0  0  0  0  0  0  0  0  0
    5.3529   -2.2417    0.0000 C   0  0  0  0  0  0  0  0  0  0  0  0
    6.8201   -2.5536    0.0000 C   0  0  0  0  0  0  0  0  0  0  0  0
    9.0701   -1.2546    0.0000 C   0  0  0  0  0  0  0  0  0  0  0  0
    3.8971    1.5000    0.0000 O   0  0  0  0  0  0  0  0  0  0  0  0
    2.5980   -0.7500    0.0000 N   0  0  0  0  0  0  0  0  0  0  0  0
    7.5701   -3.8526    0.0000 C   0  0  0  0  0  0  0  0  0  0  0  0
    9.8201   -2.5536    0.0000 C   0  0  0  0  0  0  0  0  0  0  0  0
    1.2990    0.0000    0.0000 C   0  0  0  0  0  0  0  0  0  0  0  0
    9.0701   -3.8526    0.0000 N   0  0  0  0  0  0  0  0  0  0  0  0
    0.0000   -0.7500    0.0000 C   0  0  0  0  0  0  0  0  0  0  0  0
    9.8201   -5.1517    0.0000 C   0  0  0  0  0  0  0  0  0  0  0  0
   -1.2990    0.0000    0.0000 C   0  0  0  0  0  0  0  0  0  0  0  0
    0.0000   -2.2500    0.0000 C   0  0  0  0  0  0  0  0  0  0  0  0
    9.0701   -6.4507    0.0000 O   0  0  0  0  0  0  0  0  0  0  0  0
   11.3201   -5.1517    0.0000 C   0  0  0  0  0  0  0  0  0  0  0  0
   -2.5980   -0.7499    0.0000 C   0  0  0  0  0  0  0  0  0  0  0  0
   -1.2990   -2.9999    0.0000 C   0  0  0  0  0  0  0  0  0  0  0  0
   12.2018   -6.3652    0.0000 O   0  0  0  0  0  0  0  0  0  0  0  0
   12.2018   -3.9382    0.0000 C   0  0  0  0  0  0  0  0  0  0  0  0
   -2.5980   -2.2499    0.0000 C   0  0  0  0  0  0  0  0  0  0  0  0
   13.6284   -5.9017    0.0000 C   0  0  0  0  0  0  0  0  0  0  0  0
   13.6284   -4.4017    0.0000 C   0  0  0  0  0  0  0  0  0  0  0  0
   11.7383   -2.5116    0.0000 C   0  0  0  0  0  0  0  0  0  0  0  0
   -3.8971   -2.9999    0.0000 N   0  0  0  0  0  0  0  0  0  0  0  0
   14.9274   -6.6517    0.0000 C   0  0  0  0  0  0  0  0  0  0  0  0
   14.9274   -3.6517    0.0000 C   0  0  0  0  0  0  0  0  0  0  0  0
   -5.1961   -2.2499    0.0000 C   0  0  0  0  0  0  0  0  0  0  0  0
   -3.8971   -4.4999    0.0000 C   0  0  0  0  0  0  0  0  0  0  0  0
   16.2265   -5.9017    0.0000 C   0  0  0  0  0  0  0  0  0  0  0  0
   16.2265   -4.4017    0.0000 C   0  0  0  0  0  0  0  0  0  0  0  0
  1  2  1  0
  1  3  1  0
  2  4  1  0
  2  5  2  0
  3  6  2  0
  3  7  1  0
  4  8  2  0
  4  9  1  0
  6 10  1  0
  7 11  1  0
  9 12  1  0
 10 13  1  0
 12 14  1  0
 13 15  1  0
 14 16  2  0
 14 17  1  0
 15 18  2  0
 15 19  1  0
 16 20  1  0
 17 21  2  0
 19 22  1  0
 19 23  2  0
 20 24  2  0
 22 25  1  0
 23 26  1  0
 23 27  1  0
 24 28  1  0
 25 29  2  0
 26 30  2  0
 28 31  1  0
 28 32  1  0
 29 33  1  0
 30 34  1  0
  5  6  1  0
 11 13  1  0
 21 24  1  0
 25 26  1  0
 33 34  2  0
M  END
>  <Molecule Name>  (63) 
CTX-1020518

>  <SMILES>  (63) 
CN(C)C1=CC=C(CNC(=O)C2=CC3=C(CCN(C3)C(=O)C3=C(C)C4=C(O3)C=CC=C4)S2)C=C1

>  <Batch Name>  (63) 
CTX-1020518-1

>  <Batch Created Date>  (63) 
2021-11-04

>  <Batch ID>  (63) 
CTX-1020518-1

>  <External ID>  (63) 
610EDL099-C

>  <Stereochemistry>  (63) 
Achiral

>  <Amount 1>  (63) 
4.99

>  <Unit 1>  (63) 
mg

>  <CRO 1>  (63) 
Pharmaron

>  <CRO 1 Total Amount>  (63) 
4.5

>  <CRO 1 Unit>  (63) 
mg

>  <Pharmaron Solubility (PBS, pH 7.4): Aqueous Solubility - Batch Mean (uM)>  (63) 
0.0073

>  <Pharmaron Solubility (PBS, pH 7.4): Aqueous Solubility - Batch Mean (uM) Standard Deviation (±)>  (63) 


>  <Pharmaron Solubility (PBS, pH 7.4): Aqueous Solubility - Batch Mean (uM) Count>  (63) 
1.0

>  <log P>  (63) 
4.58

>  <log D>  (63) 
4.58

>  <Pharmaron Caliper Assay (CDK2/CCNE1): Minimum measured (%)>  (63) 
39.5

>  <Pharmaron Caliper Assay (CDK2/CCNE1): IC50 - Batch Mean (uM)>  (63) 
0.626

>  <Pharmaron ADPGLO (CDK2/E1-25C): Minimum measured (%)>  (63) 


>  <Pharmaron ADPGLO (CDK2/E1-25C): IC50 - Batch Mean (uM)>  (63) 


>  <Pharmaron ADPGLO (CDK2/E1-37C): Minimum measured (%)>  (63) 


>  <Pharmaron ADPGLO (CDK2/E1-37C): IC50 - Batch Mean (uM)>  (63) 


>  <IncuCyte Kuramochi RB-WT: IC50 - Batch Mean (uM)>  (63) 
20.0

>  <IncuCyte Kuramochi RB-KO: IC50 - Batch Mean (uM)>  (63) 
20.0

>  <DSF (npCDK2/CCNE1): dTm D - Batch Mean [Concentration: 100]>  (63) 


>  <DSF (npCDK2/CCNE1): dTm D - Batch Mean [Concentration: 20.0]>  (63) 
2.835

>  <DSF (pCDK2/CCNE1): dTm D - Batch Mean [Concentration: 100]>  (63) 


>  <DSF (pCDK2/CCNE1): dTm D - Batch Mean [Concentration: 20.0]>  (63) 
1.4809999999999999

>  <RLM: t1/2 - Batch Mean (Min)>  (63) 


>  <RLM: Cl int - Batch Mean (uL/min/mg protein)>  (63) 


>  <RLM: ER (Hepatic extraction ratio) - Batch Mean>  (63) 


>  <HLM: t1/2 - Batch Mean (Min)>  (63) 


>  <HLM: Cl int - Batch Mean (uL/min/mg protein)>  (63) 


>  <HLM: ER (Hepatic extraction ratio) - Batch Mean>  (63) 


>  <MDCK-WT 4% BSA: Papp (A-B) - Batch Mean (10-6, cm/s)>  (63) 


>  <MDCK-WT 4% BSA: Papp (B-A) - Batch Mean (10-6, cm/s)>  (63) 


>  <MDCK-WT 4% BSA: Efflux Ratio - Batch Mean>  (63) 


>  <MDCK-WT 4% BSA: ~Net A_B - Batch Mean (10-6, cm/s)>  (63) 


>  <pIC50>  (63) 
6.203426

>  <Selection_1>  (63) 
Y

>  <Selection_N>  (63) 
N

>  <Serie>  (63) 
Tetrahydrothienopyridine

>  <Selection_T>  (63) 


>  <Train_Vs_Test>  (63) 


$$$$
CTX-1020517
     RDKit          2D

 38 43  0  0  0  0  0  0  0  0999 V2000
    9.6802   -7.8210    0.0000 S   0  0  0  0  0  0  0  0  0  0  0  0
    9.0701   -6.4507    0.0000 C   0  0  0  0  0  0  0  0  0  0  0  0
    8.5655   -8.8247    0.0000 C   0  0  0  0  0  0  0  0  0  0  0  0
    7.5783   -6.6075    0.0000 C   0  0  0  0  0  0  0  0  0  0  0  0
    9.8201   -5.1517    0.0000 C   0  0  0  0  0  0  0  0  0  0  0  0
    7.2665   -8.0747    0.0000 C   0  0  0  0  0  0  0  0  0  0  0  0
    8.5655  -10.3247    0.0000 C   0  0  0  0  0  0  0  0  0  0  0  0
    6.5746   -5.4928    0.0000 C   0  0  0  0  0  0  0  0  0  0  0  0
   11.3201   -5.1517    0.0000 O   0  0  0  0  0  0  0  0  0  0  0  0
    9.0701   -3.8526    0.0000 N   0  0  0  0  0  0  0  0  0  0  0  0
    5.9674   -8.8247    0.0000 C   0  0  0  0  0  0  0  0  0  0  0  0
    7.2665  -11.0747    0.0000 C   0  0  0  0  0  0  0  0  0  0  0  0
    7.5701   -3.8526    0.0000 C   0  0  0  0  0  0  0  0  0  0  0  0
    9.8201   -2.5536    0.0000 C   0  0  0  0  0  0  0  0  0  0  0  0
    5.9674  -10.3247    0.0000 C   0  0  0  0  0  0  0  0  0  0  0  0
    6.8201   -2.5536    0.0000 C   0  0  0  0  0  0  0  0  0  0  0  0
    9.0701   -1.2546    0.0000 C   0  0  0  0  0  0  0  0  0  0  0  0
    7.5701   -1.2546    0.0000 C   0  0  0  0  0  0  0  0  0  0  0  0
    5.3529   -2.2417    0.0000 C   0  0  0  0  0  0  0  0  0  0  0  0
    6.5664   -0.1398    0.0000 S   0  0  0  0  0  0  0  0  0  0  0  0
    5.1961   -0.7500    0.0000 C   0  0  0  0  0  0  0  0  0  0  0  0
    3.8971    0.0000    0.0000 C   0  0  0  0  0  0  0  0  0  0  0  0
    3.8971    1.5000    0.0000 O   0  0  0  0  0  0  0  0  0  0  0  0
    2.5980   -0.7500    0.0000 N   0  0  0  0  0  0  0  0  0  0  0  0
    1.2990    0.0000    0.0000 C   0  0  0  0  0  0  0  0  0  0  0  0
    0.0000   -0.7500    0.0000 C   0  0  0  0  0  0  0  0  0  0  0  0
   -1.2990    0.0000    0.0000 C   0  0  0  0  0  0  0  0  0  0  0  0
    0.0000   -2.2499    0.0000 C   0  0  0  0  0  0  0  0  0  0  0  0
   -2.5980   -0.7499    0.0000 C   0  0  0  0  0  0  0  0  0  0  0  0
   -1.2990   -2.9999    0.0000 C   0  0  0  0  0  0  0  0  0  0  0  0
   -2.5980   -2.2499    0.0000 C   0  0  0  0  0  0  0  0  0  0  0  0
   -3.8971   -2.9999    0.0000 N   0  0  0  0  0  0  0  0  0  0  0  0
   -5.1961   -2.2499    0.0000 C   0  0  0  0  0  0  0  0  0  0  0  0
   -3.8971   -4.4999    0.0000 C   0  0  0  0  0  0  0  0  0  0  0  0
   -6.4951   -2.9999    0.0000 C   0  0  0  0  0  0  0  0  0  0  0  0
   -5.1961   -5.2499    0.0000 C   0  0  0  0  0  0  0  0  0  0  0  0
   -6.4951   -4.4999    0.0000 N   0  0  0  0  0  0  0  0  0  0  0  0
   -7.7942   -5.2499    0.0000 C   0  0  0  0  0  0  0  0  0  0  0  0
  1  2  1  0
  1  3  1  0
  2  4  2  0
  2  5  1  0
  3  6  2  0
  3  7  1  0
  4  8  1  0
  5  9  2  0
  5 10  1  0
  6 11  1  0
  7 12  2  0
 10 13  1  0
 10 14  1  0
 11 15  2  0
 13 16  1  0
 14 17  1  0
 16 18  2  0
 16 19  1  0
 18 20  1  0
 19 21  2  0
 21 22  1  0
 22 23  2  0
 22 24  1  0
 24 25  1  0
 25 26  1  0
 26 27  2  0
 26 28  1  0
 27 29  1  0
 28 30  2  0
 29 31  2  0
 31 32  1  0
 32 33  1  0
 32 34  1  0
 33 35  1  0
 34 36  1  0
 35 37  1  0
 37 38  1  0
  4  6  1  0
 12 15  1  0
 17 18  1  0
 20 21  1  0
 30 31  1  0
 36 37  1  0
M  END
>  <Molecule Name>  (64) 
CTX-1020517

>  <SMILES>  (64) 
CN1CCN(CC1)C1=CC=C(CNC(=O)C2=CC3=C(CCN(C3)C(=O)C3=C(C)C4=C(S3)C=CC=C4)S2)C=C1

>  <Batch Name>  (64) 
CTX-1020517-1

>  <Batch Created Date>  (64) 
2021-11-04

>  <Batch ID>  (64) 
CTX-1020517-1

>  <External ID>  (64) 
610EDL074-B

>  <Stereochemistry>  (64) 
Achiral

>  <Amount 1>  (64) 
5.04

>  <Unit 1>  (64) 
mg

>  <CRO 1>  (64) 
Pharmaron

>  <CRO 1 Total Amount>  (64) 
24.4

>  <CRO 1 Unit>  (64) 
mg

>  <Pharmaron Solubility (PBS, pH 7.4): Aqueous Solubility - Batch Mean (uM)>  (64) 
0.8627

>  <Pharmaron Solubility (PBS, pH 7.4): Aqueous Solubility - Batch Mean (uM) Standard Deviation (±)>  (64) 


>  <Pharmaron Solubility (PBS, pH 7.4): Aqueous Solubility - Batch Mean (uM) Count>  (64) 
1.0

>  <log P>  (64) 
5.36

>  <log D>  (64) 
4.72

>  <Pharmaron Caliper Assay (CDK2/CCNE1): Minimum measured (%)>  (64) 
62.5

>  <Pharmaron Caliper Assay (CDK2/CCNE1): IC50 - Batch Mean (uM)>  (64) 
2.88

>  <Pharmaron ADPGLO (CDK2/E1-25C): Minimum measured (%)>  (64) 


>  <Pharmaron ADPGLO (CDK2/E1-25C): IC50 - Batch Mean (uM)>  (64) 


>  <Pharmaron ADPGLO (CDK2/E1-37C): Minimum measured (%)>  (64) 


>  <Pharmaron ADPGLO (CDK2/E1-37C): IC50 - Batch Mean (uM)>  (64) 


>  <IncuCyte Kuramochi RB-WT: IC50 - Batch Mean (uM)>  (64) 
5.81

>  <IncuCyte Kuramochi RB-KO: IC50 - Batch Mean (uM)>  (64) 
5.92

>  <DSF (npCDK2/CCNE1): dTm D - Batch Mean [Concentration: 100]>  (64) 


>  <DSF (npCDK2/CCNE1): dTm D - Batch Mean [Concentration: 20.0]>  (64) 
2.1

>  <DSF (pCDK2/CCNE1): dTm D - Batch Mean [Concentration: 100]>  (64) 


>  <DSF (pCDK2/CCNE1): dTm D - Batch Mean [Concentration: 20.0]>  (64) 
1.815

>  <RLM: t1/2 - Batch Mean (Min)>  (64) 


>  <RLM: Cl int - Batch Mean (uL/min/mg protein)>  (64) 


>  <RLM: ER (Hepatic extraction ratio) - Batch Mean>  (64) 


>  <HLM: t1/2 - Batch Mean (Min)>  (64) 


>  <HLM: Cl int - Batch Mean (uL/min/mg protein)>  (64) 


>  <HLM: ER (Hepatic extraction ratio) - Batch Mean>  (64) 


>  <MDCK-WT 4% BSA: Papp (A-B) - Batch Mean (10-6, cm/s)>  (64) 


>  <MDCK-WT 4% BSA: Papp (B-A) - Batch Mean (10-6, cm/s)>  (64) 


>  <MDCK-WT 4% BSA: Efflux Ratio - Batch Mean>  (64) 


>  <MDCK-WT 4% BSA: ~Net A_B - Batch Mean (10-6, cm/s)>  (64) 


>  <pIC50>  (64) 
5.540607

>  <Selection_1>  (64) 
Y

>  <Selection_N>  (64) 
N

>  <Serie>  (64) 
Tetrahydrothienopyridine

>  <Selection_T>  (64) 


>  <Train_Vs_Test>  (64) 


$$$$
CTX-1020516
     RDKit          2D

 31 35  0  0  0  0  0  0  0  0999 V2000
    6.5664   -0.1398    0.0000 S   0  0  0  0  0  0  0  0  0  0  0  0
    5.1961   -0.7500    0.0000 C   0  0  0  0  0  0  0  0  0  0  0  0
    7.5701   -1.2546    0.0000 C   0  0  0  0  0  0  0  0  0  0  0  0
    3.8971    0.0000    0.0000 C   0  0  0  0  0  0  0  0  0  0  0  0
    5.3529   -2.2417    0.0000 C   0  0  0  0  0  0  0  0  0  0  0  0
    6.8201   -2.5536    0.0000 C   0  0  0  0  0  0  0  0  0  0  0  0
    9.0701   -1.2546    0.0000 C   0  0  0  0  0  0  0  0  0  0  0  0
    3.8971    1.5000    0.0000 O   0  0  0  0  0  0  0  0  0  0  0  0
    2.5980   -0.7500    0.0000 N   0  0  0  0  0  0  0  0  0  0  0  0
    7.5701   -3.8526    0.0000 C   0  0  0  0  0  0  0  0  0  0  0  0
    9.8201   -2.5536    0.0000 C   0  0  0  0  0  0  0  0  0  0  0  0
    1.2990    0.0000    0.0000 C   0  0  0  0  0  0  0  0  0  0  0  0
    9.0701   -3.8526    0.0000 N   0  0  0  0  0  0  0  0  0  0  0  0
    0.0000   -0.7500    0.0000 C   0  0  0  0  0  0  0  0  0  0  0  0
    9.8201   -5.1517    0.0000 C   0  0  0  0  0  0  0  0  0  0  0  0
   -1.2990    0.0000    0.0000 C   0  0  0  0  0  0  0  0  0  0  0  0
    0.0000   -2.2500    0.0000 C   0  0  0  0  0  0  0  0  0  0  0  0
    9.0701   -6.4507    0.0000 O   0  0  0  0  0  0  0  0  0  0  0  0
   11.3201   -5.1517    0.0000 C   0  0  0  0  0  0  0  0  0  0  0  0
   -2.5980   -0.7499    0.0000 C   0  0  0  0  0  0  0  0  0  0  0  0
   -1.2990   -2.9999    0.0000 C   0  0  0  0  0  0  0  0  0  0  0  0
   12.2018   -6.3652    0.0000 O   0  0  0  0  0  0  0  0  0  0  0  0
   12.2018   -3.9382    0.0000 C   0  0  0  0  0  0  0  0  0  0  0  0
   -2.5980   -2.2499    0.0000 C   0  0  0  0  0  0  0  0  0  0  0  0
   13.6284   -5.9017    0.0000 C   0  0  0  0  0  0  0  0  0  0  0  0
   13.6284   -4.4017    0.0000 C   0  0  0  0  0  0  0  0  0  0  0  0
   11.7383   -2.5116    0.0000 C   0  0  0  0  0  0  0  0  0  0  0  0
   14.9274   -6.6517    0.0000 C   0  0  0  0  0  0  0  0  0  0  0  0
   14.9274   -3.6517    0.0000 C   0  0  0  0  0  0  0  0  0  0  0  0
   16.2265   -5.9017    0.0000 C   0  0  0  0  0  0  0  0  0  0  0  0
   16.2265   -4.4017    0.0000 C   0  0  0  0  0  0  0  0  0  0  0  0
  1  2  1  0
  1  3  1  0
  2  4  1  0
  2  5  2  0
  3  6  2  0
  3  7  1  0
  4  8  2  0
  4  9  1  0
  6 10  1  0
  7 11  1  0
  9 12  1  0
 10 13  1  0
 12 14  1  0
 13 15  1  0
 14 16  2  0
 14 17  1  0
 15 18  2  0
 15 19  1  0
 16 20  1  0
 17 21  2  0
 19 22  1  0
 19 23  2  0
 20 24  2  0
 22 25  1  0
 23 26  1  0
 23 27  1  0
 25 28  2  0
 26 29  2  0
 28 30  1  0
 29 31  1  0
  5  6  1  0
 11 13  1  0
 21 24  1  0
 25 26  1  0
 30 31  2  0
M  END
>  <Molecule Name>  (65) 
CTX-1020516

>  <SMILES>  (65) 
CC1=C(OC2=C1C=CC=C2)C(=O)N1CCC2=C(C1)C=C(S2)C(=O)NCC1=CC=CC=C1

>  <Batch Name>  (65) 
CTX-1020516-1

>  <Batch Created Date>  (65) 
2021-11-04

>  <Batch ID>  (65) 
CTX-1020516-1

>  <External ID>  (65) 
610EDL073-C

>  <Stereochemistry>  (65) 
Achiral

>  <Amount 1>  (65) 
6.65

>  <Unit 1>  (65) 
mg

>  <CRO 1>  (65) 
Pharmaron

>  <CRO 1 Total Amount>  (65) 
6.4

>  <CRO 1 Unit>  (65) 
mg

>  <Pharmaron Solubility (PBS, pH 7.4): Aqueous Solubility - Batch Mean (uM)>  (65) 
0.0048

>  <Pharmaron Solubility (PBS, pH 7.4): Aqueous Solubility - Batch Mean (uM) Standard Deviation (±)>  (65) 


>  <Pharmaron Solubility (PBS, pH 7.4): Aqueous Solubility - Batch Mean (uM) Count>  (65) 
1.0

>  <log P>  (65) 
4.47

>  <log D>  (65) 
4.47

>  <Pharmaron Caliper Assay (CDK2/CCNE1): Minimum measured (%)>  (65) 
52.0

>  <Pharmaron Caliper Assay (CDK2/CCNE1): IC50 - Batch Mean (uM)>  (65) 
0.75

>  <Pharmaron ADPGLO (CDK2/E1-25C): Minimum measured (%)>  (65) 


>  <Pharmaron ADPGLO (CDK2/E1-25C): IC50 - Batch Mean (uM)>  (65) 


>  <Pharmaron ADPGLO (CDK2/E1-37C): Minimum measured (%)>  (65) 


>  <Pharmaron ADPGLO (CDK2/E1-37C): IC50 - Batch Mean (uM)>  (65) 


>  <IncuCyte Kuramochi RB-WT: IC50 - Batch Mean (uM)>  (65) 
20.0

>  <IncuCyte Kuramochi RB-KO: IC50 - Batch Mean (uM)>  (65) 
20.0

>  <DSF (npCDK2/CCNE1): dTm D - Batch Mean [Concentration: 100]>  (65) 


>  <DSF (npCDK2/CCNE1): dTm D - Batch Mean [Concentration: 20.0]>  (65) 
2.501

>  <DSF (pCDK2/CCNE1): dTm D - Batch Mean [Concentration: 100]>  (65) 


>  <DSF (pCDK2/CCNE1): dTm D - Batch Mean [Concentration: 20.0]>  (65) 
1.147

>  <RLM: t1/2 - Batch Mean (Min)>  (65) 


>  <RLM: Cl int - Batch Mean (uL/min/mg protein)>  (65) 


>  <RLM: ER (Hepatic extraction ratio) - Batch Mean>  (65) 


>  <HLM: t1/2 - Batch Mean (Min)>  (65) 


>  <HLM: Cl int - Batch Mean (uL/min/mg protein)>  (65) 


>  <HLM: ER (Hepatic extraction ratio) - Batch Mean>  (65) 


>  <MDCK-WT 4% BSA: Papp (A-B) - Batch Mean (10-6, cm/s)>  (65) 


>  <MDCK-WT 4% BSA: Papp (B-A) - Batch Mean (10-6, cm/s)>  (65) 


>  <MDCK-WT 4% BSA: Efflux Ratio - Batch Mean>  (65) 


>  <MDCK-WT 4% BSA: ~Net A_B - Batch Mean (10-6, cm/s)>  (65) 


>  <pIC50>  (65) 
6.124939

>  <Selection_1>  (65) 
Y

>  <Selection_N>  (65) 
N

>  <Serie>  (65) 
Tetrahydrothienopyridine

>  <Selection_T>  (65) 


>  <Train_Vs_Test>  (65) 


$$$$
CTX-1020459
     RDKit          2D

 40 45  0  0  0  0  0  0  0  0999 V2000
   11.7429   -3.4344    0.0000 Cl  0  0  0  0  0  0  0  0  0  0  0  0
   11.2429   -2.5684    0.0000 C   0  0  0  0  0  0  0  0  0  0  0  0
   10.2429   -2.5684    0.0000 C   0  0  0  0  0  0  0  0  0  0  0  0
   11.7429   -1.7024    0.0000 C   0  0  0  0  0  0  0  0  0  0  0  0
    9.7429   -1.7024    0.0000 C   0  0  0  0  0  0  0  0  0  0  0  0
   11.2429   -0.8364    0.0000 C   0  0  0  0  0  0  0  0  0  0  0  0
   10.2429   -0.8364    0.0000 C   0  0  0  0  0  0  0  0  0  0  0  0
    8.7647   -1.4945    0.0000 C   0  0  0  0  0  0  0  0  0  0  0  0
    9.5737   -0.0932    0.0000 O   0  0  0  0  0  0  0  0  0  0  0  0
    8.6602   -0.5000    0.0000 C   0  0  0  0  0  0  0  0  0  0  0  0
    8.0216   -2.1636    0.0000 C   0  0  0  0  0  0  0  0  0  0  0  0
    7.7942    0.0000    0.0000 C   0  0  0  0  0  0  0  0  0  0  0  0
    7.7942    0.9999    0.0000 O   0  0  0  0  0  0  0  0  0  0  0  0
    6.9282   -0.5000    0.0000 N   0  0  0  0  0  0  0  0  0  0  0  0
    6.0621    0.0000    0.0000 C   0  0  0  0  0  0  0  0  0  0  0  0
    6.9282   -1.4999    0.0000 C   0  0  0  0  0  0  0  0  0  0  0  0
    5.1961   -0.5000    0.0000 C   0  0  0  0  0  0  0  0  0  0  0  0
    6.0621   -1.9999    0.0000 C   0  0  0  0  0  0  0  0  0  0  0  0
    4.3301    0.0000    0.0000 N   0  0  0  0  0  0  0  0  0  0  0  0
    5.1961   -1.4999    0.0000 C   0  0  0  0  0  0  0  0  0  0  0  0
    3.4641   -0.5000    0.0000 C   0  0  0  0  0  0  0  0  0  0  0  0
    4.3301   -2.0000    0.0000 C   0  0  0  0  0  0  0  0  0  0  0  0
    2.5980    0.0000    0.0000 C   0  0  0  0  0  0  0  0  0  0  0  0
    3.4641   -1.4999    0.0000 C   0  0  0  0  0  0  0  0  0  0  0  0
    2.5980    1.0000    0.0000 O   0  0  0  0  0  0  0  0  0  0  0  0
    1.7320   -0.5000    0.0000 N   0  0  0  0  0  0  0  0  0  0  0  0
    0.8660    0.0000    0.0000 C   0  0  0  0  0  0  0  0  0  0  0  0
    0.0000   -0.5000    0.0000 C   0  0  0  0  0  0  0  0  0  0  0  0
   -0.8660    0.0000    0.0000 C   0  0  0  0  0  0  0  0  0  0  0  0
    0.0000   -1.4999    0.0000 C   0  0  0  0  0  0  0  0  0  0  0  0
   -1.7320   -0.4999    0.0000 C   0  0  0  0  0  0  0  0  0  0  0  0
   -0.8660   -1.9999    0.0000 C   0  0  0  0  0  0  0  0  0  0  0  0
   -1.7320   -1.4999    0.0000 C   0  0  0  0  0  0  0  0  0  0  0  0
   -2.5980   -1.9999    0.0000 N   0  0  0  0  0  0  0  0  0  0  0  0
   -3.4641   -1.4999    0.0000 C   0  0  0  0  0  0  0  0  0  0  0  0
   -2.5980   -2.9999    0.0000 C   0  0  0  0  0  0  0  0  0  0  0  0
   -4.3301   -1.9999    0.0000 C   0  0  0  0  0  0  0  0  0  0  0  0
   -3.4641   -3.4999    0.0000 C   0  0  0  0  0  0  0  0  0  0  0  0
   -4.3301   -2.9999    0.0000 N   0  0  0  0  0  0  0  0  0  0  0  0
   -5.1961   -3.4999    0.0000 C   0  0  0  0  0  0  0  0  0  0  0  0
  1  2  1  0
  2  3  2  0
  2  4  1  0
  3  5  1  0
  4  6  2  0
  5  7  2  0
  5  8  1  0
  7  9  1  0
  8 10  2  0
  8 11  1  0
 10 12  1  0
 12 13  2  0
 12 14  1  0
 14 15  1  0
 14 16  1  0
 15 17  1  0
 16 18  1  0
 17 19  2  0
 17 20  1  0
 19 21  1  0
 20 22  2  0
 21 23  1  0
 21 24  2  0
 23 25  2  0
 23 26  1  0
 26 27  1  0
 27 28  1  0
 28 29  2  0
 28 30  1  0
 29 31  1  0
 30 32  2  0
 31 33  2  0
 33 34  1  0
 34 35  1  0
 34 36  1  0
 35 37  1  0
 36 38  1  0
 37 39  1  0
 39 40  1  0
  6  7  1  0
  9 10  1  0
 18 20  1  0
 22 24  1  0
 32 33  1  0
 38 39  1  0
M  END
>  <Molecule Name>  (66) 
CTX-1020459

>  <SMILES>  (66) 
CN1CCN(CC1)C1=CC=C(CNC(=O)C2=CC=C3CCN(CC3=N2)C(=O)C2=C(C)C3=C(O2)C=CC(Cl)=C3)C=C1

>  <Batch Name>  (66) 
CTX-1020459-1

>  <Batch Created Date>  (66) 
2021-10-21

>  <Batch ID>  (66) 
CTX-1020459-1

>  <External ID>  (66) 
P841-0208

>  <Stereochemistry>  (66) 
Achiral

>  <Amount 1>  (66) 
5.2

>  <Unit 1>  (66) 
mg

>  <CRO 1>  (66) 
Pharmaron

>  <CRO 1 Total Amount>  (66) 
32.2

>  <CRO 1 Unit>  (66) 
mg

>  <Pharmaron Solubility (PBS, pH 7.4): Aqueous Solubility - Batch Mean (uM)>  (66) 
1.5634

>  <Pharmaron Solubility (PBS, pH 7.4): Aqueous Solubility - Batch Mean (uM) Standard Deviation (±)>  (66) 


>  <Pharmaron Solubility (PBS, pH 7.4): Aqueous Solubility - Batch Mean (uM) Count>  (66) 
1.0

>  <log P>  (66) 
4.24

>  <log D>  (66) 
3.6

>  <Pharmaron Caliper Assay (CDK2/CCNE1): Minimum measured (%)>  (66) 
73.2

>  <Pharmaron Caliper Assay (CDK2/CCNE1): IC50 - Batch Mean (uM)>  (66) 
1.82

>  <Pharmaron ADPGLO (CDK2/E1-25C): Minimum measured (%)>  (66) 


>  <Pharmaron ADPGLO (CDK2/E1-25C): IC50 - Batch Mean (uM)>  (66) 


>  <Pharmaron ADPGLO (CDK2/E1-37C): Minimum measured (%)>  (66) 


>  <Pharmaron ADPGLO (CDK2/E1-37C): IC50 - Batch Mean (uM)>  (66) 


>  <IncuCyte Kuramochi RB-WT: IC50 - Batch Mean (uM)>  (66) 
3.76

>  <IncuCyte Kuramochi RB-KO: IC50 - Batch Mean (uM)>  (66) 
4.13

>  <DSF (npCDK2/CCNE1): dTm D - Batch Mean [Concentration: 100]>  (66) 


>  <DSF (npCDK2/CCNE1): dTm D - Batch Mean [Concentration: 20.0]>  (66) 
0.341

>  <DSF (pCDK2/CCNE1): dTm D - Batch Mean [Concentration: 100]>  (66) 


>  <DSF (pCDK2/CCNE1): dTm D - Batch Mean [Concentration: 20.0]>  (66) 


>  <RLM: t1/2 - Batch Mean (Min)>  (66) 


>  <RLM: Cl int - Batch Mean (uL/min/mg protein)>  (66) 


>  <RLM: ER (Hepatic extraction ratio) - Batch Mean>  (66) 


>  <HLM: t1/2 - Batch Mean (Min)>  (66) 


>  <HLM: Cl int - Batch Mean (uL/min/mg protein)>  (66) 


>  <HLM: ER (Hepatic extraction ratio) - Batch Mean>  (66) 


>  <MDCK-WT 4% BSA: Papp (A-B) - Batch Mean (10-6, cm/s)>  (66) 


>  <MDCK-WT 4% BSA: Papp (B-A) - Batch Mean (10-6, cm/s)>  (66) 


>  <MDCK-WT 4% BSA: Efflux Ratio - Batch Mean>  (66) 


>  <MDCK-WT 4% BSA: ~Net A_B - Batch Mean (10-6, cm/s)>  (66) 


>  <pIC50>  (66) 
5.739929

>  <Selection_1>  (66) 
Y

>  <Selection_N>  (66) 


>  <Serie>  (66) 
Naphthyridine

>  <Selection_T>  (66) 
N

>  <Train_Vs_Test>  (66) 


$$$$
CTX-1020458
     RDKit          2D

 40 45  0  0  0  0  0  0  0  0999 V2000
    5.1961   -0.7500    0.0000 O   0  0  0  0  0  0  0  0  0  0  0  0
    3.8971    0.0000    0.0000 C   0  0  0  0  0  0  0  0  0  0  0  0
    2.5980   -0.7500    0.0000 N   0  0  0  0  0  0  0  0  0  0  0  0
    3.8971    1.5000    0.0000 C   0  0  0  0  0  0  0  0  0  0  0  0
    1.2990    0.0000    0.0000 C   0  0  0  0  0  0  0  0  0  0  0  0
    5.1961    2.2500    0.0000 N   0  0  0  0  0  0  0  0  0  0  0  0
    2.5980    2.2500    0.0000 C   0  0  0  0  0  0  0  0  0  0  0  0
    0.0000   -0.7500    0.0000 C   0  0  0  0  0  0  0  0  0  0  0  0
    5.1961    3.7500    0.0000 C   0  0  0  0  0  0  0  0  0  0  0  0
    2.5980    3.7500    0.0000 C   0  0  0  0  0  0  0  0  0  0  0  0
   -1.2990    0.0000    0.0000 C   0  0  0  0  0  0  0  0  0  0  0  0
    0.0000   -2.2499    0.0000 C   0  0  0  0  0  0  0  0  0  0  0  0
    3.8971    4.5000    0.0000 C   0  0  0  0  0  0  0  0  0  0  0  0
    6.4951    4.5000    0.0000 C   0  0  0  0  0  0  0  0  0  0  0  0
   -2.5980   -0.7499    0.0000 C   0  0  0  0  0  0  0  0  0  0  0  0
   -1.2990   -2.9999    0.0000 C   0  0  0  0  0  0  0  0  0  0  0  0
    3.8971    6.0000    0.0000 C   0  0  0  0  0  0  0  0  0  0  0  0
    6.4951    6.0000    0.0000 N   0  0  0  0  0  0  0  0  0  0  0  0
   -2.5980   -2.2499    0.0000 C   0  0  0  0  0  0  0  0  0  0  0  0
    5.1961    6.7500    0.0000 C   0  0  0  0  0  0  0  0  0  0  0  0
    7.7942    6.7500    0.0000 C   0  0  0  0  0  0  0  0  0  0  0  0
   -3.8971   -2.9999    0.0000 N   0  0  0  0  0  0  0  0  0  0  0  0
    9.0932    6.0000    0.0000 O   0  0  0  0  0  0  0  0  0  0  0  0
    7.7942    8.2500    0.0000 C   0  0  0  0  0  0  0  0  0  0  0  0
   -5.1961   -2.2499    0.0000 C   0  0  0  0  0  0  0  0  0  0  0  0
   -3.8971   -4.4999    0.0000 C   0  0  0  0  0  0  0  0  0  0  0  0
    9.0077    9.1316    0.0000 O   0  0  0  0  0  0  0  0  0  0  0  0
    6.5807    9.1316    0.0000 C   0  0  0  0  0  0  0  0  0  0  0  0
   -6.4951   -2.9999    0.0000 C   0  0  0  0  0  0  0  0  0  0  0  0
   -5.1961   -5.2499    0.0000 C   0  0  0  0  0  0  0  0  0  0  0  0
    8.5442   10.5582    0.0000 C   0  0  0  0  0  0  0  0  0  0  0  0
    7.0442   10.5582    0.0000 C   0  0  0  0  0  0  0  0  0  0  0  0
    5.1541    8.6681    0.0000 C   0  0  0  0  0  0  0  0  0  0  0  0
   -6.4951   -4.4999    0.0000 N   0  0  0  0  0  0  0  0  0  0  0  0
    9.2942   11.8573    0.0000 C   0  0  0  0  0  0  0  0  0  0  0  0
    6.2942   11.8573    0.0000 C   0  0  0  0  0  0  0  0  0  0  0  0
   -7.7942   -5.2499    0.0000 C   0  0  0  0  0  0  0  0  0  0  0  0
    8.5442   13.1563    0.0000 C   0  0  0  0  0  0  0  0  0  0  0  0
    7.0442   13.1563    0.0000 C   0  0  0  0  0  0  0  0  0  0  0  0
    9.2942   14.4553    0.0000 C   0  0  0  0  0  0  0  0  0  0  0  0
  1  2  2  0
  2  3  1  0
  2  4  1  0
  3  5  1  0
  4  6  2  0
  4  7  1  0
  5  8  1  0
  6  9  1  0
  7 10  2  0
  8 11  2  0
  8 12  1  0
  9 13  2  0
  9 14  1  0
 11 15  1  0
 12 16  2  0
 13 17  1  0
 14 18  1  0
 15 19  2  0
 17 20  1  0
 18 21  1  0
 19 22  1  0
 21 23  2  0
 21 24  1  0
 22 25  1  0
 22 26  1  0
 24 27  1  0
 24 28  2  0
 25 29  1  0
 26 30  1  0
 27 31  1  0
 28 32  1  0
 28 33  1  0
 29 34  1  0
 31 35  2  0
 32 36  2  0
 34 37  1  0
 35 38  1  0
 36 39  1  0
 38 40  1  0
 10 13  1  0
 16 19  1  0
 18 20  1  0
 30 34  1  0
 31 32  1  0
 38 39  2  0
M  END
>  <Molecule Name>  (67) 
CTX-1020458

>  <SMILES>  (67) 
CN1CCN(CC1)C1=CC=C(CNC(=O)C2=NC3=C(CCN(C3)C(=O)C3=C(C)C4=C(O3)C=C(C)C=C4)C=C2)C=C1

>  <Batch Name>  (67) 
CTX-1020458-1

>  <Batch Created Date>  (67) 
2021-10-21

>  <Batch ID>  (67) 
CTX-1020458-1

>  <External ID>  (67) 
P841-0212

>  <Stereochemistry>  (67) 
Achiral

>  <Amount 1>  (67) 
4.6

>  <Unit 1>  (67) 
mg

>  <CRO 1>  (67) 
Pharmaron

>  <CRO 1 Total Amount>  (67) 
28.0

>  <CRO 1 Unit>  (67) 
mg

>  <Pharmaron Solubility (PBS, pH 7.4): Aqueous Solubility - Batch Mean (uM)>  (67) 
2.0444

>  <Pharmaron Solubility (PBS, pH 7.4): Aqueous Solubility - Batch Mean (uM) Standard Deviation (±)>  (67) 


>  <Pharmaron Solubility (PBS, pH 7.4): Aqueous Solubility - Batch Mean (uM) Count>  (67) 
1.0

>  <log P>  (67) 
4.15

>  <log D>  (67) 
3.51

>  <Pharmaron Caliper Assay (CDK2/CCNE1): Minimum measured (%)>  (67) 
64.0

>  <Pharmaron Caliper Assay (CDK2/CCNE1): IC50 - Batch Mean (uM)>  (67) 
4.75

>  <Pharmaron ADPGLO (CDK2/E1-25C): Minimum measured (%)>  (67) 


>  <Pharmaron ADPGLO (CDK2/E1-25C): IC50 - Batch Mean (uM)>  (67) 


>  <Pharmaron ADPGLO (CDK2/E1-37C): Minimum measured (%)>  (67) 


>  <Pharmaron ADPGLO (CDK2/E1-37C): IC50 - Batch Mean (uM)>  (67) 


>  <IncuCyte Kuramochi RB-WT: IC50 - Batch Mean (uM)>  (67) 
3.67

>  <IncuCyte Kuramochi RB-KO: IC50 - Batch Mean (uM)>  (67) 
3.67

>  <DSF (npCDK2/CCNE1): dTm D - Batch Mean [Concentration: 100]>  (67) 


>  <DSF (npCDK2/CCNE1): dTm D - Batch Mean [Concentration: 20.0]>  (67) 
0.624

>  <DSF (pCDK2/CCNE1): dTm D - Batch Mean [Concentration: 100]>  (67) 


>  <DSF (pCDK2/CCNE1): dTm D - Batch Mean [Concentration: 20.0]>  (67) 


>  <RLM: t1/2 - Batch Mean (Min)>  (67) 


>  <RLM: Cl int - Batch Mean (uL/min/mg protein)>  (67) 


>  <RLM: ER (Hepatic extraction ratio) - Batch Mean>  (67) 


>  <HLM: t1/2 - Batch Mean (Min)>  (67) 


>  <HLM: Cl int - Batch Mean (uL/min/mg protein)>  (67) 


>  <HLM: ER (Hepatic extraction ratio) - Batch Mean>  (67) 


>  <MDCK-WT 4% BSA: Papp (A-B) - Batch Mean (10-6, cm/s)>  (67) 


>  <MDCK-WT 4% BSA: Papp (B-A) - Batch Mean (10-6, cm/s)>  (67) 


>  <MDCK-WT 4% BSA: Efflux Ratio - Batch Mean>  (67) 


>  <MDCK-WT 4% BSA: ~Net A_B - Batch Mean (10-6, cm/s)>  (67) 


>  <pIC50>  (67) 
5.323306

>  <Selection_1>  (67) 
Y

>  <Selection_N>  (67) 


>  <Serie>  (67) 
Naphthyridine

>  <Selection_T>  (67) 
N

>  <Train_Vs_Test>  (67) 


$$$$
CTX-1020456
     RDKit          2D

 39 44  0  0  0  0  0  0  0  0999 V2000
    9.7817    0.8848    0.0000 Cl  0  0  0  0  0  0  0  0  0  0  0  0
    9.5737   -0.0932    0.0000 C   0  0  0  0  0  0  0  0  0  0  0  0
    8.6602   -0.5000    0.0000 C   0  0  0  0  0  0  0  0  0  0  0  0
   10.2429   -0.8364    0.0000 C   0  0  0  0  0  0  0  0  0  0  0  0
    8.7647   -1.4945    0.0000 S   0  0  0  0  0  0  0  0  0  0  0  0
    7.7942    0.0000    0.0000 C   0  0  0  0  0  0  0  0  0  0  0  0
    9.7429   -1.7024    0.0000 C   0  0  0  0  0  0  0  0  0  0  0  0
   11.2429   -0.8364    0.0000 C   0  0  0  0  0  0  0  0  0  0  0  0
    7.7942    0.9999    0.0000 O   0  0  0  0  0  0  0  0  0  0  0  0
    6.9282   -0.5000    0.0000 N   0  0  0  0  0  0  0  0  0  0  0  0
   10.2429   -2.5684    0.0000 C   0  0  0  0  0  0  0  0  0  0  0  0
   11.7429   -1.7024    0.0000 C   0  0  0  0  0  0  0  0  0  0  0  0
    6.0621    0.0000    0.0000 C   0  0  0  0  0  0  0  0  0  0  0  0
    6.9282   -1.4999    0.0000 C   0  0  0  0  0  0  0  0  0  0  0  0
   11.2429   -2.5684    0.0000 C   0  0  0  0  0  0  0  0  0  0  0  0
    5.1961   -0.5000    0.0000 C   0  0  0  0  0  0  0  0  0  0  0  0
    6.0621   -1.9999    0.0000 C   0  0  0  0  0  0  0  0  0  0  0  0
    4.3301    0.0000    0.0000 N   0  0  0  0  0  0  0  0  0  0  0  0
    5.1961   -1.4999    0.0000 C   0  0  0  0  0  0  0  0  0  0  0  0
    3.4641   -0.5000    0.0000 C   0  0  0  0  0  0  0  0  0  0  0  0
    4.3301   -2.0000    0.0000 C   0  0  0  0  0  0  0  0  0  0  0  0
    2.5980    0.0000    0.0000 C   0  0  0  0  0  0  0  0  0  0  0  0
    3.4641   -1.4999    0.0000 C   0  0  0  0  0  0  0  0  0  0  0  0
    2.5980    1.0000    0.0000 O   0  0  0  0  0  0  0  0  0  0  0  0
    1.7320   -0.5000    0.0000 N   0  0  0  0  0  0  0  0  0  0  0  0
    0.8660    0.0000    0.0000 C   0  0  0  0  0  0  0  0  0  0  0  0
    0.0000   -0.5000    0.0000 C   0  0  0  0  0  0  0  0  0  0  0  0
   -0.8660    0.0000    0.0000 C   0  0  0  0  0  0  0  0  0  0  0  0
    0.0000   -1.4999    0.0000 C   0  0  0  0  0  0  0  0  0  0  0  0
   -1.7320   -0.4999    0.0000 C   0  0  0  0  0  0  0  0  0  0  0  0
   -0.8660   -1.9999    0.0000 C   0  0  0  0  0  0  0  0  0  0  0  0
   -1.7320   -1.4999    0.0000 C   0  0  0  0  0  0  0  0  0  0  0  0
   -2.5980   -1.9999    0.0000 N   0  0  0  0  0  0  0  0  0  0  0  0
   -3.4641   -1.4999    0.0000 C   0  0  0  0  0  0  0  0  0  0  0  0
   -2.5980   -2.9999    0.0000 C   0  0  0  0  0  0  0  0  0  0  0  0
   -4.3301   -1.9999    0.0000 C   0  0  0  0  0  0  0  0  0  0  0  0
   -3.4641   -3.4999    0.0000 C   0  0  0  0  0  0  0  0  0  0  0  0
   -4.3301   -2.9999    0.0000 N   0  0  0  0  0  0  0  0  0  0  0  0
   -5.1961   -3.4999    0.0000 C   0  0  0  0  0  0  0  0  0  0  0  0
  1  2  1  0
  2  3  2  0
  2  4  1  0
  3  5  1  0
  3  6  1  0
  4  7  2  0
  4  8  1  0
  6  9  2  0
  6 10  1  0
  7 11  1  0
  8 12  2  0
 10 13  1  0
 10 14  1  0
 11 15  2  0
 13 16  1  0
 14 17  1  0
 16 18  2  0
 16 19  1  0
 18 20  1  0
 19 21  2  0
 20 22  1  0
 20 23  2  0
 22 24  2  0
 22 25  1  0
 25 26  1  0
 26 27  1  0
 27 28  2  0
 27 29  1  0
 28 30  1  0
 29 31  2  0
 30 32  2  0
 32 33  1  0
 33 34  1  0
 33 35  1  0
 34 36  1  0
 35 37  1  0
 36 38  1  0
 38 39  1  0
  5  7  1  0
 12 15  1  0
 17 19  1  0
 21 23  1  0
 31 32  1  0
 37 38  1  0
M  END
>  <Molecule Name>  (68) 
CTX-1020456

>  <SMILES>  (68) 
CN1CCN(CC1)C1=CC=C(CNC(=O)C2=CC=C3CCN(CC3=N2)C(=O)C2=C(Cl)C3=C(S2)C=CC=C3)C=C1

>  <Batch Name>  (68) 
CTX-1020456-1

>  <Batch Created Date>  (68) 
2021-10-21

>  <Batch ID>  (68) 
CTX-1020456-1

>  <External ID>  (68) 
P841-0209

>  <Stereochemistry>  (68) 
Achiral

>  <Amount 1>  (68) 
4.6

>  <Unit 1>  (68) 
mg

>  <CRO 1>  (68) 
Pharmaron

>  <CRO 1 Total Amount>  (68) 
37.7

>  <CRO 1 Unit>  (68) 
mg

>  <Pharmaron Solubility (PBS, pH 7.4): Aqueous Solubility - Batch Mean (uM)>  (68) 
99.823

>  <Pharmaron Solubility (PBS, pH 7.4): Aqueous Solubility - Batch Mean (uM) Standard Deviation (±)>  (68) 


>  <Pharmaron Solubility (PBS, pH 7.4): Aqueous Solubility - Batch Mean (uM) Count>  (68) 
1.0

>  <log P>  (68) 
4.65

>  <log D>  (68) 
4.02

>  <Pharmaron Caliper Assay (CDK2/CCNE1): Minimum measured (%)>  (68) 
31.9

>  <Pharmaron Caliper Assay (CDK2/CCNE1): IC50 - Batch Mean (uM)>  (68) 
1.1

>  <Pharmaron ADPGLO (CDK2/E1-25C): Minimum measured (%)>  (68) 
79.3

>  <Pharmaron ADPGLO (CDK2/E1-25C): IC50 - Batch Mean (uM)>  (68) 
0.894

>  <Pharmaron ADPGLO (CDK2/E1-37C): Minimum measured (%)>  (68) 
102.0

>  <Pharmaron ADPGLO (CDK2/E1-37C): IC50 - Batch Mean (uM)>  (68) 
10.0

>  <IncuCyte Kuramochi RB-WT: IC50 - Batch Mean (uM)>  (68) 
5.71

>  <IncuCyte Kuramochi RB-KO: IC50 - Batch Mean (uM)>  (68) 
5.16

>  <DSF (npCDK2/CCNE1): dTm D - Batch Mean [Concentration: 100]>  (68) 


>  <DSF (npCDK2/CCNE1): dTm D - Batch Mean [Concentration: 20.0]>  (68) 
1.2890000000000001

>  <DSF (pCDK2/CCNE1): dTm D - Batch Mean [Concentration: 100]>  (68) 


>  <DSF (pCDK2/CCNE1): dTm D - Batch Mean [Concentration: 20.0]>  (68) 
0.779

>  <RLM: t1/2 - Batch Mean (Min)>  (68) 


>  <RLM: Cl int - Batch Mean (uL/min/mg protein)>  (68) 


>  <RLM: ER (Hepatic extraction ratio) - Batch Mean>  (68) 


>  <HLM: t1/2 - Batch Mean (Min)>  (68) 
6.37

>  <HLM: Cl int - Batch Mean (uL/min/mg protein)>  (68) 
220.87

>  <HLM: ER (Hepatic extraction ratio) - Batch Mean>  (68) 
0.914

>  <MDCK-WT 4% BSA: Papp (A-B) - Batch Mean (10-6, cm/s)>  (68) 


>  <MDCK-WT 4% BSA: Papp (B-A) - Batch Mean (10-6, cm/s)>  (68) 


>  <MDCK-WT 4% BSA: Efflux Ratio - Batch Mean>  (68) 


>  <MDCK-WT 4% BSA: ~Net A_B - Batch Mean (10-6, cm/s)>  (68) 


>  <pIC50>  (68) 
5.958607

>  <Selection_1>  (68) 
Y

>  <Selection_N>  (68) 


>  <Serie>  (68) 
Naphthyridine

>  <Selection_T>  (68) 
N

>  <Train_Vs_Test>  (68) 


$$$$
CTX-1020454
     RDKit          2D

 40 45  0  0  0  0  0  0  0  0999 V2000
   11.7429    0.0296    0.0000 F   0  0  0  0  0  0  0  0  0  0  0  0
   11.2429   -0.8364    0.0000 C   0  0  0  0  0  0  0  0  0  0  0  0
   10.2429   -0.8364    0.0000 C   0  0  0  0  0  0  0  0  0  0  0  0
   11.7429   -1.7024    0.0000 C   0  0  0  0  0  0  0  0  0  0  0  0
    9.5737   -0.0932    0.0000 O   0  0  0  0  0  0  0  0  0  0  0  0
    9.7429   -1.7024    0.0000 C   0  0  0  0  0  0  0  0  0  0  0  0
   11.2429   -2.5684    0.0000 C   0  0  0  0  0  0  0  0  0  0  0  0
    8.6602   -0.5000    0.0000 C   0  0  0  0  0  0  0  0  0  0  0  0
    8.7647   -1.4945    0.0000 C   0  0  0  0  0  0  0  0  0  0  0  0
   10.2429   -2.5684    0.0000 C   0  0  0  0  0  0  0  0  0  0  0  0
    7.7942    0.0000    0.0000 C   0  0  0  0  0  0  0  0  0  0  0  0
    8.0216   -2.1636    0.0000 C   0  0  0  0  0  0  0  0  0  0  0  0
    7.7942    0.9999    0.0000 O   0  0  0  0  0  0  0  0  0  0  0  0
    6.9282   -0.5000    0.0000 N   0  0  0  0  0  0  0  0  0  0  0  0
    6.0621    0.0000    0.0000 C   0  0  0  0  0  0  0  0  0  0  0  0
    6.9282   -1.4999    0.0000 C   0  0  0  0  0  0  0  0  0  0  0  0
    5.1961   -0.5000    0.0000 C   0  0  0  0  0  0  0  0  0  0  0  0
    6.0621   -1.9999    0.0000 C   0  0  0  0  0  0  0  0  0  0  0  0
    4.3301    0.0000    0.0000 N   0  0  0  0  0  0  0  0  0  0  0  0
    5.1961   -1.4999    0.0000 C   0  0  0  0  0  0  0  0  0  0  0  0
    3.4641   -0.5000    0.0000 C   0  0  0  0  0  0  0  0  0  0  0  0
    4.3301   -2.0000    0.0000 C   0  0  0  0  0  0  0  0  0  0  0  0
    2.5980    0.0000    0.0000 C   0  0  0  0  0  0  0  0  0  0  0  0
    3.4641   -1.4999    0.0000 C   0  0  0  0  0  0  0  0  0  0  0  0
    2.5980    1.0000    0.0000 O   0  0  0  0  0  0  0  0  0  0  0  0
    1.7320   -0.5000    0.0000 N   0  0  0  0  0  0  0  0  0  0  0  0
    0.8660    0.0000    0.0000 C   0  0  0  0  0  0  0  0  0  0  0  0
    0.0000   -0.5000    0.0000 C   0  0  0  0  0  0  0  0  0  0  0  0
   -0.8660    0.0000    0.0000 C   0  0  0  0  0  0  0  0  0  0  0  0
    0.0000   -1.4999    0.0000 C   0  0  0  0  0  0  0  0  0  0  0  0
   -1.7320   -0.4999    0.0000 C   0  0  0  0  0  0  0  0  0  0  0  0
   -0.8660   -1.9999    0.0000 C   0  0  0  0  0  0  0  0  0  0  0  0
   -1.7320   -1.4999    0.0000 C   0  0  0  0  0  0  0  0  0  0  0  0
   -2.5980   -1.9999    0.0000 N   0  0  0  0  0  0  0  0  0  0  0  0
   -3.4641   -1.4999    0.0000 C   0  0  0  0  0  0  0  0  0  0  0  0
   -2.5980   -2.9999    0.0000 C   0  0  0  0  0  0  0  0  0  0  0  0
   -4.3301   -1.9999    0.0000 C   0  0  0  0  0  0  0  0  0  0  0  0
   -3.4641   -3.4999    0.0000 C   0  0  0  0  0  0  0  0  0  0  0  0
   -4.3301   -2.9999    0.0000 N   0  0  0  0  0  0  0  0  0  0  0  0
   -5.1961   -3.4999    0.0000 C   0  0  0  0  0  0  0  0  0  0  0  0
  1  2  1  0
  2  3  2  0
  2  4  1  0
  3  5  1  0
  3  6  1  0
  4  7  2  0
  5  8  1  0
  6  9  1  0
  6 10  2  0
  8 11  1  0
  9 12  1  0
 11 13  2  0
 11 14  1  0
 14 15  1  0
 14 16  1  0
 15 17  1  0
 16 18  1  0
 17 19  2  0
 17 20  1  0
 19 21  1  0
 20 22  2  0
 21 23  1  0
 21 24  2  0
 23 25  2  0
 23 26  1  0
 26 27  1  0
 27 28  1  0
 28 29  2  0
 28 30  1  0
 29 31  1  0
 30 32  2  0
 31 33  2  0
 33 34  1  0
 34 35  1  0
 34 36  1  0
 35 37  1  0
 36 38  1  0
 37 39  1  0
 39 40  1  0
  7 10  1  0
  8  9  2  0
 18 20  1  0
 22 24  1  0
 32 33  1  0
 38 39  1  0
M  END
>  <Molecule Name>  (69) 
CTX-1020454

>  <SMILES>  (69) 
CN1CCN(CC1)C1=CC=C(CNC(=O)C2=CC=C3CCN(CC3=N2)C(=O)C2=C(C)C3=CC=CC(F)=C3O2)C=C1

>  <Batch Name>  (69) 
CTX-1020454-1

>  <Batch Created Date>  (69) 
2021-10-21

>  <Batch ID>  (69) 
CTX-1020454-1

>  <External ID>  (69) 
P841-0210

>  <Stereochemistry>  (69) 
Achiral

>  <Amount 1>  (69) 
4.9

>  <Unit 1>  (69) 
mg

>  <CRO 1>  (69) 
Pharmaron

>  <CRO 1 Total Amount>  (69) 
34.7

>  <CRO 1 Unit>  (69) 
mg

>  <Pharmaron Solubility (PBS, pH 7.4): Aqueous Solubility - Batch Mean (uM)>  (69) 
3.2155

>  <Pharmaron Solubility (PBS, pH 7.4): Aqueous Solubility - Batch Mean (uM) Standard Deviation (±)>  (69) 


>  <Pharmaron Solubility (PBS, pH 7.4): Aqueous Solubility - Batch Mean (uM) Count>  (69) 
1.0

>  <log P>  (69) 
3.77

>  <log D>  (69) 
3.14

>  <Pharmaron Caliper Assay (CDK2/CCNE1): Minimum measured (%)>  (69) 
38.9

>  <Pharmaron Caliper Assay (CDK2/CCNE1): IC50 - Batch Mean (uM)>  (69) 
2.71

>  <Pharmaron ADPGLO (CDK2/E1-25C): Minimum measured (%)>  (69) 
57.8

>  <Pharmaron ADPGLO (CDK2/E1-25C): IC50 - Batch Mean (uM)>  (69) 
3.27

>  <Pharmaron ADPGLO (CDK2/E1-37C): Minimum measured (%)>  (69) 
98.2

>  <Pharmaron ADPGLO (CDK2/E1-37C): IC50 - Batch Mean (uM)>  (69) 
10.0

>  <IncuCyte Kuramochi RB-WT: IC50 - Batch Mean (uM)>  (69) 
5.92

>  <IncuCyte Kuramochi RB-KO: IC50 - Batch Mean (uM)>  (69) 
5.31

>  <DSF (npCDK2/CCNE1): dTm D - Batch Mean [Concentration: 100]>  (69) 


>  <DSF (npCDK2/CCNE1): dTm D - Batch Mean [Concentration: 20.0]>  (69) 
1.455

>  <DSF (pCDK2/CCNE1): dTm D - Batch Mean [Concentration: 100]>  (69) 


>  <DSF (pCDK2/CCNE1): dTm D - Batch Mean [Concentration: 20.0]>  (69) 


>  <RLM: t1/2 - Batch Mean (Min)>  (69) 


>  <RLM: Cl int - Batch Mean (uL/min/mg protein)>  (69) 


>  <RLM: ER (Hepatic extraction ratio) - Batch Mean>  (69) 


>  <HLM: t1/2 - Batch Mean (Min)>  (69) 


>  <HLM: Cl int - Batch Mean (uL/min/mg protein)>  (69) 


>  <HLM: ER (Hepatic extraction ratio) - Batch Mean>  (69) 


>  <MDCK-WT 4% BSA: Papp (A-B) - Batch Mean (10-6, cm/s)>  (69) 


>  <MDCK-WT 4% BSA: Papp (B-A) - Batch Mean (10-6, cm/s)>  (69) 


>  <MDCK-WT 4% BSA: Efflux Ratio - Batch Mean>  (69) 


>  <MDCK-WT 4% BSA: ~Net A_B - Batch Mean (10-6, cm/s)>  (69) 


>  <pIC50>  (69) 
5.567031

>  <Selection_1>  (69) 
Y

>  <Selection_N>  (69) 


>  <Serie>  (69) 
Naphthyridine

>  <Selection_T>  (69) 
N

>  <Train_Vs_Test>  (69) 


$$$$
CTX-1020453
     RDKit          2D

 39 44  0  0  0  0  0  0  0  0999 V2000
    9.7817    0.8848    0.0000 Cl  0  0  0  0  0  0  0  0  0  0  0  0
    9.5737   -0.0932    0.0000 C   0  0  0  0  0  0  0  0  0  0  0  0
    8.6602   -0.5000    0.0000 C   0  0  0  0  0  0  0  0  0  0  0  0
   10.2429   -0.8364    0.0000 C   0  0  0  0  0  0  0  0  0  0  0  0
    8.7647   -1.4945    0.0000 O   0  0  0  0  0  0  0  0  0  0  0  0
    7.7942    0.0000    0.0000 C   0  0  0  0  0  0  0  0  0  0  0  0
    9.7429   -1.7024    0.0000 C   0  0  0  0  0  0  0  0  0  0  0  0
   11.2429   -0.8364    0.0000 C   0  0  0  0  0  0  0  0  0  0  0  0
    7.7942    0.9999    0.0000 O   0  0  0  0  0  0  0  0  0  0  0  0
    6.9282   -0.5000    0.0000 N   0  0  0  0  0  0  0  0  0  0  0  0
   10.2429   -2.5684    0.0000 C   0  0  0  0  0  0  0  0  0  0  0  0
   11.7429   -1.7024    0.0000 C   0  0  0  0  0  0  0  0  0  0  0  0
    6.0621    0.0000    0.0000 C   0  0  0  0  0  0  0  0  0  0  0  0
    6.9282   -1.4999    0.0000 C   0  0  0  0  0  0  0  0  0  0  0  0
   11.2429   -2.5684    0.0000 C   0  0  0  0  0  0  0  0  0  0  0  0
    5.1961   -0.5000    0.0000 C   0  0  0  0  0  0  0  0  0  0  0  0
    6.0621   -1.9999    0.0000 C   0  0  0  0  0  0  0  0  0  0  0  0
    4.3301    0.0000    0.0000 N   0  0  0  0  0  0  0  0  0  0  0  0
    5.1961   -1.4999    0.0000 C   0  0  0  0  0  0  0  0  0  0  0  0
    3.4641   -0.5000    0.0000 C   0  0  0  0  0  0  0  0  0  0  0  0
    4.3301   -2.0000    0.0000 C   0  0  0  0  0  0  0  0  0  0  0  0
    2.5980    0.0000    0.0000 C   0  0  0  0  0  0  0  0  0  0  0  0
    3.4641   -1.4999    0.0000 C   0  0  0  0  0  0  0  0  0  0  0  0
    2.5980    1.0000    0.0000 O   0  0  0  0  0  0  0  0  0  0  0  0
    1.7320   -0.5000    0.0000 N   0  0  0  0  0  0  0  0  0  0  0  0
    0.8660    0.0000    0.0000 C   0  0  0  0  0  0  0  0  0  0  0  0
    0.0000   -0.5000    0.0000 C   0  0  0  0  0  0  0  0  0  0  0  0
   -0.8660    0.0000    0.0000 C   0  0  0  0  0  0  0  0  0  0  0  0
    0.0000   -1.4999    0.0000 C   0  0  0  0  0  0  0  0  0  0  0  0
   -1.7320   -0.4999    0.0000 C   0  0  0  0  0  0  0  0  0  0  0  0
   -0.8660   -1.9999    0.0000 C   0  0  0  0  0  0  0  0  0  0  0  0
   -1.7320   -1.4999    0.0000 C   0  0  0  0  0  0  0  0  0  0  0  0
   -2.5980   -1.9999    0.0000 N   0  0  0  0  0  0  0  0  0  0  0  0
   -3.4641   -1.4999    0.0000 C   0  0  0  0  0  0  0  0  0  0  0  0
   -2.5980   -2.9999    0.0000 C   0  0  0  0  0  0  0  0  0  0  0  0
   -4.3301   -1.9999    0.0000 C   0  0  0  0  0  0  0  0  0  0  0  0
   -3.4641   -3.4999    0.0000 C   0  0  0  0  0  0  0  0  0  0  0  0
   -4.3301   -2.9999    0.0000 N   0  0  0  0  0  0  0  0  0  0  0  0
   -5.1961   -3.4999    0.0000 C   0  0  0  0  0  0  0  0  0  0  0  0
  1  2  1  0
  2  3  2  0
  2  4  1  0
  3  5  1  0
  3  6  1  0
  4  7  2  0
  4  8  1  0
  6  9  2  0
  6 10  1  0
  7 11  1  0
  8 12  2  0
 10 13  1  0
 10 14  1  0
 11 15  2  0
 13 16  1  0
 14 17  1  0
 16 18  2  0
 16 19  1  0
 18 20  1  0
 19 21  2  0
 20 22  1  0
 20 23  2  0
 22 24  2  0
 22 25  1  0
 25 26  1  0
 26 27  1  0
 27 28  2  0
 27 29  1  0
 28 30  1  0
 29 31  2  0
 30 32  2  0
 32 33  1  0
 33 34  1  0
 33 35  1  0
 34 36  1  0
 35 37  1  0
 36 38  1  0
 38 39  1  0
  5  7  1  0
 12 15  1  0
 17 19  1  0
 21 23  1  0
 31 32  1  0
 37 38  1  0
M  END
>  <Molecule Name>  (70) 
CTX-1020453

>  <SMILES>  (70) 
CN1CCN(CC1)C1=CC=C(CNC(=O)C2=CC=C3CCN(CC3=N2)C(=O)C2=C(Cl)C3=C(O2)C=CC=C3)C=C1

>  <Batch Name>  (70) 
CTX-1020453-1

>  <Batch Created Date>  (70) 
2021-10-21

>  <Batch ID>  (70) 
CTX-1020453-1

>  <External ID>  (70) 
P841-0206

>  <Stereochemistry>  (70) 
Achiral

>  <Amount 1>  (70) 
4.3

>  <Unit 1>  (70) 
mg

>  <CRO 1>  (70) 
Pharmaron

>  <CRO 1 Total Amount>  (70) 
33.3

>  <CRO 1 Unit>  (70) 
mg

>  <Pharmaron Solubility (PBS, pH 7.4): Aqueous Solubility - Batch Mean (uM)>  (70) 
8.2603

>  <Pharmaron Solubility (PBS, pH 7.4): Aqueous Solubility - Batch Mean (uM) Standard Deviation (±)>  (70) 


>  <Pharmaron Solubility (PBS, pH 7.4): Aqueous Solubility - Batch Mean (uM) Count>  (70) 
1.0

>  <log P>  (70) 
3.72

>  <log D>  (70) 
3.09

>  <Pharmaron Caliper Assay (CDK2/CCNE1): Minimum measured (%)>  (70) 
60.0

>  <Pharmaron Caliper Assay (CDK2/CCNE1): IC50 - Batch Mean (uM)>  (70) 
1.73

>  <Pharmaron ADPGLO (CDK2/E1-25C): Minimum measured (%)>  (70) 


>  <Pharmaron ADPGLO (CDK2/E1-25C): IC50 - Batch Mean (uM)>  (70) 


>  <Pharmaron ADPGLO (CDK2/E1-37C): Minimum measured (%)>  (70) 


>  <Pharmaron ADPGLO (CDK2/E1-37C): IC50 - Batch Mean (uM)>  (70) 


>  <IncuCyte Kuramochi RB-WT: IC50 - Batch Mean (uM)>  (70) 
5.97

>  <IncuCyte Kuramochi RB-KO: IC50 - Batch Mean (uM)>  (70) 
5.37

>  <DSF (npCDK2/CCNE1): dTm D - Batch Mean [Concentration: 100]>  (70) 


>  <DSF (npCDK2/CCNE1): dTm D - Batch Mean [Concentration: 20.0]>  (70) 
0.941

>  <DSF (pCDK2/CCNE1): dTm D - Batch Mean [Concentration: 100]>  (70) 


>  <DSF (pCDK2/CCNE1): dTm D - Batch Mean [Concentration: 20.0]>  (70) 


>  <RLM: t1/2 - Batch Mean (Min)>  (70) 


>  <RLM: Cl int - Batch Mean (uL/min/mg protein)>  (70) 


>  <RLM: ER (Hepatic extraction ratio) - Batch Mean>  (70) 


>  <HLM: t1/2 - Batch Mean (Min)>  (70) 


>  <HLM: Cl int - Batch Mean (uL/min/mg protein)>  (70) 


>  <HLM: ER (Hepatic extraction ratio) - Batch Mean>  (70) 


>  <MDCK-WT 4% BSA: Papp (A-B) - Batch Mean (10-6, cm/s)>  (70) 


>  <MDCK-WT 4% BSA: Papp (B-A) - Batch Mean (10-6, cm/s)>  (70) 


>  <MDCK-WT 4% BSA: Efflux Ratio - Batch Mean>  (70) 


>  <MDCK-WT 4% BSA: ~Net A_B - Batch Mean (10-6, cm/s)>  (70) 


>  <pIC50>  (70) 
5.761954

>  <Selection_1>  (70) 
Y

>  <Selection_N>  (70) 


>  <Serie>  (70) 
Naphthyridine

>  <Selection_T>  (70) 
N

>  <Train_Vs_Test>  (70) 


$$$$
CTX-1020441
     RDKit          2D

 40 45  0  0  0  0  0  0  0  0999 V2000
    4.3301   -2.9999    0.0000 Cl  0  0  0  0  0  0  0  0  0  0  0  0
    4.3301   -1.9999    0.0000 C   0  0  0  0  0  0  0  0  0  0  0  0
    5.1961   -1.5000    0.0000 C   0  0  0  0  0  0  0  0  0  0  0  0
    3.4641   -1.5000    0.0000 C   0  0  0  0  0  0  0  0  0  0  0  0
    5.1961   -0.5000    0.0000 C   0  0  0  0  0  0  0  0  0  0  0  0
    6.0621   -2.0000    0.0000 C   0  0  0  0  0  0  0  0  0  0  0  0
    3.4641   -0.5000    0.0000 C   0  0  0  0  0  0  0  0  0  0  0  0
    4.3301    0.0000    0.0000 N   0  0  0  0  0  0  0  0  0  0  0  0
    6.0621    0.0000    0.0000 C   0  0  0  0  0  0  0  0  0  0  0  0
    6.9282   -1.5000    0.0000 C   0  0  0  0  0  0  0  0  0  0  0  0
    2.5980    0.0000    0.0000 C   0  0  0  0  0  0  0  0  0  0  0  0
    6.9282   -0.5000    0.0000 N   0  0  0  0  0  0  0  0  0  0  0  0
    2.5980    1.0000    0.0000 O   0  0  0  0  0  0  0  0  0  0  0  0
    1.7320   -0.5000    0.0000 N   0  0  0  0  0  0  0  0  0  0  0  0
    7.7942    0.0000    0.0000 C   0  0  0  0  0  0  0  0  0  0  0  0
    0.8660    0.0000    0.0000 C   0  0  0  0  0  0  0  0  0  0  0  0
    8.6602   -0.5000    0.0000 O   0  0  0  0  0  0  0  0  0  0  0  0
    7.7942    0.9999    0.0000 C   0  0  0  0  0  0  0  0  0  0  0  0
    0.0000   -0.5000    0.0000 C   0  0  0  0  0  0  0  0  0  0  0  0
    8.6032    1.5877    0.0000 O   0  0  0  0  0  0  0  0  0  0  0  0
    6.9852    1.5877    0.0000 C   0  0  0  0  0  0  0  0  0  0  0  0
   -0.8660    0.0000    0.0000 C   0  0  0  0  0  0  0  0  0  0  0  0
    0.0000   -1.4999    0.0000 C   0  0  0  0  0  0  0  0  0  0  0  0
    8.2942    2.5388    0.0000 C   0  0  0  0  0  0  0  0  0  0  0  0
    7.2942    2.5388    0.0000 C   0  0  0  0  0  0  0  0  0  0  0  0
    6.0341    1.2787    0.0000 C   0  0  0  0  0  0  0  0  0  0  0  0
   -1.7320   -0.4999    0.0000 C   0  0  0  0  0  0  0  0  0  0  0  0
   -0.8660   -1.9999    0.0000 C   0  0  0  0  0  0  0  0  0  0  0  0
    8.7942    3.4048    0.0000 C   0  0  0  0  0  0  0  0  0  0  0  0
    6.7942    3.4048    0.0000 C   0  0  0  0  0  0  0  0  0  0  0  0
   -1.7320   -1.4999    0.0000 C   0  0  0  0  0  0  0  0  0  0  0  0
    8.2942    4.2708    0.0000 C   0  0  0  0  0  0  0  0  0  0  0  0
    7.2942    4.2708    0.0000 C   0  0  0  0  0  0  0  0  0  0  0  0
   -2.5980   -1.9999    0.0000 N   0  0  0  0  0  0  0  0  0  0  0  0
   -3.4641   -1.4999    0.0000 C   0  0  0  0  0  0  0  0  0  0  0  0
   -2.5980   -2.9999    0.0000 C   0  0  0  0  0  0  0  0  0  0  0  0
   -4.3301   -1.9999    0.0000 C   0  0  0  0  0  0  0  0  0  0  0  0
   -3.4641   -3.4999    0.0000 C   0  0  0  0  0  0  0  0  0  0  0  0
   -4.3301   -2.9999    0.0000 N   0  0  0  0  0  0  0  0  0  0  0  0
   -5.1961   -3.4999    0.0000 C   0  0  0  0  0  0  0  0  0  0  0  0
  1  2  1  0
  2  3  2  0
  2  4  1  0
  3  5  1  0
  3  6  1  0
  4  7  2  0
  5  8  2  0
  5  9  1  0
  6 10  1  0
  7 11  1  0
  9 12  1  0
 11 13  2  0
 11 14  1  0
 12 15  1  0
 14 16  1  0
 15 17  2  0
 15 18  1  0
 16 19  1  0
 18 20  1  0
 18 21  2  0
 19 22  2  0
 19 23  1  0
 20 24  1  0
 21 25  1  0
 21 26  1  0
 22 27  1  0
 23 28  2  0
 24 29  2  0
 25 30  2  0
 27 31  2  0
 29 32  1  0
 30 33  1  0
 31 34  1  0
 34 35  1  0
 34 36  1  0
 35 37  1  0
 36 38  1  0
 37 39  1  0
 39 40  1  0
  7  8  1  0
 10 12  1  0
 24 25  1  0
 28 31  1  0
 32 33  2  0
 38 39  1  0
M  END
>  <Molecule Name>  (71) 
CTX-1020441

>  <SMILES>  (71) 
CN1CCN(CC1)C1=CC=C(CNC(=O)C2=CC(Cl)=C3CCN(CC3=N2)C(=O)C2=C(C)C3=C(O2)C=CC=C3)C=C1

>  <Batch Name>  (71) 
CTX-1020441-1

>  <Batch Created Date>  (71) 
2021-10-21

>  <Batch ID>  (71) 
CTX-1020441-1

>  <External ID>  (71) 
610EDL060-A

>  <Stereochemistry>  (71) 
Achiral

>  <Amount 1>  (71) 
4.3

>  <Unit 1>  (71) 
mg

>  <CRO 1>  (71) 
Pharmaron

>  <CRO 1 Total Amount>  (71) 
11.1

>  <CRO 1 Unit>  (71) 
mg

>  <Pharmaron Solubility (PBS, pH 7.4): Aqueous Solubility - Batch Mean (uM)>  (71) 
0.3716

>  <Pharmaron Solubility (PBS, pH 7.4): Aqueous Solubility - Batch Mean (uM) Standard Deviation (±)>  (71) 


>  <Pharmaron Solubility (PBS, pH 7.4): Aqueous Solubility - Batch Mean (uM) Count>  (71) 
1.0

>  <log P>  (71) 
4.24

>  <log D>  (71) 
3.6

>  <Pharmaron Caliper Assay (CDK2/CCNE1): Minimum measured (%)>  (71) 
86.4

>  <Pharmaron Caliper Assay (CDK2/CCNE1): IC50 - Batch Mean (uM)>  (71) 
6.99

>  <Pharmaron ADPGLO (CDK2/E1-25C): Minimum measured (%)>  (71) 


>  <Pharmaron ADPGLO (CDK2/E1-25C): IC50 - Batch Mean (uM)>  (71) 


>  <Pharmaron ADPGLO (CDK2/E1-37C): Minimum measured (%)>  (71) 


>  <Pharmaron ADPGLO (CDK2/E1-37C): IC50 - Batch Mean (uM)>  (71) 


>  <IncuCyte Kuramochi RB-WT: IC50 - Batch Mean (uM)>  (71) 
4.35

>  <IncuCyte Kuramochi RB-KO: IC50 - Batch Mean (uM)>  (71) 
4.43

>  <DSF (npCDK2/CCNE1): dTm D - Batch Mean [Concentration: 100]>  (71) 


>  <DSF (npCDK2/CCNE1): dTm D - Batch Mean [Concentration: 20.0]>  (71) 
-0.39299999999999996

>  <DSF (pCDK2/CCNE1): dTm D - Batch Mean [Concentration: 100]>  (71) 


>  <DSF (pCDK2/CCNE1): dTm D - Batch Mean [Concentration: 20.0]>  (71) 


>  <RLM: t1/2 - Batch Mean (Min)>  (71) 


>  <RLM: Cl int - Batch Mean (uL/min/mg protein)>  (71) 


>  <RLM: ER (Hepatic extraction ratio) - Batch Mean>  (71) 


>  <HLM: t1/2 - Batch Mean (Min)>  (71) 


>  <HLM: Cl int - Batch Mean (uL/min/mg protein)>  (71) 


>  <HLM: ER (Hepatic extraction ratio) - Batch Mean>  (71) 


>  <MDCK-WT 4% BSA: Papp (A-B) - Batch Mean (10-6, cm/s)>  (71) 


>  <MDCK-WT 4% BSA: Papp (B-A) - Batch Mean (10-6, cm/s)>  (71) 


>  <MDCK-WT 4% BSA: Efflux Ratio - Batch Mean>  (71) 


>  <MDCK-WT 4% BSA: ~Net A_B - Batch Mean (10-6, cm/s)>  (71) 


>  <pIC50>  (71) 
5.155523

>  <Selection_1>  (71) 
Y

>  <Selection_N>  (71) 


>  <Serie>  (71) 
Naphthyridine

>  <Selection_T>  (71) 
N

>  <Train_Vs_Test>  (71) 


$$$$
CTX-1020440
     RDKit          2D

 37 42  0  0  0  0  0  0  0  0999 V2000
    4.3776   -0.0932    0.0000 S   0  0  0  0  0  0  0  0  0  0  0  0
    3.4641   -0.5000    0.0000 C   0  0  0  0  0  0  0  0  0  0  0  0
    5.0467   -0.8364    0.0000 C   0  0  0  0  0  0  0  0  0  0  0  0
    2.5980    0.0000    0.0000 C   0  0  0  0  0  0  0  0  0  0  0  0
    3.5686   -1.4945    0.0000 C   0  0  0  0  0  0  0  0  0  0  0  0
    4.5467   -1.7024    0.0000 C   0  0  0  0  0  0  0  0  0  0  0  0
    6.0467   -0.8364    0.0000 C   0  0  0  0  0  0  0  0  0  0  0  0
    2.5980    1.0000    0.0000 O   0  0  0  0  0  0  0  0  0  0  0  0
    1.7320   -0.5000    0.0000 N   0  0  0  0  0  0  0  0  0  0  0  0
    5.0467   -2.5684    0.0000 C   0  0  0  0  0  0  0  0  0  0  0  0
    6.5467   -1.7024    0.0000 C   0  0  0  0  0  0  0  0  0  0  0  0
    0.8660    0.0000    0.0000 C   0  0  0  0  0  0  0  0  0  0  0  0
    6.0467   -2.5684    0.0000 N   0  0  0  0  0  0  0  0  0  0  0  0
    0.0000   -0.5000    0.0000 C   0  0  0  0  0  0  0  0  0  0  0  0
    6.5467   -3.4344    0.0000 C   0  0  0  0  0  0  0  0  0  0  0  0
   -0.8660    0.0000    0.0000 C   0  0  0  0  0  0  0  0  0  0  0  0
    0.0000   -1.4999    0.0000 C   0  0  0  0  0  0  0  0  0  0  0  0
    6.0467   -4.3005    0.0000 O   0  0  0  0  0  0  0  0  0  0  0  0
    7.5467   -3.4344    0.0000 C   0  0  0  0  0  0  0  0  0  0  0  0
   -1.7320   -0.4999    0.0000 C   0  0  0  0  0  0  0  0  0  0  0  0
   -0.8660   -1.9999    0.0000 C   0  0  0  0  0  0  0  0  0  0  0  0
    8.1345   -4.2435    0.0000 C   0  0  0  0  0  0  0  0  0  0  0  0
    8.1345   -2.6254    0.0000 C   0  0  0  0  0  0  0  0  0  0  0  0
   -1.7320   -1.4999    0.0000 C   0  0  0  0  0  0  0  0  0  0  0  0
    9.0856   -3.9344    0.0000 N   0  0  0  0  0  0  0  0  0  0  0  0
    7.9266   -5.2216    0.0000 C   0  0  0  0  0  0  0  0  0  0  0  0
    9.0856   -2.9344    0.0000 N   0  0  0  0  0  0  0  0  0  0  0  0
   -2.5980   -1.9999    0.0000 N   0  0  0  0  0  0  0  0  0  0  0  0
    9.8287   -4.6036    0.0000 C   0  0  0  0  0  0  0  0  0  0  0  0
    8.6697   -5.8907    0.0000 N   0  0  0  0  0  0  0  0  0  0  0  0
   -3.4641   -1.4999    0.0000 C   0  0  0  0  0  0  0  0  0  0  0  0
   -2.5980   -2.9999    0.0000 C   0  0  0  0  0  0  0  0  0  0  0  0
    9.6208   -5.5817    0.0000 C   0  0  0  0  0  0  0  0  0  0  0  0
   -4.3301   -1.9999    0.0000 C   0  0  0  0  0  0  0  0  0  0  0  0
   -3.4641   -3.4999    0.0000 C   0  0  0  0  0  0  0  0  0  0  0  0
   -4.3301   -2.9999    0.0000 N   0  0  0  0  0  0  0  0  0  0  0  0
   -5.1961   -3.4999    0.0000 C   0  0  0  0  0  0  0  0  0  0  0  0
  1  2  1  0
  1  3  1  0
  2  4  1  0
  2  5  2  0
  3  6  2  0
  3  7  1  0
  4  8  2  0
  4  9  1  0
  6 10  1  0
  7 11  1  0
  9 12  1  0
 10 13  1  0
 12 14  1  0
 13 15  1  0
 14 16  2  0
 14 17  1  0
 15 18  2  0
 15 19  1  0
 16 20  1  0
 17 21  2  0
 19 22  2  0
 19 23  1  0
 20 24  2  0
 22 25  1  0
 22 26  1  0
 23 27  2  0
 24 28  1  0
 25 29  1  0
 26 30  2  0
 28 31  1  0
 28 32  1  0
 29 33  2  0
 31 34  1  0
 32 35  1  0
 34 36  1  0
 36 37  1  0
  5  6  1  0
 11 13  1  0
 21 24  1  0
 25 27  1  0
 30 33  1  0
 35 36  1  0
M  END
>  <Molecule Name>  (72) 
CTX-1020440

>  <SMILES>  (72) 
CN1CCN(CC1)C1=CC=C(CNC(=O)C2=CC3=C(CCN(C3)C(=O)C3=C4C=NC=CN4N=C3)S2)C=C1

>  <Batch Name>  (72) 
CTX-1020440-1

>  <Batch Created Date>  (72) 
2021-10-21

>  <Batch ID>  (72) 
CTX-1020440-1

>  <External ID>  (72) 
610EDL021-E

>  <Stereochemistry>  (72) 
Achiral

>  <Amount 1>  (72) 
5.0

>  <Unit 1>  (72) 
mg

>  <CRO 1>  (72) 
Pharmaron

>  <CRO 1 Total Amount>  (72) 
6.9

>  <CRO 1 Unit>  (72) 
mg

>  <Pharmaron Solubility (PBS, pH 7.4): Aqueous Solubility - Batch Mean (uM)>  (72) 
284.6668

>  <Pharmaron Solubility (PBS, pH 7.4): Aqueous Solubility - Batch Mean (uM) Standard Deviation (±)>  (72) 
33.6543

>  <Pharmaron Solubility (PBS, pH 7.4): Aqueous Solubility - Batch Mean (uM) Count>  (72) 
2.0

>  <log P>  (72) 
2.15

>  <log D>  (72) 
1.51

>  <Pharmaron Caliper Assay (CDK2/CCNE1): Minimum measured (%)>  (72) 
8.56

>  <Pharmaron Caliper Assay (CDK2/CCNE1): IC50 - Batch Mean (uM)>  (72) 
6.08

>  <Pharmaron ADPGLO (CDK2/E1-25C): Minimum measured (%)>  (72) 


>  <Pharmaron ADPGLO (CDK2/E1-25C): IC50 - Batch Mean (uM)>  (72) 


>  <Pharmaron ADPGLO (CDK2/E1-37C): Minimum measured (%)>  (72) 


>  <Pharmaron ADPGLO (CDK2/E1-37C): IC50 - Batch Mean (uM)>  (72) 


>  <IncuCyte Kuramochi RB-WT: IC50 - Batch Mean (uM)>  (72) 
20.0

>  <IncuCyte Kuramochi RB-KO: IC50 - Batch Mean (uM)>  (72) 
20.0

>  <DSF (npCDK2/CCNE1): dTm D - Batch Mean [Concentration: 100]>  (72) 


>  <DSF (npCDK2/CCNE1): dTm D - Batch Mean [Concentration: 20.0]>  (72) 
0.311

>  <DSF (pCDK2/CCNE1): dTm D - Batch Mean [Concentration: 100]>  (72) 


>  <DSF (pCDK2/CCNE1): dTm D - Batch Mean [Concentration: 20.0]>  (72) 


>  <RLM: t1/2 - Batch Mean (Min)>  (72) 
20.34

>  <RLM: Cl int - Batch Mean (uL/min/mg protein)>  (72) 
68.32

>  <RLM: ER (Hepatic extraction ratio) - Batch Mean>  (72) 
0.71

>  <HLM: t1/2 - Batch Mean (Min)>  (72) 
104.93

>  <HLM: Cl int - Batch Mean (uL/min/mg protein)>  (72) 
13.24

>  <HLM: ER (Hepatic extraction ratio) - Batch Mean>  (72) 
0.39299999999999996

>  <MDCK-WT 4% BSA: Papp (A-B) - Batch Mean (10-6, cm/s)>  (72) 


>  <MDCK-WT 4% BSA: Papp (B-A) - Batch Mean (10-6, cm/s)>  (72) 


>  <MDCK-WT 4% BSA: Efflux Ratio - Batch Mean>  (72) 


>  <MDCK-WT 4% BSA: ~Net A_B - Batch Mean (10-6, cm/s)>  (72) 


>  <pIC50>  (72) 
5.216096

>  <Selection_1>  (72) 
Y

>  <Selection_N>  (72) 
N

>  <Serie>  (72) 
Tetrahydrothienopyridine

>  <Selection_T>  (72) 


>  <Train_Vs_Test>  (72) 


$$$$
CTX-1019904
     RDKit          2D

 41 46  0  0  0  0  0  0  0  0999 V2000
    5.1961   -0.7500    0.0000 O   0  0  0  0  0  0  0  0  0  0  0  0
    3.8971    0.0000    0.0000 C   0  0  0  0  0  0  0  0  0  0  0  0
    2.5980   -0.7500    0.0000 N   0  0  0  0  0  0  0  0  0  0  0  0
    3.8971    1.5000    0.0000 C   0  0  0  0  0  0  0  0  0  0  0  0
    1.2990    0.0000    0.0000 C   0  0  0  0  0  0  0  0  0  0  0  0
    5.1961    2.2500    0.0000 N   0  0  0  0  0  0  0  0  0  0  0  0
    2.5980    2.2500    0.0000 C   0  0  0  0  0  0  0  0  0  0  0  0
    0.0000   -0.7500    0.0000 C   0  0  0  0  0  0  0  0  0  0  0  0
    5.1961    3.7500    0.0000 C   0  0  0  0  0  0  0  0  0  0  0  0
    2.5980    3.7500    0.0000 C   0  0  0  0  0  0  0  0  0  0  0  0
   -1.2990    0.0000    0.0000 N   0  0  0  0  0  0  0  0  0  0  0  0
    0.0000   -2.2499    0.0000 C   0  0  0  0  0  0  0  0  0  0  0  0
    3.8971    4.5000    0.0000 C   0  0  0  0  0  0  0  0  0  0  0  0
    6.4951    4.5000    0.0000 C   0  0  0  0  0  0  0  0  0  0  0  0
   -2.5980   -0.7499    0.0000 C   0  0  0  0  0  0  0  0  0  0  0  0
   -1.2990   -2.9999    0.0000 C   0  0  0  0  0  0  0  0  0  0  0  0
    3.8971    6.0000    0.0000 C   0  0  0  0  0  0  0  0  0  0  0  0
    6.4951    6.0000    0.0000 N   0  0  0  0  0  0  0  0  0  0  0  0
   -2.5980   -2.2499    0.0000 C   0  0  0  0  0  0  0  0  0  0  0  0
    5.1961    6.7500    0.0000 C   0  0  0  0  0  0  0  0  0  0  0  0
    7.7942    6.7500    0.0000 C   0  0  0  0  0  0  0  0  0  0  0  0
   -3.8971   -2.9999    0.0000 N   0  0  0  0  0  0  0  0  0  0  0  0
    9.0932    6.0000    0.0000 O   0  0  0  0  0  0  0  0  0  0  0  0
    7.7942    8.2500    0.0000 C   0  0  0  0  0  0  0  0  0  0  0  0
   -5.1961   -2.2499    0.0000 C   0  0  0  0  0  0  0  0  0  0  0  0
   -3.8971   -4.4999    0.0000 C   0  0  0  0  0  0  0  0  0  0  0  0
    9.0077    9.1316    0.0000 O   0  0  0  0  0  0  0  0  0  0  0  0
    6.5807    9.1316    0.0000 C   0  0  0  0  0  0  0  0  0  0  0  0
   -6.4951   -2.9999    0.0000 C   0  0  0  0  0  0  0  0  0  0  0  0
   -5.1961   -5.2499    0.0000 C   0  0  0  0  0  0  0  0  0  0  0  0
    8.5442   10.5582    0.0000 C   0  0  0  0  0  0  0  0  0  0  0  0
    7.0442   10.5582    0.0000 C   0  0  0  0  0  0  0  0  0  0  0  0
    5.1541    8.6681    0.0000 C   0  0  0  0  0  0  0  0  0  0  0  0
   -6.4951   -4.4999    0.0000 N   0  0  0  0  0  0  0  0  0  0  0  0
    9.2942   11.8573    0.0000 C   0  0  0  0  0  0  0  0  0  0  0  0
    6.2942   11.8573    0.0000 C   0  0  0  0  0  0  0  0  0  0  0  0
   -7.7942   -5.2499    0.0000 C   0  0  0  0  0  0  0  0  0  0  0  0
   10.7942   11.8573    0.0000 O   0  0  0  0  0  0  0  0  0  0  0  0
    8.5442   13.1563    0.0000 C   0  0  0  0  0  0  0  0  0  0  0  0
    7.0442   13.1563    0.0000 C   0  0  0  0  0  0  0  0  0  0  0  0
   11.5442   13.1563    0.0000 C   0  0  0  0  0  0  0  0  0  0  0  0
  1  2  2  0
  2  3  1  0
  2  4  1  0
  3  5  1  0
  4  6  2  0
  4  7  1  0
  5  8  1  0
  6  9  1  0
  7 10  2  0
  8 11  2  0
  8 12  1  0
  9 13  2  0
  9 14  1  0
 11 15  1  0
 12 16  2  0
 13 17  1  0
 14 18  1  0
 15 19  2  0
 17 20  1  0
 18 21  1  0
 19 22  1  0
 21 23  2  0
 21 24  1  0
 22 25  1  0
 22 26  1  0
 24 27  1  0
 24 28  2  0
 25 29  1  0
 26 30  1  0
 27 31  1  0
 28 32  1  0
 28 33  1  0
 29 34  1  0
 31 35  2  0
 32 36  2  0
 34 37  1  0
 35 38  1  0
 35 39  1  0
 36 40  1  0
 38 41  1  0
 10 13  1  0
 16 19  1  0
 18 20  1  0
 30 34  1  0
 31 32  1  0
 39 40  2  0
M  END
>  <Molecule Name>  (73) 
CTX-1019904

>  <SMILES>  (73) 
COC1=CC=CC2=C1OC(C(=O)N1CCC3=C(C1)N=C(C=C3)C(=O)NCC1=CC=C(C=N1)N1CCN(C)CC1)=C2C

>  <Batch Name>  (73) 
CTX-1019904-1

>  <Batch Created Date>  (73) 
2021-10-07

>  <Batch ID>  (73) 
CTX-1019904-1

>  <External ID>  (73) 
610EDL010-B

>  <Stereochemistry>  (73) 
Achiral

>  <Amount 1>  (73) 
3.4

>  <Unit 1>  (73) 
mg

>  <CRO 1>  (73) 
Pharmaron

>  <CRO 1 Total Amount>  (73) 
16.4

>  <CRO 1 Unit>  (73) 
mg

>  <Pharmaron Solubility (PBS, pH 7.4): Aqueous Solubility - Batch Mean (uM)>  (73) 
211.991

>  <Pharmaron Solubility (PBS, pH 7.4): Aqueous Solubility - Batch Mean (uM) Standard Deviation (±)>  (73) 


>  <Pharmaron Solubility (PBS, pH 7.4): Aqueous Solubility - Batch Mean (uM) Count>  (73) 
1.0

>  <log P>  (73) 
2.34

>  <log D>  (73) 
1.93

>  <Pharmaron Caliper Assay (CDK2/CCNE1): Minimum measured (%)>  (73) 
87.2

>  <Pharmaron Caliper Assay (CDK2/CCNE1): IC50 - Batch Mean (uM)>  (73) 
8.45

>  <Pharmaron ADPGLO (CDK2/E1-25C): Minimum measured (%)>  (73) 


>  <Pharmaron ADPGLO (CDK2/E1-25C): IC50 - Batch Mean (uM)>  (73) 


>  <Pharmaron ADPGLO (CDK2/E1-37C): Minimum measured (%)>  (73) 


>  <Pharmaron ADPGLO (CDK2/E1-37C): IC50 - Batch Mean (uM)>  (73) 


>  <IncuCyte Kuramochi RB-WT: IC50 - Batch Mean (uM)>  (73) 
16.0

>  <IncuCyte Kuramochi RB-KO: IC50 - Batch Mean (uM)>  (73) 
18.5

>  <DSF (npCDK2/CCNE1): dTm D - Batch Mean [Concentration: 100]>  (73) 


>  <DSF (npCDK2/CCNE1): dTm D - Batch Mean [Concentration: 20.0]>  (73) 
0.09699999999999999

>  <DSF (pCDK2/CCNE1): dTm D - Batch Mean [Concentration: 100]>  (73) 


>  <DSF (pCDK2/CCNE1): dTm D - Batch Mean [Concentration: 20.0]>  (73) 


>  <RLM: t1/2 - Batch Mean (Min)>  (73) 


>  <RLM: Cl int - Batch Mean (uL/min/mg protein)>  (73) 


>  <RLM: ER (Hepatic extraction ratio) - Batch Mean>  (73) 


>  <HLM: t1/2 - Batch Mean (Min)>  (73) 


>  <HLM: Cl int - Batch Mean (uL/min/mg protein)>  (73) 


>  <HLM: ER (Hepatic extraction ratio) - Batch Mean>  (73) 


>  <MDCK-WT 4% BSA: Papp (A-B) - Batch Mean (10-6, cm/s)>  (73) 


>  <MDCK-WT 4% BSA: Papp (B-A) - Batch Mean (10-6, cm/s)>  (73) 


>  <MDCK-WT 4% BSA: Efflux Ratio - Batch Mean>  (73) 


>  <MDCK-WT 4% BSA: ~Net A_B - Batch Mean (10-6, cm/s)>  (73) 


>  <pIC50>  (73) 
5.073143

>  <Selection_1>  (73) 
Y

>  <Selection_N>  (73) 


>  <Serie>  (73) 
Naphthyridine

>  <Selection_T>  (73) 
N

>  <Train_Vs_Test>  (73) 


$$$$
CTX-1019813
     RDKit          2D

 38 43  0  0  0  0  0  0  0  0999 V2000
    5.1961   -0.7500    0.0000 O   0  0  0  0  0  0  0  0  0  0  0  0
    3.8971    0.0000    0.0000 C   0  0  0  0  0  0  0  0  0  0  0  0
    2.5980   -0.7500    0.0000 N   0  0  0  0  0  0  0  0  0  0  0  0
    3.8971    1.5000    0.0000 C   0  0  0  0  0  0  0  0  0  0  0  0
    1.2990    0.0000    0.0000 C   0  0  0  0  0  0  0  0  0  0  0  0
    5.1961    2.2500    0.0000 N   0  0  0  0  0  0  0  0  0  0  0  0
    2.5980    2.2500    0.0000 C   0  0  0  0  0  0  0  0  0  0  0  0
    0.0000   -0.7500    0.0000 C   0  0  0  0  0  0  0  0  0  0  0  0
    5.1961    3.7500    0.0000 C   0  0  0  0  0  0  0  0  0  0  0  0
    2.5980    3.7500    0.0000 C   0  0  0  0  0  0  0  0  0  0  0  0
   -1.2990    0.0000    0.0000 C   0  0  0  0  0  0  0  0  0  0  0  0
    0.0000   -2.2499    0.0000 C   0  0  0  0  0  0  0  0  0  0  0  0
    3.8971    4.5000    0.0000 C   0  0  0  0  0  0  0  0  0  0  0  0
    6.4951    4.5000    0.0000 C   0  0  0  0  0  0  0  0  0  0  0  0
   -2.5980   -0.7499    0.0000 C   0  0  0  0  0  0  0  0  0  0  0  0
   -1.2990   -2.9999    0.0000 C   0  0  0  0  0  0  0  0  0  0  0  0
    3.8971    6.0000    0.0000 C   0  0  0  0  0  0  0  0  0  0  0  0
    6.4951    6.0000    0.0000 N   0  0  0  0  0  0  0  0  0  0  0  0
   -2.5980   -2.2499    0.0000 C   0  0  0  0  0  0  0  0  0  0  0  0
    5.1961    6.7500    0.0000 C   0  0  0  0  0  0  0  0  0  0  0  0
    7.7942    6.7500    0.0000 C   0  0  0  0  0  0  0  0  0  0  0  0
   -3.8971   -2.9999    0.0000 N   0  0  0  0  0  0  0  0  0  0  0  0
    9.0932    6.0000    0.0000 O   0  0  0  0  0  0  0  0  0  0  0  0
    7.7942    8.2500    0.0000 C   0  0  0  0  0  0  0  0  0  0  0  0
   -5.1961   -2.2499    0.0000 C   0  0  0  0  0  0  0  0  0  0  0  0
   -3.8971   -4.4999    0.0000 C   0  0  0  0  0  0  0  0  0  0  0  0
    9.0077    9.1316    0.0000 C   0  0  0  0  0  0  0  0  0  0  0  0
    6.5807    9.1316    0.0000 C   0  0  0  0  0  0  0  0  0  0  0  0
   -6.4951   -2.9999    0.0000 C   0  0  0  0  0  0  0  0  0  0  0  0
   -5.1961   -5.2499    0.0000 C   0  0  0  0  0  0  0  0  0  0  0  0
    8.5442   10.5582    0.0000 C   0  0  0  0  0  0  0  0  0  0  0  0
   10.4749    8.8198    0.0000 C   0  0  0  0  0  0  0  0  0  0  0  0
    7.0442   10.5582    0.0000 O   0  0  0  0  0  0  0  0  0  0  0  0
   -6.4951   -4.4999    0.0000 N   0  0  0  0  0  0  0  0  0  0  0  0
    9.5479   11.6729    0.0000 C   0  0  0  0  0  0  0  0  0  0  0  0
   11.4786    9.9345    0.0000 C   0  0  0  0  0  0  0  0  0  0  0  0
   -7.7942   -5.2499    0.0000 C   0  0  0  0  0  0  0  0  0  0  0  0
   11.0151   11.3611    0.0000 C   0  0  0  0  0  0  0  0  0  0  0  0
  1  2  2  0
  2  3  1  0
  2  4  1  0
  3  5  1  0
  4  6  2  0
  4  7  1  0
  5  8  1  0
  6  9  1  0
  7 10  2  0
  8 11  2  0
  8 12  1  0
  9 13  2  0
  9 14  1  0
 11 15  1  0
 12 16  2  0
 13 17  1  0
 14 18  1  0
 15 19  2  0
 17 20  1  0
 18 21  1  0
 19 22  1  0
 21 23  2  0
 21 24  1  0
 22 25  1  0
 22 26  1  0
 24 27  1  0
 24 28  2  0
 25 29  1  0
 26 30  1  0
 27 31  2  0
 27 32  1  0
 28 33  1  0
 29 34  1  0
 31 35  1  0
 32 36  2  0
 34 37  1  0
 35 38  2  0
 10 13  1  0
 16 19  1  0
 18 20  1  0
 30 34  1  0
 31 33  1  0
 36 38  1  0
M  END
>  <Molecule Name>  (74) 
CTX-1019813

>  <SMILES>  (74) 
CN1CCN(CC1)C1=CC=C(CNC(=O)C2=NC3=C(CCN(C3)C(=O)C3=COC4=C3C=CC=C4)C=C2)C=C1

>  <Batch Name>  (74) 
CTX-1019813-1

>  <Batch Created Date>  (74) 
2021-09-17

>  <Batch ID>  (74) 
CTX-1019813-1

>  <External ID>  (74) 
P841-0172

>  <Stereochemistry>  (74) 
Achiral

>  <Amount 1>  (74) 
4.3

>  <Unit 1>  (74) 
mg

>  <CRO 1>  (74) 
Pharmaron

>  <CRO 1 Total Amount>  (74) 
19.4

>  <CRO 1 Unit>  (74) 
mg

>  <Pharmaron Solubility (PBS, pH 7.4): Aqueous Solubility - Batch Mean (uM)>  (74) 
128.57

>  <Pharmaron Solubility (PBS, pH 7.4): Aqueous Solubility - Batch Mean (uM) Standard Deviation (±)>  (74) 


>  <Pharmaron Solubility (PBS, pH 7.4): Aqueous Solubility - Batch Mean (uM) Count>  (74) 
1.0

>  <log P>  (74) 
3.2

>  <log D>  (74) 
2.57

>  <Pharmaron Caliper Assay (CDK2/CCNE1): Minimum measured (%)>  (74) 
83.0

>  <Pharmaron Caliper Assay (CDK2/CCNE1): IC50 - Batch Mean (uM)>  (74) 
6.42

>  <Pharmaron ADPGLO (CDK2/E1-25C): Minimum measured (%)>  (74) 


>  <Pharmaron ADPGLO (CDK2/E1-25C): IC50 - Batch Mean (uM)>  (74) 


>  <Pharmaron ADPGLO (CDK2/E1-37C): Minimum measured (%)>  (74) 


>  <Pharmaron ADPGLO (CDK2/E1-37C): IC50 - Batch Mean (uM)>  (74) 


>  <IncuCyte Kuramochi RB-WT: IC50 - Batch Mean (uM)>  (74) 
20.0

>  <IncuCyte Kuramochi RB-KO: IC50 - Batch Mean (uM)>  (74) 
20.0

>  <DSF (npCDK2/CCNE1): dTm D - Batch Mean [Concentration: 100]>  (74) 


>  <DSF (npCDK2/CCNE1): dTm D - Batch Mean [Concentration: 20.0]>  (74) 
0.009000000000000001

>  <DSF (pCDK2/CCNE1): dTm D - Batch Mean [Concentration: 100]>  (74) 


>  <DSF (pCDK2/CCNE1): dTm D - Batch Mean [Concentration: 20.0]>  (74) 


>  <RLM: t1/2 - Batch Mean (Min)>  (74) 


>  <RLM: Cl int - Batch Mean (uL/min/mg protein)>  (74) 


>  <RLM: ER (Hepatic extraction ratio) - Batch Mean>  (74) 


>  <HLM: t1/2 - Batch Mean (Min)>  (74) 


>  <HLM: Cl int - Batch Mean (uL/min/mg protein)>  (74) 


>  <HLM: ER (Hepatic extraction ratio) - Batch Mean>  (74) 


>  <MDCK-WT 4% BSA: Papp (A-B) - Batch Mean (10-6, cm/s)>  (74) 


>  <MDCK-WT 4% BSA: Papp (B-A) - Batch Mean (10-6, cm/s)>  (74) 


>  <MDCK-WT 4% BSA: Efflux Ratio - Batch Mean>  (74) 


>  <MDCK-WT 4% BSA: ~Net A_B - Batch Mean (10-6, cm/s)>  (74) 


>  <pIC50>  (74) 
5.192465

>  <Selection_1>  (74) 
Y

>  <Selection_N>  (74) 


>  <Serie>  (74) 
Naphthyridine

>  <Selection_T>  (74) 
N

>  <Train_Vs_Test>  (74) 


$$$$
CTX-1019758
     RDKit          2D

 38 43  0  0  0  0  0  0  0  0999 V2000
    6.5664   -0.1398    0.0000 S   0  0  0  0  0  0  0  0  0  0  0  0
    5.1961   -0.7500    0.0000 C   0  0  0  0  0  0  0  0  0  0  0  0
    7.5701   -1.2546    0.0000 C   0  0  0  0  0  0  0  0  0  0  0  0
    3.8971    0.0000    0.0000 C   0  0  0  0  0  0  0  0  0  0  0  0
    5.3529   -2.2417    0.0000 C   0  0  0  0  0  0  0  0  0  0  0  0
    6.8201   -2.5536    0.0000 C   0  0  0  0  0  0  0  0  0  0  0  0
    9.0701   -1.2546    0.0000 C   0  0  0  0  0  0  0  0  0  0  0  0
    3.8971    1.5000    0.0000 O   0  0  0  0  0  0  0  0  0  0  0  0
    2.5980   -0.7500    0.0000 N   0  0  0  0  0  0  0  0  0  0  0  0
    7.5701   -3.8526    0.0000 C   0  0  0  0  0  0  0  0  0  0  0  0
    9.8201   -2.5536    0.0000 C   0  0  0  0  0  0  0  0  0  0  0  0
    1.2990    0.0000    0.0000 C   0  0  0  0  0  0  0  0  0  0  0  0
    9.0701   -3.8526    0.0000 N   0  0  0  0  0  0  0  0  0  0  0  0
    0.0000   -0.7500    0.0000 C   0  0  0  0  0  0  0  0  0  0  0  0
    9.8201   -5.1517    0.0000 C   0  0  0  0  0  0  0  0  0  0  0  0
   -1.2990    0.0000    0.0000 C   0  0  0  0  0  0  0  0  0  0  0  0
    0.0000   -2.2499    0.0000 C   0  0  0  0  0  0  0  0  0  0  0  0
    9.0701   -6.4507    0.0000 O   0  0  0  0  0  0  0  0  0  0  0  0
   11.3201   -5.1517    0.0000 C   0  0  0  0  0  0  0  0  0  0  0  0
   -2.5980   -0.7499    0.0000 C   0  0  0  0  0  0  0  0  0  0  0  0
   -1.2990   -2.9999    0.0000 C   0  0  0  0  0  0  0  0  0  0  0  0
   12.2018   -6.3652    0.0000 O   0  0  0  0  0  0  0  0  0  0  0  0
   12.2018   -3.9382    0.0000 C   0  0  0  0  0  0  0  0  0  0  0  0
   -2.5980   -2.2499    0.0000 C   0  0  0  0  0  0  0  0  0  0  0  0
   13.6284   -5.9017    0.0000 C   0  0  0  0  0  0  0  0  0  0  0  0
   13.6284   -4.4017    0.0000 C   0  0  0  0  0  0  0  0  0  0  0  0
   11.7383   -2.5116    0.0000 C   0  0  0  0  0  0  0  0  0  0  0  0
   -3.8971   -2.9999    0.0000 N   0  0  0  0  0  0  0  0  0  0  0  0
   14.9274   -6.6517    0.0000 C   0  0  0  0  0  0  0  0  0  0  0  0
   14.9274   -3.6517    0.0000 C   0  0  0  0  0  0  0  0  0  0  0  0
   -5.1961   -2.2499    0.0000 C   0  0  0  0  0  0  0  0  0  0  0  0
   -3.8971   -4.4999    0.0000 C   0  0  0  0  0  0  0  0  0  0  0  0
   16.2265   -5.9017    0.0000 C   0  0  0  0  0  0  0  0  0  0  0  0
   16.2265   -4.4017    0.0000 C   0  0  0  0  0  0  0  0  0  0  0  0
   -6.4951   -2.9999    0.0000 C   0  0  0  0  0  0  0  0  0  0  0  0
   -5.1961   -5.2499    0.0000 C   0  0  0  0  0  0  0  0  0  0  0  0
   -6.4951   -4.4999    0.0000 N   0  0  0  0  0  0  0  0  0  0  0  0
   -7.7942   -5.2499    0.0000 C   0  0  0  0  0  0  0  0  0  0  0  0
  1  2  1  0
  1  3  1  0
  2  4  1  0
  2  5  2  0
  3  6  2  0
  3  7  1  0
  4  8  2  0
  4  9  1  0
  6 10  1  0
  7 11  1  0
  9 12  1  0
 10 13  1  0
 12 14  1  0
 13 15  1  0
 14 16  2  0
 14 17  1  0
 15 18  2  0
 15 19  1  0
 16 20  1  0
 17 21  2  0
 19 22  1  0
 19 23  2  0
 20 24  2  0
 22 25  1  0
 23 26  1  0
 23 27  1  0
 24 28  1  0
 25 29  2  0
 26 30  2  0
 28 31  1  0
 28 32  1  0
 29 33  1  0
 30 34  1  0
 31 35  1  0
 32 36  1  0
 35 37  1  0
 37 38  1  0
  5  6  1  0
 11 13  1  0
 21 24  1  0
 25 26  1  0
 33 34  2  0
 36 37  1  0
M  END
>  <Molecule Name>  (75) 
CTX-1019758

>  <SMILES>  (75) 
CN1CCN(CC1)C1=CC=C(CNC(=O)C2=CC3=C(CCN(C3)C(=O)C3=C(C)C4=C(O3)C=CC=C4)S2)C=C1

>  <Batch Name>  (75) 
CTX-1019758-1

>  <Batch Created Date>  (75) 
2021-09-09

>  <Batch ID>  (75) 
CTX-1019758-1

>  <External ID>  (75) 
S04-04-0004

>  <Stereochemistry>  (75) 
Achiral

>  <Amount 1>  (75) 
4.9

>  <Unit 1>  (75) 
mg

>  <CRO 1>  (75) 
Pharmaron

>  <CRO 1 Total Amount>  (75) 
64.3

>  <CRO 1 Unit>  (75) 
mg

>  <Pharmaron Solubility (PBS, pH 7.4): Aqueous Solubility - Batch Mean (uM)>  (75) 
8.7519

>  <Pharmaron Solubility (PBS, pH 7.4): Aqueous Solubility - Batch Mean (uM) Standard Deviation (±)>  (75) 


>  <Pharmaron Solubility (PBS, pH 7.4): Aqueous Solubility - Batch Mean (uM) Count>  (75) 
1.0

>  <log P>  (75) 
4.43

>  <log D>  (75) 
3.79

>  <Pharmaron Caliper Assay (CDK2/CCNE1): Minimum measured (%)>  (75) 
29.9

>  <Pharmaron Caliper Assay (CDK2/CCNE1): IC50 - Batch Mean (uM)>  (75) 
0.791

>  <Pharmaron ADPGLO (CDK2/E1-25C): Minimum measured (%)>  (75) 
36.4

>  <Pharmaron ADPGLO (CDK2/E1-25C): IC50 - Batch Mean (uM)>  (75) 
1.41

>  <Pharmaron ADPGLO (CDK2/E1-37C): Minimum measured (%)>  (75) 
98.3

>  <Pharmaron ADPGLO (CDK2/E1-37C): IC50 - Batch Mean (uM)>  (75) 
10.0

>  <IncuCyte Kuramochi RB-WT: IC50 - Batch Mean (uM)>  (75) 
6.96

>  <IncuCyte Kuramochi RB-KO: IC50 - Batch Mean (uM)>  (75) 
7.13

>  <DSF (npCDK2/CCNE1): dTm D - Batch Mean [Concentration: 100]>  (75) 


>  <DSF (npCDK2/CCNE1): dTm D - Batch Mean [Concentration: 20.0]>  (75) 
3.025

>  <DSF (pCDK2/CCNE1): dTm D - Batch Mean [Concentration: 100]>  (75) 


>  <DSF (pCDK2/CCNE1): dTm D - Batch Mean [Concentration: 20.0]>  (75) 
2.416

>  <RLM: t1/2 - Batch Mean (Min)>  (75) 


>  <RLM: Cl int - Batch Mean (uL/min/mg protein)>  (75) 


>  <RLM: ER (Hepatic extraction ratio) - Batch Mean>  (75) 


>  <HLM: t1/2 - Batch Mean (Min)>  (75) 
15.16

>  <HLM: Cl int - Batch Mean (uL/min/mg protein)>  (75) 
91.47

>  <HLM: ER (Hepatic extraction ratio) - Batch Mean>  (75) 
0.8170000000000001

>  <MDCK-WT 4% BSA: Papp (A-B) - Batch Mean (10-6, cm/s)>  (75) 
2.61

>  <MDCK-WT 4% BSA: Papp (B-A) - Batch Mean (10-6, cm/s)>  (75) 
2.57

>  <MDCK-WT 4% BSA: Efflux Ratio - Batch Mean>  (75) 
1.01

>  <MDCK-WT 4% BSA: ~Net A_B - Batch Mean (10-6, cm/s)>  (75) 
2.5874

>  <pIC50>  (75) 
6.101824

>  <Selection_1>  (75) 
Y

>  <Selection_N>  (75) 
N

>  <Serie>  (75) 
Tetrahydrothienopyridine

>  <Selection_T>  (75) 


>  <Train_Vs_Test>  (75) 


$$$$
CTX-1019757
     RDKit          2D

 39 44  0  0  0  0  0  0  0  0999 V2000
    5.1961   -0.7500    0.0000 O   0  0  0  0  0  0  0  0  0  0  0  0
    3.8971    0.0000    0.0000 C   0  0  0  0  0  0  0  0  0  0  0  0
    2.5980   -0.7500    0.0000 N   0  0  0  0  0  0  0  0  0  0  0  0
    3.8971    1.5000    0.0000 C   0  0  0  0  0  0  0  0  0  0  0  0
    1.2990    0.0000    0.0000 C   0  0  0  0  0  0  0  0  0  0  0  0
    5.1961    2.2500    0.0000 C   0  0  0  0  0  0  0  0  0  0  0  0
    2.5980    2.2500    0.0000 C   0  0  0  0  0  0  0  0  0  0  0  0
    0.0000   -0.7500    0.0000 C   0  0  0  0  0  0  0  0  0  0  0  0
    5.1961    3.7500    0.0000 C   0  0  0  0  0  0  0  0  0  0  0  0
    2.5980    3.7500    0.0000 C   0  0  0  0  0  0  0  0  0  0  0  0
   -1.2990    0.0000    0.0000 C   0  0  0  0  0  0  0  0  0  0  0  0
    0.0000   -2.2499    0.0000 C   0  0  0  0  0  0  0  0  0  0  0  0
    3.8971    4.5000    0.0000 C   0  0  0  0  0  0  0  0  0  0  0  0
    6.4951    4.5000    0.0000 C   0  0  0  0  0  0  0  0  0  0  0  0
   -2.5980   -0.7499    0.0000 C   0  0  0  0  0  0  0  0  0  0  0  0
   -1.2990   -2.9999    0.0000 C   0  0  0  0  0  0  0  0  0  0  0  0
    3.8971    6.0000    0.0000 C   0  0  0  0  0  0  0  0  0  0  0  0
    6.4951    6.0000    0.0000 N   0  0  0  0  0  0  0  0  0  0  0  0
   -2.5980   -2.2499    0.0000 C   0  0  0  0  0  0  0  0  0  0  0  0
    5.1961    6.7500    0.0000 C   0  0  0  0  0  0  0  0  0  0  0  0
    7.7942    6.7500    0.0000 C   0  0  0  0  0  0  0  0  0  0  0  0
   -3.8971   -2.9999    0.0000 N   0  0  0  0  0  0  0  0  0  0  0  0
    9.0932    6.0000    0.0000 O   0  0  0  0  0  0  0  0  0  0  0  0
    7.7942    8.2500    0.0000 C   0  0  0  0  0  0  0  0  0  0  0  0
   -5.1961   -2.2499    0.0000 C   0  0  0  0  0  0  0  0  0  0  0  0
   -3.8971   -4.4999    0.0000 C   0  0  0  0  0  0  0  0  0  0  0  0
    9.0077    9.1316    0.0000 O   0  0  0  0  0  0  0  0  0  0  0  0
    6.5807    9.1316    0.0000 C   0  0  0  0  0  0  0  0  0  0  0  0
   -6.4951   -2.9999    0.0000 C   0  0  0  0  0  0  0  0  0  0  0  0
   -5.1961   -5.2499    0.0000 C   0  0  0  0  0  0  0  0  0  0  0  0
    8.5442   10.5582    0.0000 C   0  0  0  0  0  0  0  0  0  0  0  0
    7.0442   10.5582    0.0000 C   0  0  0  0  0  0  0  0  0  0  0  0
    5.1541    8.6681    0.0000 C   0  0  0  0  0  0  0  0  0  0  0  0
   -6.4951   -4.4999    0.0000 N   0  0  0  0  0  0  0  0  0  0  0  0
    9.2942   11.8573    0.0000 C   0  0  0  0  0  0  0  0  0  0  0  0
    6.2942   11.8573    0.0000 C   0  0  0  0  0  0  0  0  0  0  0  0
   -7.7942   -5.2499    0.0000 C   0  0  0  0  0  0  0  0  0  0  0  0
    8.5442   13.1563    0.0000 C   0  0  0  0  0  0  0  0  0  0  0  0
    7.0442   13.1563    0.0000 C   0  0  0  0  0  0  0  0  0  0  0  0
  1  2  2  0
  2  3  1  0
  2  4  1  0
  3  5  1  0
  4  6  2  0
  4  7  1  0
  5  8  1  0
  6  9  1  0
  7 10  2  0
  8 11  2  0
  8 12  1  0
  9 13  2  0
  9 14  1  0
 11 15  1  0
 12 16  2  0
 13 17  1  0
 14 18  1  0
 15 19  2  0
 17 20  1  0
 18 21  1  0
 19 22  1  0
 21 23  2  0
 21 24  1  0
 22 25  1  0
 22 26  1  0
 24 27  1  0
 24 28  2  0
 25 29  1  0
 26 30  1  0
 27 31  1  0
 28 32  1  0
 28 33  1  0
 29 34  1  0
 31 35  2  0
 32 36  2  0
 34 37  1  0
 35 38  1  0
 36 39  1  0
 10 13  1  0
 16 19  1  0
 18 20  1  0
 30 34  1  0
 31 32  1  0
 38 39  2  0
M  END
>  <Molecule Name>  (76) 
CTX-1019757

>  <SMILES>  (76) 
CN1CCN(CC1)C1=CC=C(CNC(=O)C2=CC3=C(CCN(C3)C(=O)C3=C(C)C4=C(O3)C=CC=C4)C=C2)C=C1

>  <Batch Name>  (76) 
CTX-1019757-1

>  <Batch Created Date>  (76) 
2021-09-09

>  <Batch ID>  (76) 
CTX-1019757-1

>  <External ID>  (76) 
S04-03-0002

>  <Stereochemistry>  (76) 
Achiral

>  <Amount 1>  (76) 
4.3

>  <Unit 1>  (76) 
mg

>  <CRO 1>  (76) 
Pharmaron

>  <CRO 1 Total Amount>  (76) 
23.8

>  <CRO 1 Unit>  (76) 
mg

>  <Pharmaron Solubility (PBS, pH 7.4): Aqueous Solubility - Batch Mean (uM)>  (76) 
25.1286

>  <Pharmaron Solubility (PBS, pH 7.4): Aqueous Solubility - Batch Mean (uM) Standard Deviation (±)>  (76) 


>  <Pharmaron Solubility (PBS, pH 7.4): Aqueous Solubility - Batch Mean (uM) Count>  (76) 
1.0

>  <log P>  (76) 
4.38

>  <log D>  (76) 
3.75

>  <Pharmaron Caliper Assay (CDK2/CCNE1): Minimum measured (%)>  (76) 
51.6

>  <Pharmaron Caliper Assay (CDK2/CCNE1): IC50 - Batch Mean (uM)>  (76) 
4.42

>  <Pharmaron ADPGLO (CDK2/E1-25C): Minimum measured (%)>  (76) 


>  <Pharmaron ADPGLO (CDK2/E1-25C): IC50 - Batch Mean (uM)>  (76) 


>  <Pharmaron ADPGLO (CDK2/E1-37C): Minimum measured (%)>  (76) 


>  <Pharmaron ADPGLO (CDK2/E1-37C): IC50 - Batch Mean (uM)>  (76) 


>  <IncuCyte Kuramochi RB-WT: IC50 - Batch Mean (uM)>  (76) 
8.43

>  <IncuCyte Kuramochi RB-KO: IC50 - Batch Mean (uM)>  (76) 
7.23

>  <DSF (npCDK2/CCNE1): dTm D - Batch Mean [Concentration: 100]>  (76) 


>  <DSF (npCDK2/CCNE1): dTm D - Batch Mean [Concentration: 20.0]>  (76) 
1.197

>  <DSF (pCDK2/CCNE1): dTm D - Batch Mean [Concentration: 100]>  (76) 


>  <DSF (pCDK2/CCNE1): dTm D - Batch Mean [Concentration: 20.0]>  (76) 


>  <RLM: t1/2 - Batch Mean (Min)>  (76) 


>  <RLM: Cl int - Batch Mean (uL/min/mg protein)>  (76) 


>  <RLM: ER (Hepatic extraction ratio) - Batch Mean>  (76) 


>  <HLM: t1/2 - Batch Mean (Min)>  (76) 
9.88

>  <HLM: Cl int - Batch Mean (uL/min/mg protein)>  (76) 
140.6

>  <HLM: ER (Hepatic extraction ratio) - Batch Mean>  (76) 
0.873

>  <MDCK-WT 4% BSA: Papp (A-B) - Batch Mean (10-6, cm/s)>  (76) 
2.73

>  <MDCK-WT 4% BSA: Papp (B-A) - Batch Mean (10-6, cm/s)>  (76) 
3.72

>  <MDCK-WT 4% BSA: Efflux Ratio - Batch Mean>  (76) 
1.36

>  <MDCK-WT 4% BSA: ~Net A_B - Batch Mean (10-6, cm/s)>  (76) 
3.2277

>  <pIC50>  (76) 
5.354578

>  <Selection_1>  (76) 
Y

>  <Selection_N>  (76) 
N

>  <Serie>  (76) 
Other

>  <Selection_T>  (76) 
N

>  <Train_Vs_Test>  (76) 


$$$$
CTX-1019660
     RDKit          2D

 38 43  0  0  0  0  0  0  0  0999 V2000
    5.1961   -0.7500    0.0000 O   0  0  0  0  0  0  0  0  0  0  0  0
    3.8971    0.0000    0.0000 C   0  0  0  0  0  0  0  0  0  0  0  0
    2.5980   -0.7500    0.0000 N   0  0  0  0  0  0  0  0  0  0  0  0
    3.8971    1.5000    0.0000 C   0  0  0  0  0  0  0  0  0  0  0  0
    1.2990    0.0000    0.0000 C   0  0  0  0  0  0  0  0  0  0  0  0
    5.1961    2.2500    0.0000 N   0  0  0  0  0  0  0  0  0  0  0  0
    2.5980    2.2500    0.0000 C   0  0  0  0  0  0  0  0  0  0  0  0
    0.0000   -0.7500    0.0000 C   0  0  0  0  0  0  0  0  0  0  0  0
    5.1961    3.7500    0.0000 C   0  0  0  0  0  0  0  0  0  0  0  0
    2.5980    3.7500    0.0000 C   0  0  0  0  0  0  0  0  0  0  0  0
   -1.2990    0.0000    0.0000 C   0  0  0  0  0  0  0  0  0  0  0  0
    0.0000   -2.2499    0.0000 C   0  0  0  0  0  0  0  0  0  0  0  0
    3.8971    4.5000    0.0000 C   0  0  0  0  0  0  0  0  0  0  0  0
    6.4951    4.5000    0.0000 C   0  0  0  0  0  0  0  0  0  0  0  0
   -2.5980   -0.7499    0.0000 C   0  0  0  0  0  0  0  0  0  0  0  0
   -1.2990   -2.9999    0.0000 C   0  0  0  0  0  0  0  0  0  0  0  0
    3.8971    6.0000    0.0000 C   0  0  0  0  0  0  0  0  0  0  0  0
    6.4951    6.0000    0.0000 N   0  0  0  0  0  0  0  0  0  0  0  0
   -2.5980   -2.2499    0.0000 C   0  0  0  0  0  0  0  0  0  0  0  0
    5.1961    6.7500    0.0000 C   0  0  0  0  0  0  0  0  0  0  0  0
    7.7942    6.7500    0.0000 C   0  0  0  0  0  0  0  0  0  0  0  0
   -3.8971   -2.9999    0.0000 N   0  0  0  0  0  0  0  0  0  0  0  0
    9.0932    6.0000    0.0000 O   0  0  0  0  0  0  0  0  0  0  0  0
    7.7942    8.2500    0.0000 C   0  0  0  0  0  0  0  0  0  0  0  0
   -5.1961   -2.2499    0.0000 C   0  0  0  0  0  0  0  0  0  0  0  0
   -3.8971   -4.4999    0.0000 C   0  0  0  0  0  0  0  0  0  0  0  0
    9.0077    9.1316    0.0000 C   0  0  0  0  0  0  0  0  0  0  0  0
    6.5807    9.1316    0.0000 C   0  0  0  0  0  0  0  0  0  0  0  0
   -6.4951   -2.9999    0.0000 C   0  0  0  0  0  0  0  0  0  0  0  0
   -5.1961   -5.2499    0.0000 C   0  0  0  0  0  0  0  0  0  0  0  0
    8.5442   10.5582    0.0000 N   0  0  0  0  0  0  0  0  0  0  0  0
   10.4749    8.8198    0.0000 C   0  0  0  0  0  0  0  0  0  0  0  0
    7.0442   10.5582    0.0000 N   0  0  0  0  0  0  0  0  0  0  0  0
   -6.4951   -4.4999    0.0000 N   0  0  0  0  0  0  0  0  0  0  0  0
    9.5479   11.6729    0.0000 C   0  0  0  0  0  0  0  0  0  0  0  0
   11.4786    9.9345    0.0000 N   0  0  0  0  0  0  0  0  0  0  0  0
   -7.7942   -5.2499    0.0000 C   0  0  0  0  0  0  0  0  0  0  0  0
   11.0151   11.3611    0.0000 C   0  0  0  0  0  0  0  0  0  0  0  0
  1  2  2  0
  2  3  1  0
  2  4  1  0
  3  5  1  0
  4  6  2  0
  4  7  1  0
  5  8  1  0
  6  9  1  0
  7 10  2  0
  8 11  2  0
  8 12  1  0
  9 13  2  0
  9 14  1  0
 11 15  1  0
 12 16  2  0
 13 17  1  0
 14 18  1  0
 15 19  2  0
 17 20  1  0
 18 21  1  0
 19 22  1  0
 21 23  2  0
 21 24  1  0
 22 25  1  0
 22 26  1  0
 24 27  2  0
 24 28  1  0
 25 29  1  0
 26 30  1  0
 27 31  1  0
 27 32  1  0
 28 33  2  0
 29 34  1  0
 31 35  1  0
 32 36  2  0
 34 37  1  0
 35 38  2  0
 10 13  1  0
 16 19  1  0
 18 20  1  0
 30 34  1  0
 31 33  1  0
 36 38  1  0
M  END
>  <Molecule Name>  (77) 
CTX-1019660

>  <SMILES>  (77) 
CN1CCN(CC1)C1=CC=C(CNC(=O)C2=NC3=C(CCN(C3)C(=O)C3=C4C=NC=CN4N=C3)C=C2)C=C1

>  <Batch Name>  (77) 
CTX-1019660-1

>  <Batch Created Date>  (77) 
2021-08-19

>  <Batch ID>  (77) 
CTX-1019660-1

>  <External ID>  (77) 
P841-0126

>  <Stereochemistry>  (77) 
Achiral

>  <Amount 1>  (77) 
2.45

>  <Unit 1>  (77) 
mg

>  <CRO 1>  (77) 
Pharmaron

>  <CRO 1 Total Amount>  (77) 
10.8

>  <CRO 1 Unit>  (77) 
mg

>  <Pharmaron Solubility (PBS, pH 7.4): Aqueous Solubility - Batch Mean (uM)>  (77) 
273.0

>  <Pharmaron Solubility (PBS, pH 7.4): Aqueous Solubility - Batch Mean (uM) Standard Deviation (±)>  (77) 


>  <Pharmaron Solubility (PBS, pH 7.4): Aqueous Solubility - Batch Mean (uM) Count>  (77) 
1.0

>  <log P>  (77) 
1.35

>  <log D>  (77) 
0.72

>  <Pharmaron Caliper Assay (CDK2/CCNE1): Minimum measured (%)>  (77) 
23.0

>  <Pharmaron Caliper Assay (CDK2/CCNE1): IC50 - Batch Mean (uM)>  (77) 
7.75

>  <Pharmaron ADPGLO (CDK2/E1-25C): Minimum measured (%)>  (77) 
81.4

>  <Pharmaron ADPGLO (CDK2/E1-25C): IC50 - Batch Mean (uM)>  (77) 
5.23

>  <Pharmaron ADPGLO (CDK2/E1-37C): Minimum measured (%)>  (77) 
101.0

>  <Pharmaron ADPGLO (CDK2/E1-37C): IC50 - Batch Mean (uM)>  (77) 
10.0

>  <IncuCyte Kuramochi RB-WT: IC50 - Batch Mean (uM)>  (77) 
20.0

>  <IncuCyte Kuramochi RB-KO: IC50 - Batch Mean (uM)>  (77) 
20.0

>  <DSF (npCDK2/CCNE1): dTm D - Batch Mean [Concentration: 100]>  (77) 
-0.22399999999999998

>  <DSF (npCDK2/CCNE1): dTm D - Batch Mean [Concentration: 20.0]>  (77) 
0.017

>  <DSF (pCDK2/CCNE1): dTm D - Batch Mean [Concentration: 100]>  (77) 


>  <DSF (pCDK2/CCNE1): dTm D - Batch Mean [Concentration: 20.0]>  (77) 


>  <RLM: t1/2 - Batch Mean (Min)>  (77) 


>  <RLM: Cl int - Batch Mean (uL/min/mg protein)>  (77) 


>  <RLM: ER (Hepatic extraction ratio) - Batch Mean>  (77) 


>  <HLM: t1/2 - Batch Mean (Min)>  (77) 


>  <HLM: Cl int - Batch Mean (uL/min/mg protein)>  (77) 


>  <HLM: ER (Hepatic extraction ratio) - Batch Mean>  (77) 


>  <MDCK-WT 4% BSA: Papp (A-B) - Batch Mean (10-6, cm/s)>  (77) 


>  <MDCK-WT 4% BSA: Papp (B-A) - Batch Mean (10-6, cm/s)>  (77) 


>  <MDCK-WT 4% BSA: Efflux Ratio - Batch Mean>  (77) 


>  <MDCK-WT 4% BSA: ~Net A_B - Batch Mean (10-6, cm/s)>  (77) 


>  <pIC50>  (77) 
5.110698

>  <Selection_1>  (77) 
Y

>  <Selection_N>  (77) 


>  <Serie>  (77) 
Naphthyridine

>  <Selection_T>  (77) 
N

>  <Train_Vs_Test>  (77) 


$$$$
CTX-1019630
     RDKit          2D

 35 39  0  0  0  0  0  0  0  0999 V2000
    5.1961   -0.7500    0.0000 O   0  0  0  0  0  0  0  0  0  0  0  0
    3.8971    0.0000    0.0000 C   0  0  0  0  0  0  0  0  0  0  0  0
    2.5980   -0.7500    0.0000 N   0  0  0  0  0  0  0  0  0  0  0  0
    3.8971    1.5000    0.0000 C   0  0  0  0  0  0  0  0  0  0  0  0
    1.2990    0.0000    0.0000 C   0  0  0  0  0  0  0  0  0  0  0  0
    5.1961    2.2500    0.0000 N   0  0  0  0  0  0  0  0  0  0  0  0
    2.5980    2.2500    0.0000 C   0  0  0  0  0  0  0  0  0  0  0  0
    0.0000   -0.7500    0.0000 C   0  0  0  0  0  0  0  0  0  0  0  0
    5.1961    3.7500    0.0000 C   0  0  0  0  0  0  0  0  0  0  0  0
    2.5980    3.7500    0.0000 C   0  0  0  0  0  0  0  0  0  0  0  0
   -1.2990    0.0000    0.0000 C   0  0  0  0  0  0  0  0  0  0  0  0
    0.0000   -2.2500    0.0000 C   0  0  0  0  0  0  0  0  0  0  0  0
    3.8971    4.5000    0.0000 C   0  0  0  0  0  0  0  0  0  0  0  0
    6.4951    4.5000    0.0000 C   0  0  0  0  0  0  0  0  0  0  0  0
   -2.5980   -0.7499    0.0000 C   0  0  0  0  0  0  0  0  0  0  0  0
   -1.2990   -2.9999    0.0000 C   0  0  0  0  0  0  0  0  0  0  0  0
    3.8971    6.0000    0.0000 C   0  0  0  0  0  0  0  0  0  0  0  0
    6.4951    6.0000    0.0000 N   0  0  0  0  0  0  0  0  0  0  0  0
   -2.5980   -2.2499    0.0000 C   0  0  0  0  0  0  0  0  0  0  0  0
    5.1961    6.7500    0.0000 C   0  0  0  0  0  0  0  0  0  0  0  0
    7.7942    6.7500    0.0000 C   0  0  0  0  0  0  0  0  0  0  0  0
   -3.8971   -2.9999    0.0000 N   0  0  0  0  0  0  0  0  0  0  0  0
    9.0932    6.0000    0.0000 O   0  0  0  0  0  0  0  0  0  0  0  0
    7.7942    8.2500    0.0000 C   0  0  0  0  0  0  0  0  0  0  0  0
   -5.1961   -2.2499    0.0000 C   0  0  0  0  0  0  0  0  0  0  0  0
   -3.8971   -4.4999    0.0000 C   0  0  0  0  0  0  0  0  0  0  0  0
    9.0077    9.1316    0.0000 N   0  0  0  0  0  0  0  0  0  0  0  0
    6.5807    9.1316    0.0000 C   0  0  0  0  0  0  0  0  0  0  0  0
   -6.4951   -2.9999    0.0000 C   0  0  0  0  0  0  0  0  0  0  0  0
   -5.1961   -5.2499    0.0000 C   0  0  0  0  0  0  0  0  0  0  0  0
    8.5442   10.5582    0.0000 C   0  0  0  0  0  0  0  0  0  0  0  0
   10.4343    8.6681    0.0000 C   0  0  0  0  0  0  0  0  0  0  0  0
    7.0442   10.5582    0.0000 C   0  0  0  0  0  0  0  0  0  0  0  0
   -6.4951   -4.4999    0.0000 N   0  0  0  0  0  0  0  0  0  0  0  0
   -7.7942   -5.2499    0.0000 C   0  0  0  0  0  0  0  0  0  0  0  0
  1  2  2  0
  2  3  1  0
  2  4  1  0
  3  5  1  0
  4  6  2  0
  4  7  1  0
  5  8  1  0
  6  9  1  0
  7 10  2  0
  8 11  2  0
  8 12  1  0
  9 13  2  0
  9 14  1  0
 11 15  1  0
 12 16  2  0
 13 17  1  0
 14 18  1  0
 15 19  2  0
 17 20  1  0
 18 21  1  0
 19 22  1  0
 21 23  2  0
 21 24  1  0
 22 25  1  0
 22 26  1  0
 24 27  1  0
 24 28  2  0
 25 29  1  0
 26 30  1  0
 27 31  1  0
 27 32  1  0
 28 33  1  0
 29 34  1  0
 34 35  1  0
 10 13  1  0
 16 19  1  0
 18 20  1  0
 30 34  1  0
 31 33  2  0
M  END
>  <Molecule Name>  (78) 
CTX-1019630

>  <SMILES>  (78) 
CN1C=CC=C1C(=O)N1CCC2=C(C1)N=C(C=C2)C(=O)NCC1=CC=C(C=C1)N1CCN(C)CC1

>  <Batch Name>  (78) 
CTX-1019630-1

>  <Batch Created Date>  (78) 
2021-08-19

>  <Batch ID>  (78) 
CTX-1019630-1

>  <External ID>  (78) 
P841-0145

>  <Stereochemistry>  (78) 
Achiral

>  <Amount 1>  (78) 
4.4

>  <Unit 1>  (78) 
mg

>  <CRO 1>  (78) 
Pharmaron

>  <CRO 1 Total Amount>  (78) 
15.27

>  <CRO 1 Unit>  (78) 
mg

>  <Pharmaron Solubility (PBS, pH 7.4): Aqueous Solubility - Batch Mean (uM)>  (78) 
262.14

>  <Pharmaron Solubility (PBS, pH 7.4): Aqueous Solubility - Batch Mean (uM) Standard Deviation (±)>  (78) 


>  <Pharmaron Solubility (PBS, pH 7.4): Aqueous Solubility - Batch Mean (uM) Count>  (78) 
1.0

>  <log P>  (78) 
2.26

>  <log D>  (78) 
1.63

>  <Pharmaron Caliper Assay (CDK2/CCNE1): Minimum measured (%)>  (78) 
70.2

>  <Pharmaron Caliper Assay (CDK2/CCNE1): IC50 - Batch Mean (uM)>  (78) 
8.8

>  <Pharmaron ADPGLO (CDK2/E1-25C): Minimum measured (%)>  (78) 


>  <Pharmaron ADPGLO (CDK2/E1-25C): IC50 - Batch Mean (uM)>  (78) 


>  <Pharmaron ADPGLO (CDK2/E1-37C): Minimum measured (%)>  (78) 


>  <Pharmaron ADPGLO (CDK2/E1-37C): IC50 - Batch Mean (uM)>  (78) 


>  <IncuCyte Kuramochi RB-WT: IC50 - Batch Mean (uM)>  (78) 
20.0

>  <IncuCyte Kuramochi RB-KO: IC50 - Batch Mean (uM)>  (78) 
20.0

>  <DSF (npCDK2/CCNE1): dTm D - Batch Mean [Concentration: 100]>  (78) 
0.129

>  <DSF (npCDK2/CCNE1): dTm D - Batch Mean [Concentration: 20.0]>  (78) 


>  <DSF (pCDK2/CCNE1): dTm D - Batch Mean [Concentration: 100]>  (78) 


>  <DSF (pCDK2/CCNE1): dTm D - Batch Mean [Concentration: 20.0]>  (78) 


>  <RLM: t1/2 - Batch Mean (Min)>  (78) 


>  <RLM: Cl int - Batch Mean (uL/min/mg protein)>  (78) 


>  <RLM: ER (Hepatic extraction ratio) - Batch Mean>  (78) 


>  <HLM: t1/2 - Batch Mean (Min)>  (78) 


>  <HLM: Cl int - Batch Mean (uL/min/mg protein)>  (78) 


>  <HLM: ER (Hepatic extraction ratio) - Batch Mean>  (78) 


>  <MDCK-WT 4% BSA: Papp (A-B) - Batch Mean (10-6, cm/s)>  (78) 


>  <MDCK-WT 4% BSA: Papp (B-A) - Batch Mean (10-6, cm/s)>  (78) 


>  <MDCK-WT 4% BSA: Efflux Ratio - Batch Mean>  (78) 


>  <MDCK-WT 4% BSA: ~Net A_B - Batch Mean (10-6, cm/s)>  (78) 


>  <pIC50>  (78) 
5.055517

>  <Selection_1>  (78) 
Y

>  <Selection_N>  (78) 


>  <Serie>  (78) 
Naphthyridine

>  <Selection_T>  (78) 
N

>  <Train_Vs_Test>  (78) 


$$$$
CTX-1019613
     RDKit          2D

 39 44  0  0  0  0  0  0  0  0999 V2000
    9.5737   -0.0932    0.0000 S   0  0  0  0  0  0  0  0  0  0  0  0
    8.6602   -0.5000    0.0000 C   0  0  0  0  0  0  0  0  0  0  0  0
   10.2429   -0.8364    0.0000 C   0  0  0  0  0  0  0  0  0  0  0  0
    8.7647   -1.4945    0.0000 C   0  0  0  0  0  0  0  0  0  0  0  0
    7.7942    0.0000    0.0000 C   0  0  0  0  0  0  0  0  0  0  0  0
    9.7429   -1.7024    0.0000 C   0  0  0  0  0  0  0  0  0  0  0  0
   11.2429   -0.8364    0.0000 C   0  0  0  0  0  0  0  0  0  0  0  0
    8.0216   -2.1636    0.0000 C   0  0  0  0  0  0  0  0  0  0  0  0
    7.7942    0.9999    0.0000 O   0  0  0  0  0  0  0  0  0  0  0  0
    6.9282   -0.5000    0.0000 N   0  0  0  0  0  0  0  0  0  0  0  0
   10.2429   -2.5684    0.0000 C   0  0  0  0  0  0  0  0  0  0  0  0
   11.7429   -1.7024    0.0000 C   0  0  0  0  0  0  0  0  0  0  0  0
    6.0621    0.0000    0.0000 C   0  0  0  0  0  0  0  0  0  0  0  0
    6.9282   -1.4999    0.0000 C   0  0  0  0  0  0  0  0  0  0  0  0
   11.2429   -2.5684    0.0000 C   0  0  0  0  0  0  0  0  0  0  0  0
    5.1961   -0.5000    0.0000 C   0  0  0  0  0  0  0  0  0  0  0  0
    6.0621   -1.9999    0.0000 C   0  0  0  0  0  0  0  0  0  0  0  0
    4.3301    0.0000    0.0000 N   0  0  0  0  0  0  0  0  0  0  0  0
    5.1961   -1.4999    0.0000 C   0  0  0  0  0  0  0  0  0  0  0  0
    3.4641   -0.5000    0.0000 C   0  0  0  0  0  0  0  0  0  0  0  0
    4.3301   -2.0000    0.0000 C   0  0  0  0  0  0  0  0  0  0  0  0
    2.5980    0.0000    0.0000 C   0  0  0  0  0  0  0  0  0  0  0  0
    3.4641   -1.4999    0.0000 C   0  0  0  0  0  0  0  0  0  0  0  0
    2.5980    1.0000    0.0000 O   0  0  0  0  0  0  0  0  0  0  0  0
    1.7320   -0.5000    0.0000 N   0  0  0  0  0  0  0  0  0  0  0  0
    0.8660    0.0000    0.0000 C   0  0  0  0  0  0  0  0  0  0  0  0
    0.0000   -0.5000    0.0000 C   0  0  0  0  0  0  0  0  0  0  0  0
   -0.8660    0.0000    0.0000 C   0  0  0  0  0  0  0  0  0  0  0  0
    0.0000   -1.4999    0.0000 C   0  0  0  0  0  0  0  0  0  0  0  0
   -1.7320   -0.4999    0.0000 C   0  0  0  0  0  0  0  0  0  0  0  0
   -0.8660   -1.9999    0.0000 C   0  0  0  0  0  0  0  0  0  0  0  0
   -1.7320   -1.4999    0.0000 C   0  0  0  0  0  0  0  0  0  0  0  0
   -2.5980   -1.9999    0.0000 N   0  0  0  0  0  0  0  0  0  0  0  0
   -3.4641   -1.4999    0.0000 C   0  0  0  0  0  0  0  0  0  0  0  0
   -2.5980   -2.9999    0.0000 C   0  0  0  0  0  0  0  0  0  0  0  0
   -4.3301   -1.9999    0.0000 C   0  0  0  0  0  0  0  0  0  0  0  0
   -3.4641   -3.4999    0.0000 C   0  0  0  0  0  0  0  0  0  0  0  0
   -4.3301   -2.9999    0.0000 N   0  0  0  0  0  0  0  0  0  0  0  0
   -5.1961   -3.4999    0.0000 C   0  0  0  0  0  0  0  0  0  0  0  0
  1  2  1  0
  1  3  1  0
  2  4  2  0
  2  5  1  0
  3  6  2  0
  3  7  1  0
  4  8  1  0
  5  9  2  0
  5 10  1  0
  6 11  1  0
  7 12  2  0
 10 13  1  0
 10 14  1  0
 11 15  2  0
 13 16  1  0
 14 17  1  0
 16 18  2  0
 16 19  1  0
 18 20  1  0
 19 21  2  0
 20 22  1  0
 20 23  2  0
 22 24  2  0
 22 25  1  0
 25 26  1  0
 26 27  1  0
 27 28  2  0
 27 29  1  0
 28 30  1  0
 29 31  2  0
 30 32  2  0
 32 33  1  0
 33 34  1  0
 33 35  1  0
 34 36  1  0
 35 37  1  0
 36 38  1  0
 38 39  1  0
  4  6  1  0
 12 15  1  0
 17 19  1  0
 21 23  1  0
 31 32  1  0
 37 38  1  0
M  END
>  <Molecule Name>  (79) 
CTX-1019613

>  <SMILES>  (79) 
CN1CCN(CC1)C1=CC=C(CNC(=O)C2=CC=C3CCN(CC3=N2)C(=O)C2=C(C)C3=C(S2)C=CC=C3)C=C1

>  <Batch Name>  (79) 
CTX-1019613-1

>  <Batch Created Date>  (79) 
2021-08-19

>  <Batch ID>  (79) 
CTX-1019613-1

>  <External ID>  (79) 
P841-0128

>  <Stereochemistry>  (79) 
Achiral

>  <Amount 1>  (79) 
5.2

>  <Unit 1>  (79) 
mg

>  <CRO 1>  (79) 
Pharmaron

>  <CRO 1 Total Amount>  (79) 
23.9

>  <CRO 1 Unit>  (79) 
mg

>  <Pharmaron Solubility (PBS, pH 7.4): Aqueous Solubility - Batch Mean (uM)>  (79) 
151.34

>  <Pharmaron Solubility (PBS, pH 7.4): Aqueous Solubility - Batch Mean (uM) Standard Deviation (±)>  (79) 


>  <Pharmaron Solubility (PBS, pH 7.4): Aqueous Solubility - Batch Mean (uM) Count>  (79) 
1.0

>  <log P>  (79) 
4.56

>  <log D>  (79) 
3.93

>  <Pharmaron Caliper Assay (CDK2/CCNE1): Minimum measured (%)>  (79) 
43.0

>  <Pharmaron Caliper Assay (CDK2/CCNE1): IC50 - Batch Mean (uM)>  (79) 
2.41

>  <Pharmaron ADPGLO (CDK2/E1-25C): Minimum measured (%)>  (79) 
27.8

>  <Pharmaron ADPGLO (CDK2/E1-25C): IC50 - Batch Mean (uM)>  (79) 
4.13

>  <Pharmaron ADPGLO (CDK2/E1-37C): Minimum measured (%)>  (79) 
98.2

>  <Pharmaron ADPGLO (CDK2/E1-37C): IC50 - Batch Mean (uM)>  (79) 
100

>  <IncuCyte Kuramochi RB-WT: IC50 - Batch Mean (uM)>  (79) 
11.7

>  <IncuCyte Kuramochi RB-KO: IC50 - Batch Mean (uM)>  (79) 
12.4

>  <DSF (npCDK2/CCNE1): dTm D - Batch Mean [Concentration: 100]>  (79) 
1.216

>  <DSF (npCDK2/CCNE1): dTm D - Batch Mean [Concentration: 20.0]>  (79) 
1.36

>  <DSF (pCDK2/CCNE1): dTm D - Batch Mean [Concentration: 100]>  (79) 


>  <DSF (pCDK2/CCNE1): dTm D - Batch Mean [Concentration: 20.0]>  (79) 


>  <RLM: t1/2 - Batch Mean (Min)>  (79) 


>  <RLM: Cl int - Batch Mean (uL/min/mg protein)>  (79) 


>  <RLM: ER (Hepatic extraction ratio) - Batch Mean>  (79) 


>  <HLM: t1/2 - Batch Mean (Min)>  (79) 
9.1

>  <HLM: Cl int - Batch Mean (uL/min/mg protein)>  (79) 
152.48

>  <HLM: ER (Hepatic extraction ratio) - Batch Mean>  (79) 
0.882

>  <MDCK-WT 4% BSA: Papp (A-B) - Batch Mean (10-6, cm/s)>  (79) 


>  <MDCK-WT 4% BSA: Papp (B-A) - Batch Mean (10-6, cm/s)>  (79) 


>  <MDCK-WT 4% BSA: Efflux Ratio - Batch Mean>  (79) 


>  <MDCK-WT 4% BSA: ~Net A_B - Batch Mean (10-6, cm/s)>  (79) 


>  <pIC50>  (79) 
5.617983

>  <Selection_1>  (79) 
Y

>  <Selection_N>  (79) 


>  <Serie>  (79) 
Naphthyridine

>  <Selection_T>  (79) 
N

>  <Train_Vs_Test>  (79) 


$$$$
CTX-1019496
     RDKit          2D

 31 35  0  0  0  0  0  0  0  0999 V2000
    4.3776   -0.0932    0.0000 S   0  0  0  0  0  0  0  0  0  0  0  0
    3.4641   -0.5000    0.0000 C   0  0  0  0  0  0  0  0  0  0  0  0
    5.0467   -0.8364    0.0000 C   0  0  0  0  0  0  0  0  0  0  0  0
    3.5686   -1.4945    0.0000 C   0  0  0  0  0  0  0  0  0  0  0  0
    2.5980    0.0000    0.0000 C   0  0  0  0  0  0  0  0  0  0  0  0
    4.5467   -1.7024    0.0000 N   0  0  0  0  0  0  0  0  0  0  0  0
    1.7320   -0.5000    0.0000 N   0  0  0  0  0  0  0  0  0  0  0  0
    0.8660    0.0000    0.0000 C   0  0  0  0  0  0  0  0  0  0  0  0
    0.8660    1.0000    0.0000 O   0  0  0  0  0  0  0  0  0  0  0  0
    0.0000   -0.5000    0.0000 C   0  0  0  0  0  0  0  0  0  0  0  0
   -0.8660    0.0000    0.0000 N   0  0  0  0  0  0  0  0  0  0  0  0
    0.0000   -1.4999    0.0000 C   0  0  0  0  0  0  0  0  0  0  0  0
   -1.7320   -0.4999    0.0000 C   0  0  0  0  0  0  0  0  0  0  0  0
   -0.8660   -1.9999    0.0000 C   0  0  0  0  0  0  0  0  0  0  0  0
   -1.7320   -1.4999    0.0000 C   0  0  0  0  0  0  0  0  0  0  0  0
   -2.5980    0.0000    0.0000 C   0  0  0  0  0  0  0  0  0  0  0  0
   -2.5980   -1.9999    0.0000 C   0  0  0  0  0  0  0  0  0  0  0  0
   -3.4641   -0.4999    0.0000 N   0  0  0  0  0  0  0  0  0  0  0  0
   -3.4641   -1.4999    0.0000 C   0  0  0  0  0  0  0  0  0  0  0  0
   -4.3301    0.0000    0.0000 C   0  0  0  0  0  0  0  0  0  0  0  0
   -4.3301    1.0000    0.0000 O   0  0  0  0  0  0  0  0  0  0  0  0
   -5.1961   -0.4999    0.0000 C   0  0  0  0  0  0  0  0  0  0  0  0
   -6.1096   -0.0932    0.0000 O   0  0  0  0  0  0  0  0  0  0  0  0
   -5.3006   -1.4945    0.0000 C   0  0  0  0  0  0  0  0  0  0  0  0
   -6.7788   -0.8364    0.0000 C   0  0  0  0  0  0  0  0  0  0  0  0
   -6.2788   -1.7024    0.0000 C   0  0  0  0  0  0  0  0  0  0  0  0
   -4.5575   -2.1636    0.0000 C   0  0  0  0  0  0  0  0  0  0  0  0
   -7.7788   -0.8364    0.0000 C   0  0  0  0  0  0  0  0  0  0  0  0
   -6.7788   -2.5684    0.0000 C   0  0  0  0  0  0  0  0  0  0  0  0
   -8.2788   -1.7024    0.0000 C   0  0  0  0  0  0  0  0  0  0  0  0
   -7.7788   -2.5684    0.0000 C   0  0  0  0  0  0  0  0  0  0  0  0
  1  2  1  0
  1  3  1  0
  2  4  2  0
  2  5  1  0
  3  6  2  0
  5  7  1  0
  7  8  1  0
  8  9  2  0
  8 10  1  0
 10 11  2  0
 10 12  1  0
 11 13  1  0
 12 14  2  0
 13 15  2  0
 13 16  1  0
 15 17  1  0
 16 18  1  0
 17 19  1  0
 18 20  1  0
 20 21  2  0
 20 22  1  0
 22 23  1  0
 22 24  2  0
 23 25  1  0
 24 26  1  0
 24 27  1  0
 25 28  2  0
 26 29  2  0
 28 30  1  0
 29 31  1  0
  4  6  1  0
 14 15  1  0
 18 19  1  0
 25 26  1  0
 30 31  2  0
M  END
>  <Molecule Name>  (80) 
CTX-1019496

>  <SMILES>  (80) 
CC1=C(OC2=C1C=CC=C2)C(=O)N1CCC2=C(C1)N=C(C=C2)C(=O)NCC1=CN=CS1

>  <Batch Name>  (80) 
CTX-1019496-1

>  <Batch Created Date>  (80) 
2021-07-30

>  <Batch ID>  (80) 
CTX-1019496-1

>  <External ID>  (80) 
P841-0109

>  <Stereochemistry>  (80) 
Achiral

>  <Amount 1>  (80) 
2.3

>  <Unit 1>  (80) 
mg

>  <CRO 1>  (80) 
Pharmaron

>  <CRO 1 Total Amount>  (80) 
13.7

>  <CRO 1 Unit>  (80) 
mg

>  <Pharmaron Solubility (PBS, pH 7.4): Aqueous Solubility - Batch Mean (uM)>  (80) 
13.7

>  <Pharmaron Solubility (PBS, pH 7.4): Aqueous Solubility - Batch Mean (uM) Standard Deviation (±)>  (80) 


>  <Pharmaron Solubility (PBS, pH 7.4): Aqueous Solubility - Batch Mean (uM) Count>  (80) 
1.0

>  <log P>  (80) 
2.47

>  <log D>  (80) 
2.47

>  <Pharmaron Caliper Assay (CDK2/CCNE1): Minimum measured (%)>  (80) 
66.1

>  <Pharmaron Caliper Assay (CDK2/CCNE1): IC50 - Batch Mean (uM)>  (80) 
5.47

>  <Pharmaron ADPGLO (CDK2/E1-25C): Minimum measured (%)>  (80) 


>  <Pharmaron ADPGLO (CDK2/E1-25C): IC50 - Batch Mean (uM)>  (80) 


>  <Pharmaron ADPGLO (CDK2/E1-37C): Minimum measured (%)>  (80) 


>  <Pharmaron ADPGLO (CDK2/E1-37C): IC50 - Batch Mean (uM)>  (80) 


>  <IncuCyte Kuramochi RB-WT: IC50 - Batch Mean (uM)>  (80) 
20.0

>  <IncuCyte Kuramochi RB-KO: IC50 - Batch Mean (uM)>  (80) 
20.0

>  <DSF (npCDK2/CCNE1): dTm D - Batch Mean [Concentration: 100]>  (80) 


>  <DSF (npCDK2/CCNE1): dTm D - Batch Mean [Concentration: 20.0]>  (80) 
0.631

>  <DSF (pCDK2/CCNE1): dTm D - Batch Mean [Concentration: 100]>  (80) 


>  <DSF (pCDK2/CCNE1): dTm D - Batch Mean [Concentration: 20.0]>  (80) 


>  <RLM: t1/2 - Batch Mean (Min)>  (80) 


>  <RLM: Cl int - Batch Mean (uL/min/mg protein)>  (80) 


>  <RLM: ER (Hepatic extraction ratio) - Batch Mean>  (80) 


>  <HLM: t1/2 - Batch Mean (Min)>  (80) 


>  <HLM: Cl int - Batch Mean (uL/min/mg protein)>  (80) 


>  <HLM: ER (Hepatic extraction ratio) - Batch Mean>  (80) 


>  <MDCK-WT 4% BSA: Papp (A-B) - Batch Mean (10-6, cm/s)>  (80) 


>  <MDCK-WT 4% BSA: Papp (B-A) - Batch Mean (10-6, cm/s)>  (80) 


>  <MDCK-WT 4% BSA: Efflux Ratio - Batch Mean>  (80) 


>  <MDCK-WT 4% BSA: ~Net A_B - Batch Mean (10-6, cm/s)>  (80) 


>  <pIC50>  (80) 
5.262013

>  <Selection_1>  (80) 
Y

>  <Selection_N>  (80) 


>  <Serie>  (80) 
Naphthyridine

>  <Selection_T>  (80) 
N

>  <Train_Vs_Test>  (80) 


$$$$
CTX-1019480
     RDKit          2D

 32 36  0  0  0  0  0  0  0  0999 V2000
    5.1961   -0.7500    0.0000 O   0  0  0  0  0  0  0  0  0  0  0  0
    3.8971    0.0000    0.0000 C   0  0  0  0  0  0  0  0  0  0  0  0
    2.5980   -0.7500    0.0000 N   0  0  0  0  0  0  0  0  0  0  0  0
    3.8971    1.5000    0.0000 C   0  0  0  0  0  0  0  0  0  0  0  0
    1.2990    0.0000    0.0000 C   0  0  0  0  0  0  0  0  0  0  0  0
    5.1961    2.2500    0.0000 N   0  0  0  0  0  0  0  0  0  0  0  0
    2.5980    2.2500    0.0000 C   0  0  0  0  0  0  0  0  0  0  0  0
    0.0000   -0.7500    0.0000 C   0  0  0  0  0  0  0  0  0  0  0  0
    5.1961    3.7500    0.0000 C   0  0  0  0  0  0  0  0  0  0  0  0
    2.5980    3.7500    0.0000 C   0  0  0  0  0  0  0  0  0  0  0  0
   -1.2990    0.0000    0.0000 C   0  0  0  0  0  0  0  0  0  0  0  0
    0.0000   -2.2500    0.0000 C   0  0  0  0  0  0  0  0  0  0  0  0
    3.8971    4.5000    0.0000 C   0  0  0  0  0  0  0  0  0  0  0  0
    6.4951    4.5000    0.0000 C   0  0  0  0  0  0  0  0  0  0  0  0
   -2.5980   -0.7499    0.0000 C   0  0  0  0  0  0  0  0  0  0  0  0
   -1.2990   -2.9999    0.0000 C   0  0  0  0  0  0  0  0  0  0  0  0
    3.8971    6.0000    0.0000 C   0  0  0  0  0  0  0  0  0  0  0  0
    6.4951    6.0000    0.0000 N   0  0  0  0  0  0  0  0  0  0  0  0
   -2.5980   -2.2499    0.0000 C   0  0  0  0  0  0  0  0  0  0  0  0
    5.1961    6.7500    0.0000 C   0  0  0  0  0  0  0  0  0  0  0  0
    7.7942    6.7500    0.0000 C   0  0  0  0  0  0  0  0  0  0  0  0
    9.0932    6.0000    0.0000 O   0  0  0  0  0  0  0  0  0  0  0  0
    7.7942    8.2500    0.0000 C   0  0  0  0  0  0  0  0  0  0  0  0
    9.0077    9.1316    0.0000 O   0  0  0  0  0  0  0  0  0  0  0  0
    6.5807    9.1316    0.0000 C   0  0  0  0  0  0  0  0  0  0  0  0
    8.5442   10.5582    0.0000 C   0  0  0  0  0  0  0  0  0  0  0  0
    7.0442   10.5582    0.0000 C   0  0  0  0  0  0  0  0  0  0  0  0
    5.1541    8.6681    0.0000 C   0  0  0  0  0  0  0  0  0  0  0  0
    9.2942   11.8573    0.0000 C   0  0  0  0  0  0  0  0  0  0  0  0
    6.2942   11.8573    0.0000 C   0  0  0  0  0  0  0  0  0  0  0  0
    8.5442   13.1563    0.0000 C   0  0  0  0  0  0  0  0  0  0  0  0
    7.0442   13.1563    0.0000 C   0  0  0  0  0  0  0  0  0  0  0  0
  1  2  2  0
  2  3  1  0
  2  4  1  0
  3  5  1  0
  4  6  2  0
  4  7  1  0
  5  8  1  0
  6  9  1  0
  7 10  2  0
  8 11  2  0
  8 12  1  0
  9 13  2  0
  9 14  1  0
 11 15  1  0
 12 16  2  0
 13 17  1  0
 14 18  1  0
 15 19  2  0
 17 20  1  0
 18 21  1  0
 21 22  2  0
 21 23  1  0
 23 24  1  0
 23 25  2  0
 24 26  1  0
 25 27  1  0
 25 28  1  0
 26 29  2  0
 27 30  2  0
 29 31  1  0
 30 32  1  0
 10 13  1  0
 16 19  1  0
 18 20  1  0
 26 27  1  0
 31 32  2  0
M  END
>  <Molecule Name>  (81) 
CTX-1019480

>  <SMILES>  (81) 
CC1=C(OC2=C1C=CC=C2)C(=O)N1CCC2=C(C1)N=C(C=C2)C(=O)NCC1=CC=CC=C1

>  <Batch Name>  (81) 
CTX-1019480-1

>  <Batch Created Date>  (81) 
2021-07-30

>  <Batch ID>  (81) 
CTX-1019480-1

>  <External ID>  (81) 
P841-0093

>  <Stereochemistry>  (81) 
Achiral

>  <Amount 1>  (81) 
3.1

>  <Unit 1>  (81) 
mg

>  <CRO 1>  (81) 
Pharmaron

>  <CRO 1 Total Amount>  (81) 
12.2

>  <CRO 1 Unit>  (81) 
mg

>  <Pharmaron Solubility (PBS, pH 7.4): Aqueous Solubility - Batch Mean (uM)>  (81) 
0.0192

>  <Pharmaron Solubility (PBS, pH 7.4): Aqueous Solubility - Batch Mean (uM) Standard Deviation (±)>  (81) 


>  <Pharmaron Solubility (PBS, pH 7.4): Aqueous Solubility - Batch Mean (uM) Count>  (81) 
1.0

>  <log P>  (81) 
3.68

>  <log D>  (81) 
3.68

>  <Pharmaron Caliper Assay (CDK2/CCNE1): Minimum measured (%)>  (81) 
71.2

>  <Pharmaron Caliper Assay (CDK2/CCNE1): IC50 - Batch Mean (uM)>  (81) 
0.43

>  <Pharmaron ADPGLO (CDK2/E1-25C): Minimum measured (%)>  (81) 
82.2

>  <Pharmaron ADPGLO (CDK2/E1-25C): IC50 - Batch Mean (uM)>  (81) 
4.21

>  <Pharmaron ADPGLO (CDK2/E1-37C): Minimum measured (%)>  (81) 
101.0

>  <Pharmaron ADPGLO (CDK2/E1-37C): IC50 - Batch Mean (uM)>  (81) 
10.0

>  <IncuCyte Kuramochi RB-WT: IC50 - Batch Mean (uM)>  (81) 
20.0

>  <IncuCyte Kuramochi RB-KO: IC50 - Batch Mean (uM)>  (81) 
20.0

>  <DSF (npCDK2/CCNE1): dTm D - Batch Mean [Concentration: 100]>  (81) 


>  <DSF (npCDK2/CCNE1): dTm D - Batch Mean [Concentration: 20.0]>  (81) 
1.162

>  <DSF (pCDK2/CCNE1): dTm D - Batch Mean [Concentration: 100]>  (81) 


>  <DSF (pCDK2/CCNE1): dTm D - Batch Mean [Concentration: 20.0]>  (81) 
0.212

>  <RLM: t1/2 - Batch Mean (Min)>  (81) 


>  <RLM: Cl int - Batch Mean (uL/min/mg protein)>  (81) 


>  <RLM: ER (Hepatic extraction ratio) - Batch Mean>  (81) 


>  <HLM: t1/2 - Batch Mean (Min)>  (81) 
4.83

>  <HLM: Cl int - Batch Mean (uL/min/mg protein)>  (81) 
288.47

>  <HLM: ER (Hepatic extraction ratio) - Batch Mean>  (81) 
0.934

>  <MDCK-WT 4% BSA: Papp (A-B) - Batch Mean (10-6, cm/s)>  (81) 


>  <MDCK-WT 4% BSA: Papp (B-A) - Batch Mean (10-6, cm/s)>  (81) 


>  <MDCK-WT 4% BSA: Efflux Ratio - Batch Mean>  (81) 


>  <MDCK-WT 4% BSA: ~Net A_B - Batch Mean (10-6, cm/s)>  (81) 


>  <pIC50>  (81) 
6.366532

>  <Selection_1>  (81) 
Y

>  <Selection_N>  (81) 


>  <Serie>  (81) 
Naphthyridine

>  <Selection_T>  (81) 
N

>  <Train_Vs_Test>  (81) 


$$$$
CTX-1019473
     RDKit          2D

 35 39  0  0  0  0  0  0  0  0999 V2000
    5.1961   -0.7500    0.0000 O   0  0  0  0  0  0  0  0  0  0  0  0
    3.8971    0.0000    0.0000 C   0  0  0  0  0  0  0  0  0  0  0  0
    2.5980   -0.7500    0.0000 N   0  0  0  0  0  0  0  0  0  0  0  0
    3.8971    1.5000    0.0000 C   0  0  0  0  0  0  0  0  0  0  0  0
    1.2990    0.0000    0.0000 C   0  0  0  0  0  0  0  0  0  0  0  0
    5.1961    2.2500    0.0000 N   0  0  0  0  0  0  0  0  0  0  0  0
    2.5980    2.2500    0.0000 C   0  0  0  0  0  0  0  0  0  0  0  0
    0.0000   -0.7500    0.0000 C   0  0  0  0  0  0  0  0  0  0  0  0
    5.1961    3.7500    0.0000 C   0  0  0  0  0  0  0  0  0  0  0  0
    2.5980    3.7500    0.0000 C   0  0  0  0  0  0  0  0  0  0  0  0
   -1.2990    0.0000    0.0000 C   0  0  0  0  0  0  0  0  0  0  0  0
    0.0000   -2.2500    0.0000 C   0  0  0  0  0  0  0  0  0  0  0  0
    3.8971    4.5000    0.0000 C   0  0  0  0  0  0  0  0  0  0  0  0
    6.4951    4.5000    0.0000 C   0  0  0  0  0  0  0  0  0  0  0  0
   -2.5980   -0.7499    0.0000 C   0  0  0  0  0  0  0  0  0  0  0  0
   -1.2990   -2.9999    0.0000 C   0  0  0  0  0  0  0  0  0  0  0  0
    3.8971    6.0000    0.0000 C   0  0  0  0  0  0  0  0  0  0  0  0
    6.4951    6.0000    0.0000 N   0  0  0  0  0  0  0  0  0  0  0  0
   -2.5980   -2.2499    0.0000 C   0  0  0  0  0  0  0  0  0  0  0  0
    5.1961    6.7500    0.0000 C   0  0  0  0  0  0  0  0  0  0  0  0
    7.7942    6.7500    0.0000 C   0  0  0  0  0  0  0  0  0  0  0  0
   -3.8971   -2.9999    0.0000 N   0  0  0  0  0  0  0  0  0  0  0  0
    9.0932    6.0000    0.0000 O   0  0  0  0  0  0  0  0  0  0  0  0
    7.7942    8.2500    0.0000 C   0  0  0  0  0  0  0  0  0  0  0  0
   -5.1961   -2.2499    0.0000 C   0  0  0  0  0  0  0  0  0  0  0  0
   -3.8971   -4.4999    0.0000 C   0  0  0  0  0  0  0  0  0  0  0  0
    9.0077    9.1316    0.0000 O   0  0  0  0  0  0  0  0  0  0  0  0
    6.5807    9.1316    0.0000 C   0  0  0  0  0  0  0  0  0  0  0  0
    8.5442   10.5582    0.0000 C   0  0  0  0  0  0  0  0  0  0  0  0
    7.0442   10.5582    0.0000 C   0  0  0  0  0  0  0  0  0  0  0  0
    5.1541    8.6681    0.0000 C   0  0  0  0  0  0  0  0  0  0  0  0
    9.2942   11.8573    0.0000 C   0  0  0  0  0  0  0  0  0  0  0  0
    6.2942   11.8573    0.0000 C   0  0  0  0  0  0  0  0  0  0  0  0
    8.5442   13.1563    0.0000 C   0  0  0  0  0  0  0  0  0  0  0  0
    7.0442   13.1563    0.0000 C   0  0  0  0  0  0  0  0  0  0  0  0
  1  2  2  0
  2  3  1  0
  2  4  1  0
  3  5  1  0
  4  6  2  0
  4  7  1  0
  5  8  1  0
  6  9  1  0
  7 10  2  0
  8 11  2  0
  8 12  1  0
  9 13  2  0
  9 14  1  0
 11 15  1  0
 12 16  2  0
 13 17  1  0
 14 18  1  0
 15 19  2  0
 17 20  1  0
 18 21  1  0
 19 22  1  0
 21 23  2  0
 21 24  1  0
 22 25  1  0
 22 26  1  0
 24 27  1  0
 24 28  2  0
 27 29  1  0
 28 30  1  0
 28 31  1  0
 29 32  2  0
 30 33  2  0
 32 34  1  0
 33 35  1  0
 10 13  1  0
 16 19  1  0
 18 20  1  0
 29 30  1  0
 34 35  2  0
M  END
>  <Molecule Name>  (82) 
CTX-1019473

>  <SMILES>  (82) 
CN(C)C1=CC=C(CNC(=O)C2=NC3=C(CCN(C3)C(=O)C3=C(C)C4=C(O3)C=CC=C4)C=C2)C=C1

>  <Batch Name>  (82) 
CTX-1019473-1

>  <Batch Created Date>  (82) 
2021-07-30

>  <Batch ID>  (82) 
CTX-1019473-1

>  <External ID>  (82) 
P841-0086

>  <Stereochemistry>  (82) 
Achiral

>  <Amount 1>  (82) 
1.9

>  <Unit 1>  (82) 
mg

>  <CRO 1>  (82) 
Pharmaron

>  <CRO 1 Total Amount>  (82) 
10.9

>  <CRO 1 Unit>  (82) 
mg

>  <Pharmaron Solubility (PBS, pH 7.4): Aqueous Solubility - Batch Mean (uM)>  (82) 
0.0021

>  <Pharmaron Solubility (PBS, pH 7.4): Aqueous Solubility - Batch Mean (uM) Standard Deviation (±)>  (82) 


>  <Pharmaron Solubility (PBS, pH 7.4): Aqueous Solubility - Batch Mean (uM) Count>  (82) 
1.0

>  <log P>  (82) 
3.78

>  <log D>  (82) 
3.78

>  <Pharmaron Caliper Assay (CDK2/CCNE1): Minimum measured (%)>  (82) 
75.0

>  <Pharmaron Caliper Assay (CDK2/CCNE1): IC50 - Batch Mean (uM)>  (82) 
0.875

>  <Pharmaron ADPGLO (CDK2/E1-25C): Minimum measured (%)>  (82) 
83.2

>  <Pharmaron ADPGLO (CDK2/E1-25C): IC50 - Batch Mean (uM)>  (82) 
4.37

>  <Pharmaron ADPGLO (CDK2/E1-37C): Minimum measured (%)>  (82) 
97.9

>  <Pharmaron ADPGLO (CDK2/E1-37C): IC50 - Batch Mean (uM)>  (82) 
10.0

>  <IncuCyte Kuramochi RB-WT: IC50 - Batch Mean (uM)>  (82) 
20.0

>  <IncuCyte Kuramochi RB-KO: IC50 - Batch Mean (uM)>  (82) 
20.0

>  <DSF (npCDK2/CCNE1): dTm D - Batch Mean [Concentration: 100]>  (82) 


>  <DSF (npCDK2/CCNE1): dTm D - Batch Mean [Concentration: 20.0]>  (82) 
0.8240000000000001

>  <DSF (pCDK2/CCNE1): dTm D - Batch Mean [Concentration: 100]>  (82) 


>  <DSF (pCDK2/CCNE1): dTm D - Batch Mean [Concentration: 20.0]>  (82) 


>  <RLM: t1/2 - Batch Mean (Min)>  (82) 


>  <RLM: Cl int - Batch Mean (uL/min/mg protein)>  (82) 


>  <RLM: ER (Hepatic extraction ratio) - Batch Mean>  (82) 


>  <HLM: t1/2 - Batch Mean (Min)>  (82) 
10.38

>  <HLM: Cl int - Batch Mean (uL/min/mg protein)>  (82) 
133.74

>  <HLM: ER (Hepatic extraction ratio) - Batch Mean>  (82) 
0.867

>  <MDCK-WT 4% BSA: Papp (A-B) - Batch Mean (10-6, cm/s)>  (82) 


>  <MDCK-WT 4% BSA: Papp (B-A) - Batch Mean (10-6, cm/s)>  (82) 


>  <MDCK-WT 4% BSA: Efflux Ratio - Batch Mean>  (82) 


>  <MDCK-WT 4% BSA: ~Net A_B - Batch Mean (10-6, cm/s)>  (82) 


>  <pIC50>  (82) 
6.057992

>  <Selection_1>  (82) 
Y

>  <Selection_N>  (82) 


>  <Serie>  (82) 
Naphthyridine

>  <Selection_T>  (82) 
N

>  <Train_Vs_Test>  (82) 


$$$$
CTX-1019471
     RDKit          2D

 32 36  0  0  0  0  0  0  0  0999 V2000
    5.1961   -0.7500    0.0000 O   0  0  0  0  0  0  0  0  0  0  0  0
    3.8971    0.0000    0.0000 C   0  0  0  0  0  0  0  0  0  0  0  0
    2.5980   -0.7500    0.0000 N   0  0  0  0  0  0  0  0  0  0  0  0
    3.8971    1.5000    0.0000 C   0  0  0  0  0  0  0  0  0  0  0  0
    1.2990    0.0000    0.0000 C   0  0  0  0  0  0  0  0  0  0  0  0
    5.1961    2.2500    0.0000 N   0  0  0  0  0  0  0  0  0  0  0  0
    2.5980    2.2500    0.0000 C   0  0  0  0  0  0  0  0  0  0  0  0
    0.0000   -0.7500    0.0000 C   0  0  0  0  0  0  0  0  0  0  0  0
    5.1961    3.7500    0.0000 C   0  0  0  0  0  0  0  0  0  0  0  0
    2.5980    3.7500    0.0000 C   0  0  0  0  0  0  0  0  0  0  0  0
   -1.2990    0.0000    0.0000 C   0  0  0  0  0  0  0  0  0  0  0  0
    0.0000   -2.2500    0.0000 C   0  0  0  0  0  0  0  0  0  0  0  0
    3.8971    4.5000    0.0000 C   0  0  0  0  0  0  0  0  0  0  0  0
    6.4951    4.5000    0.0000 C   0  0  0  0  0  0  0  0  0  0  0  0
   -2.5980   -0.7499    0.0000 C   0  0  0  0  0  0  0  0  0  0  0  0
   -1.2990   -2.9999    0.0000 C   0  0  0  0  0  0  0  0  0  0  0  0
    3.8971    6.0000    0.0000 C   0  0  0  0  0  0  0  0  0  0  0  0
    6.4951    6.0000    0.0000 N   0  0  0  0  0  0  0  0  0  0  0  0
   -2.5980   -2.2499    0.0000 N   0  0  0  0  0  0  0  0  0  0  0  0
    5.1961    6.7500    0.0000 C   0  0  0  0  0  0  0  0  0  0  0  0
    7.7942    6.7500    0.0000 C   0  0  0  0  0  0  0  0  0  0  0  0
    9.0932    6.0000    0.0000 O   0  0  0  0  0  0  0  0  0  0  0  0
    7.7942    8.2500    0.0000 C   0  0  0  0  0  0  0  0  0  0  0  0
    9.0077    9.1316    0.0000 O   0  0  0  0  0  0  0  0  0  0  0  0
    6.5807    9.1316    0.0000 C   0  0  0  0  0  0  0  0  0  0  0  0
    8.5442   10.5582    0.0000 C   0  0  0  0  0  0  0  0  0  0  0  0
    7.0442   10.5582    0.0000 C   0  0  0  0  0  0  0  0  0  0  0  0
    5.1541    8.6681    0.0000 C   0  0  0  0  0  0  0  0  0  0  0  0
    9.2942   11.8573    0.0000 C   0  0  0  0  0  0  0  0  0  0  0  0
    6.2942   11.8573    0.0000 C   0  0  0  0  0  0  0  0  0  0  0  0
    8.5442   13.1563    0.0000 C   0  0  0  0  0  0  0  0  0  0  0  0
    7.0442   13.1563    0.0000 C   0  0  0  0  0  0  0  0  0  0  0  0
  1  2  2  0
  2  3  1  0
  2  4  1  0
  3  5  1  0
  4  6  2  0
  4  7  1  0
  5  8  1  0
  6  9  1  0
  7 10  2  0
  8 11  2  0
  8 12  1  0
  9 13  2  0
  9 14  1  0
 11 15  1  0
 12 16  2  0
 13 17  1  0
 14 18  1  0
 15 19  2  0
 17 20  1  0
 18 21  1  0
 21 22  2  0
 21 23  1  0
 23 24  1  0
 23 25  2  0
 24 26  1  0
 25 27  1  0
 25 28  1  0
 26 29  2  0
 27 30  2  0
 29 31  1  0
 30 32  1  0
 10 13  1  0
 16 19  1  0
 18 20  1  0
 26 27  1  0
 31 32  2  0
M  END
>  <Molecule Name>  (83) 
CTX-1019471

>  <SMILES>  (83) 
CC1=C(OC2=C1C=CC=C2)C(=O)N1CCC2=C(C1)N=C(C=C2)C(=O)NCC1=CC=NC=C1

>  <Batch Name>  (83) 
CTX-1019471-1

>  <Batch Created Date>  (83) 
2021-07-30

>  <Batch ID>  (83) 
CTX-1019471-1

>  <External ID>  (83) 
P841-0084

>  <Stereochemistry>  (83) 
Achiral

>  <Amount 1>  (83) 
2.9

>  <Unit 1>  (83) 
mg

>  <CRO 1>  (83) 
Pharmaron

>  <CRO 1 Total Amount>  (83) 
11.9

>  <CRO 1 Unit>  (83) 
mg

>  <Pharmaron Solubility (PBS, pH 7.4): Aqueous Solubility - Batch Mean (uM)>  (83) 
12.55

>  <Pharmaron Solubility (PBS, pH 7.4): Aqueous Solubility - Batch Mean (uM) Standard Deviation (±)>  (83) 


>  <Pharmaron Solubility (PBS, pH 7.4): Aqueous Solubility - Batch Mean (uM) Count>  (83) 
1.0

>  <log P>  (83) 
2.46

>  <log D>  (83) 
2.46

>  <Pharmaron Caliper Assay (CDK2/CCNE1): Minimum measured (%)>  (83) 
60.9

>  <Pharmaron Caliper Assay (CDK2/CCNE1): IC50 - Batch Mean (uM)>  (83) 
3.25

>  <Pharmaron ADPGLO (CDK2/E1-25C): Minimum measured (%)>  (83) 
82.7

>  <Pharmaron ADPGLO (CDK2/E1-25C): IC50 - Batch Mean (uM)>  (83) 
10.0

>  <Pharmaron ADPGLO (CDK2/E1-37C): Minimum measured (%)>  (83) 
105.0

>  <Pharmaron ADPGLO (CDK2/E1-37C): IC50 - Batch Mean (uM)>  (83) 
10.0

>  <IncuCyte Kuramochi RB-WT: IC50 - Batch Mean (uM)>  (83) 
20.0

>  <IncuCyte Kuramochi RB-KO: IC50 - Batch Mean (uM)>  (83) 
12.0

>  <DSF (npCDK2/CCNE1): dTm D - Batch Mean [Concentration: 100]>  (83) 


>  <DSF (npCDK2/CCNE1): dTm D - Batch Mean [Concentration: 20.0]>  (83) 
1.0170000000000001

>  <DSF (pCDK2/CCNE1): dTm D - Batch Mean [Concentration: 100]>  (83) 


>  <DSF (pCDK2/CCNE1): dTm D - Batch Mean [Concentration: 20.0]>  (83) 


>  <RLM: t1/2 - Batch Mean (Min)>  (83) 


>  <RLM: Cl int - Batch Mean (uL/min/mg protein)>  (83) 


>  <RLM: ER (Hepatic extraction ratio) - Batch Mean>  (83) 


>  <HLM: t1/2 - Batch Mean (Min)>  (83) 


>  <HLM: Cl int - Batch Mean (uL/min/mg protein)>  (83) 


>  <HLM: ER (Hepatic extraction ratio) - Batch Mean>  (83) 


>  <MDCK-WT 4% BSA: Papp (A-B) - Batch Mean (10-6, cm/s)>  (83) 


>  <MDCK-WT 4% BSA: Papp (B-A) - Batch Mean (10-6, cm/s)>  (83) 


>  <MDCK-WT 4% BSA: Efflux Ratio - Batch Mean>  (83) 


>  <MDCK-WT 4% BSA: ~Net A_B - Batch Mean (10-6, cm/s)>  (83) 


>  <pIC50>  (83) 
5.488117

>  <Selection_1>  (83) 
Y

>  <Selection_N>  (83) 


>  <Serie>  (83) 
Naphthyridine

>  <Selection_T>  (83) 
N

>  <Train_Vs_Test>  (83) 


$$$$
CTX-1017233
     RDKit          2D

 39 44  0  0  0  0  0  0  0  0999 V2000
    5.1961   -0.7500    0.0000 O   0  0  0  0  0  0  0  0  0  0  0  0
    3.8971    0.0000    0.0000 C   0  0  0  0  0  0  0  0  0  0  0  0
    2.5980   -0.7500    0.0000 N   0  0  0  0  0  0  0  0  0  0  0  0
    3.8971    1.5000    0.0000 C   0  0  0  0  0  0  0  0  0  0  0  0
    1.2990    0.0000    0.0000 C   0  0  0  0  0  0  0  0  0  0  0  0
    5.1961    2.2500    0.0000 N   0  0  0  0  0  0  0  0  0  0  0  0
    2.5980    2.2500    0.0000 C   0  0  0  0  0  0  0  0  0  0  0  0
    0.0000   -0.7500    0.0000 C   0  0  0  0  0  0  0  0  0  0  0  0
    5.1961    3.7500    0.0000 C   0  0  0  0  0  0  0  0  0  0  0  0
    2.5980    3.7500    0.0000 C   0  0  0  0  0  0  0  0  0  0  0  0
   -1.2990    0.0000    0.0000 C   0  0  0  0  0  0  0  0  0  0  0  0
    0.0000   -2.2499    0.0000 C   0  0  0  0  0  0  0  0  0  0  0  0
    3.8971    4.5000    0.0000 C   0  0  0  0  0  0  0  0  0  0  0  0
    6.4951    4.5000    0.0000 C   0  0  0  0  0  0  0  0  0  0  0  0
   -2.5980   -0.7499    0.0000 C   0  0  0  0  0  0  0  0  0  0  0  0
   -1.2990   -2.9999    0.0000 C   0  0  0  0  0  0  0  0  0  0  0  0
    3.8971    6.0000    0.0000 C   0  0  0  0  0  0  0  0  0  0  0  0
    6.4951    6.0000    0.0000 N   0  0  0  0  0  0  0  0  0  0  0  0
   -2.5980   -2.2499    0.0000 C   0  0  0  0  0  0  0  0  0  0  0  0
    5.1961    6.7500    0.0000 C   0  0  0  0  0  0  0  0  0  0  0  0
    7.7942    6.7500    0.0000 C   0  0  0  0  0  0  0  0  0  0  0  0
   -3.8971   -2.9999    0.0000 N   0  0  0  0  0  0  0  0  0  0  0  0
    9.0932    6.0000    0.0000 O   0  0  0  0  0  0  0  0  0  0  0  0
    7.7942    8.2500    0.0000 C   0  0  0  0  0  0  0  0  0  0  0  0
   -5.1961   -2.2499    0.0000 C   0  0  0  0  0  0  0  0  0  0  0  0
   -3.8971   -4.4999    0.0000 C   0  0  0  0  0  0  0  0  0  0  0  0
    9.0077    9.1316    0.0000 O   0  0  0  0  0  0  0  0  0  0  0  0
    6.5807    9.1316    0.0000 C   0  0  0  0  0  0  0  0  0  0  0  0
   -6.4951   -2.9999    0.0000 C   0  0  0  0  0  0  0  0  0  0  0  0
   -5.1961   -5.2499    0.0000 C   0  0  0  0  0  0  0  0  0  0  0  0
    8.5442   10.5582    0.0000 C   0  0  0  0  0  0  0  0  0  0  0  0
    7.0442   10.5582    0.0000 C   0  0  0  0  0  0  0  0  0  0  0  0
    5.1541    8.6681    0.0000 C   0  0  0  0  0  0  0  0  0  0  0  0
   -6.4951   -4.4999    0.0000 N   0  0  0  0  0  0  0  0  0  0  0  0
    9.2942   11.8573    0.0000 C   0  0  0  0  0  0  0  0  0  0  0  0
    6.2942   11.8573    0.0000 C   0  0  0  0  0  0  0  0  0  0  0  0
   -7.7942   -5.2499    0.0000 C   0  0  0  0  0  0  0  0  0  0  0  0
    8.5442   13.1563    0.0000 C   0  0  0  0  0  0  0  0  0  0  0  0
    7.0442   13.1563    0.0000 C   0  0  0  0  0  0  0  0  0  0  0  0
  1  2  2  0
  2  3  1  0
  2  4  1  0
  3  5  1  0
  4  6  2  0
  4  7  1  0
  5  8  1  0
  6  9  1  0
  7 10  2  0
  8 11  2  0
  8 12  1  0
  9 13  2  0
  9 14  1  0
 11 15  1  0
 12 16  2  0
 13 17  1  0
 14 18  1  0
 15 19  2  0
 17 20  1  0
 18 21  1  0
 19 22  1  0
 21 23  2  0
 21 24  1  0
 22 25  1  0
 22 26  1  0
 24 27  1  0
 24 28  2  0
 25 29  1  0
 26 30  1  0
 27 31  1  0
 28 32  1  0
 28 33  1  0
 29 34  1  0
 31 35  2  0
 32 36  2  0
 34 37  1  0
 35 38  1  0
 36 39  1  0
 10 13  1  0
 16 19  1  0
 18 20  1  0
 30 34  1  0
 31 32  1  0
 38 39  2  0
M  END
>  <Molecule Name>  (84) 
CTX-1017233

>  <SMILES>  (84) 
CN1CCN(CC1)C1=CC=C(CNC(=O)C2=NC3=C(CCN(C3)C(=O)C3=C(C)C4=CC=CC=C4O3)C=C2)C=C1

>  <Batch Name>  (84) 
CTX-1017233-3

>  <Batch Created Date>  (84) 
2021-11-18

>  <Batch ID>  (84) 
CTX-1017233-3

>  <External ID>  (84) 
P841-0235

>  <Stereochemistry>  (84) 
Achiral

>  <Amount 1>  (84) 
4.3

>  <Unit 1>  (84) 
mg

>  <CRO 1>  (84) 
Pharmaron

>  <CRO 1 Total Amount>  (84) 
36.5

>  <CRO 1 Unit>  (84) 
mg

>  <Pharmaron Solubility (PBS, pH 7.4): Aqueous Solubility - Batch Mean (uM)>  (84) 


>  <Pharmaron Solubility (PBS, pH 7.4): Aqueous Solubility - Batch Mean (uM) Standard Deviation (±)>  (84) 


>  <Pharmaron Solubility (PBS, pH 7.4): Aqueous Solubility - Batch Mean (uM) Count>  (84) 


>  <log P>  (84) 
3.63

>  <log D>  (84) 
3.0

>  <Pharmaron Caliper Assay (CDK2/CCNE1): Minimum measured (%)>  (84) 
50.0

>  <Pharmaron Caliper Assay (CDK2/CCNE1): IC50 - Batch Mean (uM)>  (84) 
2.55

>  <Pharmaron ADPGLO (CDK2/E1-25C): Minimum measured (%)>  (84) 
49.7

>  <Pharmaron ADPGLO (CDK2/E1-25C): IC50 - Batch Mean (uM)>  (84) 
6.28

>  <Pharmaron ADPGLO (CDK2/E1-37C): Minimum measured (%)>  (84) 
107.0

>  <Pharmaron ADPGLO (CDK2/E1-37C): IC50 - Batch Mean (uM)>  (84) 
100

>  <IncuCyte Kuramochi RB-WT: IC50 - Batch Mean (uM)>  (84) 
7.72

>  <IncuCyte Kuramochi RB-KO: IC50 - Batch Mean (uM)>  (84) 
6.47

>  <DSF (npCDK2/CCNE1): dTm D - Batch Mean [Concentration: 100]>  (84) 


>  <DSF (npCDK2/CCNE1): dTm D - Batch Mean [Concentration: 20.0]>  (84) 
1.7369999999999999

>  <DSF (pCDK2/CCNE1): dTm D - Batch Mean [Concentration: 100]>  (84) 


>  <DSF (pCDK2/CCNE1): dTm D - Batch Mean [Concentration: 20.0]>  (84) 
1.092

>  <RLM: t1/2 - Batch Mean (Min)>  (84) 


>  <RLM: Cl int - Batch Mean (uL/min/mg protein)>  (84) 


>  <RLM: ER (Hepatic extraction ratio) - Batch Mean>  (84) 


>  <HLM: t1/2 - Batch Mean (Min)>  (84) 


>  <HLM: Cl int - Batch Mean (uL/min/mg protein)>  (84) 


>  <HLM: ER (Hepatic extraction ratio) - Batch Mean>  (84) 


>  <MDCK-WT 4% BSA: Papp (A-B) - Batch Mean (10-6, cm/s)>  (84) 


>  <MDCK-WT 4% BSA: Papp (B-A) - Batch Mean (10-6, cm/s)>  (84) 


>  <MDCK-WT 4% BSA: Efflux Ratio - Batch Mean>  (84) 


>  <MDCK-WT 4% BSA: ~Net A_B - Batch Mean (10-6, cm/s)>  (84) 


>  <pIC50>  (84) 
5.59346

>  <Selection_1>  (84) 
Y

>  <Selection_N>  (84) 


>  <Serie>  (84) 
Naphthyridine

>  <Selection_T>  (84) 
N

>  <Train_Vs_Test>  (84) 


$$$$
