CTX-1020769
 OpenBabel08272613283D

 55 59  0  0  0  0  0  0  0  0999 V2000
    1.3181   -0.3882    0.7908 O   0  0  0  0  0  0  0  0  0  0  0  0
    2.3050   -0.0589    0.1311 C   0  0  0  0  0  0  0  0  0  0  0  0
    2.7728   -0.8338   -0.9017 N   0  0  0  0  0  0  0  0  0  0  0  0
    3.0328    1.2136    0.4512 C   0  0  0  0  0  0  0  0  0  0  0  0
    2.0966   -2.0741   -1.2026 C   0  0  0  0  0  0  0  0  0  0  0  0
    4.1075    1.5888   -0.3057 N   0  0  0  0  0  0  0  0  0  0  0  0
    2.5510    1.9546    1.5264 C   0  0  0  0  0  0  0  0  0  0  0  0
    2.7398   -2.8196   -2.3229 C   0  0  0  0  0  0  0  0  0  0  0  0
    4.7215    2.7683    0.0252 C   0  0  0  0  0  0  0  0  0  0  0  0
    3.1925    3.1354    1.8590 C   0  0  0  0  0  0  0  0  0  0  0  0
    3.8716   -2.3667   -2.9660 N   0  0  0  0  0  0  0  0  0  0  0  0
    2.3277   -4.0224   -2.8696 C   0  0  0  0  0  0  0  0  0  0  0  0
    4.2996    3.5511    1.1151 C   0  0  0  0  0  0  0  0  0  0  0  0
    5.9247    3.2192   -0.8168 C   0  0  0  0  0  0  0  0  0  0  0  0
    4.1236   -3.2746   -3.8957 C   0  0  0  0  0  0  0  0  0  0  0  0
    3.2186   -4.2881   -3.8688 N   0  0  0  0  0  0  0  0  0  0  0  0
    4.9530    4.8631    1.4633 C   0  0  0  0  0  0  0  0  0  0  0  0
    6.3140    4.6144   -0.5707 N   0  0  0  0  0  0  0  0  0  0  0  0
    3.2000   -5.4203   -4.7603 C   0  0  0  0  0  0  0  0  0  0  0  0
    6.3248    5.0317    0.8223 C   0  0  0  0  0  0  0  0  0  0  0  0
    6.8239    5.4159   -1.6012 C   0  0  0  0  0  0  0  0  0  0  0  0
    7.3725    4.9175   -2.5833 O   0  0  0  0  0  0  0  0  0  0  0  0
    6.4305    6.8359   -1.5513 C   0  0  0  0  0  0  0  0  0  0  0  0
    5.2521    7.0676   -0.8689 O   0  0  0  0  0  0  0  0  0  0  0  0
    6.5339    7.8596   -2.5010 C   0  0  0  0  0  0  0  0  0  0  0  0
    4.4282    7.6249   -1.7923 C   0  0  0  0  0  0  0  0  0  0  0  0
    5.1706    8.0425   -2.8860 C   0  0  0  0  0  0  0  0  0  0  0  0
    7.7072    8.5503   -3.0777 C   0  0  0  0  0  0  0  0  0  0  0  0
    3.0520    7.6905   -1.6753 C   0  0  0  0  0  0  0  0  0  0  0  0
    4.4792    8.5228   -4.0085 C   0  0  0  0  0  0  0  0  0  0  0  0
    2.3819    8.1168   -2.8211 C   0  0  0  0  0  0  0  0  0  0  0  0
    3.0759    8.5047   -3.9722 C   0  0  0  0  0  0  0  0  0  0  0  0
    3.5550   -0.5490   -1.4275 H   0  0  0  0  0  0  0  0  0  0  0  0
    1.0843   -1.8560   -1.4724 H   0  0  0  0  0  0  0  0  0  0  0  0
    2.1476   -2.6915   -0.3303 H   0  0  0  0  0  0  0  0  0  0  0  0
    1.7324    1.6303    2.0647 H   0  0  0  0  0  0  0  0  0  0  0  0
    2.8552    3.7047    2.6510 H   0  0  0  0  0  0  0  0  0  0  0  0
    1.5192   -4.5961   -2.5829 H   0  0  0  0  0  0  0  0  0  0  0  0
    5.6741    3.1137   -1.8517 H   0  0  0  0  0  0  0  0  0  0  0  0
    6.7551    2.6041   -0.5392 H   0  0  0  0  0  0  0  0  0  0  0  0
    4.9113   -3.2195   -4.5601 H   0  0  0  0  0  0  0  0  0  0  0  0
    5.0640    4.9177    2.5261 H   0  0  0  0  0  0  0  0  0  0  0  0
    4.3253    5.6438    1.0873 H   0  0  0  0  0  0  0  0  0  0  0  0
    2.3785   -6.0583   -4.5095 H   0  0  0  0  0  0  0  0  0  0  0  0
    4.1163   -5.9645   -4.6648 H   0  0  0  0  0  0  0  0  0  0  0  0
    3.0915   -5.0787   -5.7685 H   0  0  0  0  0  0  0  0  0  0  0  0
    7.0350    4.4374    1.3583 H   0  0  0  0  0  0  0  0  0  0  0  0
    6.5901    6.0675    0.8617 H   0  0  0  0  0  0  0  0  0  0  0  0
    8.5967    8.2101   -2.5899 H   0  0  0  0  0  0  0  0  0  0  0  0
    7.6046    9.6060   -2.9366 H   0  0  0  0  0  0  0  0  0  0  0  0
    7.7694    8.3347   -4.1239 H   0  0  0  0  0  0  0  0  0  0  0  0
    2.5574    7.4421   -0.8042 H   0  0  0  0  0  0  0  0  0  0  0  0
    4.9860    8.8779   -4.8344 H   0  0  0  0  0  0  0  0  0  0  0  0
    1.3503    8.1469   -2.8201 H   0  0  0  0  0  0  0  0  0  0  0  0
    2.5452    8.7834   -4.8123 H   0  0  0  0  0  0  0  0  0  0  0  0
  1  2  2  0  0  0  0
  2  3  1  0  0  0  0
  2  4  1  0  0  0  0
  3  5  1  0  0  0  0
  3 33  1  0  0  0  0
  4  6  2  0  0  0  0
  4  7  1  0  0  0  0
  5  8  1  0  0  0  0
  5 34  1  0  0  0  0
  5 35  1  0  0  0  0
  6  9  1  0  0  0  0
  7 10  2  0  0  0  0
  7 36  1  0  0  0  0
  8 11  1  0  0  0  0
  8 12  2  0  0  0  0
  9 13  2  0  0  0  0
  9 14  1  0  0  0  0
 10 13  1  0  0  0  0
 10 37  1  0  0  0  0
 11 15  2  0  0  0  0
 12 16  1  0  0  0  0
 12 38  1  0  0  0  0
 13 17  1  0  0  0  0
 14 18  1  0  0  0  0
 14 39  1  0  0  0  0
 14 40  1  0  0  0  0
 15 16  1  0  0  0  0
 15 41  1  0  0  0  0
 16 19  1  0  0  0  0
 17 20  1  0  0  0  0
 17 42  1  0  0  0  0
 17 43  1  0  0  0  0
 18 21  1  0  0  0  0
 18 20  1  0  0  0  0
 19 44  1  0  0  0  0
 19 45  1  0  0  0  0
 19 46  1  0  0  0  0
 20 47  1  0  0  0  0
 20 48  1  0  0  0  0
 21 22  2  0  0  0  0
 21 23  1  0  0  0  0
 23 24  1  0  0  0  0
 23 25  2  0  0  0  0
 24 26  1  0  0  0  0
 25 27  1  0  0  0  0
 25 28  1  0  0  0  0
 26 29  2  0  0  0  0
 26 27  1  0  0  0  0
 27 30  2  0  0  0  0
 28 49  1  0  0  0  0
 28 50  1  0  0  0  0
 28 51  1  0  0  0  0
 29 31  1  0  0  0  0
 29 52  1  0  0  0  0
 30 32  1  0  0  0  0
 30 53  1  0  0  0  0
 31 32  2  0  0  0  0
 31 54  1  0  0  0  0
 32 55  1  0  0  0  0
M  END
>  <Molecule Name>
CTX-1020769

>  <SMILES>
CN1C=NC(CNC(=O)C2=NC3=C(CCN(C3)C(=O)C3=C(C)C4=C(O3)C=CC=C4)C=C2)=C1

>  <Batch Name>
CTX-1020769-1

>  <Batch Created Date>
2021-12-16

>  <Batch ID>
CTX-1020769-1

>  <External ID>
P841-0364

>  <Stereochemistry>
Achiral

>  <Amount 1>
5.95

>  <Unit 1>
mg

>  <CRO 1>
Pharmaron

>  <CRO 1 Total Amount>
29.85

>  <CRO 1 Unit>
mg

>  <Pharmaron Solubility (PBS, pH 7.4): Aqueous Solubility - Batch Mean (uM)>
303.4483

>  <Pharmaron Solubility (PBS, pH 7.4): Aqueous Solubility - Batch Mean (uM) Standard Deviation (±)>


>  <Pharmaron Solubility (PBS, pH 7.4): Aqueous Solubility - Batch Mean (uM) Count>
1.0

>  <log P>
1.86

>  <log D>
1.85

>  <Pharmaron Caliper Assay (CDK2/CCNE1): Minimum measured (%)>
83.9

>  <Pharmaron Caliper Assay (CDK2/CCNE1): IC50 - Batch Mean (uM)>
45.1

>  <Pharmaron ADPGLO (CDK2/E1-25C): Minimum measured (%)>


>  <Pharmaron ADPGLO (CDK2/E1-25C): IC50 - Batch Mean (uM)>


>  <Pharmaron ADPGLO (CDK2/E1-37C): Minimum measured (%)>


>  <Pharmaron ADPGLO (CDK2/E1-37C): IC50 - Batch Mean (uM)>


>  <IncuCyte Kuramochi RB-WT: IC50 - Batch Mean (uM)>
20.0

>  <IncuCyte Kuramochi RB-KO: IC50 - Batch Mean (uM)>
20.0

>  <DSF (npCDK2/CCNE1): dTm D - Batch Mean [Concentration: 100]>


>  <DSF (npCDK2/CCNE1): dTm D - Batch Mean [Concentration: 20.0]>
-0.046

>  <DSF (pCDK2/CCNE1): dTm D - Batch Mean [Concentration: 100]>


>  <DSF (pCDK2/CCNE1): dTm D - Batch Mean [Concentration: 20.0]>


>  <RLM: t1/2 - Batch Mean (Min)>


>  <RLM: Cl int - Batch Mean (uL/min/mg protein)>


>  <RLM: ER (Hepatic extraction ratio) - Batch Mean>


>  <HLM: t1/2 - Batch Mean (Min)>


>  <HLM: Cl int - Batch Mean (uL/min/mg protein)>


>  <HLM: ER (Hepatic extraction ratio) - Batch Mean>


>  <MDCK-WT 4% BSA: Papp (A-B) - Batch Mean (10-6, cm/s)>


>  <MDCK-WT 4% BSA: Papp (B-A) - Batch Mean (10-6, cm/s)>


>  <MDCK-WT 4% BSA: Efflux Ratio - Batch Mean>


>  <MDCK-WT 4% BSA: ~Net A_B - Batch Mean (10-6, cm/s)>


>  <pIC50>
4.345823

>  <Selection_1>
Y

>  <Selection_N>


>  <Serie>
Naphthyridine

>  <Selection_T>
N

>  <Train_Vs_Test>


$$$$
