CTX-1020772
 OpenBabel08272613283D

 49 53  0  0  0  0  0  0  0  0999 V2000
    1.8596   -0.7494   -0.0049 S   0  0  0  0  0  0  0  0  0  0  0  0
    2.1920    0.9279    0.0442 C   0  0  0  0  0  0  0  0  0  0  0  0
    0.1832   -0.4776   -0.0370 C   0  0  0  0  0  0  0  0  0  0  0  0
    3.5363    1.4754    0.1088 C   0  0  0  0  0  0  0  0  0  0  0  0
    1.0167    1.6697    0.0218 C   0  0  0  0  0  0  0  0  0  0  0  0
   -0.1575    0.8620   -0.0365 C   0  0  0  0  0  0  0  0  0  0  0  0
   -0.8177   -1.5828   -0.0791 C   0  0  0  0  0  0  0  0  0  0  0  0
    3.7422    2.6887    0.1566 O   0  0  0  0  0  0  0  0  0  0  0  0
    4.5996    0.5940    0.1212 N   0  0  0  0  0  0  0  0  0  0  0  0
   -1.5864    1.3511   -0.0558 C   0  0  0  0  0  0  0  0  0  0  0  0
   -2.1814   -1.0279    0.3586 C   0  0  0  0  0  0  0  0  0  0  0  0
    5.9382    1.1251    0.1856 C   0  0  0  0  0  0  0  0  0  0  0  0
   -2.4910    0.2301   -0.3489 N   0  0  0  0  0  0  0  0  0  0  0  0
    6.9872    0.0858    0.2031 C   0  0  0  0  0  0  0  0  0  0  0  0
   -3.4503    0.3904   -1.3607 C   0  0  0  0  0  0  0  0  0  0  0  0
    6.6447   -1.2399    0.1524 O   0  0  0  0  0  0  0  0  0  0  0  0
    8.3619    0.1580    0.2660 C   0  0  0  0  0  0  0  0  0  0  0  0
   -3.4897    1.4293   -2.0221 O   0  0  0  0  0  0  0  0  0  0  0  0
   -4.3868   -0.6965   -1.6223 C   0  0  0  0  0  0  0  0  0  0  0  0
    7.8486   -1.8833    0.1887 C   0  0  0  0  0  0  0  0  0  0  0  0
    8.9030   -1.0990    0.2564 N   0  0  0  0  0  0  0  0  0  0  0  0
   -4.8460   -1.4438   -0.5722 O   0  0  0  0  0  0  0  0  0  0  0  0
   -5.0061   -1.1209   -2.7950 C   0  0  0  0  0  0  0  0  0  0  0  0
   -5.6769   -2.3923   -1.0628 C   0  0  0  0  0  0  0  0  0  0  0  0
   -5.8510   -2.2165   -2.4257 C   0  0  0  0  0  0  0  0  0  0  0  0
   -4.8245   -0.5858   -4.1687 C   0  0  0  0  0  0  0  0  0  0  0  0
   -6.2752   -3.3987   -0.3098 C   0  0  0  0  0  0  0  0  0  0  0  0
   -6.7366   -3.0807   -3.0959 C   0  0  0  0  0  0  0  0  0  0  0  0
   -7.1429   -4.2521   -0.9952 C   0  0  0  0  0  0  0  0  0  0  0  0
   -7.3821   -4.0883   -2.3621 C   0  0  0  0  0  0  0  0  0  0  0  0
    0.9958    2.7012    0.0450 H   0  0  0  0  0  0  0  0  0  0  0  0
   -0.5175   -2.3661    0.5851 H   0  0  0  0  0  0  0  0  0  0  0  0
   -0.8854   -1.9762   -1.0719 H   0  0  0  0  0  0  0  0  0  0  0  0
    4.4464   -0.3779    0.0868 H   0  0  0  0  0  0  0  0  0  0  0  0
   -1.6949    2.1021   -0.8102 H   0  0  0  0  0  0  0  0  0  0  0  0
   -1.8322    1.7634    0.9005 H   0  0  0  0  0  0  0  0  0  0  0  0
   -2.1617   -0.8414    1.4120 H   0  0  0  0  0  0  0  0  0  0  0  0
   -2.9357   -1.7483    0.1200 H   0  0  0  0  0  0  0  0  0  0  0  0
    6.0272    1.7104    1.0769 H   0  0  0  0  0  0  0  0  0  0  0  0
    6.0877    1.7064   -0.7001 H   0  0  0  0  0  0  0  0  0  0  0  0
    8.9053    1.0341    0.3134 H   0  0  0  0  0  0  0  0  0  0  0  0
    7.9260   -2.9121    0.1646 H   0  0  0  0  0  0  0  0  0  0  0  0
   -4.1354    0.2324   -4.1445 H   0  0  0  0  0  0  0  0  0  0  0  0
   -5.7665   -0.2478   -4.5472 H   0  0  0  0  0  0  0  0  0  0  0  0
   -4.4407   -1.3566   -4.8038 H   0  0  0  0  0  0  0  0  0  0  0  0
   -6.0879   -3.5082    0.6991 H   0  0  0  0  0  0  0  0  0  0  0  0
   -6.9082   -2.9756   -4.1080 H   0  0  0  0  0  0  0  0  0  0  0  0
   -7.6144   -5.0149   -0.4844 H   0  0  0  0  0  0  0  0  0  0  0  0
   -8.0445   -4.7188   -2.8403 H   0  0  0  0  0  0  0  0  0  0  0  0
  1  2  1  0  0  0  0
  1  3  1  0  0  0  0
  2  4  1  0  0  0  0
  2  5  2  0  0  0  0
  3  6  2  0  0  0  0
  3  7  1  0  0  0  0
  4  8  2  0  0  0  0
  4  9  1  0  0  0  0
  5  6  1  0  0  0  0
  5 31  1  0  0  0  0
  6 10  1  0  0  0  0
  7 11  1  0  0  0  0
  7 32  1  0  0  0  0
  7 33  1  0  0  0  0
  9 12  1  0  0  0  0
  9 34  1  0  0  0  0
 10 13  1  0  0  0  0
 10 35  1  0  0  0  0
 10 36  1  0  0  0  0
 11 13  1  0  0  0  0
 11 37  1  0  0  0  0
 11 38  1  0  0  0  0
 12 14  1  0  0  0  0
 12 39  1  0  0  0  0
 12 40  1  0  0  0  0
 13 15  1  0  0  0  0
 14 16  1  0  0  0  0
 14 17  2  0  0  0  0
 15 18  2  0  0  0  0
 15 19  1  0  0  0  0
 16 20  1  0  0  0  0
 17 21  1  0  0  0  0
 17 41  1  0  0  0  0
 19 22  1  0  0  0  0
 19 23  2  0  0  0  0
 20 21  2  0  0  0  0
 20 42  1  0  0  0  0
 22 24  1  0  0  0  0
 23 25  1  0  0  0  0
 23 26  1  0  0  0  0
 24 27  2  0  0  0  0
 24 25  1  0  0  0  0
 25 28  2  0  0  0  0
 26 43  1  0  0  0  0
 26 44  1  0  0  0  0
 26 45  1  0  0  0  0
 27 29  1  0  0  0  0
 27 46  1  0  0  0  0
 28 30  1  0  0  0  0
 28 47  1  0  0  0  0
 29 30  2  0  0  0  0
 29 48  1  0  0  0  0
 30 49  1  0  0  0  0
M  END
>  <Molecule Name>
CTX-1020772

>  <SMILES>
CC1=C(OC2=C1C=CC=C2)C(=O)N1CCC2=C(C1)C=C(S2)C(=O)NCC1=CN=CO1

>  <Batch Name>
CTX-1020772-1

>  <Batch Created Date>
2021-12-16

>  <Batch ID>
CTX-1020772-1

>  <External ID>
P841-0353

>  <Stereochemistry>
Achiral

>  <Amount 1>
4.0

>  <Unit 1>
mg

>  <CRO 1>
Pharmaron

>  <CRO 1 Total Amount>
14.8

>  <CRO 1 Unit>
mg

>  <Pharmaron Solubility (PBS, pH 7.4): Aqueous Solubility - Batch Mean (uM)>
7.5673

>  <Pharmaron Solubility (PBS, pH 7.4): Aqueous Solubility - Batch Mean (uM) Standard Deviation (±)>


>  <Pharmaron Solubility (PBS, pH 7.4): Aqueous Solubility - Batch Mean (uM) Count>
1.0

>  <log P>
2.33

>  <log D>
2.33

>  <Pharmaron Caliper Assay (CDK2/CCNE1): Minimum measured (%)>
56.6

>  <Pharmaron Caliper Assay (CDK2/CCNE1): IC50 - Batch Mean (uM)>
11.0

>  <Pharmaron ADPGLO (CDK2/E1-25C): Minimum measured (%)>


>  <Pharmaron ADPGLO (CDK2/E1-25C): IC50 - Batch Mean (uM)>


>  <Pharmaron ADPGLO (CDK2/E1-37C): Minimum measured (%)>


>  <Pharmaron ADPGLO (CDK2/E1-37C): IC50 - Batch Mean (uM)>


>  <IncuCyte Kuramochi RB-WT: IC50 - Batch Mean (uM)>
20.0

>  <IncuCyte Kuramochi RB-KO: IC50 - Batch Mean (uM)>
20.0

>  <DSF (npCDK2/CCNE1): dTm D - Batch Mean [Concentration: 100]>


>  <DSF (npCDK2/CCNE1): dTm D - Batch Mean [Concentration: 20.0]>
0.7879999999999999

>  <DSF (pCDK2/CCNE1): dTm D - Batch Mean [Concentration: 100]>


>  <DSF (pCDK2/CCNE1): dTm D - Batch Mean [Concentration: 20.0]>


>  <RLM: t1/2 - Batch Mean (Min)>


>  <RLM: Cl int - Batch Mean (uL/min/mg protein)>


>  <RLM: ER (Hepatic extraction ratio) - Batch Mean>


>  <HLM: t1/2 - Batch Mean (Min)>


>  <HLM: Cl int - Batch Mean (uL/min/mg protein)>


>  <HLM: ER (Hepatic extraction ratio) - Batch Mean>


>  <MDCK-WT 4% BSA: Papp (A-B) - Batch Mean (10-6, cm/s)>


>  <MDCK-WT 4% BSA: Papp (B-A) - Batch Mean (10-6, cm/s)>


>  <MDCK-WT 4% BSA: Efflux Ratio - Batch Mean>


>  <MDCK-WT 4% BSA: ~Net A_B - Batch Mean (10-6, cm/s)>


>  <pIC50>
4.958607

>  <Selection_1>
Y

>  <Selection_N>
N

>  <Serie>
Tetrahydrothienopyridine

>  <Selection_T>


>  <Train_Vs_Test>


$$$$
