CTX-1020799
 OpenBabel08272613283D

 69 75  0  0  0  0  0  0  0  0999 V2000
   10.8199  -13.3377    0.2483 Cl  0  0  0  0  0  0  0  0  0  0  0  0
   11.1977  -11.7672    0.8544 C   0  0  0  0  0  0  0  0  0  0  0  0
   10.3532  -10.6392    0.7267 C   0  0  0  0  0  0  0  0  0  0  0  0
   12.5098  -11.5317    1.5495 C   0  0  0  0  0  0  0  0  0  0  0  0
   11.0199   -9.3763    1.6794 S   0  0  0  0  0  0  0  0  0  0  0  0
    9.1212  -10.3507   -0.1421 C   0  0  0  0  0  0  0  0  0  0  0  0
   12.4959  -10.2209    2.0132 C   0  0  0  0  0  0  0  0  0  0  0  0
   13.7579  -12.3406    1.8081 C   0  0  0  0  0  0  0  0  0  0  0  0
    9.0154  -10.8323   -1.2728 O   0  0  0  0  0  0  0  0  0  0  0  0
    7.9410   -9.6724    0.4276 N   0  0  0  0  0  0  0  0  0  0  0  0
   13.6186   -9.7150    2.6732 C   0  0  0  0  0  0  0  0  0  0  0  0
   14.9231  -11.8439    2.4370 C   0  0  0  0  0  0  0  0  0  0  0  0
    6.9586   -8.7205   -0.4024 C   0  0  0  0  0  0  0  0  0  0  0  0
    7.2975  -10.7070    1.1903 C   0  0  0  0  0  0  0  0  0  0  0  0
   14.7609  -10.5138    2.8373 C   0  0  0  0  0  0  0  0  0  0  0  0
    5.4296   -8.8025    0.0020 C   0  0  0  0  0  0  0  0  0  0  0  0
    5.9718  -10.4192    1.7686 C   0  0  0  0  0  0  0  0  0  0  0  0
    5.1104   -9.4462    1.1575 C   0  0  0  0  0  0  0  0  0  0  0  0
    4.1028   -8.4999   -0.6240 C   0  0  0  0  0  0  0  0  0  0  0  0
    3.5327   -9.2543    1.7150 S   0  0  0  0  0  0  0  0  0  0  0  0
    3.0578   -9.1608    0.0622 C   0  0  0  0  0  0  0  0  0  0  0  0
    1.7402   -9.7463   -0.2334 C   0  0  0  0  0  0  0  0  0  0  0  0
    0.7541   -9.1003   -0.5664 O   0  0  0  0  0  0  0  0  0  0  0  0
    1.7203  -11.1032    0.0209 N   0  0  0  0  0  0  0  0  0  0  0  0
    0.5741  -12.0065    0.1307 C   0  0  0  0  0  0  0  0  0  0  0  0
    0.1317  -12.4866   -1.2177 C   0  0  0  0  0  0  0  0  0  0  0  0
    0.5714  -13.6940   -1.7768 C   0  0  0  0  0  0  0  0  0  0  0  0
   -0.7114  -11.6670   -1.9732 C   0  0  0  0  0  0  0  0  0  0  0  0
    0.2444  -14.0190   -3.0962 C   0  0  0  0  0  0  0  0  0  0  0  0
   -1.0576  -12.0161   -3.2782 C   0  0  0  0  0  0  0  0  0  0  0  0
   -0.5409  -13.1672   -3.8792 C   0  0  0  0  0  0  0  0  0  0  0  0
   -0.8330  -13.4767   -5.2208 N   0  0  0  0  0  0  0  0  0  0  0  0
   -0.1197  -14.3712   -6.0925 C   0  0  0  0  0  0  0  0  0  0  0  0
   -1.2592  -12.6040   -6.2942 C   0  0  0  0  0  0  0  0  0  0  0  0
   -0.3224  -13.3592   -7.1763 C   0  0  0  0  0  0  0  0  0  0  0  0
    0.8841  -12.6648   -7.7509 C   0  0  0  0  0  0  0  0  0  0  0  0
   -0.6761  -13.8181   -8.5576 C   0  0  0  0  0  0  0  0  0  0  0  0
    0.7206  -13.4949   -8.9829 N   0  3  0  0  0  0  0  0  0  0  0  0
    1.5789  -14.6825   -8.9129 C   0  0  0  0  0  0  0  0  0  0  0  0
   13.7610  -13.3269    1.5042 H   0  0  0  0  0  0  0  0  0  0  0  0
   13.6079   -8.7509    3.0412 H   0  0  0  0  0  0  0  0  0  0  0  0
   15.7843  -12.3935    2.5822 H   0  0  0  0  0  0  0  0  0  0  0  0
    7.0409   -8.9827   -1.4365 H   0  0  0  0  0  0  0  0  0  0  0  0
    7.2670   -7.7190   -0.1864 H   0  0  0  0  0  0  0  0  0  0  0  0
    7.9502  -10.9577    2.0003 H   0  0  0  0  0  0  0  0  0  0  0  0
    7.1156  -11.4874    0.4812 H   0  0  0  0  0  0  0  0  0  0  0  0
   15.5685  -10.0719    3.3037 H   0  0  0  0  0  0  0  0  0  0  0  0
    6.1392  -10.0933    2.7740 H   0  0  0  0  0  0  0  0  0  0  0  0
    5.4406  -11.3370    1.6265 H   0  0  0  0  0  0  0  0  0  0  0  0
    3.9692   -7.8905   -1.4461 H   0  0  0  0  0  0  0  0  0  0  0  0
    2.6022  -11.5225    0.1460 H   0  0  0  0  0  0  0  0  0  0  0  0
   -0.2357  -11.4875    0.5994 H   0  0  0  0  0  0  0  0  0  0  0  0
    0.8660  -12.8551    0.7135 H   0  0  0  0  0  0  0  0  0  0  0  0
    1.1387  -14.3456   -1.2123 H   0  0  0  0  0  0  0  0  0  0  0  0
   -1.0810  -10.7957   -1.5617 H   0  0  0  0  0  0  0  0  0  0  0  0
    0.5890  -14.9040   -3.5000 H   0  0  0  0  0  0  0  0  0  0  0  0
   -1.7064  -11.4143   -3.8091 H   0  0  0  0  0  0  0  0  0  0  0  0
   -0.6028  -15.3108   -6.2618 H   0  0  0  0  0  0  0  0  0  0  0  0
    0.8508  -14.7476   -5.8449 H   0  0  0  0  0  0  0  0  0  0  0  0
   -1.0120  -11.5720   -6.1575 H   0  0  0  0  0  0  0  0  0  0  0  0
   -2.2918  -12.4747   -6.5432 H   0  0  0  0  0  0  0  0  0  0  0  0
    1.7936  -12.8408   -7.2154 H   0  0  0  0  0  0  0  0  0  0  0  0
    0.9389  -11.5975   -7.8030 H   0  0  0  0  0  0  0  0  0  0  0  0
   -1.4315  -13.2323   -9.0383 H   0  0  0  0  0  0  0  0  0  0  0  0
   -1.0965  -14.7872   -8.7283 H   0  0  0  0  0  0  0  0  0  0  0  0
    0.9128  -13.1175   -9.9109 H   0  0  0  0  0  0  0  0  0  0  0  0
    1.4509  -15.1596   -7.9637 H   0  0  0  0  0  0  0  0  0  0  0  0
    2.6017  -14.3908   -9.0305 H   0  0  0  0  0  0  0  0  0  0  0  0
    1.3102  -15.3633   -9.6934 H   0  0  0  0  0  0  0  0  0  0  0  0
  1  2  1  0  0  0  0
  2  3  2  0  0  0  0
  2  4  1  0  0  0  0
  3  5  1  0  0  0  0
  3  6  1  0  0  0  0
  4  7  2  0  0  0  0
  4  8  1  0  0  0  0
  5  7  1  0  0  0  0
  6  9  2  0  0  0  0
  6 10  1  0  0  0  0
  7 11  1  0  0  0  0
  8 12  2  0  0  0  0
  8 40  1  0  0  0  0
 10 13  1  0  0  0  0
 10 14  1  0  0  0  0
 11 15  2  0  0  0  0
 11 41  1  0  0  0  0
 12 15  1  0  0  0  0
 12 42  1  0  0  0  0
 13 16  1  0  0  0  0
 13 43  1  0  0  0  0
 13 44  1  0  0  0  0
 14 17  1  0  0  0  0
 14 45  1  0  0  0  0
 14 46  1  0  0  0  0
 15 47  1  0  0  0  0
 16 18  2  0  0  0  0
 16 19  1  0  0  0  0
 17 18  1  0  0  0  0
 17 48  1  0  0  0  0
 17 49  1  0  0  0  0
 18 20  1  0  0  0  0
 19 21  2  0  0  0  0
 19 50  1  0  0  0  0
 20 21  1  0  0  0  0
 21 22  1  0  0  0  0
 22 23  2  0  0  0  0
 22 24  1  0  0  0  0
 24 25  1  0  0  0  0
 24 51  1  0  0  0  0
 25 26  1  0  0  0  0
 25 52  1  0  0  0  0
 25 53  1  0  0  0  0
 26 27  2  0  0  0  0
 26 28  1  0  0  0  0
 27 29  1  0  0  0  0
 27 54  1  0  0  0  0
 28 30  2  0  0  0  0
 28 55  1  0  0  0  0
 29 31  2  0  0  0  0
 29 56  1  0  0  0  0
 30 31  1  0  0  0  0
 30 57  1  0  0  0  0
 31 32  1  0  0  0  0
 32 33  1  0  0  0  0
 32 34  1  0  0  0  0
 33 35  1  0  0  0  0
 33 58  1  0  0  0  0
 33 59  1  0  0  0  0
 34 35  1  0  0  0  0
 34 60  1  0  0  0  0
 34 61  1  0  0  0  0
 35 36  1  0  0  0  0
 35 37  1  0  0  0  0
 36 38  1  0  0  0  0
 36 62  1  0  0  0  0
 36 63  1  0  0  0  0
 37 38  1  0  0  0  0
 37 64  1  0  0  0  0
 37 65  1  0  0  0  0
 38 39  1  0  0  0  0
 38 66  1  0  0  0  0
 39 67  1  0  0  0  0
 39 68  1  0  0  0  0
 39 69  1  0  0  0  0
M  CHG  1  38   1
M  END
>  <Molecule Name>
CTX-1020799

>  <SMILES>
CN1CC2(C1)CN(C2)C1=CC=C(CNC(=O)C2=CC3=C(CCN(C3)C(=O)C3=C(Cl)C4=CC=CC=C4S3)S2)C=C1

>  <Batch Name>
CTX-1020799-1

>  <Batch Created Date>
2021-12-24

>  <Batch ID>
CTX-1020799-1

>  <External ID>
CD-44-2-N

>  <Stereochemistry>
Achiral

>  <Amount 1>
20.6

>  <Unit 1>
mg

>  <CRO 1>
Pharmaron

>  <CRO 1 Total Amount>
29.2

>  <CRO 1 Unit>
mg

>  <Pharmaron Solubility (PBS, pH 7.4): Aqueous Solubility - Batch Mean (uM)>


>  <Pharmaron Solubility (PBS, pH 7.4): Aqueous Solubility - Batch Mean (uM) Standard Deviation (±)>


>  <Pharmaron Solubility (PBS, pH 7.4): Aqueous Solubility - Batch Mean (uM) Count>


>  <log P>
5.13

>  <log D>
4.59

>  <Pharmaron Caliper Assay (CDK2/CCNE1): Minimum measured (%)>
47.7

>  <Pharmaron Caliper Assay (CDK2/CCNE1): IC50 - Batch Mean (uM)>
7.88

>  <Pharmaron ADPGLO (CDK2/E1-25C): Minimum measured (%)>
84.9

>  <Pharmaron ADPGLO (CDK2/E1-25C): IC50 - Batch Mean (uM)>
9.52

>  <Pharmaron ADPGLO (CDK2/E1-37C): Minimum measured (%)>
112.0

>  <Pharmaron ADPGLO (CDK2/E1-37C): IC50 - Batch Mean (uM)>
10.0

>  <IncuCyte Kuramochi RB-WT: IC50 - Batch Mean (uM)>
2.51

>  <IncuCyte Kuramochi RB-KO: IC50 - Batch Mean (uM)>
2.45

>  <DSF (npCDK2/CCNE1): dTm D - Batch Mean [Concentration: 100]>


>  <DSF (npCDK2/CCNE1): dTm D - Batch Mean [Concentration: 20.0]>
1.429

>  <DSF (pCDK2/CCNE1): dTm D - Batch Mean [Concentration: 100]>


>  <DSF (pCDK2/CCNE1): dTm D - Batch Mean [Concentration: 20.0]>
0.5

>  <RLM: t1/2 - Batch Mean (Min)>


>  <RLM: Cl int - Batch Mean (uL/min/mg protein)>


>  <RLM: ER (Hepatic extraction ratio) - Batch Mean>


>  <HLM: t1/2 - Batch Mean (Min)>


>  <HLM: Cl int - Batch Mean (uL/min/mg protein)>


>  <HLM: ER (Hepatic extraction ratio) - Batch Mean>


>  <MDCK-WT 4% BSA: Papp (A-B) - Batch Mean (10-6, cm/s)>


>  <MDCK-WT 4% BSA: Papp (B-A) - Batch Mean (10-6, cm/s)>


>  <MDCK-WT 4% BSA: Efflux Ratio - Batch Mean>


>  <MDCK-WT 4% BSA: ~Net A_B - Batch Mean (10-6, cm/s)>


>  <pIC50>
5.103474

>  <Selection_1>
Y

>  <Selection_N>
N

>  <Serie>
Tetrahydrothienopyridine

>  <Selection_T>


>  <Train_Vs_Test>


$$$$
