CTX-1020810
 OpenBabel08272613283D

 73 78  0  0  0  0  0  0  0  0999 V2000
    6.4387   -2.5483    1.1754 S   0  0  0  0  0  0  0  0  0  0  0  0
    6.0463   -4.1980    1.0027 C   0  0  0  0  0  0  0  0  0  0  0  0
    5.1593   -1.9942    0.1938 C   0  0  0  0  0  0  0  0  0  0  0  0
    6.7416   -5.2936    1.5379 C   0  0  0  0  0  0  0  0  0  0  0  0
    4.8848   -4.3694    0.2569 C   0  0  0  0  0  0  0  0  0  0  0  0
    4.3428   -3.0860   -0.1862 C   0  0  0  0  0  0  0  0  0  0  0  0
    4.9387   -0.5421   -0.0298 C   0  0  0  0  0  0  0  0  0  0  0  0
    7.8559   -5.1125    2.2578 F   0  0  0  0  0  0  0  0  0  0  0  0
    6.2831   -6.5928    1.3200 C   0  0  0  0  0  0  0  0  0  0  0  0
    4.4175   -5.7080    0.0689 C   0  0  0  0  0  0  0  0  0  0  0  0
    3.0472   -3.0610   -0.9609 C   0  0  0  0  0  0  0  0  0  0  0  0
    3.8019   -0.1706   -0.3420 O   0  0  0  0  0  0  0  0  0  0  0  0
    5.9533    0.4904    0.1012 N   0  0  0  0  0  0  0  0  0  0  0  0
    5.1232   -6.8004    0.5925 C   0  0  0  0  0  0  0  0  0  0  0  0
    7.4433    0.3138    0.1950 C   0  0  0  0  0  0  0  0  0  0  0  0
    5.4228    1.8172   -0.2017 C   0  0  0  0  0  0  0  0  0  0  0  0
    8.3604    1.5659    0.1400 C   0  0  0  0  0  0  0  0  0  0  0  0
    6.3025    3.0408   -0.0319 C   0  0  0  0  0  0  0  0  0  0  0  0
    9.7427    1.4265    0.2516 N   0  0  0  0  0  0  0  0  0  0  0  0
    7.7738    2.8247    0.0273 C   0  0  0  0  0  0  0  0  0  0  0  0
   10.4955    2.5835    0.2686 C   0  0  0  0  0  0  0  0  0  0  0  0
    8.5819    3.9661    0.0285 C   0  0  0  0  0  0  0  0  0  0  0  0
   12.0156    2.5929    0.4117 C   0  0  0  0  0  0  0  0  0  0  0  0
    9.9497    3.8516    0.1550 C   0  0  0  0  0  0  0  0  0  0  0  0
   12.6093    3.6695    0.5245 O   0  0  0  0  0  0  0  0  0  0  0  0
   12.7061    1.4053    0.3867 N   0  0  0  0  0  0  0  0  0  0  0  0
   14.1610    1.4297    0.3584 C   0  0  0  0  0  0  0  0  0  0  0  0
   14.7592    0.1667    0.9062 C   0  0  0  0  0  0  0  0  0  0  0  0
   15.6371   -0.5989    0.1395 C   0  0  0  0  0  0  0  0  0  0  0  0
   14.4606   -0.2529    2.2079 C   0  0  0  0  0  0  0  0  0  0  0  0
   16.1405   -1.7957    0.6473 C   0  0  0  0  0  0  0  0  0  0  0  0
   14.9569   -1.4654    2.7007 C   0  0  0  0  0  0  0  0  0  0  0  0
   15.7854   -2.2744    1.9193 C   0  0  0  0  0  0  0  0  0  0  0  0
   16.3006   -3.4900    2.3408 N   0  0  0  0  0  0  0  0  0  0  0  0
   16.3961   -3.8414    3.7657 C   0  0  0  0  0  0  0  0  0  0  0  0
   15.9967   -4.6571    1.4889 C   0  0  0  0  0  0  0  0  0  0  0  0
   17.4726   -4.9489    3.9396 C   0  0  0  0  0  0  0  0  0  0  0  0
   17.1111   -5.7057    1.6722 C   0  0  0  0  0  0  0  0  0  0  0  0
   17.2333   -6.1384    3.0834 N   0  3  0  0  0  0  0  0  0  0  0  0
   18.3158   -7.1083    3.2190 C   0  0  0  0  0  0  0  0  0  0  0  0
    6.8067   -7.3969    1.6998 H   0  0  0  0  0  0  0  0  0  0  0  0
    3.5471   -5.8724   -0.4606 H   0  0  0  0  0  0  0  0  0  0  0  0
    2.7968   -2.0496   -1.2047 H   0  0  0  0  0  0  0  0  0  0  0  0
    2.2673   -3.4878   -0.3655 H   0  0  0  0  0  0  0  0  0  0  0  0
    3.1591   -3.6277   -1.8616 H   0  0  0  0  0  0  0  0  0  0  0  0
    4.7779   -7.7602    0.4356 H   0  0  0  0  0  0  0  0  0  0  0  0
    7.7342   -0.3223   -0.6147 H   0  0  0  0  0  0  0  0  0  0  0  0
    7.5923   -0.0671    1.1837 H   0  0  0  0  0  0  0  0  0  0  0  0
    4.5694    1.9601    0.4277 H   0  0  0  0  0  0  0  0  0  0  0  0
    5.2532    1.7799   -1.2576 H   0  0  0  0  0  0  0  0  0  0  0  0
    6.0119    3.5208    0.8792 H   0  0  0  0  0  0  0  0  0  0  0  0
    6.1462    3.6152   -0.9210 H   0  0  0  0  0  0  0  0  0  0  0  0
    8.1517    4.8994   -0.0658 H   0  0  0  0  0  0  0  0  0  0  0  0
   10.5520    4.6896    0.1649 H   0  0  0  0  0  0  0  0  0  0  0  0
   12.2223    0.5478    0.3880 H   0  0  0  0  0  0  0  0  0  0  0  0
   14.5035    2.2562    0.9454 H   0  0  0  0  0  0  0  0  0  0  0  0
   14.4686    1.5235   -0.6622 H   0  0  0  0  0  0  0  0  0  0  0  0
   15.9138   -0.2800   -0.8022 H   0  0  0  0  0  0  0  0  0  0  0  0
   13.8679    0.3386    2.8112 H   0  0  0  0  0  0  0  0  0  0  0  0
   16.7946   -2.3474    0.0705 H   0  0  0  0  0  0  0  0  0  0  0  0
   14.7070   -1.7662    3.6557 H   0  0  0  0  0  0  0  0  0  0  0  0
   15.4499   -4.2028    4.1107 H   0  0  0  0  0  0  0  0  0  0  0  0
   16.6692   -2.9775    4.3348 H   0  0  0  0  0  0  0  0  0  0  0  0
   15.9532   -4.3532    0.4639 H   0  0  0  0  0  0  0  0  0  0  0  0
   15.0524   -5.0760    1.7676 H   0  0  0  0  0  0  0  0  0  0  0  0
   17.4760   -5.2619    4.9628 H   0  0  0  0  0  0  0  0  0  0  0  0
   18.4112   -4.5286    3.6441 H   0  0  0  0  0  0  0  0  0  0  0  0
   18.0415   -5.2805    1.3586 H   0  0  0  0  0  0  0  0  0  0  0  0
   16.8612   -6.5627    1.0823 H   0  0  0  0  0  0  0  0  0  0  0  0
   16.3690   -6.5902    3.3820 H   0  0  0  0  0  0  0  0  0  0  0  0
   19.2373   -6.6597    2.9116 H   0  0  0  0  0  0  0  0  0  0  0  0
   18.1110   -7.9597    2.6040 H   0  0  0  0  0  0  0  0  0  0  0  0
   18.3926   -7.4166    4.2407 H   0  0  0  0  0  0  0  0  0  0  0  0
  1  2  1  0  0  0  0
  1  3  1  0  0  0  0
  2  4  2  0  0  0  0
  2  5  1  0  0  0  0
  3  6  2  0  0  0  0
  3  7  1  0  0  0  0
  4  8  1  0  0  0  0
  4  9  1  0  0  0  0
  5 10  2  0  0  0  0
  5  6  1  0  0  0  0
  6 11  1  0  0  0  0
  7 12  2  0  0  0  0
  7 13  1  0  0  0  0
  9 14  2  0  0  0  0
  9 41  1  0  0  0  0
 10 14  1  0  0  0  0
 10 42  1  0  0  0  0
 11 43  1  0  0  0  0
 11 44  1  0  0  0  0
 11 45  1  0  0  0  0
 13 15  1  0  0  0  0
 13 16  1  0  0  0  0
 14 46  1  0  0  0  0
 15 17  1  0  0  0  0
 15 47  1  0  0  0  0
 15 48  1  0  0  0  0
 16 18  1  0  0  0  0
 16 49  1  0  0  0  0
 16 50  1  0  0  0  0
 17 19  2  0  0  0  0
 17 20  1  0  0  0  0
 18 20  1  0  0  0  0
 18 51  1  0  0  0  0
 18 52  1  0  0  0  0
 19 21  1  0  0  0  0
 20 22  2  0  0  0  0
 21 23  1  0  0  0  0
 21 24  2  0  0  0  0
 22 24  1  0  0  0  0
 22 53  1  0  0  0  0
 23 25  2  0  0  0  0
 23 26  1  0  0  0  0
 24 54  1  0  0  0  0
 26 27  1  0  0  0  0
 26 55  1  0  0  0  0
 27 28  1  0  0  0  0
 27 56  1  0  0  0  0
 27 57  1  0  0  0  0
 28 29  2  0  0  0  0
 28 30  1  0  0  0  0
 29 31  1  0  0  0  0
 29 58  1  0  0  0  0
 30 32  2  0  0  0  0
 30 59  1  0  0  0  0
 31 33  2  0  0  0  0
 31 60  1  0  0  0  0
 32 33  1  0  0  0  0
 32 61  1  0  0  0  0
 33 34  1  0  0  0  0
 34 35  1  0  0  0  0
 34 36  1  0  0  0  0
 35 37  1  0  0  0  0
 35 62  1  0  0  0  0
 35 63  1  0  0  0  0
 36 38  1  0  0  0  0
 36 64  1  0  0  0  0
 36 65  1  0  0  0  0
 37 39  1  0  0  0  0
 37 66  1  0  0  0  0
 37 67  1  0  0  0  0
 38 39  1  0  0  0  0
 38 68  1  0  0  0  0
 38 69  1  0  0  0  0
 39 40  1  0  0  0  0
 39 70  1  0  0  0  0
 40 71  1  0  0  0  0
 40 72  1  0  0  0  0
 40 73  1  0  0  0  0
M  CHG  1  39   1
M  END
>  <Molecule Name>
CTX-1020810

>  <SMILES>
CN1CCN(CC1)C1=CC=C(CNC(=O)C2=CC=C3CCN(CC3=N2)C(=O)C2=C(C)C3=C(S2)C(F)=CC=C3)C=C1

>  <Batch Name>
CTX-1020810-1

>  <Batch Created Date>
2021-12-30

>  <Batch ID>
CTX-1020810-1

>  <External ID>
CD-42-Q

>  <Stereochemistry>
Achiral

>  <Amount 1>
13.8

>  <Unit 1>
mg

>  <CRO 1>
Pharmaron

>  <CRO 1 Total Amount>
32.5

>  <CRO 1 Unit>
mg

>  <Pharmaron Solubility (PBS, pH 7.4): Aqueous Solubility - Batch Mean (uM)>
158.8983

>  <Pharmaron Solubility (PBS, pH 7.4): Aqueous Solubility - Batch Mean (uM) Standard Deviation (±)>


>  <Pharmaron Solubility (PBS, pH 7.4): Aqueous Solubility - Batch Mean (uM) Count>
1.0

>  <log P>
4.7

>  <log D>
4.07

>  <Pharmaron Caliper Assay (CDK2/CCNE1): Minimum measured (%)>
14.1

>  <Pharmaron Caliper Assay (CDK2/CCNE1): IC50 - Batch Mean (uM)>
0.684

>  <Pharmaron ADPGLO (CDK2/E1-25C): Minimum measured (%)>
22.7

>  <Pharmaron ADPGLO (CDK2/E1-25C): IC50 - Batch Mean (uM)>
0.66

>  <Pharmaron ADPGLO (CDK2/E1-37C): Minimum measured (%)>
82.8

>  <Pharmaron ADPGLO (CDK2/E1-37C): IC50 - Batch Mean (uM)>
20.9

>  <IncuCyte Kuramochi RB-WT: IC50 - Batch Mean (uM)>
3.93

>  <IncuCyte Kuramochi RB-KO: IC50 - Batch Mean (uM)>
3.87

>  <DSF (npCDK2/CCNE1): dTm D - Batch Mean [Concentration: 100]>


>  <DSF (npCDK2/CCNE1): dTm D - Batch Mean [Concentration: 20.0]>
3.34

>  <DSF (pCDK2/CCNE1): dTm D - Batch Mean [Concentration: 100]>


>  <DSF (pCDK2/CCNE1): dTm D - Batch Mean [Concentration: 20.0]>
1.8

>  <RLM: t1/2 - Batch Mean (Min)>


>  <RLM: Cl int - Batch Mean (uL/min/mg protein)>


>  <RLM: ER (Hepatic extraction ratio) - Batch Mean>


>  <HLM: t1/2 - Batch Mean (Min)>


>  <HLM: Cl int - Batch Mean (uL/min/mg protein)>


>  <HLM: ER (Hepatic extraction ratio) - Batch Mean>


>  <MDCK-WT 4% BSA: Papp (A-B) - Batch Mean (10-6, cm/s)>


>  <MDCK-WT 4% BSA: Papp (B-A) - Batch Mean (10-6, cm/s)>


>  <MDCK-WT 4% BSA: Efflux Ratio - Batch Mean>


>  <MDCK-WT 4% BSA: ~Net A_B - Batch Mean (10-6, cm/s)>


>  <pIC50>
6.164944

>  <Selection_1>
Y

>  <Selection_N>


>  <Serie>
Naphthyridine

>  <Selection_T>
N

>  <Train_Vs_Test>


$$$$
