CTX-1020912
 OpenBabel08272613283D

 68 73  0  0  0  0  0  0  0  0999 V2000
    8.0943    4.8585    4.5625 S   0  0  0  0  0  0  0  0  0  0  0  0
    7.3956    4.9580    2.9957 C   0  0  0  0  0  0  0  0  0  0  0  0
    6.9010    5.8710    5.3026 C   0  0  0  0  0  0  0  0  0  0  0  0
    7.9739    4.2027    1.8180 C   0  0  0  0  0  0  0  0  0  0  0  0
    6.2439    5.7821    3.0420 C   0  0  0  0  0  0  0  0  0  0  0  0
    5.9634    6.3016    4.3705 C   0  0  0  0  0  0  0  0  0  0  0  0
    6.7910    6.2612    6.6581 C   0  0  0  0  0  0  0  0  0  0  0  0
    8.7683    3.0004    1.7731 C   0  0  0  0  0  0  0  0  0  0  0  0
    7.6024    4.6722    0.5766 C   0  0  0  0  0  0  0  0  0  0  0  0
    5.2799    6.1600    1.9425 C   0  0  0  0  0  0  0  0  0  0  0  0
    4.8956    7.1405    4.8162 C   0  0  0  0  0  0  0  0  0  0  0  0
    5.7198    7.0733    7.0664 C   0  0  0  0  0  0  0  0  0  0  0  0
    8.8943    2.2305    0.5474 C   0  0  0  0  0  0  0  0  0  0  0  0
    7.3228    3.7549   -0.4010 C   0  0  0  0  0  0  0  0  0  0  0  0
    4.7766    7.5162    6.1537 C   0  0  0  0  0  0  0  0  0  0  0  0
    9.8546    1.3572   -0.0248 N   0  0  0  0  0  0  0  0  0  0  0  0
    7.7951    2.4690   -0.2534 C   0  0  0  0  0  0  0  0  0  0  0  0
    9.5841    0.8535   -1.2958 C   0  0  0  0  0  0  0  0  0  0  0  0
    7.3367    1.5171   -1.1304 C   0  0  0  0  0  0  0  0  0  0  0  0
   10.5823    0.2583   -2.2680 C   0  0  0  0  0  0  0  0  0  0  0  0
    8.3143    0.9022   -1.8507 C   0  0  0  0  0  0  0  0  0  0  0  0
   10.1306   -0.4364   -3.1985 O   0  0  0  0  0  0  0  0  0  0  0  0
   11.9233    0.5833   -2.2692 N   0  0  0  0  0  0  0  0  0  0  0  0
   12.7418    0.0876   -3.3766 C   0  0  0  0  0  0  0  0  0  0  0  0
   14.0863    0.7487   -3.5535 C   0  0  0  0  0  0  0  0  0  0  0  0
   15.2448    0.1785   -3.0286 C   0  0  0  0  0  0  0  0  0  0  0  0
   14.2346    1.9065   -4.3225 C   0  0  0  0  0  0  0  0  0  0  0  0
   16.5050    0.7763   -3.2316 C   0  0  0  0  0  0  0  0  0  0  0  0
   15.5035    2.4900   -4.5263 C   0  0  0  0  0  0  0  0  0  0  0  0
   16.6814    1.9585   -3.9731 C   0  0  0  0  0  0  0  0  0  0  0  0
   17.9227    2.5895   -4.0685 N   0  0  0  0  0  0  0  0  0  0  0  0
   19.1734    1.7960   -4.1226 C   0  0  0  0  0  0  0  0  0  0  0  0
   18.0723    3.8889   -4.7612 C   0  0  0  0  0  0  0  0  0  0  0  0
   20.3640    2.6173   -3.5614 C   0  0  0  0  0  0  0  0  0  0  0  0
   19.2887    4.6735   -4.2008 C   0  0  0  0  0  0  0  0  0  0  0  0
   20.5590    3.9095   -4.2543 N   0  3  0  0  0  0  0  0  0  0  0  0
   21.6429    4.6741   -3.6339 C   0  0  0  0  0  0  0  0  0  0  0  0
    7.4956    5.9502    7.3449 H   0  0  0  0  0  0  0  0  0  0  0  0
    9.2554    2.6816    2.6253 H   0  0  0  0  0  0  0  0  0  0  0  0
    7.5368    5.6850    0.3893 H   0  0  0  0  0  0  0  0  0  0  0  0
    5.5975    5.7167    1.0218 H   0  0  0  0  0  0  0  0  0  0  0  0
    5.2586    7.2246    1.8371 H   0  0  0  0  0  0  0  0  0  0  0  0
    4.3007    5.8063    2.1895 H   0  0  0  0  0  0  0  0  0  0  0  0
    4.1978    7.4752    4.1336 H   0  0  0  0  0  0  0  0  0  0  0  0
    5.6344    7.3432    8.0588 H   0  0  0  0  0  0  0  0  0  0  0  0
    6.7701    4.0211   -1.2308 H   0  0  0  0  0  0  0  0  0  0  0  0
    3.9954    8.1170    6.4599 H   0  0  0  0  0  0  0  0  0  0  0  0
    6.3360    1.2875   -1.2346 H   0  0  0  0  0  0  0  0  0  0  0  0
    8.1178    0.4877   -2.7751 H   0  0  0  0  0  0  0  0  0  0  0  0
   12.3158    1.1296   -1.5503 H   0  0  0  0  0  0  0  0  0  0  0  0
   12.1873    0.2265   -4.2811 H   0  0  0  0  0  0  0  0  0  0  0  0
   12.9520   -0.9355   -3.1443 H   0  0  0  0  0  0  0  0  0  0  0  0
   15.1788   -0.6949   -2.4829 H   0  0  0  0  0  0  0  0  0  0  0  0
   13.4018    2.3422   -4.7487 H   0  0  0  0  0  0  0  0  0  0  0  0
   17.3361    0.3262   -2.8173 H   0  0  0  0  0  0  0  0  0  0  0  0
   15.5692    3.3418   -5.1052 H   0  0  0  0  0  0  0  0  0  0  0  0
   19.3775    1.5296   -5.1386 H   0  0  0  0  0  0  0  0  0  0  0  0
   19.0500    0.9154   -3.5274 H   0  0  0  0  0  0  0  0  0  0  0  0
   17.1842    4.4680   -4.6168 H   0  0  0  0  0  0  0  0  0  0  0  0
   18.2316    3.7064   -5.8034 H   0  0  0  0  0  0  0  0  0  0  0  0
   21.2568    2.0371   -3.6664 H   0  0  0  0  0  0  0  0  0  0  0  0
   20.1446    2.8359   -2.5372 H   0  0  0  0  0  0  0  0  0  0  0  0
   19.0881    4.9265   -3.1807 H   0  0  0  0  0  0  0  0  0  0  0  0
   19.4156    5.5400   -4.8155 H   0  0  0  0  0  0  0  0  0  0  0  0
   20.8185    3.7383   -5.2258 H   0  0  0  0  0  0  0  0  0  0  0  0
   21.4004    4.8706   -2.6104 H   0  0  0  0  0  0  0  0  0  0  0  0
   21.7696    5.6002   -4.1546 H   0  0  0  0  0  0  0  0  0  0  0  0
   22.5509    4.1101   -3.6833 H   0  0  0  0  0  0  0  0  0  0  0  0
  1  2  1  0  0  0  0
  1  3  1  0  0  0  0
  2  4  1  0  0  0  0
  2  5  2  0  0  0  0
  3  6  2  0  0  0  0
  3  7  1  0  0  0  0
  4  8  2  0  0  0  0
  4  9  1  0  0  0  0
  5 10  1  0  0  0  0
  5  6  1  0  0  0  0
  6 11  1  0  0  0  0
  7 12  2  0  0  0  0
  7 38  1  0  0  0  0
  8 13  1  0  0  0  0
  8 39  1  0  0  0  0
  9 14  2  0  0  0  0
  9 40  1  0  0  0  0
 10 41  1  0  0  0  0
 10 42  1  0  0  0  0
 10 43  1  0  0  0  0
 11 15  2  0  0  0  0
 11 44  1  0  0  0  0
 12 15  1  0  0  0  0
 12 45  1  0  0  0  0
 13 16  2  0  0  0  0
 13 17  1  0  0  0  0
 14 17  1  0  0  0  0
 14 46  1  0  0  0  0
 15 47  1  0  0  0  0
 16 18  1  0  0  0  0
 17 19  2  0  0  0  0
 18 20  1  0  0  0  0
 18 21  2  0  0  0  0
 19 21  1  0  0  0  0
 19 48  1  0  0  0  0
 20 22  2  0  0  0  0
 20 23  1  0  0  0  0
 21 49  1  0  0  0  0
 23 24  1  0  0  0  0
 23 50  1  0  0  0  0
 24 25  1  0  0  0  0
 24 51  1  0  0  0  0
 24 52  1  0  0  0  0
 25 26  2  0  0  0  0
 25 27  1  0  0  0  0
 26 28  1  0  0  0  0
 26 53  1  0  0  0  0
 27 29  2  0  0  0  0
 27 54  1  0  0  0  0
 28 30  2  0  0  0  0
 28 55  1  0  0  0  0
 29 30  1  0  0  0  0
 29 56  1  0  0  0  0
 30 31  1  0  0  0  0
 31 32  1  0  0  0  0
 31 33  1  0  0  0  0
 32 34  1  0  0  0  0
 32 57  1  0  0  0  0
 32 58  1  0  0  0  0
 33 35  1  0  0  0  0
 33 59  1  0  0  0  0
 33 60  1  0  0  0  0
 34 36  1  0  0  0  0
 34 61  1  0  0  0  0
 34 62  1  0  0  0  0
 35 36  1  0  0  0  0
 35 63  1  0  0  0  0
 35 64  1  0  0  0  0
 36 37  1  0  0  0  0
 36 65  1  0  0  0  0
 37 66  1  0  0  0  0
 37 67  1  0  0  0  0
 37 68  1  0  0  0  0
M  CHG  1  36   1
M  END
>  <Molecule Name>
CTX-1020912

>  <SMILES>
CN1CCN(CC1)C1=CC=C(CNC(=O)C2=NC3=CC(=CC=C3C=C2)C2=C(C)C3=CC=CC=C3S2)C=C1

>  <Batch Name>
CTX-1020912-1

>  <Batch Created Date>
2022-01-20

>  <Batch ID>
CTX-1020912-1

>  <External ID>
P841-0314

>  <Stereochemistry>
Achiral

>  <Amount 1>
5.5

>  <Unit 1>
mg

>  <CRO 1>
Pharmaron

>  <CRO 1 Total Amount>
3.8

>  <CRO 1 Unit>
mg

>  <Pharmaron Solubility (PBS, pH 7.4): Aqueous Solubility - Batch Mean (uM)>
0.0037

>  <Pharmaron Solubility (PBS, pH 7.4): Aqueous Solubility - Batch Mean (uM) Standard Deviation (±)>


>  <Pharmaron Solubility (PBS, pH 7.4): Aqueous Solubility - Batch Mean (uM) Count>
1.0

>  <log P>
6.3

>  <log D>
5.67

>  <Pharmaron Caliper Assay (CDK2/CCNE1): Minimum measured (%)>
84.1

>  <Pharmaron Caliper Assay (CDK2/CCNE1): IC50 - Batch Mean (uM)>
47.6

>  <Pharmaron ADPGLO (CDK2/E1-25C): Minimum measured (%)>
93.2

>  <Pharmaron ADPGLO (CDK2/E1-25C): IC50 - Batch Mean (uM)>
100

>  <Pharmaron ADPGLO (CDK2/E1-37C): Minimum measured (%)>
93.2

>  <Pharmaron ADPGLO (CDK2/E1-37C): IC50 - Batch Mean (uM)>
100

>  <IncuCyte Kuramochi RB-WT: IC50 - Batch Mean (uM)>
4.19

>  <IncuCyte Kuramochi RB-KO: IC50 - Batch Mean (uM)>
5.41

>  <DSF (npCDK2/CCNE1): dTm D - Batch Mean [Concentration: 100]>


>  <DSF (npCDK2/CCNE1): dTm D - Batch Mean [Concentration: 20.0]>
-0.302

>  <DSF (pCDK2/CCNE1): dTm D - Batch Mean [Concentration: 100]>


>  <DSF (pCDK2/CCNE1): dTm D - Batch Mean [Concentration: 20.0]>
-0.243

>  <RLM: t1/2 - Batch Mean (Min)>


>  <RLM: Cl int - Batch Mean (uL/min/mg protein)>


>  <RLM: ER (Hepatic extraction ratio) - Batch Mean>


>  <HLM: t1/2 - Batch Mean (Min)>


>  <HLM: Cl int - Batch Mean (uL/min/mg protein)>


>  <HLM: ER (Hepatic extraction ratio) - Batch Mean>


>  <MDCK-WT 4% BSA: Papp (A-B) - Batch Mean (10-6, cm/s)>


>  <MDCK-WT 4% BSA: Papp (B-A) - Batch Mean (10-6, cm/s)>


>  <MDCK-WT 4% BSA: Efflux Ratio - Batch Mean>


>  <MDCK-WT 4% BSA: ~Net A_B - Batch Mean (10-6, cm/s)>


>  <pIC50>
4.322393

>  <Selection_1>
Y

>  <Selection_N>
N

>  <Serie>
Other

>  <Selection_T>
N

>  <Train_Vs_Test>


$$$$
