CTX-1020800
 OpenBabel08272613283D

 72 77  0  0  0  0  0  0  0  0999 V2000
    2.5322   -0.0650   -1.8536 O   0  0  0  0  0  0  0  0  0  0  0  0
    2.1139    0.0176   -0.6765 C   0  0  0  0  0  0  0  0  0  0  0  0
    2.9565    0.9225    0.2094 N   0  0  0  0  0  0  0  0  0  0  0  0
    0.7690   -0.8183   -0.1942 C   0  0  0  0  0  0  0  0  0  0  0  0
    4.1418    1.5652   -0.4569 C   0  0  0  0  0  0  0  0  0  0  0  0
    2.6029    1.3759    1.6022 C   0  0  0  0  0  0  0  0  0  0  0  0
    0.8883   -1.3842    1.0953 O   0  0  0  0  0  0  0  0  0  0  0  0
    0.0949   -2.1319   -0.5315 C   0  0  0  0  0  0  0  0  0  0  0  0
    4.7639    2.7170    0.2809 C   0  0  0  0  0  0  0  0  0  0  0  0
    3.3501    2.5893    2.3449 C   0  0  0  0  0  0  0  0  0  0  0  0
    0.0772   -2.7854    1.0661 C   0  0  0  0  0  0  0  0  0  0  0  0
   -1.5488   -2.5290    0.4392 C   0  0  0  0  0  0  0  0  0  0  0  0
    1.7786   -3.0367   -0.5291 C   0  0  0  0  0  0  0  0  0  0  0  0
    4.4304    3.1835    1.5272 C   0  0  0  0  0  0  0  0  0  0  0  0
    5.8107    3.5510   -0.1797 C   0  0  0  0  0  0  0  0  0  0  0  0
    0.1244   -3.4143    2.2179 C   0  0  0  0  0  0  0  0  0  0  0  0
   -2.7860   -2.0541    1.9152 C   0  0  0  0  0  0  0  0  0  0  0  0
    5.2438    4.2649    1.8371 N   0  0  0  0  0  0  0  0  0  0  0  0
    6.1137    4.5041    0.7699 C   0  0  0  0  0  0  0  0  0  0  0  0
   -0.7695   -2.4210    2.5691 C   0  0  0  0  0  0  0  0  0  0  0  0
   -2.0374   -2.8575    2.8099 C   0  0  0  0  0  0  0  0  0  0  0  0
    7.1362    5.5436    0.6806 C   0  0  0  0  0  0  0  0  0  0  0  0
    7.3416    6.3738    1.5500 O   0  0  0  0  0  0  0  0  0  0  0  0
    7.8848    5.5197   -0.4899 N   0  0  0  0  0  0  0  0  0  0  0  0
    8.9405    6.4678   -0.7222 C   0  0  0  0  0  0  0  0  0  0  0  0
   10.2920    5.8304   -0.9289 C   0  0  0  0  0  0  0  0  0  0  0  0
   10.9731    6.0277   -2.1288 C   0  0  0  0  0  0  0  0  0  0  0  0
   10.9476    5.1140    0.0832 C   0  0  0  0  0  0  0  0  0  0  0  0
   12.2551    5.5085   -2.3080 C   0  0  0  0  0  0  0  0  0  0  0  0
   12.2450    4.6075   -0.1082 C   0  0  0  0  0  0  0  0  0  0  0  0
   12.9054    4.7500   -1.3274 C   0  0  0  0  0  0  0  0  0  0  0  0
   14.1367    4.1956   -1.5753 N   0  0  0  0  0  0  0  0  0  0  0  0
   15.1218    3.9188   -0.5316 C   0  0  0  0  0  0  0  0  0  0  0  0
   14.4256    3.5595   -2.8668 C   0  0  0  0  0  0  0  0  0  0  0  0
   16.5184    4.2746   -1.0763 C   0  0  0  0  0  0  0  0  0  0  0  0
   15.8667    3.8946   -3.2809 C   0  0  0  0  0  0  0  0  0  0  0  0
   16.8294    3.5071   -2.2703 N   0  3  0  0  0  0  0  0  0  0  0  0
   18.1947    3.7530   -2.7213 C   0  0  0  0  0  0  0  0  0  0  0  0
    3.8260    1.9216   -1.4151 H   0  0  0  0  0  0  0  0  0  0  0  0
    4.8960    0.8075   -0.5003 H   0  0  0  0  0  0  0  0  0  0  0  0
    2.7321    0.5207    2.2321 H   0  0  0  0  0  0  0  0  0  0  0  0
    1.6264    1.7866    1.4515 H   0  0  0  0  0  0  0  0  0  0  0  0
    3.7735    2.2232    3.2568 H   0  0  0  0  0  0  0  0  0  0  0  0
    2.6235    3.3541    2.5238 H   0  0  0  0  0  0  0  0  0  0  0  0
    2.4552   -2.5329   -1.1874 H   0  0  0  0  0  0  0  0  0  0  0  0
    1.6423   -4.0448   -0.8611 H   0  0  0  0  0  0  0  0  0  0  0  0
    2.1809   -3.0391    0.4624 H   0  0  0  0  0  0  0  0  0  0  0  0
    6.2795    3.4592   -1.0944 H   0  0  0  0  0  0  0  0  0  0  0  0
    0.5902   -4.2314    2.6427 H   0  0  0  0  0  0  0  0  0  0  0  0
   -3.6287   -1.4642    1.9975 H   0  0  0  0  0  0  0  0  0  0  0  0
    5.2128    4.7809    2.6750 H   0  0  0  0  0  0  0  0  0  0  0  0
   -0.4984   -1.4280    2.6431 H   0  0  0  0  0  0  0  0  0  0  0  0
   -2.3652   -3.5810    3.4688 H   0  0  0  0  0  0  0  0  0  0  0  0
    7.6883    4.8397   -1.1742 H   0  0  0  0  0  0  0  0  0  0  0  0
    9.0005    7.1207    0.1233 H   0  0  0  0  0  0  0  0  0  0  0  0
    8.6994    6.9900   -1.6245 H   0  0  0  0  0  0  0  0  0  0  0  0
   10.5256    6.5617   -2.8901 H   0  0  0  0  0  0  0  0  0  0  0  0
   10.4693    4.9561    0.9839 H   0  0  0  0  0  0  0  0  0  0  0  0
   12.7435    5.6906   -3.1987 H   0  0  0  0  0  0  0  0  0  0  0  0
   12.7176    4.1204    0.6692 H   0  0  0  0  0  0  0  0  0  0  0  0
   15.0893    2.8819   -0.2695 H   0  0  0  0  0  0  0  0  0  0  0  0
   14.9075    4.5005    0.3405 H   0  0  0  0  0  0  0  0  0  0  0  0
   13.7456    3.9263   -3.6070 H   0  0  0  0  0  0  0  0  0  0  0  0
   14.3130    2.4990   -2.7795 H   0  0  0  0  0  0  0  0  0  0  0  0
   17.2502    4.0626   -0.3250 H   0  0  0  0  0  0  0  0  0  0  0  0
   16.5276    5.3139   -1.3304 H   0  0  0  0  0  0  0  0  0  0  0  0
   15.9424    4.9496   -3.4427 H   0  0  0  0  0  0  0  0  0  0  0  0
   16.0882    3.3475   -4.1734 H   0  0  0  0  0  0  0  0  0  0  0  0
   16.7700    2.5071   -2.0784 H   0  0  0  0  0  0  0  0  0  0  0  0
   18.3164    4.7936   -2.9390 H   0  0  0  0  0  0  0  0  0  0  0  0
   18.3878    3.1792   -3.6035 H   0  0  0  0  0  0  0  0  0  0  0  0
   18.8814    3.4668   -1.9523 H   0  0  0  0  0  0  0  0  0  0  0  0
  1  2  2  0  0  0  0
  2  3  1  0  0  0  0
  2  4  1  0  0  0  0
  3  5  1  0  0  0  0
  3  6  1  0  0  0  0
  4  7  1  0  0  0  0
  4  8  2  0  0  0  0
  5  9  1  0  0  0  0
  5 39  1  0  0  0  0
  5 40  1  0  0  0  0
  6 10  1  0  0  0  0
  6 41  1  0  0  0  0
  6 42  1  0  0  0  0
  7 11  1  0  0  0  0
  8 12  1  0  0  0  0
  8 13  1  0  0  0  0
  9 14  2  0  0  0  0
  9 15  1  0  0  0  0
 10 14  1  0  0  0  0
 10 43  1  0  0  0  0
 10 44  1  0  0  0  0
 11 16  2  0  0  0  0
 11 12  1  0  0  0  0
 12 17  2  0  0  0  0
 13 45  1  0  0  0  0
 13 46  1  0  0  0  0
 13 47  1  0  0  0  0
 14 18  1  0  0  0  0
 15 19  2  0  0  0  0
 15 48  1  0  0  0  0
 16 20  1  0  0  0  0
 16 49  1  0  0  0  0
 17 21  1  0  0  0  0
 17 50  1  0  0  0  0
 18 19  1  0  0  0  0
 18 51  1  0  0  0  0
 19 22  1  0  0  0  0
 20 21  2  0  0  0  0
 20 52  1  0  0  0  0
 21 53  1  0  0  0  0
 22 23  2  0  0  0  0
 22 24  1  0  0  0  0
 24 25  1  0  0  0  0
 24 54  1  0  0  0  0
 25 26  1  0  0  0  0
 25 55  1  0  0  0  0
 25 56  1  0  0  0  0
 26 27  2  0  0  0  0
 26 28  1  0  0  0  0
 27 29  1  0  0  0  0
 27 57  1  0  0  0  0
 28 30  2  0  0  0  0
 28 58  1  0  0  0  0
 29 31  2  0  0  0  0
 29 59  1  0  0  0  0
 30 31  1  0  0  0  0
 30 60  1  0  0  0  0
 31 32  1  0  0  0  0
 32 33  1  0  0  0  0
 32 34  1  0  0  0  0
 33 35  1  0  0  0  0
 33 61  1  0  0  0  0
 33 62  1  0  0  0  0
 34 36  1  0  0  0  0
 34 63  1  0  0  0  0
 34 64  1  0  0  0  0
 35 37  1  0  0  0  0
 35 65  1  0  0  0  0
 35 66  1  0  0  0  0
 36 37  1  0  0  0  0
 36 67  1  0  0  0  0
 36 68  1  0  0  0  0
 37 38  1  0  0  0  0
 37 69  1  0  0  0  0
 38 70  1  0  0  0  0
 38 71  1  0  0  0  0
 38 72  1  0  0  0  0
M  CHG  1  37   1
M  END
>  <Molecule Name>
CTX-1020800

>  <SMILES>
CN1CCN(CC1)C1=CC=C(CNC(=O)C2=CC3=C(CCN(C3)C(=O)C3=C(C)C4=C(O3)C=CC=C4)N2)C=C1

>  <Batch Name>
CTX-1020800-1

>  <Batch Created Date>
2021-12-24

>  <Batch ID>
CTX-1020800-1

>  <External ID>
CD-44-Q

>  <Stereochemistry>
Achiral

>  <Amount 1>
2.6

>  <Unit 1>
mg

>  <CRO 1>
Pharmaron

>  <CRO 1 Total Amount>
16.1

>  <CRO 1 Unit>
mg

>  <Pharmaron Solubility (PBS, pH 7.4): Aqueous Solubility - Batch Mean (uM)>


>  <Pharmaron Solubility (PBS, pH 7.4): Aqueous Solubility - Batch Mean (uM) Standard Deviation (±)>


>  <Pharmaron Solubility (PBS, pH 7.4): Aqueous Solubility - Batch Mean (uM) Count>


>  <log P>
3.07

>  <log D>
2.44

>  <Pharmaron Caliper Assay (CDK2/CCNE1): Minimum measured (%)>
22.8

>  <Pharmaron Caliper Assay (CDK2/CCNE1): IC50 - Batch Mean (uM)>
1.17

>  <Pharmaron ADPGLO (CDK2/E1-25C): Minimum measured (%)>
41.9

>  <Pharmaron ADPGLO (CDK2/E1-25C): IC50 - Batch Mean (uM)>
1.67

>  <Pharmaron ADPGLO (CDK2/E1-37C): Minimum measured (%)>
105.0

>  <Pharmaron ADPGLO (CDK2/E1-37C): IC50 - Batch Mean (uM)>
10.0

>  <IncuCyte Kuramochi RB-WT: IC50 - Batch Mean (uM)>
9.85

>  <IncuCyte Kuramochi RB-KO: IC50 - Batch Mean (uM)>
10.6

>  <DSF (npCDK2/CCNE1): dTm D - Batch Mean [Concentration: 100]>


>  <DSF (npCDK2/CCNE1): dTm D - Batch Mean [Concentration: 20.0]>
1.9969999999999999

>  <DSF (pCDK2/CCNE1): dTm D - Batch Mean [Concentration: 100]>


>  <DSF (pCDK2/CCNE1): dTm D - Batch Mean [Concentration: 20.0]>
0.917

>  <RLM: t1/2 - Batch Mean (Min)>


>  <RLM: Cl int - Batch Mean (uL/min/mg protein)>


>  <RLM: ER (Hepatic extraction ratio) - Batch Mean>


>  <HLM: t1/2 - Batch Mean (Min)>


>  <HLM: Cl int - Batch Mean (uL/min/mg protein)>


>  <HLM: ER (Hepatic extraction ratio) - Batch Mean>


>  <MDCK-WT 4% BSA: Papp (A-B) - Batch Mean (10-6, cm/s)>


>  <MDCK-WT 4% BSA: Papp (B-A) - Batch Mean (10-6, cm/s)>


>  <MDCK-WT 4% BSA: Efflux Ratio - Batch Mean>


>  <MDCK-WT 4% BSA: ~Net A_B - Batch Mean (10-6, cm/s)>


>  <pIC50>
5.931814

>  <Selection_1>
Y

>  <Selection_N>
N

>  <Serie>
Other

>  <Selection_T>
N

>  <Train_Vs_Test>


$$$$
