CTX-1020811
 OpenBabel08272613283D

 76 81  0  0  0  0  0  0  0  0999 V2000
    1.7715    0.8272   -0.8534 O   0  0  0  0  0  0  0  0  0  0  0  0
    2.4001    0.0435   -0.1510 C   0  0  0  0  0  0  0  0  0  0  0  0
    2.4188    0.0995    1.2206 N   0  0  0  0  0  0  0  0  0  0  0  0
    3.1516   -1.1022   -0.7605 C   0  0  0  0  0  0  0  0  0  0  0  0
    1.6664    1.0879    1.9620 C   0  0  0  0  0  0  0  0  0  0  0  0
    4.0814   -1.7533    0.0031 N   0  0  0  0  0  0  0  0  0  0  0  0
    2.8207   -1.4657   -2.0589 C   0  0  0  0  0  0  0  0  0  0  0  0
    2.5706    1.8466    2.9011 C   0  0  0  0  0  0  0  0  0  0  0  0
    4.7228   -2.8139   -0.5715 C   0  0  0  0  0  0  0  0  0  0  0  0
    3.4600   -2.5610   -2.6166 C   0  0  0  0  0  0  0  0  0  0  0  0
    3.2419    2.9780    2.4539 C   0  0  0  0  0  0  0  0  0  0  0  0
    2.7595    1.4206    4.2130 C   0  0  0  0  0  0  0  0  0  0  0  0
    4.4303   -3.2460   -1.8775 C   0  0  0  0  0  0  0  0  0  0  0  0
    5.8243   -3.5075    0.2343 C   0  0  0  0  0  0  0  0  0  0  0  0
    4.0847    3.6865    3.3087 C   0  0  0  0  0  0  0  0  0  0  0  0
    3.6017    2.1395    5.0757 C   0  0  0  0  0  0  0  0  0  0  0  0
    5.0639   -4.4804   -2.4670 C   0  0  0  0  0  0  0  0  0  0  0  0
    6.1661   -4.8301   -0.2906 N   0  0  0  0  0  0  0  0  0  0  0  0
    4.2781    3.2880    4.6471 C   0  0  0  0  0  0  0  0  0  0  0  0
    6.3263   -4.9183   -1.7343 C   0  0  0  0  0  0  0  0  0  0  0  0
    6.5773   -5.8499    0.5729 C   0  0  0  0  0  0  0  0  0  0  0  0
    5.0645    4.0640    5.4788 N   0  0  0  0  0  0  0  0  0  0  0  0
    7.0637   -5.5938    1.6755 O   0  0  0  0  0  0  0  0  0  0  0  0
    6.1558   -7.2097    0.1900 C   0  0  0  0  0  0  0  0  0  0  0  0
    4.8966    4.0253    6.9389 C   0  0  0  0  0  0  0  0  0  0  0  0
    6.4562    4.3339    5.0725 C   0  0  0  0  0  0  0  0  0  0  0  0
    5.0087   -7.2382   -0.5883 O   0  0  0  0  0  0  0  0  0  0  0  0
    6.1130   -8.3810    0.9487 C   0  0  0  0  0  0  0  0  0  0  0  0
    5.3600    5.3804    7.5265 C   0  0  0  0  0  0  0  0  0  0  0  0
    6.9166    5.6749    5.6930 C   0  0  0  0  0  0  0  0  0  0  0  0
    4.0996   -7.9020    0.1682 C   0  0  0  0  0  0  0  0  0  0  0  0
    4.7260   -8.5158    1.2389 C   0  0  0  0  0  0  0  0  0  0  0  0
    7.1601   -9.4037    1.2337 C   0  0  0  0  0  0  0  0  0  0  0  0
    6.7574    5.7222    7.1683 N   0  3  0  0  0  0  0  0  0  0  0  0
    2.7340   -7.9309   -0.0706 C   0  0  0  0  0  0  0  0  0  0  0  0
    3.9419   -9.1761    2.1952 C   0  0  0  0  0  0  0  0  0  0  0  0
    6.8992  -10.6446    0.3585 C   0  0  0  0  0  0  0  0  0  0  0  0
    7.0986    7.0511    7.6720 C   0  0  0  0  0  0  0  0  0  0  0  0
    1.9640   -8.5516    0.9087 C   0  0  0  0  0  0  0  0  0  0  0  0
    2.5494   -9.1409    2.0349 C   0  0  0  0  0  0  0  0  0  0  0  0
    2.9623   -0.5549    1.7161 H   0  0  0  0  0  0  0  0  0  0  0  0
    0.9030    0.5968    2.5286 H   0  0  0  0  0  0  0  0  0  0  0  0
    1.2280    1.7778    1.2716 H   0  0  0  0  0  0  0  0  0  0  0  0
    2.1170   -0.9338   -2.5946 H   0  0  0  0  0  0  0  0  0  0  0  0
    3.2216   -2.8700   -3.5720 H   0  0  0  0  0  0  0  0  0  0  0  0
    3.1155    3.2964    1.4805 H   0  0  0  0  0  0  0  0  0  0  0  0
    2.2784    0.5731    4.5525 H   0  0  0  0  0  0  0  0  0  0  0  0
    5.4907   -3.6169    1.2451 H   0  0  0  0  0  0  0  0  0  0  0  0
    6.7021   -2.8990    0.1688 H   0  0  0  0  0  0  0  0  0  0  0  0
    4.5777    4.5209    2.9541 H   0  0  0  0  0  0  0  0  0  0  0  0
    3.7250    1.8144    6.0473 H   0  0  0  0  0  0  0  0  0  0  0  0
    5.3160   -4.2786   -3.4871 H   0  0  0  0  0  0  0  0  0  0  0  0
    4.3533   -5.2752   -2.3770 H   0  0  0  0  0  0  0  0  0  0  0  0
    7.1375   -4.2876   -2.0328 H   0  0  0  0  0  0  0  0  0  0  0  0
    6.5228   -5.9393   -1.9873 H   0  0  0  0  0  0  0  0  0  0  0  0
    5.4883    3.2336    7.3487 H   0  0  0  0  0  0  0  0  0  0  0  0
    3.8693    3.8533    7.1838 H   0  0  0  0  0  0  0  0  0  0  0  0
    6.5121    4.3954    4.0057 H   0  0  0  0  0  0  0  0  0  0  0  0
    7.0904    3.5430    5.4147 H   0  0  0  0  0  0  0  0  0  0  0  0
    5.2836    5.3332    8.5927 H   0  0  0  0  0  0  0  0  0  0  0  0
    4.7298    6.1398    7.1128 H   0  0  0  0  0  0  0  0  0  0  0  0
    6.3374    6.4652    5.2630 H   0  0  0  0  0  0  0  0  0  0  0  0
    7.9603    5.7809    5.4824 H   0  0  0  0  0  0  0  0  0  0  0  0
    7.1214   -9.6787    2.2670 H   0  0  0  0  0  0  0  0  0  0  0  0
    8.1272   -9.0024    1.0135 H   0  0  0  0  0  0  0  0  0  0  0  0
    7.3884    5.0441    7.5955 H   0  0  0  0  0  0  0  0  0  0  0  0
    2.3158   -7.5190   -0.9194 H   0  0  0  0  0  0  0  0  0  0  0  0
    4.3749   -9.6714    2.9903 H   0  0  0  0  0  0  0  0  0  0  0  0
    5.9313  -11.0419    0.5824 H   0  0  0  0  0  0  0  0  0  0  0  0
    7.6442  -11.3859    0.5595 H   0  0  0  0  0  0  0  0  0  0  0  0
    6.9410  -10.3679   -0.6743 H   0  0  0  0  0  0  0  0  0  0  0  0
    6.4458    7.7769    7.2340 H   0  0  0  0  0  0  0  0  0  0  0  0
    8.1114    7.2809    7.4146 H   0  0  0  0  0  0  0  0  0  0  0  0
    6.9883    7.0683    8.7362 H   0  0  0  0  0  0  0  0  0  0  0  0
    0.9379   -8.5778    0.8018 H   0  0  0  0  0  0  0  0  0  0  0  0
    1.9452   -9.5571    2.7606 H   0  0  0  0  0  0  0  0  0  0  0  0
  1  2  2  0  0  0  0
  2  3  1  0  0  0  0
  2  4  1  0  0  0  0
  3  5  1  0  0  0  0
  3 41  1  0  0  0  0
  4  6  2  0  0  0  0
  4  7  1  0  0  0  0
  5  8  1  0  0  0  0
  5 42  1  0  0  0  0
  5 43  1  0  0  0  0
  6  9  1  0  0  0  0
  7 10  2  0  0  0  0
  7 44  1  0  0  0  0
  8 11  2  0  0  0  0
  8 12  1  0  0  0  0
  9 13  2  0  0  0  0
  9 14  1  0  0  0  0
 10 13  1  0  0  0  0
 10 45  1  0  0  0  0
 11 15  1  0  0  0  0
 11 46  1  0  0  0  0
 12 16  2  0  0  0  0
 12 47  1  0  0  0  0
 13 17  1  0  0  0  0
 14 18  1  0  0  0  0
 14 48  1  0  0  0  0
 14 49  1  0  0  0  0
 15 19  2  0  0  0  0
 15 50  1  0  0  0  0
 16 19  1  0  0  0  0
 16 51  1  0  0  0  0
 17 20  1  0  0  0  0
 17 52  1  0  0  0  0
 17 53  1  0  0  0  0
 18 21  1  0  0  0  0
 18 20  1  0  0  0  0
 19 22  1  0  0  0  0
 20 54  1  0  0  0  0
 20 55  1  0  0  0  0
 21 23  2  0  0  0  0
 21 24  1  0  0  0  0
 22 25  1  0  0  0  0
 22 26  1  0  0  0  0
 24 27  1  0  0  0  0
 24 28  2  0  0  0  0
 25 29  1  0  0  0  0
 25 56  1  0  0  0  0
 25 57  1  0  0  0  0
 26 30  1  0  0  0  0
 26 58  1  0  0  0  0
 26 59  1  0  0  0  0
 27 31  1  0  0  0  0
 28 32  1  0  0  0  0
 28 33  1  0  0  0  0
 29 34  1  0  0  0  0
 29 60  1  0  0  0  0
 29 61  1  0  0  0  0
 30 34  1  0  0  0  0
 30 62  1  0  0  0  0
 30 63  1  0  0  0  0
 31 35  2  0  0  0  0
 31 32  1  0  0  0  0
 32 36  2  0  0  0  0
 33 37  1  0  0  0  0
 33 64  1  0  0  0  0
 33 65  1  0  0  0  0
 34 38  1  0  0  0  0
 34 66  1  0  0  0  0
 35 39  1  0  0  0  0
 35 67  1  0  0  0  0
 36 40  1  0  0  0  0
 36 68  1  0  0  0  0
 37 69  1  0  0  0  0
 37 70  1  0  0  0  0
 37 71  1  0  0  0  0
 38 72  1  0  0  0  0
 38 73  1  0  0  0  0
 38 74  1  0  0  0  0
 39 40  2  0  0  0  0
 39 75  1  0  0  0  0
 40 76  1  0  0  0  0
M  CHG  1  34   1
M  END
>  <Molecule Name>
CTX-1020811

>  <SMILES>
CCC1=C(OC2=C1C=CC=C2)C(=O)N1CCC2=C(C1)N=C(C=C2)C(=O)NCC1=CC=C(C=C1)N1CCN(C)CC1

>  <Batch Name>
CTX-1020811-1

>  <Batch Created Date>
2021-12-30

>  <Batch ID>
CTX-1020811-1

>  <External ID>
CD-42-R

>  <Stereochemistry>
Achiral

>  <Amount 1>
4.3

>  <Unit 1>
mg

>  <CRO 1>
Pharmaron

>  <CRO 1 Total Amount>
19.3

>  <CRO 1 Unit>
mg

>  <Pharmaron Solubility (PBS, pH 7.4): Aqueous Solubility - Batch Mean (uM)>
72.0524

>  <Pharmaron Solubility (PBS, pH 7.4): Aqueous Solubility - Batch Mean (uM) Standard Deviation (±)>


>  <Pharmaron Solubility (PBS, pH 7.4): Aqueous Solubility - Batch Mean (uM) Count>
1.0

>  <log P>
4.08

>  <log D>
3.44

>  <Pharmaron Caliper Assay (CDK2/CCNE1): Minimum measured (%)>
41.0

>  <Pharmaron Caliper Assay (CDK2/CCNE1): IC50 - Batch Mean (uM)>
12.4

>  <Pharmaron ADPGLO (CDK2/E1-25C): Minimum measured (%)>
48.9

>  <Pharmaron ADPGLO (CDK2/E1-25C): IC50 - Batch Mean (uM)>
100

>  <Pharmaron ADPGLO (CDK2/E1-37C): Minimum measured (%)>
102.0

>  <Pharmaron ADPGLO (CDK2/E1-37C): IC50 - Batch Mean (uM)>
100

>  <IncuCyte Kuramochi RB-WT: IC50 - Batch Mean (uM)>
8.82

>  <IncuCyte Kuramochi RB-KO: IC50 - Batch Mean (uM)>
7.03

>  <DSF (npCDK2/CCNE1): dTm D - Batch Mean [Concentration: 100]>


>  <DSF (npCDK2/CCNE1): dTm D - Batch Mean [Concentration: 20.0]>
0.46799999999999997

>  <DSF (pCDK2/CCNE1): dTm D - Batch Mean [Concentration: 100]>


>  <DSF (pCDK2/CCNE1): dTm D - Batch Mean [Concentration: 20.0]>
0.141

>  <RLM: t1/2 - Batch Mean (Min)>


>  <RLM: Cl int - Batch Mean (uL/min/mg protein)>


>  <RLM: ER (Hepatic extraction ratio) - Batch Mean>


>  <HLM: t1/2 - Batch Mean (Min)>


>  <HLM: Cl int - Batch Mean (uL/min/mg protein)>


>  <HLM: ER (Hepatic extraction ratio) - Batch Mean>


>  <MDCK-WT 4% BSA: Papp (A-B) - Batch Mean (10-6, cm/s)>


>  <MDCK-WT 4% BSA: Papp (B-A) - Batch Mean (10-6, cm/s)>


>  <MDCK-WT 4% BSA: Efflux Ratio - Batch Mean>


>  <MDCK-WT 4% BSA: ~Net A_B - Batch Mean (10-6, cm/s)>


>  <pIC50>
4.906578

>  <Selection_1>
Y

>  <Selection_N>


>  <Serie>
Naphthyridine

>  <Selection_T>
N

>  <Train_Vs_Test>


$$$$
