CTX-1020795
 OpenBabel08272613283D

 73 78  0  0  0  0  0  0  0  0999 V2000
    1.2364   -8.1872   -5.2435 Cl  0  0  0  0  0  0  0  0  0  0  0  0
    0.7812   -6.6534   -4.6637 C   0  0  0  0  0  0  0  0  0  0  0  0
    1.4858   -6.0208   -3.6076 C   0  0  0  0  0  0  0  0  0  0  0  0
   -0.3263   -5.9819   -5.2194 C   0  0  0  0  0  0  0  0  0  0  0  0
    2.6242   -6.4781   -2.9820 O   0  0  0  0  0  0  0  0  0  0  0  0
    1.0801   -4.8132   -3.0797 C   0  0  0  0  0  0  0  0  0  0  0  0
   -0.7343   -4.7465   -4.7293 C   0  0  0  0  0  0  0  0  0  0  0  0
    2.9800   -5.5504   -2.0271 C   0  0  0  0  0  0  0  0  0  0  0  0
    1.9898   -4.5296   -2.0064 C   0  0  0  0  0  0  0  0  0  0  0  0
   -0.0599   -4.1649   -3.6403 C   0  0  0  0  0  0  0  0  0  0  0  0
    4.2031   -5.7113   -1.1772 C   0  0  0  0  0  0  0  0  0  0  0  0
    1.7896   -3.3435   -1.1013 C   0  0  0  0  0  0  0  0  0  0  0  0
    4.4991   -4.7728   -0.4406 O   0  0  0  0  0  0  0  0  0  0  0  0
    5.0587   -6.9127   -1.0443 N   0  0  0  0  0  0  0  0  0  0  0  0
    5.5843   -8.1213   -1.9165 C   0  0  0  0  0  0  0  0  0  0  0  0
    5.5659   -7.0023    0.3167 C   0  0  0  0  0  0  0  0  0  0  0  0
    6.3910   -9.3045   -1.0348 C   0  0  0  0  0  0  0  0  0  0  0  0
    7.0508   -7.3229    0.3457 C   0  0  0  0  0  0  0  0  0  0  0  0
    6.3556  -10.6851   -1.2547 N   0  0  0  0  0  0  0  0  0  0  0  0
    7.0469   -8.7946    0.1013 C   0  0  0  0  0  0  0  0  0  0  0  0
    6.8586  -11.5050   -0.2239 C   0  0  0  0  0  0  0  0  0  0  0  0
    7.4821   -9.6373    1.1301 C   0  0  0  0  0  0  0  0  0  0  0  0
    6.9881  -13.0406   -0.2460 C   0  0  0  0  0  0  0  0  0  0  0  0
    7.3429  -10.9880    0.9835 C   0  0  0  0  0  0  0  0  0  0  0  0
    7.2920  -13.6213    0.8232 O   0  0  0  0  0  0  0  0  0  0  0  0
    6.8520  -13.7815   -1.3929 N   0  0  0  0  0  0  0  0  0  0  0  0
    7.0943  -15.2192   -1.3651 C   0  0  0  0  0  0  0  0  0  0  0  0
    5.8650  -15.9950   -1.7478 C   0  0  0  0  0  0  0  0  0  0  0  0
    5.6594  -16.3822   -3.0698 C   0  0  0  0  0  0  0  0  0  0  0  0
    4.8862  -16.3074   -0.8021 C   0  0  0  0  0  0  0  0  0  0  0  0
    4.5181  -17.1140   -3.4240 C   0  0  0  0  0  0  0  0  0  0  0  0
    3.7206  -16.9829   -1.1858 C   0  0  0  0  0  0  0  0  0  0  0  0
    3.5271  -17.4545   -2.4945 C   0  0  0  0  0  0  0  0  0  0  0  0
    2.4548  -18.2568   -2.8321 N   0  0  0  0  0  0  0  0  0  0  0  0
    1.7447  -19.0648   -1.8236 C   0  0  0  0  0  0  0  0  0  0  0  0
    1.8716  -18.3056   -4.1842 C   0  0  0  0  0  0  0  0  0  0  0  0
    1.5061  -20.5015   -2.3492 C   0  0  0  0  0  0  0  0  0  0  0  0
    1.6239  -19.7679   -4.6241 C   0  0  0  0  0  0  0  0  0  0  0  0
    0.7952  -20.5048   -3.6453 N   0  3  0  0  0  0  0  0  0  0  0  0
    0.5233  -21.8625   -4.0976 C   0  0  0  0  0  0  0  0  0  0  0  0
   -0.8421   -6.4137   -6.0021 H   0  0  0  0  0  0  0  0  0  0  0  0
   -1.5316   -4.2564   -5.1642 H   0  0  0  0  0  0  0  0  0  0  0  0
   -0.3900   -3.2696   -3.2472 H   0  0  0  0  0  0  0  0  0  0  0  0
    0.9198   -2.8021   -1.4099 H   0  0  0  0  0  0  0  0  0  0  0  0
    2.6458   -2.7041   -1.1565 H   0  0  0  0  0  0  0  0  0  0  0  0
    1.6609   -3.6811   -0.0942 H   0  0  0  0  0  0  0  0  0  0  0  0
    6.2560   -7.7359   -2.6548 H   0  0  0  0  0  0  0  0  0  0  0  0
    4.7232   -8.5896   -2.3456 H   0  0  0  0  0  0  0  0  0  0  0  0
    5.0349   -7.7737    0.8341 H   0  0  0  0  0  0  0  0  0  0  0  0
    5.4215   -6.0528    0.7885 H   0  0  0  0  0  0  0  0  0  0  0  0
    7.4825   -7.0864    1.2957 H   0  0  0  0  0  0  0  0  0  0  0  0
    7.6294   -6.7665   -0.3619 H   0  0  0  0  0  0  0  0  0  0  0  0
    7.9020   -9.2440    1.9869 H   0  0  0  0  0  0  0  0  0  0  0  0
    7.5931  -11.6231    1.7574 H   0  0  0  0  0  0  0  0  0  0  0  0
    6.5908  -13.3425   -2.2345 H   0  0  0  0  0  0  0  0  0  0  0  0
    7.3899  -15.5024   -0.3765 H   0  0  0  0  0  0  0  0  0  0  0  0
    7.8648  -15.4425   -2.0731 H   0  0  0  0  0  0  0  0  0  0  0  0
    6.3513  -16.1287   -3.7923 H   0  0  0  0  0  0  0  0  0  0  0  0
    5.0224  -16.0391    0.1851 H   0  0  0  0  0  0  0  0  0  0  0  0
    4.4037  -17.4130   -4.4051 H   0  0  0  0  0  0  0  0  0  0  0  0
    2.9801  -17.1390   -0.4842 H   0  0  0  0  0  0  0  0  0  0  0  0
    0.8017  -18.6080   -1.6069 H   0  0  0  0  0  0  0  0  0  0  0  0
    2.3425  -19.1155   -0.9376 H   0  0  0  0  0  0  0  0  0  0  0  0
    2.5455  -17.8414   -4.8737 H   0  0  0  0  0  0  0  0  0  0  0  0
    0.9352  -17.7881   -4.1724 H   0  0  0  0  0  0  0  0  0  0  0  0
    0.9209  -21.0390   -1.6326 H   0  0  0  0  0  0  0  0  0  0  0  0
    2.4601  -20.9638   -2.4939 H   0  0  0  0  0  0  0  0  0  0  0  0
    2.5668  -20.2642   -4.7224 H   0  0  0  0  0  0  0  0  0  0  0  0
    1.0990  -19.7497   -5.5564 H   0  0  0  0  0  0  0  0  0  0  0  0
   -0.1108  -20.0472   -3.5440 H   0  0  0  0  0  0  0  0  0  0  0  0
    1.4466  -22.3891   -4.2203 H   0  0  0  0  0  0  0  0  0  0  0  0
    0.0045  -21.8297   -5.0328 H   0  0  0  0  0  0  0  0  0  0  0  0
   -0.0808  -22.3660   -3.3721 H   0  0  0  0  0  0  0  0  0  0  0  0
  1  2  1  0  0  0  0
  2  3  2  0  0  0  0
  2  4  1  0  0  0  0
  3  5  1  0  0  0  0
  3  6  1  0  0  0  0
  4  7  2  0  0  0  0
  4 41  1  0  0  0  0
  5  8  1  0  0  0  0
  6  9  1  0  0  0  0
  6 10  2  0  0  0  0
  7 10  1  0  0  0  0
  7 42  1  0  0  0  0
  8 11  1  0  0  0  0
  8  9  2  0  0  0  0
  9 12  1  0  0  0  0
 10 43  1  0  0  0  0
 11 13  2  0  0  0  0
 11 14  1  0  0  0  0
 12 44  1  0  0  0  0
 12 45  1  0  0  0  0
 12 46  1  0  0  0  0
 14 15  1  0  0  0  0
 14 16  1  0  0  0  0
 15 17  1  0  0  0  0
 15 47  1  0  0  0  0
 15 48  1  0  0  0  0
 16 18  1  0  0  0  0
 16 49  1  0  0  0  0
 16 50  1  0  0  0  0
 17 19  2  0  0  0  0
 17 20  1  0  0  0  0
 18 20  1  0  0  0  0
 18 51  1  0  0  0  0
 18 52  1  0  0  0  0
 19 21  1  0  0  0  0
 20 22  2  0  0  0  0
 21 23  1  0  0  0  0
 21 24  2  0  0  0  0
 22 24  1  0  0  0  0
 22 53  1  0  0  0  0
 23 25  2  0  0  0  0
 23 26  1  0  0  0  0
 24 54  1  0  0  0  0
 26 27  1  0  0  0  0
 26 55  1  0  0  0  0
 27 28  1  0  0  0  0
 27 56  1  0  0  0  0
 27 57  1  0  0  0  0
 28 29  2  0  0  0  0
 28 30  1  0  0  0  0
 29 31  1  0  0  0  0
 29 58  1  0  0  0  0
 30 32  2  0  0  0  0
 30 59  1  0  0  0  0
 31 33  2  0  0  0  0
 31 60  1  0  0  0  0
 32 33  1  0  0  0  0
 32 61  1  0  0  0  0
 33 34  1  0  0  0  0
 34 35  1  0  0  0  0
 34 36  1  0  0  0  0
 35 37  1  0  0  0  0
 35 62  1  0  0  0  0
 35 63  1  0  0  0  0
 36 38  1  0  0  0  0
 36 64  1  0  0  0  0
 36 65  1  0  0  0  0
 37 39  1  0  0  0  0
 37 66  1  0  0  0  0
 37 67  1  0  0  0  0
 38 39  1  0  0  0  0
 38 68  1  0  0  0  0
 38 69  1  0  0  0  0
 39 40  1  0  0  0  0
 39 70  1  0  0  0  0
 40 71  1  0  0  0  0
 40 72  1  0  0  0  0
 40 73  1  0  0  0  0
M  CHG  1  39   1
M  END
>  <Molecule Name>
CTX-1020795

>  <SMILES>
CN1CCN(CC1)C1=CC=C(CNC(=O)C2=CC=C3CCN(CC3=N2)C(=O)C2=C(C)C3=C(O2)C(Cl)=CC=C3)C=C1

>  <Batch Name>
CTX-1020795-1

>  <Batch Created Date>
2021-12-24

>  <Batch ID>
CTX-1020795-1

>  <External ID>
CD-42-O

>  <Stereochemistry>
Achiral

>  <Amount 1>
2.3

>  <Unit 1>
mg

>  <CRO 1>
Pharmaron

>  <CRO 1 Total Amount>
13.3

>  <CRO 1 Unit>
mg

>  <Pharmaron Solubility (PBS, pH 7.4): Aqueous Solubility - Batch Mean (uM)>


>  <Pharmaron Solubility (PBS, pH 7.4): Aqueous Solubility - Batch Mean (uM) Standard Deviation (±)>


>  <Pharmaron Solubility (PBS, pH 7.4): Aqueous Solubility - Batch Mean (uM) Count>


>  <log P>
4.24

>  <log D>
3.6

>  <Pharmaron Caliper Assay (CDK2/CCNE1): Minimum measured (%)>
30.0

>  <Pharmaron Caliper Assay (CDK2/CCNE1): IC50 - Batch Mean (uM)>
18.7

>  <Pharmaron ADPGLO (CDK2/E1-25C): Minimum measured (%)>
81.4

>  <Pharmaron ADPGLO (CDK2/E1-25C): IC50 - Batch Mean (uM)>
10.0

>  <Pharmaron ADPGLO (CDK2/E1-37C): Minimum measured (%)>
110.0

>  <Pharmaron ADPGLO (CDK2/E1-37C): IC50 - Batch Mean (uM)>
10.0

>  <IncuCyte Kuramochi RB-WT: IC50 - Batch Mean (uM)>
8.78

>  <IncuCyte Kuramochi RB-KO: IC50 - Batch Mean (uM)>
6.74

>  <DSF (npCDK2/CCNE1): dTm D - Batch Mean [Concentration: 100]>


>  <DSF (npCDK2/CCNE1): dTm D - Batch Mean [Concentration: 20.0]>
0.828

>  <DSF (pCDK2/CCNE1): dTm D - Batch Mean [Concentration: 100]>


>  <DSF (pCDK2/CCNE1): dTm D - Batch Mean [Concentration: 20.0]>
0.21600000000000003

>  <RLM: t1/2 - Batch Mean (Min)>


>  <RLM: Cl int - Batch Mean (uL/min/mg protein)>


>  <RLM: ER (Hepatic extraction ratio) - Batch Mean>


>  <HLM: t1/2 - Batch Mean (Min)>


>  <HLM: Cl int - Batch Mean (uL/min/mg protein)>


>  <HLM: ER (Hepatic extraction ratio) - Batch Mean>


>  <MDCK-WT 4% BSA: Papp (A-B) - Batch Mean (10-6, cm/s)>


>  <MDCK-WT 4% BSA: Papp (B-A) - Batch Mean (10-6, cm/s)>


>  <MDCK-WT 4% BSA: Efflux Ratio - Batch Mean>


>  <MDCK-WT 4% BSA: ~Net A_B - Batch Mean (10-6, cm/s)>


>  <pIC50>
4.728158

>  <Selection_1>
Y

>  <Selection_N>


>  <Serie>
Naphthyridine

>  <Selection_T>
N

>  <Train_Vs_Test>


$$$$
