CTX-1020771
 OpenBabel08272613283D

 53 57  0  0  0  0  0  0  0  0999 V2000
    1.8726   -0.7011   -0.0012 S   0  0  0  0  0  0  0  0  0  0  0  0
    2.1903    0.9813    0.0511 C   0  0  0  0  0  0  0  0  0  0  0  0
    0.1954   -0.4467   -0.0335 C   0  0  0  0  0  0  0  0  0  0  0  0
    3.5378    1.5305    0.1208 C   0  0  0  0  0  0  0  0  0  0  0  0
    1.0096    1.7104    0.0256 C   0  0  0  0  0  0  0  0  0  0  0  0
   -0.1582    0.8894   -0.0323 C   0  0  0  0  0  0  0  0  0  0  0  0
   -0.7922   -1.5645   -0.0760 C   0  0  0  0  0  0  0  0  0  0  0  0
    3.7515    2.7416    0.1844 O   0  0  0  0  0  0  0  0  0  0  0  0
    4.5823    0.6353    0.1172 N   0  0  0  0  0  0  0  0  0  0  0  0
   -1.5912    1.3607   -0.0516 C   0  0  0  0  0  0  0  0  0  0  0  0
   -2.1627   -1.0259    0.3619 C   0  0  0  0  0  0  0  0  0  0  0  0
    5.9478    1.0874    0.1963 C   0  0  0  0  0  0  0  0  0  0  0  0
   -2.4866    0.2310   -0.3442 N   0  0  0  0  0  0  0  0  0  0  0  0
    6.8810   -0.0770    0.2100 C   0  0  0  0  0  0  0  0  0  0  0  0
   -3.4446    0.3836   -1.3561 C   0  0  0  0  0  0  0  0  0  0  0  0
    6.4265   -1.3830    0.1545 N   0  0  0  0  0  0  0  0  0  0  0  0
    8.2616   -0.0617    0.2792 C   0  0  0  0  0  0  0  0  0  0  0  0
   -3.4927    1.4252   -2.0169 O   0  0  0  0  0  0  0  0  0  0  0  0
   -4.3731   -0.7067   -1.6244 C   0  0  0  0  0  0  0  0  0  0  0  0
    7.5063   -2.1333    0.1946 C   0  0  0  0  0  0  0  0  0  0  0  0
    8.6384   -1.3732    0.2748 N   0  0  0  0  0  0  0  0  0  0  0  0
   -4.8327   -1.4630   -0.5797 O   0  0  0  0  0  0  0  0  0  0  0  0
   -4.9880   -1.1274   -2.8015 C   0  0  0  0  0  0  0  0  0  0  0  0
    9.9835   -1.8818    0.3470 C   0  0  0  0  0  0  0  0  0  0  0  0
   -5.6571   -2.4131   -1.0799 C   0  0  0  0  0  0  0  0  0  0  0  0
   -5.8244   -2.2325   -2.4433 C   0  0  0  0  0  0  0  0  0  0  0  0
   -4.8052   -0.5807   -4.1709 C   0  0  0  0  0  0  0  0  0  0  0  0
   -6.2524   -3.4280   -0.3361 C   0  0  0  0  0  0  0  0  0  0  0  0
   -6.6950   -3.1034   -3.1244 C   0  0  0  0  0  0  0  0  0  0  0  0
   -7.1014   -4.2911   -1.0331 C   0  0  0  0  0  0  0  0  0  0  0  0
   -7.3308   -4.1248   -2.4014 C   0  0  0  0  0  0  0  0  0  0  0  0
    0.9784    2.7417    0.0464 H   0  0  0  0  0  0  0  0  0  0  0  0
   -0.4826   -2.3442    0.5881 H   0  0  0  0  0  0  0  0  0  0  0  0
   -0.8550   -1.9587   -1.0687 H   0  0  0  0  0  0  0  0  0  0  0  0
    4.3937   -0.3292    0.0598 H   0  0  0  0  0  0  0  0  0  0  0  0
   -1.7078    2.1103   -0.8062 H   0  0  0  0  0  0  0  0  0  0  0  0
   -1.8405    1.7686    0.9056 H   0  0  0  0  0  0  0  0  0  0  0  0
   -2.1460   -0.8412    1.4157 H   0  0  0  0  0  0  0  0  0  0  0  0
   -2.9086   -1.7545    0.1215 H   0  0  0  0  0  0  0  0  0  0  0  0
    6.0797    1.6556    1.0933 H   0  0  0  0  0  0  0  0  0  0  0  0
    6.1626    1.6944   -0.6583 H   0  0  0  0  0  0  0  0  0  0  0  0
    8.8766    0.7658    0.3244 H   0  0  0  0  0  0  0  0  0  0  0  0
    7.4990   -3.1650    0.1688 H   0  0  0  0  0  0  0  0  0  0  0  0
   10.6715   -1.0642    0.4016 H   0  0  0  0  0  0  0  0  0  0  0  0
   10.1914   -2.4653   -0.5254 H   0  0  0  0  0  0  0  0  0  0  0  0
   10.0870   -2.4939    1.2185 H   0  0  0  0  0  0  0  0  0  0  0  0
   -4.1234    0.2433   -4.1379 H   0  0  0  0  0  0  0  0  0  0  0  0
   -5.7485   -0.2482   -4.5511 H   0  0  0  0  0  0  0  0  0  0  0  0
   -4.4120   -1.3436   -4.8099 H   0  0  0  0  0  0  0  0  0  0  0  0
   -6.0763   -3.5369    0.6749 H   0  0  0  0  0  0  0  0  0  0  0  0
   -6.8629   -2.9931   -4.1367 H   0  0  0  0  0  0  0  0  0  0  0  0
   -7.5660   -5.0631   -0.5299 H   0  0  0  0  0  0  0  0  0  0  0  0
   -7.9786   -4.7637   -2.8886 H   0  0  0  0  0  0  0  0  0  0  0  0
  1  2  1  0  0  0  0
  1  3  1  0  0  0  0
  2  4  1  0  0  0  0
  2  5  2  0  0  0  0
  3  6  2  0  0  0  0
  3  7  1  0  0  0  0
  4  8  2  0  0  0  0
  4  9  1  0  0  0  0
  5  6  1  0  0  0  0
  5 32  1  0  0  0  0
  6 10  1  0  0  0  0
  7 11  1  0  0  0  0
  7 33  1  0  0  0  0
  7 34  1  0  0  0  0
  9 12  1  0  0  0  0
  9 35  1  0  0  0  0
 10 13  1  0  0  0  0
 10 36  1  0  0  0  0
 10 37  1  0  0  0  0
 11 13  1  0  0  0  0
 11 38  1  0  0  0  0
 11 39  1  0  0  0  0
 12 14  1  0  0  0  0
 12 40  1  0  0  0  0
 12 41  1  0  0  0  0
 13 15  1  0  0  0  0
 14 16  1  0  0  0  0
 14 17  2  0  0  0  0
 15 18  2  0  0  0  0
 15 19  1  0  0  0  0
 16 20  2  0  0  0  0
 17 21  1  0  0  0  0
 17 42  1  0  0  0  0
 19 22  1  0  0  0  0
 19 23  2  0  0  0  0
 20 21  1  0  0  0  0
 20 43  1  0  0  0  0
 21 24  1  0  0  0  0
 22 25  1  0  0  0  0
 23 26  1  0  0  0  0
 23 27  1  0  0  0  0
 24 44  1  0  0  0  0
 24 45  1  0  0  0  0
 24 46  1  0  0  0  0
 25 28  2  0  0  0  0
 25 26  1  0  0  0  0
 26 29  2  0  0  0  0
 27 47  1  0  0  0  0
 27 48  1  0  0  0  0
 27 49  1  0  0  0  0
 28 30  1  0  0  0  0
 28 50  1  0  0  0  0
 29 31  1  0  0  0  0
 29 51  1  0  0  0  0
 30 31  2  0  0  0  0
 30 52  1  0  0  0  0
 31 53  1  0  0  0  0
M  END
>  <Molecule Name>
CTX-1020771

>  <SMILES>
CN1C=NC(CNC(=O)C2=CC3=C(CCN(C3)C(=O)C3=C(C)C4=C(O3)C=CC=C4)S2)=C1

>  <Batch Name>
CTX-1020771-1

>  <Batch Created Date>
2021-12-16

>  <Batch ID>
CTX-1020771-1

>  <External ID>
P841-0352

>  <Stereochemistry>
Achiral

>  <Amount 1>
4.5

>  <Unit 1>
mg

>  <CRO 1>
Pharmaron

>  <CRO 1 Total Amount>
20.05

>  <CRO 1 Unit>
mg

>  <Pharmaron Solubility (PBS, pH 7.4): Aqueous Solubility - Batch Mean (uM)>
29.6438

>  <Pharmaron Solubility (PBS, pH 7.4): Aqueous Solubility - Batch Mean (uM) Standard Deviation (±)>


>  <Pharmaron Solubility (PBS, pH 7.4): Aqueous Solubility - Batch Mean (uM) Count>
1.0

>  <log P>
2.66

>  <log D>
2.65

>  <Pharmaron Caliper Assay (CDK2/CCNE1): Minimum measured (%)>
36.1

>  <Pharmaron Caliper Assay (CDK2/CCNE1): IC50 - Batch Mean (uM)>
11.2

>  <Pharmaron ADPGLO (CDK2/E1-25C): Minimum measured (%)>


>  <Pharmaron ADPGLO (CDK2/E1-25C): IC50 - Batch Mean (uM)>


>  <Pharmaron ADPGLO (CDK2/E1-37C): Minimum measured (%)>


>  <Pharmaron ADPGLO (CDK2/E1-37C): IC50 - Batch Mean (uM)>


>  <IncuCyte Kuramochi RB-WT: IC50 - Batch Mean (uM)>
20.0

>  <IncuCyte Kuramochi RB-KO: IC50 - Batch Mean (uM)>
20.0

>  <DSF (npCDK2/CCNE1): dTm D - Batch Mean [Concentration: 100]>


>  <DSF (npCDK2/CCNE1): dTm D - Batch Mean [Concentration: 20.0]>
1.256

>  <DSF (pCDK2/CCNE1): dTm D - Batch Mean [Concentration: 100]>


>  <DSF (pCDK2/CCNE1): dTm D - Batch Mean [Concentration: 20.0]>


>  <RLM: t1/2 - Batch Mean (Min)>


>  <RLM: Cl int - Batch Mean (uL/min/mg protein)>


>  <RLM: ER (Hepatic extraction ratio) - Batch Mean>


>  <HLM: t1/2 - Batch Mean (Min)>


>  <HLM: Cl int - Batch Mean (uL/min/mg protein)>


>  <HLM: ER (Hepatic extraction ratio) - Batch Mean>


>  <MDCK-WT 4% BSA: Papp (A-B) - Batch Mean (10-6, cm/s)>


>  <MDCK-WT 4% BSA: Papp (B-A) - Batch Mean (10-6, cm/s)>


>  <MDCK-WT 4% BSA: Efflux Ratio - Batch Mean>


>  <MDCK-WT 4% BSA: ~Net A_B - Batch Mean (10-6, cm/s)>


>  <pIC50>
4.950782

>  <Selection_1>
Y

>  <Selection_N>
N

>  <Serie>
Tetrahydrothienopyridine

>  <Selection_T>


>  <Train_Vs_Test>


$$$$
