CTX-1020816
 OpenBabel08272613283D

 72 77  0  0  0  0  0  0  0  0999 V2000
    1.8710   -0.7227   -0.0066 S   0  0  0  0  0  0  0  0  0  0  0  0
    2.1978    0.9584    0.0840 C   0  0  0  0  0  0  0  0  0  0  0  0
    0.1903   -0.4606    0.0192 C   0  0  0  0  0  0  0  0  0  0  0  0
    3.5377    1.5271    0.0793 C   0  0  0  0  0  0  0  0  0  0  0  0
    1.0265    1.6886    0.1561 C   0  0  0  0  0  0  0  0  0  0  0  0
   -0.1388    0.8738    0.1307 C   0  0  0  0  0  0  0  0  0  0  0  0
   -0.8178   -1.5543   -0.1346 C   0  0  0  0  0  0  0  0  0  0  0  0
    3.7263    2.7420    0.1019 O   0  0  0  0  0  0  0  0  0  0  0  0
    4.5841    0.6357    0.0550 N   0  0  0  0  0  0  0  0  0  0  0  0
   -1.5408    1.3808    0.1528 C   0  0  0  0  0  0  0  0  0  0  0  0
   -2.2243   -1.0125    0.1715 C   0  0  0  0  0  0  0  0  0  0  0  0
    5.9630    1.0664    0.0839 C   0  0  0  0  0  0  0  0  0  0  0  0
   -2.4499    0.3607   -0.3195 N   0  0  0  0  0  0  0  0  0  0  0  0
    6.7024    0.6405   -1.1554 C   0  0  0  0  0  0  0  0  0  0  0  0
   -3.6674    0.6362   -0.9293 C   0  0  0  0  0  0  0  0  0  0  0  0
    6.2759    1.0750   -2.4122 C   0  0  0  0  0  0  0  0  0  0  0  0
    7.8555   -0.1503   -1.0781 C   0  0  0  0  0  0  0  0  0  0  0  0
   -4.3152   -0.3107   -1.3906 O   0  0  0  0  0  0  0  0  0  0  0  0
   -4.2157    2.0133   -1.0313 C   0  0  0  0  0  0  0  0  0  0  0  0
    6.9716    0.6951   -3.5598 C   0  0  0  0  0  0  0  0  0  0  0  0
    8.5546   -0.5180   -2.2385 C   0  0  0  0  0  0  0  0  0  0  0  0
   -5.5973    1.9457   -1.2340 O   0  0  0  0  0  0  0  0  0  0  0  0
   -3.8299    3.1260   -1.7983 C   0  0  0  0  0  0  0  0  0  0  0  0
    8.1128   -0.1211   -3.5035 C   0  0  0  0  0  0  0  0  0  0  0  0
   -5.7382    2.2345   -2.5599 C   0  0  0  0  0  0  0  0  0  0  0  0
   -4.6383    2.9785   -2.9682 C   0  0  0  0  0  0  0  0  0  0  0  0
   -2.7888    4.1698   -1.6164 C   0  0  0  0  0  0  0  0  0  0  0  0
    8.7478   -0.4542   -4.6917 N   0  0  0  0  0  0  0  0  0  0  0  0
   -6.7563    1.8148   -3.4051 C   0  0  0  0  0  0  0  0  0  0  0  0
   -4.5615    3.3894   -4.3070 C   0  0  0  0  0  0  0  0  0  0  0  0
   10.1683   -0.8349   -4.7307 C   0  0  0  0  0  0  0  0  0  0  0  0
    7.9337   -1.2286   -5.6514 C   0  0  0  0  0  0  0  0  0  0  0  0
   -7.8395    1.0455   -2.8940 C   0  0  0  0  0  0  0  0  0  0  0  0
   -6.5932    2.1087   -4.7590 C   0  0  0  0  0  0  0  0  0  0  0  0
   -5.5143    2.8837   -5.2039 C   0  0  0  0  0  0  0  0  0  0  0  0
   10.6990   -0.6363   -6.1776 C   0  0  0  0  0  0  0  0  0  0  0  0
    8.4849   -1.0078   -7.0755 C   0  0  0  0  0  0  0  0  0  0  0  0
   -8.7404    0.4367   -2.4915 N   0  0  0  0  0  0  0  0  0  0  0  0
    9.9131   -1.3844   -7.1908 N   0  3  0  0  0  0  0  0  0  0  0  0
   10.4009   -1.1037   -8.5389 C   0  0  0  0  0  0  0  0  0  0  0  0
    1.0002    2.7182    0.2215 H   0  0  0  0  0  0  0  0  0  0  0  0
   -0.5872   -2.3482    0.5448 H   0  0  0  0  0  0  0  0  0  0  0  0
   -0.7912   -1.9209   -1.1395 H   0  0  0  0  0  0  0  0  0  0  0  0
    4.3874   -0.3282    0.0167 H   0  0  0  0  0  0  0  0  0  0  0  0
   -1.6153    2.2406   -0.4797 H   0  0  0  0  0  0  0  0  0  0  0  0
   -1.8012    1.6415    1.1574 H   0  0  0  0  0  0  0  0  0  0  0  0
   -2.3659   -1.0198    1.2321 H   0  0  0  0  0  0  0  0  0  0  0  0
   -2.9211   -1.6454   -0.3372 H   0  0  0  0  0  0  0  0  0  0  0  0
    6.4428    0.6380    0.9390 H   0  0  0  0  0  0  0  0  0  0  0  0
    5.9787    2.1352    0.1322 H   0  0  0  0  0  0  0  0  0  0  0  0
    5.4431    1.6792   -2.4920 H   0  0  0  0  0  0  0  0  0  0  0  0
    8.1955   -0.4668   -0.1565 H   0  0  0  0  0  0  0  0  0  0  0  0
    6.6372    1.0241   -4.4790 H   0  0  0  0  0  0  0  0  0  0  0  0
    9.4089   -1.0910   -2.1561 H   0  0  0  0  0  0  0  0  0  0  0  0
   -2.3344    4.0564   -0.6543 H   0  0  0  0  0  0  0  0  0  0  0  0
   -3.2386    5.1381   -1.6865 H   0  0  0  0  0  0  0  0  0  0  0  0
   -2.0436    4.0667   -2.3772 H   0  0  0  0  0  0  0  0  0  0  0  0
   -3.8276    4.0429   -4.6222 H   0  0  0  0  0  0  0  0  0  0  0  0
   10.2738   -1.8611   -4.4465 H   0  0  0  0  0  0  0  0  0  0  0  0
   10.7272   -0.2261   -4.0511 H   0  0  0  0  0  0  0  0  0  0  0  0
    6.9166   -0.8993   -5.6058 H   0  0  0  0  0  0  0  0  0  0  0  0
    7.9788   -2.2689   -5.4049 H   0  0  0  0  0  0  0  0  0  0  0  0
   -7.2775    1.7498   -5.4430 H   0  0  0  0  0  0  0  0  0  0  0  0
   -5.4186    3.0866   -6.2112 H   0  0  0  0  0  0  0  0  0  0  0  0
   11.7142   -0.9718   -6.2176 H   0  0  0  0  0  0  0  0  0  0  0  0
   10.6132    0.4046   -6.4102 H   0  0  0  0  0  0  0  0  0  0  0  0
    8.3804    0.0267   -7.3283 H   0  0  0  0  0  0  0  0  0  0  0  0
    7.9272   -1.6315   -7.7425 H   0  0  0  0  0  0  0  0  0  0  0  0
   10.0190   -2.3844   -7.0199 H   0  0  0  0  0  0  0  0  0  0  0  0
   10.3007   -0.0583   -8.7439 H   0  0  0  0  0  0  0  0  0  0  0  0
    9.8284   -1.6629   -9.2490 H   0  0  0  0  0  0  0  0  0  0  0  0
   11.4310   -1.3841   -8.6110 H   0  0  0  0  0  0  0  0  0  0  0  0
  1  2  1  0  0  0  0
  1  3  1  0  0  0  0
  2  4  1  0  0  0  0
  2  5  2  0  0  0  0
  3  6  2  0  0  0  0
  3  7  1  0  0  0  0
  4  8  2  0  0  0  0
  4  9  1  0  0  0  0
  5  6  1  0  0  0  0
  5 41  1  0  0  0  0
  6 10  1  0  0  0  0
  7 11  1  0  0  0  0
  7 42  1  0  0  0  0
  7 43  1  0  0  0  0
  9 12  1  0  0  0  0
  9 44  1  0  0  0  0
 10 13  1  0  0  0  0
 10 45  1  0  0  0  0
 10 46  1  0  0  0  0
 11 13  1  0  0  0  0
 11 47  1  0  0  0  0
 11 48  1  0  0  0  0
 12 14  1  0  0  0  0
 12 49  1  0  0  0  0
 12 50  1  0  0  0  0
 13 15  1  0  0  0  0
 14 16  2  0  0  0  0
 14 17  1  0  0  0  0
 15 18  2  0  0  0  0
 15 19  1  0  0  0  0
 16 20  1  0  0  0  0
 16 51  1  0  0  0  0
 17 21  2  0  0  0  0
 17 52  1  0  0  0  0
 19 22  1  0  0  0  0
 19 23  2  0  0  0  0
 20 24  2  0  0  0  0
 20 53  1  0  0  0  0
 21 24  1  0  0  0  0
 21 54  1  0  0  0  0
 22 25  1  0  0  0  0
 23 26  1  0  0  0  0
 23 27  1  0  0  0  0
 24 28  1  0  0  0  0
 25 29  2  0  0  0  0
 25 26  1  0  0  0  0
 26 30  2  0  0  0  0
 27 55  1  0  0  0  0
 27 56  1  0  0  0  0
 27 57  1  0  0  0  0
 28 31  1  0  0  0  0
 28 32  1  0  0  0  0
 29 33  1  0  0  0  0
 29 34  1  0  0  0  0
 30 35  1  0  0  0  0
 30 58  1  0  0  0  0
 31 36  1  0  0  0  0
 31 59  1  0  0  0  0
 31 60  1  0  0  0  0
 32 37  1  0  0  0  0
 32 61  1  0  0  0  0
 32 62  1  0  0  0  0
 33 38  3  0  0  0  0
 34 35  2  0  0  0  0
 34 63  1  0  0  0  0
 35 64  1  0  0  0  0
 36 39  1  0  0  0  0
 36 65  1  0  0  0  0
 36 66  1  0  0  0  0
 37 39  1  0  0  0  0
 37 67  1  0  0  0  0
 37 68  1  0  0  0  0
 39 40  1  0  0  0  0
 39 69  1  0  0  0  0
 40 70  1  0  0  0  0
 40 71  1  0  0  0  0
 40 72  1  0  0  0  0
M  CHG  1  39   1
M  END
>  <Molecule Name>
CTX-1020816

>  <SMILES>
CN1CCN(CC1)C1=CC=C(CNC(=O)C2=CC3=C(CCN(C3)C(=O)C3=C(C)C4=CC=CC(C#N)=C4O3)S2)C=C1

>  <Batch Name>
CTX-1020816-1

>  <Batch Created Date>
2021-12-30

>  <Batch ID>
CTX-1020816-1

>  <External ID>
CD-44-2-G-5

>  <Stereochemistry>
Achiral

>  <Amount 1>
2.0

>  <Unit 1>
mg

>  <CRO 1>
Pharmaron

>  <CRO 1 Total Amount>
16.9

>  <CRO 1 Unit>
mg

>  <Pharmaron Solubility (PBS, pH 7.4): Aqueous Solubility - Batch Mean (uM)>
4.5678

>  <Pharmaron Solubility (PBS, pH 7.4): Aqueous Solubility - Batch Mean (uM) Standard Deviation (±)>


>  <Pharmaron Solubility (PBS, pH 7.4): Aqueous Solubility - Batch Mean (uM) Count>
1.0

>  <log P>
4.28

>  <log D>
3.65

>  <Pharmaron Caliper Assay (CDK2/CCNE1): Minimum measured (%)>
27.1

>  <Pharmaron Caliper Assay (CDK2/CCNE1): IC50 - Batch Mean (uM)>
8.98

>  <Pharmaron ADPGLO (CDK2/E1-25C): Minimum measured (%)>
58.7

>  <Pharmaron ADPGLO (CDK2/E1-25C): IC50 - Batch Mean (uM)>
9.95

>  <Pharmaron ADPGLO (CDK2/E1-37C): Minimum measured (%)>
108.0

>  <Pharmaron ADPGLO (CDK2/E1-37C): IC50 - Batch Mean (uM)>
100

>  <IncuCyte Kuramochi RB-WT: IC50 - Batch Mean (uM)>
10.8

>  <IncuCyte Kuramochi RB-KO: IC50 - Batch Mean (uM)>
7.9

>  <DSF (npCDK2/CCNE1): dTm D - Batch Mean [Concentration: 100]>


>  <DSF (npCDK2/CCNE1): dTm D - Batch Mean [Concentration: 20.0]>
1.77

>  <DSF (pCDK2/CCNE1): dTm D - Batch Mean [Concentration: 100]>


>  <DSF (pCDK2/CCNE1): dTm D - Batch Mean [Concentration: 20.0]>
0.9

>  <RLM: t1/2 - Batch Mean (Min)>


>  <RLM: Cl int - Batch Mean (uL/min/mg protein)>


>  <RLM: ER (Hepatic extraction ratio) - Batch Mean>


>  <HLM: t1/2 - Batch Mean (Min)>


>  <HLM: Cl int - Batch Mean (uL/min/mg protein)>


>  <HLM: ER (Hepatic extraction ratio) - Batch Mean>


>  <MDCK-WT 4% BSA: Papp (A-B) - Batch Mean (10-6, cm/s)>


>  <MDCK-WT 4% BSA: Papp (B-A) - Batch Mean (10-6, cm/s)>


>  <MDCK-WT 4% BSA: Efflux Ratio - Batch Mean>


>  <MDCK-WT 4% BSA: ~Net A_B - Batch Mean (10-6, cm/s)>


>  <pIC50>
5.046724

>  <Selection_1>
Y

>  <Selection_N>
N

>  <Serie>
Tetrahydrothienopyridine

>  <Selection_T>


>  <Train_Vs_Test>


$$$$
