CTX-1020770
 OpenBabel08272613283D

 49 53  0  0  0  0  0  0  0  0999 V2000
    1.8828   -0.6982    0.0019 S   0  0  0  0  0  0  0  0  0  0  0  0
    2.1971    0.9854    0.0474 C   0  0  0  0  0  0  0  0  0  0  0  0
    0.2061   -0.4453   -0.0344 C   0  0  0  0  0  0  0  0  0  0  0  0
    3.5441    1.5330    0.1159 C   0  0  0  0  0  0  0  0  0  0  0  0
    1.0173    1.7133    0.0181 C   0  0  0  0  0  0  0  0  0  0  0  0
   -0.1493    0.8896   -0.0367 C   0  0  0  0  0  0  0  0  0  0  0  0
   -0.7798   -1.5651   -0.0768 C   0  0  0  0  0  0  0  0  0  0  0  0
    3.7627    2.7426    0.1747 O   0  0  0  0  0  0  0  0  0  0  0  0
    4.5864    0.6358    0.1156 N   0  0  0  0  0  0  0  0  0  0  0  0
   -1.5829    1.3590   -0.0584 C   0  0  0  0  0  0  0  0  0  0  0  0
   -2.1519   -1.0282    0.3587 C   0  0  0  0  0  0  0  0  0  0  0  0
    5.9520    1.0895    0.1909 C   0  0  0  0  0  0  0  0  0  0  0  0
   -2.4767    0.2272   -0.3481 N   0  0  0  0  0  0  0  0  0  0  0  0
    6.8947   -0.0729    0.1941 C   0  0  0  0  0  0  0  0  0  0  0  0
   -3.4443    0.3835   -1.3522 C   0  0  0  0  0  0  0  0  0  0  0  0
    6.4039   -1.3779    0.1420 N   0  0  0  0  0  0  0  0  0  0  0  0
    8.2751    0.0188    0.2487 C   0  0  0  0  0  0  0  0  0  0  0  0
   -3.4969    1.4269   -2.0067 O   0  0  0  0  0  0  0  0  0  0  0  0
   -4.3741   -0.7062   -1.6194 C   0  0  0  0  0  0  0  0  0  0  0  0
    7.4090   -2.2266    0.1586 C   0  0  0  0  0  0  0  0  0  0  0  0
    8.9788   -1.5431    0.2353 S   0  0  0  0  0  0  0  0  0  0  0  0
   -4.8342   -1.4617   -0.5749 O   0  0  0  0  0  0  0  0  0  0  0  0
   -4.9912   -1.1239   -2.7968 C   0  0  0  0  0  0  0  0  0  0  0  0
   -5.6594   -2.4110   -1.0757 C   0  0  0  0  0  0  0  0  0  0  0  0
   -5.8234   -2.2331   -2.4400 C   0  0  0  0  0  0  0  0  0  0  0  0
   -4.8127   -0.5734   -4.1655 C   0  0  0  0  0  0  0  0  0  0  0  0
   -6.2566   -3.4251   -0.3321 C   0  0  0  0  0  0  0  0  0  0  0  0
   -6.6871   -3.1096   -3.1232 C   0  0  0  0  0  0  0  0  0  0  0  0
   -7.0963   -4.2954   -1.0314 C   0  0  0  0  0  0  0  0  0  0  0  0
   -7.3189   -4.1345   -2.4015 C   0  0  0  0  0  0  0  0  0  0  0  0
    0.9849    2.7446    0.0343 H   0  0  0  0  0  0  0  0  0  0  0  0
   -0.4698   -2.3436    0.5886 H   0  0  0  0  0  0  0  0  0  0  0  0
   -0.8407   -1.9607   -1.0692 H   0  0  0  0  0  0  0  0  0  0  0  0
    4.3970   -0.3289    0.0633 H   0  0  0  0  0  0  0  0  0  0  0  0
   -1.7000    2.1062   -0.8153 H   0  0  0  0  0  0  0  0  0  0  0  0
   -1.8333    1.7695    0.8975 H   0  0  0  0  0  0  0  0  0  0  0  0
   -2.1369   -0.8429    1.4124 H   0  0  0  0  0  0  0  0  0  0  0  0
   -2.8962   -1.7581    0.1173 H   0  0  0  0  0  0  0  0  0  0  0  0
    6.0861    1.6532    1.0904 H   0  0  0  0  0  0  0  0  0  0  0  0
    6.1601    1.6995   -0.6632 H   0  0  0  0  0  0  0  0  0  0  0  0
    8.8053    0.9032    0.2914 H   0  0  0  0  0  0  0  0  0  0  0  0
    7.2605   -3.2474    0.1271 H   0  0  0  0  0  0  0  0  0  0  0  0
   -4.1338    0.2529   -4.1318 H   0  0  0  0  0  0  0  0  0  0  0  0
   -5.7578   -0.2433   -4.5432 H   0  0  0  0  0  0  0  0  0  0  0  0
   -4.4180   -1.3335   -4.8069 H   0  0  0  0  0  0  0  0  0  0  0  0
   -6.0882   -3.5283    0.6808 H   0  0  0  0  0  0  0  0  0  0  0  0
   -6.8528   -3.0009   -4.1360 H   0  0  0  0  0  0  0  0  0  0  0  0
   -7.5591   -5.0687   -0.5287 H   0  0  0  0  0  0  0  0  0  0  0  0
   -7.9585   -4.7798   -2.8909 H   0  0  0  0  0  0  0  0  0  0  0  0
  1  2  1  0  0  0  0
  1  3  1  0  0  0  0
  2  4  1  0  0  0  0
  2  5  2  0  0  0  0
  3  6  2  0  0  0  0
  3  7  1  0  0  0  0
  4  8  2  0  0  0  0
  4  9  1  0  0  0  0
  5  6  1  0  0  0  0
  5 31  1  0  0  0  0
  6 10  1  0  0  0  0
  7 11  1  0  0  0  0
  7 32  1  0  0  0  0
  7 33  1  0  0  0  0
  9 12  1  0  0  0  0
  9 34  1  0  0  0  0
 10 13  1  0  0  0  0
 10 35  1  0  0  0  0
 10 36  1  0  0  0  0
 11 13  1  0  0  0  0
 11 37  1  0  0  0  0
 11 38  1  0  0  0  0
 12 14  1  0  0  0  0
 12 39  1  0  0  0  0
 12 40  1  0  0  0  0
 13 15  1  0  0  0  0
 14 16  1  0  0  0  0
 14 17  2  0  0  0  0
 15 18  2  0  0  0  0
 15 19  1  0  0  0  0
 16 20  2  0  0  0  0
 17 21  1  0  0  0  0
 17 41  1  0  0  0  0
 19 22  1  0  0  0  0
 19 23  2  0  0  0  0
 20 21  1  0  0  0  0
 20 42  1  0  0  0  0
 22 24  1  0  0  0  0
 23 25  1  0  0  0  0
 23 26  1  0  0  0  0
 24 27  2  0  0  0  0
 24 25  1  0  0  0  0
 25 28  2  0  0  0  0
 26 43  1  0  0  0  0
 26 44  1  0  0  0  0
 26 45  1  0  0  0  0
 27 29  1  0  0  0  0
 27 46  1  0  0  0  0
 28 30  1  0  0  0  0
 28 47  1  0  0  0  0
 29 30  2  0  0  0  0
 29 48  1  0  0  0  0
 30 49  1  0  0  0  0
M  END
>  <Molecule Name>
CTX-1020770

>  <SMILES>
CC1=C(OC2=C1C=CC=C2)C(=O)N1CCC2=C(C1)C=C(S2)C(=O)NCC1=CSC=N1

>  <Batch Name>
CTX-1020770-1

>  <Batch Created Date>
2021-12-16

>  <Batch ID>
CTX-1020770-1

>  <External ID>
P841-0351

>  <Stereochemistry>
Achiral

>  <Amount 1>
2.45

>  <Unit 1>
mg

>  <CRO 1>
Pharmaron

>  <CRO 1 Total Amount>
11.65

>  <CRO 1 Unit>
mg

>  <Pharmaron Solubility (PBS, pH 7.4): Aqueous Solubility - Batch Mean (uM)>
2.8527

>  <Pharmaron Solubility (PBS, pH 7.4): Aqueous Solubility - Batch Mean (uM) Standard Deviation (±)>


>  <Pharmaron Solubility (PBS, pH 7.4): Aqueous Solubility - Batch Mean (uM) Count>
1.0

>  <log P>
3.21

>  <log D>
3.21

>  <Pharmaron Caliper Assay (CDK2/CCNE1): Minimum measured (%)>
46.0

>  <Pharmaron Caliper Assay (CDK2/CCNE1): IC50 - Batch Mean (uM)>
28.3

>  <Pharmaron ADPGLO (CDK2/E1-25C): Minimum measured (%)>


>  <Pharmaron ADPGLO (CDK2/E1-25C): IC50 - Batch Mean (uM)>


>  <Pharmaron ADPGLO (CDK2/E1-37C): Minimum measured (%)>


>  <Pharmaron ADPGLO (CDK2/E1-37C): IC50 - Batch Mean (uM)>


>  <IncuCyte Kuramochi RB-WT: IC50 - Batch Mean (uM)>
20.0

>  <IncuCyte Kuramochi RB-KO: IC50 - Batch Mean (uM)>
20.0

>  <DSF (npCDK2/CCNE1): dTm D - Batch Mean [Concentration: 100]>


>  <DSF (npCDK2/CCNE1): dTm D - Batch Mean [Concentration: 20.0]>
1.055

>  <DSF (pCDK2/CCNE1): dTm D - Batch Mean [Concentration: 100]>


>  <DSF (pCDK2/CCNE1): dTm D - Batch Mean [Concentration: 20.0]>


>  <RLM: t1/2 - Batch Mean (Min)>


>  <RLM: Cl int - Batch Mean (uL/min/mg protein)>


>  <RLM: ER (Hepatic extraction ratio) - Batch Mean>


>  <HLM: t1/2 - Batch Mean (Min)>


>  <HLM: Cl int - Batch Mean (uL/min/mg protein)>


>  <HLM: ER (Hepatic extraction ratio) - Batch Mean>


>  <MDCK-WT 4% BSA: Papp (A-B) - Batch Mean (10-6, cm/s)>


>  <MDCK-WT 4% BSA: Papp (B-A) - Batch Mean (10-6, cm/s)>


>  <MDCK-WT 4% BSA: Efflux Ratio - Batch Mean>


>  <MDCK-WT 4% BSA: ~Net A_B - Batch Mean (10-6, cm/s)>


>  <pIC50>
4.548214

>  <Selection_1>
Y

>  <Selection_N>
N

>  <Serie>
Tetrahydrothienopyridine

>  <Selection_T>


>  <Train_Vs_Test>


$$$$
