CTX-1020755
 OpenBabel08272613283D

 77 82  0  0  0  0  0  0  0  0999 V2000
    1.1214    0.1162    0.1918 O   0  0  0  0  0  0  0  0  0  0  0  0
    2.3014   -0.0805   -0.1026 C   0  0  0  0  0  0  0  0  0  0  0  0
    3.0293   -1.1446    0.3845 N   0  0  0  0  0  0  0  0  0  0  0  0
    3.0096    0.8913   -0.9914 C   0  0  0  0  0  0  0  0  0  0  0  0
    2.4443   -2.0589    1.3450 C   0  0  0  0  0  0  0  0  0  0  0  0
    3.9920    0.4358   -1.8196 N   0  0  0  0  0  0  0  0  0  0  0  0
    2.5649    2.2086   -0.9577 C   0  0  0  0  0  0  0  0  0  0  0  0
    2.5779   -1.5699    2.7667 C   0  0  0  0  0  0  0  0  0  0  0  0
    4.5022    1.3404   -2.7079 C   0  0  0  0  0  0  0  0  0  0  0  0
    3.1479    3.1278   -1.8156 C   0  0  0  0  0  0  0  0  0  0  0  0
    1.5837   -0.7743    3.3434 C   0  0  0  0  0  0  0  0  0  0  0  0
    3.6924   -1.8911    3.5439 C   0  0  0  0  0  0  0  0  0  0  0  0
    4.1304    2.7018   -2.7054 C   0  0  0  0  0  0  0  0  0  0  0  0
    5.5283    0.8436   -3.7252 C   0  0  0  0  0  0  0  0  0  0  0  0
    1.6978   -0.3279    4.6667 C   0  0  0  0  0  0  0  0  0  0  0  0
    3.7970   -1.4354    4.8682 C   0  0  0  0  0  0  0  0  0  0  0  0
    4.7048    3.6932   -3.6929 C   0  0  0  0  0  0  0  0  0  0  0  0
    5.7190    1.7976   -4.8211 N   0  0  0  0  0  0  0  0  0  0  0  0
    2.8031   -0.6475    5.4679 C   0  0  0  0  0  0  0  0  0  0  0  0
    5.9662    3.1623   -4.3658 C   0  0  0  0  0  0  0  0  0  0  0  0
    5.4856    1.5867   -6.1860 C   0  0  0  0  0  0  0  0  0  0  0  0
    2.8528   -0.2594    6.7928 N   0  0  0  0  0  0  0  0  0  0  0  0
    5.6776    2.5237   -6.9667 O   0  0  0  0  0  0  0  0  0  0  0  0
    5.0643    0.2878   -6.6947 C   0  0  0  0  0  0  0  0  0  0  0  0
    3.6963   -0.9507    7.7788 C   0  0  0  0  0  0  0  0  0  0  0  0
    2.4289    1.0878    7.2189 C   0  0  0  0  0  0  0  0  0  0  0  0
    4.1114   -0.4690   -6.0417 O   0  0  0  0  0  0  0  0  0  0  0  0
    5.3848   -0.3187   -7.9098 C   0  0  0  0  0  0  0  0  0  0  0  0
    2.9624   -0.9942    9.1394 C   0  0  0  0  0  0  0  0  0  0  0  0
    1.7349    1.0073    8.6004 C   0  0  0  0  0  0  0  0  0  0  0  0
    3.8361   -1.5262   -6.8494 C   0  0  0  0  0  0  0  0  0  0  0  0
    4.5617   -1.4656   -8.0129 C   0  0  0  0  0  0  0  0  0  0  0  0
    6.3573    0.1284   -8.9374 C   0  0  0  0  0  0  0  0  0  0  0  0
    2.5878    0.3541    9.6215 N   0  3  0  0  0  0  0  0  0  0  0  0
    2.8084   -2.5377   -6.4935 C   0  0  0  0  0  0  0  0  0  0  0  0
    4.4181   -2.4629   -9.1065 C   0  0  0  0  0  0  0  0  0  0  0  0
    1.8896    0.2616   10.8973 C   0  0  0  0  0  0  0  0  0  0  0  0
    2.8991   -3.7210   -7.4916 C   0  0  0  0  0  0  0  0  0  0  0  0
    3.1069   -3.2534   -8.9477 C   0  0  0  0  0  0  0  0  0  0  0  0
    3.9541   -1.2848    0.0775 H   0  0  0  0  0  0  0  0  0  0  0  0
    2.9358   -3.0055    1.2604 H   0  0  0  0  0  0  0  0  0  0  0  0
    1.4000   -2.1358    1.1252 H   0  0  0  0  0  0  0  0  0  0  0  0
    1.8166    2.4956   -0.3076 H   0  0  0  0  0  0  0  0  0  0  0  0
    2.8567    4.1176   -1.7951 H   0  0  0  0  0  0  0  0  0  0  0  0
    0.7548   -0.5122    2.7873 H   0  0  0  0  0  0  0  0  0  0  0  0
    4.4466   -2.4690    3.1413 H   0  0  0  0  0  0  0  0  0  0  0  0
    5.1898   -0.0866   -4.1316 H   0  0  0  0  0  0  0  0  0  0  0  0
    6.4648    0.7269   -3.2210 H   0  0  0  0  0  0  0  0  0  0  0  0
    0.9443    0.2546    5.0643 H   0  0  0  0  0  0  0  0  0  0  0  0
    4.6326   -1.6885    5.4184 H   0  0  0  0  0  0  0  0  0  0  0  0
    4.9444    4.5981   -3.1745 H   0  0  0  0  0  0  0  0  0  0  0  0
    3.9717    3.8656   -4.4530 H   0  0  0  0  0  0  0  0  0  0  0  0
    6.7758    3.1668   -3.6663 H   0  0  0  0  0  0  0  0  0  0  0  0
    6.2214    3.7826   -5.1996 H   0  0  0  0  0  0  0  0  0  0  0  0
    4.6217   -0.4248    7.8886 H   0  0  0  0  0  0  0  0  0  0  0  0
    3.8924   -1.9484    7.4455 H   0  0  0  0  0  0  0  0  0  0  0  0
    1.7446    1.4886    6.5006 H   0  0  0  0  0  0  0  0  0  0  0  0
    3.2879    1.7217    7.2917 H   0  0  0  0  0  0  0  0  0  0  0  0
    3.6053   -1.4513    9.8622 H   0  0  0  0  0  0  0  0  0  0  0  0
    2.0610   -1.5552    9.0061 H   0  0  0  0  0  0  0  0  0  0  0  0
    0.8296    0.4462    8.4984 H   0  0  0  0  0  0  0  0  0  0  0  0
    1.5404    2.0072    8.9277 H   0  0  0  0  0  0  0  0  0  0  0  0
    6.8435    1.0213   -8.6038 H   0  0  0  0  0  0  0  0  0  0  0  0
    5.8422    0.3241   -9.8546 H   0  0  0  0  0  0  0  0  0  0  0  0
    7.0874   -0.6378   -9.0948 H   0  0  0  0  0  0  0  0  0  0  0  0
    3.4280    0.9137    9.7675 H   0  0  0  0  0  0  0  0  0  0  0  0
    1.8356   -2.0956   -6.5484 H   0  0  0  0  0  0  0  0  0  0  0  0
    2.9777   -2.8905   -5.4976 H   0  0  0  0  0  0  0  0  0  0  0  0
    5.2445   -3.1419   -9.0743 H   0  0  0  0  0  0  0  0  0  0  0  0
    4.3997   -1.9476  -10.0440 H   0  0  0  0  0  0  0  0  0  0  0  0
    1.0007   -0.3216   10.7759 H   0  0  0  0  0  0  0  0  0  0  0  0
    1.6289    1.2434   11.2332 H   0  0  0  0  0  0  0  0  0  0  0  0
    2.5265   -0.2051   11.6194 H   0  0  0  0  0  0  0  0  0  0  0  0
    1.9910   -4.2845   -7.4387 H   0  0  0  0  0  0  0  0  0  0  0  0
    3.7469   -4.3131   -7.2168 H   0  0  0  0  0  0  0  0  0  0  0  0
    3.1387   -4.1110   -9.5868 H   0  0  0  0  0  0  0  0  0  0  0  0
    2.2938   -2.6101   -9.2122 H   0  0  0  0  0  0  0  0  0  0  0  0
  1  2  2  0  0  0  0
  2  3  1  0  0  0  0
  2  4  1  0  0  0  0
  3  5  1  0  0  0  0
  3 40  1  0  0  0  0
  4  6  2  0  0  0  0
  4  7  1  0  0  0  0
  5  8  1  0  0  0  0
  5 41  1  0  0  0  0
  5 42  1  0  0  0  0
  6  9  1  0  0  0  0
  7 10  2  0  0  0  0
  7 43  1  0  0  0  0
  8 11  2  0  0  0  0
  8 12  1  0  0  0  0
  9 13  2  0  0  0  0
  9 14  1  0  0  0  0
 10 13  1  0  0  0  0
 10 44  1  0  0  0  0
 11 15  1  0  0  0  0
 11 45  1  0  0  0  0
 12 16  2  0  0  0  0
 12 46  1  0  0  0  0
 13 17  1  0  0  0  0
 14 18  1  0  0  0  0
 14 47  1  0  0  0  0
 14 48  1  0  0  0  0
 15 19  2  0  0  0  0
 15 49  1  0  0  0  0
 16 19  1  0  0  0  0
 16 50  1  0  0  0  0
 17 20  1  0  0  0  0
 17 51  1  0  0  0  0
 17 52  1  0  0  0  0
 18 21  1  0  0  0  0
 18 20  1  0  0  0  0
 19 22  1  0  0  0  0
 20 53  1  0  0  0  0
 20 54  1  0  0  0  0
 21 23  2  0  0  0  0
 21 24  1  0  0  0  0
 22 25  1  0  0  0  0
 22 26  1  0  0  0  0
 24 27  1  0  0  0  0
 24 28  2  0  0  0  0
 25 29  1  0  0  0  0
 25 55  1  0  0  0  0
 25 56  1  0  0  0  0
 26 30  1  0  0  0  0
 26 57  1  0  0  0  0
 26 58  1  0  0  0  0
 27 31  1  0  0  0  0
 28 32  1  0  0  0  0
 28 33  1  0  0  0  0
 29 34  1  0  0  0  0
 29 59  1  0  0  0  0
 29 60  1  0  0  0  0
 30 34  1  0  0  0  0
 30 61  1  0  0  0  0
 30 62  1  0  0  0  0
 31 35  1  0  0  0  0
 31 32  2  0  0  0  0
 32 36  1  0  0  0  0
 33 63  1  0  0  0  0
 33 64  1  0  0  0  0
 33 65  1  0  0  0  0
 34 37  1  0  0  0  0
 34 66  1  0  0  0  0
 35 38  1  0  0  0  0
 35 67  1  0  0  0  0
 35 68  1  0  0  0  0
 36 39  1  0  0  0  0
 36 69  1  0  0  0  0
 36 70  1  0  0  0  0
 37 71  1  0  0  0  0
 37 72  1  0  0  0  0
 37 73  1  0  0  0  0
 38 39  1  0  0  0  0
 38 74  1  0  0  0  0
 38 75  1  0  0  0  0
 39 76  1  0  0  0  0
 39 77  1  0  0  0  0
M  CHG  1  34   1
M  END
>  <Molecule Name>
CTX-1020755

>  <SMILES>
CN1CCN(CC1)C1=CC=C(CNC(=O)C2=NC3=C(CCN(C3)C(=O)C3=C(C)C4=C(CCCC4)O3)C=C2)C=C1

>  <Batch Name>
CTX-1020755-1

>  <Batch Created Date>
2021-12-16

>  <Batch ID>
CTX-1020755-1

>  <External ID>
P841-0382

>  <Stereochemistry>
Achiral

>  <Amount 1>
5.65

>  <Unit 1>
mg

>  <CRO 1>
Pharmaron

>  <CRO 1 Total Amount>
14.2

>  <CRO 1 Unit>
mg

>  <Pharmaron Solubility (PBS, pH 7.4): Aqueous Solubility - Batch Mean (uM)>
11.2077

>  <Pharmaron Solubility (PBS, pH 7.4): Aqueous Solubility - Batch Mean (uM) Standard Deviation (±)>


>  <Pharmaron Solubility (PBS, pH 7.4): Aqueous Solubility - Batch Mean (uM) Count>
1.0

>  <log P>
3.83

>  <log D>
3.2

>  <Pharmaron Caliper Assay (CDK2/CCNE1): Minimum measured (%)>
52.8

>  <Pharmaron Caliper Assay (CDK2/CCNE1): IC50 - Batch Mean (uM)>
10.7

>  <Pharmaron ADPGLO (CDK2/E1-25C): Minimum measured (%)>


>  <Pharmaron ADPGLO (CDK2/E1-25C): IC50 - Batch Mean (uM)>


>  <Pharmaron ADPGLO (CDK2/E1-37C): Minimum measured (%)>


>  <Pharmaron ADPGLO (CDK2/E1-37C): IC50 - Batch Mean (uM)>


>  <IncuCyte Kuramochi RB-WT: IC50 - Batch Mean (uM)>
9.01

>  <IncuCyte Kuramochi RB-KO: IC50 - Batch Mean (uM)>
9.76

>  <DSF (npCDK2/CCNE1): dTm D - Batch Mean [Concentration: 100]>


>  <DSF (npCDK2/CCNE1): dTm D - Batch Mean [Concentration: 20.0]>
0.742

>  <DSF (pCDK2/CCNE1): dTm D - Batch Mean [Concentration: 100]>


>  <DSF (pCDK2/CCNE1): dTm D - Batch Mean [Concentration: 20.0]>


>  <RLM: t1/2 - Batch Mean (Min)>


>  <RLM: Cl int - Batch Mean (uL/min/mg protein)>


>  <RLM: ER (Hepatic extraction ratio) - Batch Mean>


>  <HLM: t1/2 - Batch Mean (Min)>


>  <HLM: Cl int - Batch Mean (uL/min/mg protein)>


>  <HLM: ER (Hepatic extraction ratio) - Batch Mean>


>  <MDCK-WT 4% BSA: Papp (A-B) - Batch Mean (10-6, cm/s)>


>  <MDCK-WT 4% BSA: Papp (B-A) - Batch Mean (10-6, cm/s)>


>  <MDCK-WT 4% BSA: Efflux Ratio - Batch Mean>


>  <MDCK-WT 4% BSA: ~Net A_B - Batch Mean (10-6, cm/s)>


>  <pIC50>
4.970616

>  <Selection_1>
Y

>  <Selection_N>


>  <Serie>
Naphthyridine

>  <Selection_T>
N

>  <Train_Vs_Test>


$$$$
