CTX-1020750
 OpenBabel08272613283D

 59 63  0  0  0  0  0  0  0  0999 V2000
    1.4042    0.8099   -0.4071 O   0  0  0  0  0  0  0  0  0  0  0  0
    2.3116    0.0329   -0.1193 C   0  0  0  0  0  0  0  0  0  0  0  0
    2.7097   -0.2115    1.1723 N   0  0  0  0  0  0  0  0  0  0  0  0
    3.0272   -0.7315   -1.2031 C   0  0  0  0  0  0  0  0  0  0  0  0
    2.0440    0.4044    2.3029 C   0  0  0  0  0  0  0  0  0  0  0  0
    3.9949   -1.6311   -0.8418 N   0  0  0  0  0  0  0  0  0  0  0  0
    2.6398   -0.5000   -2.5103 C   0  0  0  0  0  0  0  0  0  0  0  0
    2.9733    1.2984    3.0790 C   0  0  0  0  0  0  0  0  0  0  0  0
    4.5886   -2.3436   -1.8567 C   0  0  0  0  0  0  0  0  0  0  0  0
    3.2550   -1.2159   -3.5236 C   0  0  0  0  0  0  0  0  0  0  0  0
    3.1393    2.6423    2.7152 C   0  0  0  0  0  0  0  0  0  0  0  0
    3.6933    0.8031    4.1712 C   0  0  0  0  0  0  0  0  0  0  0  0
    4.2464   -2.1499   -3.2079 C   0  0  0  0  0  0  0  0  0  0  0  0
    5.6828   -3.3640   -1.4962 C   0  0  0  0  0  0  0  0  0  0  0  0
    4.0018    3.4788    3.4350 C   0  0  0  0  0  0  0  0  0  0  0  0
    4.5530    1.6399    4.8871 C   0  0  0  0  0  0  0  0  0  0  0  0
    4.8414   -2.9764   -4.3181 C   0  0  0  0  0  0  0  0  0  0  0  0
    5.9794   -4.2985   -2.5887 N   0  0  0  0  0  0  0  0  0  0  0  0
    4.7137    2.9793    4.5250 C   0  0  0  0  0  0  0  0  0  0  0  0
    6.1107   -3.7096   -3.9091 C   0  0  0  0  0  0  0  0  0  0  0  0
    6.4750   -5.5803   -2.3294 C   0  0  0  0  0  0  0  0  0  0  0  0
    5.5842    3.6823    5.3118 O   0  0  0  0  0  0  0  0  0  0  0  0
    7.1166   -5.8280   -1.3100 O   0  0  0  0  0  0  0  0  0  0  0  0
    5.9376   -6.6284   -3.2014 C   0  0  0  0  0  0  0  0  0  0  0  0
    5.8135    5.0410    4.9619 C   0  0  0  0  0  0  0  0  0  0  0  0
    4.7470   -6.3254   -3.8251 O   0  0  0  0  0  0  0  0  0  0  0  0
    6.0815   -8.0148   -3.2260 C   0  0  0  0  0  0  0  0  0  0  0  0
    3.9684   -7.4190   -3.6541 C   0  0  0  0  0  0  0  0  0  0  0  0
    4.7266   -8.4624   -3.1481 C   0  0  0  0  0  0  0  0  0  0  0  0
    7.2848   -8.8790   -3.1816 C   0  0  0  0  0  0  0  0  0  0  0  0
    2.5995   -7.4548   -3.8642 C   0  0  0  0  0  0  0  0  0  0  0  0
    4.0571   -9.6142   -2.7028 C   0  0  0  0  0  0  0  0  0  0  0  0
    1.9466   -8.5896   -3.3821 C   0  0  0  0  0  0  0  0  0  0  0  0
    2.6562   -9.6350   -2.7805 C   0  0  0  0  0  0  0  0  0  0  0  0
    3.4663   -0.8203    1.3342 H   0  0  0  0  0  0  0  0  0  0  0  0
    1.6806   -0.3647    2.9521 H   0  0  0  0  0  0  0  0  0  0  0  0
    1.2401    1.0039    1.9296 H   0  0  0  0  0  0  0  0  0  0  0  0
    1.9063    0.1929   -2.7266 H   0  0  0  0  0  0  0  0  0  0  0  0
    2.9831   -1.0608   -4.5070 H   0  0  0  0  0  0  0  0  0  0  0  0
    2.6197    3.0196    1.9074 H   0  0  0  0  0  0  0  0  0  0  0  0
    3.5891   -0.1852    4.4495 H   0  0  0  0  0  0  0  0  0  0  0  0
    5.3578   -3.9262   -0.6457 H   0  0  0  0  0  0  0  0  0  0  0  0
    6.5783   -2.8144   -1.2938 H   0  0  0  0  0  0  0  0  0  0  0  0
    4.1106    4.4670    3.1581 H   0  0  0  0  0  0  0  0  0  0  0  0
    5.0758    1.2638    5.6935 H   0  0  0  0  0  0  0  0  0  0  0  0
    5.0727   -2.3282   -5.1374 H   0  0  0  0  0  0  0  0  0  0  0  0
    4.1180   -3.7189   -4.5829 H   0  0  0  0  0  0  0  0  0  0  0  0
    6.9262   -3.0169   -3.9020 H   0  0  0  0  0  0  0  0  0  0  0  0
    6.2873   -4.4961   -4.6129 H   0  0  0  0  0  0  0  0  0  0  0  0
    6.5084    5.4743    5.6506 H   0  0  0  0  0  0  0  0  0  0  0  0
    4.8900    5.5800    5.0005 H   0  0  0  0  0  0  0  0  0  0  0  0
    6.2148    5.0914    3.9712 H   0  0  0  0  0  0  0  0  0  0  0  0
    8.1627   -8.2723   -3.2606 H   0  0  0  0  0  0  0  0  0  0  0  0
    7.2561   -9.5725   -3.9959 H   0  0  0  0  0  0  0  0  0  0  0  0
    7.3043   -9.4159   -2.2563 H   0  0  0  0  0  0  0  0  0  0  0  0
    2.0963   -6.6929   -4.3452 H   0  0  0  0  0  0  0  0  0  0  0  0
    4.5802  -10.4216   -2.3294 H   0  0  0  0  0  0  0  0  0  0  0  0
    0.9208   -8.6595   -3.4708 H   0  0  0  0  0  0  0  0  0  0  0  0
    2.1393  -10.4365   -2.3865 H   0  0  0  0  0  0  0  0  0  0  0  0
  1  2  2  0  0  0  0
  2  3  1  0  0  0  0
  2  4  1  0  0  0  0
  3  5  1  0  0  0  0
  3 35  1  0  0  0  0
  4  6  2  0  0  0  0
  4  7  1  0  0  0  0
  5  8  1  0  0  0  0
  5 36  1  0  0  0  0
  5 37  1  0  0  0  0
  6  9  1  0  0  0  0
  7 10  2  0  0  0  0
  7 38  1  0  0  0  0
  8 11  2  0  0  0  0
  8 12  1  0  0  0  0
  9 13  2  0  0  0  0
  9 14  1  0  0  0  0
 10 13  1  0  0  0  0
 10 39  1  0  0  0  0
 11 15  1  0  0  0  0
 11 40  1  0  0  0  0
 12 16  2  0  0  0  0
 12 41  1  0  0  0  0
 13 17  1  0  0  0  0
 14 18  1  0  0  0  0
 14 42  1  0  0  0  0
 14 43  1  0  0  0  0
 15 19  2  0  0  0  0
 15 44  1  0  0  0  0
 16 19  1  0  0  0  0
 16 45  1  0  0  0  0
 17 20  1  0  0  0  0
 17 46  1  0  0  0  0
 17 47  1  0  0  0  0
 18 21  1  0  0  0  0
 18 20  1  0  0  0  0
 19 22  1  0  0  0  0
 20 48  1  0  0  0  0
 20 49  1  0  0  0  0
 21 23  2  0  0  0  0
 21 24  1  0  0  0  0
 22 25  1  0  0  0  0
 24 26  1  0  0  0  0
 24 27  2  0  0  0  0
 25 50  1  0  0  0  0
 25 51  1  0  0  0  0
 25 52  1  0  0  0  0
 26 28  1  0  0  0  0
 27 29  1  0  0  0  0
 27 30  1  0  0  0  0
 28 31  2  0  0  0  0
 28 29  1  0  0  0  0
 29 32  2  0  0  0  0
 30 53  1  0  0  0  0
 30 54  1  0  0  0  0
 30 55  1  0  0  0  0
 31 33  1  0  0  0  0
 31 56  1  0  0  0  0
 32 34  1  0  0  0  0
 32 57  1  0  0  0  0
 33 34  2  0  0  0  0
 33 58  1  0  0  0  0
 34 59  1  0  0  0  0
M  END
>  <Molecule Name>
CTX-1020750

>  <SMILES>
COC1=CC=C(CNC(=O)C2=NC3=C(CCN(C3)C(=O)C3=C(C)C4=C(O3)C=CC=C4)C=C2)C=C1

>  <Batch Name>
CTX-1020750-1

>  <Batch Created Date>
2021-12-16

>  <Batch ID>
CTX-1020750-1

>  <External ID>
P841-0367

>  <Stereochemistry>
Achiral

>  <Amount 1>
5.0

>  <Unit 1>
mg

>  <CRO 1>
Pharmaron

>  <CRO 1 Total Amount>
13.85

>  <CRO 1 Unit>
mg

>  <Pharmaron Solubility (PBS, pH 7.4): Aqueous Solubility - Batch Mean (uM)>
0.0005

>  <Pharmaron Solubility (PBS, pH 7.4): Aqueous Solubility - Batch Mean (uM) Standard Deviation (±)>


>  <Pharmaron Solubility (PBS, pH 7.4): Aqueous Solubility - Batch Mean (uM) Count>
1.0

>  <log P>
3.52

>  <log D>
3.52

>  <Pharmaron Caliper Assay (CDK2/CCNE1): Minimum measured (%)>
66.2

>  <Pharmaron Caliper Assay (CDK2/CCNE1): IC50 - Batch Mean (uM)>
0.765

>  <Pharmaron ADPGLO (CDK2/E1-25C): Minimum measured (%)>


>  <Pharmaron ADPGLO (CDK2/E1-25C): IC50 - Batch Mean (uM)>


>  <Pharmaron ADPGLO (CDK2/E1-37C): Minimum measured (%)>


>  <Pharmaron ADPGLO (CDK2/E1-37C): IC50 - Batch Mean (uM)>


>  <IncuCyte Kuramochi RB-WT: IC50 - Batch Mean (uM)>
20.0

>  <IncuCyte Kuramochi RB-KO: IC50 - Batch Mean (uM)>
20.0

>  <DSF (npCDK2/CCNE1): dTm D - Batch Mean [Concentration: 100]>


>  <DSF (npCDK2/CCNE1): dTm D - Batch Mean [Concentration: 20.0]>
1.21

>  <DSF (pCDK2/CCNE1): dTm D - Batch Mean [Concentration: 100]>


>  <DSF (pCDK2/CCNE1): dTm D - Batch Mean [Concentration: 20.0]>


>  <RLM: t1/2 - Batch Mean (Min)>


>  <RLM: Cl int - Batch Mean (uL/min/mg protein)>


>  <RLM: ER (Hepatic extraction ratio) - Batch Mean>


>  <HLM: t1/2 - Batch Mean (Min)>


>  <HLM: Cl int - Batch Mean (uL/min/mg protein)>


>  <HLM: ER (Hepatic extraction ratio) - Batch Mean>


>  <MDCK-WT 4% BSA: Papp (A-B) - Batch Mean (10-6, cm/s)>


>  <MDCK-WT 4% BSA: Papp (B-A) - Batch Mean (10-6, cm/s)>


>  <MDCK-WT 4% BSA: Efflux Ratio - Batch Mean>


>  <MDCK-WT 4% BSA: ~Net A_B - Batch Mean (10-6, cm/s)>


>  <pIC50>
6.116339

>  <Selection_1>
Y

>  <Selection_N>


>  <Serie>
Naphthyridine

>  <Selection_T>
N

>  <Train_Vs_Test>


$$$$
