CTX-1020749
 OpenBabel08272613283D

 68 73  0  0  0  0  0  0  0  0999 V2000
    2.5858   -1.3612   -3.3707 Cl  0  0  0  0  0  0  0  0  0  0  0  0
    2.2140   -1.7301   -1.7410 C   0  0  0  0  0  0  0  0  0  0  0  0
    2.9301   -2.4513   -0.8013 C   0  0  0  0  0  0  0  0  0  0  0  0
    0.9047   -1.3984   -1.1801 C   0  0  0  0  0  0  0  0  0  0  0  0
    2.1336   -2.5654    0.3227 O   0  0  0  0  0  0  0  0  0  0  0  0
    4.2427   -3.2463   -0.7882 C   0  0  0  0  0  0  0  0  0  0  0  0
    0.9398   -1.9433    0.0961 C   0  0  0  0  0  0  0  0  0  0  0  0
   -0.3120   -0.7510   -1.5764 C   0  0  0  0  0  0  0  0  0  0  0  0
    5.3206   -2.8529   -1.0466 O   0  0  0  0  0  0  0  0  0  0  0  0
    4.0299   -4.7034   -0.5644 N   0  0  0  0  0  0  0  0  0  0  0  0
   -0.1283   -1.8758    0.9994 C   0  0  0  0  0  0  0  0  0  0  0  0
   -1.3860   -0.6579   -0.6727 C   0  0  0  0  0  0  0  0  0  0  0  0
    4.9720   -5.9011   -0.0791 C   0  0  0  0  0  0  0  0  0  0  0  0
    2.9698   -4.9976   -1.5098 C   0  0  0  0  0  0  0  0  0  0  0  0
   -1.2840   -1.2216    0.5942 C   0  0  0  0  0  0  0  0  0  0  0  0
    4.1962   -7.3402   -0.1832 C   0  0  0  0  0  0  0  0  0  0  0  0
    2.9647   -6.3672   -2.1045 C   0  0  0  0  0  0  0  0  0  0  0  0
    3.3589   -7.5349   -1.2571 C   0  0  0  0  0  0  0  0  0  0  0  0
    3.9800   -8.5857    0.6403 C   0  0  0  0  0  0  0  0  0  0  0  0
    2.6406   -9.0324   -1.4874 S   0  0  0  0  0  0  0  0  0  0  0  0
    2.8653   -9.3444    0.1765 C   0  0  0  0  0  0  0  0  0  0  0  0
    1.7542  -10.1126    0.7825 C   0  0  0  0  0  0  0  0  0  0  0  0
    0.8267   -9.5275    1.4162 O   0  0  0  0  0  0  0  0  0  0  0  0
    1.7304  -11.4708    0.5116 N   0  0  0  0  0  0  0  0  0  0  0  0
    0.4774  -12.2497    0.5120 C   0  0  0  0  0  0  0  0  0  0  0  0
    0.0455  -12.6411   -0.8884 C   0  0  0  0  0  0  0  0  0  0  0  0
    0.4804  -13.8387   -1.4635 C   0  0  0  0  0  0  0  0  0  0  0  0
   -0.7882  -11.8240   -1.6602 C   0  0  0  0  0  0  0  0  0  0  0  0
    0.1206  -14.1855   -2.7755 C   0  0  0  0  0  0  0  0  0  0  0  0
   -1.1443  -12.1809   -2.9780 C   0  0  0  0  0  0  0  0  0  0  0  0
   -0.6774  -13.3633   -3.5794 C   0  0  0  0  0  0  0  0  0  0  0  0
   -0.9201  -13.6794   -4.9066 N   0  0  0  0  0  0  0  0  0  0  0  0
   -1.1608  -15.0645   -5.3520 C   0  0  0  0  0  0  0  0  0  0  0  0
   -1.2859  -12.6622   -5.9072 C   0  0  0  0  0  0  0  0  0  0  0  0
   -0.4617  -15.3162   -6.7098 C   0  0  0  0  0  0  0  0  0  0  0  0
   -0.6068  -12.9845   -7.2659 C   0  0  0  0  0  0  0  0  0  0  0  0
   -0.9064  -14.3540   -7.7430 N   0  3  0  0  0  0  0  0  0  0  0  0
   -0.2565  -14.6195   -9.0227 C   0  0  0  0  0  0  0  0  0  0  0  0
   -0.3997   -0.3534   -2.5247 H   0  0  0  0  0  0  0  0  0  0  0  0
   -0.0584   -2.2994    1.9378 H   0  0  0  0  0  0  0  0  0  0  0  0
   -2.2518   -0.1700   -0.9508 H   0  0  0  0  0  0  0  0  0  0  0  0
    5.2579   -5.7309    0.9378 H   0  0  0  0  0  0  0  0  0  0  0  0
    5.8344   -5.9332   -0.7117 H   0  0  0  0  0  0  0  0  0  0  0  0
    3.0475   -4.2953   -2.3133 H   0  0  0  0  0  0  0  0  0  0  0  0
    2.0629   -4.9318   -0.9459 H   0  0  0  0  0  0  0  0  0  0  0  0
   -2.0818   -1.1525    1.2452 H   0  0  0  0  0  0  0  0  0  0  0  0
    3.6336   -6.3474   -2.9393 H   0  0  0  0  0  0  0  0  0  0  0  0
    1.9317   -6.5466   -2.3181 H   0  0  0  0  0  0  0  0  0  0  0  0
    4.5687   -8.8563    1.4435 H   0  0  0  0  0  0  0  0  0  0  0  0
    2.5774  -11.9315    0.3124 H   0  0  0  0  0  0  0  0  0  0  0  0
   -0.2952  -11.6592    0.9585 H   0  0  0  0  0  0  0  0  0  0  0  0
    0.6498  -13.1488    1.0659 H   0  0  0  0  0  0  0  0  0  0  0  0
    1.0757  -14.4785   -0.9146 H   0  0  0  0  0  0  0  0  0  0  0  0
   -1.1490  -10.9447   -1.2583 H   0  0  0  0  0  0  0  0  0  0  0  0
    0.4575  -15.0811   -3.1622 H   0  0  0  0  0  0  0  0  0  0  0  0
   -1.7652  -11.5564   -3.5160 H   0  0  0  0  0  0  0  0  0  0  0  0
   -2.2133  -15.2232   -5.4611 H   0  0  0  0  0  0  0  0  0  0  0  0
   -0.7641  -15.7403   -4.6235 H   0  0  0  0  0  0  0  0  0  0  0  0
   -0.9622  -11.7001   -5.5689 H   0  0  0  0  0  0  0  0  0  0  0  0
   -2.3480  -12.6634   -6.0368 H   0  0  0  0  0  0  0  0  0  0  0  0
   -0.6907  -16.3082   -7.0388 H   0  0  0  0  0  0  0  0  0  0  0  0
    0.5917  -15.1912   -6.5700 H   0  0  0  0  0  0  0  0  0  0  0  0
    0.4524  -12.8859   -7.1512 H   0  0  0  0  0  0  0  0  0  0  0  0
   -0.9916  -12.2980   -7.9908 H   0  0  0  0  0  0  0  0  0  0  0  0
   -1.9102  -14.4524   -7.8950 H   0  0  0  0  0  0  0  0  0  0  0  0
    0.8036  -14.5272   -8.9103 H   0  0  0  0  0  0  0  0  0  0  0  0
   -0.6007  -13.9148   -9.7505 H   0  0  0  0  0  0  0  0  0  0  0  0
   -0.4959  -15.6113   -9.3453 H   0  0  0  0  0  0  0  0  0  0  0  0
  1  2  1  0  0  0  0
  2  3  2  0  0  0  0
  2  4  1  0  0  0  0
  3  5  1  0  0  0  0
  3  6  1  0  0  0  0
  4  7  2  0  0  0  0
  4  8  1  0  0  0  0
  5  7  1  0  0  0  0
  6  9  2  0  0  0  0
  6 10  1  0  0  0  0
  7 11  1  0  0  0  0
  8 12  2  0  0  0  0
  8 39  1  0  0  0  0
 10 13  1  0  0  0  0
 10 14  1  0  0  0  0
 11 15  2  0  0  0  0
 11 40  1  0  0  0  0
 12 15  1  0  0  0  0
 12 41  1  0  0  0  0
 13 16  1  0  0  0  0
 13 42  1  0  0  0  0
 13 43  1  0  0  0  0
 14 17  1  0  0  0  0
 14 44  1  0  0  0  0
 14 45  1  0  0  0  0
 15 46  1  0  0  0  0
 16 18  2  0  0  0  0
 16 19  1  0  0  0  0
 17 18  1  0  0  0  0
 17 47  1  0  0  0  0
 17 48  1  0  0  0  0
 18 20  1  0  0  0  0
 19 21  2  0  0  0  0
 19 49  1  0  0  0  0
 20 21  1  0  0  0  0
 21 22  1  0  0  0  0
 22 23  2  0  0  0  0
 22 24  1  0  0  0  0
 24 25  1  0  0  0  0
 24 50  1  0  0  0  0
 25 26  1  0  0  0  0
 25 51  1  0  0  0  0
 25 52  1  0  0  0  0
 26 27  2  0  0  0  0
 26 28  1  0  0  0  0
 27 29  1  0  0  0  0
 27 53  1  0  0  0  0
 28 30  2  0  0  0  0
 28 54  1  0  0  0  0
 29 31  2  0  0  0  0
 29 55  1  0  0  0  0
 30 31  1  0  0  0  0
 30 56  1  0  0  0  0
 31 32  1  0  0  0  0
 32 33  1  0  0  0  0
 32 34  1  0  0  0  0
 33 35  1  0  0  0  0
 33 57  1  0  0  0  0
 33 58  1  0  0  0  0
 34 36  1  0  0  0  0
 34 59  1  0  0  0  0
 34 60  1  0  0  0  0
 35 37  1  0  0  0  0
 35 61  1  0  0  0  0
 35 62  1  0  0  0  0
 36 37  1  0  0  0  0
 36 63  1  0  0  0  0
 36 64  1  0  0  0  0
 37 38  1  0  0  0  0
 37 65  1  0  0  0  0
 38 66  1  0  0  0  0
 38 67  1  0  0  0  0
 38 68  1  0  0  0  0
M  CHG  1  37   1
M  END
>  <Molecule Name>
CTX-1020749

>  <SMILES>
CN1CCN(CC1)C1=CC=C(CNC(=O)C2=CC3=C(CCN(C3)C(=O)C3=C(Cl)C4=C(O3)C=CC=C4)S2)C=C1

>  <Batch Name>
CTX-1020749-1

>  <Batch Created Date>
2021-12-16

>  <Batch ID>
CTX-1020749-1

>  <External ID>
P841-0370

>  <Stereochemistry>
Achiral

>  <Amount 1>
3.15

>  <Unit 1>
mg

>  <CRO 1>
Pharmaron

>  <CRO 1 Total Amount>
0.0

>  <CRO 1 Unit>
mg

>  <Pharmaron Solubility (PBS, pH 7.4): Aqueous Solubility - Batch Mean (uM)>


>  <Pharmaron Solubility (PBS, pH 7.4): Aqueous Solubility - Batch Mean (uM) Standard Deviation (±)>


>  <Pharmaron Solubility (PBS, pH 7.4): Aqueous Solubility - Batch Mean (uM) Count>


>  <log P>
4.52

>  <log D>
3.89

>  <Pharmaron Caliper Assay (CDK2/CCNE1): Minimum measured (%)>
22.5

>  <Pharmaron Caliper Assay (CDK2/CCNE1): IC50 - Batch Mean (uM)>
1.63

>  <Pharmaron ADPGLO (CDK2/E1-25C): Minimum measured (%)>


>  <Pharmaron ADPGLO (CDK2/E1-25C): IC50 - Batch Mean (uM)>


>  <Pharmaron ADPGLO (CDK2/E1-37C): Minimum measured (%)>


>  <Pharmaron ADPGLO (CDK2/E1-37C): IC50 - Batch Mean (uM)>


>  <IncuCyte Kuramochi RB-WT: IC50 - Batch Mean (uM)>
9.17

>  <IncuCyte Kuramochi RB-KO: IC50 - Batch Mean (uM)>
7.17

>  <DSF (npCDK2/CCNE1): dTm D - Batch Mean [Concentration: 100]>


>  <DSF (npCDK2/CCNE1): dTm D - Batch Mean [Concentration: 20.0]>
2.9139999999999997

>  <DSF (pCDK2/CCNE1): dTm D - Batch Mean [Concentration: 100]>


>  <DSF (pCDK2/CCNE1): dTm D - Batch Mean [Concentration: 20.0]>
1.286

>  <RLM: t1/2 - Batch Mean (Min)>


>  <RLM: Cl int - Batch Mean (uL/min/mg protein)>


>  <RLM: ER (Hepatic extraction ratio) - Batch Mean>


>  <HLM: t1/2 - Batch Mean (Min)>


>  <HLM: Cl int - Batch Mean (uL/min/mg protein)>


>  <HLM: ER (Hepatic extraction ratio) - Batch Mean>


>  <MDCK-WT 4% BSA: Papp (A-B) - Batch Mean (10-6, cm/s)>


>  <MDCK-WT 4% BSA: Papp (B-A) - Batch Mean (10-6, cm/s)>


>  <MDCK-WT 4% BSA: Efflux Ratio - Batch Mean>


>  <MDCK-WT 4% BSA: ~Net A_B - Batch Mean (10-6, cm/s)>


>  <pIC50>
5.787812

>  <Selection_1>
Y

>  <Selection_N>
N

>  <Serie>
Tetrahydrothienopyridine

>  <Selection_T>


>  <Train_Vs_Test>


$$$$
