CTX-1020767
 OpenBabel08272613283D

 52 56  0  0  0  0  0  0  0  0999 V2000
    1.3584    0.2974    0.7332 O   0  0  0  0  0  0  0  0  0  0  0  0
    2.3154   -0.0308    0.0385 C   0  0  0  0  0  0  0  0  0  0  0  0
    2.7785   -1.3343    0.0137 N   0  0  0  0  0  0  0  0  0  0  0  0
    3.0124    0.9926   -0.8112 C   0  0  0  0  0  0  0  0  0  0  0  0
    2.1232   -2.3158    0.8503 C   0  0  0  0  0  0  0  0  0  0  0  0
    4.0189    0.6082   -1.6503 N   0  0  0  0  0  0  0  0  0  0  0  0
    2.5411    2.2995   -0.7226 C   0  0  0  0  0  0  0  0  0  0  0  0
    2.7153   -3.6728    0.6864 C   0  0  0  0  0  0  0  0  0  0  0  0
    4.5536    1.5741   -2.4648 C   0  0  0  0  0  0  0  0  0  0  0  0
    3.0993    3.2649   -1.5424 C   0  0  0  0  0  0  0  0  0  0  0  0
    4.0428   -3.8673    0.3573 N   0  0  0  0  0  0  0  0  0  0  0  0
    2.0949   -4.8988    0.8917 C   0  0  0  0  0  0  0  0  0  0  0  0
    4.1178    2.9134   -2.4311 C   0  0  0  0  0  0  0  0  0  0  0  0
    5.6799    1.1669   -3.4243 C   0  0  0  0  0  0  0  0  0  0  0  0
    4.2174   -5.1647    0.3606 C   0  0  0  0  0  0  0  0  0  0  0  0
    3.0594   -5.8344    0.6723 N   0  0  0  0  0  0  0  0  0  0  0  0
    4.6408    3.9536   -3.3842 C   0  0  0  0  0  0  0  0  0  0  0  0
    5.9265    2.1622   -4.4754 N   0  0  0  0  0  0  0  0  0  0  0  0
    5.9522    3.5510   -4.0459 C   0  0  0  0  0  0  0  0  0  0  0  0
    6.3213    1.7687   -5.7596 C   0  0  0  0  0  0  0  0  0  0  0  0
    6.9049    0.7022   -5.9480 O   0  0  0  0  0  0  0  0  0  0  0  0
    5.7633    2.5694   -6.8614 C   0  0  0  0  0  0  0  0  0  0  0  0
    4.5723    3.1945   -6.5520 O   0  0  0  0  0  0  0  0  0  0  0  0
    5.7585    2.3703   -8.2439 C   0  0  0  0  0  0  0  0  0  0  0  0
    3.6994    2.7206   -7.4635 C   0  0  0  0  0  0  0  0  0  0  0  0
    4.3802    2.0963   -8.5007 C   0  0  0  0  0  0  0  0  0  0  0  0
    6.8613    2.3288   -9.2316 C   0  0  0  0  0  0  0  0  0  0  0  0
    2.3212    2.7933   -7.3560 C   0  0  0  0  0  0  0  0  0  0  0  0
    3.6347    1.4101   -9.4749 C   0  0  0  0  0  0  0  0  0  0  0  0
    1.5936    2.0638   -8.2957 C   0  0  0  0  0  0  0  0  0  0  0  0
    2.2412    1.3636   -9.3233 C   0  0  0  0  0  0  0  0  0  0  0  0
    3.5368   -1.5882   -0.5605 H   0  0  0  0  0  0  0  0  0  0  0  0
    1.0868   -2.3570    0.5876 H   0  0  0  0  0  0  0  0  0  0  0  0
    2.2524   -2.0197    1.8704 H   0  0  0  0  0  0  0  0  0  0  0  0
    1.7899    2.5439   -0.0585 H   0  0  0  0  0  0  0  0  0  0  0  0
    2.7645    4.2400   -1.4972 H   0  0  0  0  0  0  0  0  0  0  0  0
    1.1110   -5.0652    1.1549 H   0  0  0  0  0  0  0  0  0  0  0  0
    5.4142    0.2400   -3.8881 H   0  0  0  0  0  0  0  0  0  0  0  0
    6.5769    1.0823   -2.8472 H   0  0  0  0  0  0  0  0  0  0  0  0
    5.1161   -5.6280    0.1541 H   0  0  0  0  0  0  0  0  0  0  0  0
    2.9474   -6.8110    0.7270 H   0  0  0  0  0  0  0  0  0  0  0  0
    4.7974    4.8633   -2.8432 H   0  0  0  0  0  0  0  0  0  0  0  0
    3.9137    4.0697   -4.1606 H   0  0  0  0  0  0  0  0  0  0  0  0
    6.7504    3.6840   -3.3459 H   0  0  0  0  0  0  0  0  0  0  0  0
    6.0965    4.1672   -4.9087 H   0  0  0  0  0  0  0  0  0  0  0  0
    7.7824    2.5799   -8.7486 H   0  0  0  0  0  0  0  0  0  0  0  0
    6.6658    3.0317  -10.0143 H   0  0  0  0  0  0  0  0  0  0  0  0
    6.9325    1.3447   -9.6456 H   0  0  0  0  0  0  0  0  0  0  0  0
    1.8592    3.3545   -6.6235 H   0  0  0  0  0  0  0  0  0  0  0  0
    4.0982    0.9549  -10.2767 H   0  0  0  0  0  0  0  0  0  0  0  0
    0.5637    2.0389   -8.2337 H   0  0  0  0  0  0  0  0  0  0  0  0
    1.6802    0.8018   -9.9825 H   0  0  0  0  0  0  0  0  0  0  0  0
  1  2  2  0  0  0  0
  2  3  1  0  0  0  0
  2  4  1  0  0  0  0
  3  5  1  0  0  0  0
  3 32  1  0  0  0  0
  4  6  2  0  0  0  0
  4  7  1  0  0  0  0
  5  8  1  0  0  0  0
  5 33  1  0  0  0  0
  5 34  1  0  0  0  0
  6  9  1  0  0  0  0
  7 10  2  0  0  0  0
  7 35  1  0  0  0  0
  8 11  1  0  0  0  0
  8 12  2  0  0  0  0
  9 13  2  0  0  0  0
  9 14  1  0  0  0  0
 10 13  1  0  0  0  0
 10 36  1  0  0  0  0
 11 15  2  0  0  0  0
 12 16  1  0  0  0  0
 12 37  1  0  0  0  0
 13 17  1  0  0  0  0
 14 18  1  0  0  0  0
 14 38  1  0  0  0  0
 14 39  1  0  0  0  0
 15 16  1  0  0  0  0
 15 40  1  0  0  0  0
 16 41  1  0  0  0  0
 17 19  1  0  0  0  0
 17 42  1  0  0  0  0
 17 43  1  0  0  0  0
 18 20  1  0  0  0  0
 18 19  1  0  0  0  0
 19 44  1  0  0  0  0
 19 45  1  0  0  0  0
 20 21  2  0  0  0  0
 20 22  1  0  0  0  0
 22 23  1  0  0  0  0
 22 24  2  0  0  0  0
 23 25  1  0  0  0  0
 24 26  1  0  0  0  0
 24 27  1  0  0  0  0
 25 28  2  0  0  0  0
 25 26  1  0  0  0  0
 26 29  2  0  0  0  0
 27 46  1  0  0  0  0
 27 47  1  0  0  0  0
 27 48  1  0  0  0  0
 28 30  1  0  0  0  0
 28 49  1  0  0  0  0
 29 31  1  0  0  0  0
 29 50  1  0  0  0  0
 30 31  2  0  0  0  0
 30 51  1  0  0  0  0
 31 52  1  0  0  0  0
M  END
>  <Molecule Name>
CTX-1020767

>  <SMILES>
CC1=C(OC2=C1C=CC=C2)C(=O)N1CCC2=C(C1)N=C(C=C2)C(=O)NCC1=CNC=N1

>  <Batch Name>
CTX-1020767-1

>  <Batch Created Date>
2021-12-16

>  <Batch ID>
CTX-1020767-1

>  <External ID>
P841-0365

>  <Stereochemistry>
Achiral

>  <Amount 1>
3.95

>  <Unit 1>
mg

>  <CRO 1>
Pharmaron

>  <CRO 1 Total Amount>
24.15

>  <CRO 1 Unit>
mg

>  <Pharmaron Solubility (PBS, pH 7.4): Aqueous Solubility - Batch Mean (uM)>
101.3274

>  <Pharmaron Solubility (PBS, pH 7.4): Aqueous Solubility - Batch Mean (uM) Standard Deviation (±)>


>  <Pharmaron Solubility (PBS, pH 7.4): Aqueous Solubility - Batch Mean (uM) Count>
1.0

>  <log P>
1.48

>  <log D>
1.43

>  <Pharmaron Caliper Assay (CDK2/CCNE1): Minimum measured (%)>
66.7

>  <Pharmaron Caliper Assay (CDK2/CCNE1): IC50 - Batch Mean (uM)>
89.0

>  <Pharmaron ADPGLO (CDK2/E1-25C): Minimum measured (%)>


>  <Pharmaron ADPGLO (CDK2/E1-25C): IC50 - Batch Mean (uM)>


>  <Pharmaron ADPGLO (CDK2/E1-37C): Minimum measured (%)>


>  <Pharmaron ADPGLO (CDK2/E1-37C): IC50 - Batch Mean (uM)>


>  <IncuCyte Kuramochi RB-WT: IC50 - Batch Mean (uM)>
20.0

>  <IncuCyte Kuramochi RB-KO: IC50 - Batch Mean (uM)>
20.0

>  <DSF (npCDK2/CCNE1): dTm D - Batch Mean [Concentration: 100]>


>  <DSF (npCDK2/CCNE1): dTm D - Batch Mean [Concentration: 20.0]>
0.054000000000000006

>  <DSF (pCDK2/CCNE1): dTm D - Batch Mean [Concentration: 100]>


>  <DSF (pCDK2/CCNE1): dTm D - Batch Mean [Concentration: 20.0]>


>  <RLM: t1/2 - Batch Mean (Min)>


>  <RLM: Cl int - Batch Mean (uL/min/mg protein)>


>  <RLM: ER (Hepatic extraction ratio) - Batch Mean>


>  <HLM: t1/2 - Batch Mean (Min)>


>  <HLM: Cl int - Batch Mean (uL/min/mg protein)>


>  <HLM: ER (Hepatic extraction ratio) - Batch Mean>


>  <MDCK-WT 4% BSA: Papp (A-B) - Batch Mean (10-6, cm/s)>


>  <MDCK-WT 4% BSA: Papp (B-A) - Batch Mean (10-6, cm/s)>


>  <MDCK-WT 4% BSA: Efflux Ratio - Batch Mean>


>  <MDCK-WT 4% BSA: ~Net A_B - Batch Mean (10-6, cm/s)>


>  <pIC50>
4.05061

>  <Selection_1>
Y

>  <Selection_N>
Y

>  <Serie>
Naphthyridine

>  <Selection_T>
N

>  <Train_Vs_Test>


$$$$
