CTX-1020903
 OpenBabel08272613283D

 74 79  0  0  0  0  0  0  0  0999 V2000
    1.4659    0.0492    0.7094 O   0  0  0  0  0  0  0  0  0  0  0  0
    2.1263   -0.5950   -0.1153 C   0  0  0  0  0  0  0  0  0  0  0  0
    2.8706    0.1369   -1.0743 N   0  0  0  0  0  0  0  0  0  0  0  0
    2.0515   -2.0532   -0.0531 C   0  0  0  0  0  0  0  0  0  0  0  0
    3.9366   -0.3127   -2.0370 C   0  0  0  0  0  0  0  0  0  0  0  0
    2.6511    1.6026   -1.0648 C   0  0  0  0  0  0  0  0  0  0  0  0
    0.8969   -2.5399    0.5960 O   0  0  0  0  0  0  0  0  0  0  0  0
    2.4369   -3.1597   -0.8121 C   0  0  0  0  0  0  0  0  0  0  0  0
    3.7633    0.4049   -3.3910 C   0  0  0  0  0  0  0  0  0  0  0  0
    2.1189    2.1078   -2.4203 C   0  0  0  0  0  0  0  0  0  0  0  0
    0.9150   -3.8972    0.4692 C   0  0  0  0  0  0  0  0  0  0  0  0
    2.1848   -4.2822    0.0767 C   0  0  0  0  0  0  0  0  0  0  0  0
    2.0061   -3.1853   -2.2640 C   0  0  0  0  0  0  0  0  0  0  0  0
    4.3860    0.1340   -4.6096 N   0  0  0  0  0  0  0  0  0  0  0  0
    2.9257    1.5019   -3.4910 C   0  0  0  0  0  0  0  0  0  0  0  0
   -0.1819   -4.7618    0.3963 C   0  0  0  0  0  0  0  0  0  0  0  0
    2.4726   -5.6687    0.1581 C   0  0  0  0  0  0  0  0  0  0  0  0
    3.9070    1.0520   -5.4662 C   0  0  0  0  0  0  0  0  0  0  0  0
    3.0022    1.8912   -4.8196 N   0  0  0  0  0  0  0  0  0  0  0  0
    0.1719   -6.0646    0.7693 C   0  0  0  0  0  0  0  0  0  0  0  0
    1.4549   -6.5537    0.5542 C   0  0  0  0  0  0  0  0  0  0  0  0
    4.2619    1.1640   -6.8915 C   0  0  0  0  0  0  0  0  0  0  0  0
    2.2149    2.9281   -5.4504 C   0  0  0  0  0  0  0  0  0  0  0  0
    3.7682    2.0213   -7.6216 O   0  0  0  0  0  0  0  0  0  0  0  0
    5.1785    0.2535   -7.3787 N   0  0  0  0  0  0  0  0  0  0  0  0
    5.6262    0.2431   -8.7679 C   0  0  0  0  0  0  0  0  0  0  0  0
    5.4484   -1.1120   -9.4088 C   0  0  0  0  0  0  0  0  0  0  0  0
    4.1740   -1.6679   -9.5227 C   0  0  0  0  0  0  0  0  0  0  0  0
    6.5206   -1.8377   -9.9256 C   0  0  0  0  0  0  0  0  0  0  0  0
    3.9885   -2.9418  -10.0841 C   0  0  0  0  0  0  0  0  0  0  0  0
    6.3194   -3.1230  -10.4883 C   0  0  0  0  0  0  0  0  0  0  0  0
    5.0548   -3.7224  -10.5633 C   0  0  0  0  0  0  0  0  0  0  0  0
    4.8499   -5.0165  -11.0086 N   0  0  0  0  0  0  0  0  0  0  0  0
    3.6091   -5.4305  -11.6958 C   0  0  0  0  0  0  0  0  0  0  0  0
    5.9437   -5.9917  -11.1595 C   0  0  0  0  0  0  0  0  0  0  0  0
    3.1814   -6.8413  -11.2231 C   0  0  0  0  0  0  0  0  0  0  0  0
    5.4654   -7.3990  -10.7131 C   0  0  0  0  0  0  0  0  0  0  0  0
    4.2467   -7.8497  -11.4226 N   0  3  0  0  0  0  0  0  0  0  0  0
    3.8171   -9.1596  -10.9384 C   0  0  0  0  0  0  0  0  0  0  0  0
    3.8581   -1.3697   -2.1838 H   0  0  0  0  0  0  0  0  0  0  0  0
    4.8978   -0.0721   -1.6331 H   0  0  0  0  0  0  0  0  0  0  0  0
    3.5793    2.0910   -0.8528 H   0  0  0  0  0  0  0  0  0  0  0  0
    1.9207    1.8258   -0.3154 H   0  0  0  0  0  0  0  0  0  0  0  0
    2.2001    3.1738   -2.4659 H   0  0  0  0  0  0  0  0  0  0  0  0
    1.0906    1.8357   -2.5361 H   0  0  0  0  0  0  0  0  0  0  0  0
    2.2864   -2.2666   -2.7354 H   0  0  0  0  0  0  0  0  0  0  0  0
    0.9443   -3.3050   -2.3190 H   0  0  0  0  0  0  0  0  0  0  0  0
    2.4835   -4.0025   -2.7633 H   0  0  0  0  0  0  0  0  0  0  0  0
   -1.1300   -4.4765    0.1051 H   0  0  0  0  0  0  0  0  0  0  0  0
    3.4149   -6.0224   -0.0701 H   0  0  0  0  0  0  0  0  0  0  0  0
   -0.5339   -6.6732    1.2125 H   0  0  0  0  0  0  0  0  0  0  0  0
    1.6584   -7.5571    0.6842 H   0  0  0  0  0  0  0  0  0  0  0  0
    1.6083    3.4130   -4.7143 H   0  0  0  0  0  0  0  0  0  0  0  0
    1.5871    2.4932   -6.1998 H   0  0  0  0  0  0  0  0  0  0  0  0
    2.8671    3.6451   -5.9037 H   0  0  0  0  0  0  0  0  0  0  0  0
    5.5466   -0.4191   -6.7611 H   0  0  0  0  0  0  0  0  0  0  0  0
    6.6628    0.5065   -8.7988 H   0  0  0  0  0  0  0  0  0  0  0  0
    5.0318    0.9469   -9.3121 H   0  0  0  0  0  0  0  0  0  0  0  0
    3.3554   -1.1352   -9.1895 H   0  0  0  0  0  0  0  0  0  0  0  0
    7.4704   -1.4351   -9.8982 H   0  0  0  0  0  0  0  0  0  0  0  0
    3.0304   -3.3201  -10.1474 H   0  0  0  0  0  0  0  0  0  0  0  0
    7.1350   -3.6369  -10.8568 H   0  0  0  0  0  0  0  0  0  0  0  0
    3.7790   -5.4480  -12.7521 H   0  0  0  0  0  0  0  0  0  0  0  0
    2.8315   -4.7334  -11.4625 H   0  0  0  0  0  0  0  0  0  0  0  0
    6.7729   -5.6907  -10.5539 H   0  0  0  0  0  0  0  0  0  0  0  0
    6.2402   -6.0309  -12.1869 H   0  0  0  0  0  0  0  0  0  0  0  0
    2.3161   -7.1415  -11.7763 H   0  0  0  0  0  0  0  0  0  0  0  0
    2.9764   -6.7861  -10.1744 H   0  0  0  0  0  0  0  0  0  0  0  0
    5.2580   -7.3714   -9.6638 H   0  0  0  0  0  0  0  0  0  0  0  0
    6.2464   -8.0913  -10.9488 H   0  0  0  0  0  0  0  0  0  0  0  0
    4.4473   -7.9435  -12.4183 H   0  0  0  0  0  0  0  0  0  0  0  0
    3.5973   -9.0989   -9.8930 H   0  0  0  0  0  0  0  0  0  0  0  0
    4.5989   -9.8727  -11.0977 H   0  0  0  0  0  0  0  0  0  0  0  0
    2.9407   -9.4665  -11.4699 H   0  0  0  0  0  0  0  0  0  0  0  0
  1  2  2  0  0  0  0
  2  3  1  0  0  0  0
  2  4  1  0  0  0  0
  3  5  1  0  0  0  0
  3  6  1  0  0  0  0
  4  7  1  0  0  0  0
  4  8  2  0  0  0  0
  5  9  1  0  0  0  0
  5 40  1  0  0  0  0
  5 41  1  0  0  0  0
  6 10  1  0  0  0  0
  6 42  1  0  0  0  0
  6 43  1  0  0  0  0
  7 11  1  0  0  0  0
  8 12  1  0  0  0  0
  8 13  1  0  0  0  0
  9 14  1  0  0  0  0
  9 15  2  0  0  0  0
 10 15  1  0  0  0  0
 10 44  1  0  0  0  0
 10 45  1  0  0  0  0
 11 16  2  0  0  0  0
 11 12  1  0  0  0  0
 12 17  2  0  0  0  0
 13 46  1  0  0  0  0
 13 47  1  0  0  0  0
 13 48  1  0  0  0  0
 14 18  2  0  0  0  0
 15 19  1  0  0  0  0
 16 20  1  0  0  0  0
 16 49  1  0  0  0  0
 17 21  1  0  0  0  0
 17 50  1  0  0  0  0
 18 22  1  0  0  0  0
 18 19  1  0  0  0  0
 19 23  1  0  0  0  0
 20 21  2  0  0  0  0
 20 51  1  0  0  0  0
 21 52  1  0  0  0  0
 22 24  2  0  0  0  0
 22 25  1  0  0  0  0
 23 53  1  0  0  0  0
 23 54  1  0  0  0  0
 23 55  1  0  0  0  0
 25 26  1  0  0  0  0
 25 56  1  0  0  0  0
 26 27  1  0  0  0  0
 26 57  1  0  0  0  0
 26 58  1  0  0  0  0
 27 28  2  0  0  0  0
 27 29  1  0  0  0  0
 28 30  1  0  0  0  0
 28 59  1  0  0  0  0
 29 31  2  0  0  0  0
 29 60  1  0  0  0  0
 30 32  2  0  0  0  0
 30 61  1  0  0  0  0
 31 32  1  0  0  0  0
 31 62  1  0  0  0  0
 32 33  1  0  0  0  0
 33 34  1  0  0  0  0
 33 35  1  0  0  0  0
 34 36  1  0  0  0  0
 34 63  1  0  0  0  0
 34 64  1  0  0  0  0
 35 37  1  0  0  0  0
 35 65  1  0  0  0  0
 35 66  1  0  0  0  0
 36 38  1  0  0  0  0
 36 67  1  0  0  0  0
 36 68  1  0  0  0  0
 37 38  1  0  0  0  0
 37 69  1  0  0  0  0
 37 70  1  0  0  0  0
 38 39  1  0  0  0  0
 38 71  1  0  0  0  0
 39 72  1  0  0  0  0
 39 73  1  0  0  0  0
 39 74  1  0  0  0  0
M  CHG  1  38   1
M  END
>  <Molecule Name>
CTX-1020903

>  <SMILES>
CN1C2=C(CN(CC2)C(=O)C2=C(C)C3=CC=CC=C3O2)N=C1C(=O)NCC1=CC=C(C=C1)N1CCN(C)CC1

>  <Batch Name>
CTX-1020903-1

>  <Batch Created Date>
2022-01-20

>  <Batch ID>
CTX-1020903-1

>  <External ID>
P841-0275

>  <Stereochemistry>
Achiral

>  <Amount 1>
9.1

>  <Unit 1>
mg

>  <CRO 1>
Pharmaron

>  <CRO 1 Total Amount>
16.5

>  <CRO 1 Unit>
mg

>  <Pharmaron Solubility (PBS, pH 7.4): Aqueous Solubility - Batch Mean (uM)>
52.8358

>  <Pharmaron Solubility (PBS, pH 7.4): Aqueous Solubility - Batch Mean (uM) Standard Deviation (±)>


>  <Pharmaron Solubility (PBS, pH 7.4): Aqueous Solubility - Batch Mean (uM) Count>
1.0

>  <log P>
2.64

>  <log D>
2.0

>  <Pharmaron Caliper Assay (CDK2/CCNE1): Minimum measured (%)>
17.4

>  <Pharmaron Caliper Assay (CDK2/CCNE1): IC50 - Batch Mean (uM)>
0.275

>  <Pharmaron ADPGLO (CDK2/E1-25C): Minimum measured (%)>
30.6

>  <Pharmaron ADPGLO (CDK2/E1-25C): IC50 - Batch Mean (uM)>
2.67

>  <Pharmaron ADPGLO (CDK2/E1-37C): Minimum measured (%)>
71.8

>  <Pharmaron ADPGLO (CDK2/E1-37C): IC50 - Batch Mean (uM)>
16.8

>  <IncuCyte Kuramochi RB-WT: IC50 - Batch Mean (uM)>
7.7

>  <IncuCyte Kuramochi RB-KO: IC50 - Batch Mean (uM)>
7.41

>  <DSF (npCDK2/CCNE1): dTm D - Batch Mean [Concentration: 100]>


>  <DSF (npCDK2/CCNE1): dTm D - Batch Mean [Concentration: 20.0]>
3.807

>  <DSF (pCDK2/CCNE1): dTm D - Batch Mean [Concentration: 100]>


>  <DSF (pCDK2/CCNE1): dTm D - Batch Mean [Concentration: 20.0]>
2.451

>  <RLM: t1/2 - Batch Mean (Min)>


>  <RLM: Cl int - Batch Mean (uL/min/mg protein)>


>  <RLM: ER (Hepatic extraction ratio) - Batch Mean>


>  <HLM: t1/2 - Batch Mean (Min)>


>  <HLM: Cl int - Batch Mean (uL/min/mg protein)>


>  <HLM: ER (Hepatic extraction ratio) - Batch Mean>


>  <MDCK-WT 4% BSA: Papp (A-B) - Batch Mean (10-6, cm/s)>


>  <MDCK-WT 4% BSA: Papp (B-A) - Batch Mean (10-6, cm/s)>


>  <MDCK-WT 4% BSA: Efflux Ratio - Batch Mean>


>  <MDCK-WT 4% BSA: ~Net A_B - Batch Mean (10-6, cm/s)>


>  <pIC50>
6.560667

>  <Selection_1>
Y

>  <Selection_N>
N

>  <Serie>
Other

>  <Selection_T>
N

>  <Train_Vs_Test>


$$$$
