CTX-1020752
 OpenBabel08272613283D

 77 82  0  0  0  0  0  0  0  0999 V2000
    1.6311   -0.9054   -0.6910 O   0  0  0  0  0  0  0  0  0  0  0  0
    2.3838   -0.1697   -0.0488 C   0  0  0  0  0  0  0  0  0  0  0  0
    2.5126    1.1763   -0.3067 N   0  0  0  0  0  0  0  0  0  0  0  0
    3.1859   -0.7112    1.0893 C   0  0  0  0  0  0  0  0  0  0  0  0
    1.8038    1.8233   -1.3809 C   0  0  0  0  0  0  0  0  0  0  0  0
    4.2602    0.0034    1.5255 N   0  0  0  0  0  0  0  0  0  0  0  0
    2.7819   -1.9215    1.6319 C   0  0  0  0  0  0  0  0  0  0  0  0
    2.7552    2.5021   -2.3269 C   0  0  0  0  0  0  0  0  0  0  0  0
    4.9846   -0.5453    2.5441 C   0  0  0  0  0  0  0  0  0  0  0  0
    3.5246   -2.4567    2.6738 C   0  0  0  0  0  0  0  0  0  0  0  0
    3.7437    1.7592   -2.9778 C   0  0  0  0  0  0  0  0  0  0  0  0
    2.6608    3.8710   -2.5959 C   0  0  0  0  0  0  0  0  0  0  0  0
    4.6567   -1.7792    3.1256 C   0  0  0  0  0  0  0  0  0  0  0  0
    6.2213    0.2081    3.0310 C   0  0  0  0  0  0  0  0  0  0  0  0
    4.6367    2.3832   -3.8489 C   0  0  0  0  0  0  0  0  0  0  0  0
    3.5549    4.4860   -3.4827 C   0  0  0  0  0  0  0  0  0  0  0  0
    5.4435   -2.3534    4.2773 C   0  0  0  0  0  0  0  0  0  0  0  0
    6.7329   -0.2822    4.3237 N   0  0  0  0  0  0  0  0  0  0  0  0
    4.5673    3.7579   -4.1184 C   0  0  0  0  0  0  0  0  0  0  0  0
    6.8270   -1.7299    4.4158 C   0  0  0  0  0  0  0  0  0  0  0  0
    7.2566    0.6521    5.2142 C   0  0  0  0  0  0  0  0  0  0  0  0
    5.4475    4.3086   -5.0362 N   0  0  0  0  0  0  0  0  0  0  0  0
    7.3031    1.8373    4.8765 O   0  0  0  0  0  0  0  0  0  0  0  0
    7.7661    0.2693    6.5356 C   0  0  0  0  0  0  0  0  0  0  0  0
    5.1142    5.5408   -5.7619 C   0  0  0  0  0  0  0  0  0  0  0  0
    6.8900    4.1876   -4.7519 C   0  0  0  0  0  0  0  0  0  0  0  0
    8.5476    1.1798    7.2227 N   0  0  0  0  0  0  0  0  0  0  0  0
    8.2803   -0.8807    7.1411 C   0  0  0  0  0  0  0  0  0  0  0  0
    5.9138    5.5657   -7.0876 C   0  0  0  0  0  0  0  0  0  0  0  0
    7.6766    4.2428   -6.0828 C   0  0  0  0  0  0  0  0  0  0  0  0
    9.8392    0.7269    7.1213 C   0  0  0  0  0  0  0  0  0  0  0  0
    8.0296    2.2772    8.0028 C   0  0  0  0  0  0  0  0  0  0  0  0
    9.6948   -0.6650    7.0681 C   0  0  0  0  0  0  0  0  0  0  0  0
    7.6376   -1.7503    8.1678 C   0  0  0  0  0  0  0  0  0  0  0  0
    7.3791    5.4554   -6.8839 N   0  3  0  0  0  0  0  0  0  0  0  0
   11.0777    1.3667    7.1338 C   0  0  0  0  0  0  0  0  0  0  0  0
   10.8400   -1.4693    7.1381 C   0  0  0  0  0  0  0  0  0  0  0  0
    8.0665    5.3925   -8.1722 C   0  0  0  0  0  0  0  0  0  0  0  0
   12.2068    0.5427    7.0622 C   0  0  0  0  0  0  0  0  0  0  0  0
   12.0935   -0.8501    7.0791 C   0  0  0  0  0  0  0  0  0  0  0  0
    3.1091    1.7148    0.2620 H   0  0  0  0  0  0  0  0  0  0  0  0
    1.1387    2.5541   -0.9703 H   0  0  0  0  0  0  0  0  0  0  0  0
    1.2579    1.0801   -1.9236 H   0  0  0  0  0  0  0  0  0  0  0  0
    1.9493   -2.4119    1.2696 H   0  0  0  0  0  0  0  0  0  0  0  0
    3.2420   -3.3480    3.1107 H   0  0  0  0  0  0  0  0  0  0  0  0
    3.8134    0.7428   -2.8130 H   0  0  0  0  0  0  0  0  0  0  0  0
    1.9266    4.4332   -2.1377 H   0  0  0  0  0  0  0  0  0  0  0  0
    5.9689    1.2426    3.1363 H   0  0  0  0  0  0  0  0  0  0  0  0
    6.9925    0.0523    2.3059 H   0  0  0  0  0  0  0  0  0  0  0  0
    5.3683    1.8180   -4.3076 H   0  0  0  0  0  0  0  0  0  0  0  0
    3.4650    5.4967   -3.6709 H   0  0  0  0  0  0  0  0  0  0  0  0
    5.5568   -3.4062    4.1230 H   0  0  0  0  0  0  0  0  0  0  0  0
    4.9024   -2.1402    5.1755 H   0  0  0  0  0  0  0  0  0  0  0  0
    7.4595   -2.0941    3.6334 H   0  0  0  0  0  0  0  0  0  0  0  0
    7.2372   -1.9946    5.3680 H   0  0  0  0  0  0  0  0  0  0  0  0
    5.3757    6.3911   -5.1673 H   0  0  0  0  0  0  0  0  0  0  0  0
    4.0646    5.5710   -5.9677 H   0  0  0  0  0  0  0  0  0  0  0  0
    7.0814    3.2562   -4.2614 H   0  0  0  0  0  0  0  0  0  0  0  0
    7.2002    4.9913   -4.1173 H   0  0  0  0  0  0  0  0  0  0  0  0
    5.7082    6.4865   -7.5923 H   0  0  0  0  0  0  0  0  0  0  0  0
    5.6062    4.7173   -7.6624 H   0  0  0  0  0  0  0  0  0  0  0  0
    7.4242    3.3804   -6.6636 H   0  0  0  0  0  0  0  0  0  0  0  0
    8.7178    4.2695   -5.8375 H   0  0  0  0  0  0  0  0  0  0  0  0
    6.9735    2.3560    7.8503 H   0  0  0  0  0  0  0  0  0  0  0  0
    8.5030    3.1868    7.6971 H   0  0  0  0  0  0  0  0  0  0  0  0
    8.2282    2.1028    9.0396 H   0  0  0  0  0  0  0  0  0  0  0  0
    6.5780   -1.7541    8.0193 H   0  0  0  0  0  0  0  0  0  0  0  0
    7.8596   -1.3732    9.1442 H   0  0  0  0  0  0  0  0  0  0  0  0
    8.0141   -2.7478    8.0766 H   0  0  0  0  0  0  0  0  0  0  0  0
    7.7112    6.2792   -6.3822 H   0  0  0  0  0  0  0  0  0  0  0  0
   11.1579    2.3939    7.1927 H   0  0  0  0  0  0  0  0  0  0  0  0
   10.7609   -2.4941    7.2309 H   0  0  0  0  0  0  0  0  0  0  0  0
    7.7306    4.5331   -8.7140 H   0  0  0  0  0  0  0  0  0  0  0  0
    9.1218    5.3220   -8.0103 H   0  0  0  0  0  0  0  0  0  0  0  0
    7.8503    6.2762   -8.7354 H   0  0  0  0  0  0  0  0  0  0  0  0
   13.1426    0.9727    6.9955 H   0  0  0  0  0  0  0  0  0  0  0  0
   12.9464   -1.4302    7.0476 H   0  0  0  0  0  0  0  0  0  0  0  0
  1  2  2  0  0  0  0
  2  3  1  0  0  0  0
  2  4  1  0  0  0  0
  3  5  1  0  0  0  0
  3 41  1  0  0  0  0
  4  6  2  0  0  0  0
  4  7  1  0  0  0  0
  5  8  1  0  0  0  0
  5 42  1  0  0  0  0
  5 43  1  0  0  0  0
  6  9  1  0  0  0  0
  7 10  2  0  0  0  0
  7 44  1  0  0  0  0
  8 11  2  0  0  0  0
  8 12  1  0  0  0  0
  9 13  2  0  0  0  0
  9 14  1  0  0  0  0
 10 13  1  0  0  0  0
 10 45  1  0  0  0  0
 11 15  1  0  0  0  0
 11 46  1  0  0  0  0
 12 16  2  0  0  0  0
 12 47  1  0  0  0  0
 13 17  1  0  0  0  0
 14 18  1  0  0  0  0
 14 48  1  0  0  0  0
 14 49  1  0  0  0  0
 15 19  2  0  0  0  0
 15 50  1  0  0  0  0
 16 19  1  0  0  0  0
 16 51  1  0  0  0  0
 17 20  1  0  0  0  0
 17 52  1  0  0  0  0
 17 53  1  0  0  0  0
 18 21  1  0  0  0  0
 18 20  1  0  0  0  0
 19 22  1  0  0  0  0
 20 54  1  0  0  0  0
 20 55  1  0  0  0  0
 21 23  2  0  0  0  0
 21 24  1  0  0  0  0
 22 25  1  0  0  0  0
 22 26  1  0  0  0  0
 24 27  1  0  0  0  0
 24 28  2  0  0  0  0
 25 29  1  0  0  0  0
 25 56  1  0  0  0  0
 25 57  1  0  0  0  0
 26 30  1  0  0  0  0
 26 58  1  0  0  0  0
 26 59  1  0  0  0  0
 27 31  1  0  0  0  0
 27 32  1  0  0  0  0
 28 33  1  0  0  0  0
 28 34  1  0  0  0  0
 29 35  1  0  0  0  0
 29 60  1  0  0  0  0
 29 61  1  0  0  0  0
 30 35  1  0  0  0  0
 30 62  1  0  0  0  0
 30 63  1  0  0  0  0
 31 36  2  0  0  0  0
 31 33  1  0  0  0  0
 32 64  1  0  0  0  0
 32 65  1  0  0  0  0
 32 66  1  0  0  0  0
 33 37  2  0  0  0  0
 34 67  1  0  0  0  0
 34 68  1  0  0  0  0
 34 69  1  0  0  0  0
 35 38  1  0  0  0  0
 35 70  1  0  0  0  0
 36 39  1  0  0  0  0
 36 71  1  0  0  0  0
 37 40  1  0  0  0  0
 37 72  1  0  0  0  0
 38 73  1  0  0  0  0
 38 74  1  0  0  0  0
 38 75  1  0  0  0  0
 39 40  2  0  0  0  0
 39 76  1  0  0  0  0
 40 77  1  0  0  0  0
M  CHG  1  35   1
M  END
>  <Molecule Name>
CTX-1020752

>  <SMILES>
CN1C2=C(C=CC=C2)C(C)=C1C(=O)N1CCC2=C(C1)N=C(C=C2)C(=O)NCC1=CC=C(C=C1)N1CCN(C)CC1

>  <Batch Name>
CTX-1020752-1

>  <Batch Created Date>
2021-12-16

>  <Batch ID>
CTX-1020752-1

>  <External ID>
P841-0368

>  <Stereochemistry>
Achiral

>  <Amount 1>
4.6

>  <Unit 1>
mg

>  <CRO 1>
Pharmaron

>  <CRO 1 Total Amount>
25.65

>  <CRO 1 Unit>
mg

>  <Pharmaron Solubility (PBS, pH 7.4): Aqueous Solubility - Batch Mean (uM)>
181.5126

>  <Pharmaron Solubility (PBS, pH 7.4): Aqueous Solubility - Batch Mean (uM) Standard Deviation (±)>


>  <Pharmaron Solubility (PBS, pH 7.4): Aqueous Solubility - Batch Mean (uM) Count>
1.0

>  <log P>
3.8

>  <log D>
3.16

>  <Pharmaron Caliper Assay (CDK2/CCNE1): Minimum measured (%)>
43.0

>  <Pharmaron Caliper Assay (CDK2/CCNE1): IC50 - Batch Mean (uM)>
87.0

>  <Pharmaron ADPGLO (CDK2/E1-25C): Minimum measured (%)>


>  <Pharmaron ADPGLO (CDK2/E1-25C): IC50 - Batch Mean (uM)>


>  <Pharmaron ADPGLO (CDK2/E1-37C): Minimum measured (%)>


>  <Pharmaron ADPGLO (CDK2/E1-37C): IC50 - Batch Mean (uM)>


>  <IncuCyte Kuramochi RB-WT: IC50 - Batch Mean (uM)>
11.1

>  <IncuCyte Kuramochi RB-KO: IC50 - Batch Mean (uM)>
9.67

>  <DSF (npCDK2/CCNE1): dTm D - Batch Mean [Concentration: 100]>


>  <DSF (npCDK2/CCNE1): dTm D - Batch Mean [Concentration: 20.0]>
0.408

>  <DSF (pCDK2/CCNE1): dTm D - Batch Mean [Concentration: 100]>


>  <DSF (pCDK2/CCNE1): dTm D - Batch Mean [Concentration: 20.0]>


>  <RLM: t1/2 - Batch Mean (Min)>


>  <RLM: Cl int - Batch Mean (uL/min/mg protein)>


>  <RLM: ER (Hepatic extraction ratio) - Batch Mean>


>  <HLM: t1/2 - Batch Mean (Min)>


>  <HLM: Cl int - Batch Mean (uL/min/mg protein)>


>  <HLM: ER (Hepatic extraction ratio) - Batch Mean>


>  <MDCK-WT 4% BSA: Papp (A-B) - Batch Mean (10-6, cm/s)>


>  <MDCK-WT 4% BSA: Papp (B-A) - Batch Mean (10-6, cm/s)>


>  <MDCK-WT 4% BSA: Efflux Ratio - Batch Mean>


>  <MDCK-WT 4% BSA: ~Net A_B - Batch Mean (10-6, cm/s)>


>  <pIC50>
4.060481

>  <Selection_1>
Y

>  <Selection_N>
Y

>  <Serie>
Naphthyridine

>  <Selection_T>
N

>  <Train_Vs_Test>


$$$$
