CTX-1020753
 OpenBabel08272613283D

 74 79  0  0  0  0  0  0  0  0999 V2000
    1.3193   -0.1644    1.4918 Cl  0  0  0  0  0  0  0  0  0  0  0  0
    2.7362   -0.4245    0.5478 C   0  0  0  0  0  0  0  0  0  0  0  0
    3.2234   -1.6895    0.0653 C   0  0  0  0  0  0  0  0  0  0  0  0
    3.5885    0.7264    0.2228 C   0  0  0  0  0  0  0  0  0  0  0  0
    4.3756   -1.1913   -0.6915 N   0  0  0  0  0  0  0  0  0  0  0  0
    2.4011   -3.1476    0.3608 C   0  0  0  0  0  0  0  0  0  0  0  0
    4.6248    0.2414   -0.5665 C   0  0  0  0  0  0  0  0  0  0  0  0
    3.5926    2.1569    0.5215 C   0  0  0  0  0  0  0  0  0  0  0  0
    5.2475   -1.9326   -1.5756 C   0  0  0  0  0  0  0  0  0  0  0  0
    1.1871   -3.0592    0.5871 O   0  0  0  0  0  0  0  0  0  0  0  0
    2.9069   -4.5855    0.4516 N   0  0  0  0  0  0  0  0  0  0  0  0
    5.6260    1.2120   -1.0558 C   0  0  0  0  0  0  0  0  0  0  0  0
    4.5965    3.0729    0.0690 C   0  0  0  0  0  0  0  0  0  0  0  0
    2.1451   -5.9260    0.7866 C   0  0  0  0  0  0  0  0  0  0  0  0
    4.1759   -4.7667   -0.0741 C   0  0  0  0  0  0  0  0  0  0  0  0
    5.6101    2.5955   -0.7278 C   0  0  0  0  0  0  0  0  0  0  0  0
    2.8916   -7.3637    0.4268 C   0  0  0  0  0  0  0  0  0  0  0  0
    4.9722   -6.0379   -0.1413 C   0  0  0  0  0  0  0  0  0  0  0  0
    2.3158   -8.6467    0.6013 N   0  0  0  0  0  0  0  0  0  0  0  0
    4.2051   -7.2958   -0.0404 C   0  0  0  0  0  0  0  0  0  0  0  0
    3.1055   -9.7943    0.3210 C   0  0  0  0  0  0  0  0  0  0  0  0
    4.9423   -8.4508   -0.3400 C   0  0  0  0  0  0  0  0  0  0  0  0
    2.6098  -11.3113    0.4290 C   0  0  0  0  0  0  0  0  0  0  0  0
    4.4151   -9.7074   -0.1284 C   0  0  0  0  0  0  0  0  0  0  0  0
    3.3704  -12.2601    0.2136 O   0  0  0  0  0  0  0  0  0  0  0  0
    1.2769  -11.5339    0.7464 N   0  0  0  0  0  0  0  0  0  0  0  0
    0.7359  -12.8945    0.7863 C   0  0  0  0  0  0  0  0  0  0  0  0
   -0.4013  -13.0489    1.7659 C   0  0  0  0  0  0  0  0  0  0  0  0
   -1.7440  -12.8967    1.3806 C   0  0  0  0  0  0  0  0  0  0  0  0
   -0.1298  -13.3177    3.1118 C   0  0  0  0  0  0  0  0  0  0  0  0
   -2.7332  -12.8440    2.3423 C   0  0  0  0  0  0  0  0  0  0  0  0
   -1.1572  -13.3890    4.0251 C   0  0  0  0  0  0  0  0  0  0  0  0
   -2.4446  -13.1223    3.6726 C   0  0  0  0  0  0  0  0  0  0  0  0
   -3.4695  -13.0393    4.6605 N   0  0  0  0  0  0  0  0  0  0  0  0
   -4.8620  -13.3868    4.3327 C   0  0  0  0  0  0  0  0  0  0  0  0
   -3.1707  -12.9477    6.0766 C   0  0  0  0  0  0  0  0  0  0  0  0
   -5.7944  -12.3906    5.0394 C   0  0  0  0  0  0  0  0  0  0  0  0
   -4.1418  -11.9607    6.7420 C   0  0  0  0  0  0  0  0  0  0  0  0
   -5.5340  -12.3590    6.4929 N   0  3  0  0  0  0  0  0  0  0  0  0
   -6.4692  -11.4536    7.1515 C   0  0  0  0  0  0  0  0  0  0  0  0
    2.8217    2.5318    1.0961 H   0  0  0  0  0  0  0  0  0  0  0  0
    4.9607   -2.9634   -1.5776 H   0  0  0  0  0  0  0  0  0  0  0  0
    6.2584   -1.8442   -1.2362 H   0  0  0  0  0  0  0  0  0  0  0  0
    5.1685   -1.5385   -2.5673 H   0  0  0  0  0  0  0  0  0  0  0  0
    6.3794    0.8660   -1.6705 H   0  0  0  0  0  0  0  0  0  0  0  0
    4.5598    4.0693    0.3352 H   0  0  0  0  0  0  0  0  0  0  0  0
    1.2189   -5.9068    0.2511 H   0  0  0  0  0  0  0  0  0  0  0  0
    2.0681   -5.9273    1.8538 H   0  0  0  0  0  0  0  0  0  0  0  0
    4.7957   -4.0865    0.4718 H   0  0  0  0  0  0  0  0  0  0  0  0
    3.9378   -4.6683   -1.1127 H   0  0  0  0  0  0  0  0  0  0  0  0
    6.3446    3.2286   -1.0809 H   0  0  0  0  0  0  0  0  0  0  0  0
    5.6799   -6.0222    0.6611 H   0  0  0  0  0  0  0  0  0  0  0  0
    5.4113   -6.0486   -1.1170 H   0  0  0  0  0  0  0  0  0  0  0  0
    5.8952   -8.3587   -0.7252 H   0  0  0  0  0  0  0  0  0  0  0  0
    4.9769  -10.5561   -0.2990 H   0  0  0  0  0  0  0  0  0  0  0  0
    0.6894  -10.7697    0.9467 H   0  0  0  0  0  0  0  0  0  0  0  0
    1.5209  -13.5654    1.0668 H   0  0  0  0  0  0  0  0  0  0  0  0
    0.3511  -13.1144   -0.1876 H   0  0  0  0  0  0  0  0  0  0  0  0
   -1.9901  -12.8245    0.3810 H   0  0  0  0  0  0  0  0  0  0  0  0
    0.8440  -13.4631    3.4208 H   0  0  0  0  0  0  0  0  0  0  0  0
   -3.6971  -12.5953    2.0702 H   0  0  0  0  0  0  0  0  0  0  0  0
   -0.9463  -13.6510    5.0008 H   0  0  0  0  0  0  0  0  0  0  0  0
   -5.0744  -14.3802    4.6688 H   0  0  0  0  0  0  0  0  0  0  0  0
   -5.0113  -13.3401    3.2742 H   0  0  0  0  0  0  0  0  0  0  0  0
   -2.1663  -12.6029    6.2076 H   0  0  0  0  0  0  0  0  0  0  0  0
   -3.2783  -13.9123    6.5269 H   0  0  0  0  0  0  0  0  0  0  0  0
   -6.8099  -12.6835    4.8724 H   0  0  0  0  0  0  0  0  0  0  0  0
   -5.6144  -11.4143    4.6402 H   0  0  0  0  0  0  0  0  0  0  0  0
   -3.9787  -10.9822    6.3409 H   0  0  0  0  0  0  0  0  0  0  0  0
   -3.9659  -11.9617    7.7974 H   0  0  0  0  0  0  0  0  0  0  0  0
   -5.6734  -13.2915    6.8820 H   0  0  0  0  0  0  0  0  0  0  0  0
   -6.3438  -10.4653    6.7608 H   0  0  0  0  0  0  0  0  0  0  0  0
   -6.2785  -11.4478    8.2043 H   0  0  0  0  0  0  0  0  0  0  0  0
   -7.4711  -11.7835    6.9723 H   0  0  0  0  0  0  0  0  0  0  0  0
  1  2  1  0  0  0  0
  2  3  2  0  0  0  0
  2  4  1  0  0  0  0
  3  5  1  0  0  0  0
  3  6  1  0  0  0  0
  4  7  2  0  0  0  0
  4  8  1  0  0  0  0
  5  9  1  0  0  0  0
  5  7  1  0  0  0  0
  6 10  2  0  0  0  0
  6 11  1  0  0  0  0
  7 12  1  0  0  0  0
  8 13  2  0  0  0  0
  8 41  1  0  0  0  0
  9 42  1  0  0  0  0
  9 43  1  0  0  0  0
  9 44  1  0  0  0  0
 11 14  1  0  0  0  0
 11 15  1  0  0  0  0
 12 16  2  0  0  0  0
 12 45  1  0  0  0  0
 13 16  1  0  0  0  0
 13 46  1  0  0  0  0
 14 17  1  0  0  0  0
 14 47  1  0  0  0  0
 14 48  1  0  0  0  0
 15 18  1  0  0  0  0
 15 49  1  0  0  0  0
 15 50  1  0  0  0  0
 16 51  1  0  0  0  0
 17 19  2  0  0  0  0
 17 20  1  0  0  0  0
 18 20  1  0  0  0  0
 18 52  1  0  0  0  0
 18 53  1  0  0  0  0
 19 21  1  0  0  0  0
 20 22  2  0  0  0  0
 21 23  1  0  0  0  0
 21 24  2  0  0  0  0
 22 24  1  0  0  0  0
 22 54  1  0  0  0  0
 23 25  2  0  0  0  0
 23 26  1  0  0  0  0
 24 55  1  0  0  0  0
 26 27  1  0  0  0  0
 26 56  1  0  0  0  0
 27 28  1  0  0  0  0
 27 57  1  0  0  0  0
 27 58  1  0  0  0  0
 28 29  2  0  0  0  0
 28 30  1  0  0  0  0
 29 31  1  0  0  0  0
 29 59  1  0  0  0  0
 30 32  2  0  0  0  0
 30 60  1  0  0  0  0
 31 33  2  0  0  0  0
 31 61  1  0  0  0  0
 32 33  1  0  0  0  0
 32 62  1  0  0  0  0
 33 34  1  0  0  0  0
 34 35  1  0  0  0  0
 34 36  1  0  0  0  0
 35 37  1  0  0  0  0
 35 63  1  0  0  0  0
 35 64  1  0  0  0  0
 36 38  1  0  0  0  0
 36 65  1  0  0  0  0
 36 66  1  0  0  0  0
 37 39  1  0  0  0  0
 37 67  1  0  0  0  0
 37 68  1  0  0  0  0
 38 39  1  0  0  0  0
 38 69  1  0  0  0  0
 38 70  1  0  0  0  0
 39 40  1  0  0  0  0
 39 71  1  0  0  0  0
 40 72  1  0  0  0  0
 40 73  1  0  0  0  0
 40 74  1  0  0  0  0
M  CHG  1  39   1
M  END
>  <Molecule Name>
CTX-1020753

>  <SMILES>
CN1C2=C(C=CC=C2)C(Cl)=C1C(=O)N1CCC2=CC=C(N=C2C1)C(=O)NCC1=CC=C(C=C1)N1CCN(C)CC1

>  <Batch Name>
CTX-1020753-1

>  <Batch Created Date>
2021-12-16

>  <Batch ID>
CTX-1020753-1

>  <External ID>
P841-0369

>  <Stereochemistry>
Achiral

>  <Amount 1>
5.1

>  <Unit 1>
mg

>  <CRO 1>
Pharmaron

>  <CRO 1 Total Amount>
26.75

>  <CRO 1 Unit>
mg

>  <Pharmaron Solubility (PBS, pH 7.4): Aqueous Solubility - Batch Mean (uM)>
8.9921

>  <Pharmaron Solubility (PBS, pH 7.4): Aqueous Solubility - Batch Mean (uM) Standard Deviation (±)>


>  <Pharmaron Solubility (PBS, pH 7.4): Aqueous Solubility - Batch Mean (uM) Count>
1.0

>  <log P>
3.89

>  <log D>
3.25

>  <Pharmaron Caliper Assay (CDK2/CCNE1): Minimum measured (%)>
23.6

>  <Pharmaron Caliper Assay (CDK2/CCNE1): IC50 - Batch Mean (uM)>
3.4

>  <Pharmaron ADPGLO (CDK2/E1-25C): Minimum measured (%)>


>  <Pharmaron ADPGLO (CDK2/E1-25C): IC50 - Batch Mean (uM)>


>  <Pharmaron ADPGLO (CDK2/E1-37C): Minimum measured (%)>


>  <Pharmaron ADPGLO (CDK2/E1-37C): IC50 - Batch Mean (uM)>


>  <IncuCyte Kuramochi RB-WT: IC50 - Batch Mean (uM)>
8.69

>  <IncuCyte Kuramochi RB-KO: IC50 - Batch Mean (uM)>
8.63

>  <DSF (npCDK2/CCNE1): dTm D - Batch Mean [Concentration: 100]>


>  <DSF (npCDK2/CCNE1): dTm D - Batch Mean [Concentration: 20.0]>
1.31

>  <DSF (pCDK2/CCNE1): dTm D - Batch Mean [Concentration: 100]>


>  <DSF (pCDK2/CCNE1): dTm D - Batch Mean [Concentration: 20.0]>


>  <RLM: t1/2 - Batch Mean (Min)>


>  <RLM: Cl int - Batch Mean (uL/min/mg protein)>


>  <RLM: ER (Hepatic extraction ratio) - Batch Mean>


>  <HLM: t1/2 - Batch Mean (Min)>


>  <HLM: Cl int - Batch Mean (uL/min/mg protein)>


>  <HLM: ER (Hepatic extraction ratio) - Batch Mean>


>  <MDCK-WT 4% BSA: Papp (A-B) - Batch Mean (10-6, cm/s)>


>  <MDCK-WT 4% BSA: Papp (B-A) - Batch Mean (10-6, cm/s)>


>  <MDCK-WT 4% BSA: Efflux Ratio - Batch Mean>


>  <MDCK-WT 4% BSA: ~Net A_B - Batch Mean (10-6, cm/s)>


>  <pIC50>
5.468521

>  <Selection_1>
Y

>  <Selection_N>


>  <Serie>
Naphthyridine

>  <Selection_T>
N

>  <Train_Vs_Test>


$$$$
