CTX-1020759
 OpenBabel08272613283D

 78 83  0  0  0  0  0  0  0  0999 V2000
    1.4129   -0.3254    0.5590 O   0  0  0  0  0  0  0  0  0  0  0  0
    2.3423    0.0135   -0.1608 C   0  0  0  0  0  0  0  0  0  0  0  0
    2.7508   -0.7405   -1.2397 N   0  0  0  0  0  0  0  0  0  0  0  0
    3.0886    1.3079    0.1213 C   0  0  0  0  0  0  0  0  0  0  0  0
    2.1185   -2.0283   -1.5122 C   0  0  0  0  0  0  0  0  0  0  0  0
    4.1410    1.7181   -0.6686 N   0  0  0  0  0  0  0  0  0  0  0  0
    2.6306    2.0421    1.2074 C   0  0  0  0  0  0  0  0  0  0  0  0
    2.2356   -2.4365   -2.9560 C   0  0  0  0  0  0  0  0  0  0  0  0
    4.7462    2.9230   -0.3447 C   0  0  0  0  0  0  0  0  0  0  0  0
    3.2640    3.2336    1.5290 C   0  0  0  0  0  0  0  0  0  0  0  0
    2.8536   -3.6362   -3.3133 C   0  0  0  0  0  0  0  0  0  0  0  0
    1.6942   -1.6403   -3.9723 C   0  0  0  0  0  0  0  0  0  0  0  0
    4.3483    3.6816    0.7695 C   0  0  0  0  0  0  0  0  0  0  0  0
    5.9209    3.4494   -1.2031 C   0  0  0  0  0  0  0  0  0  0  0  0
    2.9686   -3.9973   -4.6585 C   0  0  0  0  0  0  0  0  0  0  0  0
    1.8303   -2.0033   -5.3193 C   0  0  0  0  0  0  0  0  0  0  0  0
    5.0057    4.9942    1.1115 C   0  0  0  0  0  0  0  0  0  0  0  0
    6.3791    4.8640   -0.9017 N   0  0  0  0  0  0  0  0  0  0  0  0
    2.4838   -3.1830   -5.6936 C   0  0  0  0  0  0  0  0  0  0  0  0
    6.4021    5.1732    0.5061 C   0  0  0  0  0  0  0  0  0  0  0  0
    6.6249    5.7572   -1.9759 C   0  0  0  0  0  0  0  0  0  0  0  0
    2.6107   -3.6050   -7.0039 N   0  0  0  0  0  0  0  0  0  0  0  0
    6.3288    5.3084   -3.0853 O   0  0  0  0  0  0  0  0  0  0  0  0
    7.1345    7.1880   -1.9246 C   0  0  0  0  0  0  0  0  0  0  0  0
    1.7070   -3.1260   -8.0592 C   0  0  0  0  0  0  0  0  0  0  0  0
    3.9562   -3.9486   -7.5047 C   0  0  0  0  0  0  0  0  0  0  0  0
    8.0630    8.0150   -1.1817 N   0  0  0  0  0  0  0  0  0  0  0  0
    6.9563    7.9529   -3.0797 C   0  0  0  0  0  0  0  0  0  0  0  0
    1.6149   -4.2091   -9.1632 C   0  0  0  0  0  0  0  0  0  0  0  0
    3.8252   -5.0121   -8.6194 C   0  0  0  0  0  0  0  0  0  0  0  0
    8.1202    9.4007   -1.6928 C   0  0  0  0  0  0  0  0  0  0  0  0
    9.1512    7.3862   -0.4336 C   0  0  0  0  0  0  0  0  0  0  0  0
    7.4461    9.2670   -2.9140 C   0  0  0  0  0  0  0  0  0  0  0  0
    2.9420   -4.5635   -9.7222 N   0  3  0  0  0  0  0  0  0  0  0  0
    8.7404   10.7523   -1.3865 C   0  0  0  0  0  0  0  0  0  0  0  0
    9.8467    6.1817   -1.1207 C   0  0  0  0  0  0  0  0  0  0  0  0
    7.3301   10.3600   -3.7946 C   0  0  0  0  0  0  0  0  0  0  0  0
    2.8144   -5.6060  -10.7354 C   0  0  0  0  0  0  0  0  0  0  0  0
    8.8509   11.7133   -2.4630 C   0  0  0  0  0  0  0  0  0  0  0  0
   10.4290    5.2949   -0.1603 O   0  0  0  0  0  0  0  0  0  0  0  0
    8.0491   11.5334   -3.5818 C   0  0  0  0  0  0  0  0  0  0  0  0
    3.4691   -0.4109   -1.8268 H   0  0  0  0  0  0  0  0  0  0  0  0
    1.0812   -1.9613   -1.2581 H   0  0  0  0  0  0  0  0  0  0  0  0
    2.6218   -2.7673   -0.9246 H   0  0  0  0  0  0  0  0  0  0  0  0
    1.8310    1.7063    1.7669 H   0  0  0  0  0  0  0  0  0  0  0  0
    2.9334    3.7913    2.3320 H   0  0  0  0  0  0  0  0  0  0  0  0
    3.2273   -4.2595   -2.5806 H   0  0  0  0  0  0  0  0  0  0  0  0
    1.1883   -0.7750   -3.7265 H   0  0  0  0  0  0  0  0  0  0  0  0
    5.6191    3.4140   -2.2290 H   0  0  0  0  0  0  0  0  0  0  0  0
    6.7541    2.8193   -0.9716 H   0  0  0  0  0  0  0  0  0  0  0  0
    3.4245   -4.8915   -4.8984 H   0  0  0  0  0  0  0  0  0  0  0  0
    1.4404   -1.3879   -6.0504 H   0  0  0  0  0  0  0  0  0  0  0  0
    5.0904    5.0599    2.1761 H   0  0  0  0  0  0  0  0  0  0  0  0
    4.3894    5.7644    0.6968 H   0  0  0  0  0  0  0  0  0  0  0  0
    7.0881    4.5175    1.0005 H   0  0  0  0  0  0  0  0  0  0  0  0
    6.7102    6.1897    0.6347 H   0  0  0  0  0  0  0  0  0  0  0  0
    2.0898   -2.2181   -8.4764 H   0  0  0  0  0  0  0  0  0  0  0  0
    0.7361   -2.9384   -7.6504 H   0  0  0  0  0  0  0  0  0  0  0  0
    4.5474   -4.3404   -6.7035 H   0  0  0  0  0  0  0  0  0  0  0  0
    4.4296   -3.0726   -7.8963 H   0  0  0  0  0  0  0  0  0  0  0  0
    6.5208    7.6013   -3.9467 H   0  0  0  0  0  0  0  0  0  0  0  0
    0.9963   -3.8407   -9.9548 H   0  0  0  0  0  0  0  0  0  0  0  0
    1.2023   -5.0913   -8.7201 H   0  0  0  0  0  0  0  0  0  0  0  0
    3.4195   -5.9069   -8.1956 H   0  0  0  0  0  0  0  0  0  0  0  0
    4.7997   -5.1808   -9.0277 H   0  0  0  0  0  0  0  0  0  0  0  0
    8.7520    7.0447    0.4986 H   0  0  0  0  0  0  0  0  0  0  0  0
    9.9065    8.1382   -0.3397 H   0  0  0  0  0  0  0  0  0  0  0  0
    3.3495   -3.7436  -10.1717 H   0  0  0  0  0  0  0  0  0  0  0  0
    9.0740   10.9796   -0.4367 H   0  0  0  0  0  0  0  0  0  0  0  0
   10.6164    6.5474   -1.7678 H   0  0  0  0  0  0  0  0  0  0  0  0
    9.1093    5.6393   -1.6747 H   0  0  0  0  0  0  0  0  0  0  0  0
    6.7023   10.2901   -4.6106 H   0  0  0  0  0  0  0  0  0  0  0  0
    2.3884   -6.4825  -10.2937 H   0  0  0  0  0  0  0  0  0  0  0  0
    3.7809   -5.8395  -11.1306 H   0  0  0  0  0  0  0  0  0  0  0  0
    2.1803   -5.2603  -11.5249 H   0  0  0  0  0  0  0  0  0  0  0  0
    9.5060   12.5082   -2.4007 H   0  0  0  0  0  0  0  0  0  0  0  0
   11.1014    5.7701    0.3525 H   0  0  0  0  0  0  0  0  0  0  0  0
    7.9837   12.2929   -4.2774 H   0  0  0  0  0  0  0  0  0  0  0  0
  1  2  2  0  0  0  0
  2  3  1  0  0  0  0
  2  4  1  0  0  0  0
  3  5  1  0  0  0  0
  3 42  1  0  0  0  0
  4  6  2  0  0  0  0
  4  7  1  0  0  0  0
  5  8  1  0  0  0  0
  5 43  1  0  0  0  0
  5 44  1  0  0  0  0
  6  9  1  0  0  0  0
  7 10  2  0  0  0  0
  7 45  1  0  0  0  0
  8 11  2  0  0  0  0
  8 12  1  0  0  0  0
  9 13  2  0  0  0  0
  9 14  1  0  0  0  0
 10 13  1  0  0  0  0
 10 46  1  0  0  0  0
 11 15  1  0  0  0  0
 11 47  1  0  0  0  0
 12 16  2  0  0  0  0
 12 48  1  0  0  0  0
 13 17  1  0  0  0  0
 14 18  1  0  0  0  0
 14 49  1  0  0  0  0
 14 50  1  0  0  0  0
 15 19  2  0  0  0  0
 15 51  1  0  0  0  0
 16 19  1  0  0  0  0
 16 52  1  0  0  0  0
 17 20  1  0  0  0  0
 17 53  1  0  0  0  0
 17 54  1  0  0  0  0
 18 21  1  0  0  0  0
 18 20  1  0  0  0  0
 19 22  1  0  0  0  0
 20 55  1  0  0  0  0
 20 56  1  0  0  0  0
 21 23  2  0  0  0  0
 21 24  1  0  0  0  0
 22 25  1  0  0  0  0
 22 26  1  0  0  0  0
 24 27  1  0  0  0  0
 24 28  2  0  0  0  0
 25 29  1  0  0  0  0
 25 57  1  0  0  0  0
 25 58  1  0  0  0  0
 26 30  1  0  0  0  0
 26 59  1  0  0  0  0
 26 60  1  0  0  0  0
 27 31  1  0  0  0  0
 27 32  1  0  0  0  0
 28 33  1  0  0  0  0
 28 61  1  0  0  0  0
 29 34  1  0  0  0  0
 29 62  1  0  0  0  0
 29 63  1  0  0  0  0
 30 34  1  0  0  0  0
 30 64  1  0  0  0  0
 30 65  1  0  0  0  0
 31 35  2  0  0  0  0
 31 33  1  0  0  0  0
 32 36  1  0  0  0  0
 32 66  1  0  0  0  0
 32 67  1  0  0  0  0
 33 37  2  0  0  0  0
 34 38  1  0  0  0  0
 34 68  1  0  0  0  0
 35 39  1  0  0  0  0
 35 69  1  0  0  0  0
 36 40  1  0  0  0  0
 36 70  1  0  0  0  0
 36 71  1  0  0  0  0
 37 41  1  0  0  0  0
 37 72  1  0  0  0  0
 38 73  1  0  0  0  0
 38 74  1  0  0  0  0
 38 75  1  0  0  0  0
 39 41  2  0  0  0  0
 39 76  1  0  0  0  0
 40 77  1  0  0  0  0
 41 78  1  0  0  0  0
M  CHG  1  34   1
M  END
>  <Molecule Name>
CTX-1020759

>  <SMILES>
CN1CCN(CC1)C1=CC=C(CNC(=O)C2=NC3=C(CCN(C3)C(=O)C3=CC4=C(C=CC=C4)N3CCO)C=C2)C=C1

>  <Batch Name>
CTX-1020759-1

>  <Batch Created Date>
2021-12-16

>  <Batch ID>
CTX-1020759-1

>  <External ID>
P841-0381

>  <Stereochemistry>
Achiral

>  <Amount 1>
5.05

>  <Unit 1>
mg

>  <CRO 1>
Pharmaron

>  <CRO 1 Total Amount>
20.45

>  <CRO 1 Unit>
mg

>  <Pharmaron Solubility (PBS, pH 7.4): Aqueous Solubility - Batch Mean (uM)>
308.3799

>  <Pharmaron Solubility (PBS, pH 7.4): Aqueous Solubility - Batch Mean (uM) Standard Deviation (±)>


>  <Pharmaron Solubility (PBS, pH 7.4): Aqueous Solubility - Batch Mean (uM) Count>
1.0

>  <log P>
2.59

>  <log D>
1.96

>  <Pharmaron Caliper Assay (CDK2/CCNE1): Minimum measured (%)>
29.5

>  <Pharmaron Caliper Assay (CDK2/CCNE1): IC50 - Batch Mean (uM)>
44.2

>  <Pharmaron ADPGLO (CDK2/E1-25C): Minimum measured (%)>


>  <Pharmaron ADPGLO (CDK2/E1-25C): IC50 - Batch Mean (uM)>


>  <Pharmaron ADPGLO (CDK2/E1-37C): Minimum measured (%)>


>  <Pharmaron ADPGLO (CDK2/E1-37C): IC50 - Batch Mean (uM)>


>  <IncuCyte Kuramochi RB-WT: IC50 - Batch Mean (uM)>
20.0

>  <IncuCyte Kuramochi RB-KO: IC50 - Batch Mean (uM)>
20.0

>  <DSF (npCDK2/CCNE1): dTm D - Batch Mean [Concentration: 100]>


>  <DSF (npCDK2/CCNE1): dTm D - Batch Mean [Concentration: 20.0]>
0.45399999999999996

>  <DSF (pCDK2/CCNE1): dTm D - Batch Mean [Concentration: 100]>


>  <DSF (pCDK2/CCNE1): dTm D - Batch Mean [Concentration: 20.0]>


>  <RLM: t1/2 - Batch Mean (Min)>


>  <RLM: Cl int - Batch Mean (uL/min/mg protein)>


>  <RLM: ER (Hepatic extraction ratio) - Batch Mean>


>  <HLM: t1/2 - Batch Mean (Min)>


>  <HLM: Cl int - Batch Mean (uL/min/mg protein)>


>  <HLM: ER (Hepatic extraction ratio) - Batch Mean>


>  <MDCK-WT 4% BSA: Papp (A-B) - Batch Mean (10-6, cm/s)>


>  <MDCK-WT 4% BSA: Papp (B-A) - Batch Mean (10-6, cm/s)>


>  <MDCK-WT 4% BSA: Efflux Ratio - Batch Mean>


>  <MDCK-WT 4% BSA: ~Net A_B - Batch Mean (10-6, cm/s)>


>  <pIC50>
4.354578

>  <Selection_1>
Y

>  <Selection_N>


>  <Serie>
Naphthyridine

>  <Selection_T>
N

>  <Train_Vs_Test>


$$$$
