CTX-1020751
 OpenBabel08272613283D

 58 62  0  0  0  0  0  0  0  0999 V2000
   11.8545    5.9835    3.8063 F   0  0  0  0  0  0  0  0  0  0  0  0
   11.1222    5.5975    2.7237 C   0  0  0  0  0  0  0  0  0  0  0  0
   11.7231    6.1729    1.6445 F   0  0  0  0  0  0  0  0  0  0  0  0
   11.3298    4.2573    2.5949 F   0  0  0  0  0  0  0  0  0  0  0  0
    9.6584    5.9495    2.8285 C   0  0  0  0  0  0  0  0  0  0  0  0
    9.1466    6.5927    3.9633 C   0  0  0  0  0  0  0  0  0  0  0  0
    8.7834    5.6257    1.7822 C   0  0  0  0  0  0  0  0  0  0  0  0
    7.7885    6.9115    4.0449 C   0  0  0  0  0  0  0  0  0  0  0  0
    7.4248    5.9418    1.8668 C   0  0  0  0  0  0  0  0  0  0  0  0
    6.9141    6.5973    2.9973 C   0  0  0  0  0  0  0  0  0  0  0  0
    5.4432    6.8987    3.1044 C   0  0  0  0  0  0  0  0  0  0  0  0
    4.9920    7.7647    2.0426 N   0  0  0  0  0  0  0  0  0  0  0  0
    3.6908    7.7410    1.5940 C   0  0  0  0  0  0  0  0  0  0  0  0
    2.8428    6.9469    2.0025 O   0  0  0  0  0  0  0  0  0  0  0  0
    3.3508    8.7568    0.5287 C   0  0  0  0  0  0  0  0  0  0  0  0
    4.3422    9.6229    0.1591 N   0  0  0  0  0  0  0  0  0  0  0  0
    2.0817    8.7314   -0.0248 C   0  0  0  0  0  0  0  0  0  0  0  0
    4.0524   10.4930   -0.8492 C   0  0  0  0  0  0  0  0  0  0  0  0
    1.8042    9.6334   -1.0413 C   0  0  0  0  0  0  0  0  0  0  0  0
    2.7925   10.5291   -1.4678 C   0  0  0  0  0  0  0  0  0  0  0  0
    5.1475   11.4743   -1.2758 C   0  0  0  0  0  0  0  0  0  0  0  0
    2.5117   11.4321   -2.6410 C   0  0  0  0  0  0  0  0  0  0  0  0
    4.8875   12.0950   -2.5742 N   0  0  0  0  0  0  0  0  0  0  0  0
    3.5281   12.5593   -2.7971 C   0  0  0  0  0  0  0  0  0  0  0  0
    5.9463   12.4420   -3.4206 C   0  0  0  0  0  0  0  0  0  0  0  0
    7.0707   12.6655   -2.9746 O   0  0  0  0  0  0  0  0  0  0  0  0
    5.6881   12.2378   -4.8560 C   0  0  0  0  0  0  0  0  0  0  0  0
    4.7193   11.2872   -5.1148 O   0  0  0  0  0  0  0  0  0  0  0  0
    6.5777   12.1849   -5.9329 C   0  0  0  0  0  0  0  0  0  0  0  0
    5.4038   10.2948   -5.7225 C   0  0  0  0  0  0  0  0  0  0  0  0
    6.6106   10.7810   -6.2071 C   0  0  0  0  0  0  0  0  0  0  0  0
    7.4667   13.2257   -6.5027 C   0  0  0  0  0  0  0  0  0  0  0  0
    4.9997    8.9680   -5.7602 C   0  0  0  0  0  0  0  0  0  0  0  0
    7.5189    9.8679   -6.7663 C   0  0  0  0  0  0  0  0  0  0  0  0
    5.9524    8.0635   -6.2290 C   0  0  0  0  0  0  0  0  0  0  0  0
    7.1908    8.5031   -6.7138 C   0  0  0  0  0  0  0  0  0  0  0  0
    9.7771    6.8327    4.7442 H   0  0  0  0  0  0  0  0  0  0  0  0
    9.1459    5.1493    0.9416 H   0  0  0  0  0  0  0  0  0  0  0  0
    7.4257    7.3842    4.8875 H   0  0  0  0  0  0  0  0  0  0  0  0
    6.7919    5.6911    1.0911 H   0  0  0  0  0  0  0  0  0  0  0  0
    5.2556    7.3763    4.0434 H   0  0  0  0  0  0  0  0  0  0  0  0
    4.9092    5.9747    3.0277 H   0  0  0  0  0  0  0  0  0  0  0  0
    5.6311    8.3885    1.6282 H   0  0  0  0  0  0  0  0  0  0  0  0
    1.3674    8.0647    0.3074 H   0  0  0  0  0  0  0  0  0  0  0  0
    0.8713    9.6444   -1.4824 H   0  0  0  0  0  0  0  0  0  0  0  0
    6.0760   10.9455   -1.3309 H   0  0  0  0  0  0  0  0  0  0  0  0
    5.1752   12.2577   -0.5475 H   0  0  0  0  0  0  0  0  0  0  0  0
    1.5422   11.8657   -2.5104 H   0  0  0  0  0  0  0  0  0  0  0  0
    2.5708   10.8299   -3.5235 H   0  0  0  0  0  0  0  0  0  0  0  0
    3.3041   13.3284   -2.0878 H   0  0  0  0  0  0  0  0  0  0  0  0
    3.4632   12.9293   -3.7990 H   0  0  0  0  0  0  0  0  0  0  0  0
    7.1961   14.1820   -6.1060 H   0  0  0  0  0  0  0  0  0  0  0  0
    7.3634   13.2391   -7.5676 H   0  0  0  0  0  0  0  0  0  0  0  0
    8.4821   13.0072   -6.2455 H   0  0  0  0  0  0  0  0  0  0  0  0
    4.0577    8.6704   -5.4615 H   0  0  0  0  0  0  0  0  0  0  0  0
    8.3981   10.1887   -7.2013 H   0  0  0  0  0  0  0  0  0  0  0  0
    5.7413    7.0534   -6.2185 H   0  0  0  0  0  0  0  0  0  0  0  0
    7.8791    7.8071   -7.0405 H   0  0  0  0  0  0  0  0  0  0  0  0
  1  2  1  0  0  0  0
  2  3  1  0  0  0  0
  2  4  1  0  0  0  0
  2  5  1  0  0  0  0
  5  6  2  0  0  0  0
  5  7  1  0  0  0  0
  6  8  1  0  0  0  0
  6 37  1  0  0  0  0
  7  9  2  0  0  0  0
  7 38  1  0  0  0  0
  8 10  2  0  0  0  0
  8 39  1  0  0  0  0
  9 10  1  0  0  0  0
  9 40  1  0  0  0  0
 10 11  1  0  0  0  0
 11 12  1  0  0  0  0
 11 41  1  0  0  0  0
 11 42  1  0  0  0  0
 12 13  1  0  0  0  0
 12 43  1  0  0  0  0
 13 14  2  0  0  0  0
 13 15  1  0  0  0  0
 15 16  2  0  0  0  0
 15 17  1  0  0  0  0
 16 18  1  0  0  0  0
 17 19  2  0  0  0  0
 17 44  1  0  0  0  0
 18 20  2  0  0  0  0
 18 21  1  0  0  0  0
 19 20  1  0  0  0  0
 19 45  1  0  0  0  0
 20 22  1  0  0  0  0
 21 23  1  0  0  0  0
 21 46  1  0  0  0  0
 21 47  1  0  0  0  0
 22 24  1  0  0  0  0
 22 48  1  0  0  0  0
 22 49  1  0  0  0  0
 23 25  1  0  0  0  0
 23 24  1  0  0  0  0
 24 50  1  0  0  0  0
 24 51  1  0  0  0  0
 25 26  2  0  0  0  0
 25 27  1  0  0  0  0
 27 28  1  0  0  0  0
 27 29  2  0  0  0  0
 28 30  1  0  0  0  0
 29 31  1  0  0  0  0
 29 32  1  0  0  0  0
 30 33  2  0  0  0  0
 30 31  1  0  0  0  0
 31 34  2  0  0  0  0
 32 52  1  0  0  0  0
 32 53  1  0  0  0  0
 32 54  1  0  0  0  0
 33 35  1  0  0  0  0
 33 55  1  0  0  0  0
 34 36  1  0  0  0  0
 34 56  1  0  0  0  0
 35 36  2  0  0  0  0
 35 57  1  0  0  0  0
 36 58  1  0  0  0  0
M  END
>  <Molecule Name>
CTX-1020751

>  <SMILES>
CC1=C(OC2=C1C=CC=C2)C(=O)N1CCC2=C(C1)N=C(C=C2)C(=O)NCC1=CC=C(C=C1)C(F)(F)F

>  <Batch Name>
CTX-1020751-1

>  <Batch Created Date>
2021-12-16

>  <Batch ID>
CTX-1020751-1

>  <External ID>
P841-0366

>  <Stereochemistry>
Achiral

>  <Amount 1>
4.55

>  <Unit 1>
mg

>  <CRO 1>
Pharmaron

>  <CRO 1 Total Amount>
21.6

>  <CRO 1 Unit>
mg

>  <Pharmaron Solubility (PBS, pH 7.4): Aqueous Solubility - Batch Mean (uM)>
0.0001

>  <Pharmaron Solubility (PBS, pH 7.4): Aqueous Solubility - Batch Mean (uM) Standard Deviation (±)>


>  <Pharmaron Solubility (PBS, pH 7.4): Aqueous Solubility - Batch Mean (uM) Count>
1.0

>  <log P>
4.55

>  <log D>
4.55

>  <Pharmaron Caliper Assay (CDK2/CCNE1): Minimum measured (%)>
84.9

>  <Pharmaron Caliper Assay (CDK2/CCNE1): IC50 - Batch Mean (uM)>
90.4

>  <Pharmaron ADPGLO (CDK2/E1-25C): Minimum measured (%)>


>  <Pharmaron ADPGLO (CDK2/E1-25C): IC50 - Batch Mean (uM)>


>  <Pharmaron ADPGLO (CDK2/E1-37C): Minimum measured (%)>


>  <Pharmaron ADPGLO (CDK2/E1-37C): IC50 - Batch Mean (uM)>


>  <IncuCyte Kuramochi RB-WT: IC50 - Batch Mean (uM)>
20.0

>  <IncuCyte Kuramochi RB-KO: IC50 - Batch Mean (uM)>
20.0

>  <DSF (npCDK2/CCNE1): dTm D - Batch Mean [Concentration: 100]>


>  <DSF (npCDK2/CCNE1): dTm D - Batch Mean [Concentration: 20.0]>
0.24

>  <DSF (pCDK2/CCNE1): dTm D - Batch Mean [Concentration: 100]>


>  <DSF (pCDK2/CCNE1): dTm D - Batch Mean [Concentration: 20.0]>


>  <RLM: t1/2 - Batch Mean (Min)>


>  <RLM: Cl int - Batch Mean (uL/min/mg protein)>


>  <RLM: ER (Hepatic extraction ratio) - Batch Mean>


>  <HLM: t1/2 - Batch Mean (Min)>


>  <HLM: Cl int - Batch Mean (uL/min/mg protein)>


>  <HLM: ER (Hepatic extraction ratio) - Batch Mean>


>  <MDCK-WT 4% BSA: Papp (A-B) - Batch Mean (10-6, cm/s)>


>  <MDCK-WT 4% BSA: Papp (B-A) - Batch Mean (10-6, cm/s)>


>  <MDCK-WT 4% BSA: Efflux Ratio - Batch Mean>


>  <MDCK-WT 4% BSA: ~Net A_B - Batch Mean (10-6, cm/s)>


>  <pIC50>
4.043832

>  <Selection_1>
Y

>  <Selection_N>
Y

>  <Serie>
Naphthyridine

>  <Selection_T>
N

>  <Train_Vs_Test>


$$$$
