CTX-1020766
 OpenBabel08272613283D

 51 55  0  0  0  0  0  0  0  0999 V2000
    4.0793    5.9767   -2.1289 S   0  0  0  0  0  0  0  0  0  0  0  0
    4.8538    6.5326   -0.7049 C   0  0  0  0  0  0  0  0  0  0  0  0
    3.7080    4.5092   -1.3271 C   0  0  0  0  0  0  0  0  0  0  0  0
    4.8542    5.7068    0.3182 N   0  0  0  0  0  0  0  0  0  0  0  0
    4.1922    4.5335   -0.0298 C   0  0  0  0  0  0  0  0  0  0  0  0
    4.0502    3.4477    0.9873 C   0  0  0  0  0  0  0  0  0  0  0  0
    5.1498    2.5207    0.8695 N   0  0  0  0  0  0  0  0  0  0  0  0
    5.1043    1.4312    0.0334 C   0  0  0  0  0  0  0  0  0  0  0  0
    4.1268    1.1460   -0.6494 O   0  0  0  0  0  0  0  0  0  0  0  0
    6.3496    0.5858   -0.0056 C   0  0  0  0  0  0  0  0  0  0  0  0
    7.3749    0.9258    0.8337 N   0  0  0  0  0  0  0  0  0  0  0  0
    6.3804   -0.5009   -0.8668 C   0  0  0  0  0  0  0  0  0  0  0  0
    8.4811    0.1217    0.8332 C   0  0  0  0  0  0  0  0  0  0  0  0
    7.5173   -1.2950   -0.8708 C   0  0  0  0  0  0  0  0  0  0  0  0
    8.5828   -0.9947   -0.0225 C   0  0  0  0  0  0  0  0  0  0  0  0
    9.6257    0.4755    1.7745 C   0  0  0  0  0  0  0  0  0  0  0  0
    9.7771   -1.9148    0.0153 C   0  0  0  0  0  0  0  0  0  0  0  0
   10.5877   -0.6161    1.9429 N   0  0  0  0  0  0  0  0  0  0  0  0
   10.9802   -1.3067    0.7251 C   0  0  0  0  0  0  0  0  0  0  0  0
   11.3038   -0.7558    3.1372 C   0  0  0  0  0  0  0  0  0  0  0  0
   11.4871    0.2029    3.8863 O   0  0  0  0  0  0  0  0  0  0  0  0
   11.5631   -2.1379    3.5514 C   0  0  0  0  0  0  0  0  0  0  0  0
   10.6971   -3.0736    3.0289 O   0  0  0  0  0  0  0  0  0  0  0  0
   12.1141   -2.6892    4.7085 C   0  0  0  0  0  0  0  0  0  0  0  0
   10.2721   -3.7909    4.0950 C   0  0  0  0  0  0  0  0  0  0  0  0
   11.0400   -3.4879    5.2068 C   0  0  0  0  0  0  0  0  0  0  0  0
   13.4144   -2.4621    5.3837 C   0  0  0  0  0  0  0  0  0  0  0  0
    9.1733   -4.6355    4.0878 C   0  0  0  0  0  0  0  0  0  0  0  0
   10.6370   -3.9905    6.4540 C   0  0  0  0  0  0  0  0  0  0  0  0
    8.7640   -5.0942    5.3389 C   0  0  0  0  0  0  0  0  0  0  0  0
    9.4606   -4.7554    6.5049 C   0  0  0  0  0  0  0  0  0  0  0  0
    5.2955    7.4639   -0.6532 H   0  0  0  0  0  0  0  0  0  0  0  0
    3.1962    3.7193   -1.7506 H   0  0  0  0  0  0  0  0  0  0  0  0
    3.1289    2.9282    0.8259 H   0  0  0  0  0  0  0  0  0  0  0  0
    4.0546    3.8784    1.9667 H   0  0  0  0  0  0  0  0  0  0  0  0
    5.9605    2.6742    1.4067 H   0  0  0  0  0  0  0  0  0  0  0  0
    5.5819   -0.7120   -1.4856 H   0  0  0  0  0  0  0  0  0  0  0  0
    7.5751   -2.1092   -1.5023 H   0  0  0  0  0  0  0  0  0  0  0  0
    9.2161    0.7195    2.7324 H   0  0  0  0  0  0  0  0  0  0  0  0
   10.1515    1.3010    1.3423 H   0  0  0  0  0  0  0  0  0  0  0  0
   10.0580   -2.1490   -0.9903 H   0  0  0  0  0  0  0  0  0  0  0  0
    9.4900   -2.7865    0.5654 H   0  0  0  0  0  0  0  0  0  0  0  0
   11.4557   -0.6092    0.0677 H   0  0  0  0  0  0  0  0  0  0  0  0
   11.6495   -2.0986    0.9893 H   0  0  0  0  0  0  0  0  0  0  0  0
   14.0233   -1.8229    4.7791 H   0  0  0  0  0  0  0  0  0  0  0  0
   13.9114   -3.3991    5.5249 H   0  0  0  0  0  0  0  0  0  0  0  0
   13.2468   -2.0004    6.3343 H   0  0  0  0  0  0  0  0  0  0  0  0
    8.6913   -4.9062    3.2163 H   0  0  0  0  0  0  0  0  0  0  0  0
   11.1880   -3.8038    7.3064 H   0  0  0  0  0  0  0  0  0  0  0  0
    7.9290   -5.6968    5.4071 H   0  0  0  0  0  0  0  0  0  0  0  0
    9.1029   -5.0737    7.4190 H   0  0  0  0  0  0  0  0  0  0  0  0
  1  2  1  0  0  0  0
  1  3  1  0  0  0  0
  2  4  2  0  0  0  0
  2 32  1  0  0  0  0
  3  5  2  0  0  0  0
  3 33  1  0  0  0  0
  4  5  1  0  0  0  0
  5  6  1  0  0  0  0
  6  7  1  0  0  0  0
  6 34  1  0  0  0  0
  6 35  1  0  0  0  0
  7  8  1  0  0  0  0
  7 36  1  0  0  0  0
  8  9  2  0  0  0  0
  8 10  1  0  0  0  0
 10 11  2  0  0  0  0
 10 12  1  0  0  0  0
 11 13  1  0  0  0  0
 12 14  2  0  0  0  0
 12 37  1  0  0  0  0
 13 15  2  0  0  0  0
 13 16  1  0  0  0  0
 14 15  1  0  0  0  0
 14 38  1  0  0  0  0
 15 17  1  0  0  0  0
 16 18  1  0  0  0  0
 16 39  1  0  0  0  0
 16 40  1  0  0  0  0
 17 19  1  0  0  0  0
 17 41  1  0  0  0  0
 17 42  1  0  0  0  0
 18 20  1  0  0  0  0
 18 19  1  0  0  0  0
 19 43  1  0  0  0  0
 19 44  1  0  0  0  0
 20 21  2  0  0  0  0
 20 22  1  0  0  0  0
 22 23  1  0  0  0  0
 22 24  2  0  0  0  0
 23 25  1  0  0  0  0
 24 26  1  0  0  0  0
 24 27  1  0  0  0  0
 25 28  2  0  0  0  0
 25 26  1  0  0  0  0
 26 29  2  0  0  0  0
 27 45  1  0  0  0  0
 27 46  1  0  0  0  0
 27 47  1  0  0  0  0
 28 30  1  0  0  0  0
 28 48  1  0  0  0  0
 29 31  1  0  0  0  0
 29 49  1  0  0  0  0
 30 31  2  0  0  0  0
 30 50  1  0  0  0  0
 31 51  1  0  0  0  0
M  END
>  <Molecule Name>
CTX-1020766

>  <SMILES>
CC1=C(OC2=C1C=CC=C2)C(=O)N1CCC2=C(C1)N=C(C=C2)C(=O)NCC1=CSC=N1

>  <Batch Name>
CTX-1020766-1

>  <Batch Created Date>
2021-12-16

>  <Batch ID>
CTX-1020766-1

>  <External ID>
P841-0371

>  <Stereochemistry>
Achiral

>  <Amount 1>
0.0

>  <Unit 1>
mg

>  <CRO 1>
Pharmaron

>  <CRO 1 Total Amount>
0.0

>  <CRO 1 Unit>
mg

>  <Pharmaron Solubility (PBS, pH 7.4): Aqueous Solubility - Batch Mean (uM)>


>  <Pharmaron Solubility (PBS, pH 7.4): Aqueous Solubility - Batch Mean (uM) Standard Deviation (±)>


>  <Pharmaron Solubility (PBS, pH 7.4): Aqueous Solubility - Batch Mean (uM) Count>


>  <log P>
2.42

>  <log D>
2.42

>  <Pharmaron Caliper Assay (CDK2/CCNE1): Minimum measured (%)>
67.9

>  <Pharmaron Caliper Assay (CDK2/CCNE1): IC50 - Batch Mean (uM)>
40.0

>  <Pharmaron ADPGLO (CDK2/E1-25C): Minimum measured (%)>


>  <Pharmaron ADPGLO (CDK2/E1-25C): IC50 - Batch Mean (uM)>


>  <Pharmaron ADPGLO (CDK2/E1-37C): Minimum measured (%)>


>  <Pharmaron ADPGLO (CDK2/E1-37C): IC50 - Batch Mean (uM)>


>  <IncuCyte Kuramochi RB-WT: IC50 - Batch Mean (uM)>


>  <IncuCyte Kuramochi RB-KO: IC50 - Batch Mean (uM)>


>  <DSF (npCDK2/CCNE1): dTm D - Batch Mean [Concentration: 100]>


>  <DSF (npCDK2/CCNE1): dTm D - Batch Mean [Concentration: 20.0]>


>  <DSF (pCDK2/CCNE1): dTm D - Batch Mean [Concentration: 100]>


>  <DSF (pCDK2/CCNE1): dTm D - Batch Mean [Concentration: 20.0]>


>  <RLM: t1/2 - Batch Mean (Min)>


>  <RLM: Cl int - Batch Mean (uL/min/mg protein)>


>  <RLM: ER (Hepatic extraction ratio) - Batch Mean>


>  <HLM: t1/2 - Batch Mean (Min)>


>  <HLM: Cl int - Batch Mean (uL/min/mg protein)>


>  <HLM: ER (Hepatic extraction ratio) - Batch Mean>


>  <MDCK-WT 4% BSA: Papp (A-B) - Batch Mean (10-6, cm/s)>


>  <MDCK-WT 4% BSA: Papp (B-A) - Batch Mean (10-6, cm/s)>


>  <MDCK-WT 4% BSA: Efflux Ratio - Batch Mean>


>  <MDCK-WT 4% BSA: ~Net A_B - Batch Mean (10-6, cm/s)>


>  <pIC50>
4.39794

>  <Selection_1>
Y

>  <Selection_N>


>  <Serie>
Naphthyridine

>  <Selection_T>
N

>  <Train_Vs_Test>


$$$$
