CTX-1020754
 OpenBabel08272613283D

 51 55  0  0  0  0  0  0  0  0999 V2000
    1.3073    0.0690    0.8665 O   0  0  0  0  0  0  0  0  0  0  0  0
    2.2774   -0.0107    0.1151 C   0  0  0  0  0  0  0  0  0  0  0  0
    2.7712   -1.2260   -0.3070 N   0  0  0  0  0  0  0  0  0  0  0  0
    2.9752    1.2302   -0.3640 C   0  0  0  0  0  0  0  0  0  0  0  0
    2.1416   -2.4402    0.1590 C   0  0  0  0  0  0  0  0  0  0  0  0
    4.0303    1.1128   -1.2257 N   0  0  0  0  0  0  0  0  0  0  0  0
    2.4910    2.4463    0.1048 C   0  0  0  0  0  0  0  0  0  0  0  0
    2.8287   -3.6355   -0.3614 C   0  0  0  0  0  0  0  0  0  0  0  0
    4.6087    2.2768   -1.6587 C   0  0  0  0  0  0  0  0  0  0  0  0
    3.1147    3.6118   -0.3125 C   0  0  0  0  0  0  0  0  0  0  0  0
    2.8854   -3.8048   -1.7197 O   0  0  0  0  0  0  0  0  0  0  0  0
    3.4212   -4.7349    0.2149 C   0  0  0  0  0  0  0  0  0  0  0  0
    4.1890    3.5393   -1.2023 C   0  0  0  0  0  0  0  0  0  0  0  0
    5.7440    2.1785   -2.6834 C   0  0  0  0  0  0  0  0  0  0  0  0
    3.5147   -5.0030   -1.8712 C   0  0  0  0  0  0  0  0  0  0  0  0
    3.8611   -5.5986   -0.7528 N   0  0  0  0  0  0  0  0  0  0  0  0
    4.7902    4.8196   -1.7246 C   0  0  0  0  0  0  0  0  0  0  0  0
    6.0275    3.4501   -3.3596 N   0  0  0  0  0  0  0  0  0  0  0  0
    6.0973    4.6109   -2.4837 C   0  0  0  0  0  0  0  0  0  0  0  0
    6.4985    3.4643   -4.6835 C   0  0  0  0  0  0  0  0  0  0  0  0
    6.9157    2.4292   -5.2113 O   0  0  0  0  0  0  0  0  0  0  0  0
    6.2536    4.7033   -5.4611 C   0  0  0  0  0  0  0  0  0  0  0  0
    5.0990    5.3543   -5.0438 O   0  0  0  0  0  0  0  0  0  0  0  0
    6.2513    4.8880   -6.8508 C   0  0  0  0  0  0  0  0  0  0  0  0
    4.2083    5.0806   -6.0313 C   0  0  0  0  0  0  0  0  0  0  0  0
    4.8742    4.6831   -7.1762 C   0  0  0  0  0  0  0  0  0  0  0  0
    7.2697    5.3903   -7.8048 C   0  0  0  0  0  0  0  0  0  0  0  0
    2.8287    5.1555   -5.8943 C   0  0  0  0  0  0  0  0  0  0  0  0
    4.1340    4.3788   -8.3156 C   0  0  0  0  0  0  0  0  0  0  0  0
    2.0984    4.7623   -7.0170 C   0  0  0  0  0  0  0  0  0  0  0  0
    2.7337    4.3741   -8.2013 C   0  0  0  0  0  0  0  0  0  0  0  0
    3.5423   -1.2664   -0.9177 H   0  0  0  0  0  0  0  0  0  0  0  0
    1.1235   -2.4529   -0.1700 H   0  0  0  0  0  0  0  0  0  0  0  0
    2.1954   -2.4590    1.2275 H   0  0  0  0  0  0  0  0  0  0  0  0
    1.6855    2.4804    0.7490 H   0  0  0  0  0  0  0  0  0  0  0  0
    2.7871    4.5277    0.0321 H   0  0  0  0  0  0  0  0  0  0  0  0
    3.5201   -4.8871    1.2308 H   0  0  0  0  0  0  0  0  0  0  0  0
    5.4726    1.4540   -3.4225 H   0  0  0  0  0  0  0  0  0  0  0  0
    6.6287    1.8989   -2.1505 H   0  0  0  0  0  0  0  0  0  0  0  0
    3.7059   -5.4137   -2.7984 H   0  0  0  0  0  0  0  0  0  0  0  0
    4.9799    5.4682   -0.8950 H   0  0  0  0  0  0  0  0  0  0  0  0
    4.0883    5.2392   -2.4146 H   0  0  0  0  0  0  0  0  0  0  0  0
    6.8894    4.4671   -1.7788 H   0  0  0  0  0  0  0  0  0  0  0  0
    6.2762    5.4761   -3.0873 H   0  0  0  0  0  0  0  0  0  0  0  0
    8.2182    5.4531   -7.3137 H   0  0  0  0  0  0  0  0  0  0  0  0
    6.9838    6.3605   -8.1537 H   0  0  0  0  0  0  0  0  0  0  0  0
    7.3418    4.7195   -8.6354 H   0  0  0  0  0  0  0  0  0  0  0  0
    2.3758    5.4787   -5.0251 H   0  0  0  0  0  0  0  0  0  0  0  0
    4.5976    4.1643   -9.2123 H   0  0  0  0  0  0  0  0  0  0  0  0
    1.0674    4.7577   -6.9724 H   0  0  0  0  0  0  0  0  0  0  0  0
    2.1619    4.0782   -9.0079 H   0  0  0  0  0  0  0  0  0  0  0  0
  1  2  2  0  0  0  0
  2  3  1  0  0  0  0
  2  4  1  0  0  0  0
  3  5  1  0  0  0  0
  3 32  1  0  0  0  0
  4  6  2  0  0  0  0
  4  7  1  0  0  0  0
  5  8  1  0  0  0  0
  5 33  1  0  0  0  0
  5 34  1  0  0  0  0
  6  9  1  0  0  0  0
  7 10  2  0  0  0  0
  7 35  1  0  0  0  0
  8 11  1  0  0  0  0
  8 12  2  0  0  0  0
  9 13  2  0  0  0  0
  9 14  1  0  0  0  0
 10 13  1  0  0  0  0
 10 36  1  0  0  0  0
 11 15  1  0  0  0  0
 12 16  1  0  0  0  0
 12 37  1  0  0  0  0
 13 17  1  0  0  0  0
 14 18  1  0  0  0  0
 14 38  1  0  0  0  0
 14 39  1  0  0  0  0
 15 16  2  0  0  0  0
 15 40  1  0  0  0  0
 17 19  1  0  0  0  0
 17 41  1  0  0  0  0
 17 42  1  0  0  0  0
 18 20  1  0  0  0  0
 18 19  1  0  0  0  0
 19 43  1  0  0  0  0
 19 44  1  0  0  0  0
 20 21  2  0  0  0  0
 20 22  1  0  0  0  0
 22 23  1  0  0  0  0
 22 24  2  0  0  0  0
 23 25  1  0  0  0  0
 24 26  1  0  0  0  0
 24 27  1  0  0  0  0
 25 28  2  0  0  0  0
 25 26  1  0  0  0  0
 26 29  2  0  0  0  0
 27 45  1  0  0  0  0
 27 46  1  0  0  0  0
 27 47  1  0  0  0  0
 28 30  1  0  0  0  0
 28 48  1  0  0  0  0
 29 31  1  0  0  0  0
 29 49  1  0  0  0  0
 30 31  2  0  0  0  0
 30 50  1  0  0  0  0
 31 51  1  0  0  0  0
M  END
>  <Molecule Name>
CTX-1020754

>  <SMILES>
CC1=C(OC2=C1C=CC=C2)C(=O)N1CCC2=C(C1)N=C(C=C2)C(=O)NCC1=CN=CO1

>  <Batch Name>
CTX-1020754-1

>  <Batch Created Date>
2021-12-16

>  <Batch ID>
CTX-1020754-1

>  <External ID>
P841-0363

>  <Stereochemistry>
Achiral

>  <Amount 1>
4.45

>  <Unit 1>
mg

>  <CRO 1>
Pharmaron

>  <CRO 1 Total Amount>
21.85

>  <CRO 1 Unit>
mg

>  <Pharmaron Solubility (PBS, pH 7.4): Aqueous Solubility - Batch Mean (uM)>
4.7938

>  <Pharmaron Solubility (PBS, pH 7.4): Aqueous Solubility - Batch Mean (uM) Standard Deviation (±)>


>  <Pharmaron Solubility (PBS, pH 7.4): Aqueous Solubility - Batch Mean (uM) Count>
1.0

>  <log P>
1.54

>  <log D>
1.54

>  <Pharmaron Caliper Assay (CDK2/CCNE1): Minimum measured (%)>
69.5

>  <Pharmaron Caliper Assay (CDK2/CCNE1): IC50 - Batch Mean (uM)>
48.9

>  <Pharmaron ADPGLO (CDK2/E1-25C): Minimum measured (%)>


>  <Pharmaron ADPGLO (CDK2/E1-25C): IC50 - Batch Mean (uM)>


>  <Pharmaron ADPGLO (CDK2/E1-37C): Minimum measured (%)>


>  <Pharmaron ADPGLO (CDK2/E1-37C): IC50 - Batch Mean (uM)>


>  <IncuCyte Kuramochi RB-WT: IC50 - Batch Mean (uM)>
20.0

>  <IncuCyte Kuramochi RB-KO: IC50 - Batch Mean (uM)>
20.0

>  <DSF (npCDK2/CCNE1): dTm D - Batch Mean [Concentration: 100]>


>  <DSF (npCDK2/CCNE1): dTm D - Batch Mean [Concentration: 20.0]>
0.04

>  <DSF (pCDK2/CCNE1): dTm D - Batch Mean [Concentration: 100]>


>  <DSF (pCDK2/CCNE1): dTm D - Batch Mean [Concentration: 20.0]>


>  <RLM: t1/2 - Batch Mean (Min)>


>  <RLM: Cl int - Batch Mean (uL/min/mg protein)>


>  <RLM: ER (Hepatic extraction ratio) - Batch Mean>


>  <HLM: t1/2 - Batch Mean (Min)>


>  <HLM: Cl int - Batch Mean (uL/min/mg protein)>


>  <HLM: ER (Hepatic extraction ratio) - Batch Mean>


>  <MDCK-WT 4% BSA: Papp (A-B) - Batch Mean (10-6, cm/s)>


>  <MDCK-WT 4% BSA: Papp (B-A) - Batch Mean (10-6, cm/s)>


>  <MDCK-WT 4% BSA: Efflux Ratio - Batch Mean>


>  <MDCK-WT 4% BSA: ~Net A_B - Batch Mean (10-6, cm/s)>


>  <pIC50>
4.310691

>  <Selection_1>
Y

>  <Selection_N>


>  <Serie>
Naphthyridine

>  <Selection_T>
N

>  <Train_Vs_Test>


$$$$
