CTX-1020747
 OpenBabel08272613283D

 71 76  0  0  0  0  0  0  0  0999 V2000
    1.7944   -0.6922   -0.0327 S   0  0  0  0  0  0  0  0  0  0  0  0
    2.1090    0.9915    0.0531 C   0  0  0  0  0  0  0  0  0  0  0  0
    0.1104   -0.4440   -0.0288 C   0  0  0  0  0  0  0  0  0  0  0  0
    3.4640    1.5513    0.0737 C   0  0  0  0  0  0  0  0  0  0  0  0
    0.9266    1.7105    0.0907 C   0  0  0  0  0  0  0  0  0  0  0  0
   -0.2484    0.8887    0.0494 C   0  0  0  0  0  0  0  0  0  0  0  0
   -0.8674   -1.5715   -0.1507 C   0  0  0  0  0  0  0  0  0  0  0  0
    3.6696    2.7608    0.1159 O   0  0  0  0  0  0  0  0  0  0  0  0
    4.5205    0.6495    0.0344 N   0  0  0  0  0  0  0  0  0  0  0  0
   -1.6902    1.3536    0.0751 C   0  0  0  0  0  0  0  0  0  0  0  0
   -2.2811   -1.0777    0.1966 C   0  0  0  0  0  0  0  0  0  0  0  0
    5.9114    1.0628    0.0682 C   0  0  0  0  0  0  0  0  0  0  0  0
   -2.5688    0.2566   -0.3426 N   0  0  0  0  0  0  0  0  0  0  0  0
    6.6625    0.6129   -1.1608 C   0  0  0  0  0  0  0  0  0  0  0  0
   -3.7479    0.5474   -1.0369 C   0  0  0  0  0  0  0  0  0  0  0  0
    6.2470    1.0365   -2.4244 C   0  0  0  0  0  0  0  0  0  0  0  0
    7.8127   -0.1841   -1.0737 C   0  0  0  0  0  0  0  0  0  0  0  0
   -4.2987    1.6431   -0.9277 O   0  0  0  0  0  0  0  0  0  0  0  0
   -4.1044   -0.4052   -2.1058 C   0  0  0  0  0  0  0  0  0  0  0  0
    6.9473    0.6434   -3.5675 C   0  0  0  0  0  0  0  0  0  0  0  0
    8.5178   -0.5669   -2.2295 C   0  0  0  0  0  0  0  0  0  0  0  0
   -3.0313   -1.1250   -2.5992 O   0  0  0  0  0  0  0  0  0  0  0  0
   -4.9671   -0.2095   -3.1902 C   0  0  0  0  0  0  0  0  0  0  0  0
    8.0862   -0.1784   -3.5015 C   0  0  0  0  0  0  0  0  0  0  0  0
   -2.8565   -0.6001   -3.8398 C   0  0  0  0  0  0  0  0  0  0  0  0
   -4.0279    0.0224   -4.2471 C   0  0  0  0  0  0  0  0  0  0  0  0
   -6.4216    0.0748   -3.2152 C   0  0  0  0  0  0  0  0  0  0  0  0
    8.7250   -0.5238   -4.6850 N   0  0  0  0  0  0  0  0  0  0  0  0
   -1.6640   -0.5685   -4.5464 C   0  0  0  0  0  0  0  0  0  0  0  0
   -4.0163    0.7448   -5.4517 C   0  0  0  0  0  0  0  0  0  0  0  0
   10.1413   -0.9255   -4.7143 C   0  0  0  0  0  0  0  0  0  0  0  0
    7.9078   -1.3058   -5.6379 C   0  0  0  0  0  0  0  0  0  0  0  0
   -0.5571   -1.1675   -4.0862 F   0  0  0  0  0  0  0  0  0  0  0  0
   -1.6306    0.2399   -5.6718 C   0  0  0  0  0  0  0  0  0  0  0  0
   -2.7858    0.8955   -6.1153 C   0  0  0  0  0  0  0  0  0  0  0  0
   10.6830   -0.7592   -6.1624 C   0  0  0  0  0  0  0  0  0  0  0  0
    8.4674   -1.1153   -7.0639 C   0  0  0  0  0  0  0  0  0  0  0  0
    9.8920   -1.5078   -7.1711 N   0  3  0  0  0  0  0  0  0  0  0  0
   10.3863   -1.2417   -8.5205 C   0  0  0  0  0  0  0  0  0  0  0  0
    0.8937    2.7406    0.1435 H   0  0  0  0  0  0  0  0  0  0  0  0
   -0.5902   -2.3558    0.5223 H   0  0  0  0  0  0  0  0  0  0  0  0
   -0.8592   -1.9378   -1.1560 H   0  0  0  0  0  0  0  0  0  0  0  0
    4.3166   -0.3122   -0.0187 H   0  0  0  0  0  0  0  0  0  0  0  0
   -1.8097    2.1799   -0.5941 H   0  0  0  0  0  0  0  0  0  0  0  0
   -1.9480    1.6565    1.0684 H   0  0  0  0  0  0  0  0  0  0  0  0
   -2.3789   -1.0438    1.2615 H   0  0  0  0  0  0  0  0  0  0  0  0
   -2.9770   -1.7595   -0.2459 H   0  0  0  0  0  0  0  0  0  0  0  0
    6.3773    0.6386    0.9330 H   0  0  0  0  0  0  0  0  0  0  0  0
    5.9387    2.1320    0.1006 H   0  0  0  0  0  0  0  0  0  0  0  0
    5.4175    1.6438   -2.5147 H   0  0  0  0  0  0  0  0  0  0  0  0
    8.1472   -0.4944   -0.1480 H   0  0  0  0  0  0  0  0  0  0  0  0
    6.6179    0.9667   -4.4905 H   0  0  0  0  0  0  0  0  0  0  0  0
    9.3681   -1.1444   -2.1369 H   0  0  0  0  0  0  0  0  0  0  0  0
   -6.8560   -0.2058   -2.2785 H   0  0  0  0  0  0  0  0  0  0  0  0
   -6.8808   -0.4846   -4.0032 H   0  0  0  0  0  0  0  0  0  0  0  0
   -6.5779    1.1201   -3.3819 H   0  0  0  0  0  0  0  0  0  0  0  0
   -4.8828    1.1519   -5.8372 H   0  0  0  0  0  0  0  0  0  0  0  0
   10.2308   -1.9482   -4.4128 H   0  0  0  0  0  0  0  0  0  0  0  0
   10.7058   -0.3118   -4.0438 H   0  0  0  0  0  0  0  0  0  0  0  0
    6.8940   -0.9653   -5.6031 H   0  0  0  0  0  0  0  0  0  0  0  0
    7.9423   -2.3422   -5.3742 H   0  0  0  0  0  0  0  0  0  0  0  0
   -0.7453    0.3598   -6.1883 H   0  0  0  0  0  0  0  0  0  0  0  0
   -2.7328    1.5029   -6.9480 H   0  0  0  0  0  0  0  0  0  0  0  0
   11.6925   -1.1129   -6.1908 H   0  0  0  0  0  0  0  0  0  0  0  0
   10.6144    0.2793   -6.4107 H   0  0  0  0  0  0  0  0  0  0  0  0
    8.3743   -0.0842   -7.3342 H   0  0  0  0  0  0  0  0  0  0  0  0
    7.9059   -1.7463   -7.7207 H   0  0  0  0  0  0  0  0  0  0  0  0
    9.9870   -2.5073   -6.9911 H   0  0  0  0  0  0  0  0  0  0  0  0
   10.2969   -0.1969   -8.7335 H   0  0  0  0  0  0  0  0  0  0  0  0
    9.8102   -1.8006   -9.2281 H   0  0  0  0  0  0  0  0  0  0  0  0
   11.4137   -1.5328   -8.5878 H   0  0  0  0  0  0  0  0  0  0  0  0
  1  2  1  0  0  0  0
  1  3  1  0  0  0  0
  2  4  1  0  0  0  0
  2  5  2  0  0  0  0
  3  6  2  0  0  0  0
  3  7  1  0  0  0  0
  4  8  2  0  0  0  0
  4  9  1  0  0  0  0
  5  6  1  0  0  0  0
  5 40  1  0  0  0  0
  6 10  1  0  0  0  0
  7 11  1  0  0  0  0
  7 41  1  0  0  0  0
  7 42  1  0  0  0  0
  9 12  1  0  0  0  0
  9 43  1  0  0  0  0
 10 13  1  0  0  0  0
 10 44  1  0  0  0  0
 10 45  1  0  0  0  0
 11 13  1  0  0  0  0
 11 46  1  0  0  0  0
 11 47  1  0  0  0  0
 12 14  1  0  0  0  0
 12 48  1  0  0  0  0
 12 49  1  0  0  0  0
 13 15  1  0  0  0  0
 14 16  2  0  0  0  0
 14 17  1  0  0  0  0
 15 18  2  0  0  0  0
 15 19  1  0  0  0  0
 16 20  1  0  0  0  0
 16 50  1  0  0  0  0
 17 21  2  0  0  0  0
 17 51  1  0  0  0  0
 19 22  1  0  0  0  0
 19 23  2  0  0  0  0
 20 24  2  0  0  0  0
 20 52  1  0  0  0  0
 21 24  1  0  0  0  0
 21 53  1  0  0  0  0
 22 25  1  0  0  0  0
 23 26  1  0  0  0  0
 23 27  1  0  0  0  0
 24 28  1  0  0  0  0
 25 29  2  0  0  0  0
 25 26  1  0  0  0  0
 26 30  2  0  0  0  0
 27 54  1  0  0  0  0
 27 55  1  0  0  0  0
 27 56  1  0  0  0  0
 28 31  1  0  0  0  0
 28 32  1  0  0  0  0
 29 33  1  0  0  0  0
 29 34  1  0  0  0  0
 30 35  1  0  0  0  0
 30 57  1  0  0  0  0
 31 36  1  0  0  0  0
 31 58  1  0  0  0  0
 31 59  1  0  0  0  0
 32 37  1  0  0  0  0
 32 60  1  0  0  0  0
 32 61  1  0  0  0  0
 34 35  2  0  0  0  0
 34 62  1  0  0  0  0
 35 63  1  0  0  0  0
 36 38  1  0  0  0  0
 36 64  1  0  0  0  0
 36 65  1  0  0  0  0
 37 38  1  0  0  0  0
 37 66  1  0  0  0  0
 37 67  1  0  0  0  0
 38 39  1  0  0  0  0
 38 68  1  0  0  0  0
 39 69  1  0  0  0  0
 39 70  1  0  0  0  0
 39 71  1  0  0  0  0
M  CHG  1  38   1
M  END
>  <Molecule Name>
CTX-1020747

>  <SMILES>
CN1CCN(CC1)C1=CC=C(CNC(=O)C2=CC3=C(CCN(C3)C(=O)C3=C(C)C4=C(O3)C(F)=CC=C4)S2)C=C1

>  <Batch Name>
CTX-1020747-1

>  <Batch Created Date>
2021-12-16

>  <Batch ID>
CTX-1020747-1

>  <External ID>
P841-0361

>  <Stereochemistry>
Achiral

>  <Amount 1>
3.85

>  <Unit 1>
mg

>  <CRO 1>
Pharmaron

>  <CRO 1 Total Amount>
22.1

>  <CRO 1 Unit>
mg

>  <Pharmaron Solubility (PBS, pH 7.4): Aqueous Solubility - Batch Mean (uM)>
1.4216

>  <Pharmaron Solubility (PBS, pH 7.4): Aqueous Solubility - Batch Mean (uM) Standard Deviation (±)>


>  <Pharmaron Solubility (PBS, pH 7.4): Aqueous Solubility - Batch Mean (uM) Count>
1.0

>  <log P>
4.57

>  <log D>
3.94

>  <Pharmaron Caliper Assay (CDK2/CCNE1): Minimum measured (%)>
22.7

>  <Pharmaron Caliper Assay (CDK2/CCNE1): IC50 - Batch Mean (uM)>
0.611

>  <Pharmaron ADPGLO (CDK2/E1-25C): Minimum measured (%)>
28.6

>  <Pharmaron ADPGLO (CDK2/E1-25C): IC50 - Batch Mean (uM)>
0.77

>  <Pharmaron ADPGLO (CDK2/E1-37C): Minimum measured (%)>
86.1

>  <Pharmaron ADPGLO (CDK2/E1-37C): IC50 - Batch Mean (uM)>
100

>  <IncuCyte Kuramochi RB-WT: IC50 - Batch Mean (uM)>
6.9

>  <IncuCyte Kuramochi RB-KO: IC50 - Batch Mean (uM)>
8.0

>  <DSF (npCDK2/CCNE1): dTm D - Batch Mean [Concentration: 100]>


>  <DSF (npCDK2/CCNE1): dTm D - Batch Mean [Concentration: 20.0]>
4.3180000000000005

>  <DSF (pCDK2/CCNE1): dTm D - Batch Mean [Concentration: 100]>


>  <DSF (pCDK2/CCNE1): dTm D - Batch Mean [Concentration: 20.0]>
2.3209999999999997

>  <RLM: t1/2 - Batch Mean (Min)>


>  <RLM: Cl int - Batch Mean (uL/min/mg protein)>


>  <RLM: ER (Hepatic extraction ratio) - Batch Mean>


>  <HLM: t1/2 - Batch Mean (Min)>


>  <HLM: Cl int - Batch Mean (uL/min/mg protein)>


>  <HLM: ER (Hepatic extraction ratio) - Batch Mean>


>  <MDCK-WT 4% BSA: Papp (A-B) - Batch Mean (10-6, cm/s)>


>  <MDCK-WT 4% BSA: Papp (B-A) - Batch Mean (10-6, cm/s)>


>  <MDCK-WT 4% BSA: Efflux Ratio - Batch Mean>


>  <MDCK-WT 4% BSA: ~Net A_B - Batch Mean (10-6, cm/s)>


>  <pIC50>
6.213959

>  <Selection_1>
Y

>  <Selection_N>
N

>  <Serie>
Tetrahydrothienopyridine

>  <Selection_T>


>  <Train_Vs_Test>


$$$$
