CTX-1020740
 OpenBabel08272613283D

 56 60  0  0  0  0  0  0  0  0999 V2000
    1.7733   -0.6865    0.0139 S   0  0  0  0  0  0  0  0  0  0  0  0
    2.0821    0.9973    0.0935 C   0  0  0  0  0  0  0  0  0  0  0  0
    0.0861   -0.4431   -0.0128 C   0  0  0  0  0  0  0  0  0  0  0  0
    3.4347    1.5567    0.1066 C   0  0  0  0  0  0  0  0  0  0  0  0
    0.8928    1.7144    0.1096 C   0  0  0  0  0  0  0  0  0  0  0  0
   -0.2760    0.8868    0.0529 C   0  0  0  0  0  0  0  0  0  0  0  0
   -0.8851   -1.5739   -0.1435 C   0  0  0  0  0  0  0  0  0  0  0  0
    3.6394    2.7749    0.0998 O   0  0  0  0  0  0  0  0  0  0  0  0
    4.4875    0.6589    0.0958 N   0  0  0  0  0  0  0  0  0  0  0  0
   -1.7158    1.3501    0.0551 C   0  0  0  0  0  0  0  0  0  0  0  0
   -2.3026   -1.0795    0.1902 C   0  0  0  0  0  0  0  0  0  0  0  0
    5.8644    1.0937    0.0210 C   0  0  0  0  0  0  0  0  0  0  0  0
   -2.5875    0.2498   -0.3635 N   0  0  0  0  0  0  0  0  0  0  0  0
    6.5221    1.1856    1.3767 C   0  0  0  0  0  0  0  0  0  0  0  0
   -3.7819    0.5389   -1.0366 C   0  0  0  0  0  0  0  0  0  0  0  0
    7.1773    0.0790    1.9326 C   0  0  0  0  0  0  0  0  0  0  0  0
    6.4903    2.3859    2.1010 C   0  0  0  0  0  0  0  0  0  0  0  0
   -4.3190    1.6420   -0.9328 O   0  0  0  0  0  0  0  0  0  0  0  0
   -4.1836   -0.4419   -2.0681 C   0  0  0  0  0  0  0  0  0  0  0  0
    7.8047    0.1767    3.1784 C   0  0  0  0  0  0  0  0  0  0  0  0
    7.1193    2.4850    3.3451 C   0  0  0  0  0  0  0  0  0  0  0  0
   -3.1204   -1.1738   -2.5772 O   0  0  0  0  0  0  0  0  0  0  0  0
   -5.0453   -0.2494   -3.1556 C   0  0  0  0  0  0  0  0  0  0  0  0
    7.7856    1.3812    3.8966 C   0  0  0  0  0  0  0  0  0  0  0  0
   -2.9404   -0.6253   -3.8074 C   0  0  0  0  0  0  0  0  0  0  0  0
   -4.1055    0.0207   -4.1984 C   0  0  0  0  0  0  0  0  0  0  0  0
   -6.5125   -0.0594   -3.1976 C   0  0  0  0  0  0  0  0  0  0  0  0
    8.4616    1.5036    5.2398 C   0  0  0  0  0  0  0  0  0  0  0  0
   -1.7446   -0.6207   -4.5058 C   0  0  0  0  0  0  0  0  0  0  0  0
   -4.0894    0.7573   -5.3920 C   0  0  0  0  0  0  0  0  0  0  0  0
    9.0491    0.3484    5.6619 F   0  0  0  0  0  0  0  0  0  0  0  0
    9.4471    2.4441    5.2460 F   0  0  0  0  0  0  0  0  0  0  0  0
    7.5969    1.8626    6.2291 F   0  0  0  0  0  0  0  0  0  0  0  0
   -1.7163    0.2075   -5.6259 C   0  0  0  0  0  0  0  0  0  0  0  0
   -2.8610    0.8903   -6.0584 C   0  0  0  0  0  0  0  0  0  0  0  0
    0.8544    2.7446    0.1577 H   0  0  0  0  0  0  0  0  0  0  0  0
   -0.6128   -2.3568    0.5330 H   0  0  0  0  0  0  0  0  0  0  0  0
   -0.8656   -1.9440   -1.1473 H   0  0  0  0  0  0  0  0  0  0  0  0
    4.2931   -0.3052    0.1403 H   0  0  0  0  0  0  0  0  0  0  0  0
   -1.8269    2.1700   -0.6233 H   0  0  0  0  0  0  0  0  0  0  0  0
   -1.9869    1.6620    1.0421 H   0  0  0  0  0  0  0  0  0  0  0  0
   -2.4077   -1.0361    1.2542 H   0  0  0  0  0  0  0  0  0  0  0  0
   -2.9949   -1.7665   -0.2499 H   0  0  0  0  0  0  0  0  0  0  0  0
    5.8938    2.0590   -0.4396 H   0  0  0  0  0  0  0  0  0  0  0  0
    6.4021    0.3656   -0.5497 H   0  0  0  0  0  0  0  0  0  0  0  0
    7.1971   -0.8155    1.4183 H   0  0  0  0  0  0  0  0  0  0  0  0
    5.9973    3.2046    1.7113 H   0  0  0  0  0  0  0  0  0  0  0  0
    8.2867   -0.6459    3.5734 H   0  0  0  0  0  0  0  0  0  0  0  0
    7.0932    3.3778    3.8622 H   0  0  0  0  0  0  0  0  0  0  0  0
   -6.9370   -0.3523   -2.2601 H   0  0  0  0  0  0  0  0  0  0  0  0
   -6.9276   -0.6595   -3.9801 H   0  0  0  0  0  0  0  0  0  0  0  0
   -6.7335    0.9710   -3.3828 H   0  0  0  0  0  0  0  0  0  0  0  0
   -0.9333   -1.1895   -4.2176 H   0  0  0  0  0  0  0  0  0  0  0  0
   -4.9499    1.1862   -5.7669 H   0  0  0  0  0  0  0  0  0  0  0  0
   -0.8334    0.3205   -6.1482 H   0  0  0  0  0  0  0  0  0  0  0  0
   -2.7997    1.5047   -6.8852 H   0  0  0  0  0  0  0  0  0  0  0  0
  1  2  1  0  0  0  0
  1  3  1  0  0  0  0
  2  4  1  0  0  0  0
  2  5  2  0  0  0  0
  3  6  2  0  0  0  0
  3  7  1  0  0  0  0
  4  8  2  0  0  0  0
  4  9  1  0  0  0  0
  5  6  1  0  0  0  0
  5 36  1  0  0  0  0
  6 10  1  0  0  0  0
  7 11  1  0  0  0  0
  7 37  1  0  0  0  0
  7 38  1  0  0  0  0
  9 12  1  0  0  0  0
  9 39  1  0  0  0  0
 10 13  1  0  0  0  0
 10 40  1  0  0  0  0
 10 41  1  0  0  0  0
 11 13  1  0  0  0  0
 11 42  1  0  0  0  0
 11 43  1  0  0  0  0
 12 14  1  0  0  0  0
 12 44  1  0  0  0  0
 12 45  1  0  0  0  0
 13 15  1  0  0  0  0
 14 16  2  0  0  0  0
 14 17  1  0  0  0  0
 15 18  2  0  0  0  0
 15 19  1  0  0  0  0
 16 20  1  0  0  0  0
 16 46  1  0  0  0  0
 17 21  2  0  0  0  0
 17 47  1  0  0  0  0
 19 22  1  0  0  0  0
 19 23  2  0  0  0  0
 20 24  2  0  0  0  0
 20 48  1  0  0  0  0
 21 24  1  0  0  0  0
 21 49  1  0  0  0  0
 22 25  1  0  0  0  0
 23 26  1  0  0  0  0
 23 27  1  0  0  0  0
 24 28  1  0  0  0  0
 25 29  2  0  0  0  0
 25 26  1  0  0  0  0
 26 30  2  0  0  0  0
 27 50  1  0  0  0  0
 27 51  1  0  0  0  0
 27 52  1  0  0  0  0
 28 31  1  0  0  0  0
 28 32  1  0  0  0  0
 28 33  1  0  0  0  0
 29 34  1  0  0  0  0
 29 53  1  0  0  0  0
 30 35  1  0  0  0  0
 30 54  1  0  0  0  0
 34 35  2  0  0  0  0
 34 55  1  0  0  0  0
 35 56  1  0  0  0  0
M  END
>  <Molecule Name>
CTX-1020740

>  <SMILES>
CC1=C(OC2=C1C=CC=C2)C(=O)N1CCC2=C(C1)C=C(S2)C(=O)NCC1=CC=C(C=C1)C(F)(F)F

>  <Batch Name>
CTX-1020740-1

>  <Batch Created Date>
2021-12-16

>  <Batch ID>
CTX-1020740-1

>  <External ID>
P841-0355

>  <Stereochemistry>
Achiral

>  <Amount 1>
3.95

>  <Unit 1>
mg

>  <CRO 1>
Pharmaron

>  <CRO 1 Total Amount>
16.75

>  <CRO 1 Unit>
mg

>  <Pharmaron Solubility (PBS, pH 7.4): Aqueous Solubility - Batch Mean (uM)>
0.0017

>  <Pharmaron Solubility (PBS, pH 7.4): Aqueous Solubility - Batch Mean (uM) Standard Deviation (±)>


>  <Pharmaron Solubility (PBS, pH 7.4): Aqueous Solubility - Batch Mean (uM) Count>
1.0

>  <log P>
5.35

>  <log D>
5.35

>  <Pharmaron Caliper Assay (CDK2/CCNE1): Minimum measured (%)>
73.5

>  <Pharmaron Caliper Assay (CDK2/CCNE1): IC50 - Batch Mean (uM)>
3.05

>  <Pharmaron ADPGLO (CDK2/E1-25C): Minimum measured (%)>


>  <Pharmaron ADPGLO (CDK2/E1-25C): IC50 - Batch Mean (uM)>


>  <Pharmaron ADPGLO (CDK2/E1-37C): Minimum measured (%)>


>  <Pharmaron ADPGLO (CDK2/E1-37C): IC50 - Batch Mean (uM)>


>  <IncuCyte Kuramochi RB-WT: IC50 - Batch Mean (uM)>
20.0

>  <IncuCyte Kuramochi RB-KO: IC50 - Batch Mean (uM)>
20.0

>  <DSF (npCDK2/CCNE1): dTm D - Batch Mean [Concentration: 100]>


>  <DSF (npCDK2/CCNE1): dTm D - Batch Mean [Concentration: 20.0]>
0.775

>  <DSF (pCDK2/CCNE1): dTm D - Batch Mean [Concentration: 100]>


>  <DSF (pCDK2/CCNE1): dTm D - Batch Mean [Concentration: 20.0]>


>  <RLM: t1/2 - Batch Mean (Min)>


>  <RLM: Cl int - Batch Mean (uL/min/mg protein)>


>  <RLM: ER (Hepatic extraction ratio) - Batch Mean>


>  <HLM: t1/2 - Batch Mean (Min)>


>  <HLM: Cl int - Batch Mean (uL/min/mg protein)>


>  <HLM: ER (Hepatic extraction ratio) - Batch Mean>


>  <MDCK-WT 4% BSA: Papp (A-B) - Batch Mean (10-6, cm/s)>


>  <MDCK-WT 4% BSA: Papp (B-A) - Batch Mean (10-6, cm/s)>


>  <MDCK-WT 4% BSA: Efflux Ratio - Batch Mean>


>  <MDCK-WT 4% BSA: ~Net A_B - Batch Mean (10-6, cm/s)>


>  <pIC50>
5.5157

>  <Selection_1>
Y

>  <Selection_N>
N

>  <Serie>
Tetrahydrothienopyridine

>  <Selection_T>


>  <Train_Vs_Test>


$$$$
