CTX-1020902
 OpenBabel08272613283D

 75 80  0  0  0  0  0  0  0  0999 V2000
    1.5197    0.4290   -0.6058 O   0  0  0  0  0  0  0  0  0  0  0  0
    2.5920   -0.1227   -0.3681 C   0  0  0  0  0  0  0  0  0  0  0  0
    3.0132   -1.1495   -1.2195 N   0  0  0  0  0  0  0  0  0  0  0  0
    3.4619    0.3595    0.7139 C   0  0  0  0  0  0  0  0  0  0  0  0
    4.0982   -2.0814   -0.9673 C   0  0  0  0  0  0  0  0  0  0  0  0
    2.4947   -1.1932   -2.5821 C   0  0  0  0  0  0  0  0  0  0  0  0
    2.8133    1.2260    1.5884 O   0  0  0  0  0  0  0  0  0  0  0  0
    4.7887    0.7995    0.6868 C   0  0  0  0  0  0  0  0  0  0  0  0
    5.1998   -1.9559   -1.9978 C   0  0  0  0  0  0  0  0  0  0  0  0
    3.5948   -0.7357   -3.5480 C   0  0  0  0  0  0  0  0  0  0  0  0
    3.5156    2.3957    1.5403 C   0  0  0  0  0  0  0  0  0  0  0  0
    4.6601    2.2207    0.7766 C   0  0  0  0  0  0  0  0  0  0  0  0
    6.0305    0.1057    1.1256 C   0  0  0  0  0  0  0  0  0  0  0  0
    6.4179   -2.4563   -1.6629 N   0  0  0  0  0  0  0  0  0  0  0  0
    4.9321   -1.3744   -3.2452 C   0  0  0  0  0  0  0  0  0  0  0  0
    3.1561    3.5880    2.1474 C   0  0  0  0  0  0  0  0  0  0  0  0
    5.4801    3.3331    0.5176 C   0  0  0  0  0  0  0  0  0  0  0  0
    7.4202   -2.3776   -2.5764 C   0  0  0  0  0  0  0  0  0  0  0  0
    5.9723   -1.3075   -4.1722 C   0  0  0  0  0  0  0  0  0  0  0  0
    3.9749    4.6852    1.8710 C   0  0  0  0  0  0  0  0  0  0  0  0
    5.0926    4.5726    1.0373 C   0  0  0  0  0  0  0  0  0  0  0  0
    7.2261   -1.8158   -3.8374 C   0  0  0  0  0  0  0  0  0  0  0  0
    8.8220   -2.7913   -2.1457 C   0  0  0  0  0  0  0  0  0  0  0  0
    8.9544   -4.1977   -1.7453 N   0  3  0  0  0  0  0  0  0  0  0  0
   10.3284   -4.4780   -1.3248 C   0  0  0  0  0  0  0  0  0  0  0  0
   10.5329   -5.9266   -0.9502 C   0  0  0  0  0  0  0  0  0  0  0  0
   11.4680   -6.7128   -1.6256 C   0  0  0  0  0  0  0  0  0  0  0  0
    9.8346   -6.5019    0.1193 C   0  0  0  0  0  0  0  0  0  0  0  0
   11.6968   -8.0390   -1.2370 C   0  0  0  0  0  0  0  0  0  0  0  0
   10.0818   -7.8262    0.5095 C   0  0  0  0  0  0  0  0  0  0  0  0
   11.0182   -8.6249   -0.1564 C   0  0  0  0  0  0  0  0  0  0  0  0
   11.3570   -9.9089    0.2418 N   0  0  0  0  0  0  0  0  0  0  0  0
   11.1194  -10.3667    1.6183 C   0  0  0  0  0  0  0  0  0  0  0  0
   11.2581  -10.9988   -0.7447 C   0  0  0  0  0  0  0  0  0  0  0  0
   12.1403  -11.4818    1.9572 C   0  0  0  0  0  0  0  0  0  0  0  0
   12.2643  -12.1165   -0.3756 C   0  0  0  0  0  0  0  0  0  0  0  0
   12.0939  -12.6212    1.0090 N   0  3  0  0  0  0  0  0  0  0  0  0
   13.1397  -13.5908    1.3287 C   0  0  0  0  0  0  0  0  0  0  0  0
    3.7111   -3.0785   -0.9942 H   0  0  0  0  0  0  0  0  0  0  0  0
    4.5139   -1.8551   -0.0077 H   0  0  0  0  0  0  0  0  0  0  0  0
    1.6498   -0.5420   -2.6659 H   0  0  0  0  0  0  0  0  0  0  0  0
    2.1931   -2.1911   -2.8231 H   0  0  0  0  0  0  0  0  0  0  0  0
    3.6971    0.3268   -3.4735 H   0  0  0  0  0  0  0  0  0  0  0  0
    3.3071   -1.0344   -4.5343 H   0  0  0  0  0  0  0  0  0  0  0  0
    5.9222   -0.9482    0.9756 H   0  0  0  0  0  0  0  0  0  0  0  0
    6.2013    0.3026    2.1634 H   0  0  0  0  0  0  0  0  0  0  0  0
    6.8605    0.4640    0.5533 H   0  0  0  0  0  0  0  0  0  0  0  0
    2.3334    3.6609    2.7662 H   0  0  0  0  0  0  0  0  0  0  0  0
    6.3432    3.2378   -0.0400 H   0  0  0  0  0  0  0  0  0  0  0  0
    5.8144   -0.8844   -5.1001 H   0  0  0  0  0  0  0  0  0  0  0  0
    3.7501    5.6003    2.2918 H   0  0  0  0  0  0  0  0  0  0  0  0
    5.6389    5.4160    0.8023 H   0  0  0  0  0  0  0  0  0  0  0  0
    8.0028   -1.7767   -4.5159 H   0  0  0  0  0  0  0  0  0  0  0  0
    9.1087   -2.1805   -1.3152 H   0  0  0  0  0  0  0  0  0  0  0  0
    9.4502   -2.6620   -3.0022 H   0  0  0  0  0  0  0  0  0  0  0  0
    8.7153   -4.7967   -2.5356 H   0  0  0  0  0  0  0  0  0  0  0  0
    8.3239   -4.3817   -0.9649 H   0  0  0  0  0  0  0  0  0  0  0  0
   10.5591   -3.8681   -0.4764 H   0  0  0  0  0  0  0  0  0  0  0  0
   10.9727   -4.2611   -2.1511 H   0  0  0  0  0  0  0  0  0  0  0  0
   11.9951   -6.3137   -2.4180 H   0  0  0  0  0  0  0  0  0  0  0  0
    9.1297   -5.9443    0.6264 H   0  0  0  0  0  0  0  0  0  0  0  0
   12.3848   -8.6024   -1.7606 H   0  0  0  0  0  0  0  0  0  0  0  0
    9.5601   -8.2214    1.3074 H   0  0  0  0  0  0  0  0  0  0  0  0
   10.1248  -10.7522    1.7023 H   0  0  0  0  0  0  0  0  0  0  0  0
   11.2353   -9.5489    2.2984 H   0  0  0  0  0  0  0  0  0  0  0  0
   11.4859  -10.6205   -1.7193 H   0  0  0  0  0  0  0  0  0  0  0  0
   10.2645  -11.3959   -0.7415 H   0  0  0  0  0  0  0  0  0  0  0  0
   11.9305  -11.8482    2.9403 H   0  0  0  0  0  0  0  0  0  0  0  0
   13.1174  -11.0507    1.8902 H   0  0  0  0  0  0  0  0  0  0  0  0
   13.2562  -11.7282   -0.4765 H   0  0  0  0  0  0  0  0  0  0  0  0
   12.0852  -12.9375   -1.0379 H   0  0  0  0  0  0  0  0  0  0  0  0
   11.1904  -13.0878    1.0879 H   0  0  0  0  0  0  0  0  0  0  0  0
   14.0977  -13.1206    1.2517 H   0  0  0  0  0  0  0  0  0  0  0  0
   13.0883  -14.4101    0.6423 H   0  0  0  0  0  0  0  0  0  0  0  0
   12.9986  -13.9518    2.3260 H   0  0  0  0  0  0  0  0  0  0  0  0
  1  2  2  0  0  0  0
  2  3  1  0  0  0  0
  2  4  1  0  0  0  0
  3  5  1  0  0  0  0
  3  6  1  0  0  0  0
  4  7  1  0  0  0  0
  4  8  2  0  0  0  0
  5  9  1  0  0  0  0
  5 39  1  0  0  0  0
  5 40  1  0  0  0  0
  6 10  1  0  0  0  0
  6 41  1  0  0  0  0
  6 42  1  0  0  0  0
  7 11  1  0  0  0  0
  8 12  1  0  0  0  0
  8 13  1  0  0  0  0
  9 14  2  0  0  0  0
  9 15  1  0  0  0  0
 10 15  1  0  0  0  0
 10 43  1  0  0  0  0
 10 44  1  0  0  0  0
 11 16  2  0  0  0  0
 11 12  1  0  0  0  0
 12 17  2  0  0  0  0
 13 45  1  0  0  0  0
 13 46  1  0  0  0  0
 13 47  1  0  0  0  0
 14 18  1  0  0  0  0
 15 19  2  0  0  0  0
 16 20  1  0  0  0  0
 16 48  1  0  0  0  0
 17 21  1  0  0  0  0
 17 49  1  0  0  0  0
 18 22  2  0  0  0  0
 18 23  1  0  0  0  0
 19 22  1  0  0  0  0
 19 50  1  0  0  0  0
 20 21  2  0  0  0  0
 20 51  1  0  0  0  0
 21 52  1  0  0  0  0
 22 53  1  0  0  0  0
 23 24  1  0  0  0  0
 23 54  1  0  0  0  0
 23 55  1  0  0  0  0
 24 25  1  0  0  0  0
 24 56  1  0  0  0  0
 24 57  1  0  0  0  0
 25 26  1  0  0  0  0
 25 58  1  0  0  0  0
 25 59  1  0  0  0  0
 26 27  2  0  0  0  0
 26 28  1  0  0  0  0
 27 29  1  0  0  0  0
 27 60  1  0  0  0  0
 28 30  2  0  0  0  0
 28 61  1  0  0  0  0
 29 31  2  0  0  0  0
 29 62  1  0  0  0  0
 30 31  1  0  0  0  0
 30 63  1  0  0  0  0
 31 32  1  0  0  0  0
 32 33  1  0  0  0  0
 32 34  1  0  0  0  0
 33 35  1  0  0  0  0
 33 64  1  0  0  0  0
 33 65  1  0  0  0  0
 34 36  1  0  0  0  0
 34 66  1  0  0  0  0
 34 67  1  0  0  0  0
 35 37  1  0  0  0  0
 35 68  1  0  0  0  0
 35 69  1  0  0  0  0
 36 37  1  0  0  0  0
 36 70  1  0  0  0  0
 36 71  1  0  0  0  0
 37 38  1  0  0  0  0
 37 72  1  0  0  0  0
 38 73  1  0  0  0  0
 38 74  1  0  0  0  0
 38 75  1  0  0  0  0
M  CHG  2  24   1  37   1
M  END
>  <Molecule Name>
CTX-1020902

>  <SMILES>
CN1CCN(CC1)C1=CC=C(CNCC2=CC=C3CCN(CC3=N2)C(=O)C2=C(C)C3=CC=CC=C3O2)C=C1

>  <Batch Name>
CTX-1020902-1

>  <Batch Created Date>
2022-01-20

>  <Batch ID>
CTX-1020902-1

>  <External ID>
P841-0274

>  <Stereochemistry>
Achiral

>  <Amount 1>
2.8

>  <Unit 1>
mg

>  <CRO 1>
Pharmaron

>  <CRO 1 Total Amount>
2.1

>  <CRO 1 Unit>
mg

>  <Pharmaron Solubility (PBS, pH 7.4): Aqueous Solubility - Batch Mean (uM)>
239.5833

>  <Pharmaron Solubility (PBS, pH 7.4): Aqueous Solubility - Batch Mean (uM) Standard Deviation (±)>


>  <Pharmaron Solubility (PBS, pH 7.4): Aqueous Solubility - Batch Mean (uM) Count>
1.0

>  <log P>
3.81

>  <log D>
2.67

>  <Pharmaron Caliper Assay (CDK2/CCNE1): Minimum measured (%)>
76.3

>  <Pharmaron Caliper Assay (CDK2/CCNE1): IC50 - Batch Mean (uM)>
45.6

>  <Pharmaron ADPGLO (CDK2/E1-25C): Minimum measured (%)>
94.3

>  <Pharmaron ADPGLO (CDK2/E1-25C): IC50 - Batch Mean (uM)>
100

>  <Pharmaron ADPGLO (CDK2/E1-37C): Minimum measured (%)>
98.0

>  <Pharmaron ADPGLO (CDK2/E1-37C): IC50 - Batch Mean (uM)>
100

>  <IncuCyte Kuramochi RB-WT: IC50 - Batch Mean (uM)>
5.57

>  <IncuCyte Kuramochi RB-KO: IC50 - Batch Mean (uM)>
5.79

>  <DSF (npCDK2/CCNE1): dTm D - Batch Mean [Concentration: 100]>


>  <DSF (npCDK2/CCNE1): dTm D - Batch Mean [Concentration: 20.0]>
-0.034

>  <DSF (pCDK2/CCNE1): dTm D - Batch Mean [Concentration: 100]>


>  <DSF (pCDK2/CCNE1): dTm D - Batch Mean [Concentration: 20.0]>
-0.021

>  <RLM: t1/2 - Batch Mean (Min)>
2.1

>  <RLM: Cl int - Batch Mean (uL/min/mg protein)>
659.88

>  <RLM: ER (Hepatic extraction ratio) - Batch Mean>
0.9590000000000001

>  <HLM: t1/2 - Batch Mean (Min)>
9.86

>  <HLM: Cl int - Batch Mean (uL/min/mg protein)>
141.27

>  <HLM: ER (Hepatic extraction ratio) - Batch Mean>
0.873

>  <MDCK-WT 4% BSA: Papp (A-B) - Batch Mean (10-6, cm/s)>


>  <MDCK-WT 4% BSA: Papp (B-A) - Batch Mean (10-6, cm/s)>


>  <MDCK-WT 4% BSA: Efflux Ratio - Batch Mean>


>  <MDCK-WT 4% BSA: ~Net A_B - Batch Mean (10-6, cm/s)>


>  <pIC50>
4.341035

>  <Selection_1>
Y

>  <Selection_N>


>  <Serie>
Naphthyridine

>  <Selection_T>
N

>  <Train_Vs_Test>


$$$$
