CTX-1020745
 OpenBabel08272613283D

 75 80  0  0  0  0  0  0  0  0999 V2000
    1.8854   -0.7254    0.0274 S   0  0  0  0  0  0  0  0  0  0  0  0
    2.1961    0.9602    0.0897 C   0  0  0  0  0  0  0  0  0  0  0  0
    0.2055   -0.4772   -0.0043 C   0  0  0  0  0  0  0  0  0  0  0  0
    3.5373    1.5277    0.1094 C   0  0  0  0  0  0  0  0  0  0  0  0
    1.0173    1.6845    0.1100 C   0  0  0  0  0  0  0  0  0  0  0  0
   -0.1406    0.8585    0.0489 C   0  0  0  0  0  0  0  0  0  0  0  0
   -0.7877   -1.5894   -0.1453 C   0  0  0  0  0  0  0  0  0  0  0  0
    3.7312    2.7404    0.1686 O   0  0  0  0  0  0  0  0  0  0  0  0
    4.5829    0.6339    0.0603 N   0  0  0  0  0  0  0  0  0  0  0  0
   -1.5608    1.3348    0.0100 C   0  0  0  0  0  0  0  0  0  0  0  0
   -2.2052   -1.0470    0.0945 C   0  0  0  0  0  0  0  0  0  0  0  0
    5.9630    1.0620    0.0666 C   0  0  0  0  0  0  0  0  0  0  0  0
   -2.4032    0.2582   -0.5222 N   0  0  0  0  0  0  0  0  0  0  0  0
    6.6833    0.6238   -1.1795 C   0  0  0  0  0  0  0  0  0  0  0  0
   -3.4017    0.6369   -1.4032 C   0  0  0  0  0  0  0  0  0  0  0  0
    6.2401    1.0547   -2.4330 C   0  0  0  0  0  0  0  0  0  0  0  0
    7.8330   -0.1749   -1.1148 C   0  0  0  0  0  0  0  0  0  0  0  0
   -3.5978    1.8473   -1.5624 O   0  0  0  0  0  0  0  0  0  0  0  0
   -4.2006   -0.3309   -2.1852 C   0  0  0  0  0  0  0  0  0  0  0  0
    6.9169    0.6670   -3.5853 C   0  0  0  0  0  0  0  0  0  0  0  0
    8.5144   -0.5500   -2.2803 C   0  0  0  0  0  0  0  0  0  0  0  0
   -4.9107    0.2054   -3.2716 N   0  0  0  0  0  0  0  0  0  0  0  0
   -5.1319   -1.3169   -1.8038 C   0  0  0  0  0  0  0  0  0  0  0  0
    8.0576   -0.1534   -3.5411 C   0  0  0  0  0  0  0  0  0  0  0  0
   -6.1777    0.4160   -2.7658 C   0  0  0  0  0  0  0  0  0  0  0  0
   -4.3177    1.0098   -4.3226 C   0  0  0  0  0  0  0  0  0  0  0  0
   -6.3498   -0.5757   -1.8008 C   0  0  0  0  0  0  0  0  0  0  0  0
   -4.9974   -2.6942   -1.2783 C   0  0  0  0  0  0  0  0  0  0  0  0
    8.6821   -0.4873   -4.7338 N   0  0  0  0  0  0  0  0  0  0  0  0
   -7.1017    1.4160   -3.0045 C   0  0  0  0  0  0  0  0  0  0  0  0
   -7.5341   -0.6231   -1.0453 C   0  0  0  0  0  0  0  0  0  0  0  0
   10.1028   -0.8734   -4.7794 C   0  0  0  0  0  0  0  0  0  0  0  0
    7.8577   -1.2659   -5.6820 C   0  0  0  0  0  0  0  0  0  0  0  0
   -8.1437    1.4575   -2.0896 C   0  0  0  0  0  0  0  0  0  0  0  0
   -8.3662    0.4892   -1.1167 C   0  0  0  0  0  0  0  0  0  0  0  0
   10.6231   -0.6897   -6.2297 C   0  0  0  0  0  0  0  0  0  0  0  0
    8.3967   -1.0548   -7.1075 C   0  0  0  0  0  0  0  0  0  0  0  0
    9.8208   -1.4385   -7.2290 N   0  3  0  0  0  0  0  0  0  0  0  0
   10.2873   -1.1553   -8.5789 C   0  0  0  0  0  0  0  0  0  0  0  0
    0.9812    2.7144    0.1638 H   0  0  0  0  0  0  0  0  0  0  0  0
   -0.5721   -2.3527    0.5728 H   0  0  0  0  0  0  0  0  0  0  0  0
   -0.7257   -1.9987   -1.1320 H   0  0  0  0  0  0  0  0  0  0  0  0
    4.3839   -0.3294    0.0195 H   0  0  0  0  0  0  0  0  0  0  0  0
   -1.6349    2.1955   -0.6214 H   0  0  0  0  0  0  0  0  0  0  0  0
   -1.8844    1.5978    0.9954 H   0  0  0  0  0  0  0  0  0  0  0  0
   -2.3673   -0.9590    1.1484 H   0  0  0  0  0  0  0  0  0  0  0  0
   -2.8991   -1.7301   -0.3490 H   0  0  0  0  0  0  0  0  0  0  0  0
    6.4539    0.6397    0.9184 H   0  0  0  0  0  0  0  0  0  0  0  0
    5.9821    2.1311    0.1063 H   0  0  0  0  0  0  0  0  0  0  0  0
    5.4088    1.6620   -2.5041 H   0  0  0  0  0  0  0  0  0  0  0  0
    8.1825   -0.4909   -0.1967 H   0  0  0  0  0  0  0  0  0  0  0  0
    6.5704    0.9921   -4.5015 H   0  0  0  0  0  0  0  0  0  0  0  0
    9.3663   -1.1279   -2.2072 H   0  0  0  0  0  0  0  0  0  0  0  0
   -3.3338    0.6480   -4.5367 H   0  0  0  0  0  0  0  0  0  0  0  0
   -4.2611    2.0293   -4.0026 H   0  0  0  0  0  0  0  0  0  0  0  0
   -4.9209    0.9458   -5.2041 H   0  0  0  0  0  0  0  0  0  0  0  0
   -3.9864   -3.0240   -1.3967 H   0  0  0  0  0  0  0  0  0  0  0  0
   -5.6511   -3.3472   -1.8179 H   0  0  0  0  0  0  0  0  0  0  0  0
   -5.2575   -2.7070   -0.2405 H   0  0  0  0  0  0  0  0  0  0  0  0
   -7.0232    2.0748   -3.7950 H   0  0  0  0  0  0  0  0  0  0  0  0
   -7.7744   -1.4428   -0.4661 H   0  0  0  0  0  0  0  0  0  0  0  0
   10.2071   -1.8972   -4.4867 H   0  0  0  0  0  0  0  0  0  0  0  0
   10.6685   -0.2603   -4.1093 H   0  0  0  0  0  0  0  0  0  0  0  0
    6.8418   -0.9340   -5.6301 H   0  0  0  0  0  0  0  0  0  0  0  0
    7.9020   -2.3048   -5.4298 H   0  0  0  0  0  0  0  0  0  0  0  0
   -8.7945    2.2571   -2.1338 H   0  0  0  0  0  0  0  0  0  0  0  0
   -9.1464    0.5955   -0.4496 H   0  0  0  0  0  0  0  0  0  0  0  0
   11.6349   -1.0348   -6.2760 H   0  0  0  0  0  0  0  0  0  0  0  0
   10.5464    0.3502   -6.4697 H   0  0  0  0  0  0  0  0  0  0  0  0
    8.2951   -0.0212   -7.3648 H   0  0  0  0  0  0  0  0  0  0  0  0
    7.8310   -1.6779   -7.7682 H   0  0  0  0  0  0  0  0  0  0  0  0
    9.9265   -2.4371   -7.0501 H   0  0  0  0  0  0  0  0  0  0  0  0
   10.1822   -0.1098   -8.7806 H   0  0  0  0  0  0  0  0  0  0  0  0
    9.7058   -1.7144   -9.2818 H   0  0  0  0  0  0  0  0  0  0  0  0
   11.3168   -1.4336   -8.6662 H   0  0  0  0  0  0  0  0  0  0  0  0
  1  2  1  0  0  0  0
  1  3  1  0  0  0  0
  2  4  1  0  0  0  0
  2  5  2  0  0  0  0
  3  6  2  0  0  0  0
  3  7  1  0  0  0  0
  4  8  2  0  0  0  0
  4  9  1  0  0  0  0
  5  6  1  0  0  0  0
  5 40  1  0  0  0  0
  6 10  1  0  0  0  0
  7 11  1  0  0  0  0
  7 41  1  0  0  0  0
  7 42  1  0  0  0  0
  9 12  1  0  0  0  0
  9 43  1  0  0  0  0
 10 13  1  0  0  0  0
 10 44  1  0  0  0  0
 10 45  1  0  0  0  0
 11 13  1  0  0  0  0
 11 46  1  0  0  0  0
 11 47  1  0  0  0  0
 12 14  1  0  0  0  0
 12 48  1  0  0  0  0
 12 49  1  0  0  0  0
 13 15  1  0  0  0  0
 14 16  2  0  0  0  0
 14 17  1  0  0  0  0
 15 18  2  0  0  0  0
 15 19  1  0  0  0  0
 16 20  1  0  0  0  0
 16 50  1  0  0  0  0
 17 21  2  0  0  0  0
 17 51  1  0  0  0  0
 19 22  1  0  0  0  0
 19 23  2  0  0  0  0
 20 24  2  0  0  0  0
 20 52  1  0  0  0  0
 21 24  1  0  0  0  0
 21 53  1  0  0  0  0
 22 25  1  0  0  0  0
 22 26  1  0  0  0  0
 23 27  1  0  0  0  0
 23 28  1  0  0  0  0
 24 29  1  0  0  0  0
 25 30  2  0  0  0  0
 25 27  1  0  0  0  0
 26 54  1  0  0  0  0
 26 55  1  0  0  0  0
 26 56  1  0  0  0  0
 27 31  2  0  0  0  0
 28 57  1  0  0  0  0
 28 58  1  0  0  0  0
 28 59  1  0  0  0  0
 29 32  1  0  0  0  0
 29 33  1  0  0  0  0
 30 34  1  0  0  0  0
 30 60  1  0  0  0  0
 31 35  1  0  0  0  0
 31 61  1  0  0  0  0
 32 36  1  0  0  0  0
 32 62  1  0  0  0  0
 32 63  1  0  0  0  0
 33 37  1  0  0  0  0
 33 64  1  0  0  0  0
 33 65  1  0  0  0  0
 34 35  2  0  0  0  0
 34 66  1  0  0  0  0
 35 67  1  0  0  0  0
 36 38  1  0  0  0  0
 36 68  1  0  0  0  0
 36 69  1  0  0  0  0
 37 38  1  0  0  0  0
 37 70  1  0  0  0  0
 37 71  1  0  0  0  0
 38 39  1  0  0  0  0
 38 72  1  0  0  0  0
 39 73  1  0  0  0  0
 39 74  1  0  0  0  0
 39 75  1  0  0  0  0
M  CHG  1  38   1
M  END
>  <Molecule Name>
CTX-1020745

>  <SMILES>
CN1C2=C(C=CC=C2)C(C)=C1C(=O)N1CCC2=C(C1)C=C(S2)C(=O)NCC1=CC=C(C=C1)N1CCN(C)CC1

>  <Batch Name>
CTX-1020745-1

>  <Batch Created Date>
2021-12-16

>  <Batch ID>
CTX-1020745-1

>  <External ID>
P841-0360

>  <Stereochemistry>
Achiral

>  <Amount 1>
3.45

>  <Unit 1>
mg

>  <CRO 1>
Pharmaron

>  <CRO 1 Total Amount>
31.75

>  <CRO 1 Unit>
mg

>  <Pharmaron Solubility (PBS, pH 7.4): Aqueous Solubility - Batch Mean (uM)>
9.9095

>  <Pharmaron Solubility (PBS, pH 7.4): Aqueous Solubility - Batch Mean (uM) Standard Deviation (±)>


>  <Pharmaron Solubility (PBS, pH 7.4): Aqueous Solubility - Batch Mean (uM) Count>
1.0

>  <log P>
4.59

>  <log D>
3.96

>  <Pharmaron Caliper Assay (CDK2/CCNE1): Minimum measured (%)>
51.3

>  <Pharmaron Caliper Assay (CDK2/CCNE1): IC50 - Batch Mean (uM)>
30.4

>  <Pharmaron ADPGLO (CDK2/E1-25C): Minimum measured (%)>


>  <Pharmaron ADPGLO (CDK2/E1-25C): IC50 - Batch Mean (uM)>


>  <Pharmaron ADPGLO (CDK2/E1-37C): Minimum measured (%)>


>  <Pharmaron ADPGLO (CDK2/E1-37C): IC50 - Batch Mean (uM)>


>  <IncuCyte Kuramochi RB-WT: IC50 - Batch Mean (uM)>
8.12

>  <IncuCyte Kuramochi RB-KO: IC50 - Batch Mean (uM)>
7.47

>  <DSF (npCDK2/CCNE1): dTm D - Batch Mean [Concentration: 100]>


>  <DSF (npCDK2/CCNE1): dTm D - Batch Mean [Concentration: 20.0]>
0.27399999999999997

>  <DSF (pCDK2/CCNE1): dTm D - Batch Mean [Concentration: 100]>


>  <DSF (pCDK2/CCNE1): dTm D - Batch Mean [Concentration: 20.0]>


>  <RLM: t1/2 - Batch Mean (Min)>


>  <RLM: Cl int - Batch Mean (uL/min/mg protein)>


>  <RLM: ER (Hepatic extraction ratio) - Batch Mean>


>  <HLM: t1/2 - Batch Mean (Min)>


>  <HLM: Cl int - Batch Mean (uL/min/mg protein)>


>  <HLM: ER (Hepatic extraction ratio) - Batch Mean>


>  <MDCK-WT 4% BSA: Papp (A-B) - Batch Mean (10-6, cm/s)>


>  <MDCK-WT 4% BSA: Papp (B-A) - Batch Mean (10-6, cm/s)>


>  <MDCK-WT 4% BSA: Efflux Ratio - Batch Mean>


>  <MDCK-WT 4% BSA: ~Net A_B - Batch Mean (10-6, cm/s)>


>  <pIC50>
4.517126

>  <Selection_1>
Y

>  <Selection_N>
N

>  <Serie>
Tetrahydrothienopyridine

>  <Selection_T>


>  <Train_Vs_Test>


$$$$
