CTX-1020739
 OpenBabel08272613283D

 52 56  0  0  0  0  0  0  0  0999 V2000
    1.8618   -0.6883    0.0002 S   0  0  0  0  0  0  0  0  0  0  0  0
    2.1781    0.9952    0.0594 C   0  0  0  0  0  0  0  0  0  0  0  0
    0.1853   -0.4346   -0.0334 C   0  0  0  0  0  0  0  0  0  0  0  0
    3.5279    1.5389    0.1465 C   0  0  0  0  0  0  0  0  0  0  0  0
    0.9980    1.7235    0.0278 C   0  0  0  0  0  0  0  0  0  0  0  0
   -0.1693    0.9007   -0.0305 C   0  0  0  0  0  0  0  0  0  0  0  0
   -0.8013   -1.5541   -0.0768 C   0  0  0  0  0  0  0  0  0  0  0  0
    3.7461    2.7500    0.1822 O   0  0  0  0  0  0  0  0  0  0  0  0
    4.5630    0.6265    0.1975 N   0  0  0  0  0  0  0  0  0  0  0  0
   -1.6037    1.3703   -0.0464 C   0  0  0  0  0  0  0  0  0  0  0  0
   -2.1723   -1.0172    0.3599 C   0  0  0  0  0  0  0  0  0  0  0  0
    5.9422    1.0575    0.2292 C   0  0  0  0  0  0  0  0  0  0  0  0
   -2.4968    0.2406   -0.3447 N   0  0  0  0  0  0  0  0  0  0  0  0
    6.8295    0.0672    0.9363 C   0  0  0  0  0  0  0  0  0  0  0  0
   -3.4574    0.3950   -1.3530 C   0  0  0  0  0  0  0  0  0  0  0  0
    7.9483   -0.4854    0.3071 C   0  0  0  0  0  0  0  0  0  0  0  0
    6.5890   -0.2706    2.2727 C   0  0  0  0  0  0  0  0  0  0  0  0
   -3.5074    1.4385   -2.0078 O   0  0  0  0  0  0  0  0  0  0  0  0
   -4.3810   -0.6976   -1.6228 C   0  0  0  0  0  0  0  0  0  0  0  0
    8.7642   -1.3459    1.0302 C   0  0  0  0  0  0  0  0  0  0  0  0
    7.4602   -1.1409    2.9098 C   0  0  0  0  0  0  0  0  0  0  0  0
   -4.8359   -1.4599   -0.5811 O   0  0  0  0  0  0  0  0  0  0  0  0
   -4.9929   -1.1194   -2.8014 C   0  0  0  0  0  0  0  0  0  0  0  0
    8.5416   -1.6884    2.3170 N   0  0  0  0  0  0  0  0  0  0  0  0
   -5.6542   -2.4139   -1.0833 C   0  0  0  0  0  0  0  0  0  0  0  0
   -5.8239   -2.2297   -2.4459 C   0  0  0  0  0  0  0  0  0  0  0  0
   -4.8094   -0.5719   -4.1705 C   0  0  0  0  0  0  0  0  0  0  0  0
   -6.2434   -3.4340   -0.3418 C   0  0  0  0  0  0  0  0  0  0  0  0
   -6.6928   -3.1017   -3.1283 C   0  0  0  0  0  0  0  0  0  0  0  0
   -7.0937   -4.2954   -1.0392 C   0  0  0  0  0  0  0  0  0  0  0  0
   -7.3268   -4.1250   -2.4064 C   0  0  0  0  0  0  0  0  0  0  0  0
    0.9661    2.7549    0.0447 H   0  0  0  0  0  0  0  0  0  0  0  0
   -0.4914   -2.3336    0.5874 H   0  0  0  0  0  0  0  0  0  0  0  0
   -0.8629   -1.9483   -1.0696 H   0  0  0  0  0  0  0  0  0  0  0  0
    4.3577   -0.3362    0.2126 H   0  0  0  0  0  0  0  0  0  0  0  0
   -1.7220    2.1239   -0.7967 H   0  0  0  0  0  0  0  0  0  0  0  0
   -1.8532    1.7730    0.9131 H   0  0  0  0  0  0  0  0  0  0  0  0
   -2.1569   -0.8341    1.4140 H   0  0  0  0  0  0  0  0  0  0  0  0
   -2.9171   -1.7461    0.1171 H   0  0  0  0  0  0  0  0  0  0  0  0
    5.9984    1.9966    0.7391 H   0  0  0  0  0  0  0  0  0  0  0  0
    6.2838    1.1430   -0.7812 H   0  0  0  0  0  0  0  0  0  0  0  0
    8.1642   -0.2584   -0.6762 H   0  0  0  0  0  0  0  0  0  0  0  0
    5.7773    0.1212    2.7753 H   0  0  0  0  0  0  0  0  0  0  0  0
    9.5886   -1.7469    0.5563 H   0  0  0  0  0  0  0  0  0  0  0  0
    7.2705   -1.3840    3.8946 H   0  0  0  0  0  0  0  0  0  0  0  0
   -4.1327    0.2562   -4.1357 H   0  0  0  0  0  0  0  0  0  0  0  0
   -5.7535   -0.2451   -4.5535 H   0  0  0  0  0  0  0  0  0  0  0  0
   -4.4097   -1.3325   -4.8082 H   0  0  0  0  0  0  0  0  0  0  0  0
   -6.0621   -3.5477    0.6677 H   0  0  0  0  0  0  0  0  0  0  0  0
   -6.8606   -2.9907   -4.1405 H   0  0  0  0  0  0  0  0  0  0  0  0
   -7.5566   -5.0692   -0.5372 H   0  0  0  0  0  0  0  0  0  0  0  0
   -7.9761   -4.7623   -2.8936 H   0  0  0  0  0  0  0  0  0  0  0  0
  1  2  1  0  0  0  0
  1  3  1  0  0  0  0
  2  4  1  0  0  0  0
  2  5  2  0  0  0  0
  3  6  2  0  0  0  0
  3  7  1  0  0  0  0
  4  8  2  0  0  0  0
  4  9  1  0  0  0  0
  5  6  1  0  0  0  0
  5 32  1  0  0  0  0
  6 10  1  0  0  0  0
  7 11  1  0  0  0  0
  7 33  1  0  0  0  0
  7 34  1  0  0  0  0
  9 12  1  0  0  0  0
  9 35  1  0  0  0  0
 10 13  1  0  0  0  0
 10 36  1  0  0  0  0
 10 37  1  0  0  0  0
 11 13  1  0  0  0  0
 11 38  1  0  0  0  0
 11 39  1  0  0  0  0
 12 14  1  0  0  0  0
 12 40  1  0  0  0  0
 12 41  1  0  0  0  0
 13 15  1  0  0  0  0
 14 16  2  0  0  0  0
 14 17  1  0  0  0  0
 15 18  2  0  0  0  0
 15 19  1  0  0  0  0
 16 20  1  0  0  0  0
 16 42  1  0  0  0  0
 17 21  2  0  0  0  0
 17 43  1  0  0  0  0
 19 22  1  0  0  0  0
 19 23  2  0  0  0  0
 20 24  2  0  0  0  0
 20 44  1  0  0  0  0
 21 24  1  0  0  0  0
 21 45  1  0  0  0  0
 22 25  1  0  0  0  0
 23 26  1  0  0  0  0
 23 27  1  0  0  0  0
 25 28  2  0  0  0  0
 25 26  1  0  0  0  0
 26 29  2  0  0  0  0
 27 46  1  0  0  0  0
 27 47  1  0  0  0  0
 27 48  1  0  0  0  0
 28 30  1  0  0  0  0
 28 49  1  0  0  0  0
 29 31  1  0  0  0  0
 29 50  1  0  0  0  0
 30 31  2  0  0  0  0
 30 51  1  0  0  0  0
 31 52  1  0  0  0  0
M  END
>  <Molecule Name>
CTX-1020739

>  <SMILES>
CC1=C(OC2=C1C=CC=C2)C(=O)N1CCC2=C(C1)C=C(S2)C(=O)NCC1=CC=NC=C1

>  <Batch Name>
CTX-1020739-1

>  <Batch Created Date>
2021-12-16

>  <Batch ID>
CTX-1020739-1

>  <External ID>
P841-0354

>  <Stereochemistry>
Achiral

>  <Amount 1>
3.85

>  <Unit 1>
mg

>  <CRO 1>
Pharmaron

>  <CRO 1 Total Amount>
27.55

>  <CRO 1 Unit>
mg

>  <Pharmaron Solubility (PBS, pH 7.4): Aqueous Solubility - Batch Mean (uM)>
13.2512

>  <Pharmaron Solubility (PBS, pH 7.4): Aqueous Solubility - Batch Mean (uM) Standard Deviation (±)>


>  <Pharmaron Solubility (PBS, pH 7.4): Aqueous Solubility - Batch Mean (uM) Count>
1.0

>  <log P>
3.25

>  <log D>
3.25

>  <Pharmaron Caliper Assay (CDK2/CCNE1): Minimum measured (%)>
39.8

>  <Pharmaron Caliper Assay (CDK2/CCNE1): IC50 - Batch Mean (uM)>
8.89

>  <Pharmaron ADPGLO (CDK2/E1-25C): Minimum measured (%)>
46.7

>  <Pharmaron ADPGLO (CDK2/E1-25C): IC50 - Batch Mean (uM)>
4.71

>  <Pharmaron ADPGLO (CDK2/E1-37C): Minimum measured (%)>
109.0

>  <Pharmaron ADPGLO (CDK2/E1-37C): IC50 - Batch Mean (uM)>
100

>  <IncuCyte Kuramochi RB-WT: IC50 - Batch Mean (uM)>
20.0

>  <IncuCyte Kuramochi RB-KO: IC50 - Batch Mean (uM)>
20.0

>  <DSF (npCDK2/CCNE1): dTm D - Batch Mean [Concentration: 100]>


>  <DSF (npCDK2/CCNE1): dTm D - Batch Mean [Concentration: 20.0]>
2.074

>  <DSF (pCDK2/CCNE1): dTm D - Batch Mean [Concentration: 100]>


>  <DSF (pCDK2/CCNE1): dTm D - Batch Mean [Concentration: 20.0]>
0.312

>  <RLM: t1/2 - Batch Mean (Min)>


>  <RLM: Cl int - Batch Mean (uL/min/mg protein)>


>  <RLM: ER (Hepatic extraction ratio) - Batch Mean>


>  <HLM: t1/2 - Batch Mean (Min)>


>  <HLM: Cl int - Batch Mean (uL/min/mg protein)>


>  <HLM: ER (Hepatic extraction ratio) - Batch Mean>


>  <MDCK-WT 4% BSA: Papp (A-B) - Batch Mean (10-6, cm/s)>


>  <MDCK-WT 4% BSA: Papp (B-A) - Batch Mean (10-6, cm/s)>


>  <MDCK-WT 4% BSA: Efflux Ratio - Batch Mean>


>  <MDCK-WT 4% BSA: ~Net A_B - Batch Mean (10-6, cm/s)>


>  <pIC50>
5.051098

>  <Selection_1>
Y

>  <Selection_N>
N

>  <Serie>
Tetrahydrothienopyridine

>  <Selection_T>


>  <Train_Vs_Test>


$$$$
