CTX-1020741
 OpenBabel08272613283D

 57 61  0  0  0  0  0  0  0  0999 V2000
    1.7781   -0.7161   -0.0402 S   0  0  0  0  0  0  0  0  0  0  0  0
    2.1009    0.9659    0.0274 C   0  0  0  0  0  0  0  0  0  0  0  0
    0.0943   -0.4646   -0.0289 C   0  0  0  0  0  0  0  0  0  0  0  0
    3.4526    1.5226    0.0266 C   0  0  0  0  0  0  0  0  0  0  0  0
    0.9161    1.6874    0.0754 C   0  0  0  0  0  0  0  0  0  0  0  0
   -0.2608    0.8688    0.0432 C   0  0  0  0  0  0  0  0  0  0  0  0
   -0.8876   -1.5885   -0.1429 C   0  0  0  0  0  0  0  0  0  0  0  0
    3.6543    2.7358    0.0767 O   0  0  0  0  0  0  0  0  0  0  0  0
    4.5022    0.6281   -0.0352 N   0  0  0  0  0  0  0  0  0  0  0  0
   -1.7006    1.3404    0.0680 C   0  0  0  0  0  0  0  0  0  0  0  0
   -2.2995   -1.0879    0.2026 C   0  0  0  0  0  0  0  0  0  0  0  0
    5.8887    1.0498    0.0070 C   0  0  0  0  0  0  0  0  0  0  0  0
   -2.5838    0.2441   -0.3442 N   0  0  0  0  0  0  0  0  0  0  0  0
    6.6550    0.6425   -1.2285 C   0  0  0  0  0  0  0  0  0  0  0  0
   -3.7818    0.5362   -1.0112 C   0  0  0  0  0  0  0  0  0  0  0  0
    6.2498    1.0870   -2.4938 C   0  0  0  0  0  0  0  0  0  0  0  0
    7.8288   -0.1196   -1.1324 C   0  0  0  0  0  0  0  0  0  0  0  0
   -4.3258    1.6343   -0.8886 O   0  0  0  0  0  0  0  0  0  0  0  0
   -4.1718   -0.4296   -2.0597 C   0  0  0  0  0  0  0  0  0  0  0  0
    6.9899    0.7670   -3.6407 C   0  0  0  0  0  0  0  0  0  0  0  0
    8.5648   -0.4365   -2.2780 C   0  0  0  0  0  0  0  0  0  0  0  0
   -3.1060   -1.1497   -2.5713 O   0  0  0  0  0  0  0  0  0  0  0  0
   -5.0453   -0.2442   -3.1388 C   0  0  0  0  0  0  0  0  0  0  0  0
    8.1526    0.0009   -3.5365 C   0  0  0  0  0  0  0  0  0  0  0  0
   -2.9471   -0.6141   -3.8084 C   0  0  0  0  0  0  0  0  0  0  0  0
   -4.1214    0.0140   -4.1981 C   0  0  0  0  0  0  0  0  0  0  0  0
   -6.5133   -0.0526   -3.1612 C   0  0  0  0  0  0  0  0  0  0  0  0
    8.9664   -0.3726   -4.5713 O   0  0  0  0  0  0  0  0  0  0  0  0
   -1.7608   -0.6108   -4.5150 C   0  0  0  0  0  0  0  0  0  0  0  0
   -4.1179    0.7384   -5.3991 C   0  0  0  0  0  0  0  0  0  0  0  0
    8.6025    0.0710   -5.8736 C   0  0  0  0  0  0  0  0  0  0  0  0
   -1.7419    0.2025   -5.6491 C   0  0  0  0  0  0  0  0  0  0  0  0
   -2.8959    0.8724   -6.0776 C   0  0  0  0  0  0  0  0  0  0  0  0
    0.8850    2.7175    0.1293 H   0  0  0  0  0  0  0  0  0  0  0  0
   -0.6127   -2.3697    0.5347 H   0  0  0  0  0  0  0  0  0  0  0  0
   -0.8818   -1.9606   -1.1460 H   0  0  0  0  0  0  0  0  0  0  0  0
    4.3016   -0.3328   -0.1108 H   0  0  0  0  0  0  0  0  0  0  0  0
   -1.8173    2.1641   -0.6048 H   0  0  0  0  0  0  0  0  0  0  0  0
   -1.9565    1.6496    1.0599 H   0  0  0  0  0  0  0  0  0  0  0  0
   -2.3961   -1.0474    1.2675 H   0  0  0  0  0  0  0  0  0  0  0  0
   -2.9977   -1.7701   -0.2354 H   0  0  0  0  0  0  0  0  0  0  0  0
    6.3560    0.6076    0.8619 H   0  0  0  0  0  0  0  0  0  0  0  0
    5.9019    2.1184    0.0601 H   0  0  0  0  0  0  0  0  0  0  0  0
    5.3946    1.6578   -2.5829 H   0  0  0  0  0  0  0  0  0  0  0  0
    8.1515   -0.4489   -0.2091 H   0  0  0  0  0  0  0  0  0  0  0  0
    6.6742    1.0989   -4.5655 H   0  0  0  0  0  0  0  0  0  0  0  0
    9.4242   -1.0014   -2.1913 H   0  0  0  0  0  0  0  0  0  0  0  0
   -6.9243   -0.3352   -2.2146 H   0  0  0  0  0  0  0  0  0  0  0  0
   -6.9406   -0.6603   -3.9313 H   0  0  0  0  0  0  0  0  0  0  0  0
   -6.7359    0.9761   -3.3539 H   0  0  0  0  0  0  0  0  0  0  0  0
   -0.9442   -1.1711   -4.2245 H   0  0  0  0  0  0  0  0  0  0  0  0
   -4.9838    1.1586   -5.7714 H   0  0  0  0  0  0  0  0  0  0  0  0
    9.3167   -0.2876   -6.5851 H   0  0  0  0  0  0  0  0  0  0  0  0
    8.5849    1.1406   -5.8941 H   0  0  0  0  0  0  0  0  0  0  0  0
    7.6323   -0.3065   -6.1208 H   0  0  0  0  0  0  0  0  0  0  0  0
   -0.8642    0.3123   -6.1806 H   0  0  0  0  0  0  0  0  0  0  0  0
   -2.8464    1.4785   -6.9114 H   0  0  0  0  0  0  0  0  0  0  0  0
  1  2  1  0  0  0  0
  1  3  1  0  0  0  0
  2  4  1  0  0  0  0
  2  5  2  0  0  0  0
  3  6  2  0  0  0  0
  3  7  1  0  0  0  0
  4  8  2  0  0  0  0
  4  9  1  0  0  0  0
  5  6  1  0  0  0  0
  5 34  1  0  0  0  0
  6 10  1  0  0  0  0
  7 11  1  0  0  0  0
  7 35  1  0  0  0  0
  7 36  1  0  0  0  0
  9 12  1  0  0  0  0
  9 37  1  0  0  0  0
 10 13  1  0  0  0  0
 10 38  1  0  0  0  0
 10 39  1  0  0  0  0
 11 13  1  0  0  0  0
 11 40  1  0  0  0  0
 11 41  1  0  0  0  0
 12 14  1  0  0  0  0
 12 42  1  0  0  0  0
 12 43  1  0  0  0  0
 13 15  1  0  0  0  0
 14 16  2  0  0  0  0
 14 17  1  0  0  0  0
 15 18  2  0  0  0  0
 15 19  1  0  0  0  0
 16 20  1  0  0  0  0
 16 44  1  0  0  0  0
 17 21  2  0  0  0  0
 17 45  1  0  0  0  0
 19 22  1  0  0  0  0
 19 23  2  0  0  0  0
 20 24  2  0  0  0  0
 20 46  1  0  0  0  0
 21 24  1  0  0  0  0
 21 47  1  0  0  0  0
 22 25  1  0  0  0  0
 23 26  1  0  0  0  0
 23 27  1  0  0  0  0
 24 28  1  0  0  0  0
 25 29  2  0  0  0  0
 25 26  1  0  0  0  0
 26 30  2  0  0  0  0
 27 48  1  0  0  0  0
 27 49  1  0  0  0  0
 27 50  1  0  0  0  0
 28 31  1  0  0  0  0
 29 32  1  0  0  0  0
 29 51  1  0  0  0  0
 30 33  1  0  0  0  0
 30 52  1  0  0  0  0
 31 53  1  0  0  0  0
 31 54  1  0  0  0  0
 31 55  1  0  0  0  0
 32 33  2  0  0  0  0
 32 56  1  0  0  0  0
 33 57  1  0  0  0  0
M  END
>  <Molecule Name>
CTX-1020741

>  <SMILES>
COC1=CC=C(CNC(=O)C2=CC3=C(CCN(C3)C(=O)C3=C(C)C4=C(O3)C=CC=C4)S2)C=C1

>  <Batch Name>
CTX-1020741-1

>  <Batch Created Date>
2021-12-16

>  <Batch ID>
CTX-1020741-1

>  <External ID>
P841-0356

>  <Stereochemistry>
Achiral

>  <Amount 1>
4.55

>  <Unit 1>
mg

>  <CRO 1>
Pharmaron

>  <CRO 1 Total Amount>
19.75

>  <CRO 1 Unit>
mg

>  <Pharmaron Solubility (PBS, pH 7.4): Aqueous Solubility - Batch Mean (uM)>
0.0005

>  <Pharmaron Solubility (PBS, pH 7.4): Aqueous Solubility - Batch Mean (uM) Standard Deviation (±)>


>  <Pharmaron Solubility (PBS, pH 7.4): Aqueous Solubility - Batch Mean (uM) Count>
1.0

>  <log P>
4.31

>  <log D>
4.31

>  <Pharmaron Caliper Assay (CDK2/CCNE1): Minimum measured (%)>
40.2

>  <Pharmaron Caliper Assay (CDK2/CCNE1): IC50 - Batch Mean (uM)>
0.764

>  <Pharmaron ADPGLO (CDK2/E1-25C): Minimum measured (%)>
55.5

>  <Pharmaron ADPGLO (CDK2/E1-25C): IC50 - Batch Mean (uM)>
2.01

>  <Pharmaron ADPGLO (CDK2/E1-37C): Minimum measured (%)>
97.4

>  <Pharmaron ADPGLO (CDK2/E1-37C): IC50 - Batch Mean (uM)>
100

>  <IncuCyte Kuramochi RB-WT: IC50 - Batch Mean (uM)>
20.0

>  <IncuCyte Kuramochi RB-KO: IC50 - Batch Mean (uM)>
20.0

>  <DSF (npCDK2/CCNE1): dTm D - Batch Mean [Concentration: 100]>


>  <DSF (npCDK2/CCNE1): dTm D - Batch Mean [Concentration: 20.0]>
2.8139999999999996

>  <DSF (pCDK2/CCNE1): dTm D - Batch Mean [Concentration: 100]>


>  <DSF (pCDK2/CCNE1): dTm D - Batch Mean [Concentration: 20.0]>
0.578

>  <RLM: t1/2 - Batch Mean (Min)>


>  <RLM: Cl int - Batch Mean (uL/min/mg protein)>


>  <RLM: ER (Hepatic extraction ratio) - Batch Mean>


>  <HLM: t1/2 - Batch Mean (Min)>


>  <HLM: Cl int - Batch Mean (uL/min/mg protein)>


>  <HLM: ER (Hepatic extraction ratio) - Batch Mean>


>  <MDCK-WT 4% BSA: Papp (A-B) - Batch Mean (10-6, cm/s)>


>  <MDCK-WT 4% BSA: Papp (B-A) - Batch Mean (10-6, cm/s)>


>  <MDCK-WT 4% BSA: Efflux Ratio - Batch Mean>


>  <MDCK-WT 4% BSA: ~Net A_B - Batch Mean (10-6, cm/s)>


>  <pIC50>
6.116907

>  <Selection_1>
Y

>  <Selection_N>
N

>  <Serie>
Tetrahydrothienopyridine

>  <Selection_T>


>  <Train_Vs_Test>


$$$$
