CTX-1020744
 OpenBabel08272613283D

 70 75  0  0  0  0  0  0  0  0999 V2000
    1.8142   -0.7298   -0.0404 S   0  0  0  0  0  0  0  0  0  0  0  0
    2.1537    0.9502    0.0344 C   0  0  0  0  0  0  0  0  0  0  0  0
    0.1301   -0.4604   -0.0392 C   0  0  0  0  0  0  0  0  0  0  0  0
    3.5059    1.5333    0.0691 C   0  0  0  0  0  0  0  0  0  0  0  0
    0.9778    1.6865    0.0502 C   0  0  0  0  0  0  0  0  0  0  0  0
   -0.2000    0.8813   -0.0145 C   0  0  0  0  0  0  0  0  0  0  0  0
   -0.8931   -1.5583   -0.0801 C   0  0  0  0  0  0  0  0  0  0  0  0
    3.6923    2.7263    0.1183 O   0  0  0  0  0  0  0  0  0  0  0  0
    4.5695    0.6445    0.0390 N   0  0  0  0  0  0  0  0  0  0  0  0
   -1.6275    1.3817   -0.0015 C   0  0  0  0  0  0  0  0  0  0  0  0
   -2.2529   -0.9824    0.3558 C   0  0  0  0  0  0  0  0  0  0  0  0
    5.9432    1.1135    0.0577 C   0  0  0  0  0  0  0  0  0  0  0  0
   -2.5382    0.2814   -0.3477 N   0  0  0  0  0  0  0  0  0  0  0  0
    6.5564    1.2365    1.4397 C   0  0  0  0  0  0  0  0  0  0  0  0
   -3.5036    0.4632   -1.3480 C   0  0  0  0  0  0  0  0  0  0  0  0
    7.2203    0.1634    2.0226 C   0  0  0  0  0  0  0  0  0  0  0  0
    6.5257    2.4452    2.1553 C   0  0  0  0  0  0  0  0  0  0  0  0
   -3.5759    1.5280   -1.9640 O   0  0  0  0  0  0  0  0  0  0  0  0
   -4.4235   -0.6429   -1.6360 C   0  0  0  0  0  0  0  0  0  0  0  0
    7.8435    0.2838    3.2732 C   0  0  0  0  0  0  0  0  0  0  0  0
    7.2020    2.5781    3.3767 C   0  0  0  0  0  0  0  0  0  0  0  0
   -4.8318   -1.4852   -0.6262 O   0  0  0  0  0  0  0  0  0  0  0  0
   -5.0221   -1.0424   -2.8252 C   0  0  0  0  0  0  0  0  0  0  0  0
    7.8151    1.4907    3.9869 C   0  0  0  0  0  0  0  0  0  0  0  0
   -5.6862   -2.3904   -1.1590 C   0  0  0  0  0  0  0  0  0  0  0  0
   -5.8474   -2.1574   -2.5134 C   0  0  0  0  0  0  0  0  0  0  0  0
   -4.8435   -0.4442   -4.1647 C   0  0  0  0  0  0  0  0  0  0  0  0
    8.2878    1.5535    5.2774 N   0  0  0  0  0  0  0  0  0  0  0  0
   -6.3609   -3.4196   -0.5056 C   0  0  0  0  0  0  0  0  0  0  0  0
   -6.6644   -2.8964   -3.3142 N   0  0  0  0  0  0  0  0  0  0  0  0
    8.8633    2.7620    5.8730 C   0  0  0  0  0  0  0  0  0  0  0  0
    7.8814    0.5036    6.2253 C   0  0  0  0  0  0  0  0  0  0  0  0
   -7.2080   -4.1699   -1.3265 C   0  0  0  0  0  0  0  0  0  0  0  0
   -7.3256   -3.8869   -2.6739 C   0  0  0  0  0  0  0  0  0  0  0  0
   10.0179    2.3534    6.8245 C   0  0  0  0  0  0  0  0  0  0  0  0
    9.0620    0.1767    7.1586 C   0  0  0  0  0  0  0  0  0  0  0  0
    9.5596    1.3850    7.8530 N   0  3  0  0  0  0  0  0  0  0  0  0
   10.6330    1.0437    8.7738 C   0  0  0  0  0  0  0  0  0  0  0  0
    0.9563    2.7169    0.1037 H   0  0  0  0  0  0  0  0  0  0  0  0
   -0.6047   -2.3442    0.5862 H   0  0  0  0  0  0  0  0  0  0  0  0
   -0.9653   -1.9525   -1.0723 H   0  0  0  0  0  0  0  0  0  0  0  0
    4.3897   -0.3228    0.0042 H   0  0  0  0  0  0  0  0  0  0  0  0
   -1.7348    2.1711   -0.7159 H   0  0  0  0  0  0  0  0  0  0  0  0
   -1.8671    1.7477    0.9750 H   0  0  0  0  0  0  0  0  0  0  0  0
   -2.2347   -0.8003    1.4100 H   0  0  0  0  0  0  0  0  0  0  0  0
   -3.0179   -1.6898    0.1122 H   0  0  0  0  0  0  0  0  0  0  0  0
    5.9718    2.0775   -0.4058 H   0  0  0  0  0  0  0  0  0  0  0  0
    6.5193    0.3767   -0.4621 H   0  0  0  0  0  0  0  0  0  0  0  0
    7.2553   -0.7401    1.5251 H   0  0  0  0  0  0  0  0  0  0  0  0
    5.9977    3.2469    1.7766 H   0  0  0  0  0  0  0  0  0  0  0  0
    8.3321   -0.5311    3.6759 H   0  0  0  0  0  0  0  0  0  0  0  0
    7.2452    3.5033    3.8319 H   0  0  0  0  0  0  0  0  0  0  0  0
   -4.1658    0.3812   -4.0992 H   0  0  0  0  0  0  0  0  0  0  0  0
   -5.7886   -0.1016   -4.5312 H   0  0  0  0  0  0  0  0  0  0  0  0
   -4.4468   -1.1792   -4.8335 H   0  0  0  0  0  0  0  0  0  0  0  0
   -6.2447   -3.6122    0.5016 H   0  0  0  0  0  0  0  0  0  0  0  0
    8.1101    3.2835    6.4258 H   0  0  0  0  0  0  0  0  0  0  0  0
    9.2387    3.4021    5.1021 H   0  0  0  0  0  0  0  0  0  0  0  0
    7.5985   -0.3757    5.6852 H   0  0  0  0  0  0  0  0  0  0  0  0
    7.0499    0.8461    6.8052 H   0  0  0  0  0  0  0  0  0  0  0  0
   -7.7534   -4.9462   -0.9203 H   0  0  0  0  0  0  0  0  0  0  0  0
   -7.9645   -4.4744   -3.2322 H   0  0  0  0  0  0  0  0  0  0  0  0
   10.3917    3.2287    7.3133 H   0  0  0  0  0  0  0  0  0  0  0  0
   10.7837    1.8860    6.2413 H   0  0  0  0  0  0  0  0  0  0  0  0
    9.8573   -0.2424    6.5783 H   0  0  0  0  0  0  0  0  0  0  0  0
    8.7211   -0.5173    7.8982 H   0  0  0  0  0  0  0  0  0  0  0  0
    8.8139    1.8041    8.4086 H   0  0  0  0  0  0  0  0  0  0  0  0
   11.4407    0.5987    8.2310 H   0  0  0  0  0  0  0  0  0  0  0  0
   10.2698    0.3511    9.5041 H   0  0  0  0  0  0  0  0  0  0  0  0
   10.9781    1.9302    9.2637 H   0  0  0  0  0  0  0  0  0  0  0  0
  1  2  1  0  0  0  0
  1  3  1  0  0  0  0
  2  4  1  0  0  0  0
  2  5  2  0  0  0  0
  3  6  2  0  0  0  0
  3  7  1  0  0  0  0
  4  8  2  0  0  0  0
  4  9  1  0  0  0  0
  5  6  1  0  0  0  0
  5 39  1  0  0  0  0
  6 10  1  0  0  0  0
  7 11  1  0  0  0  0
  7 40  1  0  0  0  0
  7 41  1  0  0  0  0
  9 12  1  0  0  0  0
  9 42  1  0  0  0  0
 10 13  1  0  0  0  0
 10 43  1  0  0  0  0
 10 44  1  0  0  0  0
 11 13  1  0  0  0  0
 11 45  1  0  0  0  0
 11 46  1  0  0  0  0
 12 14  1  0  0  0  0
 12 47  1  0  0  0  0
 12 48  1  0  0  0  0
 13 15  1  0  0  0  0
 14 16  2  0  0  0  0
 14 17  1  0  0  0  0
 15 18  2  0  0  0  0
 15 19  1  0  0  0  0
 16 20  1  0  0  0  0
 16 49  1  0  0  0  0
 17 21  2  0  0  0  0
 17 50  1  0  0  0  0
 19 22  1  0  0  0  0
 19 23  2  0  0  0  0
 20 24  2  0  0  0  0
 20 51  1  0  0  0  0
 21 24  1  0  0  0  0
 21 52  1  0  0  0  0
 22 25  1  0  0  0  0
 23 26  1  0  0  0  0
 23 27  1  0  0  0  0
 24 28  1  0  0  0  0
 25 29  2  0  0  0  0
 25 26  1  0  0  0  0
 26 30  2  0  0  0  0
 27 53  1  0  0  0  0
 27 54  1  0  0  0  0
 27 55  1  0  0  0  0
 28 31  1  0  0  0  0
 28 32  1  0  0  0  0
 29 33  1  0  0  0  0
 29 56  1  0  0  0  0
 30 34  1  0  0  0  0
 31 35  1  0  0  0  0
 31 57  1  0  0  0  0
 31 58  1  0  0  0  0
 32 36  1  0  0  0  0
 32 59  1  0  0  0  0
 32 60  1  0  0  0  0
 33 34  2  0  0  0  0
 33 61  1  0  0  0  0
 34 62  1  0  0  0  0
 35 37  1  0  0  0  0
 35 63  1  0  0  0  0
 35 64  1  0  0  0  0
 36 37  1  0  0  0  0
 36 65  1  0  0  0  0
 36 66  1  0  0  0  0
 37 38  1  0  0  0  0
 37 67  1  0  0  0  0
 38 68  1  0  0  0  0
 38 69  1  0  0  0  0
 38 70  1  0  0  0  0
M  CHG  1  37   1
M  END
>  <Molecule Name>
CTX-1020744

>  <SMILES>
CN1CCN(CC1)C1=CC=C(CNC(=O)C2=CC3=C(CCN(C3)C(=O)C3=C(C)C4=C(O3)C=CC=N4)S2)C=C1

>  <Batch Name>
CTX-1020744-1

>  <Batch Created Date>
2021-12-16

>  <Batch ID>
CTX-1020744-1

>  <External ID>
P841-0359

>  <Stereochemistry>
Achiral

>  <Amount 1>
4.05

>  <Unit 1>
mg

>  <CRO 1>
Pharmaron

>  <CRO 1 Total Amount>
26.95

>  <CRO 1 Unit>
mg

>  <Pharmaron Solubility (PBS, pH 7.4): Aqueous Solubility - Batch Mean (uM)>
138.1343

>  <Pharmaron Solubility (PBS, pH 7.4): Aqueous Solubility - Batch Mean (uM) Standard Deviation (±)>


>  <Pharmaron Solubility (PBS, pH 7.4): Aqueous Solubility - Batch Mean (uM) Count>
1.0

>  <log P>
3.6

>  <log D>
2.96

>  <Pharmaron Caliper Assay (CDK2/CCNE1): Minimum measured (%)>
47.6

>  <Pharmaron Caliper Assay (CDK2/CCNE1): IC50 - Batch Mean (uM)>
37.4

>  <Pharmaron ADPGLO (CDK2/E1-25C): Minimum measured (%)>


>  <Pharmaron ADPGLO (CDK2/E1-25C): IC50 - Batch Mean (uM)>


>  <Pharmaron ADPGLO (CDK2/E1-37C): Minimum measured (%)>


>  <Pharmaron ADPGLO (CDK2/E1-37C): IC50 - Batch Mean (uM)>


>  <IncuCyte Kuramochi RB-WT: IC50 - Batch Mean (uM)>
20.0

>  <IncuCyte Kuramochi RB-KO: IC50 - Batch Mean (uM)>
20.0

>  <DSF (npCDK2/CCNE1): dTm D - Batch Mean [Concentration: 100]>


>  <DSF (npCDK2/CCNE1): dTm D - Batch Mean [Concentration: 20.0]>
0.04

>  <DSF (pCDK2/CCNE1): dTm D - Batch Mean [Concentration: 100]>


>  <DSF (pCDK2/CCNE1): dTm D - Batch Mean [Concentration: 20.0]>


>  <RLM: t1/2 - Batch Mean (Min)>


>  <RLM: Cl int - Batch Mean (uL/min/mg protein)>


>  <RLM: ER (Hepatic extraction ratio) - Batch Mean>


>  <HLM: t1/2 - Batch Mean (Min)>


>  <HLM: Cl int - Batch Mean (uL/min/mg protein)>


>  <HLM: ER (Hepatic extraction ratio) - Batch Mean>


>  <MDCK-WT 4% BSA: Papp (A-B) - Batch Mean (10-6, cm/s)>


>  <MDCK-WT 4% BSA: Papp (B-A) - Batch Mean (10-6, cm/s)>


>  <MDCK-WT 4% BSA: Efflux Ratio - Batch Mean>


>  <MDCK-WT 4% BSA: ~Net A_B - Batch Mean (10-6, cm/s)>


>  <pIC50>
4.427128

>  <Selection_1>
Y

>  <Selection_N>
N

>  <Serie>
Tetrahydrothienopyridine

>  <Selection_T>


>  <Train_Vs_Test>


$$$$
