CTX-1020742
 OpenBabel08272613283D

 70 75  0  0  0  0  0  0  0  0999 V2000
    7.4697   10.4715   -0.3702 S   0  0  0  0  0  0  0  0  0  0  0  0
    9.0380    9.8444   -0.6646 C   0  0  0  0  0  0  0  0  0  0  0  0
    8.0050   12.1323   -0.2865 C   0  0  0  0  0  0  0  0  0  0  0  0
    9.9472   10.9326   -0.8449 C   0  0  0  0  0  0  0  0  0  0  0  0
    9.5207    8.5917   -0.0414 C   0  0  0  0  0  0  0  0  0  0  0  0
    9.3621   12.2355   -0.5828 C   0  0  0  0  0  0  0  0  0  0  0  0
    7.2718   13.2826    0.0502 C   0  0  0  0  0  0  0  0  0  0  0  0
   11.4607   10.8384   -0.9327 C   0  0  0  0  0  0  0  0  0  0  0  0
   10.3544    8.9197    0.8266 O   0  0  0  0  0  0  0  0  0  0  0  0
    9.3654    7.1179   -0.2131 N   0  0  0  0  0  0  0  0  0  0  0  0
    9.9782   13.5112   -0.4816 C   0  0  0  0  0  0  0  0  0  0  0  0
    7.8661   14.5027    0.0776 N   0  0  0  0  0  0  0  0  0  0  0  0
    8.4225    5.9257   -0.8805 C   0  0  0  0  0  0  0  0  0  0  0  0
   10.6220    6.6128    0.2825 C   0  0  0  0  0  0  0  0  0  0  0  0
    9.1834   14.5927   -0.1625 C   0  0  0  0  0  0  0  0  0  0  0  0
    8.9165    4.3925   -0.4558 C   0  0  0  0  0  0  0  0  0  0  0  0
   10.6863    5.3063    0.9562 C   0  0  0  0  0  0  0  0  0  0  0  0
    9.6936    4.3163    0.6570 C   0  0  0  0  0  0  0  0  0  0  0  0
    9.0934    2.9825   -1.0182 C   0  0  0  0  0  0  0  0  0  0  0  0
    9.9368    2.7819    1.3313 S   0  0  0  0  0  0  0  0  0  0  0  0
   10.1088    2.2648   -0.2980 C   0  0  0  0  0  0  0  0  0  0  0  0
   11.1523    1.2298   -0.4853 C   0  0  0  0  0  0  0  0  0  0  0  0
   10.9341    0.0526   -0.7921 O   0  0  0  0  0  0  0  0  0  0  0  0
   12.4504    1.7030   -0.2037 N   0  0  0  0  0  0  0  0  0  0  0  0
   13.6581    0.9027    0.0256 C   0  0  0  0  0  0  0  0  0  0  0  0
   14.7660    1.7375    0.6926 C   0  0  0  0  0  0  0  0  0  0  0  0
   14.9218    1.7657    2.0793 C   0  0  0  0  0  0  0  0  0  0  0  0
   15.7509    2.4289   -0.0682 C   0  0  0  0  0  0  0  0  0  0  0  0
   15.9103    2.5683    2.7105 C   0  0  0  0  0  0  0  0  0  0  0  0
   16.7264    3.2155    0.5842 C   0  0  0  0  0  0  0  0  0  0  0  0
   16.7914    3.3889    1.9796 C   0  0  0  0  0  0  0  0  0  0  0  0
   17.6478    4.2867    2.6049 N   0  0  0  0  0  0  0  0  0  0  0  0
   18.2636    4.0855    3.9351 C   0  0  0  0  0  0  0  0  0  0  0  0
   18.1144    5.5118    1.9236 C   0  0  0  0  0  0  0  0  0  0  0  0
   18.1166    5.3586    4.8117 C   0  0  0  0  0  0  0  0  0  0  0  0
   17.9952    6.7470    2.8593 C   0  0  0  0  0  0  0  0  0  0  0  0
   18.6829    6.5588    4.1548 N   0  3  0  0  0  0  0  0  0  0  0  0
   18.5420    7.7421    5.0014 C   0  0  0  0  0  0  0  0  0  0  0  0
    6.2690   13.1989    0.2794 H   0  0  0  0  0  0  0  0  0  0  0  0
   11.7443    9.8254   -1.1285 H   0  0  0  0  0  0  0  0  0  0  0  0
   11.8922   11.1570   -0.0069 H   0  0  0  0  0  0  0  0  0  0  0  0
   11.8118   11.4665   -1.7247 H   0  0  0  0  0  0  0  0  0  0  0  0
   10.9912   13.6258   -0.6421 H   0  0  0  0  0  0  0  0  0  0  0  0
    8.4638    6.0146   -1.9460 H   0  0  0  0  0  0  0  0  0  0  0  0
    7.4283    6.0570   -0.5074 H   0  0  0  0  0  0  0  0  0  0  0  0
   10.9899    7.3361    0.9799 H   0  0  0  0  0  0  0  0  0  0  0  0
   11.1869    6.4514   -0.6118 H   0  0  0  0  0  0  0  0  0  0  0  0
    9.6265   15.5229   -0.1052 H   0  0  0  0  0  0  0  0  0  0  0  0
   10.6338    5.4940    2.0083 H   0  0  0  0  0  0  0  0  0  0  0  0
   11.5946    4.8752    0.5899 H   0  0  0  0  0  0  0  0  0  0  0  0
    8.5552    2.5970   -1.8099 H   0  0  0  0  0  0  0  0  0  0  0  0
   12.5583    2.6804   -0.1556 H   0  0  0  0  0  0  0  0  0  0  0  0
   14.0162    0.5357   -0.9135 H   0  0  0  0  0  0  0  0  0  0  0  0
   13.4069    0.0931    0.6785 H   0  0  0  0  0  0  0  0  0  0  0  0
   14.3000    1.1858    2.6643 H   0  0  0  0  0  0  0  0  0  0  0  0
   15.7522    2.3554   -1.0976 H   0  0  0  0  0  0  0  0  0  0  0  0
   15.9851    2.5493    3.7396 H   0  0  0  0  0  0  0  0  0  0  0  0
   17.4339    3.6915    0.0028 H   0  0  0  0  0  0  0  0  0  0  0  0
   19.3030    3.8642    3.8102 H   0  0  0  0  0  0  0  0  0  0  0  0
   17.7651    3.2745    4.4236 H   0  0  0  0  0  0  0  0  0  0  0  0
   17.5185    5.6753    1.0501 H   0  0  0  0  0  0  0  0  0  0  0  0
   19.1425    5.3836    1.6564 H   0  0  0  0  0  0  0  0  0  0  0  0
   18.6274    5.1997    5.7384 H   0  0  0  0  0  0  0  0  0  0  0  0
   17.0721    5.5313    4.9673 H   0  0  0  0  0  0  0  0  0  0  0  0
   16.9585    6.9335    3.0475 H   0  0  0  0  0  0  0  0  0  0  0  0
   18.4656    7.5705    2.3638 H   0  0  0  0  0  0  0  0  0  0  0  0
   19.6821    6.4252    3.9995 H   0  0  0  0  0  0  0  0  0  0  0  0
   17.5048    7.9227    5.1923 H   0  0  0  0  0  0  0  0  0  0  0  0
   18.9659    8.5892    4.5037 H   0  0  0  0  0  0  0  0  0  0  0  0
   19.0523    7.5806    5.9279 H   0  0  0  0  0  0  0  0  0  0  0  0
  1  2  1  0  0  0  0
  1  3  1  0  0  0  0
  2  4  2  0  0  0  0
  2  5  1  0  0  0  0
  3  6  2  0  0  0  0
  3  7  1  0  0  0  0
  4  8  1  0  0  0  0
  4  6  1  0  0  0  0
  5  9  2  0  0  0  0
  5 10  1  0  0  0  0
  6 11  1  0  0  0  0
  7 12  2  0  0  0  0
  7 39  1  0  0  0  0
  8 40  1  0  0  0  0
  8 41  1  0  0  0  0
  8 42  1  0  0  0  0
 10 13  1  0  0  0  0
 10 14  1  0  0  0  0
 11 15  2  0  0  0  0
 11 43  1  0  0  0  0
 12 15  1  0  0  0  0
 13 16  1  0  0  0  0
 13 44  1  0  0  0  0
 13 45  1  0  0  0  0
 14 17  1  0  0  0  0
 14 46  1  0  0  0  0
 14 47  1  0  0  0  0
 15 48  1  0  0  0  0
 16 18  2  0  0  0  0
 16 19  1  0  0  0  0
 17 18  1  0  0  0  0
 17 49  1  0  0  0  0
 17 50  1  0  0  0  0
 18 20  1  0  0  0  0
 19 21  2  0  0  0  0
 19 51  1  0  0  0  0
 20 21  1  0  0  0  0
 21 22  1  0  0  0  0
 22 23  2  0  0  0  0
 22 24  1  0  0  0  0
 24 25  1  0  0  0  0
 24 52  1  0  0  0  0
 25 26  1  0  0  0  0
 25 53  1  0  0  0  0
 25 54  1  0  0  0  0
 26 27  2  0  0  0  0
 26 28  1  0  0  0  0
 27 29  1  0  0  0  0
 27 55  1  0  0  0  0
 28 30  2  0  0  0  0
 28 56  1  0  0  0  0
 29 31  2  0  0  0  0
 29 57  1  0  0  0  0
 30 31  1  0  0  0  0
 30 58  1  0  0  0  0
 31 32  1  0  0  0  0
 32 33  1  0  0  0  0
 32 34  1  0  0  0  0
 33 35  1  0  0  0  0
 33 59  1  0  0  0  0
 33 60  1  0  0  0  0
 34 36  1  0  0  0  0
 34 61  1  0  0  0  0
 34 62  1  0  0  0  0
 35 37  1  0  0  0  0
 35 63  1  0  0  0  0
 35 64  1  0  0  0  0
 36 37  1  0  0  0  0
 36 65  1  0  0  0  0
 36 66  1  0  0  0  0
 37 38  1  0  0  0  0
 37 67  1  0  0  0  0
 38 68  1  0  0  0  0
 38 69  1  0  0  0  0
 38 70  1  0  0  0  0
M  CHG  1  37   1
M  END
>  <Molecule Name>
CTX-1020742

>  <SMILES>
CN1CCN(CC1)C1=CC=C(CNC(=O)C2=CC3=C(CCN(C3)C(=O)C3=C(C)C4=C(S3)C=NC=C4)S2)C=C1

>  <Batch Name>
CTX-1020742-1

>  <Batch Created Date>
2021-12-16

>  <Batch ID>
CTX-1020742-1

>  <External ID>
P841-0357

>  <Stereochemistry>
Achiral

>  <Amount 1>
5.1

>  <Unit 1>
mg

>  <CRO 1>
Pharmaron

>  <CRO 1 Total Amount>
39.3

>  <CRO 1 Unit>
mg

>  <Pharmaron Solubility (PBS, pH 7.4): Aqueous Solubility - Batch Mean (uM)>
130.015

>  <Pharmaron Solubility (PBS, pH 7.4): Aqueous Solubility - Batch Mean (uM) Standard Deviation (±)>


>  <Pharmaron Solubility (PBS, pH 7.4): Aqueous Solubility - Batch Mean (uM) Count>
1.0

>  <log P>
4.14

>  <log D>
3.51

>  <Pharmaron Caliper Assay (CDK2/CCNE1): Minimum measured (%)>
28.2

>  <Pharmaron Caliper Assay (CDK2/CCNE1): IC50 - Batch Mean (uM)>
11.1

>  <Pharmaron ADPGLO (CDK2/E1-25C): Minimum measured (%)>


>  <Pharmaron ADPGLO (CDK2/E1-25C): IC50 - Batch Mean (uM)>


>  <Pharmaron ADPGLO (CDK2/E1-37C): Minimum measured (%)>


>  <Pharmaron ADPGLO (CDK2/E1-37C): IC50 - Batch Mean (uM)>


>  <IncuCyte Kuramochi RB-WT: IC50 - Batch Mean (uM)>
20.0

>  <IncuCyte Kuramochi RB-KO: IC50 - Batch Mean (uM)>
20.0

>  <DSF (npCDK2/CCNE1): dTm D - Batch Mean [Concentration: 100]>


>  <DSF (npCDK2/CCNE1): dTm D - Batch Mean [Concentration: 20.0]>
0.775

>  <DSF (pCDK2/CCNE1): dTm D - Batch Mean [Concentration: 100]>


>  <DSF (pCDK2/CCNE1): dTm D - Batch Mean [Concentration: 20.0]>


>  <RLM: t1/2 - Batch Mean (Min)>


>  <RLM: Cl int - Batch Mean (uL/min/mg protein)>


>  <RLM: ER (Hepatic extraction ratio) - Batch Mean>


>  <HLM: t1/2 - Batch Mean (Min)>


>  <HLM: Cl int - Batch Mean (uL/min/mg protein)>


>  <HLM: ER (Hepatic extraction ratio) - Batch Mean>


>  <MDCK-WT 4% BSA: Papp (A-B) - Batch Mean (10-6, cm/s)>


>  <MDCK-WT 4% BSA: Papp (B-A) - Batch Mean (10-6, cm/s)>


>  <MDCK-WT 4% BSA: Efflux Ratio - Batch Mean>


>  <MDCK-WT 4% BSA: ~Net A_B - Batch Mean (10-6, cm/s)>


>  <pIC50>
4.954677

>  <Selection_1>
Y

>  <Selection_N>
N

>  <Serie>
Tetrahydrothienopyridine

>  <Selection_T>


>  <Train_Vs_Test>


$$$$
