CTX-1020748
 OpenBabel08272613283D

 72 77  0  0  0  0  0  0  0  0999 V2000
    4.8312   -2.7503   -2.9041 Cl  0  0  0  0  0  0  0  0  0  0  0  0
    4.0911   -1.6958   -1.7696 C   0  0  0  0  0  0  0  0  0  0  0  0
    3.9093   -1.9426   -0.3918 C   0  0  0  0  0  0  0  0  0  0  0  0
    3.5675   -0.4038   -2.1613 C   0  0  0  0  0  0  0  0  0  0  0  0
    3.2108   -0.7711    0.0149 N   0  0  0  0  0  0  0  0  0  0  0  0
    4.3383   -3.1702    0.5182 C   0  0  0  0  0  0  0  0  0  0  0  0
    3.0133    0.1623   -1.0213 C   0  0  0  0  0  0  0  0  0  0  0  0
    3.4905    0.3691   -3.3675 C   0  0  0  0  0  0  0  0  0  0  0  0
    2.6401   -0.4539    1.3132 C   0  0  0  0  0  0  0  0  0  0  0  0
    4.3813   -3.0560    1.7392 O   0  0  0  0  0  0  0  0  0  0  0  0
    4.4022   -4.5296   -0.0741 N   0  0  0  0  0  0  0  0  0  0  0  0
    2.3876    1.4452   -1.0315 C   0  0  0  0  0  0  0  0  0  0  0  0
    2.8852    1.6582   -3.3790 C   0  0  0  0  0  0  0  0  0  0  0  0
    5.1686   -5.9391    0.4399 C   0  0  0  0  0  0  0  0  0  0  0  0
    3.0533   -4.7385   -0.4547 C   0  0  0  0  0  0  0  0  0  0  0  0
    2.3377    2.1648   -2.2245 C   0  0  0  0  0  0  0  0  0  0  0  0
    4.3833   -7.3475    0.0202 C   0  0  0  0  0  0  0  0  0  0  0  0
    2.8145   -5.9299   -1.3282 C   0  0  0  0  0  0  0  0  0  0  0  0
    3.4717   -7.2327   -0.9874 C   0  0  0  0  0  0  0  0  0  0  0  0
    4.2167   -8.7906    0.4600 C   0  0  0  0  0  0  0  0  0  0  0  0
    2.7626   -8.6465   -1.5992 S   0  0  0  0  0  0  0  0  0  0  0  0
    2.9958   -9.3382   -0.0487 C   0  0  0  0  0  0  0  0  0  0  0  0
    1.9355  -10.2530    0.3805 C   0  0  0  0  0  0  0  0  0  0  0  0
    1.9700  -11.4411    0.2749 O   0  0  0  0  0  0  0  0  0  0  0  0
    0.7354   -9.6301    0.8366 N   0  0  0  0  0  0  0  0  0  0  0  0
    0.5251   -8.2073    0.9880 C   0  0  0  0  0  0  0  0  0  0  0  0
   -0.4525   -7.8374    2.0688 C   0  0  0  0  0  0  0  0  0  0  0  0
   -0.0770   -7.9269    3.4261 C   0  0  0  0  0  0  0  0  0  0  0  0
   -1.7262   -7.3521    1.7796 C   0  0  0  0  0  0  0  0  0  0  0  0
   -0.9603   -7.5799    4.4326 C   0  0  0  0  0  0  0  0  0  0  0  0
   -2.6051   -7.0054    2.8171 C   0  0  0  0  0  0  0  0  0  0  0  0
   -2.2486   -7.1516    4.1642 C   0  0  0  0  0  0  0  0  0  0  0  0
   -3.1642   -6.9301    5.1909 N   0  0  0  0  0  0  0  0  0  0  0  0
   -2.7568   -6.3882    6.4886 C   0  0  0  0  0  0  0  0  0  0  0  0
   -4.5931   -7.1271    4.9853 C   0  0  0  0  0  0  0  0  0  0  0  0
   -3.4120   -7.1947    7.6302 C   0  0  0  0  0  0  0  0  0  0  0  0
   -5.2168   -7.8713    6.1879 C   0  0  0  0  0  0  0  0  0  0  0  0
   -4.8813   -7.2318    7.4825 N   0  3  0  0  0  0  0  0  0  0  0  0
   -5.5008   -7.9418    8.5954 C   0  0  0  0  0  0  0  0  0  0  0  0
    3.8805   -0.0157   -4.2421 H   0  0  0  0  0  0  0  0  0  0  0  0
    2.8629   -1.2411    2.0027 H   0  0  0  0  0  0  0  0  0  0  0  0
    1.5791   -0.3504    1.2207 H   0  0  0  0  0  0  0  0  0  0  0  0
    3.0580    0.4635    1.6720 H   0  0  0  0  0  0  0  0  0  0  0  0
    1.9778    1.8344   -0.1681 H   0  0  0  0  0  0  0  0  0  0  0  0
    2.8577    2.2097   -4.2508 H   0  0  0  0  0  0  0  0  0  0  0  0
    5.2478   -5.9061    1.5064 H   0  0  0  0  0  0  0  0  0  0  0  0
    6.1191   -5.9639   -0.0508 H   0  0  0  0  0  0  0  0  0  0  0  0
    2.7198   -3.8693   -0.9821 H   0  0  0  0  0  0  0  0  0  0  0  0
    2.5143   -4.9221    0.4512 H   0  0  0  0  0  0  0  0  0  0  0  0
    1.8833    3.0912   -2.2410 H   0  0  0  0  0  0  0  0  0  0  0  0
    3.1386   -5.6650   -2.3129 H   0  0  0  0  0  0  0  0  0  0  0  0
    1.7713   -6.1317   -1.2019 H   0  0  0  0  0  0  0  0  0  0  0  0
    4.8916   -9.3067    1.0459 H   0  0  0  0  0  0  0  0  0  0  0  0
   -0.0164  -10.2217    1.0689 H   0  0  0  0  0  0  0  0  0  0  0  0
    0.1593   -7.8220    0.0592 H   0  0  0  0  0  0  0  0  0  0  0  0
    1.4675   -7.7868    1.2706 H   0  0  0  0  0  0  0  0  0  0  0  0
    0.8699   -8.2559    3.6714 H   0  0  0  0  0  0  0  0  0  0  0  0
   -2.0248   -7.2472    0.7973 H   0  0  0  0  0  0  0  0  0  0  0  0
   -0.6488   -7.6424    5.4144 H   0  0  0  0  0  0  0  0  0  0  0  0
   -3.5383   -6.6330    2.5817 H   0  0  0  0  0  0  0  0  0  0  0  0
   -3.0633   -5.3653    6.5569 H   0  0  0  0  0  0  0  0  0  0  0  0
   -1.6927   -6.4564    6.5779 H   0  0  0  0  0  0  0  0  0  0  0  0
   -4.7446   -7.7043    4.0972 H   0  0  0  0  0  0  0  0  0  0  0  0
   -5.0635   -6.1708    4.8891 H   0  0  0  0  0  0  0  0  0  0  0  0
   -3.1666   -6.7375    8.5660 H   0  0  0  0  0  0  0  0  0  0  0  0
   -3.0420   -8.1980    7.5921 H   0  0  0  0  0  0  0  0  0  0  0  0
   -4.8519   -8.8772    6.1966 H   0  0  0  0  0  0  0  0  0  0  0  0
   -6.2803   -7.8417    6.0747 H   0  0  0  0  0  0  0  0  0  0  0  0
   -5.2474   -6.2798    7.4933 H   0  0  0  0  0  0  0  0  0  0  0  0
   -5.1418   -8.9494    8.6198 H   0  0  0  0  0  0  0  0  0  0  0  0
   -6.5634   -7.9447    8.4694 H   0  0  0  0  0  0  0  0  0  0  0  0
   -5.2519   -7.4521    9.5137 H   0  0  0  0  0  0  0  0  0  0  0  0
  1  2  1  0  0  0  0
  2  3  2  0  0  0  0
  2  4  1  0  0  0  0
  3  5  1  0  0  0  0
  3  6  1  0  0  0  0
  4  7  2  0  0  0  0
  4  8  1  0  0  0  0
  5  9  1  0  0  0  0
  5  7  1  0  0  0  0
  6 10  2  0  0  0  0
  6 11  1  0  0  0  0
  7 12  1  0  0  0  0
  8 13  2  0  0  0  0
  8 40  1  0  0  0  0
  9 41  1  0  0  0  0
  9 42  1  0  0  0  0
  9 43  1  0  0  0  0
 11 14  1  0  0  0  0
 11 15  1  0  0  0  0
 12 16  2  0  0  0  0
 12 44  1  0  0  0  0
 13 16  1  0  0  0  0
 13 45  1  0  0  0  0
 14 17  1  0  0  0  0
 14 46  1  0  0  0  0
 14 47  1  0  0  0  0
 15 18  1  0  0  0  0
 15 48  1  0  0  0  0
 15 49  1  0  0  0  0
 16 50  1  0  0  0  0
 17 19  2  0  0  0  0
 17 20  1  0  0  0  0
 18 19  1  0  0  0  0
 18 51  1  0  0  0  0
 18 52  1  0  0  0  0
 19 21  1  0  0  0  0
 20 22  2  0  0  0  0
 20 53  1  0  0  0  0
 21 22  1  0  0  0  0
 22 23  1  0  0  0  0
 23 24  2  0  0  0  0
 23 25  1  0  0  0  0
 25 26  1  0  0  0  0
 25 54  1  0  0  0  0
 26 27  1  0  0  0  0
 26 55  1  0  0  0  0
 26 56  1  0  0  0  0
 27 28  2  0  0  0  0
 27 29  1  0  0  0  0
 28 30  1  0  0  0  0
 28 57  1  0  0  0  0
 29 31  2  0  0  0  0
 29 58  1  0  0  0  0
 30 32  2  0  0  0  0
 30 59  1  0  0  0  0
 31 32  1  0  0  0  0
 31 60  1  0  0  0  0
 32 33  1  0  0  0  0
 33 34  1  0  0  0  0
 33 35  1  0  0  0  0
 34 36  1  0  0  0  0
 34 61  1  0  0  0  0
 34 62  1  0  0  0  0
 35 37  1  0  0  0  0
 35 63  1  0  0  0  0
 35 64  1  0  0  0  0
 36 38  1  0  0  0  0
 36 65  1  0  0  0  0
 36 66  1  0  0  0  0
 37 38  1  0  0  0  0
 37 67  1  0  0  0  0
 37 68  1  0  0  0  0
 38 39  1  0  0  0  0
 38 69  1  0  0  0  0
 39 70  1  0  0  0  0
 39 71  1  0  0  0  0
 39 72  1  0  0  0  0
M  CHG  1  38   1
M  END
>  <Molecule Name>
CTX-1020748

>  <SMILES>
CN1C2=C(C=CC=C2)C(Cl)=C1C(=O)N1CCC2=C(C1)C=C(S2)C(=O)NCC1=CC=C(C=C1)N1CCN(C)CC1

>  <Batch Name>
CTX-1020748-1

>  <Batch Created Date>
2021-12-16

>  <Batch ID>
CTX-1020748-1

>  <External ID>
P841-0362

>  <Stereochemistry>
Achiral

>  <Amount 1>
4.7

>  <Unit 1>
mg

>  <CRO 1>
Pharmaron

>  <CRO 1 Total Amount>
22.05

>  <CRO 1 Unit>
mg

>  <Pharmaron Solubility (PBS, pH 7.4): Aqueous Solubility - Batch Mean (uM)>
0.1867

>  <Pharmaron Solubility (PBS, pH 7.4): Aqueous Solubility - Batch Mean (uM) Standard Deviation (±)>


>  <Pharmaron Solubility (PBS, pH 7.4): Aqueous Solubility - Batch Mean (uM) Count>
1.0

>  <log P>
4.68

>  <log D>
4.05

>  <Pharmaron Caliper Assay (CDK2/CCNE1): Minimum measured (%)>
56.6

>  <Pharmaron Caliper Assay (CDK2/CCNE1): IC50 - Batch Mean (uM)>
2.78

>  <Pharmaron ADPGLO (CDK2/E1-25C): Minimum measured (%)>


>  <Pharmaron ADPGLO (CDK2/E1-25C): IC50 - Batch Mean (uM)>


>  <Pharmaron ADPGLO (CDK2/E1-37C): Minimum measured (%)>


>  <Pharmaron ADPGLO (CDK2/E1-37C): IC50 - Batch Mean (uM)>


>  <IncuCyte Kuramochi RB-WT: IC50 - Batch Mean (uM)>
9.28

>  <IncuCyte Kuramochi RB-KO: IC50 - Batch Mean (uM)>
8.69

>  <DSF (npCDK2/CCNE1): dTm D - Batch Mean [Concentration: 100]>


>  <DSF (npCDK2/CCNE1): dTm D - Batch Mean [Concentration: 20.0]>
1.143

>  <DSF (pCDK2/CCNE1): dTm D - Batch Mean [Concentration: 100]>


>  <DSF (pCDK2/CCNE1): dTm D - Batch Mean [Concentration: 20.0]>


>  <RLM: t1/2 - Batch Mean (Min)>


>  <RLM: Cl int - Batch Mean (uL/min/mg protein)>


>  <RLM: ER (Hepatic extraction ratio) - Batch Mean>


>  <HLM: t1/2 - Batch Mean (Min)>


>  <HLM: Cl int - Batch Mean (uL/min/mg protein)>


>  <HLM: ER (Hepatic extraction ratio) - Batch Mean>


>  <MDCK-WT 4% BSA: Papp (A-B) - Batch Mean (10-6, cm/s)>


>  <MDCK-WT 4% BSA: Papp (B-A) - Batch Mean (10-6, cm/s)>


>  <MDCK-WT 4% BSA: Efflux Ratio - Batch Mean>


>  <MDCK-WT 4% BSA: ~Net A_B - Batch Mean (10-6, cm/s)>


>  <pIC50>
5.555955

>  <Selection_1>
Y

>  <Selection_N>
N

>  <Serie>
Tetrahydrothienopyridine

>  <Selection_T>


>  <Train_Vs_Test>


$$$$
