CTX-1020746
 OpenBabel08272613283D

 71 76  0  0  0  0  0  0  0  0999 V2000
    1.4845   -0.1546    0.6175 O   0  0  0  0  0  0  0  0  0  0  0  0
    2.3498   -0.8974    0.1465 C   0  0  0  0  0  0  0  0  0  0  0  0
    3.0475   -0.5216   -1.0186 N   0  0  0  0  0  0  0  0  0  0  0  0
    2.6228   -2.2106    0.7404 C   0  0  0  0  0  0  0  0  0  0  0  0
    4.3453   -1.1430   -1.3322 C   0  0  0  0  0  0  0  0  0  0  0  0
    2.5758    0.6915   -1.7235 C   0  0  0  0  0  0  0  0  0  0  0  0
    3.3187   -3.1494   -0.0040 O   0  0  0  0  0  0  0  0  0  0  0  0
    1.8607   -2.9876    1.6251 C   0  0  0  0  0  0  0  0  0  0  0  0
    4.9598   -0.6517   -2.5687 C   0  0  0  0  0  0  0  0  0  0  0  0
    3.2329    1.1143   -3.0694 C   0  0  0  0  0  0  0  0  0  0  0  0
    3.1917   -4.3343    0.6325 C   0  0  0  0  0  0  0  0  0  0  0  0
    2.7756   -4.0474    1.9189 C   0  0  0  0  0  0  0  0  0  0  0  0
    0.4358   -3.2308    1.1287 C   0  0  0  0  0  0  0  0  0  0  0  0
    6.0676   -1.2243   -3.1376 N   0  0  0  0  0  0  0  0  0  0  0  0
    4.4484    0.3321   -3.3629 C   0  0  0  0  0  0  0  0  0  0  0  0
    3.6162   -5.5862    0.2147 C   0  0  0  0  0  0  0  0  0  0  0  0
    3.2796   -4.8932    2.9226 C   0  0  0  0  0  0  0  0  0  0  0  0
    6.2259   -0.6138   -4.2957 C   0  0  0  0  0  0  0  0  0  0  0  0
    5.2536    0.3735   -4.4625 N   0  0  0  0  0  0  0  0  0  0  0  0
    4.5920   -5.9308    1.1403 C   0  0  0  0  0  0  0  0  0  0  0  0
    4.1846   -5.8909    2.4803 C   0  0  0  0  0  0  0  0  0  0  0  0
    7.2821   -0.9493   -5.2268 C   0  0  0  0  0  0  0  0  0  0  0  0
    7.4066   -0.3891   -6.3296 O   0  0  0  0  0  0  0  0  0  0  0  0
    8.1050   -1.9583   -4.7870 N   0  0  0  0  0  0  0  0  0  0  0  0
    9.1537   -2.5588   -5.5795 C   0  0  0  0  0  0  0  0  0  0  0  0
   10.4881   -2.5030   -4.8872 C   0  0  0  0  0  0  0  0  0  0  0  0
   10.9264   -3.5343   -4.0502 C   0  0  0  0  0  0  0  0  0  0  0  0
   11.3335   -1.4042   -5.0585 C   0  0  0  0  0  0  0  0  0  0  0  0
   12.1761   -3.4563   -3.4144 C   0  0  0  0  0  0  0  0  0  0  0  0
   12.5791   -1.3374   -4.4156 C   0  0  0  0  0  0  0  0  0  0  0  0
   13.0341   -2.3560   -3.5596 C   0  0  0  0  0  0  0  0  0  0  0  0
   14.2128   -2.2581   -2.8551 N   0  0  0  0  0  0  0  0  0  0  0  0
   15.0638   -3.4239   -2.5501 C   0  0  0  0  0  0  0  0  0  0  0  0
   14.8569   -0.9656   -2.5714 C   0  0  0  0  0  0  0  0  0  0  0  0
   15.5603   -3.3430   -1.0856 C   0  0  0  0  0  0  0  0  0  0  0  0
   15.3859   -0.9445   -1.1145 C   0  0  0  0  0  0  0  0  0  0  0  0
   16.2868   -2.0806   -0.8149 N   0  3  0  0  0  0  0  0  0  0  0  0
   16.7482   -2.0284    0.5690 C   0  0  0  0  0  0  0  0  0  0  0  0
    4.1985   -2.1987   -1.4262 H   0  0  0  0  0  0  0  0  0  0  0  0
    5.0107   -0.8880   -0.5341 H   0  0  0  0  0  0  0  0  0  0  0  0
    2.7025    1.5108   -1.0471 H   0  0  0  0  0  0  0  0  0  0  0  0
    1.5756    0.4380   -2.0070 H   0  0  0  0  0  0  0  0  0  0  0  0
    3.4940    2.1505   -3.0154 H   0  0  0  0  0  0  0  0  0  0  0  0
    2.5268    0.9323   -3.8525 H   0  0  0  0  0  0  0  0  0  0  0  0
   -0.0548   -2.2918    0.9787 H   0  0  0  0  0  0  0  0  0  0  0  0
   -0.1025   -3.8023    1.8556 H   0  0  0  0  0  0  0  0  0  0  0  0
    0.4672   -3.7685    0.2041 H   0  0  0  0  0  0  0  0  0  0  0  0
    3.2845   -6.1337   -0.5948 H   0  0  0  0  0  0  0  0  0  0  0  0
    3.0092   -4.7946    3.9136 H   0  0  0  0  0  0  0  0  0  0  0  0
    5.1656    0.9845   -5.2295 H   0  0  0  0  0  0  0  0  0  0  0  0
    5.5491   -6.1973    0.8613 H   0  0  0  0  0  0  0  0  0  0  0  0
    4.5447   -6.5906    3.1480 H   0  0  0  0  0  0  0  0  0  0  0  0
    7.9712   -2.2943   -3.8714 H   0  0  0  0  0  0  0  0  0  0  0  0
    9.2257   -2.0355   -6.5100 H   0  0  0  0  0  0  0  0  0  0  0  0
    8.9039   -3.5880   -5.7313 H   0  0  0  0  0  0  0  0  0  0  0  0
   10.3261   -4.3599   -3.8985 H   0  0  0  0  0  0  0  0  0  0  0  0
   11.0364   -0.6272   -5.6692 H   0  0  0  0  0  0  0  0  0  0  0  0
   12.4759   -4.2413   -2.8153 H   0  0  0  0  0  0  0  0  0  0  0  0
   13.1805   -0.5143   -4.5763 H   0  0  0  0  0  0  0  0  0  0  0  0
   15.9057   -3.4314   -3.2105 H   0  0  0  0  0  0  0  0  0  0  0  0
   14.4946   -4.3204   -2.6809 H   0  0  0  0  0  0  0  0  0  0  0  0
   14.1437   -0.1785   -2.7008 H   0  0  0  0  0  0  0  0  0  0  0  0
   15.6770   -0.8269   -3.2446 H   0  0  0  0  0  0  0  0  0  0  0  0
   16.2169   -4.1666   -0.8974 H   0  0  0  0  0  0  0  0  0  0  0  0
   14.7045   -3.3760   -0.4442 H   0  0  0  0  0  0  0  0  0  0  0  0
   14.5507   -0.9851   -0.4469 H   0  0  0  0  0  0  0  0  0  0  0  0
   15.9503   -0.0441   -0.9897 H   0  0  0  0  0  0  0  0  0  0  0  0
   17.1138   -2.0287   -1.4096 H   0  0  0  0  0  0  0  0  0  0  0  0
   15.9066   -2.0805    1.2278 H   0  0  0  0  0  0  0  0  0  0  0  0
   17.2749   -1.1120    0.7351 H   0  0  0  0  0  0  0  0  0  0  0  0
   17.4012   -2.8546    0.7587 H   0  0  0  0  0  0  0  0  0  0  0  0
  1  2  2  0  0  0  0
  2  3  1  0  0  0  0
  2  4  1  0  0  0  0
  3  5  1  0  0  0  0
  3  6  1  0  0  0  0
  4  7  1  0  0  0  0
  4  8  2  0  0  0  0
  5  9  1  0  0  0  0
  5 39  1  0  0  0  0
  5 40  1  0  0  0  0
  6 10  1  0  0  0  0
  6 41  1  0  0  0  0
  6 42  1  0  0  0  0
  7 11  1  0  0  0  0
  8 12  1  0  0  0  0
  8 13  1  0  0  0  0
  9 14  1  0  0  0  0
  9 15  2  0  0  0  0
 10 15  1  0  0  0  0
 10 43  1  0  0  0  0
 10 44  1  0  0  0  0
 11 16  2  0  0  0  0
 11 12  1  0  0  0  0
 12 17  2  0  0  0  0
 13 45  1  0  0  0  0
 13 46  1  0  0  0  0
 13 47  1  0  0  0  0
 14 18  2  0  0  0  0
 15 19  1  0  0  0  0
 16 20  1  0  0  0  0
 16 48  1  0  0  0  0
 17 21  1  0  0  0  0
 17 49  1  0  0  0  0
 18 22  1  0  0  0  0
 18 19  1  0  0  0  0
 19 50  1  0  0  0  0
 20 21  2  0  0  0  0
 20 51  1  0  0  0  0
 21 52  1  0  0  0  0
 22 23  2  0  0  0  0
 22 24  1  0  0  0  0
 24 25  1  0  0  0  0
 24 53  1  0  0  0  0
 25 26  1  0  0  0  0
 25 54  1  0  0  0  0
 25 55  1  0  0  0  0
 26 27  2  0  0  0  0
 26 28  1  0  0  0  0
 27 29  1  0  0  0  0
 27 56  1  0  0  0  0
 28 30  2  0  0  0  0
 28 57  1  0  0  0  0
 29 31  2  0  0  0  0
 29 58  1  0  0  0  0
 30 31  1  0  0  0  0
 30 59  1  0  0  0  0
 31 32  1  0  0  0  0
 32 33  1  0  0  0  0
 32 34  1  0  0  0  0
 33 35  1  0  0  0  0
 33 60  1  0  0  0  0
 33 61  1  0  0  0  0
 34 36  1  0  0  0  0
 34 62  1  0  0  0  0
 34 63  1  0  0  0  0
 35 37  1  0  0  0  0
 35 64  1  0  0  0  0
 35 65  1  0  0  0  0
 36 37  1  0  0  0  0
 36 66  1  0  0  0  0
 36 67  1  0  0  0  0
 37 38  1  0  0  0  0
 37 68  1  0  0  0  0
 38 69  1  0  0  0  0
 38 70  1  0  0  0  0
 38 71  1  0  0  0  0
M  CHG  1  37   1
M  END
>  <Molecule Name>
CTX-1020746

>  <SMILES>
CN1CCN(CC1)C1=CC=C(CNC(=O)C2=NC3=C(CN(CC3)C(=O)C3=C(C)C4=C(O3)C=CC=C4)N2)C=C1

>  <Batch Name>
CTX-1020746-1

>  <Batch Created Date>
2021-12-16

>  <Batch ID>
CTX-1020746-1

>  <External ID>
P841-0291

>  <Stereochemistry>
Achiral

>  <Amount 1>
4.5

>  <Unit 1>
mg

>  <CRO 1>
Pharmaron

>  <CRO 1 Total Amount>
0.0

>  <CRO 1 Unit>
mg

>  <Pharmaron Solubility (PBS, pH 7.4): Aqueous Solubility - Batch Mean (uM)>


>  <Pharmaron Solubility (PBS, pH 7.4): Aqueous Solubility - Batch Mean (uM) Standard Deviation (±)>


>  <Pharmaron Solubility (PBS, pH 7.4): Aqueous Solubility - Batch Mean (uM) Count>


>  <log P>
2.59

>  <log D>
1.94

>  <Pharmaron Caliper Assay (CDK2/CCNE1): Minimum measured (%)>
23.2

>  <Pharmaron Caliper Assay (CDK2/CCNE1): IC50 - Batch Mean (uM)>
5.18

>  <Pharmaron ADPGLO (CDK2/E1-25C): Minimum measured (%)>


>  <Pharmaron ADPGLO (CDK2/E1-25C): IC50 - Batch Mean (uM)>


>  <Pharmaron ADPGLO (CDK2/E1-37C): Minimum measured (%)>


>  <Pharmaron ADPGLO (CDK2/E1-37C): IC50 - Batch Mean (uM)>


>  <IncuCyte Kuramochi RB-WT: IC50 - Batch Mean (uM)>
10.0

>  <IncuCyte Kuramochi RB-KO: IC50 - Batch Mean (uM)>
8.23

>  <DSF (npCDK2/CCNE1): dTm D - Batch Mean [Concentration: 100]>


>  <DSF (npCDK2/CCNE1): dTm D - Batch Mean [Concentration: 20.0]>
1.577

>  <DSF (pCDK2/CCNE1): dTm D - Batch Mean [Concentration: 100]>


>  <DSF (pCDK2/CCNE1): dTm D - Batch Mean [Concentration: 20.0]>


>  <RLM: t1/2 - Batch Mean (Min)>


>  <RLM: Cl int - Batch Mean (uL/min/mg protein)>


>  <RLM: ER (Hepatic extraction ratio) - Batch Mean>


>  <HLM: t1/2 - Batch Mean (Min)>


>  <HLM: Cl int - Batch Mean (uL/min/mg protein)>


>  <HLM: ER (Hepatic extraction ratio) - Batch Mean>


>  <MDCK-WT 4% BSA: Papp (A-B) - Batch Mean (10-6, cm/s)>


>  <MDCK-WT 4% BSA: Papp (B-A) - Batch Mean (10-6, cm/s)>


>  <MDCK-WT 4% BSA: Efflux Ratio - Batch Mean>


>  <MDCK-WT 4% BSA: ~Net A_B - Batch Mean (10-6, cm/s)>


>  <pIC50>
5.28567

>  <Selection_1>
Y

>  <Selection_N>
N

>  <Serie>
Other

>  <Selection_T>
N

>  <Train_Vs_Test>


$$$$
