CTX-1020743
 OpenBabel08272613283D

 74 79  0  0  0  0  0  0  0  0999 V2000
    1.7918   -0.6888   -0.0414 S   0  0  0  0  0  0  0  0  0  0  0  0
    2.1125    0.9944    0.0301 C   0  0  0  0  0  0  0  0  0  0  0  0
    0.1063   -0.4412   -0.0325 C   0  0  0  0  0  0  0  0  0  0  0  0
    3.4682    1.5458    0.0472 C   0  0  0  0  0  0  0  0  0  0  0  0
    0.9243    1.7162    0.0741 C   0  0  0  0  0  0  0  0  0  0  0  0
   -0.2512    0.8928    0.0400 C   0  0  0  0  0  0  0  0  0  0  0  0
   -0.8711   -1.5682   -0.1451 C   0  0  0  0  0  0  0  0  0  0  0  0
    3.6664    2.7609    0.0943 O   0  0  0  0  0  0  0  0  0  0  0  0
    4.5168    0.6519   -0.0097 N   0  0  0  0  0  0  0  0  0  0  0  0
   -1.6932    1.3584    0.0673 C   0  0  0  0  0  0  0  0  0  0  0  0
   -2.2862   -1.0695    0.1876 C   0  0  0  0  0  0  0  0  0  0  0  0
    5.9076    1.0641    0.0246 C   0  0  0  0  0  0  0  0  0  0  0  0
   -2.5666    0.2630   -0.3581 N   0  0  0  0  0  0  0  0  0  0  0  0
    6.6555    0.6260   -1.2087 C   0  0  0  0  0  0  0  0  0  0  0  0
   -3.7554    0.5539   -1.0365 C   0  0  0  0  0  0  0  0  0  0  0  0
    6.2351    1.0538   -2.4731 C   0  0  0  0  0  0  0  0  0  0  0  0
    7.8072   -0.1704   -1.1352 C   0  0  0  0  0  0  0  0  0  0  0  0
   -4.3176    1.6405   -0.8997 O   0  0  0  0  0  0  0  0  0  0  0  0
   -4.1077   -0.3859   -2.1169 C   0  0  0  0  0  0  0  0  0  0  0  0
    6.9288    0.6729   -3.6202 C   0  0  0  0  0  0  0  0  0  0  0  0
    8.5020   -0.5484   -2.2992 C   0  0  0  0  0  0  0  0  0  0  0  0
   -3.0285   -1.0862   -2.6269 O   0  0  0  0  0  0  0  0  0  0  0  0
   -4.9828   -0.1912   -3.1909 C   0  0  0  0  0  0  0  0  0  0  0  0
    8.0645   -0.1522   -3.5681 C   0  0  0  0  0  0  0  0  0  0  0  0
   -2.8768   -0.5535   -3.8671 C   0  0  0  0  0  0  0  0  0  0  0  0
   -4.0580    0.0640   -4.2511 C   0  0  0  0  0  0  0  0  0  0  0  0
   -6.4389    0.0804   -3.2113 C   0  0  0  0  0  0  0  0  0  0  0  0
    8.6964   -0.4860   -4.7558 N   0  0  0  0  0  0  0  0  0  0  0  0
   -1.6845   -0.5173   -4.5681 C   0  0  0  0  0  0  0  0  0  0  0  0
   -4.0662    0.8070   -5.4406 C   0  0  0  0  0  0  0  0  0  0  0  0
   10.1120   -0.8880   -4.7974 C   0  0  0  0  0  0  0  0  0  0  0  0
    7.8744   -1.2496   -5.7191 C   0  0  0  0  0  0  0  0  0  0  0  0
   -1.6709    0.3289   -5.6823 C   0  0  0  0  0  0  0  0  0  0  0  0
   -2.8435    0.9810   -6.1064 C   0  0  0  0  0  0  0  0  0  0  0  0
   10.6468   -0.7001   -6.2460 C   0  0  0  0  0  0  0  0  0  0  0  0
    8.4287   -1.0400   -7.1450 C   0  0  0  0  0  0  0  0  0  0  0  0
   -0.3708    0.6106   -6.3808 C   0  0  0  0  0  0  0  0  0  0  0  0
    9.8512   -1.4368   -7.2606 N   0  3  0  0  0  0  0  0  0  0  0  0
   10.3439   -1.1617   -8.6088 C   0  0  0  0  0  0  0  0  0  0  0  0
    0.8910    2.7464    0.1263 H   0  0  0  0  0  0  0  0  0  0  0  0
   -0.5983   -2.3440    0.5395 H   0  0  0  0  0  0  0  0  0  0  0  0
   -0.8576   -1.9472   -1.1457 H   0  0  0  0  0  0  0  0  0  0  0  0
    4.3126   -0.3089   -0.0767 H   0  0  0  0  0  0  0  0  0  0  0  0
   -1.8128    2.1887   -0.5969 H   0  0  0  0  0  0  0  0  0  0  0  0
   -1.9533    1.6571    1.0613 H   0  0  0  0  0  0  0  0  0  0  0  0
   -2.3932   -1.0319    1.2516 H   0  0  0  0  0  0  0  0  0  0  0  0
   -2.9794   -1.7512   -0.2592 H   0  0  0  0  0  0  0  0  0  0  0  0
    6.3752    0.6316    0.8844 H   0  0  0  0  0  0  0  0  0  0  0  0
    5.9353    2.1329    0.0664 H   0  0  0  0  0  0  0  0  0  0  0  0
    5.4024    1.6577   -2.5569 H   0  0  0  0  0  0  0  0  0  0  0  0
    8.1504   -0.4839   -0.2139 H   0  0  0  0  0  0  0  0  0  0  0  0
    6.5973    1.0081   -4.5382 H   0  0  0  0  0  0  0  0  0  0  0  0
    9.3509   -1.1292   -2.2153 H   0  0  0  0  0  0  0  0  0  0  0  0
   -6.8698   -0.2139   -2.2771 H   0  0  0  0  0  0  0  0  0  0  0  0
   -6.8942   -0.4746   -4.0047 H   0  0  0  0  0  0  0  0  0  0  0  0
   -6.6045    1.1261   -3.3667 H   0  0  0  0  0  0  0  0  0  0  0  0
   -0.8627   -1.0755   -4.2887 H   0  0  0  0  0  0  0  0  0  0  0  0
   -4.9399    1.2111   -5.8127 H   0  0  0  0  0  0  0  0  0  0  0  0
   10.2023   -1.9151   -4.5116 H   0  0  0  0  0  0  0  0  0  0  0  0
   10.6801   -0.2850   -4.1202 H   0  0  0  0  0  0  0  0  0  0  0  0
    6.8620   -0.9061   -5.6755 H   0  0  0  0  0  0  0  0  0  0  0  0
    7.9080   -2.2901   -5.4718 H   0  0  0  0  0  0  0  0  0  0  0  0
   -2.8030    1.6034   -6.9285 H   0  0  0  0  0  0  0  0  0  0  0  0
   11.6568   -1.0515   -6.2844 H   0  0  0  0  0  0  0  0  0  0  0  0
   10.5759    0.3416   -6.4798 H   0  0  0  0  0  0  0  0  0  0  0  0
    8.3387   -0.0047   -7.4002 H   0  0  0  0  0  0  0  0  0  0  0  0
    7.8620   -1.6577   -7.8100 H   0  0  0  0  0  0  0  0  0  0  0  0
    0.4087    0.0323   -5.9304 H   0  0  0  0  0  0  0  0  0  0  0  0
   -0.1379    1.6514   -6.2948 H   0  0  0  0  0  0  0  0  0  0  0  0
   -0.4573    0.3488   -7.4146 H   0  0  0  0  0  0  0  0  0  0  0  0
    9.9431   -2.4384   -7.0910 H   0  0  0  0  0  0  0  0  0  0  0  0
   10.2586   -0.1149   -8.8130 H   0  0  0  0  0  0  0  0  0  0  0  0
    9.7640   -1.7123   -9.3197 H   0  0  0  0  0  0  0  0  0  0  0  0
   11.3700   -1.4567   -8.6806 H   0  0  0  0  0  0  0  0  0  0  0  0
  1  2  1  0  0  0  0
  1  3  1  0  0  0  0
  2  4  1  0  0  0  0
  2  5  2  0  0  0  0
  3  6  2  0  0  0  0
  3  7  1  0  0  0  0
  4  8  2  0  0  0  0
  4  9  1  0  0  0  0
  5  6  1  0  0  0  0
  5 40  1  0  0  0  0
  6 10  1  0  0  0  0
  7 11  1  0  0  0  0
  7 41  1  0  0  0  0
  7 42  1  0  0  0  0
  9 12  1  0  0  0  0
  9 43  1  0  0  0  0
 10 13  1  0  0  0  0
 10 44  1  0  0  0  0
 10 45  1  0  0  0  0
 11 13  1  0  0  0  0
 11 46  1  0  0  0  0
 11 47  1  0  0  0  0
 12 14  1  0  0  0  0
 12 48  1  0  0  0  0
 12 49  1  0  0  0  0
 13 15  1  0  0  0  0
 14 16  2  0  0  0  0
 14 17  1  0  0  0  0
 15 18  2  0  0  0  0
 15 19  1  0  0  0  0
 16 20  1  0  0  0  0
 16 50  1  0  0  0  0
 17 21  2  0  0  0  0
 17 51  1  0  0  0  0
 19 22  1  0  0  0  0
 19 23  2  0  0  0  0
 20 24  2  0  0  0  0
 20 52  1  0  0  0  0
 21 24  1  0  0  0  0
 21 53  1  0  0  0  0
 22 25  1  0  0  0  0
 23 26  1  0  0  0  0
 23 27  1  0  0  0  0
 24 28  1  0  0  0  0
 25 29  2  0  0  0  0
 25 26  1  0  0  0  0
 26 30  2  0  0  0  0
 27 54  1  0  0  0  0
 27 55  1  0  0  0  0
 27 56  1  0  0  0  0
 28 31  1  0  0  0  0
 28 32  1  0  0  0  0
 29 33  1  0  0  0  0
 29 57  1  0  0  0  0
 30 34  1  0  0  0  0
 30 58  1  0  0  0  0
 31 35  1  0  0  0  0
 31 59  1  0  0  0  0
 31 60  1  0  0  0  0
 32 36  1  0  0  0  0
 32 61  1  0  0  0  0
 32 62  1  0  0  0  0
 33 37  1  0  0  0  0
 33 34  2  0  0  0  0
 34 63  1  0  0  0  0
 35 38  1  0  0  0  0
 35 64  1  0  0  0  0
 35 65  1  0  0  0  0
 36 38  1  0  0  0  0
 36 66  1  0  0  0  0
 36 67  1  0  0  0  0
 37 68  1  0  0  0  0
 37 69  1  0  0  0  0
 37 70  1  0  0  0  0
 38 39  1  0  0  0  0
 38 71  1  0  0  0  0
 39 72  1  0  0  0  0
 39 73  1  0  0  0  0
 39 74  1  0  0  0  0
M  CHG  1  38   1
M  END
>  <Molecule Name>
CTX-1020743

>  <SMILES>
CN1CCN(CC1)C1=CC=C(CNC(=O)C2=CC3=C(CCN(C3)C(=O)C3=C(C)C4=C(O3)C=C(C)C=C4)S2)C=C1

>  <Batch Name>
CTX-1020743-1

>  <Batch Created Date>
2021-12-16

>  <Batch ID>
CTX-1020743-1

>  <External ID>
P841-0358

>  <Stereochemistry>
Achiral

>  <Amount 1>
4.25

>  <Unit 1>
mg

>  <CRO 1>
Pharmaron

>  <CRO 1 Total Amount>
22.1

>  <CRO 1 Unit>
mg

>  <Pharmaron Solubility (PBS, pH 7.4): Aqueous Solubility - Batch Mean (uM)>
0.0136

>  <Pharmaron Solubility (PBS, pH 7.4): Aqueous Solubility - Batch Mean (uM) Standard Deviation (±)>


>  <Pharmaron Solubility (PBS, pH 7.4): Aqueous Solubility - Batch Mean (uM) Count>
1.0

>  <log P>
4.94

>  <log D>
4.31

>  <Pharmaron Caliper Assay (CDK2/CCNE1): Minimum measured (%)>
18.2

>  <Pharmaron Caliper Assay (CDK2/CCNE1): IC50 - Batch Mean (uM)>
1.42

>  <Pharmaron ADPGLO (CDK2/E1-25C): Minimum measured (%)>
44.5

>  <Pharmaron ADPGLO (CDK2/E1-25C): IC50 - Batch Mean (uM)>
0.476

>  <Pharmaron ADPGLO (CDK2/E1-37C): Minimum measured (%)>
111.0

>  <Pharmaron ADPGLO (CDK2/E1-37C): IC50 - Batch Mean (uM)>
100

>  <IncuCyte Kuramochi RB-WT: IC50 - Batch Mean (uM)>
7.57

>  <IncuCyte Kuramochi RB-KO: IC50 - Batch Mean (uM)>
7.88

>  <DSF (npCDK2/CCNE1): dTm D - Batch Mean [Concentration: 100]>


>  <DSF (npCDK2/CCNE1): dTm D - Batch Mean [Concentration: 20.0]>
3.95

>  <DSF (pCDK2/CCNE1): dTm D - Batch Mean [Concentration: 100]>


>  <DSF (pCDK2/CCNE1): dTm D - Batch Mean [Concentration: 20.0]>
2.0540000000000003

>  <RLM: t1/2 - Batch Mean (Min)>


>  <RLM: Cl int - Batch Mean (uL/min/mg protein)>


>  <RLM: ER (Hepatic extraction ratio) - Batch Mean>


>  <HLM: t1/2 - Batch Mean (Min)>


>  <HLM: Cl int - Batch Mean (uL/min/mg protein)>


>  <HLM: ER (Hepatic extraction ratio) - Batch Mean>


>  <MDCK-WT 4% BSA: Papp (A-B) - Batch Mean (10-6, cm/s)>


>  <MDCK-WT 4% BSA: Papp (B-A) - Batch Mean (10-6, cm/s)>


>  <MDCK-WT 4% BSA: Efflux Ratio - Batch Mean>


>  <MDCK-WT 4% BSA: ~Net A_B - Batch Mean (10-6, cm/s)>


>  <pIC50>
5.847712

>  <Selection_1>
Y

>  <Selection_N>
N

>  <Serie>
Tetrahydrothienopyridine

>  <Selection_T>


>  <Train_Vs_Test>


$$$$
