CTX-1020698
 OpenBabel08272613283D

 64 69  0  0  0  0  0  0  0  0999 V2000
    1.3266    0.1364    0.9105 O   0  0  0  0  0  0  0  0  0  0  0  0
    2.2929    0.0423    0.1563 C   0  0  0  0  0  0  0  0  0  0  0  0
    2.7829   -1.1673   -0.2804 N   0  0  0  0  0  0  0  0  0  0  0  0
    2.9956    1.2787   -0.3358 C   0  0  0  0  0  0  0  0  0  0  0  0
    2.1620   -2.4172    0.0966 C   0  0  0  0  0  0  0  0  0  0  0  0
    4.0355    1.1530   -1.2205 N   0  0  0  0  0  0  0  0  0  0  0  0
    2.5250    2.4966    0.1378 C   0  0  0  0  0  0  0  0  0  0  0  0
    3.0690   -3.2687    0.9451 C   0  0  0  0  0  0  0  0  0  0  0  0
    4.6239    2.3129   -1.6547 C   0  0  0  0  0  0  0  0  0  0  0  0
    3.1415    3.6568   -0.2969 C   0  0  0  0  0  0  0  0  0  0  0  0
    3.1124   -3.0968    2.3321 C   0  0  0  0  0  0  0  0  0  0  0  0
    3.8762   -4.2539    0.3702 C   0  0  0  0  0  0  0  0  0  0  0  0
    4.2091    3.5781   -1.1959 C   0  0  0  0  0  0  0  0  0  0  0  0
    5.7904    2.2121   -2.6510 C   0  0  0  0  0  0  0  0  0  0  0  0
    3.9224   -3.9150    3.1288 C   0  0  0  0  0  0  0  0  0  0  0  0
    4.6765   -5.0803    1.1736 C   0  0  0  0  0  0  0  0  0  0  0  0
    4.8244    4.8579   -1.7007 C   0  0  0  0  0  0  0  0  0  0  0  0
    6.1322    3.4964   -3.2745 N   0  0  0  0  0  0  0  0  0  0  0  0
    4.7144   -4.9352    2.5719 C   0  0  0  0  0  0  0  0  0  0  0  0
    6.1680    4.6449   -2.3840 C   0  0  0  0  0  0  0  0  0  0  0  0
    6.5899    3.5614   -4.5972 C   0  0  0  0  0  0  0  0  0  0  0  0
    5.5424   -5.8173    3.4275 C   0  0  0  0  0  0  0  0  0  0  0  0
    7.1530    2.6030   -5.1241 O   0  0  0  0  0  0  0  0  0  0  0  0
    6.1152    4.7216   -5.3693 C   0  0  0  0  0  0  0  0  0  0  0  0
    5.1140   -6.2163    4.7017 C   0  0  0  0  0  0  0  0  0  0  0  0
    6.7979   -6.2914    3.0109 C   0  0  0  0  0  0  0  0  0  0  0  0
    4.9362    5.2643   -4.9014 O   0  0  0  0  0  0  0  0  0  0  0  0
    6.1643    5.0108   -6.7347 C   0  0  0  0  0  0  0  0  0  0  0  0
    5.9277   -7.0251    5.4790 C   0  0  0  0  0  0  0  0  0  0  0  0
    7.5370   -7.1007    3.8498 C   0  0  0  0  0  0  0  0  0  0  0  0
    4.0783    5.1811   -5.9489 C   0  0  0  0  0  0  0  0  0  0  0  0
    4.7907    4.9118   -7.1117 C   0  0  0  0  0  0  0  0  0  0  0  0
    7.3044    5.2498   -7.6487 C   0  0  0  0  0  0  0  0  0  0  0  0
    7.1330   -7.4726    5.0782 N   0  0  0  0  0  0  0  0  0  0  0  0
    2.7039    5.2665   -5.8438 C   0  0  0  0  0  0  0  0  0  0  0  0
    4.0629    4.6404   -8.2807 C   0  0  0  0  0  0  0  0  0  0  0  0
    1.9998    4.9411   -7.0041 C   0  0  0  0  0  0  0  0  0  0  0  0
    2.6626    4.6099   -8.1937 C   0  0  0  0  0  0  0  0  0  0  0  0
    3.5758   -1.1818   -0.8638 H   0  0  0  0  0  0  0  0  0  0  0  0
    1.9112   -2.9592   -0.7912 H   0  0  0  0  0  0  0  0  0  0  0  0
    1.2896   -2.1903    0.6732 H   0  0  0  0  0  0  0  0  0  0  0  0
    1.7335    2.5354    0.7989 H   0  0  0  0  0  0  0  0  0  0  0  0
    2.8148    4.5755    0.0410 H   0  0  0  0  0  0  0  0  0  0  0  0
    2.5413   -2.3590    2.7732 H   0  0  0  0  0  0  0  0  0  0  0  0
    3.8839   -4.3748   -0.6547 H   0  0  0  0  0  0  0  0  0  0  0  0
    5.5201    1.5212   -3.4220 H   0  0  0  0  0  0  0  0  0  0  0  0
    6.6495    1.8868   -2.1023 H   0  0  0  0  0  0  0  0  0  0  0  0
    3.9387   -3.7658    4.1498 H   0  0  0  0  0  0  0  0  0  0  0  0
    5.2512   -5.8123    0.7276 H   0  0  0  0  0  0  0  0  0  0  0  0
    4.9651    5.5187   -0.8709 H   0  0  0  0  0  0  0  0  0  0  0  0
    4.1567    5.2675   -2.4297 H   0  0  0  0  0  0  0  0  0  0  0  0
    6.9170    4.4834   -1.6371 H   0  0  0  0  0  0  0  0  0  0  0  0
    6.3931    5.5151   -2.9644 H   0  0  0  0  0  0  0  0  0  0  0  0
    4.1961   -5.9088    5.0593 H   0  0  0  0  0  0  0  0  0  0  0  0
    7.1659   -6.0355    2.0813 H   0  0  0  0  0  0  0  0  0  0  0  0
    5.5919   -7.2993    6.4155 H   0  0  0  0  0  0  0  0  0  0  0  0
    8.4525   -7.4402    3.5156 H   0  0  0  0  0  0  0  0  0  0  0  0
    8.2138    5.2753   -7.0855 H   0  0  0  0  0  0  0  0  0  0  0  0
    7.1693    6.1852   -8.1504 H   0  0  0  0  0  0  0  0  0  0  0  0
    7.3540    4.4618   -8.3708 H   0  0  0  0  0  0  0  0  0  0  0  0
    2.2320    5.5502   -4.9709 H   0  0  0  0  0  0  0  0  0  0  0  0
    4.5434    4.4683   -9.1777 H   0  0  0  0  0  0  0  0  0  0  0  0
    0.9679    4.9444   -6.9856 H   0  0  0  0  0  0  0  0  0  0  0  0
    2.1101    4.3382   -9.0219 H   0  0  0  0  0  0  0  0  0  0  0  0
  1  2  2  0  0  0  0
  2  3  1  0  0  0  0
  2  4  1  0  0  0  0
  3  5  1  0  0  0  0
  3 39  1  0  0  0  0
  4  6  2  0  0  0  0
  4  7  1  0  0  0  0
  5  8  1  0  0  0  0
  5 40  1  0  0  0  0
  5 41  1  0  0  0  0
  6  9  1  0  0  0  0
  7 10  2  0  0  0  0
  7 42  1  0  0  0  0
  8 11  2  0  0  0  0
  8 12  1  0  0  0  0
  9 13  2  0  0  0  0
  9 14  1  0  0  0  0
 10 13  1  0  0  0  0
 10 43  1  0  0  0  0
 11 15  1  0  0  0  0
 11 44  1  0  0  0  0
 12 16  2  0  0  0  0
 12 45  1  0  0  0  0
 13 17  1  0  0  0  0
 14 18  1  0  0  0  0
 14 46  1  0  0  0  0
 14 47  1  0  0  0  0
 15 19  2  0  0  0  0
 15 48  1  0  0  0  0
 16 19  1  0  0  0  0
 16 49  1  0  0  0  0
 17 20  1  0  0  0  0
 17 50  1  0  0  0  0
 17 51  1  0  0  0  0
 18 21  1  0  0  0  0
 18 20  1  0  0  0  0
 19 22  1  0  0  0  0
 20 52  1  0  0  0  0
 20 53  1  0  0  0  0
 21 23  2  0  0  0  0
 21 24  1  0  0  0  0
 22 25  2  0  0  0  0
 22 26  1  0  0  0  0
 24 27  1  0  0  0  0
 24 28  2  0  0  0  0
 25 29  1  0  0  0  0
 25 54  1  0  0  0  0
 26 30  2  0  0  0  0
 26 55  1  0  0  0  0
 27 31  1  0  0  0  0
 28 32  1  0  0  0  0
 28 33  1  0  0  0  0
 29 34  2  0  0  0  0
 29 56  1  0  0  0  0
 30 34  1  0  0  0  0
 30 57  1  0  0  0  0
 31 35  2  0  0  0  0
 31 32  1  0  0  0  0
 32 36  2  0  0  0  0
 33 58  1  0  0  0  0
 33 59  1  0  0  0  0
 33 60  1  0  0  0  0
 35 37  1  0  0  0  0
 35 61  1  0  0  0  0
 36 38  1  0  0  0  0
 36 62  1  0  0  0  0
 37 38  2  0  0  0  0
 37 63  1  0  0  0  0
 38 64  1  0  0  0  0
M  END
>  <Molecule Name>
CTX-1020698

>  <SMILES>
CC1=C(OC2=C1C=CC=C2)C(=O)N1CCC2=CC=C(N=C2C1)C(=O)NCC1=CC=C(C=C1)C1=CC=NC=C1

>  <Batch Name>
CTX-1020698-1

>  <Batch Created Date>
2021-12-09

>  <Batch ID>
CTX-1020698-1

>  <External ID>
CD-42-D

>  <Stereochemistry>
Achiral

>  <Amount 1>
2.5

>  <Unit 1>
mg

>  <CRO 1>
Pharmaron

>  <CRO 1 Total Amount>
19.2

>  <CRO 1 Unit>
mg

>  <Pharmaron Solubility (PBS, pH 7.4): Aqueous Solubility - Batch Mean (uM)>


>  <Pharmaron Solubility (PBS, pH 7.4): Aqueous Solubility - Batch Mean (uM) Standard Deviation (±)>


>  <Pharmaron Solubility (PBS, pH 7.4): Aqueous Solubility - Batch Mean (uM) Count>


>  <log P>
4.11

>  <log D>
4.1

>  <Pharmaron Caliper Assay (CDK2/CCNE1): Minimum measured (%)>
39.5

>  <Pharmaron Caliper Assay (CDK2/CCNE1): IC50 - Batch Mean (uM)>
1.11

>  <Pharmaron ADPGLO (CDK2/E1-25C): Minimum measured (%)>


>  <Pharmaron ADPGLO (CDK2/E1-25C): IC50 - Batch Mean (uM)>


>  <Pharmaron ADPGLO (CDK2/E1-37C): Minimum measured (%)>


>  <Pharmaron ADPGLO (CDK2/E1-37C): IC50 - Batch Mean (uM)>


>  <IncuCyte Kuramochi RB-WT: IC50 - Batch Mean (uM)>
20.0

>  <IncuCyte Kuramochi RB-KO: IC50 - Batch Mean (uM)>
8.64

>  <DSF (npCDK2/CCNE1): dTm D - Batch Mean [Concentration: 100]>


>  <DSF (npCDK2/CCNE1): dTm D - Batch Mean [Concentration: 20.0]>
1.097

>  <DSF (pCDK2/CCNE1): dTm D - Batch Mean [Concentration: 100]>


>  <DSF (pCDK2/CCNE1): dTm D - Batch Mean [Concentration: 20.0]>
0.226

>  <RLM: t1/2 - Batch Mean (Min)>
24.7

>  <RLM: Cl int - Batch Mean (uL/min/mg protein)>
56.42

>  <RLM: ER (Hepatic extraction ratio) - Batch Mean>
0.669

>  <HLM: t1/2 - Batch Mean (Min)>
5.33

>  <HLM: Cl int - Batch Mean (uL/min/mg protein)>
259.89

>  <HLM: ER (Hepatic extraction ratio) - Batch Mean>
0.927

>  <MDCK-WT 4% BSA: Papp (A-B) - Batch Mean (10-6, cm/s)>


>  <MDCK-WT 4% BSA: Papp (B-A) - Batch Mean (10-6, cm/s)>


>  <MDCK-WT 4% BSA: Efflux Ratio - Batch Mean>


>  <MDCK-WT 4% BSA: ~Net A_B - Batch Mean (10-6, cm/s)>


>  <pIC50>
5.954677

>  <Selection_1>
Y

>  <Selection_N>


>  <Serie>
Naphthyridine

>  <Selection_T>
N

>  <Train_Vs_Test>


$$$$
