CTX-1020733
 OpenBabel08272613283D

 49 53  0  0  0  0  0  0  0  0999 V2000
    7.3430   -2.3196   -0.4493 Cl  0  0  0  0  0  0  0  0  0  0  0  0
    5.9560   -1.3360   -0.4033 C   0  0  0  0  0  0  0  0  0  0  0  0
    4.7000   -1.8229   -0.2073 C   0  0  0  0  0  0  0  0  0  0  0  0
    5.9972    0.0991   -0.5959 C   0  0  0  0  0  0  0  0  0  0  0  0
    3.5442   -0.4948   -0.1798 S   0  0  0  0  0  0  0  0  0  0  0  0
    4.0898   -3.1381   -0.0407 C   0  0  0  0  0  0  0  0  0  0  0  0
    4.7253    0.6614   -0.5018 C   0  0  0  0  0  0  0  0  0  0  0  0
    7.0797    0.9849   -0.8618 C   0  0  0  0  0  0  0  0  0  0  0  0
    2.8681   -2.9577    0.2035 O   0  0  0  0  0  0  0  0  0  0  0  0
    4.8315   -4.5453   -0.0606 N   0  0  0  0  0  0  0  0  0  0  0  0
    4.4887    2.0288   -0.6599 C   0  0  0  0  0  0  0  0  0  0  0  0
    6.8596    2.3583   -1.0204 C   0  0  0  0  0  0  0  0  0  0  0  0
    5.6952   -6.2528   -0.0766 C   0  0  0  0  0  0  0  0  0  0  0  0
    3.4585   -4.9163   -0.0493 C   0  0  0  0  0  0  0  0  0  0  0  0
    5.5720    2.8570   -0.9170 C   0  0  0  0  0  0  0  0  0  0  0  0
    4.7035   -7.8080   -0.2422 C   0  0  0  0  0  0  0  0  0  0  0  0
    3.2888   -6.2228    0.3211 C   0  0  0  0  0  0  0  0  0  0  0  0
    3.4311   -7.4177   -0.2853 C   0  0  0  0  0  0  0  0  0  0  0  0
    4.3349   -9.2780   -0.1303 C   0  0  0  0  0  0  0  0  0  0  0  0
    2.1308   -8.1178   -0.8910 S   0  0  0  0  0  0  0  0  0  0  0  0
    2.8737   -9.4897   -0.1976 C   0  0  0  0  0  0  0  0  0  0  0  0
    1.7991  -10.4493    0.0256 C   0  0  0  0  0  0  0  0  0  0  0  0
    1.8760  -11.6528   -0.1836 O   0  0  0  0  0  0  0  0  0  0  0  0
    0.5629   -9.8553    0.3913 N   0  0  0  0  0  0  0  0  0  0  0  0
   -0.6023  -10.6611    0.5437 C   0  0  0  0  0  0  0  0  0  0  0  0
   -0.5929  -11.1489    1.9436 C   0  0  0  0  0  0  0  0  0  0  0  0
   -0.7058  -10.2481    3.0019 C   0  0  0  0  0  0  0  0  0  0  0  0
   -0.3999  -12.5013    2.1909 C   0  0  0  0  0  0  0  0  0  0  0  0
   -0.6841  -10.7565    4.2776 C   0  0  0  0  0  0  0  0  0  0  0  0
   -0.4543  -12.9156    3.4995 C   0  0  0  0  0  0  0  0  0  0  0  0
   -0.5902  -12.0753    4.5523 N   0  0  0  0  0  0  0  0  0  0  0  0
    8.0382    0.6100   -0.9385 H   0  0  0  0  0  0  0  0  0  0  0  0
    3.5336    2.4130   -0.5874 H   0  0  0  0  0  0  0  0  0  0  0  0
    7.6499    2.9934   -1.2128 H   0  0  0  0  0  0  0  0  0  0  0  0
    6.2362   -6.3310    0.8433 H   0  0  0  0  0  0  0  0  0  0  0  0
    6.2577   -6.2287   -0.9865 H   0  0  0  0  0  0  0  0  0  0  0  0
    3.0544   -4.7790   -1.0305 H   0  0  0  0  0  0  0  0  0  0  0  0
    2.9528   -4.2996    0.6641 H   0  0  0  0  0  0  0  0  0  0  0  0
    5.4140    3.8701   -1.0340 H   0  0  0  0  0  0  0  0  0  0  0  0
    2.2694   -6.2442    0.6453 H   0  0  0  0  0  0  0  0  0  0  0  0
    4.2140   -6.2841    0.8552 H   0  0  0  0  0  0  0  0  0  0  0  0
    5.0236  -10.0387   -0.0203 H   0  0  0  0  0  0  0  0  0  0  0  0
    0.5104   -8.8835    0.5402 H   0  0  0  0  0  0  0  0  0  0  0  0
   -0.5729  -11.4867   -0.1362 H   0  0  0  0  0  0  0  0  0  0  0  0
   -1.4906  -10.1029    0.3331 H   0  0  0  0  0  0  0  0  0  0  0  0
   -0.8023   -9.2347    2.8325 H   0  0  0  0  0  0  0  0  0  0  0  0
   -0.2228  -13.1680    1.4233 H   0  0  0  0  0  0  0  0  0  0  0  0
   -0.7427  -10.0956    5.0681 H   0  0  0  0  0  0  0  0  0  0  0  0
   -0.3875  -13.9274    3.6915 H   0  0  0  0  0  0  0  0  0  0  0  0
  1  2  1  0  0  0  0
  2  3  2  0  0  0  0
  2  4  1  0  0  0  0
  3  5  1  0  0  0  0
  3  6  1  0  0  0  0
  4  7  2  0  0  0  0
  4  8  1  0  0  0  0
  5  7  1  0  0  0  0
  6  9  2  0  0  0  0
  6 10  1  0  0  0  0
  7 11  1  0  0  0  0
  8 12  2  0  0  0  0
  8 32  1  0  0  0  0
 10 13  1  0  0  0  0
 10 14  1  0  0  0  0
 11 15  2  0  0  0  0
 11 33  1  0  0  0  0
 12 15  1  0  0  0  0
 12 34  1  0  0  0  0
 13 16  1  0  0  0  0
 13 35  1  0  0  0  0
 13 36  1  0  0  0  0
 14 17  1  0  0  0  0
 14 37  1  0  0  0  0
 14 38  1  0  0  0  0
 15 39  1  0  0  0  0
 16 18  2  0  0  0  0
 16 19  1  0  0  0  0
 17 18  1  0  0  0  0
 17 40  1  0  0  0  0
 17 41  1  0  0  0  0
 18 20  1  0  0  0  0
 19 21  2  0  0  0  0
 19 42  1  0  0  0  0
 20 21  1  0  0  0  0
 21 22  1  0  0  0  0
 22 23  2  0  0  0  0
 22 24  1  0  0  0  0
 24 25  1  0  0  0  0
 24 43  1  0  0  0  0
 25 26  1  0  0  0  0
 25 44  1  0  0  0  0
 25 45  1  0  0  0  0
 26 27  2  0  0  0  0
 26 28  1  0  0  0  0
 27 29  1  0  0  0  0
 27 46  1  0  0  0  0
 28 30  2  0  0  0  0
 28 47  1  0  0  0  0
 29 31  2  0  0  0  0
 29 48  1  0  0  0  0
 30 31  1  0  0  0  0
 30 49  1  0  0  0  0
M  END
>  <Molecule Name>
CTX-1020733

>  <SMILES>
ClC1=C(SC2=CC=CC=C12)C(=O)N1CCC2=C(C1)C=C(S2)C(=O)NCC1=CC=NC=C1

>  <Batch Name>
CTX-1020733-1

>  <Batch Created Date>
2021-12-16

>  <Batch ID>
CTX-1020733-1

>  <External ID>
CD-44-2-M

>  <Stereochemistry>
Achiral

>  <Amount 1>
2.7

>  <Unit 1>
mg

>  <CRO 1>
Pharmaron

>  <CRO 1 Total Amount>
18.1

>  <CRO 1 Unit>
mg

>  <Pharmaron Solubility (PBS, pH 7.4): Aqueous Solubility - Batch Mean (uM)>
0.408

>  <Pharmaron Solubility (PBS, pH 7.4): Aqueous Solubility - Batch Mean (uM) Standard Deviation (±)>


>  <Pharmaron Solubility (PBS, pH 7.4): Aqueous Solubility - Batch Mean (uM) Count>
1.0

>  <log P>
4.27

>  <log D>
4.27

>  <Pharmaron Caliper Assay (CDK2/CCNE1): Minimum measured (%)>
68.7

>  <Pharmaron Caliper Assay (CDK2/CCNE1): IC50 - Batch Mean (uM)>
5.36

>  <Pharmaron ADPGLO (CDK2/E1-25C): Minimum measured (%)>


>  <Pharmaron ADPGLO (CDK2/E1-25C): IC50 - Batch Mean (uM)>


>  <Pharmaron ADPGLO (CDK2/E1-37C): Minimum measured (%)>


>  <Pharmaron ADPGLO (CDK2/E1-37C): IC50 - Batch Mean (uM)>


>  <IncuCyte Kuramochi RB-WT: IC50 - Batch Mean (uM)>


>  <IncuCyte Kuramochi RB-KO: IC50 - Batch Mean (uM)>


>  <DSF (npCDK2/CCNE1): dTm D - Batch Mean [Concentration: 100]>


>  <DSF (npCDK2/CCNE1): dTm D - Batch Mean [Concentration: 20.0]>


>  <DSF (pCDK2/CCNE1): dTm D - Batch Mean [Concentration: 100]>


>  <DSF (pCDK2/CCNE1): dTm D - Batch Mean [Concentration: 20.0]>


>  <RLM: t1/2 - Batch Mean (Min)>


>  <RLM: Cl int - Batch Mean (uL/min/mg protein)>


>  <RLM: ER (Hepatic extraction ratio) - Batch Mean>


>  <HLM: t1/2 - Batch Mean (Min)>


>  <HLM: Cl int - Batch Mean (uL/min/mg protein)>


>  <HLM: ER (Hepatic extraction ratio) - Batch Mean>


>  <MDCK-WT 4% BSA: Papp (A-B) - Batch Mean (10-6, cm/s)>


>  <MDCK-WT 4% BSA: Papp (B-A) - Batch Mean (10-6, cm/s)>


>  <MDCK-WT 4% BSA: Efflux Ratio - Batch Mean>


>  <MDCK-WT 4% BSA: ~Net A_B - Batch Mean (10-6, cm/s)>


>  <pIC50>
5.270835

>  <Selection_1>
Y

>  <Selection_N>
N

>  <Serie>
Tetrahydrothienopyridine

>  <Selection_T>


>  <Train_Vs_Test>


$$$$
