CTX-1020735
 OpenBabel08272613283D

 72 77  0  0  0  0  0  0  0  0999 V2000
    1.8265   -0.7024    0.0004 S   0  0  0  0  0  0  0  0  0  0  0  0
    2.1285    0.9800    0.0724 C   0  0  0  0  0  0  0  0  0  0  0  0
    0.1442   -0.4564   -0.0430 C   0  0  0  0  0  0  0  0  0  0  0  0
    3.4571    1.5635    0.2079 C   0  0  0  0  0  0  0  0  0  0  0  0
    0.9466    1.7018    0.0148 C   0  0  0  0  0  0  0  0  0  0  0  0
   -0.2129    0.8786   -0.0406 C   0  0  0  0  0  0  0  0  0  0  0  0
   -0.8479   -1.5718   -0.0823 C   0  0  0  0  0  0  0  0  0  0  0  0
    3.6239    2.7868    0.2858 O   0  0  0  0  0  0  0  0  0  0  0  0
    4.5441    0.7076    0.2636 N   0  0  0  0  0  0  0  0  0  0  0  0
   -1.6417    1.3568   -0.0466 C   0  0  0  0  0  0  0  0  0  0  0  0
   -2.2151   -1.0251    0.3598 C   0  0  0  0  0  0  0  0  0  0  0  0
    5.8803    1.2574    0.4138 C   0  0  0  0  0  0  0  0  0  0  0  0
   -2.5354    0.2340   -0.3437 N   0  0  0  0  0  0  0  0  0  0  0  0
    6.8980    0.1284    0.4136 C   0  0  2  0  0  0  0  0  0  0  0  0
   -3.4795    0.3926   -1.3646 C   0  0  0  0  0  0  0  0  0  0  0  0
    6.9344   -0.9196    1.5601 C   0  0  0  0  0  0  0  0  0  0  0  0
    8.3558    0.4823    0.8431 C   0  0  0  0  0  0  0  0  0  0  0  0
   -3.5165    1.4256   -2.0321 O   0  0  0  0  0  0  0  0  0  0  0  0
   -4.4086   -0.6977   -1.6267 C   0  0  0  0  0  0  0  0  0  0  0  0
    8.4929   -0.9622    1.4441 C   0  0  2  0  0  0  0  0  0  0  0  0
   -4.8750   -1.4377   -0.5744 O   0  0  0  0  0  0  0  0  0  0  0  0
   -5.0148   -1.1310   -2.8022 C   0  0  0  0  0  0  0  0  0  0  0  0
    8.9635   -1.8761    0.3761 N   0  3  2  0  0  0  0  0  0  0  0  0
   -5.6985   -2.3910   -1.0663 C   0  0  0  0  0  0  0  0  0  0  0  0
   -5.8593   -2.2257   -2.4324 C   0  0  0  0  0  0  0  0  0  0  0  0
   -4.8226   -0.5968   -4.1751 C   0  0  0  0  0  0  0  0  0  0  0  0
    8.7052   -3.3082    0.6451 C   0  0  0  0  0  0  0  0  0  0  0  0
   10.4249   -1.7274    0.1544 C   0  0  0  0  0  0  0  0  0  0  0  0
   -6.3022   -3.3913   -0.3105 C   0  0  0  0  0  0  0  0  0  0  0  0
   -6.7361   -3.0956   -3.1044 C   0  0  0  0  0  0  0  0  0  0  0  0
    9.6057   -3.9988    1.6972 C   0  0  0  0  0  0  0  0  0  0  0  0
   11.3659   -2.4148    1.1807 C   0  0  0  0  0  0  0  0  0  0  0  0
   -7.1617   -4.2506   -0.9977 C   0  0  0  0  0  0  0  0  0  0  0  0
   -7.3861   -4.0988   -2.3687 C   0  0  0  0  0  0  0  0  0  0  0  0
   11.0458   -3.8255    1.4516 N   0  3  1  0  0  0  0  0  0  0  0  0
   11.8204   -4.3269    2.5907 C   0  0  0  0  0  0  0  0  0  0  0  0
    0.9110    2.7332    0.0123 H   0  0  0  0  0  0  0  0  0  0  0  0
   -0.5397   -2.3523    0.5815 H   0  0  0  0  0  0  0  0  0  0  0  0
   -0.9149   -1.9678   -1.0740 H   0  0  0  0  0  0  0  0  0  0  0  0
    4.4125   -0.2661    0.2020 H   0  0  0  0  0  0  0  0  0  0  0  0
   -1.7606    2.1136   -0.7936 H   0  0  0  0  0  0  0  0  0  0  0  0
   -1.8852    1.7598    0.9141 H   0  0  0  0  0  0  0  0  0  0  0  0
   -2.1941   -0.8413    1.4137 H   0  0  0  0  0  0  0  0  0  0  0  0
   -2.9652   -1.7494    0.1200 H   0  0  0  0  0  0  0  0  0  0  0  0
    5.9432    1.7936    1.3376 H   0  0  0  0  0  0  0  0  0  0  0  0
    6.0853    1.9214   -0.3999 H   0  0  0  0  0  0  0  0  0  0  0  0
    6.6162   -0.1602   -0.5775 H   0  0  0  0  0  0  0  0  0  0  0  0
    6.4507   -1.8448    1.3257 H   0  0  0  0  0  0  0  0  0  0  0  0
    6.4600   -0.7218    2.4986 H   0  0  0  0  0  0  0  0  0  0  0  0
    8.4247    1.2692    1.5649 H   0  0  0  0  0  0  0  0  0  0  0  0
    9.0653    0.8552    0.1342 H   0  0  0  0  0  0  0  0  0  0  0  0
    9.1120   -1.2290    2.2750 H   0  0  0  0  0  0  0  0  0  0  0  0
    8.4264   -1.6018   -0.4464 H   0  0  0  0  0  0  0  0  0  0  0  0
   -4.1345    0.2221   -4.1460 H   0  0  0  0  0  0  0  0  0  0  0  0
   -5.7618   -0.2599   -4.5614 H   0  0  0  0  0  0  0  0  0  0  0  0
   -4.4331   -1.3678   -4.8065 H   0  0  0  0  0  0  0  0  0  0  0  0
    8.8237   -3.8365   -0.2779 H   0  0  0  0  0  0  0  0  0  0  0  0
    7.7192   -3.3398    1.0594 H   0  0  0  0  0  0  0  0  0  0  0  0
   10.6479   -0.6809    0.1620 H   0  0  0  0  0  0  0  0  0  0  0  0
   10.6173   -2.2221   -0.7747 H   0  0  0  0  0  0  0  0  0  0  0  0
   -6.1246   -3.4923    0.7011 H   0  0  0  0  0  0  0  0  0  0  0  0
   -6.8985   -2.9983   -4.1189 H   0  0  0  0  0  0  0  0  0  0  0  0
    9.3864   -5.0461    1.6936 H   0  0  0  0  0  0  0  0  0  0  0  0
    9.3927   -3.5391    2.6397 H   0  0  0  0  0  0  0  0  0  0  0  0
   11.3059   -1.8753    2.1029 H   0  0  0  0  0  0  0  0  0  0  0  0
   12.3460   -2.4017    0.7518 H   0  0  0  0  0  0  0  0  0  0  0  0
   -7.6385   -5.0092   -0.4855 H   0  0  0  0  0  0  0  0  0  0  0  0
   -8.0413   -4.7354   -2.8487 H   0  0  0  0  0  0  0  0  0  0  0  0
   11.2990   -4.3676    0.6255 H   0  0  0  0  0  0  0  0  0  0  0  0
   11.5671   -3.7687    3.4677 H   0  0  0  0  0  0  0  0  0  0  0  0
   12.8652   -4.2173    2.3874 H   0  0  0  0  0  0  0  0  0  0  0  0
   11.5943   -5.3608    2.7483 H   0  0  0  0  0  0  0  0  0  0  0  0
  1  2  1  0  0  0  0
  1  3  1  0  0  0  0
  2  4  1  0  0  0  0
  2  5  2  0  0  0  0
  3  6  2  0  0  0  0
  3  7  1  0  0  0  0
  4  8  2  0  0  0  0
  4  9  1  0  0  0  0
  5  6  1  0  0  0  0
  5 37  1  0  0  0  0
  6 10  1  0  0  0  0
  7 11  1  0  0  0  0
  7 38  1  0  0  0  0
  7 39  1  0  0  0  0
  9 12  1  0  0  0  0
  9 40  1  0  0  0  0
 10 13  1  0  0  0  0
 10 41  1  0  0  0  0
 10 42  1  0  0  0  0
 11 13  1  0  0  0  0
 11 43  1  0  0  0  0
 11 44  1  0  0  0  0
 12 14  1  0  0  0  0
 12 45  1  0  0  0  0
 12 46  1  0  0  0  0
 13 15  1  0  0  0  0
 14 16  1  0  0  0  0
 14 17  1  0  0  0  0
 14 47  1  6  0  0  0
 15 18  2  0  0  0  0
 15 19  1  0  0  0  0
 16 20  1  0  0  0  0
 16 48  1  0  0  0  0
 16 49  1  0  0  0  0
 17 20  1  0  0  0  0
 17 50  1  0  0  0  0
 17 51  1  0  0  0  0
 19 21  1  0  0  0  0
 19 22  2  0  0  0  0
 20 23  1  0  0  0  0
 20 52  1  1  0  0  0
 21 24  1  0  0  0  0
 22 25  1  0  0  0  0
 22 26  1  0  0  0  0
 23 27  1  0  0  0  0
 23 28  1  0  0  0  0
 23 53  1  6  0  0  0
 24 29  2  0  0  0  0
 24 25  1  0  0  0  0
 25 30  2  0  0  0  0
 26 54  1  0  0  0  0
 26 55  1  0  0  0  0
 26 56  1  0  0  0  0
 27 31  1  0  0  0  0
 27 57  1  0  0  0  0
 27 58  1  0  0  0  0
 28 32  1  0  0  0  0
 28 59  1  0  0  0  0
 28 60  1  0  0  0  0
 29 33  1  0  0  0  0
 29 61  1  0  0  0  0
 30 34  1  0  0  0  0
 30 62  1  0  0  0  0
 31 35  1  0  0  0  0
 31 63  1  0  0  0  0
 31 64  1  0  0  0  0
 32 35  1  0  0  0  0
 32 65  1  0  0  0  0
 32 66  1  0  0  0  0
 33 34  2  0  0  0  0
 33 67  1  0  0  0  0
 34 68  1  0  0  0  0
 35 36  1  0  0  0  0
 35 69  1  6  0  0  0
 36 70  1  0  0  0  0
 36 71  1  0  0  0  0
 36 72  1  0  0  0  0
M  CHG  2  23   1  35   1
M  END
>  <Molecule Name>
CTX-1020735

>  <SMILES>
CN1CCN(CC1)C1CC(CNC(=O)C2=CC3=C(CCN(C3)C(=O)C3=C(C)C4=C(O3)C=CC=C4)S2)C1

>  <Batch Name>
CTX-1020735-1

>  <Batch Created Date>
2021-12-16

>  <Batch ID>
CTX-1020735-1

>  <External ID>
CD-44-M

>  <Stereochemistry>
Achiral

>  <Amount 1>
13.8

>  <Unit 1>
mg

>  <CRO 1>
Pharmaron

>  <CRO 1 Total Amount>
21.4

>  <CRO 1 Unit>
mg

>  <Pharmaron Solubility (PBS, pH 7.4): Aqueous Solubility - Batch Mean (uM)>
276.7241

>  <Pharmaron Solubility (PBS, pH 7.4): Aqueous Solubility - Batch Mean (uM) Standard Deviation (±)>


>  <Pharmaron Solubility (PBS, pH 7.4): Aqueous Solubility - Batch Mean (uM) Count>
1.0

>  <log P>
3.14

>  <log D>
2.19

>  <Pharmaron Caliper Assay (CDK2/CCNE1): Minimum measured (%)>
70.3

>  <Pharmaron Caliper Assay (CDK2/CCNE1): IC50 - Batch Mean (uM)>
41.6

>  <Pharmaron ADPGLO (CDK2/E1-25C): Minimum measured (%)>


>  <Pharmaron ADPGLO (CDK2/E1-25C): IC50 - Batch Mean (uM)>


>  <Pharmaron ADPGLO (CDK2/E1-37C): Minimum measured (%)>


>  <Pharmaron ADPGLO (CDK2/E1-37C): IC50 - Batch Mean (uM)>


>  <IncuCyte Kuramochi RB-WT: IC50 - Batch Mean (uM)>
13.0

>  <IncuCyte Kuramochi RB-KO: IC50 - Batch Mean (uM)>
10.8

>  <DSF (npCDK2/CCNE1): dTm D - Batch Mean [Concentration: 100]>


>  <DSF (npCDK2/CCNE1): dTm D - Batch Mean [Concentration: 20.0]>
-0.134

>  <DSF (pCDK2/CCNE1): dTm D - Batch Mean [Concentration: 100]>


>  <DSF (pCDK2/CCNE1): dTm D - Batch Mean [Concentration: 20.0]>


>  <RLM: t1/2 - Batch Mean (Min)>


>  <RLM: Cl int - Batch Mean (uL/min/mg protein)>


>  <RLM: ER (Hepatic extraction ratio) - Batch Mean>


>  <HLM: t1/2 - Batch Mean (Min)>


>  <HLM: Cl int - Batch Mean (uL/min/mg protein)>


>  <HLM: ER (Hepatic extraction ratio) - Batch Mean>


>  <MDCK-WT 4% BSA: Papp (A-B) - Batch Mean (10-6, cm/s)>


>  <MDCK-WT 4% BSA: Papp (B-A) - Batch Mean (10-6, cm/s)>


>  <MDCK-WT 4% BSA: Efflux Ratio - Batch Mean>


>  <MDCK-WT 4% BSA: ~Net A_B - Batch Mean (10-6, cm/s)>


>  <pIC50>
4.380907

>  <Selection_1>
Y

>  <Selection_N>
N

>  <Serie>
Tetrahydrothienopyridine

>  <Selection_T>


>  <Train_Vs_Test>


$$$$
