CTX-1020882
 OpenBabel08272613283D

 72 77  0  0  0  0  0  0  0  0999 V2000
    1.8798   -0.7391    0.0022 S   0  0  0  0  0  0  0  0  0  0  0  0
    2.2035    0.9403    0.0924 C   0  0  0  0  0  0  0  0  0  0  0  0
    0.1980   -0.4790    0.0265 C   0  0  0  0  0  0  0  0  0  0  0  0
    3.5416    1.5069    0.0818 C   0  0  0  0  0  0  0  0  0  0  0  0
    1.0318    1.6689    0.1678 C   0  0  0  0  0  0  0  0  0  0  0  0
   -0.1361    0.8474    0.1317 C   0  0  0  0  0  0  0  0  0  0  0  0
   -0.8069   -1.5731   -0.1305 C   0  0  0  0  0  0  0  0  0  0  0  0
    3.7342    2.7206    0.1142 O   0  0  0  0  0  0  0  0  0  0  0  0
    4.5878    0.6156    0.0328 N   0  0  0  0  0  0  0  0  0  0  0  0
   -1.5338    1.3601    0.1451 C   0  0  0  0  0  0  0  0  0  0  0  0
   -2.2125   -1.0382    0.1868 C   0  0  0  0  0  0  0  0  0  0  0  0
    5.9653    1.0490    0.0272 C   0  0  0  0  0  0  0  0  0  0  0  0
   -2.4507    0.3345   -0.3015 N   0  0  0  0  0  0  0  0  0  0  0  0
    6.6708    0.6224   -1.2334 C   0  0  0  0  0  0  0  0  0  0  0  0
   -3.7003    0.6116   -0.8463 C   0  0  0  0  0  0  0  0  0  0  0  0
    6.2183    1.0553   -2.4778 C   0  0  0  0  0  0  0  0  0  0  0  0
    7.8251   -0.1669   -1.1696 C   0  0  0  0  0  0  0  0  0  0  0  0
   -4.3868   -0.3435   -1.2296 O   0  0  0  0  0  0  0  0  0  0  0  0
   -4.2450    1.9851   -0.9704 C   0  0  0  0  0  0  0  0  0  0  0  0
    6.8892    0.6700   -3.6375 C   0  0  0  0  0  0  0  0  0  0  0  0
    8.5012   -0.5374   -2.3455 C   0  0  0  0  0  0  0  0  0  0  0  0
   -5.6261    1.9186   -1.1566 O   0  0  0  0  0  0  0  0  0  0  0  0
   -3.8556    3.1190   -1.7050 C   0  0  0  0  0  0  0  0  0  0  0  0
    8.0345   -0.1410   -3.6037 C   0  0  0  0  0  0  0  0  0  0  0  0
   -5.7897    2.2924   -2.4531 C   0  0  0  0  0  0  0  0  0  0  0  0
   -4.6969    3.0374   -2.8594 C   0  0  0  0  0  0  0  0  0  0  0  0
   -2.8031    4.1479   -1.5033 C   0  0  0  0  0  0  0  0  0  0  0  0
    8.6504   -0.4715   -4.8033 N   0  0  0  0  0  0  0  0  0  0  0  0
   -6.8465    1.9236   -3.2694 C   0  0  0  0  0  0  0  0  0  0  0  0
   -4.6677    3.5064   -4.1811 C   0  0  0  0  0  0  0  0  0  0  0  0
   10.0719   -0.8468   -4.8580 C   0  0  0  0  0  0  0  0  0  0  0  0
    7.8265   -1.2753   -5.7308 C   0  0  0  0  0  0  0  0  0  0  0  0
   -7.8730    1.1398   -2.8194 O   0  0  0  0  0  0  0  0  0  0  0  0
   -6.7449    2.2732   -4.6090 C   0  0  0  0  0  0  0  0  0  0  0  0
   -5.6686    3.0526   -5.0594 C   0  0  0  0  0  0  0  0  0  0  0  0
   10.5789   -0.6778   -6.3163 C   0  0  0  0  0  0  0  0  0  0  0  0
    8.3525   -1.0865   -7.1695 C   0  0  0  0  0  0  0  0  0  0  0  0
    9.7825   -1.4503   -7.3021 N   0  3  0  0  0  0  0  0  0  0  0  0
   10.2439   -1.1849   -8.6628 C   0  0  0  0  0  0  0  0  0  0  0  0
    1.0036    2.6979    0.2422 H   0  0  0  0  0  0  0  0  0  0  0  0
   -0.5706   -2.3717    0.5413 H   0  0  0  0  0  0  0  0  0  0  0  0
   -0.7844   -1.9316   -1.1384 H   0  0  0  0  0  0  0  0  0  0  0  0
    4.3914   -0.3485    0.0006 H   0  0  0  0  0  0  0  0  0  0  0  0
   -1.6056    2.2055   -0.5069 H   0  0  0  0  0  0  0  0  0  0  0  0
   -1.7901    1.6441    1.1443 H   0  0  0  0  0  0  0  0  0  0  0  0
   -2.3451   -1.0466    1.2485 H   0  0  0  0  0  0  0  0  0  0  0  0
   -2.9097   -1.6743   -0.3174 H   0  0  0  0  0  0  0  0  0  0  0  0
    6.4682    0.6213    0.8693 H   0  0  0  0  0  0  0  0  0  0  0  0
    5.9822    2.1177    0.0773 H   0  0  0  0  0  0  0  0  0  0  0  0
    5.3856    1.6616   -2.5412 H   0  0  0  0  0  0  0  0  0  0  0  0
    8.1824   -0.4789   -0.2531 H   0  0  0  0  0  0  0  0  0  0  0  0
    6.5323    0.9917   -4.5509 H   0  0  0  0  0  0  0  0  0  0  0  0
    9.3561   -1.1116   -2.2795 H   0  0  0  0  0  0  0  0  0  0  0  0
   -2.3213    3.9856   -0.5619 H   0  0  0  0  0  0  0  0  0  0  0  0
   -3.2488    5.1207   -1.5128 H   0  0  0  0  0  0  0  0  0  0  0  0
   -2.0813    4.0787   -2.2901 H   0  0  0  0  0  0  0  0  0  0  0  0
   -3.9367    4.1622   -4.4984 H   0  0  0  0  0  0  0  0  0  0  0  0
   10.1866   -1.8660   -4.5533 H   0  0  0  0  0  0  0  0  0  0  0  0
   10.6386   -0.2202   -4.2014 H   0  0  0  0  0  0  0  0  0  0  0  0
    6.8079   -0.9520   -5.6767 H   0  0  0  0  0  0  0  0  0  0  0  0
    7.8839   -2.3087   -5.4595 H   0  0  0  0  0  0  0  0  0  0  0  0
   -7.9263    0.9133   -1.9118 H   0  0  0  0  0  0  0  0  0  0  0  0
   -7.4651    1.9580   -5.2776 H   0  0  0  0  0  0  0  0  0  0  0  0
   -5.6097    3.2991   -6.0598 H   0  0  0  0  0  0  0  0  0  0  0  0
   11.5950   -1.0097   -6.3642 H   0  0  0  0  0  0  0  0  0  0  0  0
   10.4835    0.3574   -6.5696 H   0  0  0  0  0  0  0  0  0  0  0  0
    8.2322   -0.0601   -7.4471 H   0  0  0  0  0  0  0  0  0  0  0  0
    7.7909   -1.7349   -7.8091 H   0  0  0  0  0  0  0  0  0  0  0  0
    9.9010   -2.4461   -7.1156 H   0  0  0  0  0  0  0  0  0  0  0  0
   10.1289   -0.1438   -8.8817 H   0  0  0  0  0  0  0  0  0  0  0  0
    9.6652   -1.7608   -9.3544 H   0  0  0  0  0  0  0  0  0  0  0  0
   11.2755   -1.4556   -8.7488 H   0  0  0  0  0  0  0  0  0  0  0  0
  1  2  1  0  0  0  0
  1  3  1  0  0  0  0
  2  4  1  0  0  0  0
  2  5  2  0  0  0  0
  3  6  2  0  0  0  0
  3  7  1  0  0  0  0
  4  8  2  0  0  0  0
  4  9  1  0  0  0  0
  5  6  1  0  0  0  0
  5 40  1  0  0  0  0
  6 10  1  0  0  0  0
  7 11  1  0  0  0  0
  7 41  1  0  0  0  0
  7 42  1  0  0  0  0
  9 12  1  0  0  0  0
  9 43  1  0  0  0  0
 10 13  1  0  0  0  0
 10 44  1  0  0  0  0
 10 45  1  0  0  0  0
 11 13  1  0  0  0  0
 11 46  1  0  0  0  0
 11 47  1  0  0  0  0
 12 14  1  0  0  0  0
 12 48  1  0  0  0  0
 12 49  1  0  0  0  0
 13 15  1  0  0  0  0
 14 16  2  0  0  0  0
 14 17  1  0  0  0  0
 15 18  2  0  0  0  0
 15 19  1  0  0  0  0
 16 20  1  0  0  0  0
 16 50  1  0  0  0  0
 17 21  2  0  0  0  0
 17 51  1  0  0  0  0
 19 22  1  0  0  0  0
 19 23  2  0  0  0  0
 20 24  2  0  0  0  0
 20 52  1  0  0  0  0
 21 24  1  0  0  0  0
 21 53  1  0  0  0  0
 22 25  1  0  0  0  0
 23 26  1  0  0  0  0
 23 27  1  0  0  0  0
 24 28  1  0  0  0  0
 25 29  2  0  0  0  0
 25 26  1  0  0  0  0
 26 30  2  0  0  0  0
 27 54  1  0  0  0  0
 27 55  1  0  0  0  0
 27 56  1  0  0  0  0
 28 31  1  0  0  0  0
 28 32  1  0  0  0  0
 29 33  1  0  0  0  0
 29 34  1  0  0  0  0
 30 35  1  0  0  0  0
 30 57  1  0  0  0  0
 31 36  1  0  0  0  0
 31 58  1  0  0  0  0
 31 59  1  0  0  0  0
 32 37  1  0  0  0  0
 32 60  1  0  0  0  0
 32 61  1  0  0  0  0
 33 62  1  0  0  0  0
 34 35  2  0  0  0  0
 34 63  1  0  0  0  0
 35 64  1  0  0  0  0
 36 38  1  0  0  0  0
 36 65  1  0  0  0  0
 36 66  1  0  0  0  0
 37 38  1  0  0  0  0
 37 67  1  0  0  0  0
 37 68  1  0  0  0  0
 38 39  1  0  0  0  0
 38 69  1  0  0  0  0
 39 70  1  0  0  0  0
 39 71  1  0  0  0  0
 39 72  1  0  0  0  0
M  CHG  1  38   1
M  END
>  <Molecule Name>
CTX-1020882

>  <SMILES>
CN1CCN(CC1)C1=CC=C(CNC(=O)C2=CC3=C(CCN(C3)C(=O)C3=C(C)C4=CC=CC(O)=C4O3)S2)C=C1

>  <Batch Name>
CTX-1020882-1

>  <Batch Created Date>
2022-01-13

>  <Batch ID>
CTX-1020882-1

>  <External ID>
CD-44-2-D

>  <Stereochemistry>
Achiral

>  <Amount 1>
7.2

>  <Unit 1>
mg

>  <CRO 1>
Pharmaron

>  <CRO 1 Total Amount>
35.5

>  <CRO 1 Unit>
mg

>  <Pharmaron Solubility (PBS, pH 7.4): Aqueous Solubility - Batch Mean (uM)>
7.6644

>  <Pharmaron Solubility (PBS, pH 7.4): Aqueous Solubility - Batch Mean (uM) Standard Deviation (±)>


>  <Pharmaron Solubility (PBS, pH 7.4): Aqueous Solubility - Batch Mean (uM) Count>
1.0

>  <log P>
3.51

>  <log D>
3.38

>  <Pharmaron Caliper Assay (CDK2/CCNE1): Minimum measured (%)>
30.0

>  <Pharmaron Caliper Assay (CDK2/CCNE1): IC50 - Batch Mean (uM)>
4.72

>  <Pharmaron ADPGLO (CDK2/E1-25C): Minimum measured (%)>
71.5

>  <Pharmaron ADPGLO (CDK2/E1-25C): IC50 - Batch Mean (uM)>
5.03

>  <Pharmaron ADPGLO (CDK2/E1-37C): Minimum measured (%)>
101.0

>  <Pharmaron ADPGLO (CDK2/E1-37C): IC50 - Batch Mean (uM)>
100

>  <IncuCyte Kuramochi RB-WT: IC50 - Batch Mean (uM)>
8.68

>  <IncuCyte Kuramochi RB-KO: IC50 - Batch Mean (uM)>
11.0

>  <DSF (npCDK2/CCNE1): dTm D - Batch Mean [Concentration: 100]>


>  <DSF (npCDK2/CCNE1): dTm D - Batch Mean [Concentration: 20.0]>
1.117

>  <DSF (pCDK2/CCNE1): dTm D - Batch Mean [Concentration: 100]>


>  <DSF (pCDK2/CCNE1): dTm D - Batch Mean [Concentration: 20.0]>
0.517

>  <RLM: t1/2 - Batch Mean (Min)>


>  <RLM: Cl int - Batch Mean (uL/min/mg protein)>


>  <RLM: ER (Hepatic extraction ratio) - Batch Mean>


>  <HLM: t1/2 - Batch Mean (Min)>


>  <HLM: Cl int - Batch Mean (uL/min/mg protein)>


>  <HLM: ER (Hepatic extraction ratio) - Batch Mean>


>  <MDCK-WT 4% BSA: Papp (A-B) - Batch Mean (10-6, cm/s)>


>  <MDCK-WT 4% BSA: Papp (B-A) - Batch Mean (10-6, cm/s)>


>  <MDCK-WT 4% BSA: Efflux Ratio - Batch Mean>


>  <MDCK-WT 4% BSA: ~Net A_B - Batch Mean (10-6, cm/s)>


>  <pIC50>
5.326058

>  <Selection_1>
Y

>  <Selection_N>
N

>  <Serie>
Tetrahydrothienopyridine

>  <Selection_T>


>  <Train_Vs_Test>


$$$$
