CTX-1020699
 OpenBabel08272613283D

 62 67  0  0  0  0  0  0  0  0999 V2000
    4.2948   -0.1329   -2.8849 O   0  0  0  0  0  0  0  0  0  0  0  0
    3.8238   -0.8387   -3.7533 C   0  0  0  0  0  0  0  0  0  0  0  0
    2.5768   -1.4226   -3.6540 N   0  0  0  0  0  0  0  0  0  0  0  0
    4.6191   -1.1456   -5.0042 C   0  0  0  0  0  0  0  0  0  0  0  0
    1.7513   -1.2435   -2.4626 C   0  0  2  0  0  0  0  0  0  0  0  0
    4.0393   -1.8750   -6.0070 N   0  0  0  0  0  0  0  0  0  0  0  0
    5.9290   -0.6801   -5.0505 C   0  0  0  0  0  0  0  0  0  0  0  0
    0.8443   -2.4377   -2.2051 C   0  0  0  0  0  0  0  0  0  0  0  0
    0.9788    0.0850   -2.5294 C   0  0  0  0  0  0  0  0  0  0  0  0
    4.8070   -2.1376   -7.1138 C   0  0  0  0  0  0  0  0  0  0  0  0
    6.7012   -0.9818   -6.1622 C   0  0  0  0  0  0  0  0  0  0  0  0
   -0.4731   -2.2697   -1.7223 C   0  0  0  0  0  0  0  0  0  0  0  0
    1.3494   -3.7416   -2.3468 C   0  0  0  0  0  0  0  0  0  0  0  0
   -0.0116    0.1924   -1.3737 C   0  0  0  0  0  0  0  0  0  0  0  0
    6.1518   -1.7314   -7.2061 C   0  0  0  0  0  0  0  0  0  0  0  0
    4.1697   -2.9311   -8.2663 C   0  0  0  0  0  0  0  0  0  0  0  0
   -1.2741   -3.3975   -1.4812 C   0  0  0  0  0  0  0  0  0  0  0  0
   -1.0688   -0.9082   -1.4819 C   0  0  0  0  0  0  0  0  0  0  0  0
    0.5525   -4.8556   -2.0855 C   0  0  0  0  0  0  0  0  0  0  0  0
    6.9916   -2.0166   -8.4275 C   0  0  0  0  0  0  0  0  0  0  0  0
    4.9545   -2.8911   -9.5089 N   0  0  0  0  0  0  0  0  0  0  0  0
   -0.7621   -4.6825   -1.6642 C   0  0  0  0  0  0  0  0  0  0  0  0
    6.3883   -3.0922   -9.3314 C   0  0  0  0  0  0  0  0  0  0  0  0
    4.3076   -2.7644  -10.7560 C   0  0  0  0  0  0  0  0  0  0  0  0
    3.1138   -3.0491  -10.8677 O   0  0  0  0  0  0  0  0  0  0  0  0
    5.0514   -2.0775  -11.8406 C   0  0  0  0  0  0  0  0  0  0  0  0
    6.0286   -1.2191  -11.3622 O   0  0  0  0  0  0  0  0  0  0  0  0
    4.5735   -1.4479  -13.0022 C   0  0  0  0  0  0  0  0  0  0  0  0
    5.5725    0.0165  -11.6730 C   0  0  0  0  0  0  0  0  0  0  0  0
    4.5837   -0.0740  -12.6351 C   0  0  0  0  0  0  0  0  0  0  0  0
    4.2277   -1.9450  -14.3564 C   0  0  0  0  0  0  0  0  0  0  0  0
    6.0170    1.1920  -11.0844 C   0  0  0  0  0  0  0  0  0  0  0  0
    3.9473    1.1024  -13.0618 C   0  0  0  0  0  0  0  0  0  0  0  0
    5.3355    2.3411  -11.4834 C   0  0  0  0  0  0  0  0  0  0  0  0
    4.3186    2.3052  -12.4482 C   0  0  0  0  0  0  0  0  0  0  0  0
    2.2381   -1.9694   -4.3993 H   0  0  0  0  0  0  0  0  0  0  0  0
    2.4046   -1.1898   -1.6169 H   0  0  0  0  0  0  0  0  0  0  0  0
    6.3178   -0.1222   -4.2742 H   0  0  0  0  0  0  0  0  0  0  0  0
    0.4447    0.1344   -3.4553 H   0  0  0  0  0  0  0  0  0  0  0  0
    1.6773    0.8926   -2.4598 H   0  0  0  0  0  0  0  0  0  0  0  0
    7.6781   -0.6539   -6.2186 H   0  0  0  0  0  0  0  0  0  0  0  0
    2.3267   -3.8769   -2.6494 H   0  0  0  0  0  0  0  0  0  0  0  0
   -0.4914    1.1482   -1.4068 H   0  0  0  0  0  0  0  0  0  0  0  0
    0.5160    0.0812   -0.4495 H   0  0  0  0  0  0  0  0  0  0  0  0
    3.2009   -2.5222   -8.4641 H   0  0  0  0  0  0  0  0  0  0  0  0
    4.1223   -3.9541   -7.9563 H   0  0  0  0  0  0  0  0  0  0  0  0
   -2.2492   -3.2750   -1.1662 H   0  0  0  0  0  0  0  0  0  0  0  0
   -1.6275   -0.9360   -0.5698 H   0  0  0  0  0  0  0  0  0  0  0  0
   -1.6898   -0.6762   -2.3217 H   0  0  0  0  0  0  0  0  0  0  0  0
    0.9368   -5.8060   -2.2044 H   0  0  0  0  0  0  0  0  0  0  0  0
    7.9587   -2.3438   -8.1072 H   0  0  0  0  0  0  0  0  0  0  0  0
    7.0436   -1.1126   -8.9976 H   0  0  0  0  0  0  0  0  0  0  0  0
   -1.3592   -5.5054   -1.4868 H   0  0  0  0  0  0  0  0  0  0  0  0
    6.5536   -4.0524   -8.8890 H   0  0  0  0  0  0  0  0  0  0  0  0
    6.8595   -3.0315  -10.2901 H   0  0  0  0  0  0  0  0  0  0  0  0
    4.2953   -3.0127  -14.3725 H   0  0  0  0  0  0  0  0  0  0  0  0
    4.9088   -1.5338  -15.0720 H   0  0  0  0  0  0  0  0  0  0  0  0
    3.2298   -1.6470  -14.6017 H   0  0  0  0  0  0  0  0  0  0  0  0
    6.7924    1.2140  -10.4037 H   0  0  0  0  0  0  0  0  0  0  0  0
    3.2295    1.0814  -13.8030 H   0  0  0  0  0  0  0  0  0  0  0  0
    5.5872    3.2458  -11.0554 H   0  0  0  0  0  0  0  0  0  0  0  0
    3.8362    3.1791  -12.7104 H   0  0  0  0  0  0  0  0  0  0  0  0
  1  2  2  0  0  0  0
  2  3  1  0  0  0  0
  2  4  1  0  0  0  0
  3 36  1  0  0  0  0
  4  6  2  0  0  0  0
  4  7  1  0  0  0  0
  5  8  1  0  0  0  0
  5  9  1  0  0  0  0
  5  3  1  0  0  0  0
  5 37  1  1  0  0  0
  6 10  1  0  0  0  0
  7 11  2  0  0  0  0
  7 38  1  0  0  0  0
  8 12  2  0  0  0  0
  8 13  1  0  0  0  0
  9 14  1  0  0  0  0
  9 39  1  0  0  0  0
  9 40  1  0  0  0  0
 10 15  2  0  0  0  0
 10 16  1  0  0  0  0
 11 15  1  0  0  0  0
 11 41  1  0  0  0  0
 12 17  1  0  0  0  0
 12 18  1  0  0  0  0
 13 19  2  0  0  0  0
 13 42  1  0  0  0  0
 14 18  1  0  0  0  0
 14 43  1  0  0  0  0
 14 44  1  0  0  0  0
 15 20  1  0  0  0  0
 16 21  1  0  0  0  0
 16 45  1  0  0  0  0
 16 46  1  0  0  0  0
 17 22  2  0  0  0  0
 17 47  1  0  0  0  0
 18 48  1  0  0  0  0
 18 49  1  0  0  0  0
 19 22  1  0  0  0  0
 19 50  1  0  0  0  0
 20 23  1  0  0  0  0
 20 51  1  0  0  0  0
 20 52  1  0  0  0  0
 21 24  1  0  0  0  0
 21 23  1  0  0  0  0
 22 53  1  0  0  0  0
 23 54  1  0  0  0  0
 23 55  1  0  0  0  0
 24 25  2  0  0  0  0
 24 26  1  0  0  0  0
 26 27  1  0  0  0  0
 26 28  2  0  0  0  0
 27 29  1  0  0  0  0
 28 30  1  0  0  0  0
 28 31  1  0  0  0  0
 29 32  2  0  0  0  0
 29 30  1  0  0  0  0
 30 33  2  0  0  0  0
 31 56  1  0  0  0  0
 31 57  1  0  0  0  0
 31 58  1  0  0  0  0
 32 34  1  0  0  0  0
 32 59  1  0  0  0  0
 33 35  1  0  0  0  0
 33 60  1  0  0  0  0
 34 35  2  0  0  0  0
 34 61  1  0  0  0  0
 35 62  1  0  0  0  0
M  END
>  <Molecule Name>
CTX-1020699

>  <SMILES>
CC1=C(OC2=C1C=CC=C2)C(=O)N1CCC2=CC=C(N=C2C1)C(=O)NC1CCCC2=C1C=CC=C2

>  <Batch Name>
CTX-1020699-1

>  <Batch Created Date>
2021-12-09

>  <Batch ID>
CTX-1020699-1

>  <External ID>
CD-42-G

>  <Stereochemistry>
Racemic or presumed racemic

>  <Amount 1>
2.3

>  <Unit 1>
mg

>  <CRO 1>
Pharmaron

>  <CRO 1 Total Amount>
15.7

>  <CRO 1 Unit>
mg

>  <Pharmaron Solubility (PBS, pH 7.4): Aqueous Solubility - Batch Mean (uM)>
0.0006

>  <Pharmaron Solubility (PBS, pH 7.4): Aqueous Solubility - Batch Mean (uM) Standard Deviation (±)>


>  <Pharmaron Solubility (PBS, pH 7.4): Aqueous Solubility - Batch Mean (uM) Count>
1.0

>  <log P>
4.67

>  <log D>
4.67

>  <Pharmaron Caliper Assay (CDK2/CCNE1): Minimum measured (%)>
77.3

>  <Pharmaron Caliper Assay (CDK2/CCNE1): IC50 - Batch Mean (uM)>
19.0

>  <Pharmaron ADPGLO (CDK2/E1-25C): Minimum measured (%)>


>  <Pharmaron ADPGLO (CDK2/E1-25C): IC50 - Batch Mean (uM)>


>  <Pharmaron ADPGLO (CDK2/E1-37C): Minimum measured (%)>


>  <Pharmaron ADPGLO (CDK2/E1-37C): IC50 - Batch Mean (uM)>


>  <IncuCyte Kuramochi RB-WT: IC50 - Batch Mean (uM)>
20.0

>  <IncuCyte Kuramochi RB-KO: IC50 - Batch Mean (uM)>
20.0

>  <DSF (npCDK2/CCNE1): dTm D - Batch Mean [Concentration: 100]>


>  <DSF (npCDK2/CCNE1): dTm D - Batch Mean [Concentration: 20.0]>
-1.14

>  <DSF (pCDK2/CCNE1): dTm D - Batch Mean [Concentration: 100]>


>  <DSF (pCDK2/CCNE1): dTm D - Batch Mean [Concentration: 20.0]>
-0.207

>  <RLM: t1/2 - Batch Mean (Min)>


>  <RLM: Cl int - Batch Mean (uL/min/mg protein)>


>  <RLM: ER (Hepatic extraction ratio) - Batch Mean>


>  <HLM: t1/2 - Batch Mean (Min)>


>  <HLM: Cl int - Batch Mean (uL/min/mg protein)>


>  <HLM: ER (Hepatic extraction ratio) - Batch Mean>


>  <MDCK-WT 4% BSA: Papp (A-B) - Batch Mean (10-6, cm/s)>


>  <MDCK-WT 4% BSA: Papp (B-A) - Batch Mean (10-6, cm/s)>


>  <MDCK-WT 4% BSA: Efflux Ratio - Batch Mean>


>  <MDCK-WT 4% BSA: ~Net A_B - Batch Mean (10-6, cm/s)>


>  <pIC50>
4.721246

>  <Selection_1>
Y

>  <Selection_N>


>  <Serie>
Naphthyridine

>  <Selection_T>
N

>  <Train_Vs_Test>


$$$$
