CTX-1020697
 OpenBabel08272613283D

 74 79  0  0  0  0  0  0  0  0999 V2000
    1.6700    1.0859   -0.1730 O   0  0  0  0  0  0  0  0  0  0  0  0
    2.3455    0.0610   -0.2292 C   0  0  0  0  0  0  0  0  0  0  0  0
    2.4140   -0.8569    0.7948 N   0  0  0  0  0  0  0  0  0  0  0  0
    3.1127   -0.2712   -1.4750 C   0  0  0  0  0  0  0  0  0  0  0  0
    1.6607   -0.6893    2.0157 C   0  0  0  0  0  0  0  0  0  0  0  0
    4.1044   -1.2193   -1.4155 N   0  0  0  0  0  0  0  0  0  0  0  0
    2.7380    0.3899   -2.6421 C   0  0  0  0  0  0  0  0  0  0  0  0
    2.5711   -0.6548    3.2094 C   0  0  0  0  0  0  0  0  0  0  0  0
    4.7635   -1.4910   -2.5932 C   0  0  0  0  0  0  0  0  0  0  0  0
    3.4019    0.0845   -3.8139 C   0  0  0  0  0  0  0  0  0  0  0  0
    3.2399    0.5265    3.5362 C   0  0  0  0  0  0  0  0  0  0  0  0
    2.7924   -1.7907    3.9914 C   0  0  0  0  0  0  0  0  0  0  0  0
    4.4292   -0.8537   -3.8039 C   0  0  0  0  0  0  0  0  0  0  0  0
    5.9324   -2.4835   -2.5587 C   0  0  0  0  0  0  0  0  0  0  0  0
    4.0948    0.5785    4.6389 C   0  0  0  0  0  0  0  0  0  0  0  0
    3.6340   -1.7279    5.1079 C   0  0  0  0  0  0  0  0  0  0  0  0
    5.0919   -1.2117   -5.1074 C   0  0  0  0  0  0  0  0  0  0  0  0
    6.3182   -2.9590   -3.8911 N   0  0  0  0  0  0  0  0  0  0  0  0
    4.2776   -0.5322    5.4740 C   0  0  0  0  0  0  0  0  0  0  0  0
    6.4136   -1.9447   -4.9264 C   0  0  0  0  0  0  0  0  0  0  0  0
    6.8363   -4.2439   -4.0771 C   0  0  0  0  0  0  0  0  0  0  0  0
    5.1489   -0.5023    6.7316 C   0  0  2  0  0  0  0  0  0  0  0  0
    7.4315   -4.8307   -3.1749 O   0  0  0  0  0  0  0  0  0  0  0  0
    6.3777   -4.9263   -5.2923 C   0  0  0  0  0  0  0  0  0  0  0  0
    4.3823   -0.9285    7.9968 C   0  0  0  0  0  0  0  0  0  0  0  0
    5.8379    0.8322    7.0665 C   0  0  0  0  0  0  0  0  0  0  0  0
    5.1980   -4.4497   -5.8224 O   0  0  0  0  0  0  0  0  0  0  0  0
    6.5382   -6.2320   -5.7558 C   0  0  0  0  0  0  0  0  0  0  0  0
    3.3724    0.1364    8.4238 C   0  0  0  0  0  0  0  0  0  0  0  0
    4.8623    1.8987    7.5798 C   0  0  0  0  0  0  0  0  0  0  0  0
    4.4275   -5.5456   -6.0081 C   0  0  0  0  0  0  0  0  0  0  0  0
    5.1888   -6.6919   -5.8406 C   0  0  0  0  0  0  0  0  0  0  0  0
    7.7528   -7.0479   -5.9898 C   0  0  0  0  0  0  0  0  0  0  0  0
    3.9898    1.4470    8.6711 N   0  3  1  0  0  0  0  0  0  0  0  0
    3.0619   -5.5188   -6.2365 C   0  0  0  0  0  0  0  0  0  0  0  0
    4.5294   -7.9311   -5.7922 C   0  0  0  0  0  0  0  0  0  0  0  0
    2.9312    2.4439    8.8841 C   0  0  0  0  0  0  0  0  0  0  0  0
    2.4204   -6.7549   -6.1533 C   0  0  0  0  0  0  0  0  0  0  0  0
    3.1316   -7.9347   -5.9014 C   0  0  0  0  0  0  0  0  0  0  0  0
    2.9913   -1.6477    0.6922 H   0  0  0  0  0  0  0  0  0  0  0  0
    0.9775   -1.5062    2.1202 H   0  0  0  0  0  0  0  0  0  0  0  0
    1.1304    0.2387    1.9644 H   0  0  0  0  0  0  0  0  0  0  0  0
    1.9816    1.0918   -2.6316 H   0  0  0  0  0  0  0  0  0  0  0  0
    3.1366    0.5514   -4.6952 H   0  0  0  0  0  0  0  0  0  0  0  0
    3.1010    1.3694    2.9571 H   0  0  0  0  0  0  0  0  0  0  0  0
    2.3328   -2.6812    3.7447 H   0  0  0  0  0  0  0  0  0  0  0  0
    5.6468   -3.3266   -1.9650 H   0  0  0  0  0  0  0  0  0  0  0  0
    6.7757   -1.9714   -2.1446 H   0  0  0  0  0  0  0  0  0  0  0  0
    4.6029    1.4532    4.8433 H   0  0  0  0  0  0  0  0  0  0  0  0
    3.7855   -2.5770    5.6745 H   0  0  0  0  0  0  0  0  0  0  0  0
    5.2749   -0.3106   -5.6547 H   0  0  0  0  0  0  0  0  0  0  0  0
    4.4310   -1.8717   -5.6295 H   0  0  0  0  0  0  0  0  0  0  0  0
    7.1692   -1.2382   -4.6533 H   0  0  0  0  0  0  0  0  0  0  0  0
    6.6610   -2.4268   -5.8491 H   0  0  0  0  0  0  0  0  0  0  0  0
    5.9108   -1.2043    6.4640 H   0  0  0  0  0  0  0  0  0  0  0  0
    5.0817   -1.0833    8.7917 H   0  0  0  0  0  0  0  0  0  0  0  0
    3.8486   -1.8299    7.7789 H   0  0  0  0  0  0  0  0  0  0  0  0
    6.3127    1.2021    6.1818 H   0  0  0  0  0  0  0  0  0  0  0  0
    6.5430    0.6409    7.8482 H   0  0  0  0  0  0  0  0  0  0  0  0
    2.8928   -0.1897    9.3230 H   0  0  0  0  0  0  0  0  0  0  0  0
    2.6758    0.2571    7.6207 H   0  0  0  0  0  0  0  0  0  0  0  0
    4.2440    2.2076    6.7630 H   0  0  0  0  0  0  0  0  0  0  0  0
    5.4591    2.6939    7.9750 H   0  0  0  0  0  0  0  0  0  0  0  0
    8.6225   -6.4391   -5.8564 H   0  0  0  0  0  0  0  0  0  0  0  0
    7.7368   -7.4332   -6.9879 H   0  0  0  0  0  0  0  0  0  0  0  0
    7.7761   -7.8605   -5.2941 H   0  0  0  0  0  0  0  0  0  0  0  0
    4.5788    1.3455    9.4976 H   0  0  0  0  0  0  0  0  0  0  0  0
    2.5548   -4.6464   -6.4529 H   0  0  0  0  0  0  0  0  0  0  0  0
    5.0570   -8.8109   -5.6799 H   0  0  0  0  0  0  0  0  0  0  0  0
    2.3341    2.5245    7.9998 H   0  0  0  0  0  0  0  0  0  0  0  0
    3.3739    3.3930    9.1033 H   0  0  0  0  0  0  0  0  0  0  0  0
    2.3148    2.1399    9.7042 H   0  0  0  0  0  0  0  0  0  0  0  0
    1.3973   -6.8010   -6.2805 H   0  0  0  0  0  0  0  0  0  0  0  0
    2.6174   -8.8230   -5.7940 H   0  0  0  0  0  0  0  0  0  0  0  0
  1  2  2  0  0  0  0
  2  3  1  0  0  0  0
  2  4  1  0  0  0  0
  3  5  1  0  0  0  0
  3 40  1  0  0  0  0
  4  6  2  0  0  0  0
  4  7  1  0  0  0  0
  5  8  1  0  0  0  0
  5 41  1  0  0  0  0
  5 42  1  0  0  0  0
  6  9  1  0  0  0  0
  7 10  2  0  0  0  0
  7 43  1  0  0  0  0
  8 11  2  0  0  0  0
  8 12  1  0  0  0  0
  9 13  2  0  0  0  0
  9 14  1  0  0  0  0
 10 13  1  0  0  0  0
 10 44  1  0  0  0  0
 11 15  1  0  0  0  0
 11 45  1  0  0  0  0
 12 16  2  0  0  0  0
 12 46  1  0  0  0  0
 13 17  1  0  0  0  0
 14 18  1  0  0  0  0
 14 47  1  0  0  0  0
 14 48  1  0  0  0  0
 15 19  2  0  0  0  0
 15 49  1  0  0  0  0
 16 19  1  0  0  0  0
 16 50  1  0  0  0  0
 17 20  1  0  0  0  0
 17 51  1  0  0  0  0
 17 52  1  0  0  0  0
 18 21  1  0  0  0  0
 18 20  1  0  0  0  0
 19 22  1  0  0  0  0
 20 53  1  0  0  0  0
 20 54  1  0  0  0  0
 21 23  2  0  0  0  0
 21 24  1  0  0  0  0
 22 25  1  0  0  0  0
 22 26  1  0  0  0  0
 22 55  1  6  0  0  0
 24 27  1  0  0  0  0
 24 28  2  0  0  0  0
 25 29  1  0  0  0  0
 25 56  1  0  0  0  0
 25 57  1  0  0  0  0
 26 30  1  0  0  0  0
 26 58  1  0  0  0  0
 26 59  1  0  0  0  0
 27 31  1  0  0  0  0
 28 32  1  0  0  0  0
 28 33  1  0  0  0  0
 29 34  1  0  0  0  0
 29 60  1  0  0  0  0
 29 61  1  0  0  0  0
 30 34  1  0  0  0  0
 30 62  1  0  0  0  0
 30 63  1  0  0  0  0
 31 35  2  0  0  0  0
 31 32  1  0  0  0  0
 32 36  2  0  0  0  0
 33 64  1  0  0  0  0
 33 65  1  0  0  0  0
 33 66  1  0  0  0  0
 34 37  1  0  0  0  0
 34 67  1  1  0  0  0
 35 38  1  0  0  0  0
 35 68  1  0  0  0  0
 36 39  1  0  0  0  0
 36 69  1  0  0  0  0
 37 70  1  0  0  0  0
 37 71  1  0  0  0  0
 37 72  1  0  0  0  0
 38 39  2  0  0  0  0
 38 73  1  0  0  0  0
 39 74  1  0  0  0  0
M  CHG  1  34   1
M  END
>  <Molecule Name>
CTX-1020697

>  <SMILES>
CN1CCC(CC1)C1=CC=C(CNC(=O)C2=CC=C3CCN(CC3=N2)C(=O)C2=C(C)C3=C(O2)C=CC=C3)C=C1

>  <Batch Name>
CTX-1020697-1

>  <Batch Created Date>
2021-12-09

>  <Batch ID>
CTX-1020697-1

>  <External ID>
CD-42-C

>  <Stereochemistry>
Achiral

>  <Amount 1>
2.1

>  <Unit 1>
mg

>  <CRO 1>
Pharmaron

>  <CRO 1 Total Amount>
17.1

>  <CRO 1 Unit>
mg

>  <Pharmaron Solubility (PBS, pH 7.4): Aqueous Solubility - Batch Mean (uM)>


>  <Pharmaron Solubility (PBS, pH 7.4): Aqueous Solubility - Batch Mean (uM) Standard Deviation (±)>


>  <Pharmaron Solubility (PBS, pH 7.4): Aqueous Solubility - Batch Mean (uM) Count>


>  <log P>
4.16

>  <log D>
2.43

>  <Pharmaron Caliper Assay (CDK2/CCNE1): Minimum measured (%)>
18.2

>  <Pharmaron Caliper Assay (CDK2/CCNE1): IC50 - Batch Mean (uM)>
3.87

>  <Pharmaron ADPGLO (CDK2/E1-25C): Minimum measured (%)>


>  <Pharmaron ADPGLO (CDK2/E1-25C): IC50 - Batch Mean (uM)>


>  <Pharmaron ADPGLO (CDK2/E1-37C): Minimum measured (%)>


>  <Pharmaron ADPGLO (CDK2/E1-37C): IC50 - Batch Mean (uM)>


>  <IncuCyte Kuramochi RB-WT: IC50 - Batch Mean (uM)>
11.3

>  <IncuCyte Kuramochi RB-KO: IC50 - Batch Mean (uM)>
6.02

>  <DSF (npCDK2/CCNE1): dTm D - Batch Mean [Concentration: 100]>


>  <DSF (npCDK2/CCNE1): dTm D - Batch Mean [Concentration: 20.0]>
0.6629999999999999

>  <DSF (pCDK2/CCNE1): dTm D - Batch Mean [Concentration: 100]>


>  <DSF (pCDK2/CCNE1): dTm D - Batch Mean [Concentration: 20.0]>
0.16

>  <RLM: t1/2 - Batch Mean (Min)>
5.25

>  <RLM: Cl int - Batch Mean (uL/min/mg protein)>
264.05

>  <RLM: ER (Hepatic extraction ratio) - Batch Mean>
0.905

>  <HLM: t1/2 - Batch Mean (Min)>
38.67

>  <HLM: Cl int - Batch Mean (uL/min/mg protein)>
36.44

>  <HLM: ER (Hepatic extraction ratio) - Batch Mean>
0.638

>  <MDCK-WT 4% BSA: Papp (A-B) - Batch Mean (10-6, cm/s)>


>  <MDCK-WT 4% BSA: Papp (B-A) - Batch Mean (10-6, cm/s)>


>  <MDCK-WT 4% BSA: Efflux Ratio - Batch Mean>


>  <MDCK-WT 4% BSA: ~Net A_B - Batch Mean (10-6, cm/s)>


>  <pIC50>
5.412289

>  <Selection_1>
Y

>  <Selection_N>


>  <Serie>
Naphthyridine

>  <Selection_T>
N

>  <Train_Vs_Test>


$$$$
