CTX-1020695
 OpenBabel08272613283D

 64 69  0  0  0  0  0  0  0  0999 V2000
    1.3544    0.2509    0.7142 O   0  0  0  0  0  0  0  0  0  0  0  0
    2.3202   -0.0528    0.0177 C   0  0  0  0  0  0  0  0  0  0  0  0
    2.8248   -1.3319   -0.0335 N   0  0  0  0  0  0  0  0  0  0  0  0
    2.9958    0.9923   -0.8278 C   0  0  0  0  0  0  0  0  0  0  0  0
    2.2027   -2.4135    0.6983 C   0  0  0  0  0  0  0  0  0  0  0  0
    4.0079    0.6227   -1.6761 N   0  0  0  0  0  0  0  0  0  0  0  0
    2.5189    2.2913   -0.7085 C   0  0  0  0  0  0  0  0  0  0  0  0
    3.1405   -3.0501    1.6899 C   0  0  0  0  0  0  0  0  0  0  0  0
    4.5494    1.6203   -2.4597 C   0  0  0  0  0  0  0  0  0  0  0  0
    3.0913    3.2809   -1.4900 C   0  0  0  0  0  0  0  0  0  0  0  0
    3.2623   -2.5345    2.9918 C   0  0  0  0  0  0  0  0  0  0  0  0
    3.9056   -4.1636    1.3304 C   0  0  0  0  0  0  0  0  0  0  0  0
    4.1196    2.9539   -2.3731 C   0  0  0  0  0  0  0  0  0  0  0  0
    5.6795    1.2464   -3.4365 C   0  0  0  0  0  0  0  0  0  0  0  0
    4.0994   -3.1374    3.9420 C   0  0  0  0  0  0  0  0  0  0  0  0
    4.7732   -4.7494    2.2521 C   0  0  0  0  0  0  0  0  0  0  0  0
    4.6727    4.0346   -3.2712 C   0  0  0  0  0  0  0  0  0  0  0  0
    5.9364    2.2824   -4.4490 N   0  0  0  0  0  0  0  0  0  0  0  0
    4.2390   -2.5488    5.2108 N   0  0  0  0  0  0  0  0  0  0  0  0
    4.8903   -4.2315    3.5500 C   0  0  0  0  0  0  0  0  0  0  0  0
    5.9831    3.6467   -3.9462 C   0  0  0  0  0  0  0  0  0  0  0  0
    6.2727    1.9402   -5.7710 C   0  0  0  0  0  0  0  0  0  0  0  0
    4.8104   -3.4038    6.2422 C   0  0  0  0  0  0  0  0  0  0  0  0
    5.8229   -4.8988    4.5298 C   0  0  0  0  0  0  0  0  0  0  0  0
    6.7767    0.8464   -6.0297 O   0  0  0  0  0  0  0  0  0  0  0  0
    5.7647    2.8463   -6.8244 C   0  0  0  0  0  0  0  0  0  0  0  0
    6.1084   -4.0184    5.7418 C   0  0  0  0  0  0  0  0  0  0  0  0
    4.6261    3.5362   -6.4443 O   0  0  0  0  0  0  0  0  0  0  0  0
    5.6266    2.6568   -8.2059 C   0  0  0  0  0  0  0  0  0  0  0  0
    3.6583    3.0650   -7.2649 C   0  0  0  0  0  0  0  0  0  0  0  0
    4.2283    2.4069   -8.3411 C   0  0  0  0  0  0  0  0  0  0  0  0
    6.5999    2.7153   -9.3200 C   0  0  0  0  0  0  0  0  0  0  0  0
    2.3096    3.1880   -7.0255 C   0  0  0  0  0  0  0  0  0  0  0  0
    3.3849    1.7723   -9.2631 C   0  0  0  0  0  0  0  0  0  0  0  0
    1.4743    2.4932   -7.9164 C   0  0  0  0  0  0  0  0  0  0  0  0
    2.0076    1.7864   -9.0057 C   0  0  0  0  0  0  0  0  0  0  0  0
    3.6242   -1.5144   -0.5784 H   0  0  0  0  0  0  0  0  0  0  0  0
    1.8811   -3.1594    0.0018 H   0  0  0  0  0  0  0  0  0  0  0  0
    1.3780   -2.0057    1.2447 H   0  0  0  0  0  0  0  0  0  0  0  0
    1.7546    2.5141   -0.0518 H   0  0  0  0  0  0  0  0  0  0  0  0
    2.7587    4.2553   -1.4192 H   0  0  0  0  0  0  0  0  0  0  0  0
    2.7240   -1.6940    3.2542 H   0  0  0  0  0  0  0  0  0  0  0  0
    3.8281   -4.5541    0.3783 H   0  0  0  0  0  0  0  0  0  0  0  0
    5.4099    0.3403   -3.9378 H   0  0  0  0  0  0  0  0  0  0  0  0
    6.5744    1.1358   -2.8603 H   0  0  0  0  0  0  0  0  0  0  0  0
    5.3337   -5.5709    1.9765 H   0  0  0  0  0  0  0  0  0  0  0  0
    4.8409    4.9121   -2.6824 H   0  0  0  0  0  0  0  0  0  0  0  0
    3.9541    4.2004   -4.0465 H   0  0  0  0  0  0  0  0  0  0  0  0
    3.9683   -1.6195    5.3905 H   0  0  0  0  0  0  0  0  0  0  0  0
    6.7787    3.7290   -3.2356 H   0  0  0  0  0  0  0  0  0  0  0  0
    6.1441    4.3057   -4.7737 H   0  0  0  0  0  0  0  0  0  0  0  0
    4.1175   -4.1833    6.4814 H   0  0  0  0  0  0  0  0  0  0  0  0
    5.0105   -2.8185    7.1152 H   0  0  0  0  0  0  0  0  0  0  0  0
    6.7467   -5.1142    4.0348 H   0  0  0  0  0  0  0  0  0  0  0  0
    5.3502   -5.7937    4.8770 H   0  0  0  0  0  0  0  0  0  0  0  0
    6.5442   -4.6118    6.5183 H   0  0  0  0  0  0  0  0  0  0  0  0
    6.7867   -3.2392    5.4634 H   0  0  0  0  0  0  0  0  0  0  0  0
    7.5758    2.9179   -8.9308 H   0  0  0  0  0  0  0  0  0  0  0  0
    6.3183    3.4926   -9.9992 H   0  0  0  0  0  0  0  0  0  0  0  0
    6.6091    1.7775   -9.8352 H   0  0  0  0  0  0  0  0  0  0  0  0
    1.9369    3.7515   -6.2454 H   0  0  0  0  0  0  0  0  0  0  0  0
    3.7655    1.3100  -10.1036 H   0  0  0  0  0  0  0  0  0  0  0  0
    0.4532    2.5027   -7.7677 H   0  0  0  0  0  0  0  0  0  0  0  0
    1.3718    1.2661   -9.6302 H   0  0  0  0  0  0  0  0  0  0  0  0
  1  2  2  0  0  0  0
  2  3  1  0  0  0  0
  2  4  1  0  0  0  0
  3  5  1  0  0  0  0
  3 37  1  0  0  0  0
  4  6  2  0  0  0  0
  4  7  1  0  0  0  0
  5  8  1  0  0  0  0
  5 38  1  0  0  0  0
  5 39  1  0  0  0  0
  6  9  1  0  0  0  0
  7 10  2  0  0  0  0
  7 40  1  0  0  0  0
  8 11  2  0  0  0  0
  8 12  1  0  0  0  0
  9 13  2  0  0  0  0
  9 14  1  0  0  0  0
 10 13  1  0  0  0  0
 10 41  1  0  0  0  0
 11 15  1  0  0  0  0
 11 42  1  0  0  0  0
 12 16  2  0  0  0  0
 12 43  1  0  0  0  0
 13 17  1  0  0  0  0
 14 18  1  0  0  0  0
 14 44  1  0  0  0  0
 14 45  1  0  0  0  0
 15 19  1  0  0  0  0
 15 20  2  0  0  0  0
 16 20  1  0  0  0  0
 16 46  1  0  0  0  0
 17 21  1  0  0  0  0
 17 47  1  0  0  0  0
 17 48  1  0  0  0  0
 18 22  1  0  0  0  0
 18 21  1  0  0  0  0
 19 23  1  0  0  0  0
 19 49  1  0  0  0  0
 20 24  1  0  0  0  0
 21 50  1  0  0  0  0
 21 51  1  0  0  0  0
 22 25  2  0  0  0  0
 22 26  1  0  0  0  0
 23 27  1  0  0  0  0
 23 52  1  0  0  0  0
 23 53  1  0  0  0  0
 24 27  1  0  0  0  0
 24 54  1  0  0  0  0
 24 55  1  0  0  0  0
 26 28  1  0  0  0  0
 26 29  2  0  0  0  0
 27 56  1  0  0  0  0
 27 57  1  0  0  0  0
 28 30  1  0  0  0  0
 29 31  1  0  0  0  0
 29 32  1  0  0  0  0
 30 33  2  0  0  0  0
 30 31  1  0  0  0  0
 31 34  2  0  0  0  0
 32 58  1  0  0  0  0
 32 59  1  0  0  0  0
 32 60  1  0  0  0  0
 33 35  1  0  0  0  0
 33 61  1  0  0  0  0
 34 36  1  0  0  0  0
 34 62  1  0  0  0  0
 35 36  2  0  0  0  0
 35 63  1  0  0  0  0
 36 64  1  0  0  0  0
M  END
>  <Molecule Name>
CTX-1020695

>  <SMILES>
CC1=C(OC2=C1C=CC=C2)C(=O)N1CCC2=CC=C(N=C2C1)C(=O)NCC1=CC=C2CCCNC2=C1

>  <Batch Name>
CTX-1020695-1

>  <Batch Created Date>
2021-12-09

>  <Batch ID>
CTX-1020695-1

>  <External ID>
CD-42-A

>  <Stereochemistry>
Achiral

>  <Amount 1>
7.6

>  <Unit 1>
mg

>  <CRO 1>
Pharmaron

>  <CRO 1 Total Amount>
16.9

>  <CRO 1 Unit>
mg

>  <Pharmaron Solubility (PBS, pH 7.4): Aqueous Solubility - Batch Mean (uM)>


>  <Pharmaron Solubility (PBS, pH 7.4): Aqueous Solubility - Batch Mean (uM) Standard Deviation (±)>


>  <Pharmaron Solubility (PBS, pH 7.4): Aqueous Solubility - Batch Mean (uM) Count>


>  <log P>
3.63

>  <log D>
3.63

>  <Pharmaron Caliper Assay (CDK2/CCNE1): Minimum measured (%)>
63.4

>  <Pharmaron Caliper Assay (CDK2/CCNE1): IC50 - Batch Mean (uM)>
2.72

>  <Pharmaron ADPGLO (CDK2/E1-25C): Minimum measured (%)>


>  <Pharmaron ADPGLO (CDK2/E1-25C): IC50 - Batch Mean (uM)>


>  <Pharmaron ADPGLO (CDK2/E1-37C): Minimum measured (%)>


>  <Pharmaron ADPGLO (CDK2/E1-37C): IC50 - Batch Mean (uM)>


>  <IncuCyte Kuramochi RB-WT: IC50 - Batch Mean (uM)>
7.53

>  <IncuCyte Kuramochi RB-KO: IC50 - Batch Mean (uM)>
20.0

>  <DSF (npCDK2/CCNE1): dTm D - Batch Mean [Concentration: 100]>


>  <DSF (npCDK2/CCNE1): dTm D - Batch Mean [Concentration: 20.0]>
0.29600000000000004

>  <DSF (pCDK2/CCNE1): dTm D - Batch Mean [Concentration: 100]>


>  <DSF (pCDK2/CCNE1): dTm D - Batch Mean [Concentration: 20.0]>
0.16

>  <RLM: t1/2 - Batch Mean (Min)>


>  <RLM: Cl int - Batch Mean (uL/min/mg protein)>


>  <RLM: ER (Hepatic extraction ratio) - Batch Mean>


>  <HLM: t1/2 - Batch Mean (Min)>


>  <HLM: Cl int - Batch Mean (uL/min/mg protein)>


>  <HLM: ER (Hepatic extraction ratio) - Batch Mean>


>  <MDCK-WT 4% BSA: Papp (A-B) - Batch Mean (10-6, cm/s)>


>  <MDCK-WT 4% BSA: Papp (B-A) - Batch Mean (10-6, cm/s)>


>  <MDCK-WT 4% BSA: Efflux Ratio - Batch Mean>


>  <MDCK-WT 4% BSA: ~Net A_B - Batch Mean (10-6, cm/s)>


>  <pIC50>
5.565431

>  <Selection_1>
Y

>  <Selection_N>


>  <Serie>
Naphthyridine

>  <Selection_T>
N

>  <Train_Vs_Test>


$$$$
