CTX-1020696
 OpenBabel08272613283D

 69 74  0  0  0  0  0  0  0  0999 V2000
    1.1079   -0.4274    0.4513 O   0  0  0  0  0  0  0  0  0  0  0  0
    2.1850    0.0521    0.0792 C   0  0  0  0  0  0  0  0  0  0  0  0
    2.7300   -0.2156   -1.1532 N   0  0  0  0  0  0  0  0  0  0  0  0
    2.9672    0.9491    0.9948 C   0  0  0  0  0  0  0  0  0  0  0  0
    2.1085   -1.1420   -2.0739 C   0  0  0  0  0  0  0  0  0  0  0  0
    4.1139    1.5355    0.5253 N   0  0  0  0  0  0  0  0  0  0  0  0
    2.4697    1.1345    2.2776 C   0  0  0  0  0  0  0  0  0  0  0  0
    1.7631   -0.5073   -3.3960 C   0  0  0  0  0  0  0  0  0  0  0  0
    4.7749    2.3779    1.3778 C   0  0  0  0  0  0  0  0  0  0  0  0
    3.1677    1.9613    3.1380 C   0  0  0  0  0  0  0  0  0  0  0  0
    2.2957   -1.0177   -4.5847 C   0  0  0  0  0  0  0  0  0  0  0  0
    0.8500    0.5535   -3.4710 C   0  0  0  0  0  0  0  0  0  0  0  0
    4.3352    2.5886    2.7065 C   0  0  0  0  0  0  0  0  0  0  0  0
    6.0318    3.0919    0.8689 C   0  0  0  0  0  0  0  0  0  0  0  0
    1.9311   -0.4744   -5.8182 C   0  0  0  0  0  0  0  0  0  0  0  0
    0.4849    1.0981   -4.7079 C   0  0  0  0  0  0  0  0  0  0  0  0
    5.0482    3.5376    3.6341 C   0  0  0  0  0  0  0  0  0  0  0  0
    6.4587    4.2048    1.7304 N   0  0  0  0  0  0  0  0  0  0  0  0
    1.0173    0.5873   -5.8991 C   0  0  0  0  0  0  0  0  0  0  0  0
    6.4420    3.9300    3.1590 C   0  0  0  0  0  0  0  0  0  0  0  0
    7.1004    5.3286    1.1843 C   0  0  0  0  0  0  0  0  0  0  0  0
    0.5869    1.1527   -7.2432 C   0  0  0  0  0  0  0  0  0  0  0  0
    7.6278    5.2763    0.0732 O   0  0  0  0  0  0  0  0  0  0  0  0
    6.8907    6.6036    1.9025 C   0  0  0  0  0  0  0  0  0  0  0  0
   -0.1121    0.0842   -8.1003 C   0  0  0  0  0  0  0  0  0  0  0  0
    1.7621    1.7828   -8.0072 C   0  0  0  0  0  0  0  0  0  0  0  0
    5.6901    6.6464    2.5885 O   0  0  0  0  0  0  0  0  0  0  0  0
    7.1248    7.9257    1.5015 C   0  0  0  0  0  0  0  0  0  0  0  0
   -0.4060    0.6039   -9.4996 C   0  0  0  0  0  0  0  0  0  0  0  0
    1.3372    2.1994   -9.4089 C   0  0  0  0  0  0  0  0  0  0  0  0
    4.9758    7.6112    1.9634 C   0  0  0  0  0  0  0  0  0  0  0  0
    5.8199    8.3841    1.1705 C   0  0  0  0  0  0  0  0  0  0  0  0
    8.3597    8.7424    1.4435 C   0  0  0  0  0  0  0  0  0  0  0  0
    0.7829    1.0924  -10.1174 O   0  0  0  0  0  0  0  0  0  0  0  0
    3.6065    7.7775    2.0514 C   0  0  0  0  0  0  0  0  0  0  0  0
    5.2546    9.3886    0.3737 C   0  0  0  0  0  0  0  0  0  0  0  0
    3.0568    8.7372    1.2135 C   0  0  0  0  0  0  0  0  0  0  0  0
    3.8622    9.5213    0.3693 C   0  0  0  0  0  0  0  0  0  0  0  0
    3.5649    0.2346   -1.4165 H   0  0  0  0  0  0  0  0  0  0  0  0
    1.2101   -1.5155   -1.6288 H   0  0  0  0  0  0  0  0  0  0  0  0
    2.8114   -1.9254   -2.2664 H   0  0  0  0  0  0  0  0  0  0  0  0
    1.6011    0.6671    2.5811 H   0  0  0  0  0  0  0  0  0  0  0  0
    2.8245    2.1140    4.0992 H   0  0  0  0  0  0  0  0  0  0  0  0
    2.9642   -1.8031   -4.5495 H   0  0  0  0  0  0  0  0  0  0  0  0
    0.4421    0.9375   -2.6043 H   0  0  0  0  0  0  0  0  0  0  0  0
    5.8309    3.4773   -0.1089 H   0  0  0  0  0  0  0  0  0  0  0  0
    6.8243    2.3730    0.8644 H   0  0  0  0  0  0  0  0  0  0  0  0
    2.3402   -0.8597   -6.6838 H   0  0  0  0  0  0  0  0  0  0  0  0
   -0.1832    1.8839   -4.7428 H   0  0  0  0  0  0  0  0  0  0  0  0
    5.1376    3.0697    4.5923 H   0  0  0  0  0  0  0  0  0  0  0  0
    4.4666    4.4350    3.6697 H   0  0  0  0  0  0  0  0  0  0  0  0
    7.1192    3.1282    3.3672 H   0  0  0  0  0  0  0  0  0  0  0  0
    6.7357    4.8195    3.6762 H   0  0  0  0  0  0  0  0  0  0  0  0
   -0.1174    1.9323   -7.0408 H   0  0  0  0  0  0  0  0  0  0  0  0
   -1.0329   -0.1920   -7.6305 H   0  0  0  0  0  0  0  0  0  0  0  0
    0.5386   -0.7610   -8.1836 H   0  0  0  0  0  0  0  0  0  0  0  0
    2.5561    1.0692   -8.0793 H   0  0  0  0  0  0  0  0  0  0  0  0
    2.0885    2.6524   -7.4760 H   0  0  0  0  0  0  0  0  0  0  0  0
   -1.1204    1.3980   -9.4362 H   0  0  0  0  0  0  0  0  0  0  0  0
   -0.7945   -0.1997  -10.0897 H   0  0  0  0  0  0  0  0  0  0  0  0
    2.1908    2.5650   -9.9406 H   0  0  0  0  0  0  0  0  0  0  0  0
    0.5935    2.9647   -9.3299 H   0  0  0  0  0  0  0  0  0  0  0  0
    9.1958    8.1466    1.7453 H   0  0  0  0  0  0  0  0  0  0  0  0
    8.2638    9.5812    2.1008 H   0  0  0  0  0  0  0  0  0  0  0  0
    8.5115    9.0890    0.4427 H   0  0  0  0  0  0  0  0  0  0  0  0
    3.0282    7.2217    2.7007 H   0  0  0  0  0  0  0  0  0  0  0  0
    5.8488   10.0129   -0.1939 H   0  0  0  0  0  0  0  0  0  0  0  0
    2.0345    8.8785    1.2100 H   0  0  0  0  0  0  0  0  0  0  0  0
    3.4192   10.2055   -0.2636 H   0  0  0  0  0  0  0  0  0  0  0  0
  1  2  2  0  0  0  0
  2  3  1  0  0  0  0
  2  4  1  0  0  0  0
  3  5  1  0  0  0  0
  3 39  1  0  0  0  0
  4  6  2  0  0  0  0
  4  7  1  0  0  0  0
  5  8  1  0  0  0  0
  5 40  1  0  0  0  0
  5 41  1  0  0  0  0
  6  9  1  0  0  0  0
  7 10  2  0  0  0  0
  7 42  1  0  0  0  0
  8 11  2  0  0  0  0
  8 12  1  0  0  0  0
  9 13  2  0  0  0  0
  9 14  1  0  0  0  0
 10 13  1  0  0  0  0
 10 43  1  0  0  0  0
 11 15  1  0  0  0  0
 11 44  1  0  0  0  0
 12 16  2  0  0  0  0
 12 45  1  0  0  0  0
 13 17  1  0  0  0  0
 14 18  1  0  0  0  0
 14 46  1  0  0  0  0
 14 47  1  0  0  0  0
 15 19  2  0  0  0  0
 15 48  1  0  0  0  0
 16 19  1  0  0  0  0
 16 49  1  0  0  0  0
 17 20  1  0  0  0  0
 17 50  1  0  0  0  0
 17 51  1  0  0  0  0
 18 21  1  0  0  0  0
 18 20  1  0  0  0  0
 19 22  1  0  0  0  0
 20 52  1  0  0  0  0
 20 53  1  0  0  0  0
 21 23  2  0  0  0  0
 21 24  1  0  0  0  0
 22 25  1  0  0  0  0
 22 26  1  0  0  0  0
 22 54  1  0  0  0  0
 24 27  1  0  0  0  0
 24 28  2  0  0  0  0
 25 29  1  0  0  0  0
 25 55  1  0  0  0  0
 25 56  1  0  0  0  0
 26 30  1  0  0  0  0
 26 57  1  0  0  0  0
 26 58  1  0  0  0  0
 27 31  1  0  0  0  0
 28 32  1  0  0  0  0
 28 33  1  0  0  0  0
 29 34  1  0  0  0  0
 29 59  1  0  0  0  0
 29 60  1  0  0  0  0
 30 34  1  0  0  0  0
 30 61  1  0  0  0  0
 30 62  1  0  0  0  0
 31 35  2  0  0  0  0
 31 32  1  0  0  0  0
 32 36  2  0  0  0  0
 33 63  1  0  0  0  0
 33 64  1  0  0  0  0
 33 65  1  0  0  0  0
 35 37  1  0  0  0  0
 35 66  1  0  0  0  0
 36 38  1  0  0  0  0
 36 67  1  0  0  0  0
 37 38  2  0  0  0  0
 37 68  1  0  0  0  0
 38 69  1  0  0  0  0
M  END
>  <Molecule Name>
CTX-1020696

>  <SMILES>
CC1=C(OC2=C1C=CC=C2)C(=O)N1CCC2=CC=C(N=C2C1)C(=O)NCC1=CC=C(C=C1)C1CCOCC1

>  <Batch Name>
CTX-1020696-1

>  <Batch Created Date>
2021-12-09

>  <Batch ID>
CTX-1020696-1

>  <External ID>
CD-42-B

>  <Stereochemistry>
Achiral

>  <Amount 1>
2.3

>  <Unit 1>
mg

>  <CRO 1>
Pharmaron

>  <CRO 1 Total Amount>
20.5

>  <CRO 1 Unit>
mg

>  <Pharmaron Solubility (PBS, pH 7.4): Aqueous Solubility - Batch Mean (uM)>


>  <Pharmaron Solubility (PBS, pH 7.4): Aqueous Solubility - Batch Mean (uM) Standard Deviation (±)>


>  <Pharmaron Solubility (PBS, pH 7.4): Aqueous Solubility - Batch Mean (uM) Count>


>  <log P>
4.1

>  <log D>
4.1

>  <Pharmaron Caliper Assay (CDK2/CCNE1): Minimum measured (%)>
45.2

>  <Pharmaron Caliper Assay (CDK2/CCNE1): IC50 - Batch Mean (uM)>
1.32

>  <Pharmaron ADPGLO (CDK2/E1-25C): Minimum measured (%)>


>  <Pharmaron ADPGLO (CDK2/E1-25C): IC50 - Batch Mean (uM)>


>  <Pharmaron ADPGLO (CDK2/E1-37C): Minimum measured (%)>


>  <Pharmaron ADPGLO (CDK2/E1-37C): IC50 - Batch Mean (uM)>


>  <IncuCyte Kuramochi RB-WT: IC50 - Batch Mean (uM)>
20.0

>  <IncuCyte Kuramochi RB-KO: IC50 - Batch Mean (uM)>
20.0

>  <DSF (npCDK2/CCNE1): dTm D - Batch Mean [Concentration: 100]>


>  <DSF (npCDK2/CCNE1): dTm D - Batch Mean [Concentration: 20.0]>
1.431

>  <DSF (pCDK2/CCNE1): dTm D - Batch Mean [Concentration: 100]>


>  <DSF (pCDK2/CCNE1): dTm D - Batch Mean [Concentration: 20.0]>
0.226

>  <RLM: t1/2 - Batch Mean (Min)>
11.04

>  <RLM: Cl int - Batch Mean (uL/min/mg protein)>
125.5

>  <RLM: ER (Hepatic extraction ratio) - Batch Mean>
0.816

>  <HLM: t1/2 - Batch Mean (Min)>
3.22

>  <HLM: Cl int - Batch Mean (uL/min/mg protein)>
430.55

>  <HLM: ER (Hepatic extraction ratio) - Batch Mean>
0.955

>  <MDCK-WT 4% BSA: Papp (A-B) - Batch Mean (10-6, cm/s)>


>  <MDCK-WT 4% BSA: Papp (B-A) - Batch Mean (10-6, cm/s)>


>  <MDCK-WT 4% BSA: Efflux Ratio - Batch Mean>


>  <MDCK-WT 4% BSA: ~Net A_B - Batch Mean (10-6, cm/s)>


>  <pIC50>
5.879426

>  <Selection_1>
Y

>  <Selection_N>


>  <Serie>
Naphthyridine

>  <Selection_T>
N

>  <Train_Vs_Test>


$$$$
