CTX-1020734
 OpenBabel08272613283D

 64 70  0  0  0  0  0  0  0  0999 V2000
    2.4859   -0.4913    1.8181 Cl  0  0  0  0  0  0  0  0  0  0  0  0
    3.6447   -0.5748    0.5489 C   0  0  0  0  0  0  0  0  0  0  0  0
    4.3175   -1.7871    0.1679 C   0  0  0  0  0  0  0  0  0  0  0  0
    4.0077    0.7028   -0.2142 C   0  0  0  0  0  0  0  0  0  0  0  0
    5.1314   -1.4701   -1.2953 S   0  0  0  0  0  0  0  0  0  0  0  0
    4.5383   -3.2018    0.8185 C   0  0  0  0  0  0  0  0  0  0  0  0
    4.8690    0.2416   -1.2283 C   0  0  0  0  0  0  0  0  0  0  0  0
    3.7384    2.2144   -0.1651 C   0  0  0  0  0  0  0  0  0  0  0  0
    4.6208   -3.3324    2.0326 O   0  0  0  0  0  0  0  0  0  0  0  0
    4.3943   -4.4413    0.0110 N   0  0  0  0  0  0  0  0  0  0  0  0
    5.4845    1.1179   -2.1213 C   0  0  0  0  0  0  0  0  0  0  0  0
    4.4513    3.0633   -1.0446 C   0  0  0  0  0  0  0  0  0  0  0  0
    5.1438   -5.9587    0.2123 C   0  0  0  0  0  0  0  0  0  0  0  0
    2.9930   -4.4211   -0.3170 C   0  0  0  0  0  0  0  0  0  0  0  0
    5.2868    2.4808   -1.9690 C   0  0  0  0  0  0  0  0  0  0  0  0
    4.2244   -7.2933   -0.0678 C   0  0  0  0  0  0  0  0  0  0  0  0
    2.2656   -5.7230   -0.2001 C   0  0  0  0  0  0  0  0  0  0  0  0
    2.9421   -7.0149   -0.4197 C   0  0  0  0  0  0  0  0  0  0  0  0
    4.1565   -8.8350    0.0373 C   0  0  0  0  0  0  0  0  0  0  0  0
    2.1628   -8.1815   -1.3351 S   0  0  0  0  0  0  0  0  0  0  0  0
    2.8451   -9.3494   -0.2850 C   0  0  0  0  0  0  0  0  0  0  0  0
    1.8494  -10.4371   -0.0910 C   0  0  0  0  0  0  0  0  0  0  0  0
    0.9128  -10.6689   -0.8820 O   0  0  0  0  0  0  0  0  0  0  0  0
    1.8139  -11.2096    1.0542 N   0  0  0  0  0  0  0  0  0  0  0  0
    2.9831  -11.7445    1.6634 C   0  0  0  0  0  0  0  0  0  0  0  0
    3.7322  -12.6355    0.6882 C   0  0  0  0  0  0  0  0  0  0  0  0
    3.2127  -13.1168   -0.5094 C   0  0  0  0  0  0  0  0  0  0  0  0
    5.0447  -13.0178    1.0329 C   0  0  0  0  0  0  0  0  0  0  0  0
    3.9496  -13.8376   -1.3983 C   0  0  0  0  0  0  0  0  0  0  0  0
    5.8183  -13.7544    0.1484 C   0  0  0  0  0  0  0  0  0  0  0  0
    5.2599  -14.2466   -1.0725 C   0  0  0  0  0  0  0  0  0  0  0  0
    6.0119  -15.0205   -1.9607 N   0  0  0  0  0  0  0  0  0  0  0  0
    5.5075  -15.8537   -3.0197 C   0  0  0  0  0  0  0  0  0  0  0  0
    7.1431  -15.8631   -1.6756 C   0  0  0  0  0  0  0  0  0  0  0  0
    6.4982  -16.8863   -2.5554 C   0  0  0  0  0  0  0  0  0  0  0  0
    5.9355  -18.1391   -1.9653 C   0  0  0  0  0  0  0  0  0  0  0  0
    7.2243  -17.6782   -3.5931 C   0  0  0  0  0  0  0  0  0  0  0  0
    6.1930  -18.7922   -3.3350 O   0  0  0  0  0  0  0  0  0  0  0  0
    3.0498    2.6039    0.4975 H   0  0  0  0  0  0  0  0  0  0  0  0
    6.0783    0.7568   -2.8843 H   0  0  0  0  0  0  0  0  0  0  0  0
    4.3474    4.0888   -0.9939 H   0  0  0  0  0  0  0  0  0  0  0  0
    5.4925   -6.0142    1.2224 H   0  0  0  0  0  0  0  0  0  0  0  0
    5.9098   -5.9895   -0.5340 H   0  0  0  0  0  0  0  0  0  0  0  0
    2.8999   -4.0854   -1.3287 H   0  0  0  0  0  0  0  0  0  0  0  0
    2.5401   -3.7756    0.4064 H   0  0  0  0  0  0  0  0  0  0  0  0
    5.8084    3.1093   -2.5998 H   0  0  0  0  0  0  0  0  0  0  0  0
    1.4612   -5.6818   -0.9045 H   0  0  0  0  0  0  0  0  0  0  0  0
    2.0375   -5.7618    0.8446 H   0  0  0  0  0  0  0  0  0  0  0  0
    4.9565   -9.4285    0.3068 H   0  0  0  0  0  0  0  0  0  0  0  0
    0.9404  -11.3983    1.4672 H   0  0  0  0  0  0  0  0  0  0  0  0
    2.7016  -12.3196    2.5206 H   0  0  0  0  0  0  0  0  0  0  0  0
    3.6218  -10.9367    1.9539 H   0  0  0  0  0  0  0  0  0  0  0  0
    2.2250  -12.9186   -0.7336 H   0  0  0  0  0  0  0  0  0  0  0  0
    5.4327  -12.7475    1.9502 H   0  0  0  0  0  0  0  0  0  0  0  0
    3.5476  -14.0862   -2.3156 H   0  0  0  0  0  0  0  0  0  0  0  0
    6.8064  -13.9492    0.3735 H   0  0  0  0  0  0  0  0  0  0  0  0
    5.6781  -15.4787   -4.0072 H   0  0  0  0  0  0  0  0  0  0  0  0
    4.4654  -16.0707   -3.1283 H   0  0  0  0  0  0  0  0  0  0  0  0
    7.2409  -16.1510   -0.6497 H   0  0  0  0  0  0  0  0  0  0  0  0
    8.1496  -15.5344   -1.8298 H   0  0  0  0  0  0  0  0  0  0  0  0
    4.9053  -18.0794   -1.6823 H   0  0  0  0  0  0  0  0  0  0  0  0
    6.3096  -18.5583   -1.0546 H   0  0  0  0  0  0  0  0  0  0  0  0
    8.2327  -17.9320   -3.3407 H   0  0  0  0  0  0  0  0  0  0  0  0
    7.4149  -17.2939   -4.5733 H   0  0  0  0  0  0  0  0  0  0  0  0
  1  2  1  0  0  0  0
  2  3  2  0  0  0  0
  2  4  1  0  0  0  0
  3  5  1  0  0  0  0
  3  6  1  0  0  0  0
  4  7  2  0  0  0  0
  4  8  1  0  0  0  0
  5  7  1  0  0  0  0
  6  9  2  0  0  0  0
  6 10  1  0  0  0  0
  7 11  1  0  0  0  0
  8 12  2  0  0  0  0
  8 39  1  0  0  0  0
 10 13  1  0  0  0  0
 10 14  1  0  0  0  0
 11 15  2  0  0  0  0
 11 40  1  0  0  0  0
 12 15  1  0  0  0  0
 12 41  1  0  0  0  0
 13 16  1  0  0  0  0
 13 42  1  0  0  0  0
 13 43  1  0  0  0  0
 14 17  1  0  0  0  0
 14 44  1  0  0  0  0
 14 45  1  0  0  0  0
 15 46  1  0  0  0  0
 16 18  2  0  0  0  0
 16 19  1  0  0  0  0
 17 18  1  0  0  0  0
 17 47  1  0  0  0  0
 17 48  1  0  0  0  0
 18 20  1  0  0  0  0
 19 21  2  0  0  0  0
 19 49  1  0  0  0  0
 20 21  1  0  0  0  0
 21 22  1  0  0  0  0
 22 23  2  0  0  0  0
 22 24  1  0  0  0  0
 24 25  1  0  0  0  0
 24 50  1  0  0  0  0
 25 26  1  0  0  0  0
 25 51  1  0  0  0  0
 25 52  1  0  0  0  0
 26 27  2  0  0  0  0
 26 28  1  0  0  0  0
 27 29  1  0  0  0  0
 27 53  1  0  0  0  0
 28 30  2  0  0  0  0
 28 54  1  0  0  0  0
 29 31  2  0  0  0  0
 29 55  1  0  0  0  0
 30 31  1  0  0  0  0
 30 56  1  0  0  0  0
 31 32  1  0  0  0  0
 32 33  1  0  0  0  0
 32 34  1  0  0  0  0
 33 35  1  0  0  0  0
 33 57  1  0  0  0  0
 33 58  1  0  0  0  0
 34 35  1  0  0  0  0
 34 59  1  0  0  0  0
 34 60  1  0  0  0  0
 35 36  1  0  0  0  0
 35 37  1  0  0  0  0
 36 38  1  0  0  0  0
 36 61  1  0  0  0  0
 36 62  1  0  0  0  0
 37 38  1  0  0  0  0
 37 63  1  0  0  0  0
 37 64  1  0  0  0  0
M  END
>  <Molecule Name>
CTX-1020734

>  <SMILES>
ClC1=C(SC2=CC=CC=C12)C(=O)N1CCC2=C(C1)C=C(S2)C(=O)NCC1=CC=C(C=C1)N1CC2(COC2)C1

>  <Batch Name>
CTX-1020734-1

>  <Batch Created Date>
2021-12-16

>  <Batch ID>
CTX-1020734-1

>  <External ID>
CD-44-2-O

>  <Stereochemistry>
Achiral

>  <Amount 1>
6.5

>  <Unit 1>
mg

>  <CRO 1>
Pharmaron

>  <CRO 1 Total Amount>
22.1

>  <CRO 1 Unit>
mg

>  <Pharmaron Solubility (PBS, pH 7.4): Aqueous Solubility - Batch Mean (uM)>
0.0024

>  <Pharmaron Solubility (PBS, pH 7.4): Aqueous Solubility - Batch Mean (uM) Standard Deviation (±)>


>  <Pharmaron Solubility (PBS, pH 7.4): Aqueous Solubility - Batch Mean (uM) Count>
1.0

>  <log P>
5.06

>  <log D>
5.06

>  <Pharmaron Caliper Assay (CDK2/CCNE1): Minimum measured (%)>
59.3

>  <Pharmaron Caliper Assay (CDK2/CCNE1): IC50 - Batch Mean (uM)>
0.788

>  <Pharmaron ADPGLO (CDK2/E1-25C): Minimum measured (%)>


>  <Pharmaron ADPGLO (CDK2/E1-25C): IC50 - Batch Mean (uM)>


>  <Pharmaron ADPGLO (CDK2/E1-37C): Minimum measured (%)>


>  <Pharmaron ADPGLO (CDK2/E1-37C): IC50 - Batch Mean (uM)>


>  <IncuCyte Kuramochi RB-WT: IC50 - Batch Mean (uM)>
20.0

>  <IncuCyte Kuramochi RB-KO: IC50 - Batch Mean (uM)>
20.0

>  <DSF (npCDK2/CCNE1): dTm D - Batch Mean [Concentration: 100]>


>  <DSF (npCDK2/CCNE1): dTm D - Batch Mean [Concentration: 20.0]>
1.906

>  <DSF (pCDK2/CCNE1): dTm D - Batch Mean [Concentration: 100]>


>  <DSF (pCDK2/CCNE1): dTm D - Batch Mean [Concentration: 20.0]>


>  <RLM: t1/2 - Batch Mean (Min)>


>  <RLM: Cl int - Batch Mean (uL/min/mg protein)>


>  <RLM: ER (Hepatic extraction ratio) - Batch Mean>


>  <HLM: t1/2 - Batch Mean (Min)>


>  <HLM: Cl int - Batch Mean (uL/min/mg protein)>


>  <HLM: ER (Hepatic extraction ratio) - Batch Mean>


>  <MDCK-WT 4% BSA: Papp (A-B) - Batch Mean (10-6, cm/s)>


>  <MDCK-WT 4% BSA: Papp (B-A) - Batch Mean (10-6, cm/s)>


>  <MDCK-WT 4% BSA: Efflux Ratio - Batch Mean>


>  <MDCK-WT 4% BSA: ~Net A_B - Batch Mean (10-6, cm/s)>


>  <pIC50>
6.103474

>  <Selection_1>
Y

>  <Selection_N>
N

>  <Serie>
Tetrahydrothienopyridine

>  <Selection_T>


>  <Train_Vs_Test>


$$$$
