CTX-1020726
 OpenBabel08272613283D

 55 60  0  0  0  0  0  0  0  0999 V2000
    2.0749   -1.2396    1.1687 O   0  0  0  0  0  0  0  0  0  0  0  0
    2.9906   -0.9802    0.3888 C   0  0  0  0  0  0  0  0  0  0  0  0
    3.5745   -1.9224   -0.4392 N   0  0  0  0  0  0  0  0  0  0  0  0
    3.5152    0.4840    0.3369 C   0  0  0  0  0  0  0  0  0  0  0  0
    3.2497   -3.2972   -0.5803 C   0  0  0  0  0  0  0  0  0  0  0  0
    4.5252    0.9098   -0.5055 N   0  0  0  0  0  0  0  0  0  0  0  0
    2.9055    1.3555    1.2437 C   0  0  0  0  0  0  0  0  0  0  0  0
    2.4253   -4.2204    0.0795 C   0  0  0  0  0  0  0  0  0  0  0  0
    3.8719   -4.0989   -1.5715 C   0  0  0  0  0  0  0  0  0  0  0  0
    4.9385    2.2554   -0.3968 C   0  0  0  0  0  0  0  0  0  0  0  0
    3.3508    2.6611    1.3600 C   0  0  0  0  0  0  0  0  0  0  0  0
    2.4925   -5.4245   -0.6679 N   0  0  0  0  0  0  0  0  0  0  0  0
    1.6012   -4.2838    1.2616 C   0  0  0  0  0  0  0  0  0  0  0  0
    3.3891   -5.3360   -1.6673 N   0  0  0  0  0  0  0  0  0  0  0  0
    4.4020    3.1261    0.5681 C   0  0  0  0  0  0  0  0  0  0  0  0
    6.0345    2.8307   -1.3456 C   0  0  0  0  0  0  0  0  0  0  0  0
    1.7447   -6.5626   -0.3464 C   0  0  0  0  0  0  0  0  0  0  0  0
    0.9534   -5.4238    1.5882 C   0  0  0  0  0  0  0  0  0  0  0  0
    4.8653    4.5521    0.7572 C   0  0  0  0  0  0  0  0  0  0  0  0
    6.2333    4.3090   -1.2519 N   0  0  0  0  0  0  0  0  0  0  0  0
    0.9784   -6.6084    0.7433 C   0  0  0  0  0  0  0  0  0  0  0  0
    6.1985    4.8495    0.0928 C   0  0  0  0  0  0  0  0  0  0  0  0
    6.8659    5.0447   -2.2831 C   0  0  0  0  0  0  0  0  0  0  0  0
    7.5677    4.4725   -3.1214 O   0  0  0  0  0  0  0  0  0  0  0  0
    6.4471    6.4586   -2.4329 C   0  0  0  0  0  0  0  0  0  0  0  0
    5.1923    6.7248   -1.9121 O   0  0  0  0  0  0  0  0  0  0  0  0
    6.6368    7.4011   -3.4550 C   0  0  0  0  0  0  0  0  0  0  0  0
    4.4760    7.1939   -2.9653 C   0  0  0  0  0  0  0  0  0  0  0  0
    5.3281    7.5208   -4.0091 C   0  0  0  0  0  0  0  0  0  0  0  0
    7.8336    8.1417   -3.9409 C   0  0  0  0  0  0  0  0  0  0  0  0
    3.0943    7.2625   -3.0074 C   0  0  0  0  0  0  0  0  0  0  0  0
    4.7620    7.9055   -5.2354 C   0  0  0  0  0  0  0  0  0  0  0  0
    2.5517    7.5715   -4.2531 C   0  0  0  0  0  0  0  0  0  0  0  0
    3.3659    7.8656   -5.3551 C   0  0  0  0  0  0  0  0  0  0  0  0
    4.3117   -1.5969   -1.0047 H   0  0  0  0  0  0  0  0  0  0  0  0
    2.1215    1.0250    1.8279 H   0  0  0  0  0  0  0  0  0  0  0  0
    4.6373   -3.7512   -2.1701 H   0  0  0  0  0  0  0  0  0  0  0  0
    2.9016    3.2962    2.0381 H   0  0  0  0  0  0  0  0  0  0  0  0
    1.5054   -3.4509    1.8634 H   0  0  0  0  0  0  0  0  0  0  0  0
    5.7597    2.5952   -2.3525 H   0  0  0  0  0  0  0  0  0  0  0  0
    6.9584    2.3834   -1.0437 H   0  0  0  0  0  0  0  0  0  0  0  0
    1.7876   -7.3858   -0.9673 H   0  0  0  0  0  0  0  0  0  0  0  0
    0.4202   -5.4557    2.4712 H   0  0  0  0  0  0  0  0  0  0  0  0
    4.9601    4.7411    1.8061 H   0  0  0  0  0  0  0  0  0  0  0  0
    4.1356    5.1839    0.2953 H   0  0  0  0  0  0  0  0  0  0  0  0
    0.4262   -7.4482    0.9778 H   0  0  0  0  0  0  0  0  0  0  0  0
    6.9844    4.4079    0.6692 H   0  0  0  0  0  0  0  0  0  0  0  0
    6.3274    5.9104    0.0402 H   0  0  0  0  0  0  0  0  0  0  0  0
    8.6849    7.8690   -3.3529 H   0  0  0  0  0  0  0  0  0  0  0  0
    7.6617    9.1941   -3.8530 H   0  0  0  0  0  0  0  0  0  0  0  0
    8.0142    7.8942   -4.9661 H   0  0  0  0  0  0  0  0  0  0  0  0
    2.5073    7.0965   -2.1749 H   0  0  0  0  0  0  0  0  0  0  0  0
    5.3553    8.2081   -6.0238 H   0  0  0  0  0  0  0  0  0  0  0  0
    1.5261    7.5841   -4.3668 H   0  0  0  0  0  0  0  0  0  0  0  0
    2.9300    8.0561   -6.2709 H   0  0  0  0  0  0  0  0  0  0  0  0
  1  2  2  0  0  0  0
  2  3  1  0  0  0  0
  2  4  1  0  0  0  0
  3  5  1  0  0  0  0
  3 35  1  0  0  0  0
  4  6  2  0  0  0  0
  4  7  1  0  0  0  0
  5  8  2  0  0  0  0
  5  9  1  0  0  0  0
  6 10  1  0  0  0  0
  7 11  2  0  0  0  0
  7 36  1  0  0  0  0
  8 12  1  0  0  0  0
  8 13  1  0  0  0  0
  9 14  2  0  0  0  0
  9 37  1  0  0  0  0
 10 15  2  0  0  0  0
 10 16  1  0  0  0  0
 11 15  1  0  0  0  0
 11 38  1  0  0  0  0
 12 17  1  0  0  0  0
 12 14  1  0  0  0  0
 13 18  2  0  0  0  0
 13 39  1  0  0  0  0
 15 19  1  0  0  0  0
 16 20  1  0  0  0  0
 16 40  1  0  0  0  0
 16 41  1  0  0  0  0
 17 21  2  0  0  0  0
 17 42  1  0  0  0  0
 18 21  1  0  0  0  0
 18 43  1  0  0  0  0
 19 22  1  0  0  0  0
 19 44  1  0  0  0  0
 19 45  1  0  0  0  0
 20 23  1  0  0  0  0
 20 22  1  0  0  0  0
 21 46  1  0  0  0  0
 22 47  1  0  0  0  0
 22 48  1  0  0  0  0
 23 24  2  0  0  0  0
 23 25  1  0  0  0  0
 25 26  1  0  0  0  0
 25 27  2  0  0  0  0
 26 28  1  0  0  0  0
 27 29  1  0  0  0  0
 27 30  1  0  0  0  0
 28 31  2  0  0  0  0
 28 29  1  0  0  0  0
 29 32  2  0  0  0  0
 30 49  1  0  0  0  0
 30 50  1  0  0  0  0
 30 51  1  0  0  0  0
 31 33  1  0  0  0  0
 31 52  1  0  0  0  0
 32 34  1  0  0  0  0
 32 53  1  0  0  0  0
 33 34  2  0  0  0  0
 33 54  1  0  0  0  0
 34 55  1  0  0  0  0
M  END
>  <Molecule Name>
CTX-1020726

>  <SMILES>
CC1=C(OC2=C1C=CC=C2)C(=O)N1CCC2=CC=C(N=C2C1)C(=O)NC1=C2C=CC=CN2N=C1

>  <Batch Name>
CTX-1020726-1

>  <Batch Created Date>
2021-12-16

>  <Batch ID>
CTX-1020726-1

>  <External ID>
CD-42-E

>  <Stereochemistry>
Achiral

>  <Amount 1>
3.3

>  <Unit 1>
mg

>  <CRO 1>
Pharmaron

>  <CRO 1 Total Amount>
17.6

>  <CRO 1 Unit>
mg

>  <Pharmaron Solubility (PBS, pH 7.4): Aqueous Solubility - Batch Mean (uM)>
0.0286

>  <Pharmaron Solubility (PBS, pH 7.4): Aqueous Solubility - Batch Mean (uM) Standard Deviation (±)>


>  <Pharmaron Solubility (PBS, pH 7.4): Aqueous Solubility - Batch Mean (uM) Count>
1.0

>  <log P>
3.5

>  <log D>
3.5

>  <Pharmaron Caliper Assay (CDK2/CCNE1): Minimum measured (%)>
73.5

>  <Pharmaron Caliper Assay (CDK2/CCNE1): IC50 - Batch Mean (uM)>
81.6

>  <Pharmaron ADPGLO (CDK2/E1-25C): Minimum measured (%)>


>  <Pharmaron ADPGLO (CDK2/E1-25C): IC50 - Batch Mean (uM)>


>  <Pharmaron ADPGLO (CDK2/E1-37C): Minimum measured (%)>


>  <Pharmaron ADPGLO (CDK2/E1-37C): IC50 - Batch Mean (uM)>


>  <IncuCyte Kuramochi RB-WT: IC50 - Batch Mean (uM)>
20.0

>  <IncuCyte Kuramochi RB-KO: IC50 - Batch Mean (uM)>
20.0

>  <DSF (npCDK2/CCNE1): dTm D - Batch Mean [Concentration: 100]>


>  <DSF (npCDK2/CCNE1): dTm D - Batch Mean [Concentration: 20.0]>
-0.033

>  <DSF (pCDK2/CCNE1): dTm D - Batch Mean [Concentration: 100]>


>  <DSF (pCDK2/CCNE1): dTm D - Batch Mean [Concentration: 20.0]>


>  <RLM: t1/2 - Batch Mean (Min)>


>  <RLM: Cl int - Batch Mean (uL/min/mg protein)>


>  <RLM: ER (Hepatic extraction ratio) - Batch Mean>


>  <HLM: t1/2 - Batch Mean (Min)>


>  <HLM: Cl int - Batch Mean (uL/min/mg protein)>


>  <HLM: ER (Hepatic extraction ratio) - Batch Mean>


>  <MDCK-WT 4% BSA: Papp (A-B) - Batch Mean (10-6, cm/s)>


>  <MDCK-WT 4% BSA: Papp (B-A) - Batch Mean (10-6, cm/s)>


>  <MDCK-WT 4% BSA: Efflux Ratio - Batch Mean>


>  <MDCK-WT 4% BSA: ~Net A_B - Batch Mean (10-6, cm/s)>


>  <pIC50>
4.08831

>  <Selection_1>
Y

>  <Selection_N>
Y

>  <Serie>
Naphthyridine

>  <Selection_T>
N

>  <Train_Vs_Test>


$$$$
