CTX-1020732
 OpenBabel08272613283D

 67 72  0  0  0  0  0  0  0  0999 V2000
    9.6876  -13.2813    2.3220 Cl  0  0  0  0  0  0  0  0  0  0  0  0
    9.9637  -11.7840    3.1258 C   0  0  0  0  0  0  0  0  0  0  0  0
    9.5622  -10.5230    2.6732 C   0  0  0  0  0  0  0  0  0  0  0  0
   10.6680  -11.7616    4.4153 C   0  0  0  0  0  0  0  0  0  0  0  0
    9.9744   -9.3420    3.8794 S   0  0  0  0  0  0  0  0  0  0  0  0
    8.8946  -10.0584    1.3888 C   0  0  0  0  0  0  0  0  0  0  0  0
   10.7042  -10.4643    4.9197 C   0  0  0  0  0  0  0  0  0  0  0  0
   11.2390  -12.7760    5.2574 C   0  0  0  0  0  0  0  0  0  0  0  0
    9.3820  -10.3000    0.2871 O   0  0  0  0  0  0  0  0  0  0  0  0
    7.6098   -9.4008    1.5040 N   0  0  0  0  0  0  0  0  0  0  0  0
   11.1999  -10.0974    6.1070 N   0  0  0  0  0  0  0  0  0  0  0  0
   11.8238  -12.4152    6.4607 C   0  0  0  0  0  0  0  0  0  0  0  0
    6.8873   -8.5146    0.4118 C   0  0  0  0  0  0  0  0  0  0  0  0
    6.7559  -10.2447    2.3078 C   0  0  0  0  0  0  0  0  0  0  0  0
   11.7587  -11.0956    6.8495 C   0  0  0  0  0  0  0  0  0  0  0  0
    5.3097   -8.5627    0.4887 C   0  0  0  0  0  0  0  0  0  0  0  0
    5.4662   -9.6414    2.7549 C   0  0  0  0  0  0  0  0  0  0  0  0
    4.7619   -8.9837    1.6727 C   0  0  0  0  0  0  0  0  0  0  0  0
    4.1519   -8.3663   -0.4130 C   0  0  0  0  0  0  0  0  0  0  0  0
    3.0829   -8.7668    1.8446 S   0  0  0  0  0  0  0  0  0  0  0  0
    2.9752   -8.8861    0.1535 C   0  0  0  0  0  0  0  0  0  0  0  0
    1.7928   -9.5894   -0.3391 C   0  0  0  0  0  0  0  0  0  0  0  0
    0.7380   -9.0524   -0.6650 O   0  0  0  0  0  0  0  0  0  0  0  0
    1.8672  -10.9781   -0.2983 N   0  0  0  0  0  0  0  0  0  0  0  0
    3.0322  -11.7822    0.0315 C   0  0  0  0  0  0  0  0  0  0  0  0
    3.0216  -13.0807   -0.7205 C   0  0  0  0  0  0  0  0  0  0  0  0
    3.4520  -13.1140   -2.0469 C   0  0  0  0  0  0  0  0  0  0  0  0
    2.5442  -14.2579   -0.1503 C   0  0  0  0  0  0  0  0  0  0  0  0
    3.4186  -14.3052   -2.7818 C   0  0  0  0  0  0  0  0  0  0  0  0
    2.4974  -15.4398   -0.9043 C   0  0  0  0  0  0  0  0  0  0  0  0
    2.9470  -15.5089   -2.2358 C   0  0  0  0  0  0  0  0  0  0  0  0
    2.8385  -16.6847   -2.9819 N   0  0  0  0  0  0  0  0  0  0  0  0
    3.3328  -16.7214   -4.3782 C   0  0  0  0  0  0  0  0  0  0  0  0
    3.0377  -17.9805   -2.2916 C   0  0  0  0  0  0  0  0  0  0  0  0
    2.7102  -17.9098   -5.1480 C   0  0  0  0  0  0  0  0  0  0  0  0
    2.3989  -19.1267   -3.1072 C   0  0  0  0  0  0  0  0  0  0  0  0
    2.9428  -19.2062   -4.4781 N   0  3  0  0  0  0  0  0  0  0  0  0
    2.3118  -20.2927   -5.2202 C   0  0  0  0  0  0  0  0  0  0  0  0
   11.2138  -13.7663    4.9681 H   0  0  0  0  0  0  0  0  0  0  0  0
   12.2963  -13.1178    7.0508 H   0  0  0  0  0  0  0  0  0  0  0  0
    7.1880   -8.8602   -0.5552 H   0  0  0  0  0  0  0  0  0  0  0  0
    7.1761   -7.5006    0.5941 H   0  0  0  0  0  0  0  0  0  0  0  0
    7.3049  -10.5266    3.1819 H   0  0  0  0  0  0  0  0  0  0  0  0
    6.4848  -11.0637    1.6748 H   0  0  0  0  0  0  0  0  0  0  0  0
   12.1608  -10.8447    7.7663 H   0  0  0  0  0  0  0  0  0  0  0  0
    5.6700   -8.9218    3.5202 H   0  0  0  0  0  0  0  0  0  0  0  0
    4.8434  -10.4322    3.1178 H   0  0  0  0  0  0  0  0  0  0  0  0
    4.2022   -7.9079   -1.3362 H   0  0  0  0  0  0  0  0  0  0  0  0
    1.0420  -11.4689   -0.5163 H   0  0  0  0  0  0  0  0  0  0  0  0
    3.0301  -11.9863    1.0818 H   0  0  0  0  0  0  0  0  0  0  0  0
    3.9108  -11.2369   -0.2435 H   0  0  0  0  0  0  0  0  0  0  0  0
    3.7993  -12.2501   -2.4919 H   0  0  0  0  0  0  0  0  0  0  0  0
    2.2236  -14.2608    0.8307 H   0  0  0  0  0  0  0  0  0  0  0  0
    3.7520  -14.2977   -3.7584 H   0  0  0  0  0  0  0  0  0  0  0  0
    2.1179  -16.2929   -0.4647 H   0  0  0  0  0  0  0  0  0  0  0  0
    4.3976  -16.8268   -4.3711 H   0  0  0  0  0  0  0  0  0  0  0  0
    3.0528  -15.8112   -4.8660 H   0  0  0  0  0  0  0  0  0  0  0  0
    2.5819  -17.9389   -1.3244 H   0  0  0  0  0  0  0  0  0  0  0  0
    4.0872  -18.1654   -2.1947 H   0  0  0  0  0  0  0  0  0  0  0  0
    3.1413  -17.9476   -6.1266 H   0  0  0  0  0  0  0  0  0  0  0  0
    1.6528  -17.7512   -5.1881 H   0  0  0  0  0  0  0  0  0  0  0  0
    1.3432  -18.9622   -3.1643 H   0  0  0  0  0  0  0  0  0  0  0  0
    2.6231  -20.0477   -2.6109 H   0  0  0  0  0  0  0  0  0  0  0  0
    3.9435  -19.4010   -4.4430 H   0  0  0  0  0  0  0  0  0  0  0  0
    1.2573  -20.1204   -5.2769 H   0  0  0  0  0  0  0  0  0  0  0  0
    2.4952  -21.2203   -4.7193 H   0  0  0  0  0  0  0  0  0  0  0  0
    2.7201  -20.3340   -6.2083 H   0  0  0  0  0  0  0  0  0  0  0  0
  1  2  1  0  0  0  0
  2  3  2  0  0  0  0
  2  4  1  0  0  0  0
  3  5  1  0  0  0  0
  3  6  1  0  0  0  0
  4  7  2  0  0  0  0
  4  8  1  0  0  0  0
  5  7  1  0  0  0  0
  6  9  2  0  0  0  0
  6 10  1  0  0  0  0
  7 11  1  0  0  0  0
  8 12  2  0  0  0  0
  8 39  1  0  0  0  0
 10 13  1  0  0  0  0
 10 14  1  0  0  0  0
 11 15  2  0  0  0  0
 12 15  1  0  0  0  0
 12 40  1  0  0  0  0
 13 16  1  0  0  0  0
 13 41  1  0  0  0  0
 13 42  1  0  0  0  0
 14 17  1  0  0  0  0
 14 43  1  0  0  0  0
 14 44  1  0  0  0  0
 15 45  1  0  0  0  0
 16 18  2  0  0  0  0
 16 19  1  0  0  0  0
 17 18  1  0  0  0  0
 17 46  1  0  0  0  0
 17 47  1  0  0  0  0
 18 20  1  0  0  0  0
 19 21  2  0  0  0  0
 19 48  1  0  0  0  0
 20 21  1  0  0  0  0
 21 22  1  0  0  0  0
 22 23  2  0  0  0  0
 22 24  1  0  0  0  0
 24 25  1  0  0  0  0
 24 49  1  0  0  0  0
 25 26  1  0  0  0  0
 25 50  1  0  0  0  0
 25 51  1  0  0  0  0
 26 27  2  0  0  0  0
 26 28  1  0  0  0  0
 27 29  1  0  0  0  0
 27 52  1  0  0  0  0
 28 30  2  0  0  0  0
 28 53  1  0  0  0  0
 29 31  2  0  0  0  0
 29 54  1  0  0  0  0
 30 31  1  0  0  0  0
 30 55  1  0  0  0  0
 31 32  1  0  0  0  0
 32 33  1  0  0  0  0
 32 34  1  0  0  0  0
 33 35  1  0  0  0  0
 33 56  1  0  0  0  0
 33 57  1  0  0  0  0
 34 36  1  0  0  0  0
 34 58  1  0  0  0  0
 34 59  1  0  0  0  0
 35 37  1  0  0  0  0
 35 60  1  0  0  0  0
 35 61  1  0  0  0  0
 36 37  1  0  0  0  0
 36 62  1  0  0  0  0
 36 63  1  0  0  0  0
 37 38  1  0  0  0  0
 37 64  1  0  0  0  0
 38 65  1  0  0  0  0
 38 66  1  0  0  0  0
 38 67  1  0  0  0  0
M  CHG  1  37   1
M  END
>  <Molecule Name>
CTX-1020732

>  <SMILES>
CN1CCN(CC1)C1=CC=C(CNC(=O)C2=CC3=C(CCN(C3)C(=O)C3=C(Cl)C4=CC=CN=C4S3)S2)C=C1

>  <Batch Name>
CTX-1020732-1

>  <Batch Created Date>
2021-12-16

>  <Batch ID>
CTX-1020732-1

>  <External ID>
CD-44-2-I

>  <Stereochemistry>
Achiral

>  <Amount 1>
18.9

>  <Unit 1>
mg

>  <CRO 1>
Pharmaron

>  <CRO 1 Total Amount>
32.2

>  <CRO 1 Unit>
mg

>  <Pharmaron Solubility (PBS, pH 7.4): Aqueous Solubility - Batch Mean (uM)>
26.0789

>  <Pharmaron Solubility (PBS, pH 7.4): Aqueous Solubility - Batch Mean (uM) Standard Deviation (±)>


>  <Pharmaron Solubility (PBS, pH 7.4): Aqueous Solubility - Batch Mean (uM) Count>
1.0

>  <log P>
4.6

>  <log D>
3.96

>  <Pharmaron Caliper Assay (CDK2/CCNE1): Minimum measured (%)>
32.8

>  <Pharmaron Caliper Assay (CDK2/CCNE1): IC50 - Batch Mean (uM)>
9.29

>  <Pharmaron ADPGLO (CDK2/E1-25C): Minimum measured (%)>


>  <Pharmaron ADPGLO (CDK2/E1-25C): IC50 - Batch Mean (uM)>


>  <Pharmaron ADPGLO (CDK2/E1-37C): Minimum measured (%)>


>  <Pharmaron ADPGLO (CDK2/E1-37C): IC50 - Batch Mean (uM)>


>  <IncuCyte Kuramochi RB-WT: IC50 - Batch Mean (uM)>
8.08

>  <IncuCyte Kuramochi RB-KO: IC50 - Batch Mean (uM)>
11.6

>  <DSF (npCDK2/CCNE1): dTm D - Batch Mean [Concentration: 100]>


>  <DSF (npCDK2/CCNE1): dTm D - Batch Mean [Concentration: 20.0]>
1.07

>  <DSF (pCDK2/CCNE1): dTm D - Batch Mean [Concentration: 100]>


>  <DSF (pCDK2/CCNE1): dTm D - Batch Mean [Concentration: 20.0]>


>  <RLM: t1/2 - Batch Mean (Min)>


>  <RLM: Cl int - Batch Mean (uL/min/mg protein)>


>  <RLM: ER (Hepatic extraction ratio) - Batch Mean>


>  <HLM: t1/2 - Batch Mean (Min)>


>  <HLM: Cl int - Batch Mean (uL/min/mg protein)>


>  <HLM: ER (Hepatic extraction ratio) - Batch Mean>


>  <MDCK-WT 4% BSA: Papp (A-B) - Batch Mean (10-6, cm/s)>


>  <MDCK-WT 4% BSA: Papp (B-A) - Batch Mean (10-6, cm/s)>


>  <MDCK-WT 4% BSA: Efflux Ratio - Batch Mean>


>  <MDCK-WT 4% BSA: ~Net A_B - Batch Mean (10-6, cm/s)>


>  <pIC50>
5.031984

>  <Selection_1>
Y

>  <Selection_N>
N

>  <Serie>
Tetrahydrothienopyridine

>  <Selection_T>


>  <Train_Vs_Test>


$$$$
