CTX-1020671
 OpenBabel08272613283D

 49 53  0  0  0  0  0  0  0  0999 V2000
    1.8120   -0.6936   -0.0645 S   0  0  0  0  0  0  0  0  0  0  0  0
    2.1507    0.9860    0.0107 C   0  0  0  0  0  0  0  0  0  0  0  0
    0.1338   -0.4245    0.0044 C   0  0  0  0  0  0  0  0  0  0  0  0
    3.5004    1.5375    0.0082 C   0  0  0  0  0  0  0  0  0  0  0  0
    0.9810    1.7260    0.0808 C   0  0  0  0  0  0  0  0  0  0  0  0
   -0.1914    0.9172    0.1002 C   0  0  0  0  0  0  0  0  0  0  0  0
   -0.8838   -1.5301   -0.0762 C   0  0  0  0  0  0  0  0  0  0  0  0
    3.7043    2.7499    0.0445 O   0  0  0  0  0  0  0  0  0  0  0  0
    4.5428    0.6371   -0.0220 N   0  0  0  0  0  0  0  0  0  0  0  0
   -1.6094    1.3969    0.2194 C   0  0  0  0  0  0  0  0  0  0  0  0
   -2.2771   -0.9729    0.2891 C   0  0  0  0  0  0  0  0  0  0  0  0
    5.9239    1.0597    0.0438 C   0  0  0  0  0  0  0  0  0  0  0  0
   -2.4838    0.3515   -0.3239 N   0  0  0  0  0  0  0  0  0  0  0  0
    6.7085    0.6519   -1.1768 C   0  0  0  0  0  0  0  0  0  0  0  0
   -3.4033    0.4862   -1.3634 C   0  0  0  0  0  0  0  0  0  0  0  0
    6.3253    1.0957   -2.4515 C   0  0  0  0  0  0  0  0  0  0  0  0
    7.8788   -0.1111   -1.0518 C   0  0  0  0  0  0  0  0  0  0  0  0
   -4.1966   -0.4120   -1.6352 O   0  0  0  0  0  0  0  0  0  0  0  0
   -3.4328    1.7227   -2.1315 C   0  0  0  0  0  0  0  0  0  0  0  0
    7.0938    0.7825   -3.5742 C   0  0  0  0  0  0  0  0  0  0  0  0
    8.6480   -0.4210   -2.1757 C   0  0  0  0  0  0  0  0  0  0  0  0
   -4.5487    2.3119   -2.6975 C   0  0  0  0  0  0  0  0  0  0  0  0
   -2.3846    2.5537   -2.5876 C   0  0  0  0  0  0  0  0  0  0  0  0
    8.2567    0.0277   -3.4355 C   0  0  0  0  0  0  0  0  0  0  0  0
   -4.1473    3.4779   -3.3113 N   0  0  0  0  0  0  0  0  0  0  0  0
   -5.9445    1.9708   -2.7541 C   0  0  0  0  0  0  0  0  0  0  0  0
   -2.8084    3.6408   -3.2337 N   0  0  0  0  0  0  0  0  0  0  0  0
   -5.0864    4.2971   -3.9107 C   0  0  0  0  0  0  0  0  0  0  0  0
   -6.8230    2.7431   -3.3356 N   0  0  0  0  0  0  0  0  0  0  0  0
   -6.3724    3.9167   -3.9089 C   0  0  0  0  0  0  0  0  0  0  0  0
    0.9614    2.7572    0.1153 H   0  0  0  0  0  0  0  0  0  0  0  0
   -0.6199   -2.3087    0.6087 H   0  0  0  0  0  0  0  0  0  0  0  0
   -0.9059   -1.9236   -1.0710 H   0  0  0  0  0  0  0  0  0  0  0  0
    4.3409   -0.3241   -0.0905 H   0  0  0  0  0  0  0  0  0  0  0  0
   -1.7353    2.3022   -0.3370 H   0  0  0  0  0  0  0  0  0  0  0  0
   -1.8527    1.5932    1.2427 H   0  0  0  0  0  0  0  0  0  0  0  0
   -2.3521   -0.8835    1.3528 H   0  0  0  0  0  0  0  0  0  0  0  0
   -3.0244   -1.6439   -0.0798 H   0  0  0  0  0  0  0  0  0  0  0  0
    6.3774    0.6189    0.9069 H   0  0  0  0  0  0  0  0  0  0  0  0
    5.9359    2.1283    0.0972 H   0  0  0  0  0  0  0  0  0  0  0  0
    5.4674    1.6590   -2.5601 H   0  0  0  0  0  0  0  0  0  0  0  0
    8.1741   -0.4464   -0.1215 H   0  0  0  0  0  0  0  0  0  0  0  0
    6.8003    1.1103   -4.5076 H   0  0  0  0  0  0  0  0  0  0  0  0
    9.5074   -0.9831   -2.0729 H   0  0  0  0  0  0  0  0  0  0  0  0
   -1.3866    2.3398   -2.4353 H   0  0  0  0  0  0  0  0  0  0  0  0
    8.8276   -0.1988   -4.2648 H   0  0  0  0  0  0  0  0  0  0  0  0
   -6.2619    1.0890   -2.3220 H   0  0  0  0  0  0  0  0  0  0  0  0
   -4.8026    5.1859   -4.3517 H   0  0  0  0  0  0  0  0  0  0  0  0
   -7.0640    4.5350   -4.3610 H   0  0  0  0  0  0  0  0  0  0  0  0
  1  2  1  0  0  0  0
  1  3  1  0  0  0  0
  2  4  1  0  0  0  0
  2  5  2  0  0  0  0
  3  6  2  0  0  0  0
  3  7  1  0  0  0  0
  4  8  2  0  0  0  0
  4  9  1  0  0  0  0
  5  6  1  0  0  0  0
  5 31  1  0  0  0  0
  6 10  1  0  0  0  0
  7 11  1  0  0  0  0
  7 32  1  0  0  0  0
  7 33  1  0  0  0  0
  9 12  1  0  0  0  0
  9 34  1  0  0  0  0
 10 13  1  0  0  0  0
 10 35  1  0  0  0  0
 10 36  1  0  0  0  0
 11 13  1  0  0  0  0
 11 37  1  0  0  0  0
 11 38  1  0  0  0  0
 12 14  1  0  0  0  0
 12 39  1  0  0  0  0
 12 40  1  0  0  0  0
 13 15  1  0  0  0  0
 14 16  2  0  0  0  0
 14 17  1  0  0  0  0
 15 18  2  0  0  0  0
 15 19  1  0  0  0  0
 16 20  1  0  0  0  0
 16 41  1  0  0  0  0
 17 21  2  0  0  0  0
 17 42  1  0  0  0  0
 19 22  2  0  0  0  0
 19 23  1  0  0  0  0
 20 24  2  0  0  0  0
 20 43  1  0  0  0  0
 21 24  1  0  0  0  0
 21 44  1  0  0  0  0
 22 25  1  0  0  0  0
 22 26  1  0  0  0  0
 23 27  2  0  0  0  0
 23 45  1  0  0  0  0
 24 46  1  0  0  0  0
 25 28  1  0  0  0  0
 25 27  1  0  0  0  0
 26 29  2  0  0  0  0
 26 47  1  0  0  0  0
 28 30  2  0  0  0  0
 28 48  1  0  0  0  0
 29 30  1  0  0  0  0
 30 49  1  0  0  0  0
M  END
>  <Molecule Name>
CTX-1020671

>  <SMILES>
O=C(NCC1=CC=CC=C1)C1=CC2=C(CCN(C2)C(=O)C2=C3C=NC=CN3N=C2)S1

>  <Batch Name>
CTX-1020671-1

>  <Batch Created Date>
2021-12-03

>  <Batch ID>
CTX-1020671-1

>  <External ID>
610EDL218-3

>  <Stereochemistry>
Achiral

>  <Amount 1>
5.4

>  <Unit 1>
mg

>  <CRO 1>
Pharmaron

>  <CRO 1 Total Amount>
21.2

>  <CRO 1 Unit>
mg

>  <Pharmaron Solubility (PBS, pH 7.4): Aqueous Solubility - Batch Mean (uM)>
60.0

>  <Pharmaron Solubility (PBS, pH 7.4): Aqueous Solubility - Batch Mean (uM) Standard Deviation (±)>


>  <Pharmaron Solubility (PBS, pH 7.4): Aqueous Solubility - Batch Mean (uM) Count>
1.0

>  <log P>
2.19

>  <log D>
2.19

>  <Pharmaron Caliper Assay (CDK2/CCNE1): Minimum measured (%)>
8.18

>  <Pharmaron Caliper Assay (CDK2/CCNE1): IC50 - Batch Mean (uM)>
3.44

>  <Pharmaron ADPGLO (CDK2/E1-25C): Minimum measured (%)>


>  <Pharmaron ADPGLO (CDK2/E1-25C): IC50 - Batch Mean (uM)>


>  <Pharmaron ADPGLO (CDK2/E1-37C): Minimum measured (%)>


>  <Pharmaron ADPGLO (CDK2/E1-37C): IC50 - Batch Mean (uM)>


>  <IncuCyte Kuramochi RB-WT: IC50 - Batch Mean (uM)>
6.11

>  <IncuCyte Kuramochi RB-KO: IC50 - Batch Mean (uM)>
9.1

>  <DSF (npCDK2/CCNE1): dTm D - Batch Mean [Concentration: 100]>


>  <DSF (npCDK2/CCNE1): dTm D - Batch Mean [Concentration: 20.0]>
0.996

>  <DSF (pCDK2/CCNE1): dTm D - Batch Mean [Concentration: 100]>


>  <DSF (pCDK2/CCNE1): dTm D - Batch Mean [Concentration: 20.0]>
1.111

>  <RLM: t1/2 - Batch Mean (Min)>


>  <RLM: Cl int - Batch Mean (uL/min/mg protein)>


>  <RLM: ER (Hepatic extraction ratio) - Batch Mean>


>  <HLM: t1/2 - Batch Mean (Min)>


>  <HLM: Cl int - Batch Mean (uL/min/mg protein)>


>  <HLM: ER (Hepatic extraction ratio) - Batch Mean>


>  <MDCK-WT 4% BSA: Papp (A-B) - Batch Mean (10-6, cm/s)>


>  <MDCK-WT 4% BSA: Papp (B-A) - Batch Mean (10-6, cm/s)>


>  <MDCK-WT 4% BSA: Efflux Ratio - Batch Mean>


>  <MDCK-WT 4% BSA: ~Net A_B - Batch Mean (10-6, cm/s)>


>  <pIC50>
5.463442

>  <Selection_1>
Y

>  <Selection_N>
N

>  <Serie>
Tetrahydrothienopyridine

>  <Selection_T>


>  <Train_Vs_Test>


$$$$
