CTX-1020582
 OpenBabel08272613283D

 72 77  0  0  0  0  0  0  0  0999 V2000
    2.1506   -1.2427   -0.9635 S   0  0  0  0  0  0  0  0  0  0  0  0
    3.0253    0.0372   -0.0879 C   0  0  0  0  0  0  0  0  0  0  0  0
    0.5547   -0.5753   -0.8623 C   0  0  0  0  0  0  0  0  0  0  0  0
    1.9915    0.9832    0.2869 C   0  0  0  0  0  0  0  0  0  0  0  0
    4.6524   -0.3094    0.0782 C   0  0  0  0  0  0  0  0  0  0  0  0
    0.5362    0.6258   -0.1663 C   0  0  0  0  0  0  0  0  0  0  0  0
   -0.6434   -1.1178   -1.3936 C   0  0  0  0  0  0  0  0  0  0  0  0
    2.1178    2.2557    1.0617 C   0  0  0  0  0  0  0  0  0  0  0  0
    4.9781   -1.5101    0.0768 O   0  0  0  0  0  0  0  0  0  0  0  0
    5.8468    0.6241    0.1535 N   0  0  0  0  0  0  0  0  0  0  0  0
   -0.7970    1.2461   -0.0376 C   0  0  0  0  0  0  0  0  0  0  0  0
   -1.8586   -0.4985   -1.2502 N   0  0  0  0  0  0  0  0  0  0  0  0
    7.3616    0.3000    0.2309 C   0  0  0  0  0  0  0  0  0  0  0  0
    5.5473    1.9579   -0.1410 C   0  0  0  0  0  0  0  0  0  0  0  0
   -1.9471    0.6589   -0.5892 C   0  0  0  0  0  0  0  0  0  0  0  0
    8.4345    1.5559    0.1726 C   0  0  0  0  0  0  0  0  0  0  0  0
    6.4535    3.1293   -0.1159 C   0  0  0  0  0  0  0  0  0  0  0  0
    9.7988    1.4331    0.3248 N   0  0  0  0  0  0  0  0  0  0  0  0
    7.8934    2.8267   -0.0069 C   0  0  0  0  0  0  0  0  0  0  0  0
   10.6170    2.6008    0.3587 C   0  0  0  0  0  0  0  0  0  0  0  0
    8.7236    3.9641   -0.0057 C   0  0  0  0  0  0  0  0  0  0  0  0
   12.1178    2.6575    0.4641 C   0  0  0  0  0  0  0  0  0  0  0  0
   10.0403    3.8701    0.2294 C   0  0  0  0  0  0  0  0  0  0  0  0
   12.7205    3.7727    0.5351 O   0  0  0  0  0  0  0  0  0  0  0  0
   12.8964    1.5182    0.4525 N   0  0  0  0  0  0  0  0  0  0  0  0
   14.3394    1.4760    0.4362 C   0  0  0  0  0  0  0  0  0  0  0  0
   14.9088    0.2226    1.1017 C   0  0  0  0  0  0  0  0  0  0  0  0
   15.7258   -0.6746    0.4070 C   0  0  0  0  0  0  0  0  0  0  0  0
   14.6003   -0.0274    2.4232 C   0  0  0  0  0  0  0  0  0  0  0  0
   16.0824   -1.8965    1.0152 C   0  0  0  0  0  0  0  0  0  0  0  0
   15.0113   -1.2183    3.0325 C   0  0  0  0  0  0  0  0  0  0  0  0
   15.7242   -2.1891    2.3236 C   0  0  0  0  0  0  0  0  0  0  0  0
   16.0890   -3.3718    2.9515 N   0  0  0  0  0  0  0  0  0  0  0  0
   16.2427   -3.4265    4.4076 C   0  0  0  0  0  0  0  0  0  0  0  0
   15.8785   -4.6728    2.3145 C   0  0  0  0  0  0  0  0  0  0  0  0
   17.3918   -4.3980    4.7493 C   0  0  0  0  0  0  0  0  0  0  0  0
   17.0622   -5.5760    2.7072 C   0  0  0  0  0  0  0  0  0  0  0  0
   17.1654   -5.7332    4.1435 N   0  3  0  0  0  0  0  0  0  0  0  0
   18.2450   -6.6482    4.4973 C   0  0  0  0  0  0  0  0  0  0  0  0
   -0.5990   -2.0118   -1.9072 H   0  0  0  0  0  0  0  0  0  0  0  0
    3.1429    2.4127    1.3248 H   0  0  0  0  0  0  0  0  0  0  0  0
    1.5269    2.1916    1.9514 H   0  0  0  0  0  0  0  0  0  0  0  0
    1.7739    3.0733    0.4632 H   0  0  0  0  0  0  0  0  0  0  0  0
   -0.8866    2.1383    0.4732 H   0  0  0  0  0  0  0  0  0  0  0  0
    7.5891   -0.3495   -0.5884 H   0  0  0  0  0  0  0  0  0  0  0  0
    7.4936   -0.1154    1.2081 H   0  0  0  0  0  0  0  0  0  0  0  0
    4.7588    2.2127    0.5360 H   0  0  0  0  0  0  0  0  0  0  0  0
    5.4374    1.8652   -1.2013 H   0  0  0  0  0  0  0  0  0  0  0  0
   -2.8630    1.1227   -0.4836 H   0  0  0  0  0  0  0  0  0  0  0  0
    6.1816    3.7365    0.7221 H   0  0  0  0  0  0  0  0  0  0  0  0
    6.3296    3.6121   -1.0627 H   0  0  0  0  0  0  0  0  0  0  0  0
    8.3092    4.8911   -0.1899 H   0  0  0  0  0  0  0  0  0  0  0  0
   10.6196    4.7200    0.3137 H   0  0  0  0  0  0  0  0  0  0  0  0
   12.4241    0.6543    0.4555 H   0  0  0  0  0  0  0  0  0  0  0  0
   14.7113    2.3356    0.9537 H   0  0  0  0  0  0  0  0  0  0  0  0
   14.6473    1.4619   -0.5884 H   0  0  0  0  0  0  0  0  0  0  0  0
   16.0642   -0.4453   -0.5406 H   0  0  0  0  0  0  0  0  0  0  0  0
   14.0635    0.6677    2.9652 H   0  0  0  0  0  0  0  0  0  0  0  0
   16.6227   -2.5896    0.4740 H   0  0  0  0  0  0  0  0  0  0  0  0
   14.7834   -1.3830    4.0254 H   0  0  0  0  0  0  0  0  0  0  0  0
   15.3337   -3.7738    4.8525 H   0  0  0  0  0  0  0  0  0  0  0  0
   16.4659   -2.4512    4.7868 H   0  0  0  0  0  0  0  0  0  0  0  0
   15.8434   -4.5578    1.2513 H   0  0  0  0  0  0  0  0  0  0  0  0
   14.9527   -5.1039    2.6339 H   0  0  0  0  0  0  0  0  0  0  0  0
   17.4549   -4.5034    5.8122 H   0  0  0  0  0  0  0  0  0  0  0  0
   18.3020   -3.9974    4.3544 H   0  0  0  0  0  0  0  0  0  0  0  0
   17.9676   -5.1392    2.3406 H   0  0  0  0  0  0  0  0  0  0  0  0
   16.9000   -6.5424    2.2776 H   0  0  0  0  0  0  0  0  0  0  0  0
   16.2994   -6.1351    4.5027 H   0  0  0  0  0  0  0  0  0  0  0  0
   19.1744   -6.2598    4.1362 H   0  0  0  0  0  0  0  0  0  0  0  0
   18.0617   -7.6045    4.0538 H   0  0  0  0  0  0  0  0  0  0  0  0
   18.2909   -6.7513    5.5613 H   0  0  0  0  0  0  0  0  0  0  0  0
  1  2  1  0  0  0  0
  1  3  1  0  0  0  0
  2  4  2  0  0  0  0
  2  5  1  0  0  0  0
  3  6  2  0  0  0  0
  3  7  1  0  0  0  0
  4  8  1  0  0  0  0
  4  6  1  0  0  0  0
  5  9  2  0  0  0  0
  5 10  1  0  0  0  0
  6 11  1  0  0  0  0
  7 12  2  0  0  0  0
  7 40  1  0  0  0  0
  8 41  1  0  0  0  0
  8 42  1  0  0  0  0
  8 43  1  0  0  0  0
 10 13  1  0  0  0  0
 10 14  1  0  0  0  0
 11 15  2  0  0  0  0
 11 44  1  0  0  0  0
 12 15  1  0  0  0  0
 13 16  1  0  0  0  0
 13 45  1  0  0  0  0
 13 46  1  0  0  0  0
 14 17  1  0  0  0  0
 14 47  1  0  0  0  0
 14 48  1  0  0  0  0
 15 49  1  0  0  0  0
 16 18  2  0  0  0  0
 16 19  1  0  0  0  0
 17 19  1  0  0  0  0
 17 50  1  0  0  0  0
 17 51  1  0  0  0  0
 18 20  1  0  0  0  0
 19 21  2  0  0  0  0
 20 22  1  0  0  0  0
 20 23  2  0  0  0  0
 21 23  1  0  0  0  0
 21 52  1  0  0  0  0
 22 24  2  0  0  0  0
 22 25  1  0  0  0  0
 23 53  1  0  0  0  0
 25 26  1  0  0  0  0
 25 54  1  0  0  0  0
 26 27  1  0  0  0  0
 26 55  1  0  0  0  0
 26 56  1  0  0  0  0
 27 28  2  0  0  0  0
 27 29  1  0  0  0  0
 28 30  1  0  0  0  0
 28 57  1  0  0  0  0
 29 31  2  0  0  0  0
 29 58  1  0  0  0  0
 30 32  2  0  0  0  0
 30 59  1  0  0  0  0
 31 32  1  0  0  0  0
 31 60  1  0  0  0  0
 32 33  1  0  0  0  0
 33 34  1  0  0  0  0
 33 35  1  0  0  0  0
 34 36  1  0  0  0  0
 34 61  1  0  0  0  0
 34 62  1  0  0  0  0
 35 37  1  0  0  0  0
 35 63  1  0  0  0  0
 35 64  1  0  0  0  0
 36 38  1  0  0  0  0
 36 65  1  0  0  0  0
 36 66  1  0  0  0  0
 37 38  1  0  0  0  0
 37 67  1  0  0  0  0
 37 68  1  0  0  0  0
 38 39  1  0  0  0  0
 38 69  1  0  0  0  0
 39 70  1  0  0  0  0
 39 71  1  0  0  0  0
 39 72  1  0  0  0  0
M  CHG  1  38   1
M  END
>  <Molecule Name>
CTX-1020582

>  <SMILES>
CN1CCN(CC1)C1=CC=C(CNC(=O)C2=CC=C3CCN(CC3=N2)C(=O)C2=C(C)C3=C(S2)C=NC=C3)C=C1

>  <Batch Name>
CTX-1020582-1

>  <Batch Created Date>
2021-11-18

>  <Batch ID>
CTX-1020582-1

>  <External ID>
P841-0239

>  <Stereochemistry>
Achiral

>  <Amount 1>
4.6

>  <Unit 1>
mg

>  <CRO 1>
Pharmaron

>  <CRO 1 Total Amount>
15.7

>  <CRO 1 Unit>
mg

>  <Pharmaron Solubility (PBS, pH 7.4): Aqueous Solubility - Batch Mean (uM)>
286.6525

>  <Pharmaron Solubility (PBS, pH 7.4): Aqueous Solubility - Batch Mean (uM) Standard Deviation (±)>


>  <Pharmaron Solubility (PBS, pH 7.4): Aqueous Solubility - Batch Mean (uM) Count>
1.0

>  <log P>
3.34

>  <log D>
2.71

>  <Pharmaron Caliper Assay (CDK2/CCNE1): Minimum measured (%)>
80.0

>  <Pharmaron Caliper Assay (CDK2/CCNE1): IC50 - Batch Mean (uM)>
2.2

>  <Pharmaron ADPGLO (CDK2/E1-25C): Minimum measured (%)>


>  <Pharmaron ADPGLO (CDK2/E1-25C): IC50 - Batch Mean (uM)>


>  <Pharmaron ADPGLO (CDK2/E1-37C): Minimum measured (%)>


>  <Pharmaron ADPGLO (CDK2/E1-37C): IC50 - Batch Mean (uM)>


>  <IncuCyte Kuramochi RB-WT: IC50 - Batch Mean (uM)>
8.4

>  <IncuCyte Kuramochi RB-KO: IC50 - Batch Mean (uM)>
8.12

>  <DSF (npCDK2/CCNE1): dTm D - Batch Mean [Concentration: 100]>


>  <DSF (npCDK2/CCNE1): dTm D - Batch Mean [Concentration: 20.0]>
0.534

>  <DSF (pCDK2/CCNE1): dTm D - Batch Mean [Concentration: 100]>


>  <DSF (pCDK2/CCNE1): dTm D - Batch Mean [Concentration: 20.0]>
0.179

>  <RLM: t1/2 - Batch Mean (Min)>


>  <RLM: Cl int - Batch Mean (uL/min/mg protein)>


>  <RLM: ER (Hepatic extraction ratio) - Batch Mean>


>  <HLM: t1/2 - Batch Mean (Min)>


>  <HLM: Cl int - Batch Mean (uL/min/mg protein)>


>  <HLM: ER (Hepatic extraction ratio) - Batch Mean>


>  <MDCK-WT 4% BSA: Papp (A-B) - Batch Mean (10-6, cm/s)>


>  <MDCK-WT 4% BSA: Papp (B-A) - Batch Mean (10-6, cm/s)>


>  <MDCK-WT 4% BSA: Efflux Ratio - Batch Mean>


>  <MDCK-WT 4% BSA: ~Net A_B - Batch Mean (10-6, cm/s)>


>  <pIC50>
5.657577

>  <Selection_1>
Y

>  <Selection_N>


>  <Serie>
Naphthyridine

>  <Selection_T>
N

>  <Train_Vs_Test>


$$$$
