CTX-1020667
 OpenBabel08272613283D

 70 75  0  0  0  0  0  0  0  0999 V2000
    2.1086    0.8868   -0.0040 S   0  0  0  0  0  0  0  0  0  0  0  0
    2.3774   -0.8305    0.0142 C   0  0  0  0  0  0  0  0  0  0  0  0
    0.4308    0.6364   -0.0240 C   0  0  0  0  0  0  0  0  0  0  0  0
    1.2663   -1.5638   -0.0160 N   0  0  0  0  0  0  0  0  0  0  0  0
    3.7825   -1.3417    0.0658 C   0  0  0  0  0  0  0  0  0  0  0  0
    0.1392   -0.7168   -0.0757 C   0  0  0  0  0  0  0  0  0  0  0  0
   -0.6069    1.7294   -0.0500 C   0  0  0  0  0  0  0  0  0  0  0  0
    4.7607   -0.5955    0.0334 O   0  0  0  0  0  0  0  0  0  0  0  0
    3.9480   -2.7117    0.1654 N   0  0  0  0  0  0  0  0  0  0  0  0
   -1.3070   -1.2047   -0.1382 C   0  0  0  0  0  0  0  0  0  0  0  0
   -1.9753    1.1265    0.3243 C   0  0  0  0  0  0  0  0  0  0  0  0
    5.2421   -3.3729    0.1655 C   0  0  0  0  0  0  0  0  0  0  0  0
   -2.2072   -0.0358   -0.5145 N   0  0  0  0  0  0  0  0  0  0  0  0
    5.4829   -4.2366    1.3999 C   0  0  0  0  0  0  0  0  0  0  0  0
   -2.7570    0.1112   -1.8336 C   0  0  0  0  0  0  0  0  0  0  0  0
    5.7504   -5.5920    1.3282 C   0  0  0  0  0  0  0  0  0  0  0  0
    5.4439   -3.6592    2.6844 C   0  0  0  0  0  0  0  0  0  0  0  0
   -2.5535   -0.7544   -2.6458 O   0  0  0  0  0  0  0  0  0  0  0  0
   -3.6587    1.3735   -2.1736 C   0  0  0  0  0  0  0  0  0  0  0  0
    5.9335   -6.3768    2.4609 C   0  0  0  0  0  0  0  0  0  0  0  0
    5.6845   -4.4421    3.8295 C   0  0  0  0  0  0  0  0  0  0  0  0
   -4.4815    1.9605   -1.1139 O   0  0  0  0  0  0  0  0  0  0  0  0
   -4.7621    1.5679   -3.0874 C   0  0  0  0  0  0  0  0  0  0  0  0
    5.8801   -5.8175    3.7500 C   0  0  0  0  0  0  0  0  0  0  0  0
   -5.5676    2.6294   -1.7920 C   0  0  0  0  0  0  0  0  0  0  0  0
   -4.9502    3.3668   -2.8734 C   0  0  0  0  0  0  0  0  0  0  0  0
   -5.6773    0.0727   -2.5903 C   0  0  0  0  0  0  0  0  0  0  0  0
    6.0071   -6.6709    4.8503 N   0  0  0  0  0  0  0  0  0  0  0  0
   -6.9435    2.6041   -1.4532 C   0  0  0  0  0  0  0  0  0  0  0  0
   -5.7369    4.9624   -3.0309 C   0  0  0  0  0  0  0  0  0  0  0  0
    6.5288   -6.1441    6.1244 C   0  0  0  0  0  0  0  0  0  0  0  0
    4.8651   -7.6060    5.0476 C   0  0  0  0  0  0  0  0  0  0  0  0
   -6.8892    3.9650   -1.1479 C   0  0  0  0  0  0  0  0  0  0  0  0
   -6.9125    4.8518   -2.2303 C   0  0  0  0  0  0  0  0  0  0  0  0
    6.9048   -7.3256    7.0605 C   0  0  0  0  0  0  0  0  0  0  0  0
    5.2723   -8.7425    6.0211 C   0  0  0  0  0  0  0  0  0  0  0  0
    5.7458   -8.2142    7.3212 N   0  3  0  0  0  0  0  0  0  0  0  0
    6.0962   -9.2980    8.2355 C   0  0  0  0  0  0  0  0  0  0  0  0
   -0.6574    2.1537   -1.0310 H   0  0  0  0  0  0  0  0  0  0  0  0
   -0.3444    2.4957    0.6491 H   0  0  0  0  0  0  0  0  0  0  0  0
    3.1416   -3.2715    0.2406 H   0  0  0  0  0  0  0  0  0  0  0  0
   -1.5978   -1.5888    0.8172 H   0  0  0  0  0  0  0  0  0  0  0  0
   -1.3961   -1.9805   -0.8697 H   0  0  0  0  0  0  0  0  0  0  0  0
   -2.7463    1.8502    0.1608 H   0  0  0  0  0  0  0  0  0  0  0  0
   -1.9831    0.8434    1.3562 H   0  0  0  0  0  0  0  0  0  0  0  0
    6.0052   -2.6242    0.1217 H   0  0  0  0  0  0  0  0  0  0  0  0
    5.2635   -4.0237   -0.6835 H   0  0  0  0  0  0  0  0  0  0  0  0
    5.8164   -6.0370    0.3994 H   0  0  0  0  0  0  0  0  0  0  0  0
    5.2372   -2.6534    2.7868 H   0  0  0  0  0  0  0  0  0  0  0  0
    6.1118   -7.3876    2.3538 H   0  0  0  0  0  0  0  0  0  0  0  0
    5.7167   -3.9833    4.7534 H   0  0  0  0  0  0  0  0  0  0  0  0
   -5.1691   -0.7947   -2.9566 H   0  0  0  0  0  0  0  0  0  0  0  0
   -6.6653    0.1067   -2.9996 H   0  0  0  0  0  0  0  0  0  0  0  0
   -5.7348    0.0283   -1.5228 H   0  0  0  0  0  0  0  0  0  0  0  0
   -7.6793    1.8806   -1.4384 H   0  0  0  0  0  0  0  0  0  0  0  0
   -5.4150    5.7774   -3.5761 H   0  0  0  0  0  0  0  0  0  0  0  0
    5.7797   -5.5417    6.5942 H   0  0  0  0  0  0  0  0  0  0  0  0
    7.3982   -5.5501    5.9344 H   0  0  0  0  0  0  0  0  0  0  0  0
    4.5870   -8.0295    4.1052 H   0  0  0  0  0  0  0  0  0  0  0  0
    4.0383   -7.0681    5.4620 H   0  0  0  0  0  0  0  0  0  0  0  0
   -6.8347    4.3002   -0.1734 H   0  0  0  0  0  0  0  0  0  0  0  0
   -7.7547    5.4090   -2.4428 H   0  0  0  0  0  0  0  0  0  0  0  0
    7.2550   -6.9315    7.9916 H   0  0  0  0  0  0  0  0  0  0  0  0
    7.6641   -7.9038    6.5768 H   0  0  0  0  0  0  0  0  0  0  0  0
    6.0575   -9.3158    5.5742 H   0  0  0  0  0  0  0  0  0  0  0  0
    4.4087   -9.3471    6.2041 H   0  0  0  0  0  0  0  0  0  0  0  0
    5.0018   -7.6840    7.7748 H   0  0  0  0  0  0  0  0  0  0  0  0
    6.8776   -9.8889    7.8052 H   0  0  0  0  0  0  0  0  0  0  0  0
    5.2370   -9.9125    8.4060 H   0  0  0  0  0  0  0  0  0  0  0  0
    6.4306   -8.8866    9.1649 H   0  0  0  0  0  0  0  0  0  0  0  0
  1  2  1  0  0  0  0
  1  3  1  0  0  0  0
  2  4  2  0  0  0  0
  2  5  1  0  0  0  0
  3  6  2  0  0  0  0
  3  7  1  0  0  0  0
  4  6  1  0  0  0  0
  5  8  2  0  0  0  0
  5  9  1  0  0  0  0
  6 10  1  0  0  0  0
  7 11  1  0  0  0  0
  7 39  1  0  0  0  0
  7 40  1  0  0  0  0
  9 12  1  0  0  0  0
  9 41  1  0  0  0  0
 10 13  1  0  0  0  0
 10 42  1  0  0  0  0
 10 43  1  0  0  0  0
 11 13  1  0  0  0  0
 11 44  1  0  0  0  0
 11 45  1  0  0  0  0
 12 14  1  0  0  0  0
 12 46  1  0  0  0  0
 12 47  1  0  0  0  0
 13 15  1  0  0  0  0
 14 16  2  0  0  0  0
 14 17  1  0  0  0  0
 15 18  2  0  0  0  0
 15 19  1  0  0  0  0
 16 20  1  0  0  0  0
 16 48  1  0  0  0  0
 17 21  2  0  0  0  0
 17 49  1  0  0  0  0
 19 22  1  0  0  0  0
 19 23  2  0  0  0  0
 20 24  2  0  0  0  0
 20 50  1  0  0  0  0
 21 24  1  0  0  0  0
 21 51  1  0  0  0  0
 22 25  1  0  0  0  0
 23 26  1  0  0  0  0
 23 27  1  0  0  0  0
 24 28  1  0  0  0  0
 25 29  2  0  0  0  0
 25 26  1  0  0  0  0
 26 30  2  0  0  0  0
 27 52  1  0  0  0  0
 27 53  1  0  0  0  0
 27 54  1  0  0  0  0
 28 31  1  0  0  0  0
 28 32  1  0  0  0  0
 29 33  1  0  0  0  0
 29 55  1  0  0  0  0
 30 34  1  0  0  0  0
 30 56  1  0  0  0  0
 31 35  1  0  0  0  0
 31 57  1  0  0  0  0
 31 58  1  0  0  0  0
 32 36  1  0  0  0  0
 32 59  1  0  0  0  0
 32 60  1  0  0  0  0
 33 34  2  0  0  0  0
 33 61  1  0  0  0  0
 34 62  1  0  0  0  0
 35 37  1  0  0  0  0
 35 63  1  0  0  0  0
 35 64  1  0  0  0  0
 36 37  1  0  0  0  0
 36 65  1  0  0  0  0
 36 66  1  0  0  0  0
 37 38  1  0  0  0  0
 37 67  1  0  0  0  0
 38 68  1  0  0  0  0
 38 69  1  0  0  0  0
 38 70  1  0  0  0  0
M  CHG  1  37   1
M  END
>  <Molecule Name>
CTX-1020667

>  <SMILES>
CN1CCN(CC1)C1=CC=C(CNC(=O)C2=NC3=C(CCN(C3)C(=O)C3=C(C)C4=C(O3)C=CC=C4)S2)C=C1

>  <Batch Name>
CTX-1020667-1

>  <Batch Created Date>
2021-12-03

>  <Batch ID>
CTX-1020667-1

>  <External ID>
610EDL180-C

>  <Stereochemistry>
Achiral

>  <Amount 1>
4.6

>  <Unit 1>
mg

>  <CRO 1>
Pharmaron

>  <CRO 1 Total Amount>
7.8

>  <CRO 1 Unit>
mg

>  <Pharmaron Solubility (PBS, pH 7.4): Aqueous Solubility - Batch Mean (uM)>
15.157

>  <Pharmaron Solubility (PBS, pH 7.4): Aqueous Solubility - Batch Mean (uM) Standard Deviation (±)>


>  <Pharmaron Solubility (PBS, pH 7.4): Aqueous Solubility - Batch Mean (uM) Count>
1.0

>  <log P>
3.63

>  <log D>
3.0

>  <Pharmaron Caliper Assay (CDK2/CCNE1): Minimum measured (%)>
27.5

>  <Pharmaron Caliper Assay (CDK2/CCNE1): IC50 - Batch Mean (uM)>
0.383

>  <Pharmaron ADPGLO (CDK2/E1-25C): Minimum measured (%)>
32.1

>  <Pharmaron ADPGLO (CDK2/E1-25C): IC50 - Batch Mean (uM)>
0.628

>  <Pharmaron ADPGLO (CDK2/E1-37C): Minimum measured (%)>
94.9

>  <Pharmaron ADPGLO (CDK2/E1-37C): IC50 - Batch Mean (uM)>
100

>  <IncuCyte Kuramochi RB-WT: IC50 - Batch Mean (uM)>
7.38

>  <IncuCyte Kuramochi RB-KO: IC50 - Batch Mean (uM)>
7.24

>  <DSF (npCDK2/CCNE1): dTm D - Batch Mean [Concentration: 100]>


>  <DSF (npCDK2/CCNE1): dTm D - Batch Mean [Concentration: 20.0]>
3.398

>  <DSF (pCDK2/CCNE1): dTm D - Batch Mean [Concentration: 100]>


>  <DSF (pCDK2/CCNE1): dTm D - Batch Mean [Concentration: 20.0]>
2.352

>  <RLM: t1/2 - Batch Mean (Min)>


>  <RLM: Cl int - Batch Mean (uL/min/mg protein)>


>  <RLM: ER (Hepatic extraction ratio) - Batch Mean>


>  <HLM: t1/2 - Batch Mean (Min)>
13.38

>  <HLM: Cl int - Batch Mean (uL/min/mg protein)>
103.68

>  <HLM: ER (Hepatic extraction ratio) - Batch Mean>
0.835

>  <MDCK-WT 4% BSA: Papp (A-B) - Batch Mean (10-6, cm/s)>


>  <MDCK-WT 4% BSA: Papp (B-A) - Batch Mean (10-6, cm/s)>


>  <MDCK-WT 4% BSA: Efflux Ratio - Batch Mean>


>  <MDCK-WT 4% BSA: ~Net A_B - Batch Mean (10-6, cm/s)>


>  <pIC50>
6.416801

>  <Selection_1>
Y

>  <Selection_N>
N

>  <Serie>
Other

>  <Selection_T>
N

>  <Train_Vs_Test>


$$$$
