CTX-1020669
 OpenBabel08272613283D

 68 73  0  0  0  0  0  0  0  0999 V2000
   11.1289  -12.5962    1.5622 Cl  0  0  0  0  0  0  0  0  0  0  0  0
   10.6312  -11.3567    2.6489 C   0  0  0  0  0  0  0  0  0  0  0  0
    9.7230  -10.3355    2.3561 C   0  0  0  0  0  0  0  0  0  0  0  0
   11.1645  -11.3371    4.0266 C   0  0  0  0  0  0  0  0  0  0  0  0
    9.4520   -9.4147    3.8005 S   0  0  0  0  0  0  0  0  0  0  0  0
    9.0058   -9.9169    1.0714 C   0  0  0  0  0  0  0  0  0  0  0  0
   10.5554  -10.3260    4.7647 C   0  0  0  0  0  0  0  0  0  0  0  0
   12.1507  -12.1297    4.7286 C   0  0  0  0  0  0  0  0  0  0  0  0
    9.5102  -10.0552   -0.0420 O   0  0  0  0  0  0  0  0  0  0  0  0
    7.6434   -9.4432    1.2016 N   0  0  0  0  0  0  0  0  0  0  0  0
   10.8571  -10.1121    6.1355 C   0  0  0  0  0  0  0  0  0  0  0  0
   12.4939  -11.9048    6.0810 C   0  0  0  0  0  0  0  0  0  0  0  0
    6.8804   -8.5406    0.1702 C   0  0  0  0  0  0  0  0  0  0  0  0
    6.8456  -10.4960    1.7981 C   0  0  0  0  0  0  0  0  0  0  0  0
   11.8500  -10.8867    6.7803 C   0  0  0  0  0  0  0  0  0  0  0  0
    5.3139   -8.6170    0.3520 C   0  0  0  0  0  0  0  0  0  0  0  0
    5.5515  -10.0383    2.4193 C   0  0  0  0  0  0  0  0  0  0  0  0
    4.8140   -9.1692    1.5122 C   0  0  0  0  0  0  0  0  0  0  0  0
    4.1265   -8.3740   -0.5084 C   0  0  0  0  0  0  0  0  0  0  0  0
    3.1697   -8.8903    1.7762 S   0  0  0  0  0  0  0  0  0  0  0  0
    2.9874   -8.9510    0.0745 C   0  0  0  0  0  0  0  0  0  0  0  0
    1.7828   -9.6277   -0.3937 C   0  0  0  0  0  0  0  0  0  0  0  0
    0.7653   -9.0523   -0.7793 O   0  0  0  0  0  0  0  0  0  0  0  0
    1.7870  -11.0203   -0.2805 N   0  0  0  0  0  0  0  0  0  0  0  0
    2.9180  -11.8430    0.1058 C   0  0  0  0  0  0  0  0  0  0  0  0
    2.8617  -13.2250   -0.4764 C   0  0  0  0  0  0  0  0  0  0  0  0
    2.9796  -13.3874   -1.8668 C   0  0  0  0  0  0  0  0  0  0  0  0
    2.7624  -14.3683    0.3175 C   0  0  0  0  0  0  0  0  0  0  0  0
    2.9905  -14.6567   -2.4368 C   0  0  0  0  0  0  0  0  0  0  0  0
    2.7527  -15.6451   -0.2805 C   0  0  0  0  0  0  0  0  0  0  0  0
    2.8394  -15.8289   -1.6669 C   0  0  0  0  0  0  0  0  0  0  0  0
    2.7553  -17.0725   -2.2678 N   0  0  0  0  0  0  0  0  0  0  0  0
    3.5654  -17.4239   -3.4456 C   0  0  0  0  0  0  0  0  0  0  0  0
    2.0552  -18.1751   -1.6508 C   0  0  0  0  0  0  0  0  0  0  0  0
    2.7038  -18.2034   -4.4652 C   0  0  0  0  0  0  0  0  0  0  0  0
    1.2427  -18.9566   -2.7066 C   0  0  0  0  0  0  0  0  0  0  0  0
    2.0731  -19.3961   -3.8512 N   0  3  0  0  0  0  0  0  0  0  0  0
    1.2704  -20.1215   -4.8290 C   0  0  0  0  0  0  0  0  0  0  0  0
   12.6240  -12.8925    4.2196 H   0  0  0  0  0  0  0  0  0  0  0  0
   10.3487   -9.3868    6.6651 H   0  0  0  0  0  0  0  0  0  0  0  0
   13.2105  -12.4859    6.5434 H   0  0  0  0  0  0  0  0  0  0  0  0
    7.1282   -8.8635   -0.8193 H   0  0  0  0  0  0  0  0  0  0  0  0
    7.1805   -7.5271    0.3369 H   0  0  0  0  0  0  0  0  0  0  0  0
    7.4319  -10.9658    2.5600 H   0  0  0  0  0  0  0  0  0  0  0  0
    6.5778  -11.1572    1.0007 H   0  0  0  0  0  0  0  0  0  0  0  0
   12.0962  -10.6981    7.7646 H   0  0  0  0  0  0  0  0  0  0  0  0
    5.7663   -9.5020    3.3199 H   0  0  0  0  0  0  0  0  0  0  0  0
    4.9514  -10.8991    2.6287 H   0  0  0  0  0  0  0  0  0  0  0  0
    4.1379   -7.8575   -1.4018 H   0  0  0  0  0  0  0  0  0  0  0  0
    0.9437  -11.4869   -0.4815 H   0  0  0  0  0  0  0  0  0  0  0  0
    2.9337  -11.9225    1.1727 H   0  0  0  0  0  0  0  0  0  0  0  0
    3.8013  -11.3716   -0.2718 H   0  0  0  0  0  0  0  0  0  0  0  0
    3.0589  -12.5557   -2.4725 H   0  0  0  0  0  0  0  0  0  0  0  0
    2.6960  -14.2792    1.3435 H   0  0  0  0  0  0  0  0  0  0  0  0
    3.1135  -14.7434   -3.4577 H   0  0  0  0  0  0  0  0  0  0  0  0
    2.6788  -16.4765    0.3264 H   0  0  0  0  0  0  0  0  0  0  0  0
    4.3904  -18.0328   -3.1396 H   0  0  0  0  0  0  0  0  0  0  0  0
    3.9273  -16.5272   -3.9038 H   0  0  0  0  0  0  0  0  0  0  0  0
    1.3897  -17.7960   -0.9036 H   0  0  0  0  0  0  0  0  0  0  0  0
    2.7707  -18.8347   -1.2060 H   0  0  0  0  0  0  0  0  0  0  0  0
    3.3266  -18.5192   -5.2759 H   0  0  0  0  0  0  0  0  0  0  0  0
    1.9257  -17.5546   -4.8095 H   0  0  0  0  0  0  0  0  0  0  0  0
    0.4600  -18.3257   -3.0730 H   0  0  0  0  0  0  0  0  0  0  0  0
    0.8527  -19.8331   -2.2328 H   0  0  0  0  0  0  0  0  0  0  0  0
    2.7974  -20.0342   -3.5218 H   0  0  0  0  0  0  0  0  0  0  0  0
    0.4963  -19.4825   -5.1995 H   0  0  0  0  0  0  0  0  0  0  0  0
    0.8324  -20.9801   -4.3645 H   0  0  0  0  0  0  0  0  0  0  0  0
    1.8937  -20.4341   -5.6406 H   0  0  0  0  0  0  0  0  0  0  0  0
  1  2  1  0  0  0  0
  2  3  2  0  0  0  0
  2  4  1  0  0  0  0
  3  5  1  0  0  0  0
  3  6  1  0  0  0  0
  4  7  2  0  0  0  0
  4  8  1  0  0  0  0
  5  7  1  0  0  0  0
  6  9  2  0  0  0  0
  6 10  1  0  0  0  0
  7 11  1  0  0  0  0
  8 12  2  0  0  0  0
  8 39  1  0  0  0  0
 10 13  1  0  0  0  0
 10 14  1  0  0  0  0
 11 15  2  0  0  0  0
 11 40  1  0  0  0  0
 12 15  1  0  0  0  0
 12 41  1  0  0  0  0
 13 16  1  0  0  0  0
 13 42  1  0  0  0  0
 13 43  1  0  0  0  0
 14 17  1  0  0  0  0
 14 44  1  0  0  0  0
 14 45  1  0  0  0  0
 15 46  1  0  0  0  0
 16 18  2  0  0  0  0
 16 19  1  0  0  0  0
 17 18  1  0  0  0  0
 17 47  1  0  0  0  0
 17 48  1  0  0  0  0
 18 20  1  0  0  0  0
 19 21  2  0  0  0  0
 19 49  1  0  0  0  0
 20 21  1  0  0  0  0
 21 22  1  0  0  0  0
 22 23  2  0  0  0  0
 22 24  1  0  0  0  0
 24 25  1  0  0  0  0
 24 50  1  0  0  0  0
 25 26  1  0  0  0  0
 25 51  1  0  0  0  0
 25 52  1  0  0  0  0
 26 27  2  0  0  0  0
 26 28  1  0  0  0  0
 27 29  1  0  0  0  0
 27 53  1  0  0  0  0
 28 30  2  0  0  0  0
 28 54  1  0  0  0  0
 29 31  2  0  0  0  0
 29 55  1  0  0  0  0
 30 31  1  0  0  0  0
 30 56  1  0  0  0  0
 31 32  1  0  0  0  0
 32 33  1  0  0  0  0
 32 34  1  0  0  0  0
 33 35  1  0  0  0  0
 33 57  1  0  0  0  0
 33 58  1  0  0  0  0
 34 36  1  0  0  0  0
 34 59  1  0  0  0  0
 34 60  1  0  0  0  0
 35 37  1  0  0  0  0
 35 61  1  0  0  0  0
 35 62  1  0  0  0  0
 36 37  1  0  0  0  0
 36 63  1  0  0  0  0
 36 64  1  0  0  0  0
 37 38  1  0  0  0  0
 37 65  1  0  0  0  0
 38 66  1  0  0  0  0
 38 67  1  0  0  0  0
 38 68  1  0  0  0  0
M  CHG  1  37   1
M  END
>  <Molecule Name>
CTX-1020669

>  <SMILES>
CN1CCN(CC1)C1=CC=C(CNC(=O)C2=CC3=C(CCN(C3)C(=O)C3=C(Cl)C4=C(S3)C=CC=C4)S2)C=C1

>  <Batch Name>
CTX-1020669-1

>  <Batch Created Date>
2021-12-03

>  <Batch ID>
CTX-1020669-1

>  <External ID>
610EDL216-4

>  <Stereochemistry>
Achiral

>  <Amount 1>
5.2

>  <Unit 1>
mg

>  <CRO 1>
Pharmaron

>  <CRO 1 Total Amount>
22.8

>  <CRO 1 Unit>
mg

>  <Pharmaron Solubility (PBS, pH 7.4): Aqueous Solubility - Batch Mean (uM)>
0.2684

>  <Pharmaron Solubility (PBS, pH 7.4): Aqueous Solubility - Batch Mean (uM) Standard Deviation (±)>


>  <Pharmaron Solubility (PBS, pH 7.4): Aqueous Solubility - Batch Mean (uM) Count>
1.0

>  <log P>
5.45

>  <log D>
4.81

>  <Pharmaron Caliper Assay (CDK2/CCNE1): Minimum measured (%)>
44.6

>  <Pharmaron Caliper Assay (CDK2/CCNE1): IC50 - Batch Mean (uM)>
2.03

>  <Pharmaron ADPGLO (CDK2/E1-25C): Minimum measured (%)>


>  <Pharmaron ADPGLO (CDK2/E1-25C): IC50 - Batch Mean (uM)>


>  <Pharmaron ADPGLO (CDK2/E1-37C): Minimum measured (%)>


>  <Pharmaron ADPGLO (CDK2/E1-37C): IC50 - Batch Mean (uM)>


>  <IncuCyte Kuramochi RB-WT: IC50 - Batch Mean (uM)>
5.49

>  <IncuCyte Kuramochi RB-KO: IC50 - Batch Mean (uM)>
4.58

>  <DSF (npCDK2/CCNE1): dTm D - Batch Mean [Concentration: 100]>


>  <DSF (npCDK2/CCNE1): dTm D - Batch Mean [Concentration: 20.0]>
1.57

>  <DSF (pCDK2/CCNE1): dTm D - Batch Mean [Concentration: 100]>


>  <DSF (pCDK2/CCNE1): dTm D - Batch Mean [Concentration: 20.0]>
0.7440000000000001

>  <RLM: t1/2 - Batch Mean (Min)>


>  <RLM: Cl int - Batch Mean (uL/min/mg protein)>


>  <RLM: ER (Hepatic extraction ratio) - Batch Mean>


>  <HLM: t1/2 - Batch Mean (Min)>
13.8

>  <HLM: Cl int - Batch Mean (uL/min/mg protein)>
100.41

>  <HLM: ER (Hepatic extraction ratio) - Batch Mean>
0.831

>  <MDCK-WT 4% BSA: Papp (A-B) - Batch Mean (10-6, cm/s)>
2.71

>  <MDCK-WT 4% BSA: Papp (B-A) - Batch Mean (10-6, cm/s)>
2.8

>  <MDCK-WT 4% BSA: Efflux Ratio - Batch Mean>
1.04

>  <MDCK-WT 4% BSA: ~Net A_B - Batch Mean (10-6, cm/s)>
2.7533

>  <pIC50>
5.692504

>  <Selection_1>
Y

>  <Selection_N>
N

>  <Serie>
Tetrahydrothienopyridine

>  <Selection_T>


>  <Train_Vs_Test>


$$$$
