CTX-1020555
 OpenBabel08272613283D

 68 73  0  0  0  0  0  0  0  0999 V2000
    0.0005   10.1327    2.9699 Cl  0  0  0  0  0  0  0  0  0  0  0  0
    1.6893   10.4625    2.7706 C   0  0  0  0  0  0  0  0  0  0  0  0
    2.2692   11.6070    3.1601 C   0  0  0  0  0  0  0  0  0  0  0  0
    2.4888    9.3999    2.1860 C   0  0  0  0  0  0  0  0  0  0  0  0
    3.6174   11.7590    2.9541 N   0  0  0  0  0  0  0  0  0  0  0  0
    3.7928    9.5742    1.9499 C   0  0  0  0  0  0  0  0  0  0  0  0
    4.3877   12.8293    3.2737 N   0  0  0  0  0  0  0  0  0  0  0  0
    4.3989   10.7748    2.3364 C   0  0  0  0  0  0  0  0  0  0  0  0
    5.5981   12.5178    2.7902 C   0  0  0  0  0  0  0  0  0  0  0  0
    5.6535   11.2399    2.1044 C   0  0  0  0  0  0  0  0  0  0  0  0
    6.7963   10.6824    1.3291 C   0  0  0  0  0  0  0  0  0  0  0  0
    7.6906   11.5560    1.3098 O   0  0  0  0  0  0  0  0  0  0  0  0
    7.1756    9.1327    1.1011 N   0  0  0  0  0  0  0  0  0  0  0  0
    7.3559    7.6257    0.0723 C   0  0  0  0  0  0  0  0  0  0  0  0
    8.4756    9.4211    1.5236 C   0  0  0  0  0  0  0  0  0  0  0  0
    8.9245    6.7090   -0.2483 C   0  0  0  0  0  0  0  0  0  0  0  0
    9.1737    8.1989    1.6416 C   0  0  0  0  0  0  0  0  0  0  0  0
    9.6062    7.0964    0.8973 C   0  0  0  0  0  0  0  0  0  0  0  0
   10.3012    5.9389   -0.5076 C   0  0  0  0  0  0  0  0  0  0  0  0
   11.0890    6.7547    1.5732 S   0  0  0  0  0  0  0  0  0  0  0  0
   11.5571    6.4579   -0.0151 C   0  0  0  0  0  0  0  0  0  0  0  0
   13.0183    6.5204   -0.1324 C   0  0  0  0  0  0  0  0  0  0  0  0
   13.7963    5.5690   -0.0955 O   0  0  0  0  0  0  0  0  0  0  0  0
   13.5255    7.8291   -0.0963 N   0  0  0  0  0  0  0  0  0  0  0  0
   12.6641    8.9966   -0.0435 C   0  0  0  0  0  0  0  0  0  0  0  0
   13.2536   10.1750   -0.7055 C   0  0  0  0  0  0  0  0  0  0  0  0
   13.1420   10.3057   -2.0863 C   0  0  0  0  0  0  0  0  0  0  0  0
   13.8812   11.1443    0.0643 C   0  0  0  0  0  0  0  0  0  0  0  0
   13.7898   11.3512   -2.7101 C   0  0  0  0  0  0  0  0  0  0  0  0
   14.4530   12.2246   -0.5678 C   0  0  0  0  0  0  0  0  0  0  0  0
   14.4908   12.3115   -1.9653 C   0  0  0  0  0  0  0  0  0  0  0  0
   15.2707   13.2553   -2.5834 N   0  0  0  0  0  0  0  0  0  0  0  0
   14.9280   13.7674   -3.9091 C   0  0  0  0  0  0  0  0  0  0  0  0
   16.2352   14.0741   -1.8357 C   0  0  0  0  0  0  0  0  0  0  0  0
   16.2213   13.9653   -4.7107 C   0  0  0  0  0  0  0  0  0  0  0  0
   17.4844   14.3197   -2.6991 C   0  0  0  0  0  0  0  0  0  0  0  0
   17.1296   14.8990   -4.0116 N   0  3  0  0  0  0  0  0  0  0  0  0
   18.3169   15.1546   -4.8059 C   0  0  0  0  0  0  0  0  0  0  0  0
    1.7149   12.3556    3.6043 H   0  0  0  0  0  0  0  0  0  0  0  0
    2.0444    8.4989    1.9500 H   0  0  0  0  0  0  0  0  0  0  0  0
    4.3447    8.8339    1.4892 H   0  0  0  0  0  0  0  0  0  0  0  0
    6.4196   13.1333    2.8963 H   0  0  0  0  0  0  0  0  0  0  0  0
    6.9903    7.9016   -0.8947 H   0  0  0  0  0  0  0  0  0  0  0  0
    6.8573    6.9172    0.7002 H   0  0  0  0  0  0  0  0  0  0  0  0
    8.4485    9.9175    2.4711 H   0  0  0  0  0  0  0  0  0  0  0  0
    8.9630   10.0629    0.8197 H   0  0  0  0  0  0  0  0  0  0  0  0
    8.5998    7.7134    2.4030 H   0  0  0  0  0  0  0  0  0  0  0  0
   10.1157    8.6906    1.5163 H   0  0  0  0  0  0  0  0  0  0  0  0
   10.2931    5.0532   -1.0373 H   0  0  0  0  0  0  0  0  0  0  0  0
   14.5012    7.9599   -0.1070 H   0  0  0  0  0  0  0  0  0  0  0  0
   12.4790    9.2382    0.9823 H   0  0  0  0  0  0  0  0  0  0  0  0
   11.7616    8.7536   -0.5644 H   0  0  0  0  0  0  0  0  0  0  0  0
   12.5843    9.6320   -2.6341 H   0  0  0  0  0  0  0  0  0  0  0  0
   13.9184   11.0565    1.0918 H   0  0  0  0  0  0  0  0  0  0  0  0
   13.7585   11.4282   -3.7387 H   0  0  0  0  0  0  0  0  0  0  0  0
   14.8614   12.9848   -0.0018 H   0  0  0  0  0  0  0  0  0  0  0  0
   14.4176   14.7028   -3.8127 H   0  0  0  0  0  0  0  0  0  0  0  0
   14.2895   13.0728   -4.4138 H   0  0  0  0  0  0  0  0  0  0  0  0
   16.5171   13.5623   -0.9393 H   0  0  0  0  0  0  0  0  0  0  0  0
   15.7859   15.0127   -1.5866 H   0  0  0  0  0  0  0  0  0  0  0  0
   15.9804   14.3642   -5.6739 H   0  0  0  0  0  0  0  0  0  0  0  0
   16.7114   13.0197   -4.8135 H   0  0  0  0  0  0  0  0  0  0  0  0
   17.9883   13.3886   -2.8547 H   0  0  0  0  0  0  0  0  0  0  0  0
   18.1168   15.0134   -2.1856 H   0  0  0  0  0  0  0  0  0  0  0  0
   16.6607   15.7941   -3.8719 H   0  0  0  0  0  0  0  0  0  0  0  0
   18.8380   14.2354   -4.9744 H   0  0  0  0  0  0  0  0  0  0  0  0
   18.9555   15.8362   -4.2838 H   0  0  0  0  0  0  0  0  0  0  0  0
   18.0326   15.5808   -5.7453 H   0  0  0  0  0  0  0  0  0  0  0  0
  1  2  1  0  0  0  0
  2  3  2  0  0  0  0
  2  4  1  0  0  0  0
  3  5  1  0  0  0  0
  3 39  1  0  0  0  0
  4  6  2  0  0  0  0
  4 40  1  0  0  0  0
  5  7  1  0  0  0  0
  5  8  1  0  0  0  0
  6  8  1  0  0  0  0
  6 41  1  0  0  0  0
  7  9  2  0  0  0  0
  8 10  2  0  0  0  0
  9 10  1  0  0  0  0
  9 42  1  0  0  0  0
 10 11  1  0  0  0  0
 11 12  2  0  0  0  0
 11 13  1  0  0  0  0
 13 14  1  0  0  0  0
 13 15  1  0  0  0  0
 14 16  1  0  0  0  0
 14 43  1  0  0  0  0
 14 44  1  0  0  0  0
 15 17  1  0  0  0  0
 15 45  1  0  0  0  0
 15 46  1  0  0  0  0
 16 18  2  0  0  0  0
 16 19  1  0  0  0  0
 17 18  1  0  0  0  0
 17 47  1  0  0  0  0
 17 48  1  0  0  0  0
 18 20  1  0  0  0  0
 19 21  2  0  0  0  0
 19 49  1  0  0  0  0
 20 21  1  0  0  0  0
 21 22  1  0  0  0  0
 22 23  2  0  0  0  0
 22 24  1  0  0  0  0
 24 25  1  0  0  0  0
 24 50  1  0  0  0  0
 25 26  1  0  0  0  0
 25 51  1  0  0  0  0
 25 52  1  0  0  0  0
 26 27  2  0  0  0  0
 26 28  1  0  0  0  0
 27 29  1  0  0  0  0
 27 53  1  0  0  0  0
 28 30  2  0  0  0  0
 28 54  1  0  0  0  0
 29 31  2  0  0  0  0
 29 55  1  0  0  0  0
 30 31  1  0  0  0  0
 30 56  1  0  0  0  0
 31 32  1  0  0  0  0
 32 33  1  0  0  0  0
 32 34  1  0  0  0  0
 33 35  1  0  0  0  0
 33 57  1  0  0  0  0
 33 58  1  0  0  0  0
 34 36  1  0  0  0  0
 34 59  1  0  0  0  0
 34 60  1  0  0  0  0
 35 37  1  0  0  0  0
 35 61  1  0  0  0  0
 35 62  1  0  0  0  0
 36 37  1  0  0  0  0
 36 63  1  0  0  0  0
 36 64  1  0  0  0  0
 37 38  1  0  0  0  0
 37 65  1  0  0  0  0
 38 66  1  0  0  0  0
 38 67  1  0  0  0  0
 38 68  1  0  0  0  0
M  CHG  1  37   1
M  END
>  <Molecule Name>
CTX-1020555

>  <SMILES>
CN1CCN(CC1)C1=CC=C(CNC(=O)C2=CC3=C(CCN(C3)C(=O)C3=C4C=CC(Cl)=CN4N=C3)S2)C=C1

>  <Batch Name>
CTX-1020555-1

>  <Batch Created Date>
2021-11-18

>  <Batch ID>
CTX-1020555-1

>  <External ID>
CD-44-K

>  <Stereochemistry>
Achiral

>  <Amount 1>
2.5

>  <Unit 1>
mg

>  <CRO 1>
Pharmaron

>  <CRO 1 Total Amount>
12.2

>  <CRO 1 Unit>
mg

>  <Pharmaron Solubility (PBS, pH 7.4): Aqueous Solubility - Batch Mean (uM)>
118.75

>  <Pharmaron Solubility (PBS, pH 7.4): Aqueous Solubility - Batch Mean (uM) Standard Deviation (±)>


>  <Pharmaron Solubility (PBS, pH 7.4): Aqueous Solubility - Batch Mean (uM) Count>
1.0

>  <log P>
3.97

>  <log D>
3.34

>  <Pharmaron Caliper Assay (CDK2/CCNE1): Minimum measured (%)>
74.6

>  <Pharmaron Caliper Assay (CDK2/CCNE1): IC50 - Batch Mean (uM)>
6.46

>  <Pharmaron ADPGLO (CDK2/E1-25C): Minimum measured (%)>


>  <Pharmaron ADPGLO (CDK2/E1-25C): IC50 - Batch Mean (uM)>


>  <Pharmaron ADPGLO (CDK2/E1-37C): Minimum measured (%)>


>  <Pharmaron ADPGLO (CDK2/E1-37C): IC50 - Batch Mean (uM)>


>  <IncuCyte Kuramochi RB-WT: IC50 - Batch Mean (uM)>
7.34

>  <IncuCyte Kuramochi RB-KO: IC50 - Batch Mean (uM)>
20.0

>  <DSF (npCDK2/CCNE1): dTm D - Batch Mean [Concentration: 100]>


>  <DSF (npCDK2/CCNE1): dTm D - Batch Mean [Concentration: 20.0]>


>  <DSF (pCDK2/CCNE1): dTm D - Batch Mean [Concentration: 100]>


>  <DSF (pCDK2/CCNE1): dTm D - Batch Mean [Concentration: 20.0]>
0.741

>  <RLM: t1/2 - Batch Mean (Min)>


>  <RLM: Cl int - Batch Mean (uL/min/mg protein)>


>  <RLM: ER (Hepatic extraction ratio) - Batch Mean>


>  <HLM: t1/2 - Batch Mean (Min)>


>  <HLM: Cl int - Batch Mean (uL/min/mg protein)>


>  <HLM: ER (Hepatic extraction ratio) - Batch Mean>


>  <MDCK-WT 4% BSA: Papp (A-B) - Batch Mean (10-6, cm/s)>


>  <MDCK-WT 4% BSA: Papp (B-A) - Batch Mean (10-6, cm/s)>


>  <MDCK-WT 4% BSA: Efflux Ratio - Batch Mean>


>  <MDCK-WT 4% BSA: ~Net A_B - Batch Mean (10-6, cm/s)>


>  <pIC50>
5.189767

>  <Selection_1>
Y

>  <Selection_N>
N

>  <Serie>
Tetrahydrothienopyridine

>  <Selection_T>


>  <Train_Vs_Test>


$$$$
