CTX-1020670
 OpenBabel08272613283D

 50 54  0  0  0  0  0  0  0  0999 V2000
    3.3337   -0.6934    1.9652 Cl  0  0  0  0  0  0  0  0  0  0  0  0
    4.3547   -1.8417    2.7617 C   0  0  0  0  0  0  0  0  0  0  0  0
    4.8694   -3.0079    2.1909 C   0  0  0  0  0  0  0  0  0  0  0  0
    4.7152   -1.6572    4.1438 C   0  0  0  0  0  0  0  0  0  0  0  0
    5.8677   -3.8170    3.2988 S   0  0  0  0  0  0  0  0  0  0  0  0
    4.6950   -3.4447    0.8075 C   0  0  0  0  0  0  0  0  0  0  0  0
    5.5571   -2.6903    4.5688 C   0  0  0  0  0  0  0  0  0  0  0  0
    4.3629   -0.6551    5.0993 C   0  0  0  0  0  0  0  0  0  0  0  0
    4.6376   -2.5892   -0.0849 O   0  0  0  0  0  0  0  0  0  0  0  0
    4.3069   -4.7730    0.4846 N   0  0  0  0  0  0  0  0  0  0  0  0
    6.0471   -2.7422    5.8812 C   0  0  0  0  0  0  0  0  0  0  0  0
    4.8385   -0.7202    6.4121 C   0  0  0  0  0  0  0  0  0  0  0  0
    5.0650   -6.0476    0.7605 C   0  0  0  0  0  0  0  0  0  0  0  0
    3.1636   -4.7949   -0.4415 C   0  0  0  0  0  0  0  0  0  0  0  0
    5.6763   -1.7564    6.7991 C   0  0  0  0  0  0  0  0  0  0  0  0
    4.2929   -7.2834    0.2846 C   0  0  0  0  0  0  0  0  0  0  0  0
    3.0514   -5.9318   -1.4482 C   0  0  0  0  0  0  0  0  0  0  0  0
    3.4757   -7.1895   -0.8224 C   0  0  0  0  0  0  0  0  0  0  0  0
    4.1487   -8.6298    0.8328 C   0  0  0  0  0  0  0  0  0  0  0  0
    2.8869   -8.6786   -1.3749 S   0  0  0  0  0  0  0  0  0  0  0  0
    3.0722   -9.2773    0.2221 C   0  0  0  0  0  0  0  0  0  0  0  0
    2.0754  -10.2212    0.6904 C   0  0  0  0  0  0  0  0  0  0  0  0
    2.2647  -11.4309    0.8201 O   0  0  0  0  0  0  0  0  0  0  0  0
    0.8235   -9.6838    0.9690 N   0  0  0  0  0  0  0  0  0  0  0  0
    0.4265   -8.2958    0.7816 C   0  0  0  0  0  0  0  0  0  0  0  0
   -0.5655   -7.7922    1.7914 C   0  0  0  0  0  0  0  0  0  0  0  0
   -0.1232   -7.4488    3.0775 C   0  0  0  0  0  0  0  0  0  0  0  0
   -1.9004   -7.5491    1.4430 C   0  0  0  0  0  0  0  0  0  0  0  0
   -0.9909   -6.8493    3.9893 C   0  0  0  0  0  0  0  0  0  0  0  0
   -2.7689   -6.9523    2.3599 C   0  0  0  0  0  0  0  0  0  0  0  0
   -2.3126   -6.5978    3.6289 C   0  0  0  0  0  0  0  0  0  0  0  0
    3.7501    0.1258    4.8170 H   0  0  0  0  0  0  0  0  0  0  0  0
    6.6793   -3.5057    6.1682 H   0  0  0  0  0  0  0  0  0  0  0  0
    4.5661    0.0040    7.0950 H   0  0  0  0  0  0  0  0  0  0  0  0
    5.2338   -6.1291    1.8139 H   0  0  0  0  0  0  0  0  0  0  0  0
    5.9903   -6.0068    0.2248 H   0  0  0  0  0  0  0  0  0  0  0  0
    3.1952   -3.8831   -1.0004 H   0  0  0  0  0  0  0  0  0  0  0  0
    2.3175   -4.9341    0.1985 H   0  0  0  0  0  0  0  0  0  0  0  0
    6.0269   -1.7991    7.7688 H   0  0  0  0  0  0  0  0  0  0  0  0
    3.6780   -5.7244   -2.2904 H   0  0  0  0  0  0  0  0  0  0  0  0
    2.0350   -6.0212   -1.7702 H   0  0  0  0  0  0  0  0  0  0  0  0
    4.7520   -9.0410    1.5622 H   0  0  0  0  0  0  0  0  0  0  0  0
    0.1426  -10.2989    1.3259 H   0  0  0  0  0  0  0  0  0  0  0  0
   -0.0086   -8.2006   -0.1913 H   0  0  0  0  0  0  0  0  0  0  0  0
    1.3113   -7.7063    0.9024 H   0  0  0  0  0  0  0  0  0  0  0  0
    0.8530   -7.6417    3.3512 H   0  0  0  0  0  0  0  0  0  0  0  0
   -2.2433   -7.8118    0.5057 H   0  0  0  0  0  0  0  0  0  0  0  0
   -0.6543   -6.5922    4.9303 H   0  0  0  0  0  0  0  0  0  0  0  0
   -3.7508   -6.7734    2.0974 H   0  0  0  0  0  0  0  0  0  0  0  0
   -2.9543   -6.1490    4.3011 H   0  0  0  0  0  0  0  0  0  0  0  0
  1  2  1  0  0  0  0
  2  3  2  0  0  0  0
  2  4  1  0  0  0  0
  3  5  1  0  0  0  0
  3  6  1  0  0  0  0
  4  7  2  0  0  0  0
  4  8  1  0  0  0  0
  5  7  1  0  0  0  0
  6  9  2  0  0  0  0
  6 10  1  0  0  0  0
  7 11  1  0  0  0  0
  8 12  2  0  0  0  0
  8 32  1  0  0  0  0
 10 13  1  0  0  0  0
 10 14  1  0  0  0  0
 11 15  2  0  0  0  0
 11 33  1  0  0  0  0
 12 15  1  0  0  0  0
 12 34  1  0  0  0  0
 13 16  1  0  0  0  0
 13 35  1  0  0  0  0
 13 36  1  0  0  0  0
 14 17  1  0  0  0  0
 14 37  1  0  0  0  0
 14 38  1  0  0  0  0
 15 39  1  0  0  0  0
 16 18  2  0  0  0  0
 16 19  1  0  0  0  0
 17 18  1  0  0  0  0
 17 40  1  0  0  0  0
 17 41  1  0  0  0  0
 18 20  1  0  0  0  0
 19 21  2  0  0  0  0
 19 42  1  0  0  0  0
 20 21  1  0  0  0  0
 21 22  1  0  0  0  0
 22 23  2  0  0  0  0
 22 24  1  0  0  0  0
 24 25  1  0  0  0  0
 24 43  1  0  0  0  0
 25 26  1  0  0  0  0
 25 44  1  0  0  0  0
 25 45  1  0  0  0  0
 26 27  2  0  0  0  0
 26 28  1  0  0  0  0
 27 29  1  0  0  0  0
 27 46  1  0  0  0  0
 28 30  2  0  0  0  0
 28 47  1  0  0  0  0
 29 31  2  0  0  0  0
 29 48  1  0  0  0  0
 30 31  1  0  0  0  0
 30 49  1  0  0  0  0
 31 50  1  0  0  0  0
M  END
>  <Molecule Name>
CTX-1020670

>  <SMILES>
ClC1=C(SC2=C1C=CC=C2)C(=O)N1CCC2=C(C1)C=C(S2)C(=O)NCC1=CC=CC=C1

>  <Batch Name>
CTX-1020670-1

>  <Batch Created Date>
2021-12-03

>  <Batch ID>
CTX-1020670-1

>  <External ID>
610EDL217-3

>  <Stereochemistry>
Achiral

>  <Amount 1>
6.9

>  <Unit 1>
mg

>  <CRO 1>
Pharmaron

>  <CRO 1 Total Amount>
35.5

>  <CRO 1 Unit>
mg

>  <Pharmaron Solubility (PBS, pH 7.4): Aqueous Solubility - Batch Mean (uM)>
0.0001

>  <Pharmaron Solubility (PBS, pH 7.4): Aqueous Solubility - Batch Mean (uM) Standard Deviation (±)>


>  <Pharmaron Solubility (PBS, pH 7.4): Aqueous Solubility - Batch Mean (uM) Count>
1.0

>  <log P>
5.49

>  <log D>
5.49

>  <Pharmaron Caliper Assay (CDK2/CCNE1): Minimum measured (%)>
73.0

>  <Pharmaron Caliper Assay (CDK2/CCNE1): IC50 - Batch Mean (uM)>
1.25

>  <Pharmaron ADPGLO (CDK2/E1-25C): Minimum measured (%)>


>  <Pharmaron ADPGLO (CDK2/E1-25C): IC50 - Batch Mean (uM)>


>  <Pharmaron ADPGLO (CDK2/E1-37C): Minimum measured (%)>


>  <Pharmaron ADPGLO (CDK2/E1-37C): IC50 - Batch Mean (uM)>


>  <IncuCyte Kuramochi RB-WT: IC50 - Batch Mean (uM)>
20.0

>  <IncuCyte Kuramochi RB-KO: IC50 - Batch Mean (uM)>
20.0

>  <DSF (npCDK2/CCNE1): dTm D - Batch Mean [Concentration: 100]>


>  <DSF (npCDK2/CCNE1): dTm D - Batch Mean [Concentration: 20.0]>
0.32899999999999996

>  <DSF (pCDK2/CCNE1): dTm D - Batch Mean [Concentration: 100]>


>  <DSF (pCDK2/CCNE1): dTm D - Batch Mean [Concentration: 20.0]>
0.14300000000000002

>  <RLM: t1/2 - Batch Mean (Min)>


>  <RLM: Cl int - Batch Mean (uL/min/mg protein)>


>  <RLM: ER (Hepatic extraction ratio) - Batch Mean>


>  <HLM: t1/2 - Batch Mean (Min)>


>  <HLM: Cl int - Batch Mean (uL/min/mg protein)>


>  <HLM: ER (Hepatic extraction ratio) - Batch Mean>


>  <MDCK-WT 4% BSA: Papp (A-B) - Batch Mean (10-6, cm/s)>


>  <MDCK-WT 4% BSA: Papp (B-A) - Batch Mean (10-6, cm/s)>


>  <MDCK-WT 4% BSA: Efflux Ratio - Batch Mean>


>  <MDCK-WT 4% BSA: ~Net A_B - Batch Mean (10-6, cm/s)>


>  <pIC50>
5.90309

>  <Selection_1>
Y

>  <Selection_N>
N

>  <Serie>
Tetrahydrothienopyridine

>  <Selection_T>


>  <Train_Vs_Test>


$$$$
