CTX-1020562
 OpenBabel08272613283D

 76 81  0  0  0  0  0  0  0  0999 V2000
    3.4093    5.6456   -1.9230 F   0  0  0  0  0  0  0  0  0  0  0  0
    4.4850    6.4550   -1.8485 C   0  0  0  0  0  0  0  0  0  0  0  0
    4.6421    7.0353   -3.0624 F   0  0  0  0  0  0  0  0  0  0  0  0
    4.1868    7.4437   -0.9699 F   0  0  0  0  0  0  0  0  0  0  0  0
    5.7819    5.7293   -1.4139 C   0  0  0  0  0  0  0  0  0  0  0  0
    5.7530    4.2716   -1.1186 N   0  3  0  0  0  0  0  0  0  0  0  0
    4.8859    3.9253    0.0349 C   0  0  0  0  0  0  0  0  0  0  0  0
    7.1201    3.7649   -0.8337 C   0  0  0  0  0  0  0  0  0  0  0  0
    5.4142    4.3421    1.4287 C   0  0  0  0  0  0  0  0  0  0  0  0
    7.7340    4.2301    0.5110 C   0  0  0  0  0  0  0  0  0  0  0  0
    6.8119    3.9272    1.6102 N   0  0  0  0  0  0  0  0  0  0  0  0
    7.2501    3.2615    2.7369 C   0  0  0  0  0  0  0  0  0  0  0  0
    6.4664    2.2819    3.3582 C   0  0  0  0  0  0  0  0  0  0  0  0
    8.5079    3.5196    3.3031 C   0  0  0  0  0  0  0  0  0  0  0  0
    6.9070    1.5951    4.4960 C   0  0  0  0  0  0  0  0  0  0  0  0
    8.9552    2.8475    4.4484 C   0  0  0  0  0  0  0  0  0  0  0  0
    8.1536    1.8786    5.0609 C   0  0  0  0  0  0  0  0  0  0  0  0
    8.5963    1.1917    6.3264 C   0  0  0  0  0  0  0  0  0  0  0  0
    9.8351    0.4799    6.1456 N   0  0  0  0  0  0  0  0  0  0  0  0
   10.7188    0.2777    7.1854 C   0  0  0  0  0  0  0  0  0  0  0  0
   10.5469    0.7288    8.3134 O   0  0  0  0  0  0  0  0  0  0  0  0
   11.9198   -0.5546    6.8484 C   0  0  0  0  0  0  0  0  0  0  0  0
   12.0318   -1.0138    5.5651 N   0  0  0  0  0  0  0  0  0  0  0  0
   12.8595   -0.7892    7.8411 C   0  0  0  0  0  0  0  0  0  0  0  0
   13.1551   -1.7247    5.2537 C   0  0  0  0  0  0  0  0  0  0  0  0
   13.9868   -1.5283    7.5122 C   0  0  0  0  0  0  0  0  0  0  0  0
   14.1436   -2.0110    6.2071 C   0  0  0  0  0  0  0  0  0  0  0  0
   13.2970   -2.2332    3.8157 C   0  0  0  0  0  0  0  0  0  0  0  0
   15.4105   -2.7448    5.8432 C   0  0  0  0  0  0  0  0  0  0  0  0
   14.6499   -2.6888    3.5015 N   0  0  0  0  0  0  0  0  0  0  0  0
   15.3045   -3.4937    4.5191 C   0  0  0  0  0  0  0  0  0  0  0  0
   15.1635   -2.5483    2.2097 C   0  0  0  0  0  0  0  0  0  0  0  0
   14.4201   -2.4773    1.2317 O   0  0  0  0  0  0  0  0  0  0  0  0
   16.5956   -2.2089    2.1383 C   0  0  0  0  0  0  0  0  0  0  0  0
   17.0736   -1.5565    3.2600 O   0  0  0  0  0  0  0  0  0  0  0  0
   17.3396   -1.7270    1.0577 C   0  0  0  0  0  0  0  0  0  0  0  0
   17.3533   -0.3111    2.8008 C   0  0  0  0  0  0  0  0  0  0  0  0
   17.4933   -0.3516    1.4224 C   0  0  0  0  0  0  0  0  0  0  0  0
   17.5919   -2.3198   -0.2774 C   0  0  0  0  0  0  0  0  0  0  0  0
   17.3639    0.8329    3.5799 C   0  0  0  0  0  0  0  0  0  0  0  0
   17.6496    0.8628    0.7340 C   0  0  0  0  0  0  0  0  0  0  0  0
   17.3949    2.0320    2.8685 C   0  0  0  0  0  0  0  0  0  0  0  0
   17.5305    2.0497    1.4743 C   0  0  0  0  0  0  0  0  0  0  0  0
    6.1271    6.2178   -0.5267 H   0  0  0  0  0  0  0  0  0  0  0  0
    6.4033    5.7930   -2.2826 H   0  0  0  0  0  0  0  0  0  0  0  0
    5.3676    3.8319   -1.9544 H   0  0  0  0  0  0  0  0  0  0  0  0
    4.7542    2.8634    0.0386 H   0  0  0  0  0  0  0  0  0  0  0  0
    3.9807    4.4777   -0.1079 H   0  0  0  0  0  0  0  0  0  0  0  0
    7.7649    4.0930   -1.6221 H   0  0  0  0  0  0  0  0  0  0  0  0
    7.0320    2.7007   -0.7654 H   0  0  0  0  0  0  0  0  0  0  0  0
    4.8120    3.8805    2.1831 H   0  0  0  0  0  0  0  0  0  0  0  0
    5.3632    5.4080    1.5068 H   0  0  0  0  0  0  0  0  0  0  0  0
    7.9095    5.2850    0.4752 H   0  0  0  0  0  0  0  0  0  0  0  0
    8.6581    3.7158    0.6737 H   0  0  0  0  0  0  0  0  0  0  0  0
    5.5379    2.0596    2.9665 H   0  0  0  0  0  0  0  0  0  0  0  0
    9.1207    4.2241    2.8636 H   0  0  0  0  0  0  0  0  0  0  0  0
    6.3055    0.8726    4.9217 H   0  0  0  0  0  0  0  0  0  0  0  0
    9.8828    3.0690    4.8428 H   0  0  0  0  0  0  0  0  0  0  0  0
    7.8392    0.4977    6.6264 H   0  0  0  0  0  0  0  0  0  0  0  0
    8.7505    1.9413    7.0742 H   0  0  0  0  0  0  0  0  0  0  0  0
   10.0579    0.1273    5.2538 H   0  0  0  0  0  0  0  0  0  0  0  0
   12.7242   -0.4246    8.7970 H   0  0  0  0  0  0  0  0  0  0  0  0
   14.7064   -1.7214    8.2262 H   0  0  0  0  0  0  0  0  0  0  0  0
   13.0408   -1.4387    3.1464 H   0  0  0  0  0  0  0  0  0  0  0  0
   12.6432   -3.0733    3.7076 H   0  0  0  0  0  0  0  0  0  0  0  0
   15.6307   -3.4500    6.6173 H   0  0  0  0  0  0  0  0  0  0  0  0
   16.1850   -2.0142    5.7372 H   0  0  0  0  0  0  0  0  0  0  0  0
   14.7389   -4.3892    4.6707 H   0  0  0  0  0  0  0  0  0  0  0  0
   16.2944   -3.7200    4.1819 H   0  0  0  0  0  0  0  0  0  0  0  0
   17.3905   -3.3702   -0.2450 H   0  0  0  0  0  0  0  0  0  0  0  0
   18.6141   -2.1610   -0.5508 H   0  0  0  0  0  0  0  0  0  0  0  0
   16.9533   -1.8563   -1.0000 H   0  0  0  0  0  0  0  0  0  0  0  0
   17.3498    0.8009    4.6113 H   0  0  0  0  0  0  0  0  0  0  0  0
   17.8448    0.8818   -0.2792 H   0  0  0  0  0  0  0  0  0  0  0  0
   17.3164    2.9250    3.3798 H   0  0  0  0  0  0  0  0  0  0  0  0
   17.5432    2.9557    0.9802 H   0  0  0  0  0  0  0  0  0  0  0  0
  1  2  1  0  0  0  0
  2  3  1  0  0  0  0
  2  4  1  0  0  0  0
  2  5  1  0  0  0  0
  5  6  1  0  0  0  0
  5 44  1  0  0  0  0
  5 45  1  0  0  0  0
  6  7  1  0  0  0  0
  6  8  1  0  0  0  0
  6 46  1  0  0  0  0
  7  9  1  0  0  0  0
  7 47  1  0  0  0  0
  7 48  1  0  0  0  0
  8 10  1  0  0  0  0
  8 49  1  0  0  0  0
  8 50  1  0  0  0  0
  9 11  1  0  0  0  0
  9 51  1  0  0  0  0
  9 52  1  0  0  0  0
 10 11  1  0  0  0  0
 10 53  1  0  0  0  0
 10 54  1  0  0  0  0
 11 12  1  0  0  0  0
 12 13  2  0  0  0  0
 12 14  1  0  0  0  0
 13 15  1  0  0  0  0
 13 55  1  0  0  0  0
 14 16  2  0  0  0  0
 14 56  1  0  0  0  0
 15 17  2  0  0  0  0
 15 57  1  0  0  0  0
 16 17  1  0  0  0  0
 16 58  1  0  0  0  0
 17 18  1  0  0  0  0
 18 19  1  0  0  0  0
 18 59  1  0  0  0  0
 18 60  1  0  0  0  0
 19 20  1  0  0  0  0
 19 61  1  0  0  0  0
 20 21  2  0  0  0  0
 20 22  1  0  0  0  0
 22 23  2  0  0  0  0
 22 24  1  0  0  0  0
 23 25  1  0  0  0  0
 24 26  2  0  0  0  0
 24 62  1  0  0  0  0
 25 27  2  0  0  0  0
 25 28  1  0  0  0  0
 26 27  1  0  0  0  0
 26 63  1  0  0  0  0
 27 29  1  0  0  0  0
 28 30  1  0  0  0  0
 28 64  1  0  0  0  0
 28 65  1  0  0  0  0
 29 31  1  0  0  0  0
 29 66  1  0  0  0  0
 29 67  1  0  0  0  0
 30 32  1  0  0  0  0
 30 31  1  0  0  0  0
 31 68  1  0  0  0  0
 31 69  1  0  0  0  0
 32 33  2  0  0  0  0
 32 34  1  0  0  0  0
 34 35  1  0  0  0  0
 34 36  2  0  0  0  0
 35 37  1  0  0  0  0
 36 38  1  0  0  0  0
 36 39  1  0  0  0  0
 37 40  2  0  0  0  0
 37 38  1  0  0  0  0
 38 41  2  0  0  0  0
 39 70  1  0  0  0  0
 39 71  1  0  0  0  0
 39 72  1  0  0  0  0
 40 42  1  0  0  0  0
 40 73  1  0  0  0  0
 41 43  1  0  0  0  0
 41 74  1  0  0  0  0
 42 43  2  0  0  0  0
 42 75  1  0  0  0  0
 43 76  1  0  0  0  0
M  CHG  1   6   1
M  END
>  <Molecule Name>
CTX-1020562

>  <SMILES>
CC1=C(OC2=C1C=CC=C2)C(=O)N1CCC2=C(C1)N=C(C=C2)C(=O)NCC1=CC=C(C=C1)N1CCN(CC(F)(F)F)CC1

>  <Batch Name>
CTX-1020562-1

>  <Batch Created Date>
2021-11-18

>  <Batch ID>
CTX-1020562-1

>  <External ID>
P841-0237

>  <Stereochemistry>
Achiral

>  <Amount 1>
3.95

>  <Unit 1>
mg

>  <CRO 1>
Pharmaron

>  <CRO 1 Total Amount>
40.2

>  <CRO 1 Unit>
mg

>  <Pharmaron Solubility (PBS, pH 7.4): Aqueous Solubility - Batch Mean (uM)>
0.0001

>  <Pharmaron Solubility (PBS, pH 7.4): Aqueous Solubility - Batch Mean (uM) Standard Deviation (±)>


>  <Pharmaron Solubility (PBS, pH 7.4): Aqueous Solubility - Batch Mean (uM) Count>
1.0

>  <log P>
4.59

>  <log D>
4.59

>  <Pharmaron Caliper Assay (CDK2/CCNE1): Minimum measured (%)>
67.6

>  <Pharmaron Caliper Assay (CDK2/CCNE1): IC50 - Batch Mean (uM)>
2.17

>  <Pharmaron ADPGLO (CDK2/E1-25C): Minimum measured (%)>


>  <Pharmaron ADPGLO (CDK2/E1-25C): IC50 - Batch Mean (uM)>


>  <Pharmaron ADPGLO (CDK2/E1-37C): Minimum measured (%)>


>  <Pharmaron ADPGLO (CDK2/E1-37C): IC50 - Batch Mean (uM)>


>  <IncuCyte Kuramochi RB-WT: IC50 - Batch Mean (uM)>
20.0

>  <IncuCyte Kuramochi RB-KO: IC50 - Batch Mean (uM)>
20.0

>  <DSF (npCDK2/CCNE1): dTm D - Batch Mean [Concentration: 100]>


>  <DSF (npCDK2/CCNE1): dTm D - Batch Mean [Concentration: 20.0]>
0.434

>  <DSF (pCDK2/CCNE1): dTm D - Batch Mean [Concentration: 100]>


>  <DSF (pCDK2/CCNE1): dTm D - Batch Mean [Concentration: 20.0]>
0.207

>  <RLM: t1/2 - Batch Mean (Min)>


>  <RLM: Cl int - Batch Mean (uL/min/mg protein)>


>  <RLM: ER (Hepatic extraction ratio) - Batch Mean>


>  <HLM: t1/2 - Batch Mean (Min)>


>  <HLM: Cl int - Batch Mean (uL/min/mg protein)>


>  <HLM: ER (Hepatic extraction ratio) - Batch Mean>


>  <MDCK-WT 4% BSA: Papp (A-B) - Batch Mean (10-6, cm/s)>


>  <MDCK-WT 4% BSA: Papp (B-A) - Batch Mean (10-6, cm/s)>


>  <MDCK-WT 4% BSA: Efflux Ratio - Batch Mean>


>  <MDCK-WT 4% BSA: ~Net A_B - Batch Mean (10-6, cm/s)>


>  <pIC50>
5.66354

>  <Selection_1>
Y

>  <Selection_N>


>  <Serie>
Naphthyridine

>  <Selection_T>
N

>  <Train_Vs_Test>


$$$$
