CTX-1020845
 OpenBabel08272613283D

 67 72  0  0  0  0  0  0  0  0999 V2000
   10.9593  -13.1566   -0.4960 Cl  0  0  0  0  0  0  0  0  0  0  0  0
   11.0476  -11.8031    0.5649 C   0  0  0  0  0  0  0  0  0  0  0  0
   10.1592  -10.7248    0.5695 C   0  0  0  0  0  0  0  0  0  0  0  0
   12.0936  -11.7308    1.5859 C   0  0  0  0  0  0  0  0  0  0  0  0
   10.5500   -9.6809    1.8800 S   0  0  0  0  0  0  0  0  0  0  0  0
    9.0343  -10.3685   -0.3624 C   0  0  0  0  0  0  0  0  0  0  0  0
   11.9163  -10.5935    2.3845 C   0  0  0  0  0  0  0  0  0  0  0  0
   13.1796  -12.5644    1.8848 C   0  0  0  0  0  0  0  0  0  0  0  0
    9.0538  -10.6526   -1.5592 O   0  0  0  0  0  0  0  0  0  0  0  0
    7.8634   -9.7526    0.2005 N   0  0  0  0  0  0  0  0  0  0  0  0
   12.8044  -10.3026    3.4606 C   0  0  0  0  0  0  0  0  0  0  0  0
   14.0358  -12.2850    2.9149 N   0  0  0  0  0  0  0  0  0  0  0  0
    6.9174   -8.8566   -0.6298 C   0  0  0  0  0  0  0  0  0  0  0  0
    7.2116  -10.6991    1.0953 C   0  0  0  0  0  0  0  0  0  0  0  0
   13.8518  -11.1825    3.6593 C   0  0  0  0  0  0  0  0  0  0  0  0
    5.4566   -8.8687   -0.0905 C   0  0  0  0  0  0  0  0  0  0  0  0
    6.1688  -10.0807    2.0080 C   0  0  0  0  0  0  0  0  0  0  0  0
    5.2149   -9.3124    1.1934 C   0  0  0  0  0  0  0  0  0  0  0  0
    4.1411   -8.6267   -0.7158 C   0  0  0  0  0  0  0  0  0  0  0  0
    3.6314   -9.0517    1.7393 S   0  0  0  0  0  0  0  0  0  0  0  0
    3.1233   -9.1288    0.1046 C   0  0  0  0  0  0  0  0  0  0  0  0
    1.8680   -9.8249   -0.1468 C   0  0  0  0  0  0  0  0  0  0  0  0
    0.7877   -9.2793   -0.3567 O   0  0  0  0  0  0  0  0  0  0  0  0
    1.9334  -11.2156   -0.0721 N   0  0  0  0  0  0  0  0  0  0  0  0
    3.1343  -11.9947    0.2156 C   0  0  0  0  0  0  0  0  0  0  0  0
    3.1389  -13.3423   -0.4313 C   0  0  0  0  0  0  0  0  0  0  0  0
    3.2701  -13.4443   -1.8183 C   0  0  0  0  0  0  0  0  0  0  0  0
    3.0834  -14.5160    0.3175 C   0  0  0  0  0  0  0  0  0  0  0  0
    3.3049  -14.6940   -2.4454 C   0  0  0  0  0  0  0  0  0  0  0  0
    3.1175  -15.7594   -0.3229 C   0  0  0  0  0  0  0  0  0  0  0  0
    3.1860  -15.8837   -1.7207 C   0  0  0  0  0  0  0  0  0  0  0  0
    3.0565  -17.1018   -2.3581 N   0  0  0  0  0  0  0  0  0  0  0  0
    3.8357  -17.4501   -3.5595 C   0  0  0  0  0  0  0  0  0  0  0  0
    2.4422  -18.2517   -1.6788 C   0  0  0  0  0  0  0  0  0  0  0  0
    2.9776  -18.3146   -4.5161 C   0  0  0  0  0  0  0  0  0  0  0  0
    1.6318  -19.0970   -2.6873 C   0  0  0  0  0  0  0  0  0  0  0  0
    2.4426  -19.5233   -3.8479 N   0  3  0  0  0  0  0  0  0  0  0  0
    1.6423  -20.3220   -4.7702 C   0  0  0  0  0  0  0  0  0  0  0  0
   13.3375  -13.4097    1.3141 H   0  0  0  0  0  0  0  0  0  0  0  0
   12.6720   -9.4748    4.0624 H   0  0  0  0  0  0  0  0  0  0  0  0
    6.9126   -9.2071   -1.6408 H   0  0  0  0  0  0  0  0  0  0  0  0
    7.2799   -7.8521   -0.5628 H   0  0  0  0  0  0  0  0  0  0  0  0
    7.9630  -11.1548    1.7057 H   0  0  0  0  0  0  0  0  0  0  0  0
    6.6965  -11.4021    0.4745 H   0  0  0  0  0  0  0  0  0  0  0  0
   14.5246  -10.9827    4.4160 H   0  0  0  0  0  0  0  0  0  0  0  0
    6.6470   -9.4298    2.7098 H   0  0  0  0  0  0  0  0  0  0  0  0
    5.6513  -10.8513    2.5401 H   0  0  0  0  0  0  0  0  0  0  0  0
    3.9936   -8.1572   -1.6230 H   0  0  0  0  0  0  0  0  0  0  0  0
    1.0989  -11.7147   -0.2265 H   0  0  0  0  0  0  0  0  0  0  0  0
    3.2065  -12.1271    1.2749 H   0  0  0  0  0  0  0  0  0  0  0  0
    3.9654  -11.4512   -0.1827 H   0  0  0  0  0  0  0  0  0  0  0  0
    3.3422  -12.5866   -2.3876 H   0  0  0  0  0  0  0  0  0  0  0  0
    3.0170  -14.4680    1.3462 H   0  0  0  0  0  0  0  0  0  0  0  0
    3.4215  -14.7392   -3.4698 H   0  0  0  0  0  0  0  0  0  0  0  0
    3.0914  -16.6161    0.2521 H   0  0  0  0  0  0  0  0  0  0  0  0
    4.7064  -18.0004   -3.2698 H   0  0  0  0  0  0  0  0  0  0  0  0
    4.1249  -16.5513   -4.0630 H   0  0  0  0  0  0  0  0  0  0  0  0
    1.7892  -17.8992   -0.9079 H   0  0  0  0  0  0  0  0  0  0  0  0
    3.2138  -18.8595   -1.2545 H   0  0  0  0  0  0  0  0  0  0  0  0
    3.5838  -18.6180   -5.3439 H   0  0  0  0  0  0  0  0  0  0  0  0
    2.1470  -17.7223   -4.8388 H   0  0  0  0  0  0  0  0  0  0  0  0
    0.8075  -18.5132   -3.0403 H   0  0  0  0  0  0  0  0  0  0  0  0
    1.3002  -19.9790   -2.1803 H   0  0  0  0  0  0  0  0  0  0  0  0
    3.2163  -20.1092   -3.5341 H   0  0  0  0  0  0  0  0  0  0  0  0
    0.8171  -19.7395   -5.1230 H   0  0  0  0  0  0  0  0  0  0  0  0
    1.2754  -21.1905   -4.2641 H   0  0  0  0  0  0  0  0  0  0  0  0
    2.2477  -20.6219   -5.6000 H   0  0  0  0  0  0  0  0  0  0  0  0
  1  2  1  0  0  0  0
  2  3  2  0  0  0  0
  2  4  1  0  0  0  0
  3  5  1  0  0  0  0
  3  6  1  0  0  0  0
  4  7  2  0  0  0  0
  4  8  1  0  0  0  0
  5  7  1  0  0  0  0
  6  9  2  0  0  0  0
  6 10  1  0  0  0  0
  7 11  1  0  0  0  0
  8 12  2  0  0  0  0
  8 39  1  0  0  0  0
 10 13  1  0  0  0  0
 10 14  1  0  0  0  0
 11 15  2  0  0  0  0
 11 40  1  0  0  0  0
 12 15  1  0  0  0  0
 13 16  1  0  0  0  0
 13 41  1  0  0  0  0
 13 42  1  0  0  0  0
 14 17  1  0  0  0  0
 14 43  1  0  0  0  0
 14 44  1  0  0  0  0
 15 45  1  0  0  0  0
 16 18  2  0  0  0  0
 16 19  1  0  0  0  0
 17 18  1  0  0  0  0
 17 46  1  0  0  0  0
 17 47  1  0  0  0  0
 18 20  1  0  0  0  0
 19 21  2  0  0  0  0
 19 48  1  0  0  0  0
 20 21  1  0  0  0  0
 21 22  1  0  0  0  0
 22 23  2  0  0  0  0
 22 24  1  0  0  0  0
 24 25  1  0  0  0  0
 24 49  1  0  0  0  0
 25 26  1  0  0  0  0
 25 50  1  0  0  0  0
 25 51  1  0  0  0  0
 26 27  2  0  0  0  0
 26 28  1  0  0  0  0
 27 29  1  0  0  0  0
 27 52  1  0  0  0  0
 28 30  2  0  0  0  0
 28 53  1  0  0  0  0
 29 31  2  0  0  0  0
 29 54  1  0  0  0  0
 30 31  1  0  0  0  0
 30 55  1  0  0  0  0
 31 32  1  0  0  0  0
 32 33  1  0  0  0  0
 32 34  1  0  0  0  0
 33 35  1  0  0  0  0
 33 56  1  0  0  0  0
 33 57  1  0  0  0  0
 34 36  1  0  0  0  0
 34 58  1  0  0  0  0
 34 59  1  0  0  0  0
 35 37  1  0  0  0  0
 35 60  1  0  0  0  0
 35 61  1  0  0  0  0
 36 37  1  0  0  0  0
 36 62  1  0  0  0  0
 36 63  1  0  0  0  0
 37 38  1  0  0  0  0
 37 64  1  0  0  0  0
 38 65  1  0  0  0  0
 38 66  1  0  0  0  0
 38 67  1  0  0  0  0
M  CHG  1  37   1
M  END
>  <Molecule Name>
CTX-1020845

>  <SMILES>
CN1CCN(CC1)C1=CC=C(CNC(=O)C2=CC3=C(CCN(C3)C(=O)C3=C(Cl)C4=CN=CC=C4S3)S2)C=C1

>  <Batch Name>
CTX-1020845-1

>  <Batch Created Date>
2022-01-06

>  <Batch ID>
CTX-1020845-1

>  <External ID>
CD-44-2-L

>  <Stereochemistry>
Achiral

>  <Amount 1>
4.0

>  <Unit 1>
mg

>  <CRO 1>
Pharmaron

>  <CRO 1 Total Amount>
18.8

>  <CRO 1 Unit>
mg

>  <Pharmaron Solubility (PBS, pH 7.4): Aqueous Solubility - Batch Mean (uM)>
107.46

>  <Pharmaron Solubility (PBS, pH 7.4): Aqueous Solubility - Batch Mean (uM) Standard Deviation (±)>


>  <Pharmaron Solubility (PBS, pH 7.4): Aqueous Solubility - Batch Mean (uM) Count>
1.0

>  <log P>
4.23

>  <log D>
3.6

>  <Pharmaron Caliper Assay (CDK2/CCNE1): Minimum measured (%)>
37.0

>  <Pharmaron Caliper Assay (CDK2/CCNE1): IC50 - Batch Mean (uM)>
85.4

>  <Pharmaron ADPGLO (CDK2/E1-25C): Minimum measured (%)>
61.1

>  <Pharmaron ADPGLO (CDK2/E1-25C): IC50 - Batch Mean (uM)>
100

>  <Pharmaron ADPGLO (CDK2/E1-37C): Minimum measured (%)>
89.8

>  <Pharmaron ADPGLO (CDK2/E1-37C): IC50 - Batch Mean (uM)>
100

>  <IncuCyte Kuramochi RB-WT: IC50 - Batch Mean (uM)>
7.94

>  <IncuCyte Kuramochi RB-KO: IC50 - Batch Mean (uM)>
9.53

>  <DSF (npCDK2/CCNE1): dTm D - Batch Mean [Concentration: 100]>


>  <DSF (npCDK2/CCNE1): dTm D - Batch Mean [Concentration: 20.0]>
0.635

>  <DSF (pCDK2/CCNE1): dTm D - Batch Mean [Concentration: 100]>


>  <DSF (pCDK2/CCNE1): dTm D - Batch Mean [Concentration: 20.0]>
0.267

>  <RLM: t1/2 - Batch Mean (Min)>


>  <RLM: Cl int - Batch Mean (uL/min/mg protein)>


>  <RLM: ER (Hepatic extraction ratio) - Batch Mean>


>  <HLM: t1/2 - Batch Mean (Min)>


>  <HLM: Cl int - Batch Mean (uL/min/mg protein)>


>  <HLM: ER (Hepatic extraction ratio) - Batch Mean>


>  <MDCK-WT 4% BSA: Papp (A-B) - Batch Mean (10-6, cm/s)>


>  <MDCK-WT 4% BSA: Papp (B-A) - Batch Mean (10-6, cm/s)>


>  <MDCK-WT 4% BSA: Efflux Ratio - Batch Mean>


>  <MDCK-WT 4% BSA: ~Net A_B - Batch Mean (10-6, cm/s)>


>  <pIC50>
4.068542

>  <Selection_1>
Y

>  <Selection_N>
N

>  <Serie>
Tetrahydrothienopyridine

>  <Selection_T>
Y

>  <Train_Vs_Test>


$$$$
