CTX-1020685
 OpenBabel08272613283D

 70 75  0  0  0  0  0  0  0  0999 V2000
    1.2083   -0.5366   -0.5749 O   0  0  0  0  0  0  0  0  0  0  0  0
    2.2704   -0.1210   -0.0938 C   0  0  0  0  0  0  0  0  0  0  0  0
    2.7807    1.1274   -0.3695 N   0  0  0  0  0  0  0  0  0  0  0  0
    3.0682   -0.9916    0.8288 C   0  0  0  0  0  0  0  0  0  0  0  0
    2.1201    2.0209   -1.2937 C   0  0  0  0  0  0  0  0  0  0  0  0
    4.2094   -0.4789    1.3740 N   0  0  0  0  0  0  0  0  0  0  0  0
    2.6119   -2.2808    1.0674 C   0  0  0  0  0  0  0  0  0  0  0  0
    2.9768    2.3826   -2.4820 C   0  0  0  0  0  0  0  0  0  0  0  0
    4.9160   -1.3000    2.2081 C   0  0  0  0  0  0  0  0  0  0  0  0
    3.3761   -3.1183    1.8668 C   0  0  0  0  0  0  0  0  0  0  0  0
    3.4451    1.4028   -3.3661 C   0  0  0  0  0  0  0  0  0  0  0  0
    3.2652    3.7194   -2.7702 C   0  0  0  0  0  0  0  0  0  0  0  0
    4.5551   -2.6386    2.4429 C   0  0  0  0  0  0  0  0  0  0  0  0
    6.1262   -0.7042    2.9253 C   0  0  0  0  0  0  0  0  0  0  0  0
    4.2083    1.7686   -4.4950 C   0  0  0  0  0  0  0  0  0  0  0  0
    4.0413    4.0614   -3.8824 C   0  0  0  0  0  0  0  0  0  0  0  0
    5.3480   -3.5293    3.3699 C   0  0  0  0  0  0  0  0  0  0  0  0
    6.5759   -1.5157    4.0551 N   0  0  0  0  0  0  0  0  0  0  0  0
    4.5158    3.0949   -4.7751 C   0  0  0  0  0  0  0  0  0  0  0  0
    6.6961   -2.9330    3.7721 C   0  0  0  0  0  0  0  0  0  0  0  0
    7.1951   -0.8812    5.1492 C   0  0  0  0  0  0  0  0  0  0  0  0
    5.2396    3.4498   -5.8907 N   0  0  0  0  0  0  0  0  0  0  0  0
    7.5037    0.2974    5.0688 O   0  0  0  0  0  0  0  0  0  0  0  0
    7.2817   -1.6447    6.4124 C   0  0  0  0  0  0  0  0  0  0  0  0
    5.1672    2.6803   -7.1352 C   0  0  0  0  0  0  0  0  0  0  0  0
    6.2215    4.5400   -5.8643 C   0  0  0  0  0  0  0  0  0  0  0  0
    6.1978   -2.5105    6.5478 O   0  0  0  0  0  0  0  0  0  0  0  0
    7.4703   -1.1589    7.7157 C   0  0  0  0  0  0  0  0  0  0  0  0
    6.5729    2.2254   -7.5759 C   0  0  0  0  0  0  0  0  0  0  0  0
    7.5985    4.0216   -6.3475 C   0  0  0  0  0  0  0  0  0  0  0  0
    5.3942   -1.8731    7.4449 C   0  0  0  0  0  0  0  0  0  0  0  0
    6.1365   -0.9433    8.1610 C   0  0  0  0  0  0  0  0  0  0  0  0
    8.6321   -1.1381    8.6409 C   0  0  0  0  0  0  0  0  0  0  0  0
    7.5557    3.3291   -7.6560 N   0  3  0  0  0  0  0  0  0  0  0  0
    4.0395   -2.1143    7.6329 C   0  0  0  0  0  0  0  0  0  0  0  0
    5.5117   -0.2111    9.1725 C   0  0  0  0  0  0  0  0  0  0  0  0
    3.4238   -1.3319    8.6080 C   0  0  0  0  0  0  0  0  0  0  0  0
    4.1384   -0.3956    9.3628 C   0  0  0  0  0  0  0  0  0  0  0  0
    3.6119    1.4173    0.0714 H   0  0  0  0  0  0  0  0  0  0  0  0
    1.8627    2.9197   -0.7733 H   0  0  0  0  0  0  0  0  0  0  0  0
    1.2556    1.5123   -1.6665 H   0  0  0  0  0  0  0  0  0  0  0  0
    1.7229   -2.6092    0.6587 H   0  0  0  0  0  0  0  0  0  0  0  0
    3.0752   -4.0910    2.0351 H   0  0  0  0  0  0  0  0  0  0  0  0
    3.2310    0.4085   -3.1911 H   0  0  0  0  0  0  0  0  0  0  0  0
    2.9010    4.4634   -2.1547 H   0  0  0  0  0  0  0  0  0  0  0  0
    5.8640    0.2682    3.2867 H   0  0  0  0  0  0  0  0  0  0  0  0
    6.9294   -0.6642    2.2196 H   0  0  0  0  0  0  0  0  0  0  0  0
    4.5480    1.0303   -5.1310 H   0  0  0  0  0  0  0  0  0  0  0  0
    4.2701    5.0538   -4.0488 H   0  0  0  0  0  0  0  0  0  0  0  0
    5.5227   -4.4629    2.8772 H   0  0  0  0  0  0  0  0  0  0  0  0
    4.7735   -3.6479    4.2648 H   0  0  0  0  0  0  0  0  0  0  0  0
    7.3925   -3.0718    2.9717 H   0  0  0  0  0  0  0  0  0  0  0  0
    7.0369   -3.4287    4.6570 H   0  0  0  0  0  0  0  0  0  0  0  0
    4.7392    3.2917   -7.9019 H   0  0  0  0  0  0  0  0  0  0  0  0
    4.5610    1.8143   -6.9699 H   0  0  0  0  0  0  0  0  0  0  0  0
    6.3129    4.9109   -4.8648 H   0  0  0  0  0  0  0  0  0  0  0  0
    5.8934    5.3252   -6.5130 H   0  0  0  0  0  0  0  0  0  0  0  0
    6.4941    1.7720   -8.5419 H   0  0  0  0  0  0  0  0  0  0  0  0
    6.9285    1.5423   -6.8331 H   0  0  0  0  0  0  0  0  0  0  0  0
    7.9757    3.3372   -5.6167 H   0  0  0  0  0  0  0  0  0  0  0  0
    8.2262    4.8792   -6.4713 H   0  0  0  0  0  0  0  0  0  0  0  0
    9.5303   -1.3232    8.0898 H   0  0  0  0  0  0  0  0  0  0  0  0
    8.5082   -1.8959    9.3861 H   0  0  0  0  0  0  0  0  0  0  0  0
    8.6946   -0.1801    9.1134 H   0  0  0  0  0  0  0  0  0  0  0  0
    7.2751    3.9867   -8.3835 H   0  0  0  0  0  0  0  0  0  0  0  0
    8.4781    2.9577   -7.8833 H   0  0  0  0  0  0  0  0  0  0  0  0
    3.5245   -2.8237    7.0884 H   0  0  0  0  0  0  0  0  0  0  0  0
    6.0467    0.4460    9.7615 H   0  0  0  0  0  0  0  0  0  0  0  0
    2.4123   -1.4464    8.7780 H   0  0  0  0  0  0  0  0  0  0  0  0
    3.6441    0.1682   10.0718 H   0  0  0  0  0  0  0  0  0  0  0  0
  1  2  2  0  0  0  0
  2  3  1  0  0  0  0
  2  4  1  0  0  0  0
  3  5  1  0  0  0  0
  3 39  1  0  0  0  0
  4  6  2  0  0  0  0
  4  7  1  0  0  0  0
  5  8  1  0  0  0  0
  5 40  1  0  0  0  0
  5 41  1  0  0  0  0
  6  9  1  0  0  0  0
  7 10  2  0  0  0  0
  7 42  1  0  0  0  0
  8 11  2  0  0  0  0
  8 12  1  0  0  0  0
  9 13  2  0  0  0  0
  9 14  1  0  0  0  0
 10 13  1  0  0  0  0
 10 43  1  0  0  0  0
 11 15  1  0  0  0  0
 11 44  1  0  0  0  0
 12 16  2  0  0  0  0
 12 45  1  0  0  0  0
 13 17  1  0  0  0  0
 14 18  1  0  0  0  0
 14 46  1  0  0  0  0
 14 47  1  0  0  0  0
 15 19  2  0  0  0  0
 15 48  1  0  0  0  0
 16 19  1  0  0  0  0
 16 49  1  0  0  0  0
 17 20  1  0  0  0  0
 17 50  1  0  0  0  0
 17 51  1  0  0  0  0
 18 21  1  0  0  0  0
 18 20  1  0  0  0  0
 19 22  1  0  0  0  0
 20 52  1  0  0  0  0
 20 53  1  0  0  0  0
 21 23  2  0  0  0  0
 21 24  1  0  0  0  0
 22 25  1  0  0  0  0
 22 26  1  0  0  0  0
 24 27  1  0  0  0  0
 24 28  2  0  0  0  0
 25 29  1  0  0  0  0
 25 54  1  0  0  0  0
 25 55  1  0  0  0  0
 26 30  1  0  0  0  0
 26 56  1  0  0  0  0
 26 57  1  0  0  0  0
 27 31  1  0  0  0  0
 28 32  1  0  0  0  0
 28 33  1  0  0  0  0
 29 34  1  0  0  0  0
 29 58  1  0  0  0  0
 29 59  1  0  0  0  0
 30 34  1  0  0  0  0
 30 60  1  0  0  0  0
 30 61  1  0  0  0  0
 31 35  2  0  0  0  0
 31 32  1  0  0  0  0
 32 36  2  0  0  0  0
 33 62  1  0  0  0  0
 33 63  1  0  0  0  0
 33 64  1  0  0  0  0
 34 65  1  0  0  0  0
 34 66  1  0  0  0  0
 35 37  1  0  0  0  0
 35 67  1  0  0  0  0
 36 38  1  0  0  0  0
 36 68  1  0  0  0  0
 37 38  2  0  0  0  0
 37 69  1  0  0  0  0
 38 70  1  0  0  0  0
M  CHG  1  34   1
M  END
>  <Molecule Name>
CTX-1020685

>  <SMILES>
CC1=C(OC2=C1C=CC=C2)C(=O)N1CCC2=CC=C(N=C2C1)C(=O)NCC1=CC=C(C=C1)N1CCNCC1

>  <Batch Name>
CTX-1020685-1

>  <Batch Created Date>
2021-12-03

>  <Batch ID>
CTX-1020685-1

>  <External ID>
CD-42-H

>  <Stereochemistry>
Achiral

>  <Amount 1>
4.9

>  <Unit 1>
mg

>  <CRO 1>
Pharmaron

>  <CRO 1 Total Amount>
16.4

>  <CRO 1 Unit>
mg

>  <Pharmaron Solubility (PBS, pH 7.4): Aqueous Solubility - Batch Mean (uM)>
313.2668

>  <Pharmaron Solubility (PBS, pH 7.4): Aqueous Solubility - Batch Mean (uM) Standard Deviation (±)>


>  <Pharmaron Solubility (PBS, pH 7.4): Aqueous Solubility - Batch Mean (uM) Count>
1.0

>  <log P>
3.25

>  <log D>
1.76

>  <Pharmaron Caliper Assay (CDK2/CCNE1): Minimum measured (%)>
38.3

>  <Pharmaron Caliper Assay (CDK2/CCNE1): IC50 - Batch Mean (uM)>
53.2

>  <Pharmaron ADPGLO (CDK2/E1-25C): Minimum measured (%)>


>  <Pharmaron ADPGLO (CDK2/E1-25C): IC50 - Batch Mean (uM)>


>  <Pharmaron ADPGLO (CDK2/E1-37C): Minimum measured (%)>


>  <Pharmaron ADPGLO (CDK2/E1-37C): IC50 - Batch Mean (uM)>


>  <IncuCyte Kuramochi RB-WT: IC50 - Batch Mean (uM)>
7.39

>  <IncuCyte Kuramochi RB-KO: IC50 - Batch Mean (uM)>
5.98

>  <DSF (npCDK2/CCNE1): dTm D - Batch Mean [Concentration: 100]>


>  <DSF (npCDK2/CCNE1): dTm D - Batch Mean [Concentration: 20.0]>
1.403

>  <DSF (pCDK2/CCNE1): dTm D - Batch Mean [Concentration: 100]>


>  <DSF (pCDK2/CCNE1): dTm D - Batch Mean [Concentration: 20.0]>
0.31

>  <RLM: t1/2 - Batch Mean (Min)>
18.44

>  <RLM: Cl int - Batch Mean (uL/min/mg protein)>
75.18

>  <RLM: ER (Hepatic extraction ratio) - Batch Mean>
0.73

>  <HLM: t1/2 - Batch Mean (Min)>
35.19

>  <HLM: Cl int - Batch Mean (uL/min/mg protein)>
39.39

>  <HLM: ER (Hepatic extraction ratio) - Batch Mean>
0.6579999999999999

>  <MDCK-WT 4% BSA: Papp (A-B) - Batch Mean (10-6, cm/s)>


>  <MDCK-WT 4% BSA: Papp (B-A) - Batch Mean (10-6, cm/s)>


>  <MDCK-WT 4% BSA: Efflux Ratio - Batch Mean>


>  <MDCK-WT 4% BSA: ~Net A_B - Batch Mean (10-6, cm/s)>


>  <pIC50>
4.274088

>  <Selection_1>
Y

>  <Selection_N>


>  <Serie>
Naphthyridine

>  <Selection_T>
N

>  <Train_Vs_Test>


$$$$
