CTX-1020565
 OpenBabel08272613283D

 68 73  0  0  0  0  0  0  0  0999 V2000
    1.2477    0.3046    0.5625 O   0  0  0  0  0  0  0  0  0  0  0  0
    2.2369   -0.0071   -0.1001 C   0  0  0  0  0  0  0  0  0  0  0  0
    2.7454   -1.2900   -0.1109 N   0  0  0  0  0  0  0  0  0  0  0  0
    2.9380    1.0209   -0.9429 C   0  0  0  0  0  0  0  0  0  0  0  0
    2.1401   -2.3427    0.6814 C   0  0  0  0  0  0  0  0  0  0  0  0
    3.9450    0.6355   -1.7881 N   0  0  0  0  0  0  0  0  0  0  0  0
    2.4857    2.3324   -0.8282 C   0  0  0  0  0  0  0  0  0  0  0  0
    2.7400   -2.4510    2.0611 C   0  0  0  0  0  0  0  0  0  0  0  0
    4.5048    1.6097   -2.5787 C   0  0  0  0  0  0  0  0  0  0  0  0
    3.0735    3.3073   -1.6133 C   0  0  0  0  0  0  0  0  0  0  0  0
    2.1767   -1.7700    3.1441 C   0  0  0  0  0  0  0  0  0  0  0  0
    3.8770   -3.2201    2.2910 C   0  0  0  0  0  0  0  0  0  0  0  0
    4.0985    2.9561   -2.4973 C   0  0  0  0  0  0  0  0  0  0  0  0
    5.6277    1.2131   -3.5512 C   0  0  0  0  0  0  0  0  0  0  0  0
    2.7318   -1.8757    4.4275 C   0  0  0  0  0  0  0  0  0  0  0  0
    4.4390   -3.3044    3.5799 C   0  0  0  0  0  0  0  0  0  0  0  0
    4.6763    4.0213   -3.3957 C   0  0  0  0  0  0  0  0  0  0  0  0
    5.9092    2.2390   -4.5673 N   0  0  0  0  0  0  0  0  0  0  0  0
    3.8755   -2.6455    4.6818 C   0  0  0  0  0  0  0  0  0  0  0  0
    5.9870    3.6008   -4.0544 C   0  0  0  0  0  0  0  0  0  0  0  0
    6.1203    1.8773   -5.9129 C   0  0  0  0  0  0  0  0  0  0  0  0
    4.4182   -2.7422    5.9435 N   0  0  0  0  0  0  0  0  0  0  0  0
    6.4913    0.7387   -6.2006 O   0  0  0  0  0  0  0  0  0  0  0  0
    5.6627    2.8378   -6.9476 C   0  0  0  0  0  0  0  0  0  0  0  0
    3.6044   -2.7561    7.1668 C   0  0  0  0  0  0  0  0  0  0  0  0
    5.8650   -2.8140    6.1877 C   0  0  0  0  0  0  0  0  0  0  0  0
    4.6864    3.7087   -6.4943 O   0  0  0  0  0  0  0  0  0  0  0  0
    5.3460    2.6331   -8.2992 C   0  0  0  0  0  0  0  0  0  0  0  0
    4.0897   -1.6563    8.1215 C   0  0  0  0  0  0  0  0  0  0  0  0
    6.2628   -1.7190    7.1974 C   0  0  0  0  0  0  0  0  0  0  0  0
    3.5793    3.3680   -7.1837 C   0  0  0  0  0  0  0  0  0  0  0  0
    3.9205    2.6038   -8.2838 C   0  0  0  0  0  0  0  0  0  0  0  0
    6.1766    2.5581   -9.5259 C   0  0  0  0  0  0  0  0  0  0  0  0
    5.4927   -1.7965    8.4109 O   0  0  0  0  0  0  0  0  0  0  0  0
    2.2828    3.6939   -6.8137 C   0  0  0  0  0  0  0  0  0  0  0  0
    2.8960    2.1039   -9.1004 C   0  0  0  0  0  0  0  0  0  0  0  0
    1.2754    3.1502   -7.6076 C   0  0  0  0  0  0  0  0  0  0  0  0
    1.5712    2.3533   -8.7166 C   0  0  0  0  0  0  0  0  0  0  0  0
    3.5325   -1.4938   -0.6660 H   0  0  0  0  0  0  0  0  0  0  0  0
    2.2774   -3.2748    0.1742 H   0  0  0  0  0  0  0  0  0  0  0  0
    1.1034   -2.1044    0.7975 H   0  0  0  0  0  0  0  0  0  0  0  0
    1.7273    2.5722   -0.1707 H   0  0  0  0  0  0  0  0  0  0  0  0
    2.7578    4.2875   -1.5472 H   0  0  0  0  0  0  0  0  0  0  0  0
    1.3416   -1.1818    2.9972 H   0  0  0  0  0  0  0  0  0  0  0  0
    4.3128   -3.7339    1.5092 H   0  0  0  0  0  0  0  0  0  0  0  0
    5.3414    0.3109   -4.0502 H   0  0  0  0  0  0  0  0  0  0  0  0
    6.5186    1.0892   -2.9718 H   0  0  0  0  0  0  0  0  0  0  0  0
    2.2847   -1.3712    5.2089 H   0  0  0  0  0  0  0  0  0  0  0  0
    5.2920   -3.8686    3.7175 H   0  0  0  0  0  0  0  0  0  0  0  0
    4.8549    4.8997   -2.8115 H   0  0  0  0  0  0  0  0  0  0  0  0
    3.9679    4.1982   -4.1780 H   0  0  0  0  0  0  0  0  0  0  0  0
    6.7739    3.6565   -3.3315 H   0  0  0  0  0  0  0  0  0  0  0  0
    6.1793    4.2602   -4.8749 H   0  0  0  0  0  0  0  0  0  0  0  0
    3.6967   -3.7088    7.6450 H   0  0  0  0  0  0  0  0  0  0  0  0
    2.5798   -2.5798    6.9137 H   0  0  0  0  0  0  0  0  0  0  0  0
    6.3912   -2.6617    5.2686 H   0  0  0  0  0  0  0  0  0  0  0  0
    6.1159   -3.7762    6.5829 H   0  0  0  0  0  0  0  0  0  0  0  0
    3.5373   -1.7197    9.0357 H   0  0  0  0  0  0  0  0  0  0  0  0
    3.9351   -0.7080    7.6506 H   0  0  0  0  0  0  0  0  0  0  0  0
    6.1035   -0.7610    6.7482 H   0  0  0  0  0  0  0  0  0  0  0  0
    7.2924   -1.8624    7.4507 H   0  0  0  0  0  0  0  0  0  0  0  0
    7.2119    2.6004   -9.2588 H   0  0  0  0  0  0  0  0  0  0  0  0
    5.9400    3.3808  -10.1678 H   0  0  0  0  0  0  0  0  0  0  0  0
    5.9772    1.6389  -10.0360 H   0  0  0  0  0  0  0  0  0  0  0  0
    2.0780    4.2993   -6.0034 H   0  0  0  0  0  0  0  0  0  0  0  0
    3.1106    1.5694   -9.9567 H   0  0  0  0  0  0  0  0  0  0  0  0
    0.2889    3.3402   -7.3715 H   0  0  0  0  0  0  0  0  0  0  0  0
    0.7996    1.9405   -9.2636 H   0  0  0  0  0  0  0  0  0  0  0  0
  1  2  2  0  0  0  0
  2  3  1  0  0  0  0
  2  4  1  0  0  0  0
  3  5  1  0  0  0  0
  3 39  1  0  0  0  0
  4  6  2  0  0  0  0
  4  7  1  0  0  0  0
  5  8  1  0  0  0  0
  5 40  1  0  0  0  0
  5 41  1  0  0  0  0
  6  9  1  0  0  0  0
  7 10  2  0  0  0  0
  7 42  1  0  0  0  0
  8 11  2  0  0  0  0
  8 12  1  0  0  0  0
  9 13  2  0  0  0  0
  9 14  1  0  0  0  0
 10 13  1  0  0  0  0
 10 43  1  0  0  0  0
 11 15  1  0  0  0  0
 11 44  1  0  0  0  0
 12 16  2  0  0  0  0
 12 45  1  0  0  0  0
 13 17  1  0  0  0  0
 14 18  1  0  0  0  0
 14 46  1  0  0  0  0
 14 47  1  0  0  0  0
 15 19  2  0  0  0  0
 15 48  1  0  0  0  0
 16 19  1  0  0  0  0
 16 49  1  0  0  0  0
 17 20  1  0  0  0  0
 17 50  1  0  0  0  0
 17 51  1  0  0  0  0
 18 21  1  0  0  0  0
 18 20  1  0  0  0  0
 19 22  1  0  0  0  0
 20 52  1  0  0  0  0
 20 53  1  0  0  0  0
 21 23  2  0  0  0  0
 21 24  1  0  0  0  0
 22 25  1  0  0  0  0
 22 26  1  0  0  0  0
 24 27  1  0  0  0  0
 24 28  2  0  0  0  0
 25 29  1  0  0  0  0
 25 54  1  0  0  0  0
 25 55  1  0  0  0  0
 26 30  1  0  0  0  0
 26 56  1  0  0  0  0
 26 57  1  0  0  0  0
 27 31  1  0  0  0  0
 28 32  1  0  0  0  0
 28 33  1  0  0  0  0
 29 34  1  0  0  0  0
 29 58  1  0  0  0  0
 29 59  1  0  0  0  0
 30 34  1  0  0  0  0
 30 60  1  0  0  0  0
 30 61  1  0  0  0  0
 31 35  2  0  0  0  0
 31 32  1  0  0  0  0
 32 36  2  0  0  0  0
 33 62  1  0  0  0  0
 33 63  1  0  0  0  0
 33 64  1  0  0  0  0
 35 37  1  0  0  0  0
 35 65  1  0  0  0  0
 36 38  1  0  0  0  0
 36 66  1  0  0  0  0
 37 38  2  0  0  0  0
 37 67  1  0  0  0  0
 38 68  1  0  0  0  0
M  END
>  <Molecule Name>
CTX-1020565

>  <SMILES>
CC1=C(OC2=C1C=CC=C2)C(=O)N1CCC2=C(C1)N=C(C=C2)C(=O)NCC1=CC=C(C=C1)N1CCOCC1

>  <Batch Name>
CTX-1020565-1

>  <Batch Created Date>
2021-11-18

>  <Batch ID>
CTX-1020565-1

>  <External ID>
P841-0233

>  <Stereochemistry>
Achiral

>  <Amount 1>
5.15

>  <Unit 1>
mg

>  <CRO 1>
Pharmaron

>  <CRO 1 Total Amount>
11.5

>  <CRO 1 Unit>
mg

>  <Pharmaron Solubility (PBS, pH 7.4): Aqueous Solubility - Batch Mean (uM)>
0.0028

>  <Pharmaron Solubility (PBS, pH 7.4): Aqueous Solubility - Batch Mean (uM) Standard Deviation (±)>


>  <Pharmaron Solubility (PBS, pH 7.4): Aqueous Solubility - Batch Mean (uM) Count>
1.0

>  <log P>
3.57

>  <log D>
3.57

>  <Pharmaron Caliper Assay (CDK2/CCNE1): Minimum measured (%)>
43.6

>  <Pharmaron Caliper Assay (CDK2/CCNE1): IC50 - Batch Mean (uM)>
1.55

>  <Pharmaron ADPGLO (CDK2/E1-25C): Minimum measured (%)>


>  <Pharmaron ADPGLO (CDK2/E1-25C): IC50 - Batch Mean (uM)>


>  <Pharmaron ADPGLO (CDK2/E1-37C): Minimum measured (%)>


>  <Pharmaron ADPGLO (CDK2/E1-37C): IC50 - Batch Mean (uM)>


>  <IncuCyte Kuramochi RB-WT: IC50 - Batch Mean (uM)>
20.0

>  <IncuCyte Kuramochi RB-KO: IC50 - Batch Mean (uM)>
20.0

>  <DSF (npCDK2/CCNE1): dTm D - Batch Mean [Concentration: 100]>


>  <DSF (npCDK2/CCNE1): dTm D - Batch Mean [Concentration: 20.0]>
1.6369999999999998

>  <DSF (pCDK2/CCNE1): dTm D - Batch Mean [Concentration: 100]>


>  <DSF (pCDK2/CCNE1): dTm D - Batch Mean [Concentration: 20.0]>
0.768

>  <RLM: t1/2 - Batch Mean (Min)>


>  <RLM: Cl int - Batch Mean (uL/min/mg protein)>


>  <RLM: ER (Hepatic extraction ratio) - Batch Mean>


>  <HLM: t1/2 - Batch Mean (Min)>


>  <HLM: Cl int - Batch Mean (uL/min/mg protein)>


>  <HLM: ER (Hepatic extraction ratio) - Batch Mean>


>  <MDCK-WT 4% BSA: Papp (A-B) - Batch Mean (10-6, cm/s)>


>  <MDCK-WT 4% BSA: Papp (B-A) - Batch Mean (10-6, cm/s)>


>  <MDCK-WT 4% BSA: Efflux Ratio - Batch Mean>


>  <MDCK-WT 4% BSA: ~Net A_B - Batch Mean (10-6, cm/s)>


>  <pIC50>
5.809668

>  <Selection_1>
Y

>  <Selection_N>


>  <Serie>
Naphthyridine

>  <Selection_T>
N

>  <Train_Vs_Test>


$$$$
