CTX-1020566
 OpenBabel08272613283D

 56 60  0  0  0  0  0  0  0  0999 V2000
    1.3190    0.8294    0.0819 O   0  0  0  0  0  0  0  0  0  0  0  0
    2.3056    0.1199   -0.1032 C   0  0  0  0  0  0  0  0  0  0  0  0
    2.7739   -0.7626    0.8333 N   0  0  0  0  0  0  0  0  0  0  0  0
    3.0535    0.1714   -1.4092 C   0  0  0  0  0  0  0  0  0  0  0  0
    2.1184   -0.9436    2.1132 C   0  0  0  0  0  0  0  0  0  0  0  0
    4.0994   -0.6882   -1.6101 N   0  0  0  0  0  0  0  0  0  0  0  0
    2.6135    1.0966   -2.3472 C   0  0  0  0  0  0  0  0  0  0  0  0
    3.0221   -0.5672    3.2607 C   0  0  0  0  0  0  0  0  0  0  0  0
    4.7264   -0.6261   -2.8272 C   0  0  0  0  0  0  0  0  0  0  0  0
    3.2684    1.1566   -3.5640 C   0  0  0  0  0  0  0  0  0  0  0  0
    3.0919    0.7619    3.7094 C   0  0  0  0  0  0  0  0  0  0  0  0
    3.8170   -1.5376    3.8863 C   0  0  0  0  0  0  0  0  0  0  0  0
    4.3409    0.3003   -3.8183 C   0  0  0  0  0  0  0  0  0  0  0  0
    5.8988   -1.5814   -3.0937 C   0  0  0  0  0  0  0  0  0  0  0  0
    3.9279    1.1109    4.7740 C   0  0  0  0  0  0  0  0  0  0  0  0
    4.6545   -1.1880    4.9458 C   0  0  0  0  0  0  0  0  0  0  0  0
    5.0008    0.3441   -5.1711 C   0  0  0  0  0  0  0  0  0  0  0  0
    6.2788   -1.6479   -4.5102 N   0  0  0  0  0  0  0  0  0  0  0  0
    4.7018    0.1295    5.3838 C   0  0  0  0  0  0  0  0  0  0  0  0
    6.3418   -0.3765   -5.2097 C   0  0  0  0  0  0  0  0  0  0  0  0
    6.8263   -2.8126   -5.0574 C   0  0  0  0  0  0  0  0  0  0  0  0
    5.5304    0.4224    6.4269 O   0  0  0  0  0  0  0  0  0  0  0  0
    7.4285   -3.6253   -4.3574 O   0  0  0  0  0  0  0  0  0  0  0  0
    6.3903   -3.1188   -6.4236 C   0  0  0  0  0  0  0  0  0  0  0  0
    5.1966   -2.5448   -6.8001 O   0  0  0  0  0  0  0  0  0  0  0  0
    6.5986   -4.2157   -7.2602 C   0  0  0  0  0  0  0  0  0  0  0  0
    4.4691   -3.5538   -7.3156 C   0  0  0  0  0  0  0  0  0  0  0  0
    5.2673   -4.6714   -7.5010 C   0  0  0  0  0  0  0  0  0  0  0  0
    7.8475   -4.8929   -7.7067 C   0  0  0  0  0  0  0  0  0  0  0  0
    3.0975   -3.5065   -7.5337 C   0  0  0  0  0  0  0  0  0  0  0  0
    4.6515   -5.8852   -7.8461 C   0  0  0  0  0  0  0  0  0  0  0  0
    2.5006   -4.7291   -7.8343 C   0  0  0  0  0  0  0  0  0  0  0  0
    3.2538   -5.9036   -7.9569 C   0  0  0  0  0  0  0  0  0  0  0  0
    3.5802   -1.2901    0.6311 H   0  0  0  0  0  0  0  0  0  0  0  0
    1.8365   -1.9706    2.2163 H   0  0  0  0  0  0  0  0  0  0  0  0
    1.2599   -0.3057    2.1415 H   0  0  0  0  0  0  0  0  0  0  0  0
    1.8191    1.7224   -2.1417 H   0  0  0  0  0  0  0  0  0  0  0  0
    2.9648    1.8328   -4.2820 H   0  0  0  0  0  0  0  0  0  0  0  0
    2.5207    1.4876    3.2488 H   0  0  0  0  0  0  0  0  0  0  0  0
    3.7825   -2.5165    3.5612 H   0  0  0  0  0  0  0  0  0  0  0  0
    5.6188   -2.5621   -2.7701 H   0  0  0  0  0  0  0  0  0  0  0  0
    6.7437   -1.2067   -2.5545 H   0  0  0  0  0  0  0  0  0  0  0  0
    3.9704    2.0877    5.1043 H   0  0  0  0  0  0  0  0  0  0  0  0
    5.2375   -1.9064    5.4031 H   0  0  0  0  0  0  0  0  0  0  0  0
    5.1574    1.3680   -5.4397 H   0  0  0  0  0  0  0  0  0  0  0  0
    4.3512   -0.1575   -5.8575 H   0  0  0  0  0  0  0  0  0  0  0  0
    7.0824    0.2404   -4.7451 H   0  0  0  0  0  0  0  0  0  0  0  0
    6.5937   -0.5661   -6.2322 H   0  0  0  0  0  0  0  0  0  0  0  0
    5.5870    1.3009    6.7479 H   0  0  0  0  0  0  0  0  0  0  0  0
    8.6956   -4.3255   -7.3846 H   0  0  0  0  0  0  0  0  0  0  0  0
    7.8516   -4.9657   -8.7742 H   0  0  0  0  0  0  0  0  0  0  0  0
    7.8926   -5.8740   -7.2821 H   0  0  0  0  0  0  0  0  0  0  0  0
    2.5590   -2.6279   -7.4770 H   0  0  0  0  0  0  0  0  0  0  0  0
    5.2100   -6.7368   -8.0130 H   0  0  0  0  0  0  0  0  0  0  0  0
    1.4784   -4.7704   -7.9699 H   0  0  0  0  0  0  0  0  0  0  0  0
    2.7713   -6.7989   -8.1320 H   0  0  0  0  0  0  0  0  0  0  0  0
  1  2  2  0  0  0  0
  2  3  1  0  0  0  0
  2  4  1  0  0  0  0
  3  5  1  0  0  0  0
  3 34  1  0  0  0  0
  4  6  2  0  0  0  0
  4  7  1  0  0  0  0
  5  8  1  0  0  0  0
  5 35  1  0  0  0  0
  5 36  1  0  0  0  0
  6  9  1  0  0  0  0
  7 10  2  0  0  0  0
  7 37  1  0  0  0  0
  8 11  2  0  0  0  0
  8 12  1  0  0  0  0
  9 13  2  0  0  0  0
  9 14  1  0  0  0  0
 10 13  1  0  0  0  0
 10 38  1  0  0  0  0
 11 15  1  0  0  0  0
 11 39  1  0  0  0  0
 12 16  2  0  0  0  0
 12 40  1  0  0  0  0
 13 17  1  0  0  0  0
 14 18  1  0  0  0  0
 14 41  1  0  0  0  0
 14 42  1  0  0  0  0
 15 19  2  0  0  0  0
 15 43  1  0  0  0  0
 16 19  1  0  0  0  0
 16 44  1  0  0  0  0
 17 20  1  0  0  0  0
 17 45  1  0  0  0  0
 17 46  1  0  0  0  0
 18 21  1  0  0  0  0
 18 20  1  0  0  0  0
 19 22  1  0  0  0  0
 20 47  1  0  0  0  0
 20 48  1  0  0  0  0
 21 23  2  0  0  0  0
 21 24  1  0  0  0  0
 22 49  1  0  0  0  0
 24 25  1  0  0  0  0
 24 26  2  0  0  0  0
 25 27  1  0  0  0  0
 26 28  1  0  0  0  0
 26 29  1  0  0  0  0
 27 30  2  0  0  0  0
 27 28  1  0  0  0  0
 28 31  2  0  0  0  0
 29 50  1  0  0  0  0
 29 51  1  0  0  0  0
 29 52  1  0  0  0  0
 30 32  1  0  0  0  0
 30 53  1  0  0  0  0
 31 33  1  0  0  0  0
 31 54  1  0  0  0  0
 32 33  2  0  0  0  0
 32 55  1  0  0  0  0
 33 56  1  0  0  0  0
M  END
>  <Molecule Name>
CTX-1020566

>  <SMILES>
CC1=C(OC2=C1C=CC=C2)C(=O)N1CCC2=C(C1)N=C(C=C2)C(=O)NCC1=CC=C(O)C=C1

>  <Batch Name>
CTX-1020566-1

>  <Batch Created Date>
2021-11-18

>  <Batch ID>
CTX-1020566-1

>  <External ID>
P841-0232

>  <Stereochemistry>
Achiral

>  <Amount 1>
3.9

>  <Unit 1>
mg

>  <CRO 1>
Pharmaron

>  <CRO 1 Total Amount>
22.5

>  <CRO 1 Unit>
mg

>  <Pharmaron Solubility (PBS, pH 7.4): Aqueous Solubility - Batch Mean (uM)>
0.1229

>  <Pharmaron Solubility (PBS, pH 7.4): Aqueous Solubility - Batch Mean (uM) Standard Deviation (±)>


>  <Pharmaron Solubility (PBS, pH 7.4): Aqueous Solubility - Batch Mean (uM) Count>
1.0

>  <log P>
3.37

>  <log D>
3.37

>  <Pharmaron Caliper Assay (CDK2/CCNE1): Minimum measured (%)>
53.3

>  <Pharmaron Caliper Assay (CDK2/CCNE1): IC50 - Batch Mean (uM)>
3.88

>  <Pharmaron ADPGLO (CDK2/E1-25C): Minimum measured (%)>


>  <Pharmaron ADPGLO (CDK2/E1-25C): IC50 - Batch Mean (uM)>


>  <Pharmaron ADPGLO (CDK2/E1-37C): Minimum measured (%)>


>  <Pharmaron ADPGLO (CDK2/E1-37C): IC50 - Batch Mean (uM)>


>  <IncuCyte Kuramochi RB-WT: IC50 - Batch Mean (uM)>
12.9

>  <IncuCyte Kuramochi RB-KO: IC50 - Batch Mean (uM)>
12.2

>  <DSF (npCDK2/CCNE1): dTm D - Batch Mean [Concentration: 100]>


>  <DSF (npCDK2/CCNE1): dTm D - Batch Mean [Concentration: 20.0]>
1.537

>  <DSF (pCDK2/CCNE1): dTm D - Batch Mean [Concentration: 100]>


>  <DSF (pCDK2/CCNE1): dTm D - Batch Mean [Concentration: 20.0]>
0.451

>  <RLM: t1/2 - Batch Mean (Min)>


>  <RLM: Cl int - Batch Mean (uL/min/mg protein)>


>  <RLM: ER (Hepatic extraction ratio) - Batch Mean>


>  <HLM: t1/2 - Batch Mean (Min)>


>  <HLM: Cl int - Batch Mean (uL/min/mg protein)>


>  <HLM: ER (Hepatic extraction ratio) - Batch Mean>


>  <MDCK-WT 4% BSA: Papp (A-B) - Batch Mean (10-6, cm/s)>


>  <MDCK-WT 4% BSA: Papp (B-A) - Batch Mean (10-6, cm/s)>


>  <MDCK-WT 4% BSA: Efflux Ratio - Batch Mean>


>  <MDCK-WT 4% BSA: ~Net A_B - Batch Mean (10-6, cm/s)>


>  <pIC50>
5.411168

>  <Selection_1>
Y

>  <Selection_N>


>  <Serie>
Naphthyridine

>  <Selection_T>
N

>  <Train_Vs_Test>


$$$$
