CTX-1020521
 OpenBabel08272613283D

 83 89  0  0  0  0  0  0  0  0999 V2000
    1.2925   -0.2061    0.6513 O   0  0  0  0  0  0  0  0  0  0  0  0
    2.3082    0.1487    0.0562 C   0  0  0  0  0  0  0  0  0  0  0  0
    2.8173   -0.5446   -1.0192 N   0  0  0  0  0  0  0  0  0  0  0  0
    3.0603    1.3708    0.5084 C   0  0  0  0  0  0  0  0  0  0  0  0
    2.2161   -1.7827   -1.4737 C   0  0  0  0  0  0  0  0  0  0  0  0
    4.1584    1.7797   -0.1878 N   0  0  0  0  0  0  0  0  0  0  0  0
    2.5782    2.0171    1.6437 C   0  0  0  0  0  0  0  0  0  0  0  0
    1.8278   -1.7318   -2.9272 C   0  0  0  0  0  0  0  0  0  0  0  0
    4.8045    2.8951    0.2732 C   0  0  0  0  0  0  0  0  0  0  0  0
    3.2535    3.1281    2.1412 C   0  0  0  0  0  0  0  0  0  0  0  0
    2.3314   -2.6691   -3.8303 C   0  0  0  0  0  0  0  0  0  0  0  0
    0.9084   -0.7875   -3.3975 C   0  0  0  0  0  0  0  0  0  0  0  0
    4.4044    3.5773    1.4516 C   0  0  0  0  0  0  0  0  0  0  0  0
    6.0288    3.3788   -0.5352 C   0  0  0  0  0  0  0  0  0  0  0  0
    2.7217    3.7765    3.3424 C   0  0  0  0  0  0  0  0  0  0  0  0
    1.9464   -2.6359   -5.1744 C   0  0  0  0  0  0  0  0  0  0  0  0
    0.5297   -0.7630   -4.7493 C   0  0  0  0  0  0  0  0  0  0  0  0
    5.1767    4.7952    1.9129 C   0  0  0  0  0  0  0  0  0  0  0  0
    6.4817    4.7287   -0.1707 N   0  0  0  0  0  0  0  0  0  0  0  0
    2.6618    5.1245    3.7560 C   0  0  0  0  0  0  0  0  0  0  0  0
    2.0719    3.1034    4.3678 C   0  0  0  0  0  0  0  0  0  0  0  0
    1.0473   -1.6802   -5.6723 C   0  0  0  0  0  0  0  0  0  0  0  0
    6.5483    4.9654    1.2636 C   0  0  0  0  0  0  0  0  0  0  0  0
    6.8308    5.6750   -1.1600 C   0  0  0  0  0  0  0  0  0  0  0  0
    2.0707    5.2897    4.9416 N   0  0  0  0  0  0  0  0  0  0  0  0
    1.7089    4.0450    5.2875 N   0  0  0  0  0  0  0  0  0  0  0  0
    0.6601   -1.7345   -7.0021 N   0  0  0  0  0  0  0  0  0  0  0  0
    7.2060    5.3023   -2.2725 O   0  0  0  0  0  0  0  0  0  0  0  0
    6.5085    7.0900   -0.8649 C   0  0  0  0  0  0  0  0  0  0  0  0
    0.9986    3.8330    6.5258 C   0  0  0  0  0  0  0  0  0  0  0  0
   -0.5798   -1.1026   -7.4730 C   0  0  0  0  0  0  0  0  0  0  0  0
    1.7029   -1.7876   -8.0454 C   0  0  0  0  0  0  0  0  0  0  0  0
    5.5082    7.2508    0.0779 O   0  0  0  0  0  0  0  0  0  0  0  0
    6.3698    8.1881   -1.7230 C   0  0  0  0  0  0  0  0  0  0  0  0
   -1.0982   -1.8645   -8.7174 C   0  0  0  0  0  0  0  0  0  0  0  0
    1.1509   -2.5402   -9.2789 C   0  0  0  0  0  0  0  0  0  0  0  0
    4.4851    7.8195   -0.6040 C   0  0  0  0  0  0  0  0  0  0  0  0
    4.9535    8.3405   -1.7989 C   0  0  0  0  0  0  0  0  0  0  0  0
    7.3604    9.0428   -2.4190 C   0  0  0  0  0  0  0  0  0  0  0  0
   -0.0957   -1.9361   -9.8068 N   0  3  0  0  0  0  0  0  0  0  0  0
    3.1649    7.8264   -0.1888 C   0  0  0  0  0  0  0  0  0  0  0  0
    4.0287    8.9024   -2.6909 C   0  0  0  0  0  0  0  0  0  0  0  0
   -0.6122   -2.7209  -10.9252 C   0  0  0  0  0  0  0  0  0  0  0  0
    2.2514    8.3292   -1.1129 C   0  0  0  0  0  0  0  0  0  0  0  0
    2.6702    8.8437   -2.3466 C   0  0  0  0  0  0  0  0  0  0  0  0
    3.6069   -0.1917   -1.4895 H   0  0  0  0  0  0  0  0  0  0  0  0
    1.3397   -1.9737   -0.8903 H   0  0  0  0  0  0  0  0  0  0  0  0
    2.9418   -2.5602   -1.3567 H   0  0  0  0  0  0  0  0  0  0  0  0
    1.7255    1.6745    2.1134 H   0  0  0  0  0  0  0  0  0  0  0  0
    2.9922   -3.3915   -3.5041 H   0  0  0  0  0  0  0  0  0  0  0  0
    0.5037   -0.1004   -2.7425 H   0  0  0  0  0  0  0  0  0  0  0  0
    5.7697    3.3782   -1.5733 H   0  0  0  0  0  0  0  0  0  0  0  0
    6.8335    2.7089   -0.3147 H   0  0  0  0  0  0  0  0  0  0  0  0
    2.3367   -3.3380   -5.8222 H   0  0  0  0  0  0  0  0  0  0  0  0
   -0.1462   -0.0523   -5.0703 H   0  0  0  0  0  0  0  0  0  0  0  0
    5.3161    4.7202    2.9711 H   0  0  0  0  0  0  0  0  0  0  0  0
    4.5979    5.6472    1.6234 H   0  0  0  0  0  0  0  0  0  0  0  0
    3.0379    5.9060    3.1966 H   0  0  0  0  0  0  0  0  0  0  0  0
    1.8970    2.0879    4.4240 H   0  0  0  0  0  0  0  0  0  0  0  0
    7.2313    4.2678    1.7016 H   0  0  0  0  0  0  0  0  0  0  0  0
    6.8797    5.9695    1.4275 H   0  0  0  0  0  0  0  0  0  0  0  0
    0.7902    2.7901    6.6434 H   0  0  0  0  0  0  0  0  0  0  0  0
    0.0796    4.3807    6.5082 H   0  0  0  0  0  0  0  0  0  0  0  0
    1.5996    4.1710    7.3441 H   0  0  0  0  0  0  0  0  0  0  0  0
   -0.3856   -0.0830   -7.7328 H   0  0  0  0  0  0  0  0  0  0  0  0
   -1.3170   -1.1355   -6.6982 H   0  0  0  0  0  0  0  0  0  0  0  0
    2.5617   -2.3018   -7.6672 H   0  0  0  0  0  0  0  0  0  0  0  0
    1.9814   -0.7933   -8.3261 H   0  0  0  0  0  0  0  0  0  0  0  0
   -1.9688   -1.3638   -9.0865 H   0  0  0  0  0  0  0  0  0  0  0  0
   -1.3153   -2.8672   -8.4135 H   0  0  0  0  0  0  0  0  0  0  0  0
    0.9489   -3.5532   -8.9996 H   0  0  0  0  0  0  0  0  0  0  0  0
    1.8901   -2.4824  -10.0503 H   0  0  0  0  0  0  0  0  0  0  0  0
    8.3488    8.7054   -2.1860 H   0  0  0  0  0  0  0  0  0  0  0  0
    7.2447   10.0569   -2.0978 H   0  0  0  0  0  0  0  0  0  0  0  0
    7.2030    8.9832   -3.4757 H   0  0  0  0  0  0  0  0  0  0  0  0
    0.1026   -0.9956  -10.1482 H   0  0  0  0  0  0  0  0  0  0  0  0
    2.8771    7.4831    0.7409 H   0  0  0  0  0  0  0  0  0  0  0  0
    4.3372    9.3443   -3.5710 H   0  0  0  0  0  0  0  0  0  0  0  0
   -0.8290   -3.7148  -10.5934 H   0  0  0  0  0  0  0  0  0  0  0  0
    0.1205   -2.7567  -11.7042 H   0  0  0  0  0  0  0  0  0  0  0  0
   -1.5063   -2.2660  -11.2972 H   0  0  0  0  0  0  0  0  0  0  0  0
    1.2452    8.3223   -0.8837 H   0  0  0  0  0  0  0  0  0  0  0  0
    1.9641    9.1870   -3.0165 H   0  0  0  0  0  0  0  0  0  0  0  0
  1  2  2  0  0  0  0
  2  3  1  0  0  0  0
  2  4  1  0  0  0  0
  3  5  1  0  0  0  0
  3 46  1  0  0  0  0
  4  6  2  0  0  0  0
  4  7  1  0  0  0  0
  5  8  1  0  0  0  0
  5 47  1  0  0  0  0
  5 48  1  0  0  0  0
  6  9  1  0  0  0  0
  7 10  2  0  0  0  0
  7 49  1  0  0  0  0
  8 11  2  0  0  0  0
  8 12  1  0  0  0  0
  9 13  2  0  0  0  0
  9 14  1  0  0  0  0
 10 15  1  0  0  0  0
 10 13  1  0  0  0  0
 11 16  1  0  0  0  0
 11 50  1  0  0  0  0
 12 17  2  0  0  0  0
 12 51  1  0  0  0  0
 13 18  1  0  0  0  0
 14 19  1  0  0  0  0
 14 52  1  0  0  0  0
 14 53  1  0  0  0  0
 15 20  1  0  0  0  0
 15 21  2  0  0  0  0
 16 22  2  0  0  0  0
 16 54  1  0  0  0  0
 17 22  1  0  0  0  0
 17 55  1  0  0  0  0
 18 23  1  0  0  0  0
 18 56  1  0  0  0  0
 18 57  1  0  0  0  0
 19 24  1  0  0  0  0
 19 23  1  0  0  0  0
 20 25  2  0  0  0  0
 20 58  1  0  0  0  0
 21 26  1  0  0  0  0
 21 59  1  0  0  0  0
 22 27  1  0  0  0  0
 23 60  1  0  0  0  0
 23 61  1  0  0  0  0
 24 28  2  0  0  0  0
 24 29  1  0  0  0  0
 25 26  1  0  0  0  0
 26 30  1  0  0  0  0
 27 31  1  0  0  0  0
 27 32  1  0  0  0  0
 29 33  1  0  0  0  0
 29 34  2  0  0  0  0
 30 62  1  0  0  0  0
 30 63  1  0  0  0  0
 30 64  1  0  0  0  0
 31 35  1  0  0  0  0
 31 65  1  0  0  0  0
 31 66  1  0  0  0  0
 32 36  1  0  0  0  0
 32 67  1  0  0  0  0
 32 68  1  0  0  0  0
 33 37  1  0  0  0  0
 34 38  1  0  0  0  0
 34 39  1  0  0  0  0
 35 40  1  0  0  0  0
 35 69  1  0  0  0  0
 35 70  1  0  0  0  0
 36 40  1  0  0  0  0
 36 71  1  0  0  0  0
 36 72  1  0  0  0  0
 37 41  2  0  0  0  0
 37 38  1  0  0  0  0
 38 42  2  0  0  0  0
 39 73  1  0  0  0  0
 39 74  1  0  0  0  0
 39 75  1  0  0  0  0
 40 43  1  0  0  0  0
 40 76  1  0  0  0  0
 41 44  1  0  0  0  0
 41 77  1  0  0  0  0
 42 45  1  0  0  0  0
 42 78  1  0  0  0  0
 43 79  1  0  0  0  0
 43 80  1  0  0  0  0
 43 81  1  0  0  0  0
 44 45  2  0  0  0  0
 44 82  1  0  0  0  0
 45 83  1  0  0  0  0
M  CHG  1  40   1
M  END
>  <Molecule Name>
CTX-1020521

>  <SMILES>
CN1C=C(C=N1)C1=C2CCN(CC2=NC(=C1)C(=O)NCC1=CC=C(C=C1)N1CCN(C)CC1)C(=O)C1=C(C)C2=C(O1)C=CC=C2

>  <Batch Name>
CTX-1020521-1

>  <Batch Created Date>
2021-11-04

>  <Batch ID>
CTX-1020521-1

>  <External ID>
610EDL131-3

>  <Stereochemistry>
Achiral

>  <Amount 1>
3.5

>  <Unit 1>
mg

>  <CRO 1>
Pharmaron

>  <CRO 1 Total Amount>
24.1

>  <CRO 1 Unit>
mg

>  <Pharmaron Solubility (PBS, pH 7.4): Aqueous Solubility - Batch Mean (uM)>
5.2039

>  <Pharmaron Solubility (PBS, pH 7.4): Aqueous Solubility - Batch Mean (uM) Standard Deviation (±)>


>  <Pharmaron Solubility (PBS, pH 7.4): Aqueous Solubility - Batch Mean (uM) Count>
1.0

>  <log P>
3.71

>  <log D>
3.07

>  <Pharmaron Caliper Assay (CDK2/CCNE1): Minimum measured (%)>
83.4

>  <Pharmaron Caliper Assay (CDK2/CCNE1): IC50 - Batch Mean (uM)>
5.43

>  <Pharmaron ADPGLO (CDK2/E1-25C): Minimum measured (%)>


>  <Pharmaron ADPGLO (CDK2/E1-25C): IC50 - Batch Mean (uM)>


>  <Pharmaron ADPGLO (CDK2/E1-37C): Minimum measured (%)>


>  <Pharmaron ADPGLO (CDK2/E1-37C): IC50 - Batch Mean (uM)>


>  <IncuCyte Kuramochi RB-WT: IC50 - Batch Mean (uM)>


>  <IncuCyte Kuramochi RB-KO: IC50 - Batch Mean (uM)>


>  <DSF (npCDK2/CCNE1): dTm D - Batch Mean [Concentration: 100]>


>  <DSF (npCDK2/CCNE1): dTm D - Batch Mean [Concentration: 20.0]>
0.397

>  <DSF (pCDK2/CCNE1): dTm D - Batch Mean [Concentration: 100]>


>  <DSF (pCDK2/CCNE1): dTm D - Batch Mean [Concentration: 20.0]>


>  <RLM: t1/2 - Batch Mean (Min)>


>  <RLM: Cl int - Batch Mean (uL/min/mg protein)>


>  <RLM: ER (Hepatic extraction ratio) - Batch Mean>


>  <HLM: t1/2 - Batch Mean (Min)>


>  <HLM: Cl int - Batch Mean (uL/min/mg protein)>


>  <HLM: ER (Hepatic extraction ratio) - Batch Mean>


>  <MDCK-WT 4% BSA: Papp (A-B) - Batch Mean (10-6, cm/s)>


>  <MDCK-WT 4% BSA: Papp (B-A) - Batch Mean (10-6, cm/s)>


>  <MDCK-WT 4% BSA: Efflux Ratio - Batch Mean>


>  <MDCK-WT 4% BSA: ~Net A_B - Batch Mean (10-6, cm/s)>


>  <pIC50>
5.2652

>  <Selection_1>
Y

>  <Selection_N>


>  <Serie>
Naphthyridine

>  <Selection_T>
N

>  <Train_Vs_Test>


$$$$
