CTX-1020454
 OpenBabel08272613283D

 73 78  0  0  0  0  0  0  0  0999 V2000
    6.6302   -2.7470    3.3932 F   0  0  0  0  0  0  0  0  0  0  0  0
    5.3402   -2.4145    3.2261 C   0  0  0  0  0  0  0  0  0  0  0  0
    4.5950   -3.0078    2.1245 C   0  0  0  0  0  0  0  0  0  0  0  0
    4.7410   -1.4717    4.1688 C   0  0  0  0  0  0  0  0  0  0  0  0
    4.9466   -3.9985    1.1669 O   0  0  0  0  0  0  0  0  0  0  0  0
    3.2882   -2.6073    1.8938 C   0  0  0  0  0  0  0  0  0  0  0  0
    3.4263   -1.1060    3.9659 C   0  0  0  0  0  0  0  0  0  0  0  0
    3.8375   -4.3047    0.2981 C   0  0  0  0  0  0  0  0  0  0  0  0
    2.8410   -3.3409    0.6810 C   0  0  0  0  0  0  0  0  0  0  0  0
    2.7557   -1.6311    2.8336 C   0  0  0  0  0  0  0  0  0  0  0  0
    3.8788   -5.5185   -0.8627 C   0  0  0  0  0  0  0  0  0  0  0  0
    1.5132   -3.0629    0.0499 C   0  0  0  0  0  0  0  0  0  0  0  0
    2.9866   -5.5724   -1.7217 O   0  0  0  0  0  0  0  0  0  0  0  0
    4.8943   -6.6188   -0.8616 N   0  0  0  0  0  0  0  0  0  0  0  0
    5.2810   -7.9417   -1.8299 C   0  0  0  0  0  0  0  0  0  0  0  0
    5.2521   -6.9721    0.4604 C   0  0  0  0  0  0  0  0  0  0  0  0
    6.0502   -9.2377   -0.9654 C   0  0  0  0  0  0  0  0  0  0  0  0
    6.7179   -7.3231    0.4700 C   0  0  0  0  0  0  0  0  0  0  0  0
    5.9872  -10.6332   -1.2177 N   0  0  0  0  0  0  0  0  0  0  0  0
    6.6944   -8.7828    0.1856 C   0  0  0  0  0  0  0  0  0  0  0  0
    6.4602  -11.4823   -0.1822 C   0  0  0  0  0  0  0  0  0  0  0  0
    7.0734   -9.6496    1.2156 C   0  0  0  0  0  0  0  0  0  0  0  0
    6.5832  -13.0364   -0.1750 C   0  0  0  0  0  0  0  0  0  0  0  0
    6.9141  -10.9989    1.0414 C   0  0  0  0  0  0  0  0  0  0  0  0
    6.9317  -13.5882    0.8474 O   0  0  0  0  0  0  0  0  0  0  0  0
    6.3526  -13.7971   -1.2990 N   0  0  0  0  0  0  0  0  0  0  0  0
    6.5964  -15.2447   -1.3136 C   0  0  0  0  0  0  0  0  0  0  0  0
    5.3682  -16.0338   -1.6979 C   0  0  0  0  0  0  0  0  0  0  0  0
    5.1272  -16.3880   -3.0256 C   0  0  0  0  0  0  0  0  0  0  0  0
    4.4217  -16.4088   -0.7403 C   0  0  0  0  0  0  0  0  0  0  0  0
    4.0067  -17.1529   -3.3697 C   0  0  0  0  0  0  0  0  0  0  0  0
    3.2558  -17.0876   -1.1173 C   0  0  0  0  0  0  0  0  0  0  0  0
    3.0576  -17.5632   -2.4216 C   0  0  0  0  0  0  0  0  0  0  0  0
    2.0028  -18.3854   -2.7525 N   0  0  0  0  0  0  0  0  0  0  0  0
    1.3913  -19.2970   -1.7690 C   0  0  0  0  0  0  0  0  0  0  0  0
    1.4143  -18.4639   -4.1028 C   0  0  0  0  0  0  0  0  0  0  0  0
    1.2410  -20.7257   -2.3692 C   0  0  0  0  0  0  0  0  0  0  0  0
    1.2536  -19.9368   -4.5617 C   0  0  0  0  0  0  0  0  0  0  0  0
    0.4893  -20.7203   -3.6128 N   0  3  0  0  0  0  0  0  0  0  0  0
    0.2663  -22.0748   -4.1065 C   0  0  0  0  0  0  0  0  0  0  0  0
    5.2836   -1.0920    4.9603 H   0  0  0  0  0  0  0  0  0  0  0  0
    2.9453   -0.4687    4.6198 H   0  0  0  0  0  0  0  0  0  0  0  0
    1.7981   -1.2888    2.6582 H   0  0  0  0  0  0  0  0  0  0  0  0
    1.0201   -2.2797    0.5869 H   0  0  0  0  0  0  0  0  0  0  0  0
    0.9124   -3.9479    0.0784 H   0  0  0  0  0  0  0  0  0  0  0  0
    1.6574   -2.7623   -0.9668 H   0  0  0  0  0  0  0  0  0  0  0  0
    5.9424   -7.6123   -2.6037 H   0  0  0  0  0  0  0  0  0  0  0  0
    4.3604   -8.3264   -2.2165 H   0  0  0  0  0  0  0  0  0  0  0  0
    4.6751   -7.8148    0.7795 H   0  0  0  0  0  0  0  0  0  0  0  0
    5.0614   -6.1569    1.1267 H   0  0  0  0  0  0  0  0  0  0  0  0
    7.1588   -7.1209    1.4238 H   0  0  0  0  0  0  0  0  0  0  0  0
    7.2989   -6.7589   -0.2293 H   0  0  0  0  0  0  0  0  0  0  0  0
    7.4673   -9.2780    2.0942 H   0  0  0  0  0  0  0  0  0  0  0  0
    7.1289  -11.6517    1.8113 H   0  0  0  0  0  0  0  0  0  0  0  0
    6.0155  -13.3592   -2.1138 H   0  0  0  0  0  0  0  0  0  0  0  0
    6.9087  -15.5499   -0.3368 H   0  0  0  0  0  0  0  0  0  0  0  0
    7.3509  -15.4400   -2.0467 H   0  0  0  0  0  0  0  0  0  0  0  0
    5.7823  -16.0826   -3.7622 H   0  0  0  0  0  0  0  0  0  0  0  0
    4.5833  -16.1834    0.2538 H   0  0  0  0  0  0  0  0  0  0  0  0
    3.8739  -17.4249   -4.3563 H   0  0  0  0  0  0  0  0  0  0  0  0
    2.5185  -17.2428   -0.4121 H   0  0  0  0  0  0  0  0  0  0  0  0
    0.4251  -18.9255   -1.4980 H   0  0  0  0  0  0  0  0  0  0  0  0
    2.0221  -19.3487   -0.9063 H   0  0  0  0  0  0  0  0  0  0  0  0
    2.0528  -17.9517   -4.7919 H   0  0  0  0  0  0  0  0  0  0  0  0
    0.4455  -18.0103   -4.0764 H   0  0  0  0  0  0  0  0  0  0  0  0
    0.7318  -21.3455   -1.6611 H   0  0  0  0  0  0  0  0  0  0  0  0
    2.2214  -21.0997   -2.5786 H   0  0  0  0  0  0  0  0  0  0  0  0
    2.2246  -20.3735   -4.6676 H   0  0  0  0  0  0  0  0  0  0  0  0
    0.7253  -19.9373   -5.4922 H   0  0  0  0  0  0  0  0  0  0  0  0
   -0.4356  -20.3147   -3.4701 H   0  0  0  0  0  0  0  0  0  0  0  0
    1.2087  -22.5526   -4.2753 H   0  0  0  0  0  0  0  0  0  0  0  0
   -0.2825  -22.0341   -5.0241 H   0  0  0  0  0  0  0  0  0  0  0  0
   -0.2910  -22.6312   -3.3821 H   0  0  0  0  0  0  0  0  0  0  0  0
  1  2  1  0  0  0  0
  2  3  2  0  0  0  0
  2  4  1  0  0  0  0
  3  5  1  0  0  0  0
  3  6  1  0  0  0  0
  4  7  2  0  0  0  0
  4 41  1  0  0  0  0
  5  8  1  0  0  0  0
  6  9  1  0  0  0  0
  6 10  2  0  0  0  0
  7 10  1  0  0  0  0
  7 42  1  0  0  0  0
  8 11  1  0  0  0  0
  8  9  2  0  0  0  0
  9 12  1  0  0  0  0
 10 43  1  0  0  0  0
 11 13  2  0  0  0  0
 11 14  1  0  0  0  0
 12 44  1  0  0  0  0
 12 45  1  0  0  0  0
 12 46  1  0  0  0  0
 14 15  1  0  0  0  0
 14 16  1  0  0  0  0
 15 17  1  0  0  0  0
 15 47  1  0  0  0  0
 15 48  1  0  0  0  0
 16 18  1  0  0  0  0
 16 49  1  0  0  0  0
 16 50  1  0  0  0  0
 17 19  2  0  0  0  0
 17 20  1  0  0  0  0
 18 20  1  0  0  0  0
 18 51  1  0  0  0  0
 18 52  1  0  0  0  0
 19 21  1  0  0  0  0
 20 22  2  0  0  0  0
 21 23  1  0  0  0  0
 21 24  2  0  0  0  0
 22 24  1  0  0  0  0
 22 53  1  0  0  0  0
 23 25  2  0  0  0  0
 23 26  1  0  0  0  0
 24 54  1  0  0  0  0
 26 27  1  0  0  0  0
 26 55  1  0  0  0  0
 27 28  1  0  0  0  0
 27 56  1  0  0  0  0
 27 57  1  0  0  0  0
 28 29  2  0  0  0  0
 28 30  1  0  0  0  0
 29 31  1  0  0  0  0
 29 58  1  0  0  0  0
 30 32  2  0  0  0  0
 30 59  1  0  0  0  0
 31 33  2  0  0  0  0
 31 60  1  0  0  0  0
 32 33  1  0  0  0  0
 32 61  1  0  0  0  0
 33 34  1  0  0  0  0
 34 35  1  0  0  0  0
 34 36  1  0  0  0  0
 35 37  1  0  0  0  0
 35 62  1  0  0  0  0
 35 63  1  0  0  0  0
 36 38  1  0  0  0  0
 36 64  1  0  0  0  0
 36 65  1  0  0  0  0
 37 39  1  0  0  0  0
 37 66  1  0  0  0  0
 37 67  1  0  0  0  0
 38 39  1  0  0  0  0
 38 68  1  0  0  0  0
 38 69  1  0  0  0  0
 39 40  1  0  0  0  0
 39 70  1  0  0  0  0
 40 71  1  0  0  0  0
 40 72  1  0  0  0  0
 40 73  1  0  0  0  0
M  CHG  1  39   1
M  END
>  <Molecule Name>
CTX-1020454

>  <SMILES>
CN1CCN(CC1)C1=CC=C(CNC(=O)C2=CC=C3CCN(CC3=N2)C(=O)C2=C(C)C3=CC=CC(F)=C3O2)C=C1

>  <Batch Name>
CTX-1020454-1

>  <Batch Created Date>
2021-10-21

>  <Batch ID>
CTX-1020454-1

>  <External ID>
P841-0210

>  <Stereochemistry>
Achiral

>  <Amount 1>
4.9

>  <Unit 1>
mg

>  <CRO 1>
Pharmaron

>  <CRO 1 Total Amount>
34.7

>  <CRO 1 Unit>
mg

>  <Pharmaron Solubility (PBS, pH 7.4): Aqueous Solubility - Batch Mean (uM)>
3.2155

>  <Pharmaron Solubility (PBS, pH 7.4): Aqueous Solubility - Batch Mean (uM) Standard Deviation (±)>


>  <Pharmaron Solubility (PBS, pH 7.4): Aqueous Solubility - Batch Mean (uM) Count>
1.0

>  <log P>
3.77

>  <log D>
3.14

>  <Pharmaron Caliper Assay (CDK2/CCNE1): Minimum measured (%)>
38.9

>  <Pharmaron Caliper Assay (CDK2/CCNE1): IC50 - Batch Mean (uM)>
2.71

>  <Pharmaron ADPGLO (CDK2/E1-25C): Minimum measured (%)>
57.8

>  <Pharmaron ADPGLO (CDK2/E1-25C): IC50 - Batch Mean (uM)>
3.27

>  <Pharmaron ADPGLO (CDK2/E1-37C): Minimum measured (%)>
98.2

>  <Pharmaron ADPGLO (CDK2/E1-37C): IC50 - Batch Mean (uM)>
10.0

>  <IncuCyte Kuramochi RB-WT: IC50 - Batch Mean (uM)>
5.92

>  <IncuCyte Kuramochi RB-KO: IC50 - Batch Mean (uM)>
5.31

>  <DSF (npCDK2/CCNE1): dTm D - Batch Mean [Concentration: 100]>


>  <DSF (npCDK2/CCNE1): dTm D - Batch Mean [Concentration: 20.0]>
1.455

>  <DSF (pCDK2/CCNE1): dTm D - Batch Mean [Concentration: 100]>


>  <DSF (pCDK2/CCNE1): dTm D - Batch Mean [Concentration: 20.0]>


>  <RLM: t1/2 - Batch Mean (Min)>


>  <RLM: Cl int - Batch Mean (uL/min/mg protein)>


>  <RLM: ER (Hepatic extraction ratio) - Batch Mean>


>  <HLM: t1/2 - Batch Mean (Min)>


>  <HLM: Cl int - Batch Mean (uL/min/mg protein)>


>  <HLM: ER (Hepatic extraction ratio) - Batch Mean>


>  <MDCK-WT 4% BSA: Papp (A-B) - Batch Mean (10-6, cm/s)>


>  <MDCK-WT 4% BSA: Papp (B-A) - Batch Mean (10-6, cm/s)>


>  <MDCK-WT 4% BSA: Efflux Ratio - Batch Mean>


>  <MDCK-WT 4% BSA: ~Net A_B - Batch Mean (10-6, cm/s)>


>  <pIC50>
5.567031

>  <Selection_1>
Y

>  <Selection_N>


>  <Serie>
Naphthyridine

>  <Selection_T>
N

>  <Train_Vs_Test>


$$$$
