CTX-1020459
 OpenBabel08272613283D

 73 78  0  0  0  0  0  0  0  0999 V2000
    1.2140   -0.2145   -0.0249 Cl  0  0  0  0  0  0  0  0  0  0  0  0
    2.9383   -0.1657   -0.0212 C   0  0  0  0  0  0  0  0  0  0  0  0
    3.6839   -1.3593    0.0471 C   0  0  0  0  0  0  0  0  0  0  0  0
    3.5703    1.0575   -0.0802 C   0  0  0  0  0  0  0  0  0  0  0  0
    5.1268   -1.3922    0.0553 C   0  0  0  0  0  0  0  0  0  0  0  0
    5.0102    1.0590   -0.0690 C   0  0  0  0  0  0  0  0  0  0  0  0
    5.8148   -0.1792    0.0029 C   0  0  0  0  0  0  0  0  0  0  0  0
    6.0970   -2.4656    0.1146 C   0  0  0  0  0  0  0  0  0  0  0  0
    7.2607   -0.5258    0.0386 O   0  0  0  0  0  0  0  0  0  0  0  0
    7.4414   -1.9887    0.1165 C   0  0  0  0  0  0  0  0  0  0  0  0
    5.6583   -3.8910    0.1616 C   0  0  0  0  0  0  0  0  0  0  0  0
    8.7832   -3.0010    0.2036 C   0  0  0  0  0  0  0  0  0  0  0  0
    8.5387   -4.2117    0.2920 O   0  0  0  0  0  0  0  0  0  0  0  0
   10.2942   -2.7463    0.2148 N   0  0  0  0  0  0  0  0  0  0  0  0
   11.4424   -3.7968    0.2423 C   0  0  0  0  0  0  0  0  0  0  0  0
   10.6709   -1.4168    0.0522 C   0  0  0  0  0  0  0  0  0  0  0  0
   12.9799   -3.2593    0.2668 C   0  0  0  0  0  0  0  0  0  0  0  0
   12.0776   -0.8879    0.0800 C   0  0  0  0  0  0  0  0  0  0  0  0
   14.1120   -4.0869    0.3790 N   0  0  0  0  0  0  0  0  0  0  0  0
   13.1697   -1.8767    0.1879 C   0  0  0  0  0  0  0  0  0  0  0  0
   15.3791   -3.4694    0.4684 C   0  0  0  0  0  0  0  0  0  0  0  0
   14.4460   -1.3065    0.2507 C   0  0  0  0  0  0  0  0  0  0  0  0
   16.7574   -4.1768    0.5690 C   0  0  0  0  0  0  0  0  0  0  0  0
   15.5485   -2.0965    0.4294 C   0  0  0  0  0  0  0  0  0  0  0  0
   17.7621   -3.4708    0.6741 O   0  0  0  0  0  0  0  0  0  0  0  0
   16.8542   -5.4915    0.5493 N   0  0  0  0  0  0  0  0  0  0  0  0
   18.1425   -6.2070    0.4649 C   0  0  0  0  0  0  0  0  0  0  0  0
   18.3136   -7.2055    1.5798 C   0  0  0  0  0  0  0  0  0  0  0  0
   17.9070   -8.5382    1.4251 C   0  0  0  0  0  0  0  0  0  0  0  0
   18.8333   -6.8160    2.8104 C   0  0  0  0  0  0  0  0  0  0  0  0
   17.9773   -9.4224    2.5111 C   0  0  0  0  0  0  0  0  0  0  0  0
   18.9456   -7.7236    3.8692 C   0  0  0  0  0  0  0  0  0  0  0  0
   18.4944   -9.0391    3.7623 C   0  0  0  0  0  0  0  0  0  0  0  0
   18.5555   -9.9287    4.8134 N   0  0  0  0  0  0  0  0  0  0  0  0
   19.5703   -9.8949    5.9491 C   0  0  0  0  0  0  0  0  0  0  0  0
   17.4266  -10.8308    5.1012 C   0  0  0  0  0  0  0  0  0  0  0  0
   20.0152  -11.2926    6.3140 C   0  0  0  0  0  0  0  0  0  0  0  0
   17.9431  -12.2041    5.5902 C   0  0  0  0  0  0  0  0  0  0  0  0
   18.8785  -12.0966    6.7298 N   0  3  0  0  0  0  0  0  0  0  0  0
   19.2987  -13.4146    7.1926 C   0  0  0  0  0  0  0  0  0  0  0  0
    3.1728   -2.2547    0.0934 H   0  0  0  0  0  0  0  0  0  0  0  0
    3.0331    1.9373   -0.1304 H   0  0  0  0  0  0  0  0  0  0  0  0
    5.5025    1.9650   -0.1131 H   0  0  0  0  0  0  0  0  0  0  0  0
    4.5893   -3.9359    0.1476 H   0  0  0  0  0  0  0  0  0  0  0  0
    6.0226   -4.3470    1.0584 H   0  0  0  0  0  0  0  0  0  0  0  0
    6.0483   -4.4124   -0.6875 H   0  0  0  0  0  0  0  0  0  0  0  0
   11.3341   -4.4075   -0.6297 H   0  0  0  0  0  0  0  0  0  0  0  0
   11.3218   -4.2955    1.1812 H   0  0  0  0  0  0  0  0  0  0  0  0
   10.1550   -0.8829    0.8227 H   0  0  0  0  0  0  0  0  0  0  0  0
   10.4486   -1.2899   -0.9867 H   0  0  0  0  0  0  0  0  0  0  0  0
   12.1567   -0.2284    0.9189 H   0  0  0  0  0  0  0  0  0  0  0  0
   12.2172   -0.4265   -0.8753 H   0  0  0  0  0  0  0  0  0  0  0  0
   14.5562   -0.2843    0.1617 H   0  0  0  0  0  0  0  0  0  0  0  0
   16.4860   -1.6778    0.5330 H   0  0  0  0  0  0  0  0  0  0  0  0
   16.0262   -6.0223    0.5931 H   0  0  0  0  0  0  0  0  0  0  0  0
   18.9374   -5.4926    0.5172 H   0  0  0  0  0  0  0  0  0  0  0  0
   18.1603   -6.7427   -0.4612 H   0  0  0  0  0  0  0  0  0  0  0  0
   17.5561   -8.8683    0.5124 H   0  0  0  0  0  0  0  0  0  0  0  0
   19.1414   -5.8402    2.9445 H   0  0  0  0  0  0  0  0  0  0  0  0
   17.6376  -10.3891    2.3883 H   0  0  0  0  0  0  0  0  0  0  0  0
   19.3743   -7.4109    4.7543 H   0  0  0  0  0  0  0  0  0  0  0  0
   19.1232   -9.4345    6.8053 H   0  0  0  0  0  0  0  0  0  0  0  0
   20.4246   -9.3360    5.6288 H   0  0  0  0  0  0  0  0  0  0  0  0
   16.8495  -10.9682    4.2107 H   0  0  0  0  0  0  0  0  0  0  0  0
   16.8216  -10.3949    5.8686 H   0  0  0  0  0  0  0  0  0  0  0  0
   20.7210  -11.2391    7.1164 H   0  0  0  0  0  0  0  0  0  0  0  0
   20.4653  -11.7473    5.4563 H   0  0  0  0  0  0  0  0  0  0  0  0
   18.4474  -12.6872    4.7795 H   0  0  0  0  0  0  0  0  0  0  0  0
   17.0951  -12.7649    5.9238 H   0  0  0  0  0  0  0  0  0  0  0  0
   18.4125  -11.6462    7.5175 H   0  0  0  0  0  0  0  0  0  0  0  0
   19.7957  -13.9300    6.3975 H   0  0  0  0  0  0  0  0  0  0  0  0
   18.4406  -13.9752    7.4996 H   0  0  0  0  0  0  0  0  0  0  0  0
   19.9682  -13.3053    8.0201 H   0  0  0  0  0  0  0  0  0  0  0  0
  1  2  1  0  0  0  0
  2  3  2  0  0  0  0
  2  4  1  0  0  0  0
  3  5  1  0  0  0  0
  3 41  1  0  0  0  0
  4  6  2  0  0  0  0
  4 42  1  0  0  0  0
  5  7  2  0  0  0  0
  5  8  1  0  0  0  0
  6  7  1  0  0  0  0
  6 43  1  0  0  0  0
  7  9  1  0  0  0  0
  8 10  2  0  0  0  0
  8 11  1  0  0  0  0
  9 10  1  0  0  0  0
 10 12  1  0  0  0  0
 11 44  1  0  0  0  0
 11 45  1  0  0  0  0
 11 46  1  0  0  0  0
 12 13  2  0  0  0  0
 12 14  1  0  0  0  0
 14 15  1  0  0  0  0
 14 16  1  0  0  0  0
 15 17  1  0  0  0  0
 15 47  1  0  0  0  0
 15 48  1  0  0  0  0
 16 18  1  0  0  0  0
 16 49  1  0  0  0  0
 16 50  1  0  0  0  0
 17 19  2  0  0  0  0
 17 20  1  0  0  0  0
 18 20  1  0  0  0  0
 18 51  1  0  0  0  0
 18 52  1  0  0  0  0
 19 21  1  0  0  0  0
 20 22  2  0  0  0  0
 21 23  1  0  0  0  0
 21 24  2  0  0  0  0
 22 24  1  0  0  0  0
 22 53  1  0  0  0  0
 23 25  2  0  0  0  0
 23 26  1  0  0  0  0
 24 54  1  0  0  0  0
 26 27  1  0  0  0  0
 26 55  1  0  0  0  0
 27 28  1  0  0  0  0
 27 56  1  0  0  0  0
 27 57  1  0  0  0  0
 28 29  2  0  0  0  0
 28 30  1  0  0  0  0
 29 31  1  0  0  0  0
 29 58  1  0  0  0  0
 30 32  2  0  0  0  0
 30 59  1  0  0  0  0
 31 33  2  0  0  0  0
 31 60  1  0  0  0  0
 32 33  1  0  0  0  0
 32 61  1  0  0  0  0
 33 34  1  0  0  0  0
 34 35  1  0  0  0  0
 34 36  1  0  0  0  0
 35 37  1  0  0  0  0
 35 62  1  0  0  0  0
 35 63  1  0  0  0  0
 36 38  1  0  0  0  0
 36 64  1  0  0  0  0
 36 65  1  0  0  0  0
 37 39  1  0  0  0  0
 37 66  1  0  0  0  0
 37 67  1  0  0  0  0
 38 39  1  0  0  0  0
 38 68  1  0  0  0  0
 38 69  1  0  0  0  0
 39 40  1  0  0  0  0
 39 70  1  0  0  0  0
 40 71  1  0  0  0  0
 40 72  1  0  0  0  0
 40 73  1  0  0  0  0
M  CHG  1  39   1
M  END
>  <Molecule Name>
CTX-1020459

>  <SMILES>
CN1CCN(CC1)C1=CC=C(CNC(=O)C2=CC=C3CCN(CC3=N2)C(=O)C2=C(C)C3=C(O2)C=CC(Cl)=C3)C=C1

>  <Batch Name>
CTX-1020459-1

>  <Batch Created Date>
2021-10-21

>  <Batch ID>
CTX-1020459-1

>  <External ID>
P841-0208

>  <Stereochemistry>
Achiral

>  <Amount 1>
5.2

>  <Unit 1>
mg

>  <CRO 1>
Pharmaron

>  <CRO 1 Total Amount>
32.2

>  <CRO 1 Unit>
mg

>  <Pharmaron Solubility (PBS, pH 7.4): Aqueous Solubility - Batch Mean (uM)>
1.5634

>  <Pharmaron Solubility (PBS, pH 7.4): Aqueous Solubility - Batch Mean (uM) Standard Deviation (±)>


>  <Pharmaron Solubility (PBS, pH 7.4): Aqueous Solubility - Batch Mean (uM) Count>
1.0

>  <log P>
4.24

>  <log D>
3.6

>  <Pharmaron Caliper Assay (CDK2/CCNE1): Minimum measured (%)>
73.2

>  <Pharmaron Caliper Assay (CDK2/CCNE1): IC50 - Batch Mean (uM)>
1.82

>  <Pharmaron ADPGLO (CDK2/E1-25C): Minimum measured (%)>


>  <Pharmaron ADPGLO (CDK2/E1-25C): IC50 - Batch Mean (uM)>


>  <Pharmaron ADPGLO (CDK2/E1-37C): Minimum measured (%)>


>  <Pharmaron ADPGLO (CDK2/E1-37C): IC50 - Batch Mean (uM)>


>  <IncuCyte Kuramochi RB-WT: IC50 - Batch Mean (uM)>
3.76

>  <IncuCyte Kuramochi RB-KO: IC50 - Batch Mean (uM)>
4.13

>  <DSF (npCDK2/CCNE1): dTm D - Batch Mean [Concentration: 100]>


>  <DSF (npCDK2/CCNE1): dTm D - Batch Mean [Concentration: 20.0]>
0.341

>  <DSF (pCDK2/CCNE1): dTm D - Batch Mean [Concentration: 100]>


>  <DSF (pCDK2/CCNE1): dTm D - Batch Mean [Concentration: 20.0]>


>  <RLM: t1/2 - Batch Mean (Min)>


>  <RLM: Cl int - Batch Mean (uL/min/mg protein)>


>  <RLM: ER (Hepatic extraction ratio) - Batch Mean>


>  <HLM: t1/2 - Batch Mean (Min)>


>  <HLM: Cl int - Batch Mean (uL/min/mg protein)>


>  <HLM: ER (Hepatic extraction ratio) - Batch Mean>


>  <MDCK-WT 4% BSA: Papp (A-B) - Batch Mean (10-6, cm/s)>


>  <MDCK-WT 4% BSA: Papp (B-A) - Batch Mean (10-6, cm/s)>


>  <MDCK-WT 4% BSA: Efflux Ratio - Batch Mean>


>  <MDCK-WT 4% BSA: ~Net A_B - Batch Mean (10-6, cm/s)>


>  <pIC50>
5.739929

>  <Selection_1>
Y

>  <Selection_N>


>  <Serie>
Naphthyridine

>  <Selection_T>
N

>  <Train_Vs_Test>


$$$$
