CTX-1020520
 OpenBabel08272613283D

 80 86  0  0  0  0  0  0  0  0999 V2000
    2.4505    1.1449    0.1091 O   0  0  0  0  0  0  0  0  0  0  0  0
    2.4448   -0.0355   -0.2226 C   0  0  0  0  0  0  0  0  0  0  0  0
    1.7136   -0.4982   -1.3106 N   0  0  0  0  0  0  0  0  0  0  0  0
    3.2333   -1.0675    0.5562 C   0  0  0  0  0  0  0  0  0  0  0  0
    0.8713    0.3725   -2.1099 C   0  0  0  0  0  0  0  0  0  0  0  0
    4.3062   -0.6214    1.2611 N   0  0  0  0  0  0  0  0  0  0  0  0
    2.8150   -2.3899    0.5831 C   0  0  0  0  0  0  0  0  0  0  0  0
   -0.5491   -0.1377   -2.1625 C   0  0  0  0  0  0  0  0  0  0  0  0
    5.0006   -1.5082    2.0299 C   0  0  0  0  0  0  0  0  0  0  0  0
    3.5259   -3.3079    1.3650 C   0  0  0  0  0  0  0  0  0  0  0  0
   -1.2942   -0.2685   -0.9876 C   0  0  0  0  0  0  0  0  0  0  0  0
   -1.1777   -0.4369   -3.3777 C   0  0  0  0  0  0  0  0  0  0  0  0
    4.6589   -2.8743    2.0952 C   0  0  0  0  0  0  0  0  0  0  0  0
    6.2088   -0.9467    2.7950 C   0  0  0  0  0  0  0  0  0  0  0  0
    3.0344   -4.6522    1.4166 N   0  0  0  0  0  0  0  0  0  0  0  0
   -2.6236   -0.7029   -1.0311 C   0  0  0  0  0  0  0  0  0  0  0  0
   -2.5180   -0.8598   -3.4106 C   0  0  0  0  0  0  0  0  0  0  0  0
    5.4981   -3.8138    2.9340 C   0  0  0  0  0  0  0  0  0  0  0  0
    6.7805   -1.8907    3.7526 N   0  0  0  0  0  0  0  0  0  0  0  0
    3.2462   -5.4532    2.4914 N   0  0  0  0  0  0  0  0  0  0  0  0
    2.2693   -5.2984    0.4740 C   0  0  0  0  0  0  0  0  0  0  0  0
   -3.2693   -1.0074   -2.2396 C   0  0  0  0  0  0  0  0  0  0  0  0
    6.8722   -3.2620    3.2952 C   0  0  0  0  0  0  0  0  0  0  0  0
    7.3900   -1.4525    4.9337 C   0  0  0  0  0  0  0  0  0  0  0  0
    2.5479   -6.5543    2.2354 C   0  0  0  0  0  0  0  0  0  0  0  0
    1.9338   -6.5269    0.9799 C   0  0  0  0  0  0  0  0  0  0  0  0
   -4.6093   -1.3591   -2.2248 N   0  0  0  0  0  0  0  0  0  0  0  0
    7.8776   -0.3264    5.0217 O   0  0  0  0  0  0  0  0  0  0  0  0
    7.1704   -2.3113    6.1063 C   0  0  0  0  0  0  0  0  0  0  0  0
   -5.4747   -1.1567   -3.3959 C   0  0  0  0  0  0  0  0  0  0  0  0
   -5.0189   -2.5161   -1.4062 C   0  0  0  0  0  0  0  0  0  0  0  0
    6.0250   -3.0766    6.0447 O   0  0  0  0  0  0  0  0  0  0  0  0
    7.4611   -2.1442    7.4618 C   0  0  0  0  0  0  0  0  0  0  0  0
   -6.9389   -0.9843   -2.9152 C   0  0  0  0  0  0  0  0  0  0  0  0
   -6.4901   -2.3381   -0.9600 C   0  0  0  0  0  0  0  0  0  0  0  0
    5.3384   -2.7659    7.1661 C   0  0  0  0  0  0  0  0  0  0  0  0
    6.1597   -2.0709    8.0432 C   0  0  0  0  0  0  0  0  0  0  0  0
    8.7473   -1.9696    8.1755 C   0  0  0  0  0  0  0  0  0  0  0  0
   -7.4199   -2.1227   -2.0949 N   0  3  0  0  0  0  0  0  0  0  0  0
    3.9952   -3.0281    7.3630 C   0  0  0  0  0  0  0  0  0  0  0  0
    5.5812   -1.5194    9.1967 C   0  0  0  0  0  0  0  0  0  0  0  0
   -8.7702   -1.8578   -1.5996 C   0  0  0  0  0  0  0  0  0  0  0  0
    3.4251   -2.4291    8.4868 C   0  0  0  0  0  0  0  0  0  0  0  0
    4.1974   -1.6665    9.3735 C   0  0  0  0  0  0  0  0  0  0  0  0
    1.7692   -1.4521   -1.5478 H   0  0  0  0  0  0  0  0  0  0  0  0
    1.2624    0.4189   -3.1047 H   0  0  0  0  0  0  0  0  0  0  0  0
    0.8656    1.3435   -1.6604 H   0  0  0  0  0  0  0  0  0  0  0  0
    1.9937   -2.6918    0.0360 H   0  0  0  0  0  0  0  0  0  0  0  0
   -0.8598   -0.0425   -0.0791 H   0  0  0  0  0  0  0  0  0  0  0  0
   -0.6504   -0.3458   -4.2601 H   0  0  0  0  0  0  0  0  0  0  0  0
    5.8967   -0.0720    3.3264 H   0  0  0  0  0  0  0  0  0  0  0  0
    6.9679   -0.7322    2.0720 H   0  0  0  0  0  0  0  0  0  0  0  0
   -3.1459   -0.8026   -0.1467 H   0  0  0  0  0  0  0  0  0  0  0  0
   -2.9585   -1.0664   -4.3207 H   0  0  0  0  0  0  0  0  0  0  0  0
    5.6339   -4.7232    2.3867 H   0  0  0  0  0  0  0  0  0  0  0  0
    4.9720   -3.9614    3.8540 H   0  0  0  0  0  0  0  0  0  0  0  0
    1.9967   -4.9251   -0.4487 H   0  0  0  0  0  0  0  0  0  0  0  0
    7.5023   -3.3007    2.4313 H   0  0  0  0  0  0  0  0  0  0  0  0
    7.2800   -3.8570    4.0855 H   0  0  0  0  0  0  0  0  0  0  0  0
    2.4676   -7.3454    2.8932 H   0  0  0  0  0  0  0  0  0  0  0  0
    1.3605   -7.2617    0.5367 H   0  0  0  0  0  0  0  0  0  0  0  0
   -5.4070   -2.0057   -4.0435 H   0  0  0  0  0  0  0  0  0  0  0  0
   -5.1635   -0.2832   -3.9298 H   0  0  0  0  0  0  0  0  0  0  0  0
   -4.3901   -2.5827   -0.5430 H   0  0  0  0  0  0  0  0  0  0  0  0
   -4.9276   -3.4119   -1.9842 H   0  0  0  0  0  0  0  0  0  0  0  0
   -7.5706   -0.8925   -3.7739 H   0  0  0  0  0  0  0  0  0  0  0  0
   -6.9715   -0.1105   -2.2986 H   0  0  0  0  0  0  0  0  0  0  0  0
   -6.5480   -1.4925   -0.3070 H   0  0  0  0  0  0  0  0  0  0  0  0
   -6.7871   -3.2426   -0.4714 H   0  0  0  0  0  0  0  0  0  0  0  0
    9.5566   -2.0785    7.4840 H   0  0  0  0  0  0  0  0  0  0  0  0
    8.8324   -2.7098    8.9435 H   0  0  0  0  0  0  0  0  0  0  0  0
    8.7821   -0.9945    8.6146 H   0  0  0  0  0  0  0  0  0  0  0  0
   -7.4491   -2.9635   -2.6715 H   0  0  0  0  0  0  0  0  0  0  0  0
    3.4510   -3.6266    6.7220 H   0  0  0  0  0  0  0  0  0  0  0  0
    6.1563   -1.0207    9.8936 H   0  0  0  0  0  0  0  0  0  0  0  0
   -8.7607   -0.9777   -0.9911 H   0  0  0  0  0  0  0  0  0  0  0  0
   -9.1063   -2.6902   -1.0174 H   0  0  0  0  0  0  0  0  0  0  0  0
   -9.4316   -1.7116   -2.4279 H   0  0  0  0  0  0  0  0  0  0  0  0
    2.4164   -2.5498    8.6683 H   0  0  0  0  0  0  0  0  0  0  0  0
    3.7383   -1.2034   10.1734 H   0  0  0  0  0  0  0  0  0  0  0  0
  1  2  2  0  0  0  0
  2  3  1  0  0  0  0
  2  4  1  0  0  0  0
  3  5  1  0  0  0  0
  3 45  1  0  0  0  0
  4  6  2  0  0  0  0
  4  7  1  0  0  0  0
  5  8  1  0  0  0  0
  5 46  1  0  0  0  0
  5 47  1  0  0  0  0
  6  9  1  0  0  0  0
  7 10  2  0  0  0  0
  7 48  1  0  0  0  0
  8 11  2  0  0  0  0
  8 12  1  0  0  0  0
  9 13  2  0  0  0  0
  9 14  1  0  0  0  0
 10 15  1  0  0  0  0
 10 13  1  0  0  0  0
 11 16  1  0  0  0  0
 11 49  1  0  0  0  0
 12 17  2  0  0  0  0
 12 50  1  0  0  0  0
 13 18  1  0  0  0  0
 14 19  1  0  0  0  0
 14 51  1  0  0  0  0
 14 52  1  0  0  0  0
 15 20  1  0  0  0  0
 15 21  1  0  0  0  0
 16 22  2  0  0  0  0
 16 53  1  0  0  0  0
 17 22  1  0  0  0  0
 17 54  1  0  0  0  0
 18 23  1  0  0  0  0
 18 55  1  0  0  0  0
 18 56  1  0  0  0  0
 19 24  1  0  0  0  0
 19 23  1  0  0  0  0
 20 25  2  0  0  0  0
 21 26  2  0  0  0  0
 21 57  1  0  0  0  0
 22 27  1  0  0  0  0
 23 58  1  0  0  0  0
 23 59  1  0  0  0  0
 24 28  2  0  0  0  0
 24 29  1  0  0  0  0
 25 26  1  0  0  0  0
 25 60  1  0  0  0  0
 26 61  1  0  0  0  0
 27 30  1  0  0  0  0
 27 31  1  0  0  0  0
 29 32  1  0  0  0  0
 29 33  2  0  0  0  0
 30 34  1  0  0  0  0
 30 62  1  0  0  0  0
 30 63  1  0  0  0  0
 31 35  1  0  0  0  0
 31 64  1  0  0  0  0
 31 65  1  0  0  0  0
 32 36  1  0  0  0  0
 33 37  1  0  0  0  0
 33 38  1  0  0  0  0
 34 39  1  0  0  0  0
 34 66  1  0  0  0  0
 34 67  1  0  0  0  0
 35 39  1  0  0  0  0
 35 68  1  0  0  0  0
 35 69  1  0  0  0  0
 36 40  2  0  0  0  0
 36 37  1  0  0  0  0
 37 41  2  0  0  0  0
 38 70  1  0  0  0  0
 38 71  1  0  0  0  0
 38 72  1  0  0  0  0
 39 42  1  0  0  0  0
 39 73  1  0  0  0  0
 40 43  1  0  0  0  0
 40 74  1  0  0  0  0
 41 44  1  0  0  0  0
 41 75  1  0  0  0  0
 42 76  1  0  0  0  0
 42 77  1  0  0  0  0
 42 78  1  0  0  0  0
 43 44  2  0  0  0  0
 43 79  1  0  0  0  0
 44 80  1  0  0  0  0
M  CHG  1  39   1
M  END
>  <Molecule Name>
CTX-1020520

>  <SMILES>
CN1CCN(CC1)C1=CC=C(CNC(=O)C2=CC(N3C=CC=N3)=C3CCN(CC3=N2)C(=O)C2=C(C)C3=C(O2)C=CC=C3)C=C1

>  <Batch Name>
CTX-1020520-1

>  <Batch Created Date>
2021-11-04

>  <Batch ID>
CTX-1020520-1

>  <External ID>
610EDL127-2

>  <Stereochemistry>
Achiral

>  <Amount 1>
5.0

>  <Unit 1>
mg

>  <CRO 1>
Pharmaron

>  <CRO 1 Total Amount>
22.6

>  <CRO 1 Unit>
mg

>  <Pharmaron Solubility (PBS, pH 7.4): Aqueous Solubility - Batch Mean (uM)>
7.0256

>  <Pharmaron Solubility (PBS, pH 7.4): Aqueous Solubility - Batch Mean (uM) Standard Deviation (±)>


>  <Pharmaron Solubility (PBS, pH 7.4): Aqueous Solubility - Batch Mean (uM) Count>
1.0

>  <log P>
3.72

>  <log D>
3.08

>  <Pharmaron Caliper Assay (CDK2/CCNE1): Minimum measured (%)>
79.1

>  <Pharmaron Caliper Assay (CDK2/CCNE1): IC50 - Batch Mean (uM)>
2.93

>  <Pharmaron ADPGLO (CDK2/E1-25C): Minimum measured (%)>


>  <Pharmaron ADPGLO (CDK2/E1-25C): IC50 - Batch Mean (uM)>


>  <Pharmaron ADPGLO (CDK2/E1-37C): Minimum measured (%)>


>  <Pharmaron ADPGLO (CDK2/E1-37C): IC50 - Batch Mean (uM)>


>  <IncuCyte Kuramochi RB-WT: IC50 - Batch Mean (uM)>


>  <IncuCyte Kuramochi RB-KO: IC50 - Batch Mean (uM)>


>  <DSF (npCDK2/CCNE1): dTm D - Batch Mean [Concentration: 100]>


>  <DSF (npCDK2/CCNE1): dTm D - Batch Mean [Concentration: 20.0]>
0.564

>  <DSF (pCDK2/CCNE1): dTm D - Batch Mean [Concentration: 100]>


>  <DSF (pCDK2/CCNE1): dTm D - Batch Mean [Concentration: 20.0]>


>  <RLM: t1/2 - Batch Mean (Min)>


>  <RLM: Cl int - Batch Mean (uL/min/mg protein)>


>  <RLM: ER (Hepatic extraction ratio) - Batch Mean>


>  <HLM: t1/2 - Batch Mean (Min)>


>  <HLM: Cl int - Batch Mean (uL/min/mg protein)>


>  <HLM: ER (Hepatic extraction ratio) - Batch Mean>


>  <MDCK-WT 4% BSA: Papp (A-B) - Batch Mean (10-6, cm/s)>


>  <MDCK-WT 4% BSA: Papp (B-A) - Batch Mean (10-6, cm/s)>


>  <MDCK-WT 4% BSA: Efflux Ratio - Batch Mean>


>  <MDCK-WT 4% BSA: ~Net A_B - Batch Mean (10-6, cm/s)>


>  <pIC50>
5.533132

>  <Selection_1>
Y

>  <Selection_N>


>  <Serie>
Naphthyridine

>  <Selection_T>
N

>  <Train_Vs_Test>


$$$$
