CTX-1020456
 OpenBabel08272613283D

 70 75  0  0  0  0  0  0  0  0999 V2000
    1.2470   -0.1267   -0.1453 Cl  0  0  0  0  0  0  0  0  0  0  0  0
    0.1974   -1.4964    0.0418 C   0  0  0  0  0  0  0  0  0  0  0  0
    0.5814   -2.8435    0.1734 C   0  0  0  0  0  0  0  0  0  0  0  0
   -1.2249   -1.2555    0.0367 C   0  0  0  0  0  0  0  0  0  0  0  0
   -0.8167   -3.7959    0.3858 S   0  0  0  0  0  0  0  0  0  0  0  0
    1.9811   -3.3229    0.0938 C   0  0  0  0  0  0  0  0  0  0  0  0
   -1.9134   -2.4501    0.2241 C   0  0  0  0  0  0  0  0  0  0  0  0
   -1.9843   -0.0547   -0.1308 C   0  0  0  0  0  0  0  0  0  0  0  0
    2.8378   -2.4444   -0.0957 O   0  0  0  0  0  0  0  0  0  0  0  0
    2.5240   -4.6622    0.1537 N   0  0  0  0  0  0  0  0  0  0  0  0
   -3.3307   -2.4620    0.2635 C   0  0  0  0  0  0  0  0  0  0  0  0
   -3.3835   -0.0695   -0.1092 C   0  0  0  0  0  0  0  0  0  0  0  0
    1.9007   -5.9880    0.5048 C   0  0  0  0  0  0  0  0  0  0  0  0
    3.9469   -4.6392   -0.2072 C   0  0  0  0  0  0  0  0  0  0  0  0
   -4.0490   -1.2680    0.0925 C   0  0  0  0  0  0  0  0  0  0  0  0
    2.7443   -7.2883    0.2481 C   0  0  0  0  0  0  0  0  0  0  0  0
    4.8133   -5.8584   -0.0407 C   0  0  0  0  0  0  0  0  0  0  0  0
    2.1741   -8.5500    0.3777 N   0  0  0  0  0  0  0  0  0  0  0  0
    4.1052   -7.1594   -0.0485 C   0  0  0  0  0  0  0  0  0  0  0  0
    3.0044   -9.6454    0.1892 C   0  0  0  0  0  0  0  0  0  0  0  0
    4.9008   -8.2917   -0.2551 C   0  0  0  0  0  0  0  0  0  0  0  0
    2.5425  -11.0759    0.3564 C   0  0  0  0  0  0  0  0  0  0  0  0
    4.3520   -9.5480   -0.1407 C   0  0  0  0  0  0  0  0  0  0  0  0
    3.3686  -11.9902    0.2996 O   0  0  0  0  0  0  0  0  0  0  0  0
    1.2126  -11.3517    0.5549 N   0  0  0  0  0  0  0  0  0  0  0  0
    0.7475  -12.7278    0.6931 C   0  0  0  0  0  0  0  0  0  0  0  0
   -0.3764  -13.0368   -0.2577 C   0  0  0  0  0  0  0  0  0  0  0  0
   -0.1819  -12.9690   -1.6381 C   0  0  0  0  0  0  0  0  0  0  0  0
   -1.6378  -13.3994    0.2115 C   0  0  0  0  0  0  0  0  0  0  0  0
   -1.2553  -13.1557   -2.5201 C   0  0  0  0  0  0  0  0  0  0  0  0
   -2.6976  -13.6043   -0.6829 C   0  0  0  0  0  0  0  0  0  0  0  0
   -2.5529  -13.4451   -2.0704 C   0  0  0  0  0  0  0  0  0  0  0  0
   -3.6298  -13.4930   -2.9367 N   0  0  0  0  0  0  0  0  0  0  0  0
   -3.5070  -13.9442   -4.3353 C   0  0  0  0  0  0  0  0  0  0  0  0
   -5.0248  -13.4464   -2.4631 C   0  0  0  0  0  0  0  0  0  0  0  0
   -4.3985  -13.0737   -5.2549 C   0  0  0  0  0  0  0  0  0  0  0  0
   -5.8824  -12.5900   -3.4250 C   0  0  0  0  0  0  0  0  0  0  0  0
   -5.8153  -13.0640   -4.8243 N   0  3  0  0  0  0  0  0  0  0  0  0
   -6.6187  -12.2114   -5.6952 C   0  0  0  0  0  0  0  0  0  0  0  0
   -1.4903    0.8406   -0.2704 H   0  0  0  0  0  0  0  0  0  0  0  0
   -3.8347   -3.3492    0.4179 H   0  0  0  0  0  0  0  0  0  0  0  0
   -3.9152    0.8048   -0.2424 H   0  0  0  0  0  0  0  0  0  0  0  0
    0.9984   -6.0763   -0.0636 H   0  0  0  0  0  0  0  0  0  0  0  0
    1.7776   -5.9535    1.5671 H   0  0  0  0  0  0  0  0  0  0  0  0
    4.3961   -3.8655    0.3796 H   0  0  0  0  0  0  0  0  0  0  0  0
    3.9159   -4.5187   -1.2700 H   0  0  0  0  0  0  0  0  0  0  0  0
   -5.0806   -1.2830    0.1173 H   0  0  0  0  0  0  0  0  0  0  0  0
    5.3276   -5.7703    0.8935 H   0  0  0  0  0  0  0  0  0  0  0  0
    5.4591   -5.8743   -0.8937 H   0  0  0  0  0  0  0  0  0  0  0  0
    5.8992   -8.1843   -0.4932 H   0  0  0  0  0  0  0  0  0  0  0  0
    4.9234  -10.3934   -0.2951 H   0  0  0  0  0  0  0  0  0  0  0  0
    0.5647  -10.6122    0.6045 H   0  0  0  0  0  0  0  0  0  0  0  0
    0.4043  -12.8782    1.6954 H   0  0  0  0  0  0  0  0  0  0  0  0
    1.5649  -13.3793    0.4643 H   0  0  0  0  0  0  0  0  0  0  0  0
    0.7608  -12.7797   -2.0129 H   0  0  0  0  0  0  0  0  0  0  0  0
   -1.7926  -13.5180    1.2249 H   0  0  0  0  0  0  0  0  0  0  0  0
   -1.0855  -13.0776   -3.5351 H   0  0  0  0  0  0  0  0  0  0  0  0
   -3.6179  -13.8823   -0.3078 H   0  0  0  0  0  0  0  0  0  0  0  0
   -3.8168  -14.9659   -4.4061 H   0  0  0  0  0  0  0  0  0  0  0  0
   -2.4872  -13.8508   -4.6454 H   0  0  0  0  0  0  0  0  0  0  0  0
   -5.0524  -13.0149   -1.4844 H   0  0  0  0  0  0  0  0  0  0  0  0
   -5.4186  -14.4409   -2.4328 H   0  0  0  0  0  0  0  0  0  0  0  0
   -4.3449  -13.4604   -6.2511 H   0  0  0  0  0  0  0  0  0  0  0  0
   -4.0355  -12.0685   -5.2039 H   0  0  0  0  0  0  0  0  0  0  0  0
   -5.5321  -11.5796   -3.3886 H   0  0  0  0  0  0  0  0  0  0  0  0
   -6.9008  -12.6672   -3.1060 H   0  0  0  0  0  0  0  0  0  0  0  0
   -6.1951  -14.0086   -4.8861 H   0  0  0  0  0  0  0  0  0  0  0  0
   -6.2467  -11.2089   -5.6548 H   0  0  0  0  0  0  0  0  0  0  0  0
   -7.6375  -12.2273   -5.3687 H   0  0  0  0  0  0  0  0  0  0  0  0
   -6.5606  -12.5731   -6.7006 H   0  0  0  0  0  0  0  0  0  0  0  0
  1  2  1  0  0  0  0
  2  3  2  0  0  0  0
  2  4  1  0  0  0  0
  3  5  1  0  0  0  0
  3  6  1  0  0  0  0
  4  7  2  0  0  0  0
  4  8  1  0  0  0  0
  5  7  1  0  0  0  0
  6  9  2  0  0  0  0
  6 10  1  0  0  0  0
  7 11  1  0  0  0  0
  8 12  2  0  0  0  0
  8 40  1  0  0  0  0
 10 13  1  0  0  0  0
 10 14  1  0  0  0  0
 11 15  2  0  0  0  0
 11 41  1  0  0  0  0
 12 15  1  0  0  0  0
 12 42  1  0  0  0  0
 13 16  1  0  0  0  0
 13 43  1  0  0  0  0
 13 44  1  0  0  0  0
 14 17  1  0  0  0  0
 14 45  1  0  0  0  0
 14 46  1  0  0  0  0
 15 47  1  0  0  0  0
 16 18  2  0  0  0  0
 16 19  1  0  0  0  0
 17 19  1  0  0  0  0
 17 48  1  0  0  0  0
 17 49  1  0  0  0  0
 18 20  1  0  0  0  0
 19 21  2  0  0  0  0
 20 22  1  0  0  0  0
 20 23  2  0  0  0  0
 21 23  1  0  0  0  0
 21 50  1  0  0  0  0
 22 24  2  0  0  0  0
 22 25  1  0  0  0  0
 23 51  1  0  0  0  0
 25 26  1  0  0  0  0
 25 52  1  0  0  0  0
 26 27  1  0  0  0  0
 26 53  1  0  0  0  0
 26 54  1  0  0  0  0
 27 28  2  0  0  0  0
 27 29  1  0  0  0  0
 28 30  1  0  0  0  0
 28 55  1  0  0  0  0
 29 31  2  0  0  0  0
 29 56  1  0  0  0  0
 30 32  2  0  0  0  0
 30 57  1  0  0  0  0
 31 32  1  0  0  0  0
 31 58  1  0  0  0  0
 32 33  1  0  0  0  0
 33 34  1  0  0  0  0
 33 35  1  0  0  0  0
 34 36  1  0  0  0  0
 34 59  1  0  0  0  0
 34 60  1  0  0  0  0
 35 37  1  0  0  0  0
 35 61  1  0  0  0  0
 35 62  1  0  0  0  0
 36 38  1  0  0  0  0
 36 63  1  0  0  0  0
 36 64  1  0  0  0  0
 37 38  1  0  0  0  0
 37 65  1  0  0  0  0
 37 66  1  0  0  0  0
 38 39  1  0  0  0  0
 38 67  1  0  0  0  0
 39 68  1  0  0  0  0
 39 69  1  0  0  0  0
 39 70  1  0  0  0  0
M  CHG  1  38   1
M  END
>  <Molecule Name>
CTX-1020456

>  <SMILES>
CN1CCN(CC1)C1=CC=C(CNC(=O)C2=CC=C3CCN(CC3=N2)C(=O)C2=C(Cl)C3=C(S2)C=CC=C3)C=C1

>  <Batch Name>
CTX-1020456-1

>  <Batch Created Date>
2021-10-21

>  <Batch ID>
CTX-1020456-1

>  <External ID>
P841-0209

>  <Stereochemistry>
Achiral

>  <Amount 1>
4.6

>  <Unit 1>
mg

>  <CRO 1>
Pharmaron

>  <CRO 1 Total Amount>
37.7

>  <CRO 1 Unit>
mg

>  <Pharmaron Solubility (PBS, pH 7.4): Aqueous Solubility - Batch Mean (uM)>
99.823

>  <Pharmaron Solubility (PBS, pH 7.4): Aqueous Solubility - Batch Mean (uM) Standard Deviation (±)>


>  <Pharmaron Solubility (PBS, pH 7.4): Aqueous Solubility - Batch Mean (uM) Count>
1.0

>  <log P>
4.65

>  <log D>
4.02

>  <Pharmaron Caliper Assay (CDK2/CCNE1): Minimum measured (%)>
31.9

>  <Pharmaron Caliper Assay (CDK2/CCNE1): IC50 - Batch Mean (uM)>
1.1

>  <Pharmaron ADPGLO (CDK2/E1-25C): Minimum measured (%)>
79.3

>  <Pharmaron ADPGLO (CDK2/E1-25C): IC50 - Batch Mean (uM)>
0.894

>  <Pharmaron ADPGLO (CDK2/E1-37C): Minimum measured (%)>
102.0

>  <Pharmaron ADPGLO (CDK2/E1-37C): IC50 - Batch Mean (uM)>
10.0

>  <IncuCyte Kuramochi RB-WT: IC50 - Batch Mean (uM)>
5.71

>  <IncuCyte Kuramochi RB-KO: IC50 - Batch Mean (uM)>
5.16

>  <DSF (npCDK2/CCNE1): dTm D - Batch Mean [Concentration: 100]>


>  <DSF (npCDK2/CCNE1): dTm D - Batch Mean [Concentration: 20.0]>
1.2890000000000001

>  <DSF (pCDK2/CCNE1): dTm D - Batch Mean [Concentration: 100]>


>  <DSF (pCDK2/CCNE1): dTm D - Batch Mean [Concentration: 20.0]>
0.779

>  <RLM: t1/2 - Batch Mean (Min)>


>  <RLM: Cl int - Batch Mean (uL/min/mg protein)>


>  <RLM: ER (Hepatic extraction ratio) - Batch Mean>


>  <HLM: t1/2 - Batch Mean (Min)>
6.37

>  <HLM: Cl int - Batch Mean (uL/min/mg protein)>
220.87

>  <HLM: ER (Hepatic extraction ratio) - Batch Mean>
0.914

>  <MDCK-WT 4% BSA: Papp (A-B) - Batch Mean (10-6, cm/s)>


>  <MDCK-WT 4% BSA: Papp (B-A) - Batch Mean (10-6, cm/s)>


>  <MDCK-WT 4% BSA: Efflux Ratio - Batch Mean>


>  <MDCK-WT 4% BSA: ~Net A_B - Batch Mean (10-6, cm/s)>


>  <pIC50>
5.958607

>  <Selection_1>
Y

>  <Selection_N>


>  <Serie>
Naphthyridine

>  <Selection_T>
N

>  <Train_Vs_Test>


$$$$
