CTX-1020523
 OpenBabel08272613283D

 72 77  0  0  0  0  0  0  0  0999 V2000
    1.5036   -0.2735    1.0169 O   0  0  0  0  0  0  0  0  0  0  0  0
    2.2024    0.0423    0.0420 C   0  0  0  0  0  0  0  0  0  0  0  0
    2.2940   -0.7405   -1.0891 N   0  0  0  0  0  0  0  0  0  0  0  0
    2.9878    1.3391    0.0267 C   0  0  0  0  0  0  0  0  0  0  0  0
    1.5676   -1.9929   -1.2263 C   0  0  0  0  0  0  0  0  0  0  0  0
    3.9904    1.4714   -0.8856 N   0  0  0  0  0  0  0  0  0  0  0  0
    2.5994    2.2751    0.9088 N   0  0  0  0  0  0  0  0  0  0  0  0
    2.5062   -3.1315   -1.5237 C   0  0  0  0  0  0  0  0  0  0  0  0
    4.6600    2.6585   -0.8719 C   0  0  0  0  0  0  0  0  0  0  0  0
    3.2671    3.4363    0.8661 C   0  0  0  0  0  0  0  0  0  0  0  0
    3.5249   -3.4462   -0.6198 C   0  0  0  0  0  0  0  0  0  0  0  0
    2.3745   -3.9112   -2.6774 C   0  0  0  0  0  0  0  0  0  0  0  0
    4.3183    3.6860    0.0088 C   0  0  0  0  0  0  0  0  0  0  0  0
    5.8436    2.8388   -1.8261 C   0  0  0  0  0  0  0  0  0  0  0  0
    4.4171   -4.4828   -0.8930 C   0  0  0  0  0  0  0  0  0  0  0  0
    3.2695   -4.9629   -2.9388 C   0  0  0  0  0  0  0  0  0  0  0  0
    4.9826    5.0308   -0.0137 C   0  0  0  0  0  0  0  0  0  0  0  0
    6.2343    4.2422   -1.9874 N   0  0  0  0  0  0  0  0  0  0  0  0
    4.3201   -5.2499   -2.0635 C   0  0  0  0  0  0  0  0  0  0  0  0
    6.3122    5.0250   -0.7626 C   0  0  0  0  0  0  0  0  0  0  0  0
    6.7575    4.7042   -3.2030 C   0  0  0  0  0  0  0  0  0  0  0  0
    5.2611   -6.2547   -2.2739 N   0  0  0  0  0  0  0  0  0  0  0  0
    7.2934    3.9349   -3.9977 O   0  0  0  0  0  0  0  0  0  0  0  0
    6.3747    6.0783   -3.5651 C   0  0  0  0  0  0  0  0  0  0  0  0
    4.9360   -7.4216   -3.1097 C   0  0  0  0  0  0  0  0  0  0  0  0
    6.6307   -5.7592   -2.5306 C   0  0  0  0  0  0  0  0  0  0  0  0
    5.1922    6.4995   -2.9883 O   0  0  0  0  0  0  0  0  0  0  0  0
    6.5098    6.7972   -4.7552 C   0  0  0  0  0  0  0  0  0  0  0  0
    5.9679   -8.5446   -2.8229 C   0  0  0  0  0  0  0  0  0  0  0  0
    7.6429   -6.8920   -2.2493 C   0  0  0  0  0  0  0  0  0  0  0  0
    4.3947    6.8055   -4.0390 C   0  0  0  0  0  0  0  0  0  0  0  0
    5.1555    6.9043   -5.1925 C   0  0  0  0  0  0  0  0  0  0  0  0
    7.7061    7.2330   -5.5153 C   0  0  0  0  0  0  0  0  0  0  0  0
    7.3723   -8.1157   -3.0411 N   0  3  0  0  0  0  0  0  0  0  0  0
    3.0154    6.9094   -3.9749 C   0  0  0  0  0  0  0  0  0  0  0  0
    4.4884    7.0715   -6.4173 C   0  0  0  0  0  0  0  0  0  0  0  0
    8.2992   -9.1788   -2.6566 C   0  0  0  0  0  0  0  0  0  0  0  0
    2.3668    7.0112   -5.2046 C   0  0  0  0  0  0  0  0  0  0  0  0
    3.0852    7.0689   -6.4047 C   0  0  0  0  0  0  0  0  0  0  0  0
    2.8705   -0.4415   -1.8291 H   0  0  0  0  0  0  0  0  0  0  0  0
    0.8626   -1.9027   -2.0262 H   0  0  0  0  0  0  0  0  0  0  0  0
    1.0646   -2.1979   -0.3044 H   0  0  0  0  0  0  0  0  0  0  0  0
    2.9779    4.1873    1.5122 H   0  0  0  0  0  0  0  0  0  0  0  0
    3.6175   -2.9078    0.2558 H   0  0  0  0  0  0  0  0  0  0  0  0
    1.6121   -3.7121   -3.3438 H   0  0  0  0  0  0  0  0  0  0  0  0
    5.5731    2.4468   -2.7843 H   0  0  0  0  0  0  0  0  0  0  0  0
    6.6786    2.3182   -1.4057 H   0  0  0  0  0  0  0  0  0  0  0  0
    5.1681   -4.6909   -0.2165 H   0  0  0  0  0  0  0  0  0  0  0  0
    3.1487   -5.5324   -3.7909 H   0  0  0  0  0  0  0  0  0  0  0  0
    5.1605    5.3404    0.9949 H   0  0  0  0  0  0  0  0  0  0  0  0
    4.3280    5.7032   -0.5277 H   0  0  0  0  0  0  0  0  0  0  0  0
    7.0655    4.6048   -0.1295 H   0  0  0  0  0  0  0  0  0  0  0  0
    6.5526    6.0340   -1.0252 H   0  0  0  0  0  0  0  0  0  0  0  0
    4.9806   -7.1475   -4.1431 H   0  0  0  0  0  0  0  0  0  0  0  0
    3.9493   -7.7677   -2.8832 H   0  0  0  0  0  0  0  0  0  0  0  0
    6.8365   -4.9281   -1.8889 H   0  0  0  0  0  0  0  0  0  0  0  0
    6.7146   -5.4480   -3.5509 H   0  0  0  0  0  0  0  0  0  0  0  0
    5.7600   -9.3712   -3.4697 H   0  0  0  0  0  0  0  0  0  0  0  0
    5.8723   -8.8092   -1.7905 H   0  0  0  0  0  0  0  0  0  0  0  0
    7.5970   -7.1407   -1.2096 H   0  0  0  0  0  0  0  0  0  0  0  0
    8.6116   -6.5347   -2.5302 H   0  0  0  0  0  0  0  0  0  0  0  0
    8.5864    7.0297   -4.9422 H   0  0  0  0  0  0  0  0  0  0  0  0
    7.6419    8.2832   -5.7100 H   0  0  0  0  0  0  0  0  0  0  0  0
    7.7531    6.7007   -6.4423 H   0  0  0  0  0  0  0  0  0  0  0  0
    7.5082   -7.9156   -4.0321 H   0  0  0  0  0  0  0  0  0  0  0  0
    2.5032    6.9114   -3.0790 H   0  0  0  0  0  0  0  0  0  0  0  0
    5.0132    7.1923   -7.2976 H   0  0  0  0  0  0  0  0  0  0  0  0
    8.1725   -9.4042   -1.6183 H   0  0  0  0  0  0  0  0  0  0  0  0
    9.3043   -8.8562   -2.8315 H   0  0  0  0  0  0  0  0  0  0  0  0
    8.0992  -10.0541   -3.2386 H   0  0  0  0  0  0  0  0  0  0  0  0
    1.3357    7.0447   -5.2308 H   0  0  0  0  0  0  0  0  0  0  0  0
    2.5720    7.1104   -7.2991 H   0  0  0  0  0  0  0  0  0  0  0  0
  1  2  2  0  0  0  0
  2  3  1  0  0  0  0
  2  4  1  0  0  0  0
  3  5  1  0  0  0  0
  3 40  1  0  0  0  0
  4  6  2  0  0  0  0
  4  7  1  0  0  0  0
  5  8  1  0  0  0  0
  5 41  1  0  0  0  0
  5 42  1  0  0  0  0
  6  9  1  0  0  0  0
  7 10  2  0  0  0  0
  8 11  2  0  0  0  0
  8 12  1  0  0  0  0
  9 13  2  0  0  0  0
  9 14  1  0  0  0  0
 10 13  1  0  0  0  0
 10 43  1  0  0  0  0
 11 15  1  0  0  0  0
 11 44  1  0  0  0  0
 12 16  2  0  0  0  0
 12 45  1  0  0  0  0
 13 17  1  0  0  0  0
 14 18  1  0  0  0  0
 14 46  1  0  0  0  0
 14 47  1  0  0  0  0
 15 19  2  0  0  0  0
 15 48  1  0  0  0  0
 16 19  1  0  0  0  0
 16 49  1  0  0  0  0
 17 20  1  0  0  0  0
 17 50  1  0  0  0  0
 17 51  1  0  0  0  0
 18 21  1  0  0  0  0
 18 20  1  0  0  0  0
 19 22  1  0  0  0  0
 20 52  1  0  0  0  0
 20 53  1  0  0  0  0
 21 23  2  0  0  0  0
 21 24  1  0  0  0  0
 22 25  1  0  0  0  0
 22 26  1  0  0  0  0
 24 27  1  0  0  0  0
 24 28  2  0  0  0  0
 25 29  1  0  0  0  0
 25 54  1  0  0  0  0
 25 55  1  0  0  0  0
 26 30  1  0  0  0  0
 26 56  1  0  0  0  0
 26 57  1  0  0  0  0
 27 31  1  0  0  0  0
 28 32  1  0  0  0  0
 28 33  1  0  0  0  0
 29 34  1  0  0  0  0
 29 58  1  0  0  0  0
 29 59  1  0  0  0  0
 30 34  1  0  0  0  0
 30 60  1  0  0  0  0
 30 61  1  0  0  0  0
 31 35  2  0  0  0  0
 31 32  1  0  0  0  0
 32 36  2  0  0  0  0
 33 62  1  0  0  0  0
 33 63  1  0  0  0  0
 33 64  1  0  0  0  0
 34 37  1  0  0  0  0
 34 65  1  0  0  0  0
 35 38  1  0  0  0  0
 35 66  1  0  0  0  0
 36 39  1  0  0  0  0
 36 67  1  0  0  0  0
 37 68  1  0  0  0  0
 37 69  1  0  0  0  0
 37 70  1  0  0  0  0
 38 39  2  0  0  0  0
 38 71  1  0  0  0  0
 39 72  1  0  0  0  0
M  CHG  1  34   1
M  END
>  <Molecule Name>
CTX-1020523

>  <SMILES>
CN1CCN(CC1)C1=CC=C(CNC(=O)C2=NC=C3CCN(CC3=N2)C(=O)C2=C(C)C3=C(O2)C=CC=C3)C=C1

>  <Batch Name>
CTX-1020523-1

>  <Batch Created Date>
2021-11-04

>  <Batch ID>
CTX-1020523-1

>  <External ID>
610EDL081-B

>  <Stereochemistry>
Achiral

>  <Amount 1>
5.3

>  <Unit 1>
mg

>  <CRO 1>
Pharmaron

>  <CRO 1 Total Amount>
23.0

>  <CRO 1 Unit>
mg

>  <Pharmaron Solubility (PBS, pH 7.4): Aqueous Solubility - Batch Mean (uM)>
78.7748

>  <Pharmaron Solubility (PBS, pH 7.4): Aqueous Solubility - Batch Mean (uM) Standard Deviation (±)>


>  <Pharmaron Solubility (PBS, pH 7.4): Aqueous Solubility - Batch Mean (uM) Count>
1.0

>  <log P>
3.33

>  <log D>
2.69

>  <Pharmaron Caliper Assay (CDK2/CCNE1): Minimum measured (%)>
76.7

>  <Pharmaron Caliper Assay (CDK2/CCNE1): IC50 - Batch Mean (uM)>
6.52

>  <Pharmaron ADPGLO (CDK2/E1-25C): Minimum measured (%)>


>  <Pharmaron ADPGLO (CDK2/E1-25C): IC50 - Batch Mean (uM)>


>  <Pharmaron ADPGLO (CDK2/E1-37C): Minimum measured (%)>


>  <Pharmaron ADPGLO (CDK2/E1-37C): IC50 - Batch Mean (uM)>


>  <IncuCyte Kuramochi RB-WT: IC50 - Batch Mean (uM)>


>  <IncuCyte Kuramochi RB-KO: IC50 - Batch Mean (uM)>


>  <DSF (npCDK2/CCNE1): dTm D - Batch Mean [Concentration: 100]>


>  <DSF (npCDK2/CCNE1): dTm D - Batch Mean [Concentration: 20.0]>
0.765

>  <DSF (pCDK2/CCNE1): dTm D - Batch Mean [Concentration: 100]>


>  <DSF (pCDK2/CCNE1): dTm D - Batch Mean [Concentration: 20.0]>


>  <RLM: t1/2 - Batch Mean (Min)>


>  <RLM: Cl int - Batch Mean (uL/min/mg protein)>


>  <RLM: ER (Hepatic extraction ratio) - Batch Mean>


>  <HLM: t1/2 - Batch Mean (Min)>
36.62

>  <HLM: Cl int - Batch Mean (uL/min/mg protein)>
37.87

>  <HLM: ER (Hepatic extraction ratio) - Batch Mean>
0.65

>  <MDCK-WT 4% BSA: Papp (A-B) - Batch Mean (10-6, cm/s)>


>  <MDCK-WT 4% BSA: Papp (B-A) - Batch Mean (10-6, cm/s)>


>  <MDCK-WT 4% BSA: Efflux Ratio - Batch Mean>


>  <MDCK-WT 4% BSA: ~Net A_B - Batch Mean (10-6, cm/s)>


>  <pIC50>
5.185752

>  <Selection_1>
Y

>  <Selection_N>
N

>  <Serie>
Other

>  <Selection_T>
N

>  <Train_Vs_Test>


$$$$
