CTX-1020458
 OpenBabel08272613283D

 76 81  0  0  0  0  0  0  0  0999 V2000
    1.2567   -0.3694   -0.5992 O   0  0  0  0  0  0  0  0  0  0  0  0
    2.2906   -0.0104   -0.0366 C   0  0  0  0  0  0  0  0  0  0  0  0
    2.7707    1.2819   -0.1024 N   0  0  0  0  0  0  0  0  0  0  0  0
    3.1012   -0.9879    0.7664 C   0  0  0  0  0  0  0  0  0  0  0  0
    2.0938    2.3094   -0.8612 C   0  0  0  0  0  0  0  0  0  0  0  0
    4.2143   -0.5305    1.4139 N   0  0  0  0  0  0  0  0  0  0  0  0
    2.6724   -2.3070    0.8024 C   0  0  0  0  0  0  0  0  0  0  0  0
    2.9573    2.8714   -1.9576 C   0  0  0  0  0  0  0  0  0  0  0  0
    4.9247   -1.4436    2.1471 C   0  0  0  0  0  0  0  0  0  0  0  0
    3.4246   -3.2313    1.5121 C   0  0  0  0  0  0  0  0  0  0  0  0
    3.4595    2.0373   -2.9588 C   0  0  0  0  0  0  0  0  0  0  0  0
    3.2375    4.2409   -2.0312 C   0  0  0  0  0  0  0  0  0  0  0  0
    4.5799   -2.8066    2.1875 C   0  0  0  0  0  0  0  0  0  0  0  0
    6.1301   -0.9380    2.9401 C   0  0  0  0  0  0  0  0  0  0  0  0
    4.2674    2.5554   -3.9753 C   0  0  0  0  0  0  0  0  0  0  0  0
    4.0392    4.7534   -3.0620 C   0  0  0  0  0  0  0  0  0  0  0  0
    5.3654   -3.8019    2.9974 C   0  0  0  0  0  0  0  0  0  0  0  0
    6.6071   -1.8947    3.9453 N   0  0  0  0  0  0  0  0  0  0  0  0
    4.5889    3.9202   -4.0405 C   0  0  0  0  0  0  0  0  0  0  0  0
    6.7097   -3.2684    3.4844 C   0  0  0  0  0  0  0  0  0  0  0  0
    7.2184   -1.4377    5.1224 C   0  0  0  0  0  0  0  0  0  0  0  0
    5.3586    4.3823   -5.0918 N   0  0  0  0  0  0  0  0  0  0  0  0
    7.6101   -0.2749    5.2198 O   0  0  0  0  0  0  0  0  0  0  0  0
    7.1541   -2.3468    6.3037 C   0  0  0  0  0  0  0  0  0  0  0  0
    5.2452    5.7646   -5.5676 C   0  0  0  0  0  0  0  0  0  0  0  0
    6.7072    3.8157   -5.2781 C   0  0  0  0  0  0  0  0  0  0  0  0
    6.0248   -3.1691    6.2734 O   0  0  0  0  0  0  0  0  0  0  0  0
    7.2564   -2.0077    7.6666 C   0  0  0  0  0  0  0  0  0  0  0  0
    5.6189    5.7973   -7.0682 C   0  0  0  0  0  0  0  0  0  0  0  0
    7.0823    3.8886   -6.7783 C   0  0  0  0  0  0  0  0  0  0  0  0
    5.1773   -2.5286    7.1296 C   0  0  0  0  0  0  0  0  0  0  0  0
    5.9057   -1.7197    7.9856 C   0  0  0  0  0  0  0  0  0  0  0  0
    8.4136   -1.9214    8.5801 C   0  0  0  0  0  0  0  0  0  0  0  0
    6.9752    5.2597   -7.3362 N   0  3  0  0  0  0  0  0  0  0  0  0
    3.7947   -2.6245    7.0924 C   0  0  0  0  0  0  0  0  0  0  0  0
    5.2166   -0.9174    8.9039 C   0  0  0  0  0  0  0  0  0  0  0  0
    7.2368    5.2483   -8.7738 C   0  0  0  0  0  0  0  0  0  0  0  0
    3.1197   -1.7263    7.9220 C   0  0  0  0  0  0  0  0  0  0  0  0
    3.8145   -0.8884    8.8065 C   0  0  0  0  0  0  0  0  0  0  0  0
    1.6274   -1.6006    7.8110 C   0  0  0  0  0  0  0  0  0  0  0  0
    3.5975    1.5104    0.3809 H   0  0  0  0  0  0  0  0  0  0  0  0
    1.8200    3.1031   -0.1978 H   0  0  0  0  0  0  0  0  0  0  0  0
    1.2329    1.8666   -1.3168 H   0  0  0  0  0  0  0  0  0  0  0  0
    1.8115   -2.5944    0.3112 H   0  0  0  0  0  0  0  0  0  0  0  0
    3.1376   -4.2221    1.5434 H   0  0  0  0  0  0  0  0  0  0  0  0
    3.2324    1.0306   -2.9482 H   0  0  0  0  0  0  0  0  0  0  0  0
    2.8502    4.8802   -1.3196 H   0  0  0  0  0  0  0  0  0  0  0  0
    5.8533   -0.0322    3.4379 H   0  0  0  0  0  0  0  0  0  0  0  0
    6.9274   -0.7877    2.2426 H   0  0  0  0  0  0  0  0  0  0  0  0
    4.6374    1.9174   -4.6971 H   0  0  0  0  0  0  0  0  0  0  0  0
    4.2273    5.7675   -3.0987 H   0  0  0  0  0  0  0  0  0  0  0  0
    5.5437   -4.6656    2.3914 H   0  0  0  0  0  0  0  0  0  0  0  0
    4.7840   -4.0278    3.8667 H   0  0  0  0  0  0  0  0  0  0  0  0
    7.4127   -3.3123    2.6789 H   0  0  0  0  0  0  0  0  0  0  0  0
    7.0307   -3.8732    4.3066 H   0  0  0  0  0  0  0  0  0  0  0  0
    5.9127    6.3927   -5.0153 H   0  0  0  0  0  0  0  0  0  0  0  0
    4.2452    6.1196   -5.4302 H   0  0  0  0  0  0  0  0  0  0  0  0
    6.7152    2.7955   -4.9555 H   0  0  0  0  0  0  0  0  0  0  0  0
    7.4158    4.3723   -4.7011 H   0  0  0  0  0  0  0  0  0  0  0  0
    5.5802    6.8113   -7.4079 H   0  0  0  0  0  0  0  0  0  0  0  0
    4.9187    5.1769   -7.5875 H   0  0  0  0  0  0  0  0  0  0  0  0
    6.4254    3.2453   -7.3258 H   0  0  0  0  0  0  0  0  0  0  0  0
    8.1044    3.5851   -6.8681 H   0  0  0  0  0  0  0  0  0  0  0  0
    9.3037   -2.1995    8.0554 H   0  0  0  0  0  0  0  0  0  0  0  0
    8.2654   -2.5840    9.4070 H   0  0  0  0  0  0  0  0  0  0  0  0
    8.5102   -0.9183    8.9396 H   0  0  0  0  0  0  0  0  0  0  0  0
    7.6705    5.8565   -6.8882 H   0  0  0  0  0  0  0  0  0  0  0  0
    3.3016   -3.3080    6.4968 H   0  0  0  0  0  0  0  0  0  0  0  0
    5.7171   -0.3706    9.6219 H   0  0  0  0  0  0  0  0  0  0  0  0
    6.5163    4.6262   -9.2625 H   0  0  0  0  0  0  0  0  0  0  0  0
    8.2195    4.8655   -8.9544 H   0  0  0  0  0  0  0  0  0  0  0  0
    7.1662    6.2448   -9.1571 H   0  0  0  0  0  0  0  0  0  0  0  0
    3.2827   -0.2336    9.4010 H   0  0  0  0  0  0  0  0  0  0  0  0
    1.2619   -2.3090    7.0971 H   0  0  0  0  0  0  0  0  0  0  0  0
    1.3755   -0.6107    7.4923 H   0  0  0  0  0  0  0  0  0  0  0  0
    1.1814   -1.7926    8.7645 H   0  0  0  0  0  0  0  0  0  0  0  0
  1  2  2  0  0  0  0
  2  3  1  0  0  0  0
  2  4  1  0  0  0  0
  3  5  1  0  0  0  0
  3 41  1  0  0  0  0
  4  6  2  0  0  0  0
  4  7  1  0  0  0  0
  5  8  1  0  0  0  0
  5 42  1  0  0  0  0
  5 43  1  0  0  0  0
  6  9  1  0  0  0  0
  7 10  2  0  0  0  0
  7 44  1  0  0  0  0
  8 11  2  0  0  0  0
  8 12  1  0  0  0  0
  9 13  2  0  0  0  0
  9 14  1  0  0  0  0
 10 13  1  0  0  0  0
 10 45  1  0  0  0  0
 11 15  1  0  0  0  0
 11 46  1  0  0  0  0
 12 16  2  0  0  0  0
 12 47  1  0  0  0  0
 13 17  1  0  0  0  0
 14 18  1  0  0  0  0
 14 48  1  0  0  0  0
 14 49  1  0  0  0  0
 15 19  2  0  0  0  0
 15 50  1  0  0  0  0
 16 19  1  0  0  0  0
 16 51  1  0  0  0  0
 17 20  1  0  0  0  0
 17 52  1  0  0  0  0
 17 53  1  0  0  0  0
 18 21  1  0  0  0  0
 18 20  1  0  0  0  0
 19 22  1  0  0  0  0
 20 54  1  0  0  0  0
 20 55  1  0  0  0  0
 21 23  2  0  0  0  0
 21 24  1  0  0  0  0
 22 25  1  0  0  0  0
 22 26  1  0  0  0  0
 24 27  1  0  0  0  0
 24 28  2  0  0  0  0
 25 29  1  0  0  0  0
 25 56  1  0  0  0  0
 25 57  1  0  0  0  0
 26 30  1  0  0  0  0
 26 58  1  0  0  0  0
 26 59  1  0  0  0  0
 27 31  1  0  0  0  0
 28 32  1  0  0  0  0
 28 33  1  0  0  0  0
 29 34  1  0  0  0  0
 29 60  1  0  0  0  0
 29 61  1  0  0  0  0
 30 34  1  0  0  0  0
 30 62  1  0  0  0  0
 30 63  1  0  0  0  0
 31 35  2  0  0  0  0
 31 32  1  0  0  0  0
 32 36  2  0  0  0  0
 33 64  1  0  0  0  0
 33 65  1  0  0  0  0
 33 66  1  0  0  0  0
 34 37  1  0  0  0  0
 34 67  1  0  0  0  0
 35 38  1  0  0  0  0
 35 68  1  0  0  0  0
 36 39  1  0  0  0  0
 36 69  1  0  0  0  0
 37 70  1  0  0  0  0
 37 71  1  0  0  0  0
 37 72  1  0  0  0  0
 38 40  1  0  0  0  0
 38 39  2  0  0  0  0
 39 73  1  0  0  0  0
 40 74  1  0  0  0  0
 40 75  1  0  0  0  0
 40 76  1  0  0  0  0
M  CHG  1  34   1
M  END
>  <Molecule Name>
CTX-1020458

>  <SMILES>
CN1CCN(CC1)C1=CC=C(CNC(=O)C2=NC3=C(CCN(C3)C(=O)C3=C(C)C4=C(O3)C=C(C)C=C4)C=C2)C=C1

>  <Batch Name>
CTX-1020458-1

>  <Batch Created Date>
2021-10-21

>  <Batch ID>
CTX-1020458-1

>  <External ID>
P841-0212

>  <Stereochemistry>
Achiral

>  <Amount 1>
4.6

>  <Unit 1>
mg

>  <CRO 1>
Pharmaron

>  <CRO 1 Total Amount>
28.0

>  <CRO 1 Unit>
mg

>  <Pharmaron Solubility (PBS, pH 7.4): Aqueous Solubility - Batch Mean (uM)>
2.0444

>  <Pharmaron Solubility (PBS, pH 7.4): Aqueous Solubility - Batch Mean (uM) Standard Deviation (±)>


>  <Pharmaron Solubility (PBS, pH 7.4): Aqueous Solubility - Batch Mean (uM) Count>
1.0

>  <log P>
4.15

>  <log D>
3.51

>  <Pharmaron Caliper Assay (CDK2/CCNE1): Minimum measured (%)>
64.0

>  <Pharmaron Caliper Assay (CDK2/CCNE1): IC50 - Batch Mean (uM)>
4.75

>  <Pharmaron ADPGLO (CDK2/E1-25C): Minimum measured (%)>


>  <Pharmaron ADPGLO (CDK2/E1-25C): IC50 - Batch Mean (uM)>


>  <Pharmaron ADPGLO (CDK2/E1-37C): Minimum measured (%)>


>  <Pharmaron ADPGLO (CDK2/E1-37C): IC50 - Batch Mean (uM)>


>  <IncuCyte Kuramochi RB-WT: IC50 - Batch Mean (uM)>
3.67

>  <IncuCyte Kuramochi RB-KO: IC50 - Batch Mean (uM)>
3.67

>  <DSF (npCDK2/CCNE1): dTm D - Batch Mean [Concentration: 100]>


>  <DSF (npCDK2/CCNE1): dTm D - Batch Mean [Concentration: 20.0]>
0.624

>  <DSF (pCDK2/CCNE1): dTm D - Batch Mean [Concentration: 100]>


>  <DSF (pCDK2/CCNE1): dTm D - Batch Mean [Concentration: 20.0]>


>  <RLM: t1/2 - Batch Mean (Min)>


>  <RLM: Cl int - Batch Mean (uL/min/mg protein)>


>  <RLM: ER (Hepatic extraction ratio) - Batch Mean>


>  <HLM: t1/2 - Batch Mean (Min)>


>  <HLM: Cl int - Batch Mean (uL/min/mg protein)>


>  <HLM: ER (Hepatic extraction ratio) - Batch Mean>


>  <MDCK-WT 4% BSA: Papp (A-B) - Batch Mean (10-6, cm/s)>


>  <MDCK-WT 4% BSA: Papp (B-A) - Batch Mean (10-6, cm/s)>


>  <MDCK-WT 4% BSA: Efflux Ratio - Batch Mean>


>  <MDCK-WT 4% BSA: ~Net A_B - Batch Mean (10-6, cm/s)>


>  <pIC50>
5.323306

>  <Selection_1>
Y

>  <Selection_N>


>  <Serie>
Naphthyridine

>  <Selection_T>
N

>  <Train_Vs_Test>


$$$$
