CTX-1020516
 OpenBabel08272613283D

 53 57  0  0  0  0  0  0  0  0999 V2000
    1.7718   -0.7026   -0.0334 S   0  0  0  0  0  0  0  0  0  0  0  0
    2.0967    0.9776    0.0546 C   0  0  0  0  0  0  0  0  0  0  0  0
    0.0873   -0.4500   -0.0339 C   0  0  0  0  0  0  0  0  0  0  0  0
    3.4524    1.5289    0.0776 C   0  0  0  0  0  0  0  0  0  0  0  0
    0.9141    1.7017    0.0998 C   0  0  0  0  0  0  0  0  0  0  0  0
   -0.2663    0.8835    0.0482 C   0  0  0  0  0  0  0  0  0  0  0  0
   -0.8975   -1.5701   -0.1630 C   0  0  0  0  0  0  0  0  0  0  0  0
    3.6644    2.7348    0.1654 O   0  0  0  0  0  0  0  0  0  0  0  0
    4.4965    0.6317   -0.0034 N   0  0  0  0  0  0  0  0  0  0  0  0
   -1.7026    1.3594    0.0673 C   0  0  0  0  0  0  0  0  0  0  0  0
   -2.3113   -1.0666    0.1732 C   0  0  0  0  0  0  0  0  0  0  0  0
    5.8931    1.0374    0.0483 C   0  0  0  0  0  0  0  0  0  0  0  0
   -2.5869    0.2731   -0.3600 N   0  0  0  0  0  0  0  0  0  0  0  0
    6.6493    0.6554   -1.1952 C   0  0  0  0  0  0  0  0  0  0  0  0
   -3.7895    0.5803   -1.0084 C   0  0  0  0  0  0  0  0  0  0  0  0
    6.2422    1.1213   -2.4551 C   0  0  0  0  0  0  0  0  0  0  0  0
    7.8206   -0.1131   -1.1107 C   0  0  0  0  0  0  0  0  0  0  0  0
   -4.3371    1.6714   -0.8589 O   0  0  0  0  0  0  0  0  0  0  0  0
   -4.1772   -0.3609   -2.0765 C   0  0  0  0  0  0  0  0  0  0  0  0
    6.9814    0.8174   -3.6011 C   0  0  0  0  0  0  0  0  0  0  0  0
    8.5609   -0.4133   -2.2572 C   0  0  0  0  0  0  0  0  0  0  0  0
   -3.1113   -1.0643   -2.6060 O   0  0  0  0  0  0  0  0  0  0  0  0
   -5.0816   -0.1873   -3.1307 C   0  0  0  0  0  0  0  0  0  0  0  0
    8.1412    0.0515   -3.5020 C   0  0  0  0  0  0  0  0  0  0  0  0
   -2.9987   -0.5653   -3.8645 C   0  0  0  0  0  0  0  0  0  0  0  0
   -4.1936    0.0436   -4.2264 C   0  0  0  0  0  0  0  0  0  0  0  0
   -6.5504    0.0033   -3.1100 C   0  0  0  0  0  0  0  0  0  0  0  0
   -1.8337   -0.5758   -4.6081 C   0  0  0  0  0  0  0  0  0  0  0  0
   -4.2376    0.7250   -5.4539 C   0  0  0  0  0  0  0  0  0  0  0  0
   -1.8676    0.1939   -5.7704 C   0  0  0  0  0  0  0  0  0  0  0  0
   -3.0419    0.8371   -6.1830 C   0  0  0  0  0  0  0  0  0  0  0  0
    0.8848    2.7313    0.1643 H   0  0  0  0  0  0  0  0  0  0  0  0
   -0.6310   -2.3561    0.5123 H   0  0  0  0  0  0  0  0  0  0  0  0
   -0.8842   -1.9363   -1.1683 H   0  0  0  0  0  0  0  0  0  0  0  0
    4.2879   -0.3255   -0.1006 H   0  0  0  0  0  0  0  0  0  0  0  0
   -1.8114    2.1897   -0.5988 H   0  0  0  0  0  0  0  0  0  0  0  0
   -1.9638    1.6597    1.0605 H   0  0  0  0  0  0  0  0  0  0  0  0
   -2.4187   -1.0384    1.2375 H   0  0  0  0  0  0  0  0  0  0  0  0
   -3.0068   -1.7406   -0.2817 H   0  0  0  0  0  0  0  0  0  0  0  0
    6.3564    0.5668    0.8901 H   0  0  0  0  0  0  0  0  0  0  0  0
    5.9195    2.1039    0.1307 H   0  0  0  0  0  0  0  0  0  0  0  0
    5.3878    1.6944   -2.5358 H   0  0  0  0  0  0  0  0  0  0  0  0
    8.1384   -0.4602   -0.1922 H   0  0  0  0  0  0  0  0  0  0  0  0
    6.6679    1.1606   -4.5224 H   0  0  0  0  0  0  0  0  0  0  0  0
    9.4200   -0.9801   -2.1820 H   0  0  0  0  0  0  0  0  0  0  0  0
    8.6880   -0.1709   -4.3484 H   0  0  0  0  0  0  0  0  0  0  0  0
   -6.9299   -0.2546   -2.1434 H   0  0  0  0  0  0  0  0  0  0  0  0
   -7.0019   -0.6244   -3.8496 H   0  0  0  0  0  0  0  0  0  0  0  0
   -6.7803    1.0265   -3.3221 H   0  0  0  0  0  0  0  0  0  0  0  0
   -1.0000   -1.1137   -4.3241 H   0  0  0  0  0  0  0  0  0  0  0  0
   -5.1184    1.1296   -5.8082 H   0  0  0  0  0  0  0  0  0  0  0  0
   -1.0110    0.2918   -6.3376 H   0  0  0  0  0  0  0  0  0  0  0  0
   -3.0282    1.4069   -7.0433 H   0  0  0  0  0  0  0  0  0  0  0  0
  1  2  1  0  0  0  0
  1  3  1  0  0  0  0
  2  4  1  0  0  0  0
  2  5  2  0  0  0  0
  3  6  2  0  0  0  0
  3  7  1  0  0  0  0
  4  8  2  0  0  0  0
  4  9  1  0  0  0  0
  5  6  1  0  0  0  0
  5 32  1  0  0  0  0
  6 10  1  0  0  0  0
  7 11  1  0  0  0  0
  7 33  1  0  0  0  0
  7 34  1  0  0  0  0
  9 12  1  0  0  0  0
  9 35  1  0  0  0  0
 10 13  1  0  0  0  0
 10 36  1  0  0  0  0
 10 37  1  0  0  0  0
 11 13  1  0  0  0  0
 11 38  1  0  0  0  0
 11 39  1  0  0  0  0
 12 14  1  0  0  0  0
 12 40  1  0  0  0  0
 12 41  1  0  0  0  0
 13 15  1  0  0  0  0
 14 16  2  0  0  0  0
 14 17  1  0  0  0  0
 15 18  2  0  0  0  0
 15 19  1  0  0  0  0
 16 20  1  0  0  0  0
 16 42  1  0  0  0  0
 17 21  2  0  0  0  0
 17 43  1  0  0  0  0
 19 22  1  0  0  0  0
 19 23  2  0  0  0  0
 20 24  2  0  0  0  0
 20 44  1  0  0  0  0
 21 24  1  0  0  0  0
 21 45  1  0  0  0  0
 22 25  1  0  0  0  0
 23 26  1  0  0  0  0
 23 27  1  0  0  0  0
 24 46  1  0  0  0  0
 25 28  2  0  0  0  0
 25 26  1  0  0  0  0
 26 29  2  0  0  0  0
 27 47  1  0  0  0  0
 27 48  1  0  0  0  0
 27 49  1  0  0  0  0
 28 30  1  0  0  0  0
 28 50  1  0  0  0  0
 29 31  1  0  0  0  0
 29 51  1  0  0  0  0
 30 31  2  0  0  0  0
 30 52  1  0  0  0  0
 31 53  1  0  0  0  0
M  END
>  <Molecule Name>
CTX-1020516

>  <SMILES>
CC1=C(OC2=C1C=CC=C2)C(=O)N1CCC2=C(C1)C=C(S2)C(=O)NCC1=CC=CC=C1

>  <Batch Name>
CTX-1020516-1

>  <Batch Created Date>
2021-11-04

>  <Batch ID>
CTX-1020516-1

>  <External ID>
610EDL073-C

>  <Stereochemistry>
Achiral

>  <Amount 1>
6.65

>  <Unit 1>
mg

>  <CRO 1>
Pharmaron

>  <CRO 1 Total Amount>
6.4

>  <CRO 1 Unit>
mg

>  <Pharmaron Solubility (PBS, pH 7.4): Aqueous Solubility - Batch Mean (uM)>
0.0048

>  <Pharmaron Solubility (PBS, pH 7.4): Aqueous Solubility - Batch Mean (uM) Standard Deviation (±)>


>  <Pharmaron Solubility (PBS, pH 7.4): Aqueous Solubility - Batch Mean (uM) Count>
1.0

>  <log P>
4.47

>  <log D>
4.47

>  <Pharmaron Caliper Assay (CDK2/CCNE1): Minimum measured (%)>
52.0

>  <Pharmaron Caliper Assay (CDK2/CCNE1): IC50 - Batch Mean (uM)>
0.75

>  <Pharmaron ADPGLO (CDK2/E1-25C): Minimum measured (%)>


>  <Pharmaron ADPGLO (CDK2/E1-25C): IC50 - Batch Mean (uM)>


>  <Pharmaron ADPGLO (CDK2/E1-37C): Minimum measured (%)>


>  <Pharmaron ADPGLO (CDK2/E1-37C): IC50 - Batch Mean (uM)>


>  <IncuCyte Kuramochi RB-WT: IC50 - Batch Mean (uM)>
20.0

>  <IncuCyte Kuramochi RB-KO: IC50 - Batch Mean (uM)>
20.0

>  <DSF (npCDK2/CCNE1): dTm D - Batch Mean [Concentration: 100]>


>  <DSF (npCDK2/CCNE1): dTm D - Batch Mean [Concentration: 20.0]>
2.501

>  <DSF (pCDK2/CCNE1): dTm D - Batch Mean [Concentration: 100]>


>  <DSF (pCDK2/CCNE1): dTm D - Batch Mean [Concentration: 20.0]>
1.147

>  <RLM: t1/2 - Batch Mean (Min)>


>  <RLM: Cl int - Batch Mean (uL/min/mg protein)>


>  <RLM: ER (Hepatic extraction ratio) - Batch Mean>


>  <HLM: t1/2 - Batch Mean (Min)>


>  <HLM: Cl int - Batch Mean (uL/min/mg protein)>


>  <HLM: ER (Hepatic extraction ratio) - Batch Mean>


>  <MDCK-WT 4% BSA: Papp (A-B) - Batch Mean (10-6, cm/s)>


>  <MDCK-WT 4% BSA: Papp (B-A) - Batch Mean (10-6, cm/s)>


>  <MDCK-WT 4% BSA: Efflux Ratio - Batch Mean>


>  <MDCK-WT 4% BSA: ~Net A_B - Batch Mean (10-6, cm/s)>


>  <pIC50>
6.124939

>  <Selection_1>
Y

>  <Selection_N>
N

>  <Serie>
Tetrahydrothienopyridine

>  <Selection_T>


>  <Train_Vs_Test>


$$$$
