CTX-1020842
 OpenBabel08272613283D

 72 77  0  0  0  0  0  0  0  0999 V2000
    1.6990   -0.8301    0.0706 S   0  0  0  0  0  0  0  0  0  0  0  0
    1.9382    0.8726    0.0873 C   0  0  0  0  0  0  0  0  0  0  0  0
    0.0034   -0.6648   -0.0028 C   0  0  0  0  0  0  0  0  0  0  0  0
    3.2758    1.4821    0.0994 C   0  0  0  0  0  0  0  0  0  0  0  0
    0.7128    1.5344    0.0601 C   0  0  0  0  0  0  0  0  0  0  0  0
   -0.4171    0.6454   -0.0100 C   0  0  0  0  0  0  0  0  0  0  0  0
   -0.9238   -1.8408   -0.1007 C   0  0  0  0  0  0  0  0  0  0  0  0
    3.4320    2.7066    0.0596 O   0  0  0  0  0  0  0  0  0  0  0  0
    4.3624    0.6258    0.1334 N   0  0  0  0  0  0  0  0  0  0  0  0
   -1.8832    1.0158   -0.0848 C   0  0  0  0  0  0  0  0  0  0  0  0
   -2.3625   -1.4138    0.2497 C   0  0  0  0  0  0  0  0  0  0  0  0
    5.7311    1.0801    0.0247 C   0  0  0  0  0  0  0  0  0  0  0  0
   -2.7217   -0.1728   -0.4295 N   0  0  0  0  0  0  0  0  0  0  0  0
    6.4219    1.1696    1.3611 C   0  0  0  0  0  0  0  0  0  0  0  0
   -3.9722    0.0760   -1.0187 C   0  0  0  0  0  0  0  0  0  0  0  0
    7.0762    0.0605    1.9023 C   0  0  0  0  0  0  0  0  0  0  0  0
    6.4335    2.3656    2.0939 C   0  0  0  0  0  0  0  0  0  0  0  0
   -4.2467    1.2641   -1.2455 O   0  0  0  0  0  0  0  0  0  0  0  0
   -5.0173   -0.9538   -1.2733 C   0  0  0  0  0  0  0  0  0  0  0  0
    7.6985    0.1479    3.1509 C   0  0  0  0  0  0  0  0  0  0  0  0
    7.0729    2.4468    3.3438 C   0  0  0  0  0  0  0  0  0  0  0  0
   -4.8390   -2.2191   -1.9332 O   0  0  0  0  0  0  0  0  0  0  0  0
   -6.3809   -0.7204   -1.1984 C   0  0  0  0  0  0  0  0  0  0  0  0
    7.6968    1.3316    3.9087 C   0  0  0  0  0  0  0  0  0  0  0  0
   -6.1064   -2.6311   -2.4357 C   0  0  0  0  0  0  0  0  0  0  0  0
   -7.0657    0.3649   -0.7461 O   0  0  0  0  0  0  0  0  0  0  0  0
   -6.9968   -1.6630   -2.0358 C   0  0  0  0  0  0  0  0  0  0  0  0
    8.3211    1.3198    5.1511 N   0  0  0  0  0  0  0  0  0  0  0  0
   -6.6348   -3.7344   -3.1990 C   0  0  0  0  0  0  0  0  0  0  0  0
   -6.7146    0.8422    0.5439 C   0  0  0  0  0  0  0  0  0  0  0  0
   -8.2852   -1.7477   -2.5183 C   0  0  0  0  0  0  0  0  0  0  0  0
    8.8204    2.5584    5.7773 C   0  0  0  0  0  0  0  0  0  0  0  0
    7.6925    0.4213    6.1430 C   0  0  0  0  0  0  0  0  0  0  0  0
   -7.9483   -3.6749   -3.7346 C   0  0  0  0  0  0  0  0  0  0  0  0
   -8.7310   -2.6047   -3.4722 C   0  0  0  0  0  0  0  0  0  0  0  0
    9.8377    2.1843    6.9017 C   0  0  0  0  0  0  0  0  0  0  0  0
    8.7256    0.0750    7.2341 C   0  0  0  0  0  0  0  0  0  0  0  0
    9.2757    1.2805    7.8910 N   0  3  0  0  0  0  0  0  0  0  0  0
   10.2696    0.8959    8.8870 C   0  0  0  0  0  0  0  0  0  0  0  0
    0.6236    2.5622    0.0876 H   0  0  0  0  0  0  0  0  0  0  0  0
   -0.6044   -2.6006    0.5817 H   0  0  0  0  0  0  0  0  0  0  0  0
   -0.9052   -2.2181   -1.1018 H   0  0  0  0  0  0  0  0  0  0  0  0
    4.1957   -0.3390    0.2366 H   0  0  0  0  0  0  0  0  0  0  0  0
   -2.0161    1.7667   -0.8354 H   0  0  0  0  0  0  0  0  0  0  0  0
   -2.1903    1.3822    0.8724 H   0  0  0  0  0  0  0  0  0  0  0  0
   -2.4360   -1.2675    1.3071 H   0  0  0  0  0  0  0  0  0  0  0  0
   -3.0333   -2.1833   -0.0707 H   0  0  0  0  0  0  0  0  0  0  0  0
    5.7351    2.0495   -0.4284 H   0  0  0  0  0  0  0  0  0  0  0  0
    6.2631    0.3647   -0.5670 H   0  0  0  0  0  0  0  0  0  0  0  0
    7.1004   -0.8278    1.3776 H   0  0  0  0  0  0  0  0  0  0  0  0
    5.9646    3.2005    1.7091 H   0  0  0  0  0  0  0  0  0  0  0  0
    8.1755   -0.6853    3.5293 H   0  0  0  0  0  0  0  0  0  0  0  0
    7.0815    3.3449    3.8521 H   0  0  0  0  0  0  0  0  0  0  0  0
   -6.0543   -4.5729   -3.3570 H   0  0  0  0  0  0  0  0  0  0  0  0
   -7.3178    1.6921    0.7860 H   0  0  0  0  0  0  0  0  0  0  0  0
   -5.6823    1.1237    0.5513 H   0  0  0  0  0  0  0  0  0  0  0  0
   -6.8791    0.0705    1.2666 H   0  0  0  0  0  0  0  0  0  0  0  0
   -8.9777   -1.0971   -2.1156 H   0  0  0  0  0  0  0  0  0  0  0  0
    8.0016    3.1019    6.2004 H   0  0  0  0  0  0  0  0  0  0  0  0
    9.3025    3.1671    5.0411 H   0  0  0  0  0  0  0  0  0  0  0  0
    7.3678   -0.4760    5.6589 H   0  0  0  0  0  0  0  0  0  0  0  0
    6.8484    0.9071    6.5862 H   0  0  0  0  0  0  0  0  0  0  0  0
   -8.3039   -4.4455   -4.3217 H   0  0  0  0  0  0  0  0  0  0  0  0
   -9.6208   -2.4472   -3.9707 H   0  0  0  0  0  0  0  0  0  0  0  0
   10.1471    3.0819    7.3952 H   0  0  0  0  0  0  0  0  0  0  0  0
   10.6610    1.6826    6.4377 H   0  0  0  0  0  0  0  0  0  0  0  0
    9.5300   -0.4695    6.7855 H   0  0  0  0  0  0  0  0  0  0  0  0
    8.2284   -0.5066    7.9821 H   0  0  0  0  0  0  0  0  0  0  0  0
    8.5225    1.7747    8.3694 H   0  0  0  0  0  0  0  0  0  0  0  0
   11.0717    0.3746    8.4076 H   0  0  0  0  0  0  0  0  0  0  0  0
    9.8154    0.2583    9.6164 H   0  0  0  0  0  0  0  0  0  0  0  0
   10.6509    1.7726    9.3675 H   0  0  0  0  0  0  0  0  0  0  0  0
  1  2  1  0  0  0  0
  1  3  1  0  0  0  0
  2  4  1  0  0  0  0
  2  5  2  0  0  0  0
  3  6  2  0  0  0  0
  3  7  1  0  0  0  0
  4  8  2  0  0  0  0
  4  9  1  0  0  0  0
  5  6  1  0  0  0  0
  5 40  1  0  0  0  0
  6 10  1  0  0  0  0
  7 11  1  0  0  0  0
  7 41  1  0  0  0  0
  7 42  1  0  0  0  0
  9 12  1  0  0  0  0
  9 43  1  0  0  0  0
 10 13  1  0  0  0  0
 10 44  1  0  0  0  0
 10 45  1  0  0  0  0
 11 13  1  0  0  0  0
 11 46  1  0  0  0  0
 11 47  1  0  0  0  0
 12 14  1  0  0  0  0
 12 48  1  0  0  0  0
 12 49  1  0  0  0  0
 13 15  1  0  0  0  0
 14 16  2  0  0  0  0
 14 17  1  0  0  0  0
 15 18  2  0  0  0  0
 15 19  1  0  0  0  0
 16 20  1  0  0  0  0
 16 50  1  0  0  0  0
 17 21  2  0  0  0  0
 17 51  1  0  0  0  0
 19 22  1  0  0  0  0
 19 23  2  0  0  0  0
 20 24  2  0  0  0  0
 20 52  1  0  0  0  0
 21 24  1  0  0  0  0
 21 53  1  0  0  0  0
 22 25  1  0  0  0  0
 23 26  1  0  0  0  0
 23 27  1  0  0  0  0
 24 28  1  0  0  0  0
 25 29  2  0  0  0  0
 25 27  1  0  0  0  0
 26 30  1  0  0  0  0
 27 31  2  0  0  0  0
 28 32  1  0  0  0  0
 28 33  1  0  0  0  0
 29 34  1  0  0  0  0
 29 54  1  0  0  0  0
 30 55  1  0  0  0  0
 30 56  1  0  0  0  0
 30 57  1  0  0  0  0
 31 35  1  0  0  0  0
 31 58  1  0  0  0  0
 32 36  1  0  0  0  0
 32 59  1  0  0  0  0
 32 60  1  0  0  0  0
 33 37  1  0  0  0  0
 33 61  1  0  0  0  0
 33 62  1  0  0  0  0
 34 35  2  0  0  0  0
 34 63  1  0  0  0  0
 35 64  1  0  0  0  0
 36 38  1  0  0  0  0
 36 65  1  0  0  0  0
 36 66  1  0  0  0  0
 37 38  1  0  0  0  0
 37 67  1  0  0  0  0
 37 68  1  0  0  0  0
 38 39  1  0  0  0  0
 38 69  1  0  0  0  0
 39 70  1  0  0  0  0
 39 71  1  0  0  0  0
 39 72  1  0  0  0  0
M  CHG  1  38   1
M  END
>  <Molecule Name>
CTX-1020842

>  <SMILES>
COC1=C(OC2=CC=CC=C12)C(=O)N1CCC2=C(C1)C=C(S2)C(=O)NCC1=CC=C(C=C1)N1CCN(C)CC1

>  <Batch Name>
CTX-1020842-1

>  <Batch Created Date>
2022-01-06

>  <Batch ID>
CTX-1020842-1

>  <External ID>
CD-44-2-B

>  <Stereochemistry>
Achiral

>  <Amount 1>
1.3

>  <Unit 1>
mg

>  <CRO 1>
Pharmaron

>  <CRO 1 Total Amount>
9.7

>  <CRO 1 Unit>
mg

>  <Pharmaron Solubility (PBS, pH 7.4): Aqueous Solubility - Batch Mean (uM)>
16.61

>  <Pharmaron Solubility (PBS, pH 7.4): Aqueous Solubility - Batch Mean (uM) Standard Deviation (±)>


>  <Pharmaron Solubility (PBS, pH 7.4): Aqueous Solubility - Batch Mean (uM) Count>
1.0

>  <log P>
3.76

>  <log D>
3.12

>  <Pharmaron Caliper Assay (CDK2/CCNE1): Minimum measured (%)>
38.4

>  <Pharmaron Caliper Assay (CDK2/CCNE1): IC50 - Batch Mean (uM)>
6.02

>  <Pharmaron ADPGLO (CDK2/E1-25C): Minimum measured (%)>
33.3

>  <Pharmaron ADPGLO (CDK2/E1-25C): IC50 - Batch Mean (uM)>
30.9

>  <Pharmaron ADPGLO (CDK2/E1-37C): Minimum measured (%)>
96.7

>  <Pharmaron ADPGLO (CDK2/E1-37C): IC50 - Batch Mean (uM)>
100

>  <IncuCyte Kuramochi RB-WT: IC50 - Batch Mean (uM)>
7.44

>  <IncuCyte Kuramochi RB-KO: IC50 - Batch Mean (uM)>
5.37

>  <DSF (npCDK2/CCNE1): dTm D - Batch Mean [Concentration: 100]>


>  <DSF (npCDK2/CCNE1): dTm D - Batch Mean [Concentration: 20.0]>
2.238

>  <DSF (pCDK2/CCNE1): dTm D - Batch Mean [Concentration: 100]>


>  <DSF (pCDK2/CCNE1): dTm D - Batch Mean [Concentration: 20.0]>
1.186

>  <RLM: t1/2 - Batch Mean (Min)>


>  <RLM: Cl int - Batch Mean (uL/min/mg protein)>


>  <RLM: ER (Hepatic extraction ratio) - Batch Mean>


>  <HLM: t1/2 - Batch Mean (Min)>


>  <HLM: Cl int - Batch Mean (uL/min/mg protein)>


>  <HLM: ER (Hepatic extraction ratio) - Batch Mean>


>  <MDCK-WT 4% BSA: Papp (A-B) - Batch Mean (10-6, cm/s)>


>  <MDCK-WT 4% BSA: Papp (B-A) - Batch Mean (10-6, cm/s)>


>  <MDCK-WT 4% BSA: Efflux Ratio - Batch Mean>


>  <MDCK-WT 4% BSA: ~Net A_B - Batch Mean (10-6, cm/s)>


>  <pIC50>
5.220404

>  <Selection_1>
Y

>  <Selection_N>
N

>  <Serie>
Tetrahydrothienopyridine

>  <Selection_T>


>  <Train_Vs_Test>


$$$$
