CTX-1020518
 OpenBabel08272613283D

 61 65  0  0  0  0  0  0  0  0999 V2000
    1.7899   -0.7045   -0.0236 S   0  0  0  0  0  0  0  0  0  0  0  0
    2.1109    0.9790    0.0443 C   0  0  0  0  0  0  0  0  0  0  0  0
    0.1031   -0.4542   -0.0218 C   0  0  0  0  0  0  0  0  0  0  0  0
    3.4509    1.5425    0.0427 C   0  0  0  0  0  0  0  0  0  0  0  0
    0.9230    1.6973    0.0925 C   0  0  0  0  0  0  0  0  0  0  0  0
   -0.2515    0.8764    0.0495 C   0  0  0  0  0  0  0  0  0  0  0  0
   -0.8802   -1.5794   -0.1422 C   0  0  0  0  0  0  0  0  0  0  0  0
    3.6488    2.7630    0.0956 O   0  0  0  0  0  0  0  0  0  0  0  0
    4.5180    0.6553   -0.0245 N   0  0  0  0  0  0  0  0  0  0  0  0
   -1.6901    1.3491    0.0653 C   0  0  0  0  0  0  0  0  0  0  0  0
   -2.2983   -1.0732    0.1783 C   0  0  0  0  0  0  0  0  0  0  0  0
    5.8988    1.0831    0.0153 C   0  0  0  0  0  0  0  0  0  0  0  0
   -2.5714    0.2614   -0.3711 N   0  0  0  0  0  0  0  0  0  0  0  0
    6.6771    0.6788   -1.2129 C   0  0  0  0  0  0  0  0  0  0  0  0
   -3.7571    0.5719   -1.0557 C   0  0  0  0  0  0  0  0  0  0  0  0
    6.2952    1.1151   -2.4823 C   0  0  0  0  0  0  0  0  0  0  0  0
    7.8459   -0.0806   -1.1150 C   0  0  0  0  0  0  0  0  0  0  0  0
   -4.2481    1.6997   -0.9908 O   0  0  0  0  0  0  0  0  0  0  0  0
   -4.2178   -0.4350   -2.0445 C   0  0  0  0  0  0  0  0  0  0  0  0
    7.0603    0.7906   -3.6166 C   0  0  0  0  0  0  0  0  0  0  0  0
    8.6076   -0.3914   -2.2582 C   0  0  0  0  0  0  0  0  0  0  0  0
   -3.1707   -1.1890   -2.5652 O   0  0  0  0  0  0  0  0  0  0  0  0
   -5.0757   -0.2387   -3.1393 C   0  0  0  0  0  0  0  0  0  0  0  0
    8.2438    0.0359   -3.5447 C   0  0  0  0  0  0  0  0  0  0  0  0
   -2.9709   -0.6076   -3.7778 C   0  0  0  0  0  0  0  0  0  0  0  0
   -4.1250    0.0509   -4.1715 C   0  0  0  0  0  0  0  0  0  0  0  0
   -6.5431   -0.1064   -3.2159 C   0  0  0  0  0  0  0  0  0  0  0  0
    8.9571   -0.3046   -4.6898 N   0  0  0  0  0  0  0  0  0  0  0  0
   -1.7658   -0.5940   -4.4630 C   0  0  0  0  0  0  0  0  0  0  0  0
   -4.1020    0.7977   -5.3561 C   0  0  0  0  0  0  0  0  0  0  0  0
    9.0736    0.6443   -5.7988 C   0  0  0  0  0  0  0  0  0  0  0  0
   10.0001   -1.3286   -4.6753 C   0  0  0  0  0  0  0  0  0  0  0  0
   -1.7234    0.2542   -5.5676 C   0  0  0  0  0  0  0  0  0  0  0  0
   -2.8653    0.9411   -6.0029 C   0  0  0  0  0  0  0  0  0  0  0  0
    0.8891    2.7269    0.1537 H   0  0  0  0  0  0  0  0  0  0  0  0
   -0.6168   -2.3557    0.5454 H   0  0  0  0  0  0  0  0  0  0  0  0
   -0.8596   -1.9593   -1.1423 H   0  0  0  0  0  0  0  0  0  0  0  0
    4.3256   -0.3070   -0.1028 H   0  0  0  0  0  0  0  0  0  0  0  0
   -1.7982    2.1823   -0.5972 H   0  0  0  0  0  0  0  0  0  0  0  0
   -1.9557    1.6440    1.0590 H   0  0  0  0  0  0  0  0  0  0  0  0
   -2.4138   -1.0341    1.2413 H   0  0  0  0  0  0  0  0  0  0  0  0
   -2.9897   -1.7526   -0.2749 H   0  0  0  0  0  0  0  0  0  0  0  0
    6.3660    0.6476    0.8737 H   0  0  0  0  0  0  0  0  0  0  0  0
    5.9014    2.1522    0.0582 H   0  0  0  0  0  0  0  0  0  0  0  0
    5.4404    1.6832   -2.5899 H   0  0  0  0  0  0  0  0  0  0  0  0
    8.1558   -0.4191   -0.1907 H   0  0  0  0  0  0  0  0  0  0  0  0
    6.7394    1.1203   -4.5404 H   0  0  0  0  0  0  0  0  0  0  0  0
    9.4652   -0.9543   -2.1457 H   0  0  0  0  0  0  0  0  0  0  0  0
   -6.9768   -0.3990   -2.2825 H   0  0  0  0  0  0  0  0  0  0  0  0
   -6.9178   -0.7356   -3.9961 H   0  0  0  0  0  0  0  0  0  0  0  0
   -6.7991    0.9114   -3.4246 H   0  0  0  0  0  0  0  0  0  0  0  0
   -0.9592   -1.1701   -4.1760 H   0  0  0  0  0  0  0  0  0  0  0  0
   -4.9601    1.2254   -5.7378 H   0  0  0  0  0  0  0  0  0  0  0  0
    8.2792    1.3589   -5.7416 H   0  0  0  0  0  0  0  0  0  0  0  0
    9.0125    0.1167   -6.7276 H   0  0  0  0  0  0  0  0  0  0  0  0
   10.0141    1.1509   -5.7375 H   0  0  0  0  0  0  0  0  0  0  0  0
    9.8481   -1.9806   -3.8406 H   0  0  0  0  0  0  0  0  0  0  0  0
   10.9585   -0.8603   -4.5923 H   0  0  0  0  0  0  0  0  0  0  0  0
    9.9570   -1.8945   -5.5824 H   0  0  0  0  0  0  0  0  0  0  0  0
   -0.8337    0.3792   -6.0754 H   0  0  0  0  0  0  0  0  0  0  0  0
   -2.7944    1.5680   -6.8196 H   0  0  0  0  0  0  0  0  0  0  0  0
  1  2  1  0  0  0  0
  1  3  1  0  0  0  0
  2  4  1  0  0  0  0
  2  5  2  0  0  0  0
  3  6  2  0  0  0  0
  3  7  1  0  0  0  0
  4  8  2  0  0  0  0
  4  9  1  0  0  0  0
  5  6  1  0  0  0  0
  5 35  1  0  0  0  0
  6 10  1  0  0  0  0
  7 11  1  0  0  0  0
  7 36  1  0  0  0  0
  7 37  1  0  0  0  0
  9 12  1  0  0  0  0
  9 38  1  0  0  0  0
 10 13  1  0  0  0  0
 10 39  1  0  0  0  0
 10 40  1  0  0  0  0
 11 13  1  0  0  0  0
 11 41  1  0  0  0  0
 11 42  1  0  0  0  0
 12 14  1  0  0  0  0
 12 43  1  0  0  0  0
 12 44  1  0  0  0  0
 13 15  1  0  0  0  0
 14 16  2  0  0  0  0
 14 17  1  0  0  0  0
 15 18  2  0  0  0  0
 15 19  1  0  0  0  0
 16 20  1  0  0  0  0
 16 45  1  0  0  0  0
 17 21  2  0  0  0  0
 17 46  1  0  0  0  0
 19 22  1  0  0  0  0
 19 23  2  0  0  0  0
 20 24  2  0  0  0  0
 20 47  1  0  0  0  0
 21 24  1  0  0  0  0
 21 48  1  0  0  0  0
 22 25  1  0  0  0  0
 23 26  1  0  0  0  0
 23 27  1  0  0  0  0
 24 28  1  0  0  0  0
 25 29  2  0  0  0  0
 25 26  1  0  0  0  0
 26 30  2  0  0  0  0
 27 49  1  0  0  0  0
 27 50  1  0  0  0  0
 27 51  1  0  0  0  0
 28 31  1  0  0  0  0
 28 32  1  0  0  0  0
 29 33  1  0  0  0  0
 29 52  1  0  0  0  0
 30 34  1  0  0  0  0
 30 53  1  0  0  0  0
 31 54  1  0  0  0  0
 31 55  1  0  0  0  0
 31 56  1  0  0  0  0
 32 57  1  0  0  0  0
 32 58  1  0  0  0  0
 32 59  1  0  0  0  0
 33 34  2  0  0  0  0
 33 60  1  0  0  0  0
 34 61  1  0  0  0  0
M  END
>  <Molecule Name>
CTX-1020518

>  <SMILES>
CN(C)C1=CC=C(CNC(=O)C2=CC3=C(CCN(C3)C(=O)C3=C(C)C4=C(O3)C=CC=C4)S2)C=C1

>  <Batch Name>
CTX-1020518-1

>  <Batch Created Date>
2021-11-04

>  <Batch ID>
CTX-1020518-1

>  <External ID>
610EDL099-C

>  <Stereochemistry>
Achiral

>  <Amount 1>
4.99

>  <Unit 1>
mg

>  <CRO 1>
Pharmaron

>  <CRO 1 Total Amount>
4.5

>  <CRO 1 Unit>
mg

>  <Pharmaron Solubility (PBS, pH 7.4): Aqueous Solubility - Batch Mean (uM)>
0.0073

>  <Pharmaron Solubility (PBS, pH 7.4): Aqueous Solubility - Batch Mean (uM) Standard Deviation (±)>


>  <Pharmaron Solubility (PBS, pH 7.4): Aqueous Solubility - Batch Mean (uM) Count>
1.0

>  <log P>
4.58

>  <log D>
4.58

>  <Pharmaron Caliper Assay (CDK2/CCNE1): Minimum measured (%)>
39.5

>  <Pharmaron Caliper Assay (CDK2/CCNE1): IC50 - Batch Mean (uM)>
0.626

>  <Pharmaron ADPGLO (CDK2/E1-25C): Minimum measured (%)>


>  <Pharmaron ADPGLO (CDK2/E1-25C): IC50 - Batch Mean (uM)>


>  <Pharmaron ADPGLO (CDK2/E1-37C): Minimum measured (%)>


>  <Pharmaron ADPGLO (CDK2/E1-37C): IC50 - Batch Mean (uM)>


>  <IncuCyte Kuramochi RB-WT: IC50 - Batch Mean (uM)>
20.0

>  <IncuCyte Kuramochi RB-KO: IC50 - Batch Mean (uM)>
20.0

>  <DSF (npCDK2/CCNE1): dTm D - Batch Mean [Concentration: 100]>


>  <DSF (npCDK2/CCNE1): dTm D - Batch Mean [Concentration: 20.0]>
2.835

>  <DSF (pCDK2/CCNE1): dTm D - Batch Mean [Concentration: 100]>


>  <DSF (pCDK2/CCNE1): dTm D - Batch Mean [Concentration: 20.0]>
1.4809999999999999

>  <RLM: t1/2 - Batch Mean (Min)>


>  <RLM: Cl int - Batch Mean (uL/min/mg protein)>


>  <RLM: ER (Hepatic extraction ratio) - Batch Mean>


>  <HLM: t1/2 - Batch Mean (Min)>


>  <HLM: Cl int - Batch Mean (uL/min/mg protein)>


>  <HLM: ER (Hepatic extraction ratio) - Batch Mean>


>  <MDCK-WT 4% BSA: Papp (A-B) - Batch Mean (10-6, cm/s)>


>  <MDCK-WT 4% BSA: Papp (B-A) - Batch Mean (10-6, cm/s)>


>  <MDCK-WT 4% BSA: Efflux Ratio - Batch Mean>


>  <MDCK-WT 4% BSA: ~Net A_B - Batch Mean (10-6, cm/s)>


>  <pIC50>
6.203426

>  <Selection_1>
Y

>  <Selection_N>
N

>  <Serie>
Tetrahydrothienopyridine

>  <Selection_T>


>  <Train_Vs_Test>


$$$$
