CTX-1020517
 OpenBabel08272613283D

 71 76  0  0  0  0  0  0  0  0999 V2000
    2.1613    2.0994   -1.3781 S   0  0  0  0  0  0  0  0  0  0  0  0
    2.8261    1.3199    0.0189 C   0  0  0  0  0  0  0  0  0  0  0  0
    0.7447    1.0974   -1.4496 C   0  0  0  0  0  0  0  0  0  0  0  0
    2.0066    0.2133    0.3395 C   0  0  0  0  0  0  0  0  0  0  0  0
    4.0564    1.9311    0.7285 C   0  0  0  0  0  0  0  0  0  0  0  0
    0.7813    0.1087   -0.4785 C   0  0  0  0  0  0  0  0  0  0  0  0
   -0.3590    1.1738   -2.3512 C   0  0  0  0  0  0  0  0  0  0  0  0
    2.2499   -0.8296    1.3873 C   0  0  0  0  0  0  0  0  0  0  0  0
    4.0915    2.0152    1.9599 O   0  0  0  0  0  0  0  0  0  0  0  0
    5.2751    2.2342   -0.0257 N   0  0  0  0  0  0  0  0  0  0  0  0
   -0.3132   -0.8125   -0.4160 C   0  0  0  0  0  0  0  0  0  0  0  0
   -1.4352    0.2726   -2.2537 C   0  0  0  0  0  0  0  0  0  0  0  0
    6.4016    3.2652    0.4425 C   0  0  0  0  0  0  0  0  0  0  0  0
    5.7505    0.9510   -0.5147 C   0  0  0  0  0  0  0  0  0  0  0  0
   -1.4114   -0.7215   -1.2956 C   0  0  0  0  0  0  0  0  0  0  0  0
    7.9014    2.7983    0.1553 C   0  0  0  0  0  0  0  0  0  0  0  0
    7.0239    0.9309   -1.2793 C   0  0  0  0  0  0  0  0  0  0  0  0
    8.0924    1.7480   -0.6829 C   0  0  0  0  0  0  0  0  0  0  0  0
    9.3055    3.2320    0.5510 C   0  0  0  0  0  0  0  0  0  0  0  0
    9.6563    1.3869   -1.1485 S   0  0  0  0  0  0  0  0  0  0  0  0
   10.2761    2.2720    0.1805 C   0  0  0  0  0  0  0  0  0  0  0  0
   11.6510    1.8417    0.5122 C   0  0  0  0  0  0  0  0  0  0  0  0
   12.6718    2.5126    0.3858 O   0  0  0  0  0  0  0  0  0  0  0  0
   11.6773    0.4851    0.8723 N   0  0  0  0  0  0  0  0  0  0  0  0
   12.7698   -0.4711    0.7894 C   0  0  0  0  0  0  0  0  0  0  0  0
   12.2431   -1.9047    0.6441 C   0  0  0  0  0  0  0  0  0  0  0  0
   12.0438   -2.4829   -0.6151 C   0  0  0  0  0  0  0  0  0  0  0  0
   11.8782   -2.6988    1.7419 C   0  0  0  0  0  0  0  0  0  0  0  0
   11.4848   -3.7613   -0.7551 C   0  0  0  0  0  0  0  0  0  0  0  0
   11.3031   -3.9897    1.5795 C   0  0  0  0  0  0  0  0  0  0  0  0
   11.0798   -4.5573    0.3177 C   0  0  0  0  0  0  0  0  0  0  0  0
   10.4488   -5.7667    0.1623 N   0  0  0  0  0  0  0  0  0  0  0  0
   10.7098   -6.6858   -0.9656 C   0  0  0  0  0  0  0  0  0  0  0  0
    9.4709   -6.3129    1.1312 C   0  0  0  0  0  0  0  0  0  0  0  0
    9.3811   -7.1061   -1.6492 C   0  0  0  0  0  0  0  0  0  0  0  0
    8.1791   -6.7885    0.4036 C   0  0  0  0  0  0  0  0  0  0  0  0
    8.4509   -7.7439   -0.6937 N   0  3  0  0  0  0  0  0  0  0  0  0
    7.2194   -8.1663   -1.3566 C   0  0  0  0  0  0  0  0  0  0  0  0
   -0.3679    1.8998   -3.0845 H   0  0  0  0  0  0  0  0  0  0  0  0
    3.1697   -0.6201    1.8922 H   0  0  0  0  0  0  0  0  0  0  0  0
    2.3083   -1.7928    0.9250 H   0  0  0  0  0  0  0  0  0  0  0  0
    1.4456   -0.8208    2.0929 H   0  0  0  0  0  0  0  0  0  0  0  0
   -0.2977   -1.5633    0.2919 H   0  0  0  0  0  0  0  0  0  0  0  0
   -2.2390    0.3542   -2.8958 H   0  0  0  0  0  0  0  0  0  0  0  0
    6.2966    3.4162    1.4966 H   0  0  0  0  0  0  0  0  0  0  0  0
    6.2497    4.1562   -0.1301 H   0  0  0  0  0  0  0  0  0  0  0  0
    4.9895    0.5500   -1.1511 H   0  0  0  0  0  0  0  0  0  0  0  0
    5.9576    0.3851    0.3695 H   0  0  0  0  0  0  0  0  0  0  0  0
   -2.1918   -1.3930   -1.2238 H   0  0  0  0  0  0  0  0  0  0  0  0
    6.8301    1.2980   -2.2655 H   0  0  0  0  0  0  0  0  0  0  0  0
    7.3704   -0.0814   -1.2774 H   0  0  0  0  0  0  0  0  0  0  0  0
    9.5232    4.1190    1.0315 H   0  0  0  0  0  0  0  0  0  0  0  0
   10.8333    0.1293    1.2334 H   0  0  0  0  0  0  0  0  0  0  0  0
   13.3599   -0.4046    1.6795 H   0  0  0  0  0  0  0  0  0  0  0  0
   13.3592   -0.2378   -0.0726 H   0  0  0  0  0  0  0  0  0  0  0  0
   12.3146   -1.9561   -1.4601 H   0  0  0  0  0  0  0  0  0  0  0  0
   12.0317   -2.3355    2.6955 H   0  0  0  0  0  0  0  0  0  0  0  0
   11.3656   -4.1364   -1.7091 H   0  0  0  0  0  0  0  0  0  0  0  0
   11.0410   -4.5273    2.4206 H   0  0  0  0  0  0  0  0  0  0  0  0
   11.2079   -7.5590   -0.5991 H   0  0  0  0  0  0  0  0  0  0  0  0
   11.3228   -6.1832   -1.6843 H   0  0  0  0  0  0  0  0  0  0  0  0
    9.2153   -5.5519    1.8385 H   0  0  0  0  0  0  0  0  0  0  0  0
    9.9126   -7.1507    1.6291 H   0  0  0  0  0  0  0  0  0  0  0  0
    9.5996   -7.7988   -2.4349 H   0  0  0  0  0  0  0  0  0  0  0  0
    8.9112   -6.2250   -2.0337 H   0  0  0  0  0  0  0  0  0  0  0  0
    7.6831   -5.9328   -0.0046 H   0  0  0  0  0  0  0  0  0  0  0  0
    7.5734   -7.2950    1.1258 H   0  0  0  0  0  0  0  0  0  0  0  0
    8.8765   -8.5875   -0.3094 H   0  0  0  0  0  0  0  0  0  0  0  0
    6.7313   -7.3132   -1.7794 H   0  0  0  0  0  0  0  0  0  0  0  0
    6.5714   -8.6308   -0.6429 H   0  0  0  0  0  0  0  0  0  0  0  0
    7.4537   -8.8644   -2.1329 H   0  0  0  0  0  0  0  0  0  0  0  0
  1  2  1  0  0  0  0
  1  3  1  0  0  0  0
  2  4  2  0  0  0  0
  2  5  1  0  0  0  0
  3  6  2  0  0  0  0
  3  7  1  0  0  0  0
  4  8  1  0  0  0  0
  4  6  1  0  0  0  0
  5  9  2  0  0  0  0
  5 10  1  0  0  0  0
  6 11  1  0  0  0  0
  7 12  2  0  0  0  0
  7 39  1  0  0  0  0
  8 40  1  0  0  0  0
  8 41  1  0  0  0  0
  8 42  1  0  0  0  0
 10 13  1  0  0  0  0
 10 14  1  0  0  0  0
 11 15  2  0  0  0  0
 11 43  1  0  0  0  0
 12 15  1  0  0  0  0
 12 44  1  0  0  0  0
 13 16  1  0  0  0  0
 13 45  1  0  0  0  0
 13 46  1  0  0  0  0
 14 17  1  0  0  0  0
 14 47  1  0  0  0  0
 14 48  1  0  0  0  0
 15 49  1  0  0  0  0
 16 18  2  0  0  0  0
 16 19  1  0  0  0  0
 17 18  1  0  0  0  0
 17 50  1  0  0  0  0
 17 51  1  0  0  0  0
 18 20  1  0  0  0  0
 19 21  2  0  0  0  0
 19 52  1  0  0  0  0
 20 21  1  0  0  0  0
 21 22  1  0  0  0  0
 22 23  2  0  0  0  0
 22 24  1  0  0  0  0
 24 25  1  0  0  0  0
 24 53  1  0  0  0  0
 25 26  1  0  0  0  0
 25 54  1  0  0  0  0
 25 55  1  0  0  0  0
 26 27  2  0  0  0  0
 26 28  1  0  0  0  0
 27 29  1  0  0  0  0
 27 56  1  0  0  0  0
 28 30  2  0  0  0  0
 28 57  1  0  0  0  0
 29 31  2  0  0  0  0
 29 58  1  0  0  0  0
 30 31  1  0  0  0  0
 30 59  1  0  0  0  0
 31 32  1  0  0  0  0
 32 33  1  0  0  0  0
 32 34  1  0  0  0  0
 33 35  1  0  0  0  0
 33 60  1  0  0  0  0
 33 61  1  0  0  0  0
 34 36  1  0  0  0  0
 34 62  1  0  0  0  0
 34 63  1  0  0  0  0
 35 37  1  0  0  0  0
 35 64  1  0  0  0  0
 35 65  1  0  0  0  0
 36 37  1  0  0  0  0
 36 66  1  0  0  0  0
 36 67  1  0  0  0  0
 37 38  1  0  0  0  0
 37 68  1  0  0  0  0
 38 69  1  0  0  0  0
 38 70  1  0  0  0  0
 38 71  1  0  0  0  0
M  CHG  1  37   1
M  END
>  <Molecule Name>
CTX-1020517

>  <SMILES>
CN1CCN(CC1)C1=CC=C(CNC(=O)C2=CC3=C(CCN(C3)C(=O)C3=C(C)C4=C(S3)C=CC=C4)S2)C=C1

>  <Batch Name>
CTX-1020517-1

>  <Batch Created Date>
2021-11-04

>  <Batch ID>
CTX-1020517-1

>  <External ID>
610EDL074-B

>  <Stereochemistry>
Achiral

>  <Amount 1>
5.04

>  <Unit 1>
mg

>  <CRO 1>
Pharmaron

>  <CRO 1 Total Amount>
24.4

>  <CRO 1 Unit>
mg

>  <Pharmaron Solubility (PBS, pH 7.4): Aqueous Solubility - Batch Mean (uM)>
0.8627

>  <Pharmaron Solubility (PBS, pH 7.4): Aqueous Solubility - Batch Mean (uM) Standard Deviation (±)>


>  <Pharmaron Solubility (PBS, pH 7.4): Aqueous Solubility - Batch Mean (uM) Count>
1.0

>  <log P>
5.36

>  <log D>
4.72

>  <Pharmaron Caliper Assay (CDK2/CCNE1): Minimum measured (%)>
62.5

>  <Pharmaron Caliper Assay (CDK2/CCNE1): IC50 - Batch Mean (uM)>
2.88

>  <Pharmaron ADPGLO (CDK2/E1-25C): Minimum measured (%)>


>  <Pharmaron ADPGLO (CDK2/E1-25C): IC50 - Batch Mean (uM)>


>  <Pharmaron ADPGLO (CDK2/E1-37C): Minimum measured (%)>


>  <Pharmaron ADPGLO (CDK2/E1-37C): IC50 - Batch Mean (uM)>


>  <IncuCyte Kuramochi RB-WT: IC50 - Batch Mean (uM)>
5.81

>  <IncuCyte Kuramochi RB-KO: IC50 - Batch Mean (uM)>
5.92

>  <DSF (npCDK2/CCNE1): dTm D - Batch Mean [Concentration: 100]>


>  <DSF (npCDK2/CCNE1): dTm D - Batch Mean [Concentration: 20.0]>
2.1

>  <DSF (pCDK2/CCNE1): dTm D - Batch Mean [Concentration: 100]>


>  <DSF (pCDK2/CCNE1): dTm D - Batch Mean [Concentration: 20.0]>
1.815

>  <RLM: t1/2 - Batch Mean (Min)>


>  <RLM: Cl int - Batch Mean (uL/min/mg protein)>


>  <RLM: ER (Hepatic extraction ratio) - Batch Mean>


>  <HLM: t1/2 - Batch Mean (Min)>


>  <HLM: Cl int - Batch Mean (uL/min/mg protein)>


>  <HLM: ER (Hepatic extraction ratio) - Batch Mean>


>  <MDCK-WT 4% BSA: Papp (A-B) - Batch Mean (10-6, cm/s)>


>  <MDCK-WT 4% BSA: Papp (B-A) - Batch Mean (10-6, cm/s)>


>  <MDCK-WT 4% BSA: Efflux Ratio - Batch Mean>


>  <MDCK-WT 4% BSA: ~Net A_B - Batch Mean (10-6, cm/s)>


>  <pIC50>
5.540607

>  <Selection_1>
Y

>  <Selection_N>
N

>  <Serie>
Tetrahydrothienopyridine

>  <Selection_T>


>  <Train_Vs_Test>


$$$$
