CTX-1019613
 OpenBabel08272613283D

 73 78  0  0  0  0  0  0  0  0999 V2000
    3.1809   -2.5777   -0.0968 S   0  0  0  0  0  0  0  0  0  0  0  0
    4.8694   -2.0324    0.0339 C   0  0  0  0  0  0  0  0  0  0  0  0
    3.5208   -4.2357   -0.1323 C   0  0  0  0  0  0  0  0  0  0  0  0
    5.6679   -3.1815    0.0634 C   0  0  0  0  0  0  0  0  0  0  0  0
    4.9365   -0.5320    0.0662 C   0  0  0  0  0  0  0  0  0  0  0  0
    4.8872   -4.4540   -0.0400 C   0  0  0  0  0  0  0  0  0  0  0  0
    2.5836   -5.2924   -0.2380 C   0  0  0  0  0  0  0  0  0  0  0  0
    7.1465   -3.2716    0.1851 C   0  0  0  0  0  0  0  0  0  0  0  0
    3.8301    0.0451    0.0458 O   0  0  0  0  0  0  0  0  0  0  0  0
    6.0457    0.4091    0.0898 N   0  0  0  0  0  0  0  0  0  0  0  0
    5.3076   -5.8144   -0.0563 C   0  0  0  0  0  0  0  0  0  0  0  0
    3.0307   -6.6126   -0.2526 C   0  0  0  0  0  0  0  0  0  0  0  0
    7.5317    0.2291    0.1932 C   0  0  0  0  0  0  0  0  0  0  0  0
    5.5313    1.7700   -0.1227 C   0  0  0  0  0  0  0  0  0  0  0  0
    4.3870   -6.8750   -0.1619 C   0  0  0  0  0  0  0  0  0  0  0  0
    8.4557    1.5019    0.1876 C   0  0  0  0  0  0  0  0  0  0  0  0
    6.4173    2.9895   -0.0523 C   0  0  0  0  0  0  0  0  0  0  0  0
    9.8365    1.3807    0.3188 N   0  0  0  0  0  0  0  0  0  0  0  0
    7.8737    2.7627    0.0504 C   0  0  0  0  0  0  0  0  0  0  0  0
   10.5824    2.5533    0.3239 C   0  0  0  0  0  0  0  0  0  0  0  0
    8.6693    3.9160    0.0426 C   0  0  0  0  0  0  0  0  0  0  0  0
   12.0955    2.5893    0.4905 C   0  0  0  0  0  0  0  0  0  0  0  0
   10.0299    3.8182    0.1865 C   0  0  0  0  0  0  0  0  0  0  0  0
   12.6666    3.6681    0.6160 O   0  0  0  0  0  0  0  0  0  0  0  0
   12.8081    1.4141    0.4632 N   0  0  0  0  0  0  0  0  0  0  0  0
   14.2658    1.4522    0.4746 C   0  0  0  0  0  0  0  0  0  0  0  0
   14.8419    0.2470    1.1592 C   0  0  0  0  0  0  0  0  0  0  0  0
   15.6358   -0.6756    0.4798 C   0  0  0  0  0  0  0  0  0  0  0  0
   14.5667    0.0207    2.5069 C   0  0  0  0  0  0  0  0  0  0  0  0
   16.0422   -1.8591    1.1131 C   0  0  0  0  0  0  0  0  0  0  0  0
   14.9936   -1.1545    3.1316 C   0  0  0  0  0  0  0  0  0  0  0  0
   15.6991   -2.1529    2.4432 C   0  0  0  0  0  0  0  0  0  0  0  0
   15.9582   -3.3938    3.0025 N   0  0  0  0  0  0  0  0  0  0  0  0
   17.1899   -4.1436    2.6909 C   0  0  0  0  0  0  0  0  0  0  0  0
   15.3408   -3.8050    4.2773 C   0  0  0  0  0  0  0  0  0  0  0  0
   16.9072   -5.6665    2.7328 C   0  0  0  0  0  0  0  0  0  0  0  0
   15.0963   -5.3309    4.2787 C   0  0  0  0  0  0  0  0  0  0  0  0
   16.3315   -6.1025    4.0256 N   0  3  0  0  0  0  0  0  0  0  0  0
   16.0474   -7.5341    4.0153 C   0  0  0  0  0  0  0  0  0  0  0  0
    1.5746   -5.0859   -0.3040 H   0  0  0  0  0  0  0  0  0  0  0  0
    7.5597   -2.2866    0.2491 H   0  0  0  0  0  0  0  0  0  0  0  0
    7.5453   -3.7706   -0.6733 H   0  0  0  0  0  0  0  0  0  0  0  0
    7.3989   -3.8222    1.0671 H   0  0  0  0  0  0  0  0  0  0  0  0
    6.3148   -6.0292    0.0110 H   0  0  0  0  0  0  0  0  0  0  0  0
    2.3554   -7.3890   -0.3306 H   0  0  0  0  0  0  0  0  0  0  0  0
    7.8321   -0.3801   -0.6336 H   0  0  0  0  0  0  0  0  0  0  0  0
    7.6728   -0.1864    1.1690 H   0  0  0  0  0  0  0  0  0  0  0  0
    4.7650    1.9163    0.6096 H   0  0  0  0  0  0  0  0  0  0  0  0
    5.2696    1.7473   -1.1599 H   0  0  0  0  0  0  0  0  0  0  0  0
    4.7243   -7.8502   -0.1716 H   0  0  0  0  0  0  0  0  0  0  0  0
    6.1187    3.5550    0.8056 H   0  0  0  0  0  0  0  0  0  0  0  0
    6.2813    3.4830   -0.9919 H   0  0  0  0  0  0  0  0  0  0  0  0
    8.2299    4.8427   -0.0718 H   0  0  0  0  0  0  0  0  0  0  0  0
   10.6252    4.6611    0.1923 H   0  0  0  0  0  0  0  0  0  0  0  0
   12.3364    0.5503    0.4362 H   0  0  0  0  0  0  0  0  0  0  0  0
   14.5867    2.3324    0.9916 H   0  0  0  0  0  0  0  0  0  0  0  0
   14.6096    1.4594   -0.5387 H   0  0  0  0  0  0  0  0  0  0  0  0
   15.9256   -0.4871   -0.4926 H   0  0  0  0  0  0  0  0  0  0  0  0
   14.0434    0.7268    3.0479 H   0  0  0  0  0  0  0  0  0  0  0  0
   16.6127   -2.5371    0.5839 H   0  0  0  0  0  0  0  0  0  0  0  0
   14.7828   -1.2925    4.1324 H   0  0  0  0  0  0  0  0  0  0  0  0
   17.9432   -3.9029    3.4116 H   0  0  0  0  0  0  0  0  0  0  0  0
   17.5265   -3.8753    1.7113 H   0  0  0  0  0  0  0  0  0  0  0  0
   14.4072   -3.2966    4.3990 H   0  0  0  0  0  0  0  0  0  0  0  0
   15.9986   -3.5541    5.0830 H   0  0  0  0  0  0  0  0  0  0  0  0
   17.8263   -6.1904    2.5727 H   0  0  0  0  0  0  0  0  0  0  0  0
   16.1908   -5.8847    1.9685 H   0  0  0  0  0  0  0  0  0  0  0  0
   14.3833   -5.5648    3.5160 H   0  0  0  0  0  0  0  0  0  0  0  0
   14.7372   -5.6016    5.2496 H   0  0  0  0  0  0  0  0  0  0  0  0
   17.0060   -5.9297    4.7709 H   0  0  0  0  0  0  0  0  0  0  0  0
   15.3404   -7.7519    3.2423 H   0  0  0  0  0  0  0  0  0  0  0  0
   15.6414   -7.8239    4.9619 H   0  0  0  0  0  0  0  0  0  0  0  0
   16.9521   -8.0760    3.8342 H   0  0  0  0  0  0  0  0  0  0  0  0
  1  2  1  0  0  0  0
  1  3  1  0  0  0  0
  2  4  2  0  0  0  0
  2  5  1  0  0  0  0
  3  6  2  0  0  0  0
  3  7  1  0  0  0  0
  4  8  1  0  0  0  0
  4  6  1  0  0  0  0
  5  9  2  0  0  0  0
  5 10  1  0  0  0  0
  6 11  1  0  0  0  0
  7 12  2  0  0  0  0
  7 40  1  0  0  0  0
  8 41  1  0  0  0  0
  8 42  1  0  0  0  0
  8 43  1  0  0  0  0
 10 13  1  0  0  0  0
 10 14  1  0  0  0  0
 11 15  2  0  0  0  0
 11 44  1  0  0  0  0
 12 15  1  0  0  0  0
 12 45  1  0  0  0  0
 13 16  1  0  0  0  0
 13 46  1  0  0  0  0
 13 47  1  0  0  0  0
 14 17  1  0  0  0  0
 14 48  1  0  0  0  0
 14 49  1  0  0  0  0
 15 50  1  0  0  0  0
 16 18  2  0  0  0  0
 16 19  1  0  0  0  0
 17 19  1  0  0  0  0
 17 51  1  0  0  0  0
 17 52  1  0  0  0  0
 18 20  1  0  0  0  0
 19 21  2  0  0  0  0
 20 22  1  0  0  0  0
 20 23  2  0  0  0  0
 21 23  1  0  0  0  0
 21 53  1  0  0  0  0
 22 24  2  0  0  0  0
 22 25  1  0  0  0  0
 23 54  1  0  0  0  0
 25 26  1  0  0  0  0
 25 55  1  0  0  0  0
 26 27  1  0  0  0  0
 26 56  1  0  0  0  0
 26 57  1  0  0  0  0
 27 28  2  0  0  0  0
 27 29  1  0  0  0  0
 28 30  1  0  0  0  0
 28 58  1  0  0  0  0
 29 31  2  0  0  0  0
 29 59  1  0  0  0  0
 30 32  2  0  0  0  0
 30 60  1  0  0  0  0
 31 32  1  0  0  0  0
 31 61  1  0  0  0  0
 32 33  1  0  0  0  0
 33 34  1  0  0  0  0
 33 35  1  0  0  0  0
 34 36  1  0  0  0  0
 34 62  1  0  0  0  0
 34 63  1  0  0  0  0
 35 37  1  0  0  0  0
 35 64  1  0  0  0  0
 35 65  1  0  0  0  0
 36 38  1  0  0  0  0
 36 66  1  0  0  0  0
 36 67  1  0  0  0  0
 37 38  1  0  0  0  0
 37 68  1  0  0  0  0
 37 69  1  0  0  0  0
 38 39  1  0  0  0  0
 38 70  1  0  0  0  0
 39 71  1  0  0  0  0
 39 72  1  0  0  0  0
 39 73  1  0  0  0  0
M  CHG  1  38   1
M  END
>  <Molecule Name>
CTX-1019613

>  <SMILES>
CN1CCN(CC1)C1=CC=C(CNC(=O)C2=CC=C3CCN(CC3=N2)C(=O)C2=C(C)C3=C(S2)C=CC=C3)C=C1

>  <Batch Name>
CTX-1019613-1

>  <Batch Created Date>
2021-08-19

>  <Batch ID>
CTX-1019613-1

>  <External ID>
P841-0128

>  <Stereochemistry>
Achiral

>  <Amount 1>
5.2

>  <Unit 1>
mg

>  <CRO 1>
Pharmaron

>  <CRO 1 Total Amount>
23.9

>  <CRO 1 Unit>
mg

>  <Pharmaron Solubility (PBS, pH 7.4): Aqueous Solubility - Batch Mean (uM)>
151.34

>  <Pharmaron Solubility (PBS, pH 7.4): Aqueous Solubility - Batch Mean (uM) Standard Deviation (±)>


>  <Pharmaron Solubility (PBS, pH 7.4): Aqueous Solubility - Batch Mean (uM) Count>
1.0

>  <log P>
4.56

>  <log D>
3.93

>  <Pharmaron Caliper Assay (CDK2/CCNE1): Minimum measured (%)>
43.0

>  <Pharmaron Caliper Assay (CDK2/CCNE1): IC50 - Batch Mean (uM)>
2.41

>  <Pharmaron ADPGLO (CDK2/E1-25C): Minimum measured (%)>
27.8

>  <Pharmaron ADPGLO (CDK2/E1-25C): IC50 - Batch Mean (uM)>
4.13

>  <Pharmaron ADPGLO (CDK2/E1-37C): Minimum measured (%)>
98.2

>  <Pharmaron ADPGLO (CDK2/E1-37C): IC50 - Batch Mean (uM)>
100

>  <IncuCyte Kuramochi RB-WT: IC50 - Batch Mean (uM)>
11.7

>  <IncuCyte Kuramochi RB-KO: IC50 - Batch Mean (uM)>
12.4

>  <DSF (npCDK2/CCNE1): dTm D - Batch Mean [Concentration: 100]>
1.216

>  <DSF (npCDK2/CCNE1): dTm D - Batch Mean [Concentration: 20.0]>
1.36

>  <DSF (pCDK2/CCNE1): dTm D - Batch Mean [Concentration: 100]>


>  <DSF (pCDK2/CCNE1): dTm D - Batch Mean [Concentration: 20.0]>


>  <RLM: t1/2 - Batch Mean (Min)>


>  <RLM: Cl int - Batch Mean (uL/min/mg protein)>


>  <RLM: ER (Hepatic extraction ratio) - Batch Mean>


>  <HLM: t1/2 - Batch Mean (Min)>
9.1

>  <HLM: Cl int - Batch Mean (uL/min/mg protein)>
152.48

>  <HLM: ER (Hepatic extraction ratio) - Batch Mean>
0.882

>  <MDCK-WT 4% BSA: Papp (A-B) - Batch Mean (10-6, cm/s)>


>  <MDCK-WT 4% BSA: Papp (B-A) - Batch Mean (10-6, cm/s)>


>  <MDCK-WT 4% BSA: Efflux Ratio - Batch Mean>


>  <MDCK-WT 4% BSA: ~Net A_B - Batch Mean (10-6, cm/s)>


>  <pIC50>
5.617983

>  <Selection_1>
Y

>  <Selection_N>


>  <Serie>
Naphthyridine

>  <Selection_T>
N

>  <Train_Vs_Test>


$$$$
