CTX-1019904
 OpenBabel08272613283D

 76 81  0  0  0  0  0  0  0  0999 V2000
    1.2147   -0.5363    0.3690 O   0  0  0  0  0  0  0  0  0  0  0  0
    2.2896   -0.0100    0.0791 C   0  0  0  0  0  0  0  0  0  0  0  0
    2.8609   -0.1339   -1.1675 N   0  0  0  0  0  0  0  0  0  0  0  0
    3.0372    0.7815    1.0981 C   0  0  0  0  0  0  0  0  0  0  0  0
    2.2168   -0.9205   -2.1899 C   0  0  0  0  0  0  0  0  0  0  0  0
    4.1883    1.4038    0.7081 N   0  0  0  0  0  0  0  0  0  0  0  0
    2.5171    0.8478    2.3861 C   0  0  0  0  0  0  0  0  0  0  0  0
    2.9589   -0.9431   -3.5047 C   0  0  0  0  0  0  0  0  0  0  0  0
    4.8205    2.1541    1.6471 C   0  0  0  0  0  0  0  0  0  0  0  0
    3.1996    1.5983    3.3323 C   0  0  0  0  0  0  0  0  0  0  0  0
    4.0931   -0.2111   -3.6204 N   0  0  0  0  0  0  0  0  0  0  0  0
    2.4608   -1.7158   -4.5549 C   0  0  0  0  0  0  0  0  0  0  0  0
    4.3697    2.2619    2.9700 C   0  0  0  0  0  0  0  0  0  0  0  0
    6.0480    2.9127    1.1812 C   0  0  0  0  0  0  0  0  0  0  0  0
    4.7357   -0.2739   -4.8145 C   0  0  0  0  0  0  0  0  0  0  0  0
    3.1586   -1.7516   -5.7645 C   0  0  0  0  0  0  0  0  0  0  0  0
    5.0604    3.1430    3.9734 C   0  0  0  0  0  0  0  0  0  0  0  0
    6.4839    3.9393    2.1104 N   0  0  0  0  0  0  0  0  0  0  0  0
    4.3329   -1.0192   -5.9295 C   0  0  0  0  0  0  0  0  0  0  0  0
    6.4481    3.5740    3.5240 C   0  0  0  0  0  0  0  0  0  0  0  0
    7.2156    5.0686    1.7670 C   0  0  0  0  0  0  0  0  0  0  0  0
    5.1094   -1.0514   -7.0773 N   0  0  0  0  0  0  0  0  0  0  0  0
    7.4511    5.9007    2.6510 O   0  0  0  0  0  0  0  0  0  0  0  0
    7.7518    5.2736    0.4061 C   0  0  0  0  0  0  0  0  0  0  0  0
    5.0275   -2.1861   -8.0093 C   0  0  0  0  0  0  0  0  0  0  0  0
    5.3595    0.2313   -7.7656 C   0  0  0  0  0  0  0  0  0  0  0  0
    8.8350    6.1428    0.4627 O   0  0  0  0  0  0  0  0  0  0  0  0
    7.1400    5.6012   -0.8089 C   0  0  0  0  0  0  0  0  0  0  0  0
    6.3517   -2.2703   -8.8058 C   0  0  0  0  0  0  0  0  0  0  0  0
    6.6624    0.1240   -8.5950 C   0  0  0  0  0  0  0  0  0  0  0  0
    8.3719    7.3113   -0.0701 C   0  0  0  0  0  0  0  0  0  0  0  0
    7.2606    7.0239   -0.8558 C   0  0  0  0  0  0  0  0  0  0  0  0
    6.6321    4.7409   -1.9049 C   0  0  0  0  0  0  0  0  0  0  0  0
    6.6622   -1.0198   -9.5387 N   0  3  0  0  0  0  0  0  0  0  0  0
    8.8924    8.5896    0.1391 C   0  0  0  0  0  0  0  0  0  0  0  0
    6.6195    8.0810   -1.5237 C   0  0  0  0  0  0  0  0  0  0  0  0
    7.9610   -1.1322  -10.2010 C   0  0  0  0  0  0  0  0  0  0  0  0
    9.9954    8.9455    0.8924 O   0  0  0  0  0  0  0  0  0  0  0  0
    8.1640    9.6322   -0.4409 C   0  0  0  0  0  0  0  0  0  0  0  0
    7.0490    9.3879   -1.2529 C   0  0  0  0  0  0  0  0  0  0  0  0
   10.7206    7.8659    1.4751 C   0  0  0  0  0  0  0  0  0  0  0  0
    3.7141    0.3172   -1.3619 H   0  0  0  0  0  0  0  0  0  0  0  0
    1.2410   -0.5161   -2.3610 H   0  0  0  0  0  0  0  0  0  0  0  0
    2.1876   -1.9288   -1.8330 H   0  0  0  0  0  0  0  0  0  0  0  0
    1.6461    0.3517    2.6316 H   0  0  0  0  0  0  0  0  0  0  0  0
    2.8428    1.6645    4.2984 H   0  0  0  0  0  0  0  0  0  0  0  0
    1.5879   -2.2539   -4.4393 H   0  0  0  0  0  0  0  0  0  0  0  0
    5.8228    3.3779    0.2443 H   0  0  0  0  0  0  0  0  0  0  0  0
    6.8444    2.2026    1.1019 H   0  0  0  0  0  0  0  0  0  0  0  0
    5.6017    0.2793   -4.9094 H   0  0  0  0  0  0  0  0  0  0  0  0
    2.8011   -2.3261   -6.5437 H   0  0  0  0  0  0  0  0  0  0  0  0
    5.1509    2.6062    4.8945 H   0  0  0  0  0  0  0  0  0  0  0  0
    4.4692    4.0278    4.0855 H   0  0  0  0  0  0  0  0  0  0  0  0
    7.1296    2.7655    3.6879 H   0  0  0  0  0  0  0  0  0  0  0  0
    6.7230    4.4377    4.0926 H   0  0  0  0  0  0  0  0  0  0  0  0
    4.2101   -2.0395   -8.6841 H   0  0  0  0  0  0  0  0  0  0  0  0
    4.8708   -3.0941   -7.4655 H   0  0  0  0  0  0  0  0  0  0  0  0
    5.4611    1.0116   -7.0406 H   0  0  0  0  0  0  0  0  0  0  0  0
    4.5393    0.4541   -8.4155 H   0  0  0  0  0  0  0  0  0  0  0  0
    6.2755   -3.0704   -9.5121 H   0  0  0  0  0  0  0  0  0  0  0  0
    7.1407   -2.4355   -8.1022 H   0  0  0  0  0  0  0  0  0  0  0  0
    7.4857    0.0089   -7.9214 H   0  0  0  0  0  0  0  0  0  0  0  0
    6.7420    1.0173   -9.1786 H   0  0  0  0  0  0  0  0  0  0  0  0
    6.6527    3.7174   -1.5937 H   0  0  0  0  0  0  0  0  0  0  0  0
    7.2499    4.8632   -2.7699 H   0  0  0  0  0  0  0  0  0  0  0  0
    5.6270    5.0214   -2.1419 H   0  0  0  0  0  0  0  0  0  0  0  0
    5.9490   -0.8632  -10.2508 H   0  0  0  0  0  0  0  0  0  0  0  0
    5.8554    7.9008   -2.1935 H   0  0  0  0  0  0  0  0  0  0  0  0
    8.7224   -1.2971   -9.4675 H   0  0  0  0  0  0  0  0  0  0  0  0
    8.1690   -0.2280  -10.7340 H   0  0  0  0  0  0  0  0  0  0  0  0
    7.9421   -1.9538  -10.8863 H   0  0  0  0  0  0  0  0  0  0  0  0
    8.4551   10.6068   -0.2663 H   0  0  0  0  0  0  0  0  0  0  0  0
    6.5341   10.1846   -1.6594 H   0  0  0  0  0  0  0  0  0  0  0  0
   11.5483    8.2519    2.0325 H   0  0  0  0  0  0  0  0  0  0  0  0
   11.0813    7.2202    0.7019 H   0  0  0  0  0  0  0  0  0  0  0  0
   10.0765    7.3150    2.1283 H   0  0  0  0  0  0  0  0  0  0  0  0
  1  2  2  0  0  0  0
  2  3  1  0  0  0  0
  2  4  1  0  0  0  0
  3  5  1  0  0  0  0
  3 42  1  0  0  0  0
  4  6  2  0  0  0  0
  4  7  1  0  0  0  0
  5  8  1  0  0  0  0
  5 43  1  0  0  0  0
  5 44  1  0  0  0  0
  6  9  1  0  0  0  0
  7 10  2  0  0  0  0
  7 45  1  0  0  0  0
  8 11  2  0  0  0  0
  8 12  1  0  0  0  0
  9 13  2  0  0  0  0
  9 14  1  0  0  0  0
 10 13  1  0  0  0  0
 10 46  1  0  0  0  0
 11 15  1  0  0  0  0
 12 16  2  0  0  0  0
 12 47  1  0  0  0  0
 13 17  1  0  0  0  0
 14 18  1  0  0  0  0
 14 48  1  0  0  0  0
 14 49  1  0  0  0  0
 15 19  2  0  0  0  0
 15 50  1  0  0  0  0
 16 19  1  0  0  0  0
 16 51  1  0  0  0  0
 17 20  1  0  0  0  0
 17 52  1  0  0  0  0
 17 53  1  0  0  0  0
 18 21  1  0  0  0  0
 18 20  1  0  0  0  0
 19 22  1  0  0  0  0
 20 54  1  0  0  0  0
 20 55  1  0  0  0  0
 21 23  2  0  0  0  0
 21 24  1  0  0  0  0
 22 25  1  0  0  0  0
 22 26  1  0  0  0  0
 24 27  1  0  0  0  0
 24 28  2  0  0  0  0
 25 29  1  0  0  0  0
 25 56  1  0  0  0  0
 25 57  1  0  0  0  0
 26 30  1  0  0  0  0
 26 58  1  0  0  0  0
 26 59  1  0  0  0  0
 27 31  1  0  0  0  0
 28 32  1  0  0  0  0
 28 33  1  0  0  0  0
 29 34  1  0  0  0  0
 29 60  1  0  0  0  0
 29 61  1  0  0  0  0
 30 34  1  0  0  0  0
 30 62  1  0  0  0  0
 30 63  1  0  0  0  0
 31 35  2  0  0  0  0
 31 32  1  0  0  0  0
 32 36  2  0  0  0  0
 33 64  1  0  0  0  0
 33 65  1  0  0  0  0
 33 66  1  0  0  0  0
 34 37  1  0  0  0  0
 34 67  1  0  0  0  0
 35 38  1  0  0  0  0
 35 39  1  0  0  0  0
 36 40  1  0  0  0  0
 36 68  1  0  0  0  0
 37 69  1  0  0  0  0
 37 70  1  0  0  0  0
 37 71  1  0  0  0  0
 38 41  1  0  0  0  0
 39 40  2  0  0  0  0
 39 72  1  0  0  0  0
 40 73  1  0  0  0  0
 41 74  1  0  0  0  0
 41 75  1  0  0  0  0
 41 76  1  0  0  0  0
M  CHG  1  34   1
M  END
>  <Molecule Name>
CTX-1019904

>  <SMILES>
COC1=CC=CC2=C1OC(C(=O)N1CCC3=C(C1)N=C(C=C3)C(=O)NCC1=CC=C(C=N1)N1CCN(C)CC1)=C2C

>  <Batch Name>
CTX-1019904-1

>  <Batch Created Date>
2021-10-07

>  <Batch ID>
CTX-1019904-1

>  <External ID>
610EDL010-B

>  <Stereochemistry>
Achiral

>  <Amount 1>
3.4

>  <Unit 1>
mg

>  <CRO 1>
Pharmaron

>  <CRO 1 Total Amount>
16.4

>  <CRO 1 Unit>
mg

>  <Pharmaron Solubility (PBS, pH 7.4): Aqueous Solubility - Batch Mean (uM)>
211.991

>  <Pharmaron Solubility (PBS, pH 7.4): Aqueous Solubility - Batch Mean (uM) Standard Deviation (±)>


>  <Pharmaron Solubility (PBS, pH 7.4): Aqueous Solubility - Batch Mean (uM) Count>
1.0

>  <log P>
2.34

>  <log D>
1.93

>  <Pharmaron Caliper Assay (CDK2/CCNE1): Minimum measured (%)>
87.2

>  <Pharmaron Caliper Assay (CDK2/CCNE1): IC50 - Batch Mean (uM)>
8.45

>  <Pharmaron ADPGLO (CDK2/E1-25C): Minimum measured (%)>


>  <Pharmaron ADPGLO (CDK2/E1-25C): IC50 - Batch Mean (uM)>


>  <Pharmaron ADPGLO (CDK2/E1-37C): Minimum measured (%)>


>  <Pharmaron ADPGLO (CDK2/E1-37C): IC50 - Batch Mean (uM)>


>  <IncuCyte Kuramochi RB-WT: IC50 - Batch Mean (uM)>
16.0

>  <IncuCyte Kuramochi RB-KO: IC50 - Batch Mean (uM)>
18.5

>  <DSF (npCDK2/CCNE1): dTm D - Batch Mean [Concentration: 100]>


>  <DSF (npCDK2/CCNE1): dTm D - Batch Mean [Concentration: 20.0]>
0.09699999999999999

>  <DSF (pCDK2/CCNE1): dTm D - Batch Mean [Concentration: 100]>


>  <DSF (pCDK2/CCNE1): dTm D - Batch Mean [Concentration: 20.0]>


>  <RLM: t1/2 - Batch Mean (Min)>


>  <RLM: Cl int - Batch Mean (uL/min/mg protein)>


>  <RLM: ER (Hepatic extraction ratio) - Batch Mean>


>  <HLM: t1/2 - Batch Mean (Min)>


>  <HLM: Cl int - Batch Mean (uL/min/mg protein)>


>  <HLM: ER (Hepatic extraction ratio) - Batch Mean>


>  <MDCK-WT 4% BSA: Papp (A-B) - Batch Mean (10-6, cm/s)>


>  <MDCK-WT 4% BSA: Papp (B-A) - Batch Mean (10-6, cm/s)>


>  <MDCK-WT 4% BSA: Efflux Ratio - Batch Mean>


>  <MDCK-WT 4% BSA: ~Net A_B - Batch Mean (10-6, cm/s)>


>  <pIC50>
5.073143

>  <Selection_1>
Y

>  <Selection_N>


>  <Serie>
Naphthyridine

>  <Selection_T>
N

>  <Train_Vs_Test>


$$$$
