CTX-1020453
 OpenBabel08272613283D

 70 75  0  0  0  0  0  0  0  0999 V2000
    0.7501   -0.1057   -0.4526 Cl  0  0  0  0  0  0  0  0  0  0  0  0
    2.4504   -0.3549   -0.4659 C   0  0  0  0  0  0  0  0  0  0  0  0
    3.1232   -1.5872   -0.2657 C   0  0  0  0  0  0  0  0  0  0  0  0
    3.3471    0.7736   -0.7015 C   0  0  0  0  0  0  0  0  0  0  0  0
    4.5447   -1.1901   -0.4231 O   0  0  0  0  0  0  0  0  0  0  0  0
    2.3741   -3.0439    0.0822 C   0  0  0  0  0  0  0  0  0  0  0  0
    4.6554    0.2760   -0.6909 C   0  0  0  0  0  0  0  0  0  0  0  0
    3.1753    2.2091   -0.9360 C   0  0  0  0  0  0  0  0  0  0  0  0
    1.1314   -3.0274    0.2161 O   0  0  0  0  0  0  0  0  0  0  0  0
    2.9233   -4.4471    0.2450 N   0  0  0  0  0  0  0  0  0  0  0  0
    5.7535    1.2478   -0.9319 C   0  0  0  0  0  0  0  0  0  0  0  0
    4.2465    3.1365   -1.1398 C   0  0  0  0  0  0  0  0  0  0  0  0
    2.1355   -5.7949    0.5728 C   0  0  0  0  0  0  0  0  0  0  0  0
    4.2540   -4.5867   -0.1850 C   0  0  0  0  0  0  0  0  0  0  0  0
    5.5347    2.6569   -1.1437 C   0  0  0  0  0  0  0  0  0  0  0  0
    2.8804   -7.2285    0.2806 C   0  0  0  0  0  0  0  0  0  0  0  0
    4.9950   -5.9098   -0.1496 C   0  0  0  0  0  0  0  0  0  0  0  0
    2.2778   -8.4967    0.4447 N   0  0  0  0  0  0  0  0  0  0  0  0
    4.2194   -7.1709   -0.0893 C   0  0  0  0  0  0  0  0  0  0  0  0
    3.0665   -9.6518    0.2277 C   0  0  0  0  0  0  0  0  0  0  0  0
    4.9657   -8.3411   -0.3311 C   0  0  0  0  0  0  0  0  0  0  0  0
    2.6010  -11.1341    0.3509 C   0  0  0  0  0  0  0  0  0  0  0  0
    4.4063   -9.5869   -0.1466 C   0  0  0  0  0  0  0  0  0  0  0  0
    3.3866  -12.0556    0.1591 O   0  0  0  0  0  0  0  0  0  0  0  0
    1.2760  -11.3960    0.6753 N   0  0  0  0  0  0  0  0  0  0  0  0
    0.7582  -12.7733    0.7168 C   0  0  0  0  0  0  0  0  0  0  0  0
   -0.3975  -12.9111    1.6724 C   0  0  0  0  0  0  0  0  0  0  0  0
   -1.7207  -12.7652    1.2758 C   0  0  0  0  0  0  0  0  0  0  0  0
   -0.1548  -13.1497    3.0403 C   0  0  0  0  0  0  0  0  0  0  0  0
   -2.7421  -12.7047    2.2103 C   0  0  0  0  0  0  0  0  0  0  0  0
   -1.2030  -13.1822    3.9616 C   0  0  0  0  0  0  0  0  0  0  0  0
   -2.5247  -12.9334    3.5878 C   0  0  0  0  0  0  0  0  0  0  0  0
   -3.5430  -12.8654    4.4921 N   0  0  0  0  0  0  0  0  0  0  0  0
   -4.8992  -13.3222    4.1408 C   0  0  0  0  0  0  0  0  0  0  0  0
   -3.3125  -12.7282    5.9386 C   0  0  0  0  0  0  0  0  0  0  0  0
   -5.9250  -12.3665    4.7667 C   0  0  0  0  0  0  0  0  0  0  0  0
   -4.3807  -11.7980    6.5398 C   0  0  0  0  0  0  0  0  0  0  0  0
   -5.7295  -12.2812    6.2229 N   0  3  0  0  0  0  0  0  0  0  0  0
   -6.7502  -11.4211    6.8113 C   0  0  0  0  0  0  0  0  0  0  0  0
    2.2120    2.5788   -0.9558 H   0  0  0  0  0  0  0  0  0  0  0  0
    6.7234    0.8956   -0.9485 H   0  0  0  0  0  0  0  0  0  0  0  0
    4.0561    4.1410   -1.2805 H   0  0  0  0  0  0  0  0  0  0  0  0
    1.2352   -5.7831   -0.0053 H   0  0  0  0  0  0  0  0  0  0  0  0
    2.0133   -5.7750    1.6357 H   0  0  0  0  0  0  0  0  0  0  0  0
    4.8297   -3.9094    0.4106 H   0  0  0  0  0  0  0  0  0  0  0  0
    4.1593   -4.4203   -1.2377 H   0  0  0  0  0  0  0  0  0  0  0  0
    6.3317    3.2947   -1.2956 H   0  0  0  0  0  0  0  0  0  0  0  0
    5.6282   -5.8906    0.7128 H   0  0  0  0  0  0  0  0  0  0  0  0
    5.4811   -5.9550   -1.1017 H   0  0  0  0  0  0  0  0  0  0  0  0
    5.9440   -8.2643   -0.6506 H   0  0  0  0  0  0  0  0  0  0  0  0
    4.9631  -10.4452   -0.2816 H   0  0  0  0  0  0  0  0  0  0  0  0
    0.6719  -10.6464    0.8813 H   0  0  0  0  0  0  0  0  0  0  0  0
    1.5443  -13.4290    1.0281 H   0  0  0  0  0  0  0  0  0  0  0  0
    0.4098  -13.0259   -0.2629 H   0  0  0  0  0  0  0  0  0  0  0  0
   -1.9463  -12.7010    0.2708 H   0  0  0  0  0  0  0  0  0  0  0  0
    0.8126  -13.3026    3.3656 H   0  0  0  0  0  0  0  0  0  0  0  0
   -3.6975  -12.4844    1.8882 H   0  0  0  0  0  0  0  0  0  0  0  0
   -0.9944  -13.3969    4.9492 H   0  0  0  0  0  0  0  0  0  0  0  0
   -5.0536  -14.3116    4.5178 H   0  0  0  0  0  0  0  0  0  0  0  0
   -5.0141  -13.3305    3.0770 H   0  0  0  0  0  0  0  0  0  0  0  0
   -2.3411  -12.3126    6.1076 H   0  0  0  0  0  0  0  0  0  0  0  0
   -3.3735  -13.6901    6.4032 H   0  0  0  0  0  0  0  0  0  0  0  0
   -6.9117  -12.7278    4.5646 H   0  0  0  0  0  0  0  0  0  0  0  0
   -5.7943  -11.3929    4.3426 H   0  0  0  0  0  0  0  0  0  0  0  0
   -4.2566  -10.8146    6.1369 H   0  0  0  0  0  0  0  0  0  0  0  0
   -4.2628  -11.7821    7.6032 H   0  0  0  0  0  0  0  0  0  0  0  0
   -5.8234  -13.2143    6.6241 H   0  0  0  0  0  0  0  0  0  0  0  0
   -6.6665  -10.4363    6.4013 H   0  0  0  0  0  0  0  0  0  0  0  0
   -6.6131  -11.3787    7.8717 H   0  0  0  0  0  0  0  0  0  0  0  0
   -7.7198  -11.8172    6.5927 H   0  0  0  0  0  0  0  0  0  0  0  0
  1  2  1  0  0  0  0
  2  3  2  0  0  0  0
  2  4  1  0  0  0  0
  3  5  1  0  0  0  0
  3  6  1  0  0  0  0
  4  7  2  0  0  0  0
  4  8  1  0  0  0  0
  5  7  1  0  0  0  0
  6  9  2  0  0  0  0
  6 10  1  0  0  0  0
  7 11  1  0  0  0  0
  8 12  2  0  0  0  0
  8 40  1  0  0  0  0
 10 13  1  0  0  0  0
 10 14  1  0  0  0  0
 11 15  2  0  0  0  0
 11 41  1  0  0  0  0
 12 15  1  0  0  0  0
 12 42  1  0  0  0  0
 13 16  1  0  0  0  0
 13 43  1  0  0  0  0
 13 44  1  0  0  0  0
 14 17  1  0  0  0  0
 14 45  1  0  0  0  0
 14 46  1  0  0  0  0
 15 47  1  0  0  0  0
 16 18  2  0  0  0  0
 16 19  1  0  0  0  0
 17 19  1  0  0  0  0
 17 48  1  0  0  0  0
 17 49  1  0  0  0  0
 18 20  1  0  0  0  0
 19 21  2  0  0  0  0
 20 22  1  0  0  0  0
 20 23  2  0  0  0  0
 21 23  1  0  0  0  0
 21 50  1  0  0  0  0
 22 24  2  0  0  0  0
 22 25  1  0  0  0  0
 23 51  1  0  0  0  0
 25 26  1  0  0  0  0
 25 52  1  0  0  0  0
 26 27  1  0  0  0  0
 26 53  1  0  0  0  0
 26 54  1  0  0  0  0
 27 28  2  0  0  0  0
 27 29  1  0  0  0  0
 28 30  1  0  0  0  0
 28 55  1  0  0  0  0
 29 31  2  0  0  0  0
 29 56  1  0  0  0  0
 30 32  2  0  0  0  0
 30 57  1  0  0  0  0
 31 32  1  0  0  0  0
 31 58  1  0  0  0  0
 32 33  1  0  0  0  0
 33 34  1  0  0  0  0
 33 35  1  0  0  0  0
 34 36  1  0  0  0  0
 34 59  1  0  0  0  0
 34 60  1  0  0  0  0
 35 37  1  0  0  0  0
 35 61  1  0  0  0  0
 35 62  1  0  0  0  0
 36 38  1  0  0  0  0
 36 63  1  0  0  0  0
 36 64  1  0  0  0  0
 37 38  1  0  0  0  0
 37 65  1  0  0  0  0
 37 66  1  0  0  0  0
 38 39  1  0  0  0  0
 38 67  1  0  0  0  0
 39 68  1  0  0  0  0
 39 69  1  0  0  0  0
 39 70  1  0  0  0  0
M  CHG  1  38   1
M  END
>  <Molecule Name>
CTX-1020453

>  <SMILES>
CN1CCN(CC1)C1=CC=C(CNC(=O)C2=CC=C3CCN(CC3=N2)C(=O)C2=C(Cl)C3=C(O2)C=CC=C3)C=C1

>  <Batch Name>
CTX-1020453-1

>  <Batch Created Date>
2021-10-21

>  <Batch ID>
CTX-1020453-1

>  <External ID>
P841-0206

>  <Stereochemistry>
Achiral

>  <Amount 1>
4.3

>  <Unit 1>
mg

>  <CRO 1>
Pharmaron

>  <CRO 1 Total Amount>
33.3

>  <CRO 1 Unit>
mg

>  <Pharmaron Solubility (PBS, pH 7.4): Aqueous Solubility - Batch Mean (uM)>
8.2603

>  <Pharmaron Solubility (PBS, pH 7.4): Aqueous Solubility - Batch Mean (uM) Standard Deviation (±)>


>  <Pharmaron Solubility (PBS, pH 7.4): Aqueous Solubility - Batch Mean (uM) Count>
1.0

>  <log P>
3.72

>  <log D>
3.09

>  <Pharmaron Caliper Assay (CDK2/CCNE1): Minimum measured (%)>
60.0

>  <Pharmaron Caliper Assay (CDK2/CCNE1): IC50 - Batch Mean (uM)>
1.73

>  <Pharmaron ADPGLO (CDK2/E1-25C): Minimum measured (%)>


>  <Pharmaron ADPGLO (CDK2/E1-25C): IC50 - Batch Mean (uM)>


>  <Pharmaron ADPGLO (CDK2/E1-37C): Minimum measured (%)>


>  <Pharmaron ADPGLO (CDK2/E1-37C): IC50 - Batch Mean (uM)>


>  <IncuCyte Kuramochi RB-WT: IC50 - Batch Mean (uM)>
5.97

>  <IncuCyte Kuramochi RB-KO: IC50 - Batch Mean (uM)>
5.37

>  <DSF (npCDK2/CCNE1): dTm D - Batch Mean [Concentration: 100]>


>  <DSF (npCDK2/CCNE1): dTm D - Batch Mean [Concentration: 20.0]>
0.941

>  <DSF (pCDK2/CCNE1): dTm D - Batch Mean [Concentration: 100]>


>  <DSF (pCDK2/CCNE1): dTm D - Batch Mean [Concentration: 20.0]>


>  <RLM: t1/2 - Batch Mean (Min)>


>  <RLM: Cl int - Batch Mean (uL/min/mg protein)>


>  <RLM: ER (Hepatic extraction ratio) - Batch Mean>


>  <HLM: t1/2 - Batch Mean (Min)>


>  <HLM: Cl int - Batch Mean (uL/min/mg protein)>


>  <HLM: ER (Hepatic extraction ratio) - Batch Mean>


>  <MDCK-WT 4% BSA: Papp (A-B) - Batch Mean (10-6, cm/s)>


>  <MDCK-WT 4% BSA: Papp (B-A) - Batch Mean (10-6, cm/s)>


>  <MDCK-WT 4% BSA: Efflux Ratio - Batch Mean>


>  <MDCK-WT 4% BSA: ~Net A_B - Batch Mean (10-6, cm/s)>


>  <pIC50>
5.761954

>  <Selection_1>
Y

>  <Selection_N>


>  <Serie>
Naphthyridine

>  <Selection_T>
N

>  <Train_Vs_Test>


$$$$
