CTX-1019757
 OpenBabel08272613283D

 74 79  0  0  0  0  0  0  0  0999 V2000
    2.2298   -0.7193    1.0971 O   0  0  0  0  0  0  0  0  0  0  0  0
    2.2259   -0.0072    0.0891 C   0  0  0  0  0  0  0  0  0  0  0  0
    1.5783    1.2055    0.0314 N   0  0  0  0  0  0  0  0  0  0  0  0
    2.9650   -0.4430   -1.1352 C   0  0  0  0  0  0  0  0  0  0  0  0
    0.7769    1.6710    1.1384 C   0  0  0  0  0  0  0  0  0  0  0  0
    2.5994   -0.0413   -2.4334 C   0  0  0  0  0  0  0  0  0  0  0  0
    4.0531   -1.3155   -0.9698 C   0  0  0  0  0  0  0  0  0  0  0  0
    0.6924    3.1734    1.1814 C   0  0  0  0  0  0  0  0  0  0  0  0
    3.3415   -0.4713   -3.5472 C   0  0  0  0  0  0  0  0  0  0  0  0
    4.7943   -1.7475   -2.0728 C   0  0  0  0  0  0  0  0  0  0  0  0
   -0.2961    3.8488    0.4748 C   0  0  0  0  0  0  0  0  0  0  0  0
    1.6015    3.9196    1.9381 C   0  0  0  0  0  0  0  0  0  0  0  0
    4.4548   -1.3103   -3.3545 C   0  0  0  0  0  0  0  0  0  0  0  0
    2.9473   -0.1226   -4.9712 C   0  0  0  0  0  0  0  0  0  0  0  0
   -0.3978    5.2446    0.5608 C   0  0  0  0  0  0  0  0  0  0  0  0
    1.4871    5.3177    2.0228 C   0  0  0  0  0  0  0  0  0  0  0  0
    5.2400   -1.7132   -4.5779 C   0  0  0  0  0  0  0  0  0  0  0  0
    4.0954    0.0908   -5.8544 N   0  0  0  0  0  0  0  0  0  0  0  0
    0.4825    6.0137    1.3401 C   0  0  0  0  0  0  0  0  0  0  0  0
    5.3873   -0.4958   -5.4980 C   0  0  0  0  0  0  0  0  0  0  0  0
    3.8991    0.8054   -7.0403 C   0  0  0  0  0  0  0  0  0  0  0  0
    0.2910    7.3776    1.4560 N   0  0  0  0  0  0  0  0  0  0  0  0
    2.8033    0.7935   -7.6011 O   0  0  0  0  0  0  0  0  0  0  0  0
    4.9524    1.7647   -7.4153 C   0  0  0  0  0  0  0  0  0  0  0  0
    0.7952    8.1611    2.5945 C   0  0  0  0  0  0  0  0  0  0  0  0
    0.0606    8.1916    0.2505 C   0  0  0  0  0  0  0  0  0  0  0  0
    5.6438    2.3051   -6.3476 O   0  0  0  0  0  0  0  0  0  0  0  0
    4.8967    2.7607   -8.3957 C   0  0  0  0  0  0  0  0  0  0  0  0
   -0.1887    9.3268    2.8859 C   0  0  0  0  0  0  0  0  0  0  0  0
   -0.9265    9.3325    0.5844 C   0  0  0  0  0  0  0  0  0  0  0  0
    5.2676    3.6079   -6.3514 C   0  0  0  0  0  0  0  0  0  0  0  0
    4.7321    3.9320   -7.5920 C   0  0  0  0  0  0  0  0  0  0  0  0
    4.6475    2.6523   -9.8531 C   0  0  0  0  0  0  0  0  0  0  0  0
   -0.4513   10.1811    1.7017 N   0  3  0  0  0  0  0  0  0  0  0  0
    5.2783    4.4423   -5.2440 C   0  0  0  0  0  0  0  0  0  0  0  0
    4.1244    5.1875   -7.7517 C   0  0  0  0  0  0  0  0  0  0  0  0
   -1.4419   11.2085    2.0150 C   0  0  0  0  0  0  0  0  0  0  0  0
    4.5738    5.6385   -5.3897 C   0  0  0  0  0  0  0  0  0  0  0  0
    3.9961    5.9983   -6.6147 C   0  0  0  0  0  0  0  0  0  0  0  0
    1.6625    1.7631   -0.7756 H   0  0  0  0  0  0  0  0  0  0  0  0
    1.2137    1.3234    2.0512 H   0  0  0  0  0  0  0  0  0  0  0  0
   -0.2142    1.2879    1.0128 H   0  0  0  0  0  0  0  0  0  0  0  0
    1.7812    0.5729   -2.5686 H   0  0  0  0  0  0  0  0  0  0  0  0
    4.3077   -1.6409   -0.0241 H   0  0  0  0  0  0  0  0  0  0  0  0
    5.5919   -2.3889   -1.9401 H   0  0  0  0  0  0  0  0  0  0  0  0
   -0.9577    3.3207   -0.1155 H   0  0  0  0  0  0  0  0  0  0  0  0
    2.3644    3.4384    2.4396 H   0  0  0  0  0  0  0  0  0  0  0  0
    2.3626    0.7733   -4.9519 H   0  0  0  0  0  0  0  0  0  0  0  0
    2.3983   -0.9543   -5.3606 H   0  0  0  0  0  0  0  0  0  0  0  0
   -1.1448    5.7233    0.0337 H   0  0  0  0  0  0  0  0  0  0  0  0
    2.1597    5.8439    2.6022 H   0  0  0  0  0  0  0  0  0  0  0  0
    4.7227   -2.4939   -5.0955 H   0  0  0  0  0  0  0  0  0  0  0  0
    6.2073   -2.0665   -4.2873 H   0  0  0  0  0  0  0  0  0  0  0  0
    5.8859   -0.8003   -6.3944 H   0  0  0  0  0  0  0  0  0  0  0  0
    5.9493    0.2466   -4.9708 H   0  0  0  0  0  0  0  0  0  0  0  0
    1.7602    8.5579    2.3569 H   0  0  0  0  0  0  0  0  0  0  0  0
    0.8748    7.5329    3.4570 H   0  0  0  0  0  0  0  0  0  0  0  0
   -0.3520    7.5770   -0.5221 H   0  0  0  0  0  0  0  0  0  0  0  0
    0.9882    8.6072   -0.0836 H   0  0  0  0  0  0  0  0  0  0  0  0
    0.2274    9.9373    3.6599 H   0  0  0  0  0  0  0  0  0  0  0  0
   -1.1216    8.8900    3.1755 H   0  0  0  0  0  0  0  0  0  0  0  0
   -1.8686    8.9035    0.8553 H   0  0  0  0  0  0  0  0  0  0  0  0
   -1.0134    9.9532   -0.2828 H   0  0  0  0  0  0  0  0  0  0  0  0
    4.8566    1.6543  -10.1774 H   0  0  0  0  0  0  0  0  0  0  0  0
    5.2821    3.3374  -10.3754 H   0  0  0  0  0  0  0  0  0  0  0  0
    3.6239    2.8869  -10.0583 H   0  0  0  0  0  0  0  0  0  0  0  0
    0.4129   10.6497    1.4300 H   0  0  0  0  0  0  0  0  0  0  0  0
    5.7728    4.1959   -4.3723 H   0  0  0  0  0  0  0  0  0  0  0  0
    3.7841    5.5028   -8.6735 H   0  0  0  0  0  0  0  0  0  0  0  0
   -2.3605   10.7420    2.3039 H   0  0  0  0  0  0  0  0  0  0  0  0
   -1.6078   11.8190    1.1520 H   0  0  0  0  0  0  0  0  0  0  0  0
   -1.0827   11.8170    2.8186 H   0  0  0  0  0  0  0  0  0  0  0  0
    4.4765    6.2703   -4.5795 H   0  0  0  0  0  0  0  0  0  0  0  0
    3.4640    6.8800   -6.6816 H   0  0  0  0  0  0  0  0  0  0  0  0
  1  2  2  0  0  0  0
  2  3  1  0  0  0  0
  2  4  1  0  0  0  0
  3  5  1  0  0  0  0
  3 40  1  0  0  0  0
  4  6  2  0  0  0  0
  4  7  1  0  0  0  0
  5  8  1  0  0  0  0
  5 41  1  0  0  0  0
  5 42  1  0  0  0  0
  6  9  1  0  0  0  0
  6 43  1  0  0  0  0
  7 10  2  0  0  0  0
  7 44  1  0  0  0  0
  8 11  2  0  0  0  0
  8 12  1  0  0  0  0
  9 13  2  0  0  0  0
  9 14  1  0  0  0  0
 10 13  1  0  0  0  0
 10 45  1  0  0  0  0
 11 15  1  0  0  0  0
 11 46  1  0  0  0  0
 12 16  2  0  0  0  0
 12 47  1  0  0  0  0
 13 17  1  0  0  0  0
 14 18  1  0  0  0  0
 14 48  1  0  0  0  0
 14 49  1  0  0  0  0
 15 19  2  0  0  0  0
 15 50  1  0  0  0  0
 16 19  1  0  0  0  0
 16 51  1  0  0  0  0
 17 20  1  0  0  0  0
 17 52  1  0  0  0  0
 17 53  1  0  0  0  0
 18 21  1  0  0  0  0
 18 20  1  0  0  0  0
 19 22  1  0  0  0  0
 20 54  1  0  0  0  0
 20 55  1  0  0  0  0
 21 23  2  0  0  0  0
 21 24  1  0  0  0  0
 22 25  1  0  0  0  0
 22 26  1  0  0  0  0
 24 27  1  0  0  0  0
 24 28  2  0  0  0  0
 25 29  1  0  0  0  0
 25 56  1  0  0  0  0
 25 57  1  0  0  0  0
 26 30  1  0  0  0  0
 26 58  1  0  0  0  0
 26 59  1  0  0  0  0
 27 31  1  0  0  0  0
 28 32  1  0  0  0  0
 28 33  1  0  0  0  0
 29 34  1  0  0  0  0
 29 60  1  0  0  0  0
 29 61  1  0  0  0  0
 30 34  1  0  0  0  0
 30 62  1  0  0  0  0
 30 63  1  0  0  0  0
 31 35  2  0  0  0  0
 31 32  1  0  0  0  0
 32 36  2  0  0  0  0
 33 64  1  0  0  0  0
 33 65  1  0  0  0  0
 33 66  1  0  0  0  0
 34 37  1  0  0  0  0
 34 67  1  0  0  0  0
 35 38  1  0  0  0  0
 35 68  1  0  0  0  0
 36 39  1  0  0  0  0
 36 69  1  0  0  0  0
 37 70  1  0  0  0  0
 37 71  1  0  0  0  0
 37 72  1  0  0  0  0
 38 39  2  0  0  0  0
 38 73  1  0  0  0  0
 39 74  1  0  0  0  0
M  CHG  1  34   1
M  END
>  <Molecule Name>
CTX-1019757

>  <SMILES>
CN1CCN(CC1)C1=CC=C(CNC(=O)C2=CC3=C(CCN(C3)C(=O)C3=C(C)C4=C(O3)C=CC=C4)C=C2)C=C1

>  <Batch Name>
CTX-1019757-1

>  <Batch Created Date>
2021-09-09

>  <Batch ID>
CTX-1019757-1

>  <External ID>
S04-03-0002

>  <Stereochemistry>
Achiral

>  <Amount 1>
4.3

>  <Unit 1>
mg

>  <CRO 1>
Pharmaron

>  <CRO 1 Total Amount>
23.8

>  <CRO 1 Unit>
mg

>  <Pharmaron Solubility (PBS, pH 7.4): Aqueous Solubility - Batch Mean (uM)>
25.1286

>  <Pharmaron Solubility (PBS, pH 7.4): Aqueous Solubility - Batch Mean (uM) Standard Deviation (±)>


>  <Pharmaron Solubility (PBS, pH 7.4): Aqueous Solubility - Batch Mean (uM) Count>
1.0

>  <log P>
4.38

>  <log D>
3.75

>  <Pharmaron Caliper Assay (CDK2/CCNE1): Minimum measured (%)>
51.6

>  <Pharmaron Caliper Assay (CDK2/CCNE1): IC50 - Batch Mean (uM)>
4.42

>  <Pharmaron ADPGLO (CDK2/E1-25C): Minimum measured (%)>


>  <Pharmaron ADPGLO (CDK2/E1-25C): IC50 - Batch Mean (uM)>


>  <Pharmaron ADPGLO (CDK2/E1-37C): Minimum measured (%)>


>  <Pharmaron ADPGLO (CDK2/E1-37C): IC50 - Batch Mean (uM)>


>  <IncuCyte Kuramochi RB-WT: IC50 - Batch Mean (uM)>
8.43

>  <IncuCyte Kuramochi RB-KO: IC50 - Batch Mean (uM)>
7.23

>  <DSF (npCDK2/CCNE1): dTm D - Batch Mean [Concentration: 100]>


>  <DSF (npCDK2/CCNE1): dTm D - Batch Mean [Concentration: 20.0]>
1.197

>  <DSF (pCDK2/CCNE1): dTm D - Batch Mean [Concentration: 100]>


>  <DSF (pCDK2/CCNE1): dTm D - Batch Mean [Concentration: 20.0]>


>  <RLM: t1/2 - Batch Mean (Min)>


>  <RLM: Cl int - Batch Mean (uL/min/mg protein)>


>  <RLM: ER (Hepatic extraction ratio) - Batch Mean>


>  <HLM: t1/2 - Batch Mean (Min)>
9.88

>  <HLM: Cl int - Batch Mean (uL/min/mg protein)>
140.6

>  <HLM: ER (Hepatic extraction ratio) - Batch Mean>
0.873

>  <MDCK-WT 4% BSA: Papp (A-B) - Batch Mean (10-6, cm/s)>
2.73

>  <MDCK-WT 4% BSA: Papp (B-A) - Batch Mean (10-6, cm/s)>
3.72

>  <MDCK-WT 4% BSA: Efflux Ratio - Batch Mean>
1.36

>  <MDCK-WT 4% BSA: ~Net A_B - Batch Mean (10-6, cm/s)>
3.2277

>  <pIC50>
5.354578

>  <Selection_1>
Y

>  <Selection_N>
N

>  <Serie>
Other

>  <Selection_T>
N

>  <Train_Vs_Test>


$$$$
