CTX-1019630
 OpenBabel08272613283D

 68 72  0  0  0  0  0  0  0  0999 V2000
    1.1549   -0.1865   -0.1014 O   0  0  0  0  0  0  0  0  0  0  0  0
    2.3642   -0.0261    0.0067 C   0  0  0  0  0  0  0  0  0  0  0  0
    3.0650    0.9314   -0.6892 N   0  0  0  0  0  0  0  0  0  0  0  0
    3.1734   -0.9111    0.9085 C   0  0  0  0  0  0  0  0  0  0  0  0
    2.4124    1.8158   -1.6280 C   0  0  0  0  0  0  0  0  0  0  0  0
    4.5128   -0.6591    1.0400 N   0  0  0  0  0  0  0  0  0  0  0  0
    2.5144   -1.9545    1.5393 C   0  0  0  0  0  0  0  0  0  0  0  0
    2.9575    1.6588   -3.0228 C   0  0  0  0  0  0  0  0  0  0  0  0
    5.2168   -1.5000    1.8510 C   0  0  0  0  0  0  0  0  0  0  0  0
    3.2466   -2.8187    2.3332 C   0  0  0  0  0  0  0  0  0  0  0  0
    2.8983    0.4251   -3.6765 C   0  0  0  0  0  0  0  0  0  0  0  0
    3.4868    2.7525   -3.7152 C   0  0  0  0  0  0  0  0  0  0  0  0
    4.6183   -2.6122    2.4714 C   0  0  0  0  0  0  0  0  0  0  0  0
    6.7117   -1.2332    2.0366 C   0  0  0  0  0  0  0  0  0  0  0  0
    3.3935    0.2884   -4.9761 C   0  0  0  0  0  0  0  0  0  0  0  0
    3.9750    2.6056   -5.0216 C   0  0  0  0  0  0  0  0  0  0  0  0
    5.4102   -3.5631    3.3193 C   0  0  0  0  0  0  0  0  0  0  0  0
    7.3408   -2.0993    3.0498 N   0  0  0  0  0  0  0  0  0  0  0  0
    3.9511    1.3689   -5.6759 C   0  0  0  0  0  0  0  0  0  0  0  0
    6.8910   -3.4862    2.9920 C   0  0  0  0  0  0  0  0  0  0  0  0
    8.0871   -1.5138    4.0815 C   0  0  0  0  0  0  0  0  0  0  0  0
    4.3783    1.1873   -6.9791 N   0  0  0  0  0  0  0  0  0  0  0  0
    8.2167   -0.2943    4.1300 O   0  0  0  0  0  0  0  0  0  0  0  0
    8.7091   -2.3747    5.0900 C   0  0  0  0  0  0  0  0  0  0  0  0
    4.4412    2.3014   -7.9338 C   0  0  0  0  0  0  0  0  0  0  0  0
    5.3661    0.1280   -7.2582 C   0  0  0  0  0  0  0  0  0  0  0  0
    8.9011   -2.0383    6.4229 N   0  0  0  0  0  0  0  0  0  0  0  0
    9.3125   -3.6212    4.9400 C   0  0  0  0  0  0  0  0  0  0  0  0
    4.2381    1.7408   -9.3634 C   0  0  0  0  0  0  0  0  0  0  0  0
    5.1637   -0.3911   -8.7017 C   0  0  0  0  0  0  0  0  0  0  0  0
    9.5412   -3.0614    7.0853 C   0  0  0  0  0  0  0  0  0  0  0  0
    8.4850   -0.8321    7.1085 C   0  0  0  0  0  0  0  0  0  0  0  0
    9.7585   -4.0812    6.1960 C   0  0  0  0  0  0  0  0  0  0  0  0
    5.2275    0.6925   -9.7124 N   0  3  0  0  0  0  0  0  0  0  0  0
    4.9636    0.1642  -11.0481 C   0  0  0  0  0  0  0  0  0  0  0  0
    4.0350    1.0164   -0.5442 H   0  0  0  0  0  0  0  0  0  0  0  0
    2.5609    2.8269   -1.3108 H   0  0  0  0  0  0  0  0  0  0  0  0
    1.3722    1.5660   -1.6493 H   0  0  0  0  0  0  0  0  0  0  0  0
    1.4976   -2.0841    1.4190 H   0  0  0  0  0  0  0  0  0  0  0  0
    2.7842   -3.6048    2.8162 H   0  0  0  0  0  0  0  0  0  0  0  0
    2.4863   -0.3903   -3.1964 H   0  0  0  0  0  0  0  0  0  0  0  0
    3.5186    3.6779   -3.2596 H   0  0  0  0  0  0  0  0  0  0  0  0
    6.8394   -0.2138    2.3357 H   0  0  0  0  0  0  0  0  0  0  0  0
    7.1881   -1.4439    1.1019 H   0  0  0  0  0  0  0  0  0  0  0  0
    3.3477   -0.6349   -5.4348 H   0  0  0  0  0  0  0  0  0  0  0  0
    4.3605    3.4280   -5.5115 H   0  0  0  0  0  0  0  0  0  0  0  0
    5.0646   -4.5601    3.1418 H   0  0  0  0  0  0  0  0  0  0  0  0
    5.2753   -3.2949    4.3464 H   0  0  0  0  0  0  0  0  0  0  0  0
    7.0574   -3.8725    2.0082 H   0  0  0  0  0  0  0  0  0  0  0  0
    7.4400   -4.0647    3.7053 H   0  0  0  0  0  0  0  0  0  0  0  0
    5.3958    2.7799   -7.8667 H   0  0  0  0  0  0  0  0  0  0  0  0
    3.6777    3.0170   -7.7104 H   0  0  0  0  0  0  0  0  0  0  0  0
    5.2320   -0.6773   -6.5665 H   0  0  0  0  0  0  0  0  0  0  0  0
    6.3551    0.5231   -7.1543 H   0  0  0  0  0  0  0  0  0  0  0  0
    9.4168   -4.1293    4.0479 H   0  0  0  0  0  0  0  0  0  0  0  0
    4.3304    2.5452  -10.0630 H   0  0  0  0  0  0  0  0  0  0  0  0
    3.2666    1.2939   -9.4007 H   0  0  0  0  0  0  0  0  0  0  0  0
    4.2053   -0.8626   -8.7650 H   0  0  0  0  0  0  0  0  0  0  0  0
    5.9566   -1.0779   -8.9130 H   0  0  0  0  0  0  0  0  0  0  0  0
    9.8113   -3.0606    8.0813 H   0  0  0  0  0  0  0  0  0  0  0  0
    8.0101   -0.1722    6.4129 H   0  0  0  0  0  0  0  0  0  0  0  0
    9.3410   -0.3488    7.5313 H   0  0  0  0  0  0  0  0  0  0  0  0
    7.7966   -1.0842    7.8879 H   0  0  0  0  0  0  0  0  0  0  0  0
   10.1684   -5.0050    6.4047 H   0  0  0  0  0  0  0  0  0  0  0  0
    6.1636    1.0976   -9.7146 H   0  0  0  0  0  0  0  0  0  0  0  0
    3.9851   -0.2679  -11.0738 H   0  0  0  0  0  0  0  0  0  0  0  0
    5.6904   -0.5843  -11.2856 H   0  0  0  0  0  0  0  0  0  0  0  0
    5.0220    0.9578  -11.7634 H   0  0  0  0  0  0  0  0  0  0  0  0
  1  2  2  0  0  0  0
  2  3  1  0  0  0  0
  2  4  1  0  0  0  0
  3  5  1  0  0  0  0
  3 36  1  0  0  0  0
  4  6  2  0  0  0  0
  4  7  1  0  0  0  0
  5  8  1  0  0  0  0
  5 37  1  0  0  0  0
  5 38  1  0  0  0  0
  6  9  1  0  0  0  0
  7 10  2  0  0  0  0
  7 39  1  0  0  0  0
  8 11  2  0  0  0  0
  8 12  1  0  0  0  0
  9 13  2  0  0  0  0
  9 14  1  0  0  0  0
 10 13  1  0  0  0  0
 10 40  1  0  0  0  0
 11 15  1  0  0  0  0
 11 41  1  0  0  0  0
 12 16  2  0  0  0  0
 12 42  1  0  0  0  0
 13 17  1  0  0  0  0
 14 18  1  0  0  0  0
 14 43  1  0  0  0  0
 14 44  1  0  0  0  0
 15 19  2  0  0  0  0
 15 45  1  0  0  0  0
 16 19  1  0  0  0  0
 16 46  1  0  0  0  0
 17 20  1  0  0  0  0
 17 47  1  0  0  0  0
 17 48  1  0  0  0  0
 18 21  1  0  0  0  0
 18 20  1  0  0  0  0
 19 22  1  0  0  0  0
 20 49  1  0  0  0  0
 20 50  1  0  0  0  0
 21 23  2  0  0  0  0
 21 24  1  0  0  0  0
 22 25  1  0  0  0  0
 22 26  1  0  0  0  0
 24 27  1  0  0  0  0
 24 28  2  0  0  0  0
 25 29  1  0  0  0  0
 25 51  1  0  0  0  0
 25 52  1  0  0  0  0
 26 30  1  0  0  0  0
 26 53  1  0  0  0  0
 26 54  1  0  0  0  0
 27 31  1  0  0  0  0
 27 32  1  0  0  0  0
 28 33  1  0  0  0  0
 28 55  1  0  0  0  0
 29 34  1  0  0  0  0
 29 56  1  0  0  0  0
 29 57  1  0  0  0  0
 30 34  1  0  0  0  0
 30 58  1  0  0  0  0
 30 59  1  0  0  0  0
 31 33  2  0  0  0  0
 31 60  1  0  0  0  0
 32 61  1  0  0  0  0
 32 62  1  0  0  0  0
 32 63  1  0  0  0  0
 33 64  1  0  0  0  0
 34 35  1  0  0  0  0
 34 65  1  0  0  0  0
 35 66  1  0  0  0  0
 35 67  1  0  0  0  0
 35 68  1  0  0  0  0
M  CHG  1  34   1
M  END
>  <Molecule Name>
CTX-1019630

>  <SMILES>
CN1C=CC=C1C(=O)N1CCC2=C(C1)N=C(C=C2)C(=O)NCC1=CC=C(C=C1)N1CCN(C)CC1

>  <Batch Name>
CTX-1019630-1

>  <Batch Created Date>
2021-08-19

>  <Batch ID>
CTX-1019630-1

>  <External ID>
P841-0145

>  <Stereochemistry>
Achiral

>  <Amount 1>
4.4

>  <Unit 1>
mg

>  <CRO 1>
Pharmaron

>  <CRO 1 Total Amount>
15.27

>  <CRO 1 Unit>
mg

>  <Pharmaron Solubility (PBS, pH 7.4): Aqueous Solubility - Batch Mean (uM)>
262.14

>  <Pharmaron Solubility (PBS, pH 7.4): Aqueous Solubility - Batch Mean (uM) Standard Deviation (±)>


>  <Pharmaron Solubility (PBS, pH 7.4): Aqueous Solubility - Batch Mean (uM) Count>
1.0

>  <log P>
2.26

>  <log D>
1.63

>  <Pharmaron Caliper Assay (CDK2/CCNE1): Minimum measured (%)>
70.2

>  <Pharmaron Caliper Assay (CDK2/CCNE1): IC50 - Batch Mean (uM)>
8.8

>  <Pharmaron ADPGLO (CDK2/E1-25C): Minimum measured (%)>


>  <Pharmaron ADPGLO (CDK2/E1-25C): IC50 - Batch Mean (uM)>


>  <Pharmaron ADPGLO (CDK2/E1-37C): Minimum measured (%)>


>  <Pharmaron ADPGLO (CDK2/E1-37C): IC50 - Batch Mean (uM)>


>  <IncuCyte Kuramochi RB-WT: IC50 - Batch Mean (uM)>
20.0

>  <IncuCyte Kuramochi RB-KO: IC50 - Batch Mean (uM)>
20.0

>  <DSF (npCDK2/CCNE1): dTm D - Batch Mean [Concentration: 100]>
0.129

>  <DSF (npCDK2/CCNE1): dTm D - Batch Mean [Concentration: 20.0]>


>  <DSF (pCDK2/CCNE1): dTm D - Batch Mean [Concentration: 100]>


>  <DSF (pCDK2/CCNE1): dTm D - Batch Mean [Concentration: 20.0]>


>  <RLM: t1/2 - Batch Mean (Min)>


>  <RLM: Cl int - Batch Mean (uL/min/mg protein)>


>  <RLM: ER (Hepatic extraction ratio) - Batch Mean>


>  <HLM: t1/2 - Batch Mean (Min)>


>  <HLM: Cl int - Batch Mean (uL/min/mg protein)>


>  <HLM: ER (Hepatic extraction ratio) - Batch Mean>


>  <MDCK-WT 4% BSA: Papp (A-B) - Batch Mean (10-6, cm/s)>


>  <MDCK-WT 4% BSA: Papp (B-A) - Batch Mean (10-6, cm/s)>


>  <MDCK-WT 4% BSA: Efflux Ratio - Batch Mean>


>  <MDCK-WT 4% BSA: ~Net A_B - Batch Mean (10-6, cm/s)>


>  <pIC50>
5.055517

>  <Selection_1>
Y

>  <Selection_N>


>  <Serie>
Naphthyridine

>  <Selection_T>
N

>  <Train_Vs_Test>


$$$$
