CTX-1020440
 OpenBabel08272613283D

 67 72  0  0  0  0  0  0  0  0999 V2000
    1.8179   -0.6931   -0.0540 S   0  0  0  0  0  0  0  0  0  0  0  0
    2.1587    0.9856    0.0332 C   0  0  0  0  0  0  0  0  0  0  0  0
    0.1384   -0.4231    0.0037 C   0  0  0  0  0  0  0  0  0  0  0  0
    3.5102    1.5407    0.0540 C   0  0  0  0  0  0  0  0  0  0  0  0
    0.9873    1.7255    0.0911 C   0  0  0  0  0  0  0  0  0  0  0  0
   -0.1849    0.9184    0.0959 C   0  0  0  0  0  0  0  0  0  0  0  0
   -0.8812   -1.5271   -0.0802 C   0  0  0  0  0  0  0  0  0  0  0  0
    3.7099    2.7525    0.1039 O   0  0  0  0  0  0  0  0  0  0  0  0
    4.5551    0.6430    0.0303 N   0  0  0  0  0  0  0  0  0  0  0  0
   -1.6043    1.4024    0.2026 C   0  0  0  0  0  0  0  0  0  0  0  0
   -2.2751   -0.9674    0.2803 C   0  0  0  0  0  0  0  0  0  0  0  0
    5.9390    1.0678    0.1007 C   0  0  0  0  0  0  0  0  0  0  0  0
   -2.4804    0.3560   -0.3386 N   0  0  0  0  0  0  0  0  0  0  0  0
    6.7235    0.6537   -1.1172 C   0  0  0  0  0  0  0  0  0  0  0  0
   -3.4325    0.4983   -1.3451 C   0  0  0  0  0  0  0  0  0  0  0  0
    6.3252    1.0791   -2.3854 C   0  0  0  0  0  0  0  0  0  0  0  0
    7.9003   -0.1000   -1.0105 C   0  0  0  0  0  0  0  0  0  0  0  0
   -4.2328   -0.4022   -1.5962 O   0  0  0  0  0  0  0  0  0  0  0  0
   -3.4932    1.7365   -2.1068 C   0  0  0  0  0  0  0  0  0  0  0  0
    7.0674    0.7268   -3.5132 C   0  0  0  0  0  0  0  0  0  0  0  0
    8.6462   -0.4407   -2.1524 C   0  0  0  0  0  0  0  0  0  0  0  0
   -4.6300    2.3066   -2.6492 C   0  0  0  0  0  0  0  0  0  0  0  0
   -2.4690    2.5869   -2.5806 C   0  0  0  0  0  0  0  0  0  0  0  0
    8.2325   -0.0539   -3.4304 C   0  0  0  0  0  0  0  0  0  0  0  0
   -4.2601    3.4826   -3.2690 N   0  0  0  0  0  0  0  0  0  0  0  0
   -6.0203    1.9416   -2.6831 C   0  0  0  0  0  0  0  0  0  0  0  0
   -2.9228    3.6680   -3.2159 N   0  0  0  0  0  0  0  0  0  0  0  0
    8.9158   -0.3541   -4.5987 N   0  0  0  0  0  0  0  0  0  0  0  0
   -5.2258    4.2872   -3.8466 C   0  0  0  0  0  0  0  0  0  0  0  0
   -6.9229    2.7000   -3.2456 N   0  0  0  0  0  0  0  0  0  0  0  0
   10.3465   -0.6981   -4.6036 C   0  0  0  0  0  0  0  0  0  0  0  0
    8.1543   -1.1095   -5.6151 C   0  0  0  0  0  0  0  0  0  0  0  0
   -6.5048    3.8843   -3.8217 C   0  0  0  0  0  0  0  0  0  0  0  0
   10.9210   -0.4374   -6.0251 C   0  0  0  0  0  0  0  0  0  0  0  0
    8.7474   -0.8231   -7.0106 C   0  0  0  0  0  0  0  0  0  0  0  0
   10.1870   -1.1634   -7.0920 N   0  3  0  0  0  0  0  0  0  0  0  0
   10.7102   -0.8194   -8.4123 C   0  0  0  0  0  0  0  0  0  0  0  0
    0.9675    2.7567    0.1271 H   0  0  0  0  0  0  0  0  0  0  0  0
   -0.6211   -2.3060    0.6057 H   0  0  0  0  0  0  0  0  0  0  0  0
   -0.9007   -1.9204   -1.0751 H   0  0  0  0  0  0  0  0  0  0  0  0
    4.3551   -0.3186   -0.0368 H   0  0  0  0  0  0  0  0  0  0  0  0
   -1.7242    2.3041   -0.3608 H   0  0  0  0  0  0  0  0  0  0  0  0
   -1.8530    1.6051    1.2234 H   0  0  0  0  0  0  0  0  0  0  0  0
   -2.3521   -0.8739    1.3435 H   0  0  0  0  0  0  0  0  0  0  0  0
   -3.0219   -1.6394   -0.0877 H   0  0  0  0  0  0  0  0  0  0  0  0
    6.3903    0.6302    0.9666 H   0  0  0  0  0  0  0  0  0  0  0  0
    5.9527    2.1365    0.1528 H   0  0  0  0  0  0  0  0  0  0  0  0
    5.4769    1.6574   -2.4896 H   0  0  0  0  0  0  0  0  0  0  0  0
    8.2238   -0.4092   -0.0806 H   0  0  0  0  0  0  0  0  0  0  0  0
    6.7496    1.0508   -4.4401 H   0  0  0  0  0  0  0  0  0  0  0  0
    9.5154   -0.9866   -2.0452 H   0  0  0  0  0  0  0  0  0  0  0  0
   -1.4647    2.3899   -2.4476 H   0  0  0  0  0  0  0  0  0  0  0  0
   -6.3143    1.0525   -2.2494 H   0  0  0  0  0  0  0  0  0  0  0  0
   -4.9665    5.1826   -4.2894 H   0  0  0  0  0  0  0  0  0  0  0  0
   10.4688   -1.7304   -4.3503 H   0  0  0  0  0  0  0  0  0  0  0  0
   10.8666   -0.0983   -3.8862 H   0  0  0  0  0  0  0  0  0  0  0  0
    7.1287   -0.8053   -5.5930 H   0  0  0  0  0  0  0  0  0  0  0  0
    8.2172   -2.1570   -5.4061 H   0  0  0  0  0  0  0  0  0  0  0  0
   -7.2160    4.4925   -4.2568 H   0  0  0  0  0  0  0  0  0  0  0  0
   11.9439   -0.7507   -6.0418 H   0  0  0  0  0  0  0  0  0  0  0  0
   10.8193    0.6092   -6.2234 H   0  0  0  0  0  0  0  0  0  0  0  0
    8.6274    0.2176   -7.2282 H   0  0  0  0  0  0  0  0  0  0  0  0
    8.2268   -1.4338   -7.7184 H   0  0  0  0  0  0  0  0  0  0  0  0
   10.3123   -2.1665   -6.9553 H   0  0  0  0  0  0  0  0  0  0  0  0
   10.5905    0.2304   -8.5809 H   0  0  0  0  0  0  0  0  0  0  0  0
   10.1746   -1.3644   -9.1613 H   0  0  0  0  0  0  0  0  0  0  0  0
   11.7487   -1.0724   -8.4613 H   0  0  0  0  0  0  0  0  0  0  0  0
  1  2  1  0  0  0  0
  1  3  1  0  0  0  0
  2  4  1  0  0  0  0
  2  5  2  0  0  0  0
  3  6  2  0  0  0  0
  3  7  1  0  0  0  0
  4  8  2  0  0  0  0
  4  9  1  0  0  0  0
  5  6  1  0  0  0  0
  5 38  1  0  0  0  0
  6 10  1  0  0  0  0
  7 11  1  0  0  0  0
  7 39  1  0  0  0  0
  7 40  1  0  0  0  0
  9 12  1  0  0  0  0
  9 41  1  0  0  0  0
 10 13  1  0  0  0  0
 10 42  1  0  0  0  0
 10 43  1  0  0  0  0
 11 13  1  0  0  0  0
 11 44  1  0  0  0  0
 11 45  1  0  0  0  0
 12 14  1  0  0  0  0
 12 46  1  0  0  0  0
 12 47  1  0  0  0  0
 13 15  1  0  0  0  0
 14 16  2  0  0  0  0
 14 17  1  0  0  0  0
 15 18  2  0  0  0  0
 15 19  1  0  0  0  0
 16 20  1  0  0  0  0
 16 48  1  0  0  0  0
 17 21  2  0  0  0  0
 17 49  1  0  0  0  0
 19 22  2  0  0  0  0
 19 23  1  0  0  0  0
 20 24  2  0  0  0  0
 20 50  1  0  0  0  0
 21 24  1  0  0  0  0
 21 51  1  0  0  0  0
 22 25  1  0  0  0  0
 22 26  1  0  0  0  0
 23 27  2  0  0  0  0
 23 52  1  0  0  0  0
 24 28  1  0  0  0  0
 25 29  1  0  0  0  0
 25 27  1  0  0  0  0
 26 30  2  0  0  0  0
 26 53  1  0  0  0  0
 28 31  1  0  0  0  0
 28 32  1  0  0  0  0
 29 33  2  0  0  0  0
 29 54  1  0  0  0  0
 30 33  1  0  0  0  0
 31 34  1  0  0  0  0
 31 55  1  0  0  0  0
 31 56  1  0  0  0  0
 32 35  1  0  0  0  0
 32 57  1  0  0  0  0
 32 58  1  0  0  0  0
 33 59  1  0  0  0  0
 34 36  1  0  0  0  0
 34 60  1  0  0  0  0
 34 61  1  0  0  0  0
 35 36  1  0  0  0  0
 35 62  1  0  0  0  0
 35 63  1  0  0  0  0
 36 37  1  0  0  0  0
 36 64  1  0  0  0  0
 37 65  1  0  0  0  0
 37 66  1  0  0  0  0
 37 67  1  0  0  0  0
M  CHG  1  36   1
M  END
>  <Molecule Name>
CTX-1020440

>  <SMILES>
CN1CCN(CC1)C1=CC=C(CNC(=O)C2=CC3=C(CCN(C3)C(=O)C3=C4C=NC=CN4N=C3)S2)C=C1

>  <Batch Name>
CTX-1020440-1

>  <Batch Created Date>
2021-10-21

>  <Batch ID>
CTX-1020440-1

>  <External ID>
610EDL021-E

>  <Stereochemistry>
Achiral

>  <Amount 1>
5.0

>  <Unit 1>
mg

>  <CRO 1>
Pharmaron

>  <CRO 1 Total Amount>
6.9

>  <CRO 1 Unit>
mg

>  <Pharmaron Solubility (PBS, pH 7.4): Aqueous Solubility - Batch Mean (uM)>
284.6668

>  <Pharmaron Solubility (PBS, pH 7.4): Aqueous Solubility - Batch Mean (uM) Standard Deviation (±)>
33.6543

>  <Pharmaron Solubility (PBS, pH 7.4): Aqueous Solubility - Batch Mean (uM) Count>
2.0

>  <log P>
2.15

>  <log D>
1.51

>  <Pharmaron Caliper Assay (CDK2/CCNE1): Minimum measured (%)>
8.56

>  <Pharmaron Caliper Assay (CDK2/CCNE1): IC50 - Batch Mean (uM)>
6.08

>  <Pharmaron ADPGLO (CDK2/E1-25C): Minimum measured (%)>


>  <Pharmaron ADPGLO (CDK2/E1-25C): IC50 - Batch Mean (uM)>


>  <Pharmaron ADPGLO (CDK2/E1-37C): Minimum measured (%)>


>  <Pharmaron ADPGLO (CDK2/E1-37C): IC50 - Batch Mean (uM)>


>  <IncuCyte Kuramochi RB-WT: IC50 - Batch Mean (uM)>
20.0

>  <IncuCyte Kuramochi RB-KO: IC50 - Batch Mean (uM)>
20.0

>  <DSF (npCDK2/CCNE1): dTm D - Batch Mean [Concentration: 100]>


>  <DSF (npCDK2/CCNE1): dTm D - Batch Mean [Concentration: 20.0]>
0.311

>  <DSF (pCDK2/CCNE1): dTm D - Batch Mean [Concentration: 100]>


>  <DSF (pCDK2/CCNE1): dTm D - Batch Mean [Concentration: 20.0]>


>  <RLM: t1/2 - Batch Mean (Min)>
20.34

>  <RLM: Cl int - Batch Mean (uL/min/mg protein)>
68.32

>  <RLM: ER (Hepatic extraction ratio) - Batch Mean>
0.71

>  <HLM: t1/2 - Batch Mean (Min)>
104.93

>  <HLM: Cl int - Batch Mean (uL/min/mg protein)>
13.24

>  <HLM: ER (Hepatic extraction ratio) - Batch Mean>
0.39299999999999996

>  <MDCK-WT 4% BSA: Papp (A-B) - Batch Mean (10-6, cm/s)>


>  <MDCK-WT 4% BSA: Papp (B-A) - Batch Mean (10-6, cm/s)>


>  <MDCK-WT 4% BSA: Efflux Ratio - Batch Mean>


>  <MDCK-WT 4% BSA: ~Net A_B - Batch Mean (10-6, cm/s)>


>  <pIC50>
5.216096

>  <Selection_1>
Y

>  <Selection_N>
N

>  <Serie>
Tetrahydrothienopyridine

>  <Selection_T>


>  <Train_Vs_Test>


$$$$
