CTX-1019758
 OpenBabel08272613283D

 71 76  0  0  0  0  0  0  0  0999 V2000
    1.7801   -0.7208   -0.0373 S   0  0  0  0  0  0  0  0  0  0  0  0
    2.1065    0.9591    0.0411 C   0  0  0  0  0  0  0  0  0  0  0  0
    0.0980   -0.4642   -0.0346 C   0  0  0  0  0  0  0  0  0  0  0  0
    3.4615    1.5070    0.0720 C   0  0  0  0  0  0  0  0  0  0  0  0
    0.9240    1.6878    0.0724 C   0  0  0  0  0  0  0  0  0  0  0  0
   -0.2548    0.8706    0.0359 C   0  0  0  0  0  0  0  0  0  0  0  0
   -0.8878   -1.5851   -0.1464 C   0  0  0  0  0  0  0  0  0  0  0  0
    3.6653    2.7251    0.1210 O   0  0  0  0  0  0  0  0  0  0  0  0
    4.5130    0.6142    0.0517 N   0  0  0  0  0  0  0  0  0  0  0  0
   -1.6904    1.3471    0.0632 C   0  0  0  0  0  0  0  0  0  0  0  0
   -2.2980   -1.0784    0.1959 C   0  0  0  0  0  0  0  0  0  0  0  0
    5.9018    1.0347    0.1149 C   0  0  0  0  0  0  0  0  0  0  0  0
   -2.5742    0.2540   -0.3528 N   0  0  0  0  0  0  0  0  0  0  0  0
    6.6854    0.5960   -1.0976 C   0  0  0  0  0  0  0  0  0  0  0  0
   -3.7508    0.5469   -1.0528 C   0  0  0  0  0  0  0  0  0  0  0  0
    6.2981    1.0185   -2.3706 C   0  0  0  0  0  0  0  0  0  0  0  0
    7.8447   -0.1844   -0.9837 C   0  0  0  0  0  0  0  0  0  0  0  0
   -4.2965    1.6459   -0.9452 O   0  0  0  0  0  0  0  0  0  0  0  0
   -4.1112   -0.4146   -2.1118 C   0  0  0  0  0  0  0  0  0  0  0  0
    7.0291    0.6331   -3.4963 C   0  0  0  0  0  0  0  0  0  0  0  0
    8.5799   -0.5588   -2.1229 C   0  0  0  0  0  0  0  0  0  0  0  0
   -3.0387   -1.1433   -2.5980 O   0  0  0  0  0  0  0  0  0  0  0  0
   -4.9656   -0.2192   -3.2080 C   0  0  0  0  0  0  0  0  0  0  0  0
    8.1727   -0.1765   -3.4039 C   0  0  0  0  0  0  0  0  0  0  0  0
   -2.8513   -0.6208   -3.8412 C   0  0  0  0  0  0  0  0  0  0  0  0
   -4.0168    0.0041   -4.2528 C   0  0  0  0  0  0  0  0  0  0  0  0
   -6.4163    0.0688   -3.2493 C   0  0  0  0  0  0  0  0  0  0  0  0
    8.8420   -0.5165   -4.5739 N   0  0  0  0  0  0  0  0  0  0  0  0
   -1.6424   -0.6136   -4.5161 C   0  0  0  0  0  0  0  0  0  0  0  0
   -3.9903    0.7254   -5.4642 C   0  0  0  0  0  0  0  0  0  0  0  0
   10.2639   -0.8972   -4.5679 C   0  0  0  0  0  0  0  0  0  0  0  0
    8.0573   -1.3166   -5.5383 C   0  0  0  0  0  0  0  0  0  0  0  0
   -1.6038    0.2083   -5.6410 C   0  0  0  0  0  0  0  0  0  0  0  0
   -2.7505    0.8691   -6.1024 C   0  0  0  0  0  0  0  0  0  0  0  0
   10.8357   -0.7343   -6.0041 C   0  0  0  0  0  0  0  0  0  0  0  0
    8.6466   -1.1314   -6.9531 C   0  0  0  0  0  0  0  0  0  0  0  0
   10.0791   -1.5021   -7.0249 N   0  3  0  0  0  0  0  0  0  0  0  0
   10.6001   -1.2370   -8.3647 C   0  0  0  0  0  0  0  0  0  0  0  0
    0.8962    2.7185    0.1175 H   0  0  0  0  0  0  0  0  0  0  0  0
   -0.6164   -2.3652    0.5338 H   0  0  0  0  0  0  0  0  0  0  0  0
   -0.8821   -1.9604   -1.1484 H   0  0  0  0  0  0  0  0  0  0  0  0
    4.3137   -0.3480   -0.0082 H   0  0  0  0  0  0  0  0  0  0  0  0
   -1.8050    2.1735   -0.6066 H   0  0  0  0  0  0  0  0  0  0  0  0
   -1.9458    1.6553    1.0555 H   0  0  0  0  0  0  0  0  0  0  0  0
   -2.3968   -1.0365    1.2605 H   0  0  0  0  0  0  0  0  0  0  0  0
   -2.9987   -1.7579   -0.2424 H   0  0  0  0  0  0  0  0  0  0  0  0
    6.3512    0.6096    0.9880 H   0  0  0  0  0  0  0  0  0  0  0  0
    5.9203    2.1040    0.1490 H   0  0  0  0  0  0  0  0  0  0  0  0
    5.4663    1.6195   -2.4804 H   0  0  0  0  0  0  0  0  0  0  0  0
    8.1632   -0.4885   -0.0503 H   0  0  0  0  0  0  0  0  0  0  0  0
    6.7187    0.9538   -4.4267 H   0  0  0  0  0  0  0  0  0  0  0  0
    9.4349   -1.1257   -2.0107 H   0  0  0  0  0  0  0  0  0  0  0  0
   -6.8613   -0.2062   -2.3160 H   0  0  0  0  0  0  0  0  0  0  0  0
   -6.8691   -0.4928   -4.0396 H   0  0  0  0  0  0  0  0  0  0  0  0
   -6.5676    1.1139   -3.4224 H   0  0  0  0  0  0  0  0  0  0  0  0
   -0.8318   -1.1740   -4.2095 H   0  0  0  0  0  0  0  0  0  0  0  0
   -4.8500    1.1316   -5.8652 H   0  0  0  0  0  0  0  0  0  0  0  0
   10.3615   -1.9160   -4.2560 H   0  0  0  0  0  0  0  0  0  0  0  0
   10.8039   -0.2699   -3.8898 H   0  0  0  0  0  0  0  0  0  0  0  0
    7.0387   -0.9889   -5.5296 H   0  0  0  0  0  0  0  0  0  0  0  0
    8.0995   -2.3502   -5.2649 H   0  0  0  0  0  0  0  0  0  0  0  0
   -0.7118    0.3331   -6.1449 H   0  0  0  0  0  0  0  0  0  0  0  0
   -2.6803    1.4771   -6.9334 H   0  0  0  0  0  0  0  0  0  0  0  0
   11.8506   -1.0733   -6.0067 H   0  0  0  0  0  0  0  0  0  0  0  0
   10.7574    0.3011   -6.2622 H   0  0  0  0  0  0  0  0  0  0  0  0
    8.5434   -0.1046   -7.2359 H   0  0  0  0  0  0  0  0  0  0  0  0
    8.1101   -1.7780   -7.6157 H   0  0  0  0  0  0  0  0  0  0  0  0
   10.1851   -2.4988   -6.8353 H   0  0  0  0  0  0  0  0  0  0  0  0
   10.4995   -0.1951   -8.5867 H   0  0  0  0  0  0  0  0  0  0  0  0
   10.0490   -1.8093   -9.0814 H   0  0  0  0  0  0  0  0  0  0  0  0
   11.6332   -1.5125   -8.4066 H   0  0  0  0  0  0  0  0  0  0  0  0
  1  2  1  0  0  0  0
  1  3  1  0  0  0  0
  2  4  1  0  0  0  0
  2  5  2  0  0  0  0
  3  6  2  0  0  0  0
  3  7  1  0  0  0  0
  4  8  2  0  0  0  0
  4  9  1  0  0  0  0
  5  6  1  0  0  0  0
  5 39  1  0  0  0  0
  6 10  1  0  0  0  0
  7 11  1  0  0  0  0
  7 40  1  0  0  0  0
  7 41  1  0  0  0  0
  9 12  1  0  0  0  0
  9 42  1  0  0  0  0
 10 13  1  0  0  0  0
 10 43  1  0  0  0  0
 10 44  1  0  0  0  0
 11 13  1  0  0  0  0
 11 45  1  0  0  0  0
 11 46  1  0  0  0  0
 12 14  1  0  0  0  0
 12 47  1  0  0  0  0
 12 48  1  0  0  0  0
 13 15  1  0  0  0  0
 14 16  2  0  0  0  0
 14 17  1  0  0  0  0
 15 18  2  0  0  0  0
 15 19  1  0  0  0  0
 16 20  1  0  0  0  0
 16 49  1  0  0  0  0
 17 21  2  0  0  0  0
 17 50  1  0  0  0  0
 19 22  1  0  0  0  0
 19 23  2  0  0  0  0
 20 24  2  0  0  0  0
 20 51  1  0  0  0  0
 21 24  1  0  0  0  0
 21 52  1  0  0  0  0
 22 25  1  0  0  0  0
 23 26  1  0  0  0  0
 23 27  1  0  0  0  0
 24 28  1  0  0  0  0
 25 29  2  0  0  0  0
 25 26  1  0  0  0  0
 26 30  2  0  0  0  0
 27 53  1  0  0  0  0
 27 54  1  0  0  0  0
 27 55  1  0  0  0  0
 28 31  1  0  0  0  0
 28 32  1  0  0  0  0
 29 33  1  0  0  0  0
 29 56  1  0  0  0  0
 30 34  1  0  0  0  0
 30 57  1  0  0  0  0
 31 35  1  0  0  0  0
 31 58  1  0  0  0  0
 31 59  1  0  0  0  0
 32 36  1  0  0  0  0
 32 60  1  0  0  0  0
 32 61  1  0  0  0  0
 33 34  2  0  0  0  0
 33 62  1  0  0  0  0
 34 63  1  0  0  0  0
 35 37  1  0  0  0  0
 35 64  1  0  0  0  0
 35 65  1  0  0  0  0
 36 37  1  0  0  0  0
 36 66  1  0  0  0  0
 36 67  1  0  0  0  0
 37 38  1  0  0  0  0
 37 68  1  0  0  0  0
 38 69  1  0  0  0  0
 38 70  1  0  0  0  0
 38 71  1  0  0  0  0
M  CHG  1  37   1
M  END
>  <Molecule Name>
CTX-1019758

>  <SMILES>
CN1CCN(CC1)C1=CC=C(CNC(=O)C2=CC3=C(CCN(C3)C(=O)C3=C(C)C4=C(O3)C=CC=C4)S2)C=C1

>  <Batch Name>
CTX-1019758-1

>  <Batch Created Date>
2021-09-09

>  <Batch ID>
CTX-1019758-1

>  <External ID>
S04-04-0004

>  <Stereochemistry>
Achiral

>  <Amount 1>
4.9

>  <Unit 1>
mg

>  <CRO 1>
Pharmaron

>  <CRO 1 Total Amount>
64.3

>  <CRO 1 Unit>
mg

>  <Pharmaron Solubility (PBS, pH 7.4): Aqueous Solubility - Batch Mean (uM)>
8.7519

>  <Pharmaron Solubility (PBS, pH 7.4): Aqueous Solubility - Batch Mean (uM) Standard Deviation (±)>


>  <Pharmaron Solubility (PBS, pH 7.4): Aqueous Solubility - Batch Mean (uM) Count>
1.0

>  <log P>
4.43

>  <log D>
3.79

>  <Pharmaron Caliper Assay (CDK2/CCNE1): Minimum measured (%)>
29.9

>  <Pharmaron Caliper Assay (CDK2/CCNE1): IC50 - Batch Mean (uM)>
0.791

>  <Pharmaron ADPGLO (CDK2/E1-25C): Minimum measured (%)>
36.4

>  <Pharmaron ADPGLO (CDK2/E1-25C): IC50 - Batch Mean (uM)>
1.41

>  <Pharmaron ADPGLO (CDK2/E1-37C): Minimum measured (%)>
98.3

>  <Pharmaron ADPGLO (CDK2/E1-37C): IC50 - Batch Mean (uM)>
10.0

>  <IncuCyte Kuramochi RB-WT: IC50 - Batch Mean (uM)>
6.96

>  <IncuCyte Kuramochi RB-KO: IC50 - Batch Mean (uM)>
7.13

>  <DSF (npCDK2/CCNE1): dTm D - Batch Mean [Concentration: 100]>


>  <DSF (npCDK2/CCNE1): dTm D - Batch Mean [Concentration: 20.0]>
3.025

>  <DSF (pCDK2/CCNE1): dTm D - Batch Mean [Concentration: 100]>


>  <DSF (pCDK2/CCNE1): dTm D - Batch Mean [Concentration: 20.0]>
2.416

>  <RLM: t1/2 - Batch Mean (Min)>


>  <RLM: Cl int - Batch Mean (uL/min/mg protein)>


>  <RLM: ER (Hepatic extraction ratio) - Batch Mean>


>  <HLM: t1/2 - Batch Mean (Min)>
15.16

>  <HLM: Cl int - Batch Mean (uL/min/mg protein)>
91.47

>  <HLM: ER (Hepatic extraction ratio) - Batch Mean>
0.8170000000000001

>  <MDCK-WT 4% BSA: Papp (A-B) - Batch Mean (10-6, cm/s)>
2.61

>  <MDCK-WT 4% BSA: Papp (B-A) - Batch Mean (10-6, cm/s)>
2.57

>  <MDCK-WT 4% BSA: Efflux Ratio - Batch Mean>
1.01

>  <MDCK-WT 4% BSA: ~Net A_B - Batch Mean (10-6, cm/s)>
2.5874

>  <pIC50>
6.101824

>  <Selection_1>
Y

>  <Selection_N>
N

>  <Serie>
Tetrahydrothienopyridine

>  <Selection_T>


>  <Train_Vs_Test>


$$$$
