CTX-1020441
 OpenBabel08272613283D

 73 78  0  0  0  0  0  0  0  0999 V2000
    0.9354    0.0612    0.0182 Cl  0  0  0  0  0  0  0  0  0  0  0  0
    2.6638   -0.0284   -0.0064 C   0  0  0  0  0  0  0  0  0  0  0  0
    3.3412   -1.2533    0.0157 C   0  0  0  0  0  0  0  0  0  0  0  0
    3.3595    1.1703   -0.0346 C   0  0  0  0  0  0  0  0  0  0  0  0
    4.7471   -1.2265    0.0325 C   0  0  0  0  0  0  0  0  0  0  0  0
    2.5792   -2.5552    0.1025 C   0  0  0  0  0  0  0  0  0  0  0  0
    4.7471    1.1094   -0.0390 C   0  0  0  0  0  0  0  0  0  0  0  0
    5.4536   -0.0562   -0.0087 N   0  0  0  0  0  0  0  0  0  0  0  0
    5.5466   -2.5371    0.0693 C   0  0  0  0  0  0  0  0  0  0  0  0
    3.4336   -3.7822   -0.1963 C   0  0  0  0  0  0  0  0  0  0  0  0
    5.4921    2.4161   -0.0550 C   0  0  0  0  0  0  0  0  0  0  0  0
    4.7337   -3.6953    0.4427 N   0  0  0  0  0  0  0  0  0  0  0  0
    4.8901    3.4779   -0.0231 O   0  0  0  0  0  0  0  0  0  0  0  0
    6.8644    2.3238   -0.0853 N   0  0  0  0  0  0  0  0  0  0  0  0
    5.2924   -4.7797    1.1325 C   0  0  0  0  0  0  0  0  0  0  0  0
    7.7137    3.4910   -0.0131 C   0  0  0  0  0  0  0  0  0  0  0  0
    6.4991   -5.0137    1.0834 O   0  0  0  0  0  0  0  0  0  0  0  0
    4.3986   -5.4221    2.1098 C   0  0  0  0  0  0  0  0  0  0  0  0
    8.6407    3.5866   -1.1958 C   0  0  0  0  0  0  0  0  0  0  0  0
    3.4038   -4.5931    2.5889 O   0  0  0  0  0  0  0  0  0  0  0  0
    4.6320   -6.3727    3.1072 C   0  0  0  0  0  0  0  0  0  0  0  0
    8.2337    4.2398   -2.3611 C   0  0  0  0  0  0  0  0  0  0  0  0
    9.9255    3.0395   -1.1559 C   0  0  0  0  0  0  0  0  0  0  0  0
    3.5794   -4.5825    3.9292 C   0  0  0  0  0  0  0  0  0  0  0  0
    4.4381   -5.6101    4.3005 C   0  0  0  0  0  0  0  0  0  0  0  0
    5.0651   -7.7861    3.0409 C   0  0  0  0  0  0  0  0  0  0  0  0
    9.1069    4.3622   -3.4479 C   0  0  0  0  0  0  0  0  0  0  0  0
   10.7924    3.1713   -2.2511 C   0  0  0  0  0  0  0  0  0  0  0  0
    3.0448   -3.6366    4.7867 C   0  0  0  0  0  0  0  0  0  0  0  0
    4.8658   -5.6684    5.6342 C   0  0  0  0  0  0  0  0  0  0  0  0
   10.4087    3.8390   -3.4221 C   0  0  0  0  0  0  0  0  0  0  0  0
    3.5221   -3.6807    6.0956 C   0  0  0  0  0  0  0  0  0  0  0  0
    4.4344   -4.6608    6.5098 C   0  0  0  0  0  0  0  0  0  0  0  0
   11.2687    4.0559   -4.4827 N   0  0  0  0  0  0  0  0  0  0  0  0
   12.7299    3.9998   -4.3329 C   0  0  0  0  0  0  0  0  0  0  0  0
   10.8165    3.8255   -5.8668 C   0  0  0  0  0  0  0  0  0  0  0  0
   13.3786    5.0200   -5.3019 C   0  0  0  0  0  0  0  0  0  0  0  0
   11.5007    4.8428   -6.8109 C   0  0  0  0  0  0  0  0  0  0  0  0
   12.9798    4.8116   -6.7143 N   0  3  0  0  0  0  0  0  0  0  0  0
   13.5700    5.8399   -7.5685 C   0  0  0  0  0  0  0  0  0  0  0  0
    2.8642    2.0755   -0.0517 H   0  0  0  0  0  0  0  0  0  0  0  0
    1.7740   -2.5238   -0.6015 H   0  0  0  0  0  0  0  0  0  0  0  0
    2.2339   -2.6507    1.1108 H   0  0  0  0  0  0  0  0  0  0  0  0
    6.3385   -2.4331    0.7813 H   0  0  0  0  0  0  0  0  0  0  0  0
    5.9171   -2.7127   -0.9191 H   0  0  0  0  0  0  0  0  0  0  0  0
    3.5712   -3.8604   -1.2545 H   0  0  0  0  0  0  0  0  0  0  0  0
    2.9285   -4.6439    0.1876 H   0  0  0  0  0  0  0  0  0  0  0  0
    7.2810    1.4348   -0.1584 H   0  0  0  0  0  0  0  0  0  0  0  0
    8.2988    3.4380    0.8812 H   0  0  0  0  0  0  0  0  0  0  0  0
    7.0861    4.3576   -0.0136 H   0  0  0  0  0  0  0  0  0  0  0  0
    7.2823    4.6349   -2.4213 H   0  0  0  0  0  0  0  0  0  0  0  0
   10.2398    2.5338   -0.3130 H   0  0  0  0  0  0  0  0  0  0  0  0
    5.1246   -8.0932    2.0176 H   0  0  0  0  0  0  0  0  0  0  0  0
    4.3575   -8.4006    3.5572 H   0  0  0  0  0  0  0  0  0  0  0  0
    6.0265   -7.8864    3.4998 H   0  0  0  0  0  0  0  0  0  0  0  0
    8.7829    4.8533   -4.2958 H   0  0  0  0  0  0  0  0  0  0  0  0
   11.7393    2.7651   -2.1928 H   0  0  0  0  0  0  0  0  0  0  0  0
    2.3418   -2.9469    4.4785 H   0  0  0  0  0  0  0  0  0  0  0  0
    5.4799   -6.4301    5.9623 H   0  0  0  0  0  0  0  0  0  0  0  0
    3.1963   -2.9756    6.7751 H   0  0  0  0  0  0  0  0  0  0  0  0
    4.7954   -4.6409    7.4764 H   0  0  0  0  0  0  0  0  0  0  0  0
   13.0763    3.0145   -4.5655 H   0  0  0  0  0  0  0  0  0  0  0  0
   12.9983    4.2390   -3.3251 H   0  0  0  0  0  0  0  0  0  0  0  0
    9.7549    3.9480   -5.9199 H   0  0  0  0  0  0  0  0  0  0  0  0
   11.0770    2.8316   -6.1655 H   0  0  0  0  0  0  0  0  0  0  0  0
   14.4423    4.9289   -5.2310 H   0  0  0  0  0  0  0  0  0  0  0  0
   13.0411    5.9938   -5.0144 H   0  0  0  0  0  0  0  0  0  0  0  0
   11.1623    5.8257   -6.5573 H   0  0  0  0  0  0  0  0  0  0  0  0
   11.2377    4.5789   -7.8139 H   0  0  0  0  0  0  0  0  0  0  0  0
   13.3204    3.9042   -7.0322 H   0  0  0  0  0  0  0  0  0  0  0  0
   13.2275    6.8038   -7.2548 H   0  0  0  0  0  0  0  0  0  0  0  0
   13.2781    5.6707   -8.5839 H   0  0  0  0  0  0  0  0  0  0  0  0
   14.6364    5.7981   -7.4922 H   0  0  0  0  0  0  0  0  0  0  0  0
  1  2  1  0  0  0  0
  2  3  2  0  0  0  0
  2  4  1  0  0  0  0
  3  5  1  0  0  0  0
  3  6  1  0  0  0  0
  4  7  2  0  0  0  0
  4 41  1  0  0  0  0
  5  8  2  0  0  0  0
  5  9  1  0  0  0  0
  6 10  1  0  0  0  0
  6 42  1  0  0  0  0
  6 43  1  0  0  0  0
  7 11  1  0  0  0  0
  7  8  1  0  0  0  0
  9 12  1  0  0  0  0
  9 44  1  0  0  0  0
  9 45  1  0  0  0  0
 10 12  1  0  0  0  0
 10 46  1  0  0  0  0
 10 47  1  0  0  0  0
 11 13  2  0  0  0  0
 11 14  1  0  0  0  0
 12 15  1  0  0  0  0
 14 16  1  0  0  0  0
 14 48  1  0  0  0  0
 15 17  2  0  0  0  0
 15 18  1  0  0  0  0
 16 19  1  0  0  0  0
 16 49  1  0  0  0  0
 16 50  1  0  0  0  0
 18 20  1  0  0  0  0
 18 21  2  0  0  0  0
 19 22  2  0  0  0  0
 19 23  1  0  0  0  0
 20 24  1  0  0  0  0
 21 25  1  0  0  0  0
 21 26  1  0  0  0  0
 22 27  1  0  0  0  0
 22 51  1  0  0  0  0
 23 28  2  0  0  0  0
 23 52  1  0  0  0  0
 24 29  2  0  0  0  0
 24 25  1  0  0  0  0
 25 30  2  0  0  0  0
 26 53  1  0  0  0  0
 26 54  1  0  0  0  0
 26 55  1  0  0  0  0
 27 31  2  0  0  0  0
 27 56  1  0  0  0  0
 28 31  1  0  0  0  0
 28 57  1  0  0  0  0
 29 32  1  0  0  0  0
 29 58  1  0  0  0  0
 30 33  1  0  0  0  0
 30 59  1  0  0  0  0
 31 34  1  0  0  0  0
 32 33  2  0  0  0  0
 32 60  1  0  0  0  0
 33 61  1  0  0  0  0
 34 35  1  0  0  0  0
 34 36  1  0  0  0  0
 35 37  1  0  0  0  0
 35 62  1  0  0  0  0
 35 63  1  0  0  0  0
 36 38  1  0  0  0  0
 36 64  1  0  0  0  0
 36 65  1  0  0  0  0
 37 39  1  0  0  0  0
 37 66  1  0  0  0  0
 37 67  1  0  0  0  0
 38 39  1  0  0  0  0
 38 68  1  0  0  0  0
 38 69  1  0  0  0  0
 39 40  1  0  0  0  0
 39 70  1  0  0  0  0
 40 71  1  0  0  0  0
 40 72  1  0  0  0  0
 40 73  1  0  0  0  0
M  CHG  1  39   1
M  END
>  <Molecule Name>
CTX-1020441

>  <SMILES>
CN1CCN(CC1)C1=CC=C(CNC(=O)C2=CC(Cl)=C3CCN(CC3=N2)C(=O)C2=C(C)C3=C(O2)C=CC=C3)C=C1

>  <Batch Name>
CTX-1020441-1

>  <Batch Created Date>
2021-10-21

>  <Batch ID>
CTX-1020441-1

>  <External ID>
610EDL060-A

>  <Stereochemistry>
Achiral

>  <Amount 1>
4.3

>  <Unit 1>
mg

>  <CRO 1>
Pharmaron

>  <CRO 1 Total Amount>
11.1

>  <CRO 1 Unit>
mg

>  <Pharmaron Solubility (PBS, pH 7.4): Aqueous Solubility - Batch Mean (uM)>
0.3716

>  <Pharmaron Solubility (PBS, pH 7.4): Aqueous Solubility - Batch Mean (uM) Standard Deviation (±)>


>  <Pharmaron Solubility (PBS, pH 7.4): Aqueous Solubility - Batch Mean (uM) Count>
1.0

>  <log P>
4.24

>  <log D>
3.6

>  <Pharmaron Caliper Assay (CDK2/CCNE1): Minimum measured (%)>
86.4

>  <Pharmaron Caliper Assay (CDK2/CCNE1): IC50 - Batch Mean (uM)>
6.99

>  <Pharmaron ADPGLO (CDK2/E1-25C): Minimum measured (%)>


>  <Pharmaron ADPGLO (CDK2/E1-25C): IC50 - Batch Mean (uM)>


>  <Pharmaron ADPGLO (CDK2/E1-37C): Minimum measured (%)>


>  <Pharmaron ADPGLO (CDK2/E1-37C): IC50 - Batch Mean (uM)>


>  <IncuCyte Kuramochi RB-WT: IC50 - Batch Mean (uM)>
4.35

>  <IncuCyte Kuramochi RB-KO: IC50 - Batch Mean (uM)>
4.43

>  <DSF (npCDK2/CCNE1): dTm D - Batch Mean [Concentration: 100]>


>  <DSF (npCDK2/CCNE1): dTm D - Batch Mean [Concentration: 20.0]>
-0.39299999999999996

>  <DSF (pCDK2/CCNE1): dTm D - Batch Mean [Concentration: 100]>


>  <DSF (pCDK2/CCNE1): dTm D - Batch Mean [Concentration: 20.0]>


>  <RLM: t1/2 - Batch Mean (Min)>


>  <RLM: Cl int - Batch Mean (uL/min/mg protein)>


>  <RLM: ER (Hepatic extraction ratio) - Batch Mean>


>  <HLM: t1/2 - Batch Mean (Min)>


>  <HLM: Cl int - Batch Mean (uL/min/mg protein)>


>  <HLM: ER (Hepatic extraction ratio) - Batch Mean>


>  <MDCK-WT 4% BSA: Papp (A-B) - Batch Mean (10-6, cm/s)>


>  <MDCK-WT 4% BSA: Papp (B-A) - Batch Mean (10-6, cm/s)>


>  <MDCK-WT 4% BSA: Efflux Ratio - Batch Mean>


>  <MDCK-WT 4% BSA: ~Net A_B - Batch Mean (10-6, cm/s)>


>  <pIC50>
5.155523

>  <Selection_1>
Y

>  <Selection_N>


>  <Serie>
Naphthyridine

>  <Selection_T>
N

>  <Train_Vs_Test>


$$$$
