CTX-1019813
 OpenBabel08272613283D

 70 75  0  0  0  0  0  0  0  0999 V2000
    1.0449    0.0507   -0.0688 O   0  0  0  0  0  0  0  0  0  0  0  0
    2.2225   -0.0005   -0.1142 C   0  0  0  0  0  0  0  0  0  0  0  0
    2.9857   -0.5560    0.9741 N   0  0  0  0  0  0  0  0  0  0  0  0
    3.0231    0.5149   -1.3304 C   0  0  0  0  0  0  0  0  0  0  0  0
    2.2846   -1.0391    2.1551 C   0  0  0  0  0  0  0  0  0  0  0  0
    4.4131    0.4340   -1.4392 N   0  0  0  0  0  0  0  0  0  0  0  0
    2.2152    1.0233   -2.3592 C   0  0  0  0  0  0  0  0  0  0  0  0
    2.6991   -0.3192    3.4294 C   0  0  0  0  0  0  0  0  0  0  0  0
    5.0432    0.7695   -2.6582 C   0  0  0  0  0  0  0  0  0  0  0  0
    2.8815    1.4765   -3.5270 C   0  0  0  0  0  0  0  0  0  0  0  0
    2.0076    0.8151    3.8771 C   0  0  0  0  0  0  0  0  0  0  0  0
    3.8059   -0.7377    4.1808 C   0  0  0  0  0  0  0  0  0  0  0  0
    4.2877    1.3558   -3.6771 C   0  0  0  0  0  0  0  0  0  0  0  0
    6.6407    0.5018   -2.9387 C   0  0  0  0  0  0  0  0  0  0  0  0
    2.3802    1.4749    5.0387 C   0  0  0  0  0  0  0  0  0  0  0  0
    4.2560    0.0199    5.2707 C   0  0  0  0  0  0  0  0  0  0  0  0
    4.9481    1.7592   -5.0012 C   0  0  0  0  0  0  0  0  0  0  0  0
    7.1611    0.4172   -4.5271 N   0  0  0  0  0  0  0  0  0  0  0  0
    3.5246    1.1125    5.7548 C   0  0  0  0  0  0  0  0  0  0  0  0
    6.5500    1.7314   -5.0727 C   0  0  0  0  0  0  0  0  0  0  0  0
    8.3563   -0.7380   -5.0491 C   0  0  0  0  0  0  0  0  0  0  0  0
    3.8627    1.7783    6.9113 N   0  0  0  0  0  0  0  0  0  0  0  0
    8.5502   -1.5281   -4.0817 O   0  0  0  0  0  0  0  0  0  0  0  0
    9.3465   -1.1755   -6.5581 C   0  0  0  0  0  0  0  0  0  0  0  0
    4.5854    1.1000    7.9854 C   0  0  0  0  0  0  0  0  0  0  0  0
    3.7064    3.2347    7.0671 C   0  0  0  0  0  0  0  0  0  0  0  0
   10.3219   -1.0933   -8.2001 C   0  0  0  0  0  0  0  0  0  0  0  0
    8.2631   -0.6663   -7.2588 C   0  0  0  0  0  0  0  0  0  0  0  0
    3.9687    1.4697    9.3501 C   0  0  0  0  0  0  0  0  0  0  0  0
    3.1453    3.5512    8.4726 C   0  0  0  0  0  0  0  0  0  0  0  0
    9.2225   -1.3275   -8.9595 C   0  0  0  0  0  0  0  0  0  0  0  0
   11.7275   -1.1496   -9.3799 C   0  0  0  0  0  0  0  0  0  0  0  0
    8.0352   -1.3209   -8.3798 O   0  0  0  0  0  0  0  0  0  0  0  0
    3.9596    2.9368    9.5512 N   0  3  0  0  0  0  0  0  0  0  0  0
    9.2090   -1.3519  -10.3103 C   0  0  0  0  0  0  0  0  0  0  0  0
   11.4938   -1.5021  -10.7279 C   0  0  0  0  0  0  0  0  0  0  0  0
    3.4478    3.2874   10.8715 C   0  0  0  0  0  0  0  0  0  0  0  0
   10.1882   -1.3452  -11.1898 C   0  0  0  0  0  0  0  0  0  0  0  0
    3.9674   -0.6082    0.9200 H   0  0  0  0  0  0  0  0  0  0  0  0
    2.4908   -2.0826    2.2707 H   0  0  0  0  0  0  0  0  0  0  0  0
    1.2417   -0.8515    2.0067 H   0  0  0  0  0  0  0  0  0  0  0  0
    1.1878    1.0654   -2.2708 H   0  0  0  0  0  0  0  0  0  0  0  0
    2.3297    1.9049   -4.2866 H   0  0  0  0  0  0  0  0  0  0  0  0
    1.2052    1.1663    3.3314 H   0  0  0  0  0  0  0  0  0  0  0  0
    4.2938   -1.6116    3.9292 H   0  0  0  0  0  0  0  0  0  0  0  0
    6.8934   -0.4274   -2.4721 H   0  0  0  0  0  0  0  0  0  0  0  0
    7.1281    1.3695   -2.5457 H   0  0  0  0  0  0  0  0  0  0  0  0
    1.7973    2.2537    5.3834 H   0  0  0  0  0  0  0  0  0  0  0  0
    5.1464   -0.2327    5.7270 H   0  0  0  0  0  0  0  0  0  0  0  0
    4.6354    2.7581   -5.2232 H   0  0  0  0  0  0  0  0  0  0  0  0
    4.6327    1.0127   -5.6998 H   0  0  0  0  0  0  0  0  0  0  0  0
    6.9306    2.5486   -4.4964 H   0  0  0  0  0  0  0  0  0  0  0  0
    6.8241    1.8058   -6.1043 H   0  0  0  0  0  0  0  0  0  0  0  0
    5.6120    1.4010    7.9671 H   0  0  0  0  0  0  0  0  0  0  0  0
    4.5154    0.0419    7.8428 H   0  0  0  0  0  0  0  0  0  0  0  0
    3.0302    3.6014    6.3233 H   0  0  0  0  0  0  0  0  0  0  0  0
    4.6591    3.7078    6.9510 H   0  0  0  0  0  0  0  0  0  0  0  0
    7.6985    0.1358   -6.9381 H   0  0  0  0  0  0  0  0  0  0  0  0
    4.5440    1.0138   10.1286 H   0  0  0  0  0  0  0  0  0  0  0  0
    2.9586    1.1172    9.3733 H   0  0  0  0  0  0  0  0  0  0  0  0
    2.1459    3.1745    8.5379 H   0  0  0  0  0  0  0  0  0  0  0  0
    3.1699    4.6126    8.6056 H   0  0  0  0  0  0  0  0  0  0  0  0
   12.6827   -0.9250   -9.0603 H   0  0  0  0  0  0  0  0  0  0  0  0
    4.9131    3.2960    9.5056 H   0  0  0  0  0  0  0  0  0  0  0  0
    8.2647   -1.3810  -10.7255 H   0  0  0  0  0  0  0  0  0  0  0  0
   12.2480   -1.8562  -11.3368 H   0  0  0  0  0  0  0  0  0  0  0  0
    2.4439    2.9309   10.9711 H   0  0  0  0  0  0  0  0  0  0  0  0
    3.4619    4.3509   10.9886 H   0  0  0  0  0  0  0  0  0  0  0  0
    4.0623    2.8377   11.6232 H   0  0  0  0  0  0  0  0  0  0  0  0
    9.9941   -1.2267  -12.1964 H   0  0  0  0  0  0  0  0  0  0  0  0
  1  2  2  0  0  0  0
  2  3  1  0  0  0  0
  2  4  1  0  0  0  0
  3  5  1  0  0  0  0
  3 39  1  0  0  0  0
  4  6  2  0  0  0  0
  4  7  1  0  0  0  0
  5  8  1  0  0  0  0
  5 40  1  0  0  0  0
  5 41  1  0  0  0  0
  6  9  1  0  0  0  0
  7 10  2  0  0  0  0
  7 42  1  0  0  0  0
  8 11  2  0  0  0  0
  8 12  1  0  0  0  0
  9 13  2  0  0  0  0
  9 14  1  0  0  0  0
 10 13  1  0  0  0  0
 10 43  1  0  0  0  0
 11 15  1  0  0  0  0
 11 44  1  0  0  0  0
 12 16  2  0  0  0  0
 12 45  1  0  0  0  0
 13 17  1  0  0  0  0
 14 18  1  0  0  0  0
 14 46  1  0  0  0  0
 14 47  1  0  0  0  0
 15 19  2  0  0  0  0
 15 48  1  0  0  0  0
 16 19  1  0  0  0  0
 16 49  1  0  0  0  0
 17 20  1  0  0  0  0
 17 50  1  0  0  0  0
 17 51  1  0  0  0  0
 18 21  1  0  0  0  0
 18 20  1  0  0  0  0
 19 22  1  0  0  0  0
 20 52  1  0  0  0  0
 20 53  1  0  0  0  0
 21 23  2  0  0  0  0
 21 24  1  0  0  0  0
 22 25  1  0  0  0  0
 22 26  1  0  0  0  0
 24 27  1  0  0  0  0
 24 28  2  0  0  0  0
 25 29  1  0  0  0  0
 25 54  1  0  0  0  0
 25 55  1  0  0  0  0
 26 30  1  0  0  0  0
 26 56  1  0  0  0  0
 26 57  1  0  0  0  0
 27 31  2  0  0  0  0
 27 32  1  0  0  0  0
 28 33  1  0  0  0  0
 28 58  1  0  0  0  0
 29 34  1  0  0  0  0
 29 59  1  0  0  0  0
 29 60  1  0  0  0  0
 30 34  1  0  0  0  0
 30 61  1  0  0  0  0
 30 62  1  0  0  0  0
 31 35  1  0  0  0  0
 31 33  1  0  0  0  0
 32 36  2  0  0  0  0
 32 63  1  0  0  0  0
 34 37  1  0  0  0  0
 34 64  1  0  0  0  0
 35 38  2  0  0  0  0
 35 65  1  0  0  0  0
 36 38  1  0  0  0  0
 36 66  1  0  0  0  0
 37 67  1  0  0  0  0
 37 68  1  0  0  0  0
 37 69  1  0  0  0  0
 38 70  1  0  0  0  0
M  CHG  1  34   1
M  END
>  <Molecule Name>
CTX-1019813

>  <SMILES>
CN1CCN(CC1)C1=CC=C(CNC(=O)C2=NC3=C(CCN(C3)C(=O)C3=COC4=C3C=CC=C4)C=C2)C=C1

>  <Batch Name>
CTX-1019813-1

>  <Batch Created Date>
2021-09-17

>  <Batch ID>
CTX-1019813-1

>  <External ID>
P841-0172

>  <Stereochemistry>
Achiral

>  <Amount 1>
4.3

>  <Unit 1>
mg

>  <CRO 1>
Pharmaron

>  <CRO 1 Total Amount>
19.4

>  <CRO 1 Unit>
mg

>  <Pharmaron Solubility (PBS, pH 7.4): Aqueous Solubility - Batch Mean (uM)>
128.57

>  <Pharmaron Solubility (PBS, pH 7.4): Aqueous Solubility - Batch Mean (uM) Standard Deviation (±)>


>  <Pharmaron Solubility (PBS, pH 7.4): Aqueous Solubility - Batch Mean (uM) Count>
1.0

>  <log P>
3.2

>  <log D>
2.57

>  <Pharmaron Caliper Assay (CDK2/CCNE1): Minimum measured (%)>
83.0

>  <Pharmaron Caliper Assay (CDK2/CCNE1): IC50 - Batch Mean (uM)>
6.42

>  <Pharmaron ADPGLO (CDK2/E1-25C): Minimum measured (%)>


>  <Pharmaron ADPGLO (CDK2/E1-25C): IC50 - Batch Mean (uM)>


>  <Pharmaron ADPGLO (CDK2/E1-37C): Minimum measured (%)>


>  <Pharmaron ADPGLO (CDK2/E1-37C): IC50 - Batch Mean (uM)>


>  <IncuCyte Kuramochi RB-WT: IC50 - Batch Mean (uM)>
20.0

>  <IncuCyte Kuramochi RB-KO: IC50 - Batch Mean (uM)>
20.0

>  <DSF (npCDK2/CCNE1): dTm D - Batch Mean [Concentration: 100]>


>  <DSF (npCDK2/CCNE1): dTm D - Batch Mean [Concentration: 20.0]>
0.009000000000000001

>  <DSF (pCDK2/CCNE1): dTm D - Batch Mean [Concentration: 100]>


>  <DSF (pCDK2/CCNE1): dTm D - Batch Mean [Concentration: 20.0]>


>  <RLM: t1/2 - Batch Mean (Min)>


>  <RLM: Cl int - Batch Mean (uL/min/mg protein)>


>  <RLM: ER (Hepatic extraction ratio) - Batch Mean>


>  <HLM: t1/2 - Batch Mean (Min)>


>  <HLM: Cl int - Batch Mean (uL/min/mg protein)>


>  <HLM: ER (Hepatic extraction ratio) - Batch Mean>


>  <MDCK-WT 4% BSA: Papp (A-B) - Batch Mean (10-6, cm/s)>


>  <MDCK-WT 4% BSA: Papp (B-A) - Batch Mean (10-6, cm/s)>


>  <MDCK-WT 4% BSA: Efflux Ratio - Batch Mean>


>  <MDCK-WT 4% BSA: ~Net A_B - Batch Mean (10-6, cm/s)>


>  <pIC50>
5.192465

>  <Selection_1>
Y

>  <Selection_N>


>  <Serie>
Naphthyridine

>  <Selection_T>
N

>  <Train_Vs_Test>


$$$$
