CTX-1019660
 OpenBabel08272613283D

 69 74  0  0  0  0  0  0  0  0999 V2000
    1.2141   -0.0078   -0.0869 O   0  0  0  0  0  0  0  0  0  0  0  0
    2.3843   -0.0569    0.0509 C   0  0  0  0  0  0  0  0  0  0  0  0
    3.1115    0.8841    0.8269 N   0  0  0  0  0  0  0  0  0  0  0  0
    3.2193   -1.1773   -0.6289 C   0  0  0  0  0  0  0  0  0  0  0  0
    2.4296    2.0130    1.4748 C   0  0  0  0  0  0  0  0  0  0  0  0
    4.5928   -1.2674   -0.4412 N   0  0  0  0  0  0  0  0  0  0  0  0
    2.4763   -2.1054   -1.3362 C   0  0  0  0  0  0  0  0  0  0  0  0
    2.9205    3.3749    0.9996 C   0  0  0  0  0  0  0  0  0  0  0  0
    5.2600   -2.4076   -0.9270 C   0  0  0  0  0  0  0  0  0  0  0  0
    3.1784   -3.1737   -1.9160 C   0  0  0  0  0  0  0  0  0  0  0  0
    2.2996    4.0186   -0.0711 C   0  0  0  0  0  0  0  0  0  0  0  0
    4.0287    4.0011    1.5890 C   0  0  0  0  0  0  0  0  0  0  0  0
    4.5851   -3.3320   -1.7309 C   0  0  0  0  0  0  0  0  0  0  0  0
    6.8175   -2.7017   -0.5731 C   0  0  0  0  0  0  0  0  0  0  0  0
    2.7734    5.2447   -0.5517 C   0  0  0  0  0  0  0  0  0  0  0  0
    4.5662    5.1708    1.0352 C   0  0  0  0  0  0  0  0  0  0  0  0
    5.3146   -4.5350   -2.3040 C   0  0  0  0  0  0  0  0  0  0  0  0
    7.3849   -4.2628   -0.7408 N   0  0  0  0  0  0  0  0  0  0  0  0
    3.9212    5.8427   -0.0227 C   0  0  0  0  0  0  0  0  0  0  0  0
    6.9048   -4.5622   -2.1812 C   0  0  0  0  0  0  0  0  0  0  0  0
    8.3400   -5.0492    0.4765 C   0  0  0  0  0  0  0  0  0  0  0  0
    4.3606    7.0649   -0.4818 N   0  0  0  0  0  0  0  0  0  0  0  0
    8.4274   -4.2875    1.4614 O   0  0  0  0  0  0  0  0  0  0  0  0
    9.4765   -6.4888    0.5798 C   0  0  0  0  0  0  0  0  0  0  0  0
    5.0876    7.9745    0.3976 C   0  0  0  0  0  0  0  0  0  0  0  0
    4.3602    7.4241   -1.9092 C   0  0  0  0  0  0  0  0  0  0  0  0
   10.7662   -7.5208    1.2132 C   0  0  0  0  0  0  0  0  0  0  0  0
   10.1524   -6.3949   -0.6060 C   0  0  0  0  0  0  0  0  0  0  0  0
    4.5845    9.4175    0.1826 C   0  0  0  0  0  0  0  0  0  0  0  0
    3.9059    8.8930   -2.0669 C   0  0  0  0  0  0  0  0  0  0  0  0
   10.9492   -8.1926   -0.0124 N   0  0  0  0  0  0  0  0  0  0  0  0
   12.0493   -8.3675    2.2093 C   0  0  0  0  0  0  0  0  0  0  0  0
   10.2840   -7.6194   -1.0424 N   0  0  0  0  0  0  0  0  0  0  0  0
    4.7169    9.8217   -1.2396 N   0  3  0  0  0  0  0  0  0  0  0  0
   11.9291   -9.1334   -0.2585 C   0  0  0  0  0  0  0  0  0  0  0  0
   13.2377   -9.1514    1.6752 N   0  0  0  0  0  0  0  0  0  0  0  0
    4.3020   11.2043   -1.4306 C   0  0  0  0  0  0  0  0  0  0  0  0
   13.1569   -9.1373    0.2839 C   0  0  0  0  0  0  0  0  0  0  0  0
    4.0846    0.7788    0.9322 H   0  0  0  0  0  0  0  0  0  0  0  0
    2.5903    1.9448    2.5305 H   0  0  0  0  0  0  0  0  0  0  0  0
    1.3936    1.9447    1.2162 H   0  0  0  0  0  0  0  0  0  0  0  0
    1.4527   -2.0164   -1.4333 H   0  0  0  0  0  0  0  0  0  0  0  0
    2.6654   -3.8611   -2.4898 H   0  0  0  0  0  0  0  0  0  0  0  0
    1.4768    3.5831   -0.5164 H   0  0  0  0  0  0  0  0  0  0  0  0
    4.4523    3.5965    2.4387 H   0  0  0  0  0  0  0  0  0  0  0  0
    6.9700   -2.4168    0.4469 H   0  0  0  0  0  0  0  0  0  0  0  0
    7.3648   -2.1416   -1.3022 H   0  0  0  0  0  0  0  0  0  0  0  0
    2.2640    5.7183   -1.3141 H   0  0  0  0  0  0  0  0  0  0  0  0
    5.4512    5.5475    1.4090 H   0  0  0  0  0  0  0  0  0  0  0  0
    5.0730   -4.5898   -3.3449 H   0  0  0  0  0  0  0  0  0  0  0  0
    4.9823   -5.3617   -1.7115 H   0  0  0  0  0  0  0  0  0  0  0  0
    7.3140   -3.8258   -2.8409 H   0  0  0  0  0  0  0  0  0  0  0  0
    7.2376   -5.5454   -2.4408 H   0  0  0  0  0  0  0  0  0  0  0  0
    6.1330    7.9253    0.1747 H   0  0  0  0  0  0  0  0  0  0  0  0
    4.9240    7.6898    1.4160 H   0  0  0  0  0  0  0  0  0  0  0  0
    3.6868    6.7830   -2.4388 H   0  0  0  0  0  0  0  0  0  0  0  0
    5.3467    7.3096   -2.3076 H   0  0  0  0  0  0  0  0  0  0  0  0
   10.4894   -5.5329   -1.0626 H   0  0  0  0  0  0  0  0  0  0  0  0
    5.1610   10.0831    0.7905 H   0  0  0  0  0  0  0  0  0  0  0  0
    3.5505    9.4617    0.4543 H   0  0  0  0  0  0  0  0  0  0  0  0
    2.8813    8.9709   -1.7687 H   0  0  0  0  0  0  0  0  0  0  0  0
    4.0344    9.1688   -3.0928 H   0  0  0  0  0  0  0  0  0  0  0  0
   11.9563   -8.3064    3.2353 H   0  0  0  0  0  0  0  0  0  0  0  0
    5.6944    9.7667   -1.5260 H   0  0  0  0  0  0  0  0  0  0  0  0
   11.6986   -9.8968   -0.9136 H   0  0  0  0  0  0  0  0  0  0  0  0
    3.2773   11.3122   -1.1420 H   0  0  0  0  0  0  0  0  0  0  0  0
    4.4122   11.4706   -2.4611 H   0  0  0  0  0  0  0  0  0  0  0  0
    4.9115   11.8459   -0.8292 H   0  0  0  0  0  0  0  0  0  0  0  0
   14.0049   -9.1302   -0.3042 H   0  0  0  0  0  0  0  0  0  0  0  0
  1  2  2  0  0  0  0
  2  3  1  0  0  0  0
  2  4  1  0  0  0  0
  3  5  1  0  0  0  0
  3 39  1  0  0  0  0
  4  6  2  0  0  0  0
  4  7  1  0  0  0  0
  5  8  1  0  0  0  0
  5 40  1  0  0  0  0
  5 41  1  0  0  0  0
  6  9  1  0  0  0  0
  7 10  2  0  0  0  0
  7 42  1  0  0  0  0
  8 11  2  0  0  0  0
  8 12  1  0  0  0  0
  9 13  2  0  0  0  0
  9 14  1  0  0  0  0
 10 13  1  0  0  0  0
 10 43  1  0  0  0  0
 11 15  1  0  0  0  0
 11 44  1  0  0  0  0
 12 16  2  0  0  0  0
 12 45  1  0  0  0  0
 13 17  1  0  0  0  0
 14 18  1  0  0  0  0
 14 46  1  0  0  0  0
 14 47  1  0  0  0  0
 15 19  2  0  0  0  0
 15 48  1  0  0  0  0
 16 19  1  0  0  0  0
 16 49  1  0  0  0  0
 17 20  1  0  0  0  0
 17 50  1  0  0  0  0
 17 51  1  0  0  0  0
 18 21  1  0  0  0  0
 18 20  1  0  0  0  0
 19 22  1  0  0  0  0
 20 52  1  0  0  0  0
 20 53  1  0  0  0  0
 21 23  2  0  0  0  0
 21 24  1  0  0  0  0
 22 25  1  0  0  0  0
 22 26  1  0  0  0  0
 24 27  2  0  0  0  0
 24 28  1  0  0  0  0
 25 29  1  0  0  0  0
 25 54  1  0  0  0  0
 25 55  1  0  0  0  0
 26 30  1  0  0  0  0
 26 56  1  0  0  0  0
 26 57  1  0  0  0  0
 27 31  1  0  0  0  0
 27 32  1  0  0  0  0
 28 33  2  0  0  0  0
 28 58  1  0  0  0  0
 29 34  1  0  0  0  0
 29 59  1  0  0  0  0
 29 60  1  0  0  0  0
 30 34  1  0  0  0  0
 30 61  1  0  0  0  0
 30 62  1  0  0  0  0
 31 35  1  0  0  0  0
 31 33  1  0  0  0  0
 32 36  2  0  0  0  0
 32 63  1  0  0  0  0
 34 37  1  0  0  0  0
 34 64  1  0  0  0  0
 35 38  2  0  0  0  0
 35 65  1  0  0  0  0
 36 38  1  0  0  0  0
 37 66  1  0  0  0  0
 37 67  1  0  0  0  0
 37 68  1  0  0  0  0
 38 69  1  0  0  0  0
M  CHG  1  34   1
M  END
>  <Molecule Name>
CTX-1019660

>  <SMILES>
CN1CCN(CC1)C1=CC=C(CNC(=O)C2=NC3=C(CCN(C3)C(=O)C3=C4C=NC=CN4N=C3)C=C2)C=C1

>  <Batch Name>
CTX-1019660-1

>  <Batch Created Date>
2021-08-19

>  <Batch ID>
CTX-1019660-1

>  <External ID>
P841-0126

>  <Stereochemistry>
Achiral

>  <Amount 1>
2.45

>  <Unit 1>
mg

>  <CRO 1>
Pharmaron

>  <CRO 1 Total Amount>
10.8

>  <CRO 1 Unit>
mg

>  <Pharmaron Solubility (PBS, pH 7.4): Aqueous Solubility - Batch Mean (uM)>
273.0

>  <Pharmaron Solubility (PBS, pH 7.4): Aqueous Solubility - Batch Mean (uM) Standard Deviation (±)>


>  <Pharmaron Solubility (PBS, pH 7.4): Aqueous Solubility - Batch Mean (uM) Count>
1.0

>  <log P>
1.35

>  <log D>
0.72

>  <Pharmaron Caliper Assay (CDK2/CCNE1): Minimum measured (%)>
23.0

>  <Pharmaron Caliper Assay (CDK2/CCNE1): IC50 - Batch Mean (uM)>
7.75

>  <Pharmaron ADPGLO (CDK2/E1-25C): Minimum measured (%)>
81.4

>  <Pharmaron ADPGLO (CDK2/E1-25C): IC50 - Batch Mean (uM)>
5.23

>  <Pharmaron ADPGLO (CDK2/E1-37C): Minimum measured (%)>
101.0

>  <Pharmaron ADPGLO (CDK2/E1-37C): IC50 - Batch Mean (uM)>
10.0

>  <IncuCyte Kuramochi RB-WT: IC50 - Batch Mean (uM)>
20.0

>  <IncuCyte Kuramochi RB-KO: IC50 - Batch Mean (uM)>
20.0

>  <DSF (npCDK2/CCNE1): dTm D - Batch Mean [Concentration: 100]>
-0.22399999999999998

>  <DSF (npCDK2/CCNE1): dTm D - Batch Mean [Concentration: 20.0]>
0.017

>  <DSF (pCDK2/CCNE1): dTm D - Batch Mean [Concentration: 100]>


>  <DSF (pCDK2/CCNE1): dTm D - Batch Mean [Concentration: 20.0]>


>  <RLM: t1/2 - Batch Mean (Min)>


>  <RLM: Cl int - Batch Mean (uL/min/mg protein)>


>  <RLM: ER (Hepatic extraction ratio) - Batch Mean>


>  <HLM: t1/2 - Batch Mean (Min)>


>  <HLM: Cl int - Batch Mean (uL/min/mg protein)>


>  <HLM: ER (Hepatic extraction ratio) - Batch Mean>


>  <MDCK-WT 4% BSA: Papp (A-B) - Batch Mean (10-6, cm/s)>


>  <MDCK-WT 4% BSA: Papp (B-A) - Batch Mean (10-6, cm/s)>


>  <MDCK-WT 4% BSA: Efflux Ratio - Batch Mean>


>  <MDCK-WT 4% BSA: ~Net A_B - Batch Mean (10-6, cm/s)>


>  <pIC50>
5.110698

>  <Selection_1>
Y

>  <Selection_N>


>  <Serie>
Naphthyridine

>  <Selection_T>
N

>  <Train_Vs_Test>


$$$$
