CTX-1020838
 OpenBabel08272613283D

 70 75  0  0  0  0  0  0  0  0999 V2000
    1.3401    0.0150   -0.6163 Cl  0  0  0  0  0  0  0  0  0  0  0  0
    0.3830   -1.4050   -0.5287 C   0  0  0  0  0  0  0  0  0  0  0  0
    0.7706   -2.7382   -0.3430 C   0  0  0  0  0  0  0  0  0  0  0  0
   -1.0179   -1.3483   -0.6909 C   0  0  0  0  0  0  0  0  0  0  0  0
   -0.3722   -3.5157   -0.3478 O   0  0  0  0  0  0  0  0  0  0  0  0
    2.1631   -3.2010   -0.2440 C   0  0  0  0  0  0  0  0  0  0  0  0
   -1.4507   -2.6679   -0.5527 C   0  0  0  0  0  0  0  0  0  0  0  0
   -1.9588   -0.3230   -0.9442 C   0  0  0  0  0  0  0  0  0  0  0  0
    3.0260   -2.3117   -0.3325 O   0  0  0  0  0  0  0  0  0  0  0  0
    2.6973   -4.5274   -0.1041 N   0  0  0  0  0  0  0  0  0  0  0  0
   -2.8106   -2.9914   -0.6405 C   0  0  0  0  0  0  0  0  0  0  0  0
   -3.3144   -0.6332   -1.0461 C   0  0  0  0  0  0  0  0  0  0  0  0
    2.0170   -5.8388    0.1659 C   0  0  0  0  0  0  0  0  0  0  0  0
    4.1472   -4.5182   -0.3319 C   0  0  0  0  0  0  0  0  0  0  0  0
   -3.2534   -4.2431   -0.4864 F   0  0  0  0  0  0  0  0  0  0  0  0
   -3.7362   -1.9519   -0.8872 C   0  0  0  0  0  0  0  0  0  0  0  0
    2.8838   -7.1448    0.0524 C   0  0  0  0  0  0  0  0  0  0  0  0
    4.9819   -5.7237   -0.0008 C   0  0  0  0  0  0  0  0  0  0  0  0
    2.2978   -8.4035    0.1435 N   0  0  0  0  0  0  0  0  0  0  0  0
    4.2741   -7.0258   -0.0731 C   0  0  0  0  0  0  0  0  0  0  0  0
    3.1400   -9.5085    0.0779 C   0  0  0  0  0  0  0  0  0  0  0  0
    5.0827   -8.1655   -0.1574 C   0  0  0  0  0  0  0  0  0  0  0  0
    2.6510  -10.9329    0.2297 C   0  0  0  0  0  0  0  0  0  0  0  0
    4.5143   -9.4143   -0.0873 C   0  0  0  0  0  0  0  0  0  0  0  0
    3.4694  -11.8652    0.2466 O   0  0  0  0  0  0  0  0  0  0  0  0
    1.3027  -11.1820    0.3421 N   0  0  0  0  0  0  0  0  0  0  0  0
    0.7910  -12.5425    0.4498 C   0  0  0  0  0  0  0  0  0  0  0  0
   -0.1225  -12.8734   -0.7000 C   0  0  0  0  0  0  0  0  0  0  0  0
    0.3629  -13.4974   -1.8527 C   0  0  0  0  0  0  0  0  0  0  0  0
   -1.4706  -12.5160   -0.6575 C   0  0  0  0  0  0  0  0  0  0  0  0
   -0.4836  -13.7297   -2.9454 C   0  0  0  0  0  0  0  0  0  0  0  0
   -2.3015  -12.7379   -1.7631 C   0  0  0  0  0  0  0  0  0  0  0  0
   -1.8325  -13.3449   -2.9367 C   0  0  0  0  0  0  0  0  0  0  0  0
   -2.6566  -13.6275   -4.0091 N   0  0  0  0  0  0  0  0  0  0  0  0
   -4.1170  -13.7034   -3.8660 C   0  0  0  0  0  0  0  0  0  0  0  0
   -2.2165  -13.3935   -5.3970 C   0  0  0  0  0  0  0  0  0  0  0  0
   -4.6629  -14.8024   -4.8072 C   0  0  0  0  0  0  0  0  0  0  0  0
   -2.8050  -14.4906   -6.3187 C   0  0  0  0  0  0  0  0  0  0  0  0
   -4.2815  -14.5923   -6.2230 N   0  3  0  0  0  0  0  0  0  0  0  0
   -4.7766  -15.6914   -7.0485 C   0  0  0  0  0  0  0  0  0  0  0  0
   -1.6425    0.6533   -1.0533 H   0  0  0  0  0  0  0  0  0  0  0  0
   -4.0029    0.1110   -1.2386 H   0  0  0  0  0  0  0  0  0  0  0  0
    1.2089   -5.9293   -0.5295 H   0  0  0  0  0  0  0  0  0  0  0  0
    1.7324   -5.7902    1.1962 H   0  0  0  0  0  0  0  0  0  0  0  0
    4.5420   -3.7058    0.2417 H   0  0  0  0  0  0  0  0  0  0  0  0
    4.2217   -4.4609   -1.3978 H   0  0  0  0  0  0  0  0  0  0  0  0
   -4.7421   -2.1734   -0.9507 H   0  0  0  0  0  0  0  0  0  0  0  0
    5.3536   -5.6046    0.9955 H   0  0  0  0  0  0  0  0  0  0  0  0
    5.7507   -5.7638   -0.7440 H   0  0  0  0  0  0  0  0  0  0  0  0
    6.1037   -8.0678   -0.2720 H   0  0  0  0  0  0  0  0  0  0  0  0
    5.0967  -10.2635   -0.1559 H   0  0  0  0  0  0  0  0  0  0  0  0
    0.6713  -10.4267    0.3500 H   0  0  0  0  0  0  0  0  0  0  0  0
    0.2475  -12.6394    1.3663 H   0  0  0  0  0  0  0  0  0  0  0  0
    1.6200  -13.2187    0.4292 H   0  0  0  0  0  0  0  0  0  0  0  0
    1.3517  -13.7892   -1.8996 H   0  0  0  0  0  0  0  0  0  0  0  0
   -1.8588  -12.0845    0.1958 H   0  0  0  0  0  0  0  0  0  0  0  0
   -0.1027  -14.1984   -3.7822 H   0  0  0  0  0  0  0  0  0  0  0  0
   -3.2899  -12.4454   -1.7122 H   0  0  0  0  0  0  0  0  0  0  0  0
   -4.5516  -12.7609   -4.1262 H   0  0  0  0  0  0  0  0  0  0  0  0
   -4.3675  -13.9401   -2.8531 H   0  0  0  0  0  0  0  0  0  0  0  0
   -1.1479  -13.4254   -5.4422 H   0  0  0  0  0  0  0  0  0  0  0  0
   -2.5593  -12.4335   -5.7222 H   0  0  0  0  0  0  0  0  0  0  0  0
   -5.7307  -14.8103   -4.7391 H   0  0  0  0  0  0  0  0  0  0  0  0
   -4.2364  -15.7327   -4.4950 H   0  0  0  0  0  0  0  0  0  0  0  0
   -2.3791  -15.4328   -6.0432 H   0  0  0  0  0  0  0  0  0  0  0  0
   -2.5656  -14.2257   -7.3273 H   0  0  0  0  0  0  0  0  0  0  0  0
   -4.6999  -13.7272   -6.5649 H   0  0  0  0  0  0  0  0  0  0  0  0
   -4.3510  -16.6124   -6.7087 H   0  0  0  0  0  0  0  0  0  0  0  0
   -4.4987  -15.5248   -8.0682 H   0  0  0  0  0  0  0  0  0  0  0  0
   -5.8428  -15.7419   -6.9731 H   0  0  0  0  0  0  0  0  0  0  0  0
  1  2  1  0  0  0  0
  2  3  2  0  0  0  0
  2  4  1  0  0  0  0
  3  5  1  0  0  0  0
  3  6  1  0  0  0  0
  4  7  2  0  0  0  0
  4  8  1  0  0  0  0
  5  7  1  0  0  0  0
  6  9  2  0  0  0  0
  6 10  1  0  0  0  0
  7 11  1  0  0  0  0
  8 12  2  0  0  0  0
  8 41  1  0  0  0  0
 10 13  1  0  0  0  0
 10 14  1  0  0  0  0
 11 15  1  0  0  0  0
 11 16  2  0  0  0  0
 12 16  1  0  0  0  0
 12 42  1  0  0  0  0
 13 17  1  0  0  0  0
 13 43  1  0  0  0  0
 13 44  1  0  0  0  0
 14 18  1  0  0  0  0
 14 45  1  0  0  0  0
 14 46  1  0  0  0  0
 16 47  1  0  0  0  0
 17 19  2  0  0  0  0
 17 20  1  0  0  0  0
 18 20  1  0  0  0  0
 18 48  1  0  0  0  0
 18 49  1  0  0  0  0
 19 21  1  0  0  0  0
 20 22  2  0  0  0  0
 21 23  1  0  0  0  0
 21 24  2  0  0  0  0
 22 24  1  0  0  0  0
 22 50  1  0  0  0  0
 23 25  2  0  0  0  0
 23 26  1  0  0  0  0
 24 51  1  0  0  0  0
 26 27  1  0  0  0  0
 26 52  1  0  0  0  0
 27 28  1  0  0  0  0
 27 53  1  0  0  0  0
 27 54  1  0  0  0  0
 28 29  2  0  0  0  0
 28 30  1  0  0  0  0
 29 31  1  0  0  0  0
 29 55  1  0  0  0  0
 30 32  2  0  0  0  0
 30 56  1  0  0  0  0
 31 33  2  0  0  0  0
 31 57  1  0  0  0  0
 32 33  1  0  0  0  0
 32 58  1  0  0  0  0
 33 34  1  0  0  0  0
 34 35  1  0  0  0  0
 34 36  1  0  0  0  0
 35 37  1  0  0  0  0
 35 59  1  0  0  0  0
 35 60  1  0  0  0  0
 36 38  1  0  0  0  0
 36 61  1  0  0  0  0
 36 62  1  0  0  0  0
 37 39  1  0  0  0  0
 37 63  1  0  0  0  0
 37 64  1  0  0  0  0
 38 39  1  0  0  0  0
 38 65  1  0  0  0  0
 38 66  1  0  0  0  0
 39 40  1  0  0  0  0
 39 67  1  0  0  0  0
 40 68  1  0  0  0  0
 40 69  1  0  0  0  0
 40 70  1  0  0  0  0
M  CHG  1  39   1
M  END
>  <Molecule Name>
CTX-1020838

>  <SMILES>
CN1CCN(CC1)C1=CC=C(CNC(=O)C2=CC=C3CCN(CC3=N2)C(=O)C2=C(Cl)C3=C(O2)C(F)=CC=C3)C=C1

>  <Batch Name>
CTX-1020838-1

>  <Batch Created Date>
2022-01-06

>  <Batch ID>
CTX-1020838-1

>  <External ID>
CD-42-P

>  <Stereochemistry>
Achiral

>  <Amount 1>
6.2

>  <Unit 1>
mg

>  <CRO 1>
Pharmaron

>  <CRO 1 Total Amount>
20.9

>  <CRO 1 Unit>
mg

>  <Pharmaron Solubility (PBS, pH 7.4): Aqueous Solubility - Batch Mean (uM)>
134.72

>  <Pharmaron Solubility (PBS, pH 7.4): Aqueous Solubility - Batch Mean (uM) Standard Deviation (±)>


>  <Pharmaron Solubility (PBS, pH 7.4): Aqueous Solubility - Batch Mean (uM) Count>
1.0

>  <log P>
3.87

>  <log D>
3.23

>  <Pharmaron Caliper Assay (CDK2/CCNE1): Minimum measured (%)>
23.5

>  <Pharmaron Caliper Assay (CDK2/CCNE1): IC50 - Batch Mean (uM)>
6.19

>  <Pharmaron ADPGLO (CDK2/E1-25C): Minimum measured (%)>
32.3

>  <Pharmaron ADPGLO (CDK2/E1-25C): IC50 - Batch Mean (uM)>
7.79

>  <Pharmaron ADPGLO (CDK2/E1-37C): Minimum measured (%)>
88.1

>  <Pharmaron ADPGLO (CDK2/E1-37C): IC50 - Batch Mean (uM)>
100

>  <IncuCyte Kuramochi RB-WT: IC50 - Batch Mean (uM)>
6.97

>  <IncuCyte Kuramochi RB-KO: IC50 - Batch Mean (uM)>
6.95

>  <DSF (npCDK2/CCNE1): dTm D - Batch Mean [Concentration: 100]>


>  <DSF (npCDK2/CCNE1): dTm D - Batch Mean [Concentration: 20.0]>
1.57

>  <DSF (pCDK2/CCNE1): dTm D - Batch Mean [Concentration: 100]>


>  <DSF (pCDK2/CCNE1): dTm D - Batch Mean [Concentration: 20.0]>
0.46799999999999997

>  <RLM: t1/2 - Batch Mean (Min)>


>  <RLM: Cl int - Batch Mean (uL/min/mg protein)>


>  <RLM: ER (Hepatic extraction ratio) - Batch Mean>


>  <HLM: t1/2 - Batch Mean (Min)>


>  <HLM: Cl int - Batch Mean (uL/min/mg protein)>


>  <HLM: ER (Hepatic extraction ratio) - Batch Mean>


>  <MDCK-WT 4% BSA: Papp (A-B) - Batch Mean (10-6, cm/s)>


>  <MDCK-WT 4% BSA: Papp (B-A) - Batch Mean (10-6, cm/s)>


>  <MDCK-WT 4% BSA: Efflux Ratio - Batch Mean>


>  <MDCK-WT 4% BSA: ~Net A_B - Batch Mean (10-6, cm/s)>


>  <pIC50>
5.208309

>  <Selection_1>
Y

>  <Selection_N>


>  <Serie>
Naphthyridine

>  <Selection_T>
N

>  <Train_Vs_Test>


$$$$
