CTX-1019496
 OpenBabel08272613283D

 51 55  0  0  0  0  0  0  0  0999 V2000
   -3.3997    6.8120    1.6580 S   0  0  0  0  0  0  0  0  0  0  0  0
   -2.3213    5.5479    2.0936 C   0  0  0  0  0  0  0  0  0  0  0  0
   -3.9248    6.9041    3.2866 C   0  0  0  0  0  0  0  0  0  0  0  0
   -2.4448    5.2853    3.4422 C   0  0  0  0  0  0  0  0  0  0  0  0
   -1.4688    4.8775    1.0793 C   0  0  0  0  0  0  0  0  0  0  0  0
   -3.3628    6.0631    4.1264 N   0  0  0  0  0  0  0  0  0  0  0  0
   -0.2125    5.5649    0.9588 N   0  0  0  0  0  0  0  0  0  0  0  0
    0.7618    5.1161    0.0862 C   0  0  0  0  0  0  0  0  0  0  0  0
    0.6221    4.1105   -0.6136 O   0  0  0  0  0  0  0  0  0  0  0  0
    2.0217    5.9209    0.0470 C   0  0  0  0  0  0  0  0  0  0  0  0
    2.1153    6.9900    0.9089 N   0  0  0  0  0  0  0  0  0  0  0  0
    3.0271    5.5483   -0.8341 C   0  0  0  0  0  0  0  0  0  0  0  0
    3.2908    7.6859    0.8983 C   0  0  0  0  0  0  0  0  0  0  0  0
    4.2056    6.2812   -0.8415 C   0  0  0  0  0  0  0  0  0  0  0  0
    4.3492    7.3645    0.0283 C   0  0  0  0  0  0  0  0  0  0  0  0
    3.4126    8.8636    1.8647 C   0  0  0  0  0  0  0  0  0  0  0  0
    5.6617    8.1028    0.0790 C   0  0  0  0  0  0  0  0  0  0  0  0
    4.7885    9.3292    2.0296 N   0  0  0  0  0  0  0  0  0  0  0  0
    5.5712    9.4390    0.8091 C   0  0  0  0  0  0  0  0  0  0  0  0
    5.2048    9.9007    3.2375 C   0  0  0  0  0  0  0  0  0  0  0  0
    4.3969   10.4125    4.0115 O   0  0  0  0  0  0  0  0  0  0  0  0
    6.5887    9.6009    3.6257 C   0  0  0  0  0  0  0  0  0  0  0  0
    7.0952    8.4388    3.0825 O   0  0  0  0  0  0  0  0  0  0  0  0
    7.2930    9.8256    4.8109 C   0  0  0  0  0  0  0  0  0  0  0  0
    7.4956    7.7060    4.1475 C   0  0  0  0  0  0  0  0  0  0  0  0
    7.5193    8.5001    5.2828 C   0  0  0  0  0  0  0  0  0  0  0  0
    7.6518   11.0771    5.5186 C   0  0  0  0  0  0  0  0  0  0  0  0
    7.7628    6.3496    4.1124 C   0  0  0  0  0  0  0  0  0  0  0  0
    7.7522    7.8783    6.5236 C   0  0  0  0  0  0  0  0  0  0  0  0
    7.9491    5.7449    5.3576 C   0  0  0  0  0  0  0  0  0  0  0  0
    7.9194    6.4885    6.5430 C   0  0  0  0  0  0  0  0  0  0  0  0
   -4.6416    7.5813    3.5910 H   0  0  0  0  0  0  0  0  0  0  0  0
   -1.8874    4.5546    3.9117 H   0  0  0  0  0  0  0  0  0  0  0  0
   -1.9696    4.8870    0.1338 H   0  0  0  0  0  0  0  0  0  0  0  0
   -1.2881    3.8682    1.3852 H   0  0  0  0  0  0  0  0  0  0  0  0
   -0.0432    6.3663    1.5051 H   0  0  0  0  0  0  0  0  0  0  0  0
    2.9013    4.7447   -1.4692 H   0  0  0  0  0  0  0  0  0  0  0  0
    4.9710    6.0273   -1.4855 H   0  0  0  0  0  0  0  0  0  0  0  0
    3.0388    8.5602    2.8203 H   0  0  0  0  0  0  0  0  0  0  0  0
    2.8482    9.6741    1.4532 H   0  0  0  0  0  0  0  0  0  0  0  0
    5.9888    8.2844   -0.9234 H   0  0  0  0  0  0  0  0  0  0  0  0
    6.3508    7.4898    0.6215 H   0  0  0  0  0  0  0  0  0  0  0  0
    5.1095   10.1569    0.1638 H   0  0  0  0  0  0  0  0  0  0  0  0
    6.5621    9.7444    1.0730 H   0  0  0  0  0  0  0  0  0  0  0  0
    7.3620   11.9184    4.9244 H   0  0  0  0  0  0  0  0  0  0  0  0
    8.7088   11.1035    5.6828 H   0  0  0  0  0  0  0  0  0  0  0  0
    7.1437   11.1130    6.4596 H   0  0  0  0  0  0  0  0  0  0  0  0
    7.8205    5.8210    3.2280 H   0  0  0  0  0  0  0  0  0  0  0  0
    7.7985    8.4309    7.3939 H   0  0  0  0  0  0  0  0  0  0  0  0
    8.1124    4.7270    5.4047 H   0  0  0  0  0  0  0  0  0  0  0  0
    8.0225    6.0033    7.4480 H   0  0  0  0  0  0  0  0  0  0  0  0
  1  2  1  0  0  0  0
  1  3  1  0  0  0  0
  2  4  2  0  0  0  0
  2  5  1  0  0  0  0
  3  6  2  0  0  0  0
  3 32  1  0  0  0  0
  4  6  1  0  0  0  0
  4 33  1  0  0  0  0
  5  7  1  0  0  0  0
  5 34  1  0  0  0  0
  5 35  1  0  0  0  0
  7  8  1  0  0  0  0
  7 36  1  0  0  0  0
  8  9  2  0  0  0  0
  8 10  1  0  0  0  0
 10 11  2  0  0  0  0
 10 12  1  0  0  0  0
 11 13  1  0  0  0  0
 12 14  2  0  0  0  0
 12 37  1  0  0  0  0
 13 15  2  0  0  0  0
 13 16  1  0  0  0  0
 14 15  1  0  0  0  0
 14 38  1  0  0  0  0
 15 17  1  0  0  0  0
 16 18  1  0  0  0  0
 16 39  1  0  0  0  0
 16 40  1  0  0  0  0
 17 19  1  0  0  0  0
 17 41  1  0  0  0  0
 17 42  1  0  0  0  0
 18 20  1  0  0  0  0
 18 19  1  0  0  0  0
 19 43  1  0  0  0  0
 19 44  1  0  0  0  0
 20 21  2  0  0  0  0
 20 22  1  0  0  0  0
 22 23  1  0  0  0  0
 22 24  2  0  0  0  0
 23 25  1  0  0  0  0
 24 26  1  0  0  0  0
 24 27  1  0  0  0  0
 25 28  2  0  0  0  0
 25 26  1  0  0  0  0
 26 29  2  0  0  0  0
 27 45  1  0  0  0  0
 27 46  1  0  0  0  0
 27 47  1  0  0  0  0
 28 30  1  0  0  0  0
 28 48  1  0  0  0  0
 29 31  1  0  0  0  0
 29 49  1  0  0  0  0
 30 31  2  0  0  0  0
 30 50  1  0  0  0  0
 31 51  1  0  0  0  0
M  END
>  <Molecule Name>
CTX-1019496

>  <SMILES>
CC1=C(OC2=C1C=CC=C2)C(=O)N1CCC2=C(C1)N=C(C=C2)C(=O)NCC1=CN=CS1

>  <Batch Name>
CTX-1019496-1

>  <Batch Created Date>
2021-07-30

>  <Batch ID>
CTX-1019496-1

>  <External ID>
P841-0109

>  <Stereochemistry>
Achiral

>  <Amount 1>
2.3

>  <Unit 1>
mg

>  <CRO 1>
Pharmaron

>  <CRO 1 Total Amount>
13.7

>  <CRO 1 Unit>
mg

>  <Pharmaron Solubility (PBS, pH 7.4): Aqueous Solubility - Batch Mean (uM)>
13.7

>  <Pharmaron Solubility (PBS, pH 7.4): Aqueous Solubility - Batch Mean (uM) Standard Deviation (±)>


>  <Pharmaron Solubility (PBS, pH 7.4): Aqueous Solubility - Batch Mean (uM) Count>
1.0

>  <log P>
2.47

>  <log D>
2.47

>  <Pharmaron Caliper Assay (CDK2/CCNE1): Minimum measured (%)>
66.1

>  <Pharmaron Caliper Assay (CDK2/CCNE1): IC50 - Batch Mean (uM)>
5.47

>  <Pharmaron ADPGLO (CDK2/E1-25C): Minimum measured (%)>


>  <Pharmaron ADPGLO (CDK2/E1-25C): IC50 - Batch Mean (uM)>


>  <Pharmaron ADPGLO (CDK2/E1-37C): Minimum measured (%)>


>  <Pharmaron ADPGLO (CDK2/E1-37C): IC50 - Batch Mean (uM)>


>  <IncuCyte Kuramochi RB-WT: IC50 - Batch Mean (uM)>
20.0

>  <IncuCyte Kuramochi RB-KO: IC50 - Batch Mean (uM)>
20.0

>  <DSF (npCDK2/CCNE1): dTm D - Batch Mean [Concentration: 100]>


>  <DSF (npCDK2/CCNE1): dTm D - Batch Mean [Concentration: 20.0]>
0.631

>  <DSF (pCDK2/CCNE1): dTm D - Batch Mean [Concentration: 100]>


>  <DSF (pCDK2/CCNE1): dTm D - Batch Mean [Concentration: 20.0]>


>  <RLM: t1/2 - Batch Mean (Min)>


>  <RLM: Cl int - Batch Mean (uL/min/mg protein)>


>  <RLM: ER (Hepatic extraction ratio) - Batch Mean>


>  <HLM: t1/2 - Batch Mean (Min)>


>  <HLM: Cl int - Batch Mean (uL/min/mg protein)>


>  <HLM: ER (Hepatic extraction ratio) - Batch Mean>


>  <MDCK-WT 4% BSA: Papp (A-B) - Batch Mean (10-6, cm/s)>


>  <MDCK-WT 4% BSA: Papp (B-A) - Batch Mean (10-6, cm/s)>


>  <MDCK-WT 4% BSA: Efflux Ratio - Batch Mean>


>  <MDCK-WT 4% BSA: ~Net A_B - Batch Mean (10-6, cm/s)>


>  <pIC50>
5.262013

>  <Selection_1>
Y

>  <Selection_N>


>  <Serie>
Naphthyridine

>  <Selection_T>
N

>  <Train_Vs_Test>


$$$$
