CTX-1020818
 OpenBabel08272613283D

 54 59  0  0  0  0  0  0  0  0999 V2000
    1.9511   -0.8001   -0.0542 S   0  0  0  0  0  0  0  0  0  0  0  0
    2.3391    0.8748   -0.0208 C   0  0  0  0  0  0  0  0  0  0  0  0
    0.2697   -0.5004   -0.0645 C   0  0  0  0  0  0  0  0  0  0  0  0
    3.7228    1.3894    0.0145 C   0  0  0  0  0  0  0  0  0  0  0  0
    1.1654    1.6282   -0.0199 C   0  0  0  0  0  0  0  0  0  0  0  0
   -0.0446    0.8451   -0.0716 C   0  0  0  0  0  0  0  0  0  0  0  0
   -0.7613   -1.5912   -0.0956 C   0  0  0  0  0  0  0  0  0  0  0  0
    3.9605    2.6036    0.0368 O   0  0  0  0  0  0  0  0  0  0  0  0
    4.7759    0.4778    0.0246 N   0  0  0  0  0  0  0  0  0  0  0  0
   -1.4815    1.3493   -0.0900 C   0  0  0  0  0  0  0  0  0  0  0  0
   -2.1226   -1.0158    0.3247 C   0  0  0  0  0  0  0  0  0  0  0  0
    6.2058    0.8699    0.0359 C   0  0  0  0  0  0  0  0  0  0  0  0
   -2.4124    0.2411   -0.3858 N   0  0  0  0  0  0  0  0  0  0  0  0
    6.6909    1.0050   -1.3850 C   0  0  3  0  0  0  0  0  0  0  0  0
   -3.3950    0.3867   -1.3724 C   0  0  0  0  0  0  0  0  0  0  0  0
    6.1069    2.0598   -2.4476 C   0  0  0  0  0  0  0  0  0  0  0  0
    6.0894   -0.0695   -2.3614 C   0  0  0  0  0  0  0  0  0  0  0  0
    8.0512    0.7064   -2.3401 C   0  0  0  0  0  0  0  0  0  0  0  0
   -3.4703    1.4472   -2.0346 O   0  0  0  0  0  0  0  0  0  0  0  0
   -4.3088   -0.7223   -1.6327 C   0  0  0  0  0  0  0  0  0  0  0  0
    6.8070    0.9268   -3.3207 C   0  0  3  0  0  0  0  0  0  0  0  0
   -4.6990   -1.5168   -0.5809 O   0  0  0  0  0  0  0  0  0  0  0  0
   -4.9437   -1.1774   -2.7844 C   0  0  0  0  0  0  0  0  0  0  0  0
   -5.5236   -2.4831   -1.0420 C   0  0  0  0  0  0  0  0  0  0  0  0
   -5.7517   -2.2927   -2.3922 C   0  0  0  0  0  0  0  0  0  0  0  0
   -4.8105   -0.6558   -4.1673 C   0  0  0  0  0  0  0  0  0  0  0  0
   -6.0924   -3.4985   -0.2783 C   0  0  0  0  0  0  0  0  0  0  0  0
   -6.6480   -3.1649   -3.0399 C   0  0  0  0  0  0  0  0  0  0  0  0
   -6.9812   -4.3501   -0.9417 C   0  0  0  0  0  0  0  0  0  0  0  0
   -7.2641   -4.1848   -2.3003 C   0  0  0  0  0  0  0  0  0  0  0  0
    1.1630    2.6596    0.0148 H   0  0  0  0  0  0  0  0  0  0  0  0
   -0.4781   -2.3700    0.5812 H   0  0  0  0  0  0  0  0  0  0  0  0
   -0.8312   -1.9900   -1.0861 H   0  0  0  0  0  0  0  0  0  0  0  0
    4.5583   -0.4824    0.0242 H   0  0  0  0  0  0  0  0  0  0  0  0
   -1.5808    2.1035   -0.8425 H   0  0  0  0  0  0  0  0  0  0  0  0
   -1.7192    1.7552    0.8710 H   0  0  0  0  0  0  0  0  0  0  0  0
   -2.1113   -0.8267    1.3778 H   0  0  0  0  0  0  0  0  0  0  0  0
   -2.8821   -1.7276    0.0771 H   0  0  0  0  0  0  0  0  0  0  0  0
    6.7790    0.1204    0.5406 H   0  0  0  0  0  0  0  0  0  0  0  0
    6.3198    1.8034    0.5463 H   0  0  0  0  0  0  0  0  0  0  0  0
    6.5470    3.0350   -2.4643 H   0  0  0  0  0  0  0  0  0  0  0  0
    5.1081    2.4352   -2.5276 H   0  0  0  0  0  0  0  0  0  0  0  0
    5.0227   -0.1219   -2.4266 H   0  0  0  0  0  0  0  0  0  0  0  0
    6.2174   -1.1308   -2.3153 H   0  0  0  0  0  0  0  0  0  0  0  0
    8.4859   -0.2704   -2.2976 H   0  0  0  0  0  0  0  0  0  0  0  0
    9.0050    1.1911   -2.3338 H   0  0  0  0  0  0  0  0  0  0  0  0
    6.8804    0.9663   -4.3875 H   0  0  0  0  0  0  0  0  0  0  0  0
   -4.1444    0.1816   -4.1700 H   0  0  0  0  0  0  0  0  0  0  0  0
   -5.7705   -0.3490   -4.5268 H   0  0  0  0  0  0  0  0  0  0  0  0
   -4.4206   -1.4238   -4.8022 H   0  0  0  0  0  0  0  0  0  0  0  0
   -5.8703   -3.6163    0.7226 H   0  0  0  0  0  0  0  0  0  0  0  0
   -6.8488   -3.0549   -4.0462 H   0  0  0  0  0  0  0  0  0  0  0  0
   -7.4364   -5.1145   -0.4186 H   0  0  0  0  0  0  0  0  0  0  0  0
   -7.9329   -4.8195   -2.7638 H   0  0  0  0  0  0  0  0  0  0  0  0
  1  2  1  0  0  0  0
  1  3  1  0  0  0  0
  2  4  1  0  0  0  0
  2  5  2  0  0  0  0
  3  6  2  0  0  0  0
  3  7  1  0  0  0  0
  4  8  2  0  0  0  0
  4  9  1  0  0  0  0
  5  6  1  0  0  0  0
  5 31  1  0  0  0  0
  6 10  1  0  0  0  0
  7 11  1  0  0  0  0
  7 32  1  0  0  0  0
  7 33  1  0  0  0  0
  9 12  1  0  0  0  0
  9 34  1  0  0  0  0
 10 13  1  0  0  0  0
 10 35  1  0  0  0  0
 10 36  1  0  0  0  0
 11 13  1  0  0  0  0
 11 37  1  0  0  0  0
 11 38  1  0  0  0  0
 12 14  1  0  0  0  0
 12 39  1  0  0  0  0
 12 40  1  0  0  0  0
 13 15  1  0  0  0  0
 14 16  1  0  0  0  0
 14 17  1  0  0  0  0
 14 18  1  0  0  0  0
 15 19  2  0  0  0  0
 15 20  1  0  0  0  0
 16 21  1  0  0  0  0
 16 41  1  0  0  0  0
 16 42  1  0  0  0  0
 17 21  1  0  0  0  0
 17 43  1  0  0  0  0
 17 44  1  0  0  0  0
 18 21  1  0  0  0  0
 18 45  1  0  0  0  0
 18 46  1  0  0  0  0
 20 22  1  0  0  0  0
 20 23  2  0  0  0  0
 21 47  1  0  0  0  0
 22 24  1  0  0  0  0
 23 25  1  0  0  0  0
 23 26  1  0  0  0  0
 24 27  2  0  0  0  0
 24 25  1  0  0  0  0
 25 28  2  0  0  0  0
 26 48  1  0  0  0  0
 26 49  1  0  0  0  0
 26 50  1  0  0  0  0
 27 29  1  0  0  0  0
 27 51  1  0  0  0  0
 28 30  1  0  0  0  0
 28 52  1  0  0  0  0
 29 30  2  0  0  0  0
 29 53  1  0  0  0  0
 30 54  1  0  0  0  0
M  END
>  <Molecule Name>
CTX-1020818

>  <SMILES>
CC1=C(OC2=C1C=CC=C2)C(=O)N1CCC2=C(C1)C=C(S2)C(=O)NCC12CC(C1)C2

>  <Batch Name>
CTX-1020818-1

>  <Batch Created Date>
2021-12-30

>  <Batch ID>
CTX-1020818-1

>  <External ID>
CD-44-L

>  <Stereochemistry>
Achiral

>  <Amount 1>
4.1

>  <Unit 1>
mg

>  <CRO 1>
Pharmaron

>  <CRO 1 Total Amount>
30.3

>  <CRO 1 Unit>
mg

>  <Pharmaron Solubility (PBS, pH 7.4): Aqueous Solubility - Batch Mean (uM)>
0.0335

>  <Pharmaron Solubility (PBS, pH 7.4): Aqueous Solubility - Batch Mean (uM) Standard Deviation (±)>


>  <Pharmaron Solubility (PBS, pH 7.4): Aqueous Solubility - Batch Mean (uM) Count>
1.0

>  <log P>
3.73

>  <log D>
3.73

>  <Pharmaron Caliper Assay (CDK2/CCNE1): Minimum measured (%)>
85.3

>  <Pharmaron Caliper Assay (CDK2/CCNE1): IC50 - Batch Mean (uM)>
30.9

>  <Pharmaron ADPGLO (CDK2/E1-25C): Minimum measured (%)>
94.5

>  <Pharmaron ADPGLO (CDK2/E1-25C): IC50 - Batch Mean (uM)>
100

>  <Pharmaron ADPGLO (CDK2/E1-37C): Minimum measured (%)>
97.0

>  <Pharmaron ADPGLO (CDK2/E1-37C): IC50 - Batch Mean (uM)>
100

>  <IncuCyte Kuramochi RB-WT: IC50 - Batch Mean (uM)>
20.0

>  <IncuCyte Kuramochi RB-KO: IC50 - Batch Mean (uM)>
15.5

>  <DSF (npCDK2/CCNE1): dTm D - Batch Mean [Concentration: 100]>


>  <DSF (npCDK2/CCNE1): dTm D - Batch Mean [Concentration: 20.0]>
0.33399999999999996

>  <DSF (pCDK2/CCNE1): dTm D - Batch Mean [Concentration: 100]>


>  <DSF (pCDK2/CCNE1): dTm D - Batch Mean [Concentration: 20.0]>
-0.11699999999999999

>  <RLM: t1/2 - Batch Mean (Min)>


>  <RLM: Cl int - Batch Mean (uL/min/mg protein)>


>  <RLM: ER (Hepatic extraction ratio) - Batch Mean>


>  <HLM: t1/2 - Batch Mean (Min)>


>  <HLM: Cl int - Batch Mean (uL/min/mg protein)>


>  <HLM: ER (Hepatic extraction ratio) - Batch Mean>


>  <MDCK-WT 4% BSA: Papp (A-B) - Batch Mean (10-6, cm/s)>


>  <MDCK-WT 4% BSA: Papp (B-A) - Batch Mean (10-6, cm/s)>


>  <MDCK-WT 4% BSA: Efflux Ratio - Batch Mean>


>  <MDCK-WT 4% BSA: ~Net A_B - Batch Mean (10-6, cm/s)>


>  <pIC50>
4.510042

>  <Selection_1>
Y

>  <Selection_N>
N

>  <Serie>
Tetrahydrothienopyridine

>  <Selection_T>


>  <Train_Vs_Test>


$$$$
