CTX-1019471
 OpenBabel08272613283D

 54 58  0  0  0  0  0  0  0  0999 V2000
    1.5911    0.8373   -0.5244 O   0  0  0  0  0  0  0  0  0  0  0  0
    2.4315    0.0856   -0.0340 C   0  0  0  0  0  0  0  0  0  0  0  0
    2.7910    0.1277    1.2935 N   0  0  0  0  0  0  0  0  0  0  0  0
    3.1248   -0.9421   -0.8824 C   0  0  0  0  0  0  0  0  0  0  0  0
    2.1667    1.0541    2.2156 C   0  0  0  0  0  0  0  0  0  0  0  0
    4.0844   -1.7341   -0.3091 N   0  0  0  0  0  0  0  0  0  0  0  0
    2.7496   -1.0202   -2.2165 C   0  0  0  0  0  0  0  0  0  0  0  0
    0.9756    0.4523    2.9091 C   0  0  0  0  0  0  0  0  0  0  0  0
    4.6838   -2.6620   -1.1179 C   0  0  0  0  0  0  0  0  0  0  0  0
    3.3762   -1.9546   -3.0236 C   0  0  0  0  0  0  0  0  0  0  0  0
    1.1004   -0.1302    4.1723 C   0  0  0  0  0  0  0  0  0  0  0  0
   -0.2840    0.4429    2.2849 C   0  0  0  0  0  0  0  0  0  0  0  0
    4.3594   -2.7876   -2.4812 C   0  0  0  0  0  0  0  0  0  0  0  0
    5.7625   -3.5652   -0.5080 C   0  0  0  0  0  0  0  0  0  0  0  0
   -0.0305   -0.6826    4.7678 C   0  0  0  0  0  0  0  0  0  0  0  0
   -1.3436   -0.1434    2.9608 C   0  0  0  0  0  0  0  0  0  0  0  0
    4.9681   -3.8532   -3.3557 C   0  0  0  0  0  0  0  0  0  0  0  0
    6.0647   -4.7346   -1.3374 N   0  0  0  0  0  0  0  0  0  0  0  0
   -1.2452   -0.7074    4.1847 N   0  0  0  0  0  0  0  0  0  0  0  0
    6.2210   -4.4817   -2.7596 C   0  0  0  0  0  0  0  0  0  0  0  0
    6.4797   -5.9370   -0.7560 C   0  0  0  0  0  0  0  0  0  0  0  0
    7.0305   -5.9578    0.3437 O   0  0  0  0  0  0  0  0  0  0  0  0
    5.9676   -7.1489   -1.4050 C   0  0  0  0  0  0  0  0  0  0  0  0
    4.8129   -6.9730   -2.1368 O   0  0  0  0  0  0  0  0  0  0  0  0
    6.0268   -8.4979   -1.0533 C   0  0  0  0  0  0  0  0  0  0  0  0
    3.9597   -7.9187   -1.6765 C   0  0  0  0  0  0  0  0  0  0  0  0
    4.6467   -8.8259   -0.8844 C   0  0  0  0  0  0  0  0  0  0  0  0
    7.1764   -9.3865   -0.7617 C   0  0  0  0  0  0  0  0  0  0  0  0
    2.5868   -7.9199   -1.8916 C   0  0  0  0  0  0  0  0  0  0  0  0
    3.9031   -9.7746   -0.1643 C   0  0  0  0  0  0  0  0  0  0  0  0
    1.8648   -8.8419   -1.1392 C   0  0  0  0  0  0  0  0  0  0  0  0
    2.5043   -9.7308   -0.2674 C   0  0  0  0  0  0  0  0  0  0  0  0
    3.4874   -0.4849    1.6237 H   0  0  0  0  0  0  0  0  0  0  0  0
    1.8480    1.9188    1.6719 H   0  0  0  0  0  0  0  0  0  0  0  0
    2.8881    1.3077    2.9641 H   0  0  0  0  0  0  0  0  0  0  0  0
    2.0209   -0.3966   -2.5977 H   0  0  0  0  0  0  0  0  0  0  0  0
    3.1190   -2.0357   -4.0197 H   0  0  0  0  0  0  0  0  0  0  0  0
    2.0126   -0.1508    4.6546 H   0  0  0  0  0  0  0  0  0  0  0  0
   -0.4164    0.8604    1.3505 H   0  0  0  0  0  0  0  0  0  0  0  0
    5.4231   -3.9038    0.4486 H   0  0  0  0  0  0  0  0  0  0  0  0
    6.6592   -2.9864   -0.4311 H   0  0  0  0  0  0  0  0  0  0  0  0
    0.0670   -1.0960    5.7083 H   0  0  0  0  0  0  0  0  0  0  0  0
   -2.2666   -0.1494    2.4992 H   0  0  0  0  0  0  0  0  0  0  0  0
    5.2240   -3.4140   -4.2973 H   0  0  0  0  0  0  0  0  0  0  0  0
    4.2414   -4.6320   -3.4571 H   0  0  0  0  0  0  0  0  0  0  0  0
    7.0468   -3.8172   -2.9060 H   0  0  0  0  0  0  0  0  0  0  0  0
    6.3933   -5.4170   -3.2500 H   0  0  0  0  0  0  0  0  0  0  0  0
    8.0889   -8.8737   -0.9835 H   0  0  0  0  0  0  0  0  0  0  0  0
    7.1074  -10.2683   -1.3639 H   0  0  0  0  0  0  0  0  0  0  0  0
    7.1629   -9.6593    0.2729 H   0  0  0  0  0  0  0  0  0  0  0  0
    2.1335   -7.2809   -2.5634 H   0  0  0  0  0  0  0  0  0  0  0  0
    4.3711  -10.4826    0.4228 H   0  0  0  0  0  0  0  0  0  0  0  0
    0.8369   -8.8707   -1.2260 H   0  0  0  0  0  0  0  0  0  0  0  0
    1.9349  -10.3674    0.3119 H   0  0  0  0  0  0  0  0  0  0  0  0
  1  2  2  0  0  0  0
  2  3  1  0  0  0  0
  2  4  1  0  0  0  0
  3  5  1  0  0  0  0
  3 33  1  0  0  0  0
  4  6  2  0  0  0  0
  4  7  1  0  0  0  0
  5  8  1  0  0  0  0
  5 34  1  0  0  0  0
  5 35  1  0  0  0  0
  6  9  1  0  0  0  0
  7 10  2  0  0  0  0
  7 36  1  0  0  0  0
  8 11  2  0  0  0  0
  8 12  1  0  0  0  0
  9 13  2  0  0  0  0
  9 14  1  0  0  0  0
 10 13  1  0  0  0  0
 10 37  1  0  0  0  0
 11 15  1  0  0  0  0
 11 38  1  0  0  0  0
 12 16  2  0  0  0  0
 12 39  1  0  0  0  0
 13 17  1  0  0  0  0
 14 18  1  0  0  0  0
 14 40  1  0  0  0  0
 14 41  1  0  0  0  0
 15 19  2  0  0  0  0
 15 42  1  0  0  0  0
 16 19  1  0  0  0  0
 16 43  1  0  0  0  0
 17 20  1  0  0  0  0
 17 44  1  0  0  0  0
 17 45  1  0  0  0  0
 18 21  1  0  0  0  0
 18 20  1  0  0  0  0
 20 46  1  0  0  0  0
 20 47  1  0  0  0  0
 21 22  2  0  0  0  0
 21 23  1  0  0  0  0
 23 24  1  0  0  0  0
 23 25  2  0  0  0  0
 24 26  1  0  0  0  0
 25 27  1  0  0  0  0
 25 28  1  0  0  0  0
 26 29  2  0  0  0  0
 26 27  1  0  0  0  0
 27 30  2  0  0  0  0
 28 48  1  0  0  0  0
 28 49  1  0  0  0  0
 28 50  1  0  0  0  0
 29 31  1  0  0  0  0
 29 51  1  0  0  0  0
 30 32  1  0  0  0  0
 30 52  1  0  0  0  0
 31 32  2  0  0  0  0
 31 53  1  0  0  0  0
 32 54  1  0  0  0  0
M  END
>  <Molecule Name>
CTX-1019471

>  <SMILES>
CC1=C(OC2=C1C=CC=C2)C(=O)N1CCC2=C(C1)N=C(C=C2)C(=O)NCC1=CC=NC=C1

>  <Batch Name>
CTX-1019471-1

>  <Batch Created Date>
2021-07-30

>  <Batch ID>
CTX-1019471-1

>  <External ID>
P841-0084

>  <Stereochemistry>
Achiral

>  <Amount 1>
2.9

>  <Unit 1>
mg

>  <CRO 1>
Pharmaron

>  <CRO 1 Total Amount>
11.9

>  <CRO 1 Unit>
mg

>  <Pharmaron Solubility (PBS, pH 7.4): Aqueous Solubility - Batch Mean (uM)>
12.55

>  <Pharmaron Solubility (PBS, pH 7.4): Aqueous Solubility - Batch Mean (uM) Standard Deviation (±)>


>  <Pharmaron Solubility (PBS, pH 7.4): Aqueous Solubility - Batch Mean (uM) Count>
1.0

>  <log P>
2.46

>  <log D>
2.46

>  <Pharmaron Caliper Assay (CDK2/CCNE1): Minimum measured (%)>
60.9

>  <Pharmaron Caliper Assay (CDK2/CCNE1): IC50 - Batch Mean (uM)>
3.25

>  <Pharmaron ADPGLO (CDK2/E1-25C): Minimum measured (%)>
82.7

>  <Pharmaron ADPGLO (CDK2/E1-25C): IC50 - Batch Mean (uM)>
10.0

>  <Pharmaron ADPGLO (CDK2/E1-37C): Minimum measured (%)>
105.0

>  <Pharmaron ADPGLO (CDK2/E1-37C): IC50 - Batch Mean (uM)>
10.0

>  <IncuCyte Kuramochi RB-WT: IC50 - Batch Mean (uM)>
20.0

>  <IncuCyte Kuramochi RB-KO: IC50 - Batch Mean (uM)>
12.0

>  <DSF (npCDK2/CCNE1): dTm D - Batch Mean [Concentration: 100]>


>  <DSF (npCDK2/CCNE1): dTm D - Batch Mean [Concentration: 20.0]>
1.0170000000000001

>  <DSF (pCDK2/CCNE1): dTm D - Batch Mean [Concentration: 100]>


>  <DSF (pCDK2/CCNE1): dTm D - Batch Mean [Concentration: 20.0]>


>  <RLM: t1/2 - Batch Mean (Min)>


>  <RLM: Cl int - Batch Mean (uL/min/mg protein)>


>  <RLM: ER (Hepatic extraction ratio) - Batch Mean>


>  <HLM: t1/2 - Batch Mean (Min)>


>  <HLM: Cl int - Batch Mean (uL/min/mg protein)>


>  <HLM: ER (Hepatic extraction ratio) - Batch Mean>


>  <MDCK-WT 4% BSA: Papp (A-B) - Batch Mean (10-6, cm/s)>


>  <MDCK-WT 4% BSA: Papp (B-A) - Batch Mean (10-6, cm/s)>


>  <MDCK-WT 4% BSA: Efflux Ratio - Batch Mean>


>  <MDCK-WT 4% BSA: ~Net A_B - Batch Mean (10-6, cm/s)>


>  <pIC50>
5.488117

>  <Selection_1>
Y

>  <Selection_N>


>  <Serie>
Naphthyridine

>  <Selection_T>
N

>  <Train_Vs_Test>


$$$$
