CTX-1017233
 OpenBabel08272613283D

 73 78  0  0  0  0  0  0  0  0999 V2000
    1.8674    1.1483   -0.5899 O   0  0  0  0  0  0  0  0  0  0  0  0
    2.4167    0.1383   -0.1472 C   0  0  0  0  0  0  0  0  0  0  0  0
    2.3805   -0.2090    1.1895 N   0  0  0  0  0  0  0  0  0  0  0  0
    3.1227   -0.8160   -1.0630 C   0  0  0  0  0  0  0  0  0  0  0  0
    1.6754    0.5822    2.1667 C   0  0  0  0  0  0  0  0  0  0  0  0
    4.0445   -1.6797   -0.5463 N   0  0  0  0  0  0  0  0  0  0  0  0
    2.7584   -0.7750   -2.4080 C   0  0  0  0  0  0  0  0  0  0  0  0
    2.6062    1.0282    3.2585 C   0  0  0  0  0  0  0  0  0  0  0  0
    4.6564   -2.5307   -1.4229 C   0  0  0  0  0  0  0  0  0  0  0  0
    3.3768   -1.6590   -3.2750 C   0  0  0  0  0  0  0  0  0  0  0  0
    3.3361    2.2102    3.1170 C   0  0  0  0  0  0  0  0  0  0  0  0
    2.7896    0.2598    4.4111 C   0  0  0  0  0  0  0  0  0  0  0  0
    4.3468   -2.5421   -2.7928 C   0  0  0  0  0  0  0  0  0  0  0  0
    5.7350   -3.4729   -0.8781 C   0  0  0  0  0  0  0  0  0  0  0  0
    4.2296    2.6102    4.1131 C   0  0  0  0  0  0  0  0  0  0  0  0
    3.6856    0.6742    5.4046 C   0  0  0  0  0  0  0  0  0  0  0  0
    4.9604   -3.5382   -3.7427 C   0  0  0  0  0  0  0  0  0  0  0  0
    6.0333   -4.5891   -1.7816 N   0  0  0  0  0  0  0  0  0  0  0  0
    4.4289    1.8536    5.2769 C   0  0  0  0  0  0  0  0  0  0  0  0
    6.1999   -4.2315   -3.1835 C   0  0  0  0  0  0  0  0  0  0  0  0
    6.4474   -5.8285   -1.2707 C   0  0  0  0  0  0  0  0  0  0  0  0
    5.2776    2.3212    6.2618 N   0  0  0  0  0  0  0  0  0  0  0  0
    6.9089   -5.9199   -0.1319 O   0  0  0  0  0  0  0  0  0  0  0  0
    6.0555   -7.0067   -2.0606 C   0  0  0  0  0  0  0  0  0  0  0  0
    5.1239    1.9280    7.6668 C   0  0  0  0  0  0  0  0  0  0  0  0
    6.6540    2.7155    5.9125 C   0  0  0  0  0  0  0  0  0  0  0  0
    4.9105   -6.8098   -2.8117 O   0  0  0  0  0  0  0  0  0  0  0  0
    6.0845   -8.3770   -1.7668 C   0  0  0  0  0  0  0  0  0  0  0  0
    5.5833    3.1038    8.5618 C   0  0  0  0  0  0  0  0  0  0  0  0
    7.1090    3.8642    6.8449 C   0  0  0  0  0  0  0  0  0  0  0  0
    4.0418   -7.7429   -2.3552 C   0  0  0  0  0  0  0  0  0  0  0  0
    4.7078   -8.6828   -1.5884 C   0  0  0  0  0  0  0  0  0  0  0  0
    7.2004   -9.3483   -1.6610 C   0  0  0  0  0  0  0  0  0  0  0  0
    6.9765    3.5284    8.2840 N   0  3  0  0  0  0  0  0  0  0  0  0
    2.6865   -7.7195   -2.5699 C   0  0  0  0  0  0  0  0  0  0  0  0
    3.9603   -9.6691   -0.9253 C   0  0  0  0  0  0  0  0  0  0  0  0
    7.3297    4.6787    9.1123 C   0  0  0  0  0  0  0  0  0  0  0  0
    1.9411   -8.6754   -1.8696 C   0  0  0  0  0  0  0  0  0  0  0  0
    2.5632   -9.6175   -1.0432 C   0  0  0  0  0  0  0  0  0  0  0  0
    2.8510   -1.0222    1.4839 H   0  0  0  0  0  0  0  0  0  0  0  0
    0.8891   -0.0049    2.5932 H   0  0  0  0  0  0  0  0  0  0  0  0
    1.2717    1.4472    1.6834 H   0  0  0  0  0  0  0  0  0  0  0  0
    2.0493   -0.1060   -2.7468 H   0  0  0  0  0  0  0  0  0  0  0  0
    3.1223   -1.6661   -4.2751 H   0  0  0  0  0  0  0  0  0  0  0  0
    3.2147    2.7909    2.2726 H   0  0  0  0  0  0  0  0  0  0  0  0
    2.2615   -0.6186    4.5310 H   0  0  0  0  0  0  0  0  0  0  0  0
    5.3987   -3.8715    0.0562 H   0  0  0  0  0  0  0  0  0  0  0  0
    6.6330   -2.9013   -0.7696 H   0  0  0  0  0  0  0  0  0  0  0  0
    4.7583    3.4877    3.9891 H   0  0  0  0  0  0  0  0  0  0  0  0
    3.8005    0.0960    6.2516 H   0  0  0  0  0  0  0  0  0  0  0  0
    5.2358   -3.0247   -4.6401 H   0  0  0  0  0  0  0  0  0  0  0  0
    4.2276   -4.2980   -3.9175 H   0  0  0  0  0  0  0  0  0  0  0  0
    7.0371   -3.5715   -3.2755 H   0  0  0  0  0  0  0  0  0  0  0  0
    6.3571   -5.1318   -3.7400 H   0  0  0  0  0  0  0  0  0  0  0  0
    5.7251    1.0659    7.8677 H   0  0  0  0  0  0  0  0  0  0  0  0
    4.1003    1.6919    7.8704 H   0  0  0  0  0  0  0  0  0  0  0  0
    6.6836    3.0474    4.8957 H   0  0  0  0  0  0  0  0  0  0  0  0
    7.3081    1.8771    6.0310 H   0  0  0  0  0  0  0  0  0  0  0  0
    5.5162    2.8003    9.5857 H   0  0  0  0  0  0  0  0  0  0  0  0
    4.9451    3.9365    8.3515 H   0  0  0  0  0  0  0  0  0  0  0  0
    6.5110    4.7275    6.6395 H   0  0  0  0  0  0  0  0  0  0  0  0
    8.1462    4.0423    6.6514 H   0  0  0  0  0  0  0  0  0  0  0  0
    8.1281   -8.8468   -1.8418 H   0  0  0  0  0  0  0  0  0  0  0  0
    7.0675  -10.1246   -2.3853 H   0  0  0  0  0  0  0  0  0  0  0  0
    7.2107   -9.7742   -0.6794 H   0  0  0  0  0  0  0  0  0  0  0  0
    7.6147    2.7656    8.5101 H   0  0  0  0  0  0  0  0  0  0  0  0
    2.2444   -7.0395   -3.2080 H   0  0  0  0  0  0  0  0  0  0  0  0
    4.4225  -10.4064   -0.3706 H   0  0  0  0  0  0  0  0  0  0  0  0
    6.6714    5.4928    8.8914 H   0  0  0  0  0  0  0  0  0  0  0  0
    8.3386    4.9699    8.9068 H   0  0  0  0  0  0  0  0  0  0  0  0
    7.2377    4.4159   10.1455 H   0  0  0  0  0  0  0  0  0  0  0  0
    0.9135   -8.6853   -1.9647 H   0  0  0  0  0  0  0  0  0  0  0  0
    1.9844  -10.2860   -0.5110 H   0  0  0  0  0  0  0  0  0  0  0  0
  1  2  2  0  0  0  0
  2  3  1  0  0  0  0
  2  4  1  0  0  0  0
  3  5  1  0  0  0  0
  3 40  1  0  0  0  0
  4  6  2  0  0  0  0
  4  7  1  0  0  0  0
  5  8  1  0  0  0  0
  5 41  1  0  0  0  0
  5 42  1  0  0  0  0
  6  9  1  0  0  0  0
  7 10  2  0  0  0  0
  7 43  1  0  0  0  0
  8 11  2  0  0  0  0
  8 12  1  0  0  0  0
  9 13  2  0  0  0  0
  9 14  1  0  0  0  0
 10 13  1  0  0  0  0
 10 44  1  0  0  0  0
 11 15  1  0  0  0  0
 11 45  1  0  0  0  0
 12 16  2  0  0  0  0
 12 46  1  0  0  0  0
 13 17  1  0  0  0  0
 14 18  1  0  0  0  0
 14 47  1  0  0  0  0
 14 48  1  0  0  0  0
 15 19  2  0  0  0  0
 15 49  1  0  0  0  0
 16 19  1  0  0  0  0
 16 50  1  0  0  0  0
 17 20  1  0  0  0  0
 17 51  1  0  0  0  0
 17 52  1  0  0  0  0
 18 21  1  0  0  0  0
 18 20  1  0  0  0  0
 19 22  1  0  0  0  0
 20 53  1  0  0  0  0
 20 54  1  0  0  0  0
 21 23  2  0  0  0  0
 21 24  1  0  0  0  0
 22 25  1  0  0  0  0
 22 26  1  0  0  0  0
 24 27  1  0  0  0  0
 24 28  2  0  0  0  0
 25 29  1  0  0  0  0
 25 55  1  0  0  0  0
 25 56  1  0  0  0  0
 26 30  1  0  0  0  0
 26 57  1  0  0  0  0
 26 58  1  0  0  0  0
 27 31  1  0  0  0  0
 28 32  1  0  0  0  0
 28 33  1  0  0  0  0
 29 34  1  0  0  0  0
 29 59  1  0  0  0  0
 29 60  1  0  0  0  0
 30 34  1  0  0  0  0
 30 61  1  0  0  0  0
 30 62  1  0  0  0  0
 31 35  2  0  0  0  0
 31 32  1  0  0  0  0
 32 36  2  0  0  0  0
 33 63  1  0  0  0  0
 33 64  1  0  0  0  0
 33 65  1  0  0  0  0
 34 37  1  0  0  0  0
 34 66  1  0  0  0  0
 35 38  1  0  0  0  0
 35 67  1  0  0  0  0
 36 39  1  0  0  0  0
 36 68  1  0  0  0  0
 37 69  1  0  0  0  0
 37 70  1  0  0  0  0
 37 71  1  0  0  0  0
 38 39  2  0  0  0  0
 38 72  1  0  0  0  0
 39 73  1  0  0  0  0
M  CHG  1  34   1
M  END
>  <Molecule Name>
CTX-1017233

>  <SMILES>
CN1CCN(CC1)C1=CC=C(CNC(=O)C2=NC3=C(CCN(C3)C(=O)C3=C(C)C4=CC=CC=C4O3)C=C2)C=C1

>  <Batch Name>
CTX-1017233-3

>  <Batch Created Date>
2021-11-18

>  <Batch ID>
CTX-1017233-3

>  <External ID>
P841-0235

>  <Stereochemistry>
Achiral

>  <Amount 1>
4.3

>  <Unit 1>
mg

>  <CRO 1>
Pharmaron

>  <CRO 1 Total Amount>
36.5

>  <CRO 1 Unit>
mg

>  <Pharmaron Solubility (PBS, pH 7.4): Aqueous Solubility - Batch Mean (uM)>


>  <Pharmaron Solubility (PBS, pH 7.4): Aqueous Solubility - Batch Mean (uM) Standard Deviation (±)>


>  <Pharmaron Solubility (PBS, pH 7.4): Aqueous Solubility - Batch Mean (uM) Count>


>  <log P>
3.63

>  <log D>
3.0

>  <Pharmaron Caliper Assay (CDK2/CCNE1): Minimum measured (%)>
50.0

>  <Pharmaron Caliper Assay (CDK2/CCNE1): IC50 - Batch Mean (uM)>
2.55

>  <Pharmaron ADPGLO (CDK2/E1-25C): Minimum measured (%)>
49.7

>  <Pharmaron ADPGLO (CDK2/E1-25C): IC50 - Batch Mean (uM)>
6.28

>  <Pharmaron ADPGLO (CDK2/E1-37C): Minimum measured (%)>
107.0

>  <Pharmaron ADPGLO (CDK2/E1-37C): IC50 - Batch Mean (uM)>
100

>  <IncuCyte Kuramochi RB-WT: IC50 - Batch Mean (uM)>
7.72

>  <IncuCyte Kuramochi RB-KO: IC50 - Batch Mean (uM)>
6.47

>  <DSF (npCDK2/CCNE1): dTm D - Batch Mean [Concentration: 100]>


>  <DSF (npCDK2/CCNE1): dTm D - Batch Mean [Concentration: 20.0]>
1.7369999999999999

>  <DSF (pCDK2/CCNE1): dTm D - Batch Mean [Concentration: 100]>


>  <DSF (pCDK2/CCNE1): dTm D - Batch Mean [Concentration: 20.0]>
1.092

>  <RLM: t1/2 - Batch Mean (Min)>


>  <RLM: Cl int - Batch Mean (uL/min/mg protein)>


>  <RLM: ER (Hepatic extraction ratio) - Batch Mean>


>  <HLM: t1/2 - Batch Mean (Min)>


>  <HLM: Cl int - Batch Mean (uL/min/mg protein)>


>  <HLM: ER (Hepatic extraction ratio) - Batch Mean>


>  <MDCK-WT 4% BSA: Papp (A-B) - Batch Mean (10-6, cm/s)>


>  <MDCK-WT 4% BSA: Papp (B-A) - Batch Mean (10-6, cm/s)>


>  <MDCK-WT 4% BSA: Efflux Ratio - Batch Mean>


>  <MDCK-WT 4% BSA: ~Net A_B - Batch Mean (10-6, cm/s)>


>  <pIC50>
5.59346

>  <Selection_1>
Y

>  <Selection_N>


>  <Serie>
Naphthyridine

>  <Selection_T>
N

>  <Train_Vs_Test>


$$$$
