CTX-1019480
 OpenBabel08272613283D

 55 59  0  0  0  0  0  0  0  0999 V2000
    1.4570    0.4722    0.6847 O   0  0  0  0  0  0  0  0  0  0  0  0
    2.3777    0.0487   -0.0157 C   0  0  0  0  0  0  0  0  0  0  0  0
    2.8378   -1.2450    0.0676 N   0  0  0  0  0  0  0  0  0  0  0  0
    3.0423    0.9490   -1.0238 C   0  0  0  0  0  0  0  0  0  0  0  0
    2.2155   -2.2118    0.9561 C   0  0  0  0  0  0  0  0  0  0  0  0
    4.0320    0.4503   -1.8300 N   0  0  0  0  0  0  0  0  0  0  0  0
    2.5708    2.2525   -1.0885 C   0  0  0  0  0  0  0  0  0  0  0  0
    3.1711   -2.6890    2.0235 C   0  0  0  0  0  0  0  0  0  0  0  0
    4.5630    1.3107   -2.7591 C   0  0  0  0  0  0  0  0  0  0  0  0
    3.1248    3.1091   -2.0221 C   0  0  0  0  0  0  0  0  0  0  0  0
    3.2982   -1.9967    3.2377 C   0  0  0  0  0  0  0  0  0  0  0  0
    3.9401   -3.8384    1.8148 C   0  0  0  0  0  0  0  0  0  0  0  0
    4.1364    2.6483   -2.8678 C   0  0  0  0  0  0  0  0  0  0  0  0
    5.6791    0.7988   -3.6862 C   0  0  0  0  0  0  0  0  0  0  0  0
    4.1739   -2.4454    4.2317 C   0  0  0  0  0  0  0  0  0  0  0  0
    4.8239   -4.2839    2.8025 C   0  0  0  0  0  0  0  0  0  0  0  0
    4.6661    3.5828   -3.9242 C   0  0  0  0  0  0  0  0  0  0  0  0
    5.9227    1.6810   -4.8357 N   0  0  0  0  0  0  0  0  0  0  0  0
    4.9355   -3.5914    4.0064 C   0  0  0  0  0  0  0  0  0  0  0  0
    5.9679    3.1040   -4.5483 C   0  0  0  0  0  0  0  0  0  0  0  0
    6.3625    1.1732   -6.0633 C   0  0  0  0  0  0  0  0  0  0  0  0
    7.0075    0.1281   -6.1294 O   0  0  0  0  0  0  0  0  0  0  0  0
    5.7693    1.8131   -7.2457 C   0  0  0  0  0  0  0  0  0  0  0  0
    4.5595    2.4340   -7.0203 O   0  0  0  0  0  0  0  0  0  0  0  0
    5.8174    1.5033   -8.6069 C   0  0  0  0  0  0  0  0  0  0  0  0
    3.7242    1.9100   -7.9495 C   0  0  0  0  0  0  0  0  0  0  0  0
    4.4493    1.2114   -8.8976 C   0  0  0  0  0  0  0  0  0  0  0  0
    6.9627    1.3501   -9.5353 C   0  0  0  0  0  0  0  0  0  0  0  0
    2.3415    1.9902   -7.8885 C   0  0  0  0  0  0  0  0  0  0  0  0
    3.7448    0.4441   -9.8383 C   0  0  0  0  0  0  0  0  0  0  0  0
    1.6586    1.1815   -8.7954 C   0  0  0  0  0  0  0  0  0  0  0  0
    2.3457    0.4005   -9.7332 C   0  0  0  0  0  0  0  0  0  0  0  0
    3.6038   -1.5213   -0.4857 H   0  0  0  0  0  0  0  0  0  0  0  0
    1.8915   -3.0533    0.3801 H   0  0  0  0  0  0  0  0  0  0  0  0
    1.3883   -1.7351    1.4393 H   0  0  0  0  0  0  0  0  0  0  0  0
    1.8236    2.5754   -0.4542 H   0  0  0  0  0  0  0  0  0  0  0  0
    2.7926    4.0836   -2.0936 H   0  0  0  0  0  0  0  0  0  0  0  0
    2.7380   -1.1452    3.3993 H   0  0  0  0  0  0  0  0  0  0  0  0
    3.8550   -4.3598    0.9283 H   0  0  0  0  0  0  0  0  0  0  0  0
    5.4019   -0.1679   -4.0516 H   0  0  0  0  0  0  0  0  0  0  0  0
    6.5813    0.7661   -3.1119 H   0  0  0  0  0  0  0  0  0  0  0  0
    4.2556   -1.9329    5.1238 H   0  0  0  0  0  0  0  0  0  0  0  0
    5.3949   -5.1279    2.6395 H   0  0  0  0  0  0  0  0  0  0  0  0
    4.8349    4.5404   -3.4777 H   0  0  0  0  0  0  0  0  0  0  0  0
    3.9360    3.6271   -4.7052 H   0  0  0  0  0  0  0  0  0  0  0  0
    5.5848   -3.9281    4.7345 H   0  0  0  0  0  0  0  0  0  0  0  0
    6.7719    3.2972   -3.8692 H   0  0  0  0  0  0  0  0  0  0  0  0
    6.1151    3.6300   -5.4684 H   0  0  0  0  0  0  0  0  0  0  0  0
    7.8646    1.6452   -9.0409 H   0  0  0  0  0  0  0  0  0  0  0  0
    6.8093    1.9673  -10.3958 H   0  0  0  0  0  0  0  0  0  0  0  0
    7.0410    0.3272   -9.8394 H   0  0  0  0  0  0  0  0  0  0  0  0
    1.8525    2.6049   -7.2191 H   0  0  0  0  0  0  0  0  0  0  0  0
    4.2394   -0.0714  -10.5830 H   0  0  0  0  0  0  0  0  0  0  0  0
    0.6271    1.1577   -8.7754 H   0  0  0  0  0  0  0  0  0  0  0  0
    1.8116   -0.2206  -10.3609 H   0  0  0  0  0  0  0  0  0  0  0  0
  1  2  2  0  0  0  0
  2  3  1  0  0  0  0
  2  4  1  0  0  0  0
  3  5  1  0  0  0  0
  3 33  1  0  0  0  0
  4  6  2  0  0  0  0
  4  7  1  0  0  0  0
  5  8  1  0  0  0  0
  5 34  1  0  0  0  0
  5 35  1  0  0  0  0
  6  9  1  0  0  0  0
  7 10  2  0  0  0  0
  7 36  1  0  0  0  0
  8 11  2  0  0  0  0
  8 12  1  0  0  0  0
  9 13  2  0  0  0  0
  9 14  1  0  0  0  0
 10 13  1  0  0  0  0
 10 37  1  0  0  0  0
 11 15  1  0  0  0  0
 11 38  1  0  0  0  0
 12 16  2  0  0  0  0
 12 39  1  0  0  0  0
 13 17  1  0  0  0  0
 14 18  1  0  0  0  0
 14 40  1  0  0  0  0
 14 41  1  0  0  0  0
 15 19  2  0  0  0  0
 15 42  1  0  0  0  0
 16 19  1  0  0  0  0
 16 43  1  0  0  0  0
 17 20  1  0  0  0  0
 17 44  1  0  0  0  0
 17 45  1  0  0  0  0
 18 21  1  0  0  0  0
 18 20  1  0  0  0  0
 19 46  1  0  0  0  0
 20 47  1  0  0  0  0
 20 48  1  0  0  0  0
 21 22  2  0  0  0  0
 21 23  1  0  0  0  0
 23 24  1  0  0  0  0
 23 25  2  0  0  0  0
 24 26  1  0  0  0  0
 25 27  1  0  0  0  0
 25 28  1  0  0  0  0
 26 29  2  0  0  0  0
 26 27  1  0  0  0  0
 27 30  2  0  0  0  0
 28 49  1  0  0  0  0
 28 50  1  0  0  0  0
 28 51  1  0  0  0  0
 29 31  1  0  0  0  0
 29 52  1  0  0  0  0
 30 32  1  0  0  0  0
 30 53  1  0  0  0  0
 31 32  2  0  0  0  0
 31 54  1  0  0  0  0
 32 55  1  0  0  0  0
M  END
>  <Molecule Name>
CTX-1019480

>  <SMILES>
CC1=C(OC2=C1C=CC=C2)C(=O)N1CCC2=C(C1)N=C(C=C2)C(=O)NCC1=CC=CC=C1

>  <Batch Name>
CTX-1019480-1

>  <Batch Created Date>
2021-07-30

>  <Batch ID>
CTX-1019480-1

>  <External ID>
P841-0093

>  <Stereochemistry>
Achiral

>  <Amount 1>
3.1

>  <Unit 1>
mg

>  <CRO 1>
Pharmaron

>  <CRO 1 Total Amount>
12.2

>  <CRO 1 Unit>
mg

>  <Pharmaron Solubility (PBS, pH 7.4): Aqueous Solubility - Batch Mean (uM)>
0.0192

>  <Pharmaron Solubility (PBS, pH 7.4): Aqueous Solubility - Batch Mean (uM) Standard Deviation (±)>


>  <Pharmaron Solubility (PBS, pH 7.4): Aqueous Solubility - Batch Mean (uM) Count>
1.0

>  <log P>
3.68

>  <log D>
3.68

>  <Pharmaron Caliper Assay (CDK2/CCNE1): Minimum measured (%)>
71.2

>  <Pharmaron Caliper Assay (CDK2/CCNE1): IC50 - Batch Mean (uM)>
0.43

>  <Pharmaron ADPGLO (CDK2/E1-25C): Minimum measured (%)>
82.2

>  <Pharmaron ADPGLO (CDK2/E1-25C): IC50 - Batch Mean (uM)>
4.21

>  <Pharmaron ADPGLO (CDK2/E1-37C): Minimum measured (%)>
101.0

>  <Pharmaron ADPGLO (CDK2/E1-37C): IC50 - Batch Mean (uM)>
10.0

>  <IncuCyte Kuramochi RB-WT: IC50 - Batch Mean (uM)>
20.0

>  <IncuCyte Kuramochi RB-KO: IC50 - Batch Mean (uM)>
20.0

>  <DSF (npCDK2/CCNE1): dTm D - Batch Mean [Concentration: 100]>


>  <DSF (npCDK2/CCNE1): dTm D - Batch Mean [Concentration: 20.0]>
1.162

>  <DSF (pCDK2/CCNE1): dTm D - Batch Mean [Concentration: 100]>


>  <DSF (pCDK2/CCNE1): dTm D - Batch Mean [Concentration: 20.0]>
0.212

>  <RLM: t1/2 - Batch Mean (Min)>


>  <RLM: Cl int - Batch Mean (uL/min/mg protein)>


>  <RLM: ER (Hepatic extraction ratio) - Batch Mean>


>  <HLM: t1/2 - Batch Mean (Min)>
4.83

>  <HLM: Cl int - Batch Mean (uL/min/mg protein)>
288.47

>  <HLM: ER (Hepatic extraction ratio) - Batch Mean>
0.934

>  <MDCK-WT 4% BSA: Papp (A-B) - Batch Mean (10-6, cm/s)>


>  <MDCK-WT 4% BSA: Papp (B-A) - Batch Mean (10-6, cm/s)>


>  <MDCK-WT 4% BSA: Efflux Ratio - Batch Mean>


>  <MDCK-WT 4% BSA: ~Net A_B - Batch Mean (10-6, cm/s)>


>  <pIC50>
6.366532

>  <Selection_1>
Y

>  <Selection_N>


>  <Serie>
Naphthyridine

>  <Selection_T>
N

>  <Train_Vs_Test>


$$$$
