CTX-1019473
 OpenBabel08272613283D

 63 67  0  0  0  0  0  0  0  0999 V2000
    1.2651   -0.6819   -0.5115 O   0  0  0  0  0  0  0  0  0  0  0  0
    2.3025   -0.1449   -0.1356 C   0  0  0  0  0  0  0  0  0  0  0  0
    2.7921    1.0137   -0.6991 N   0  0  0  0  0  0  0  0  0  0  0  0
    3.1096   -0.7465    0.9803 C   0  0  0  0  0  0  0  0  0  0  0  0
    2.1161    1.6761   -1.7899 C   0  0  0  0  0  0  0  0  0  0  0  0
    4.2278   -0.0896    1.4121 N   0  0  0  0  0  0  0  0  0  0  0  0
    2.6665   -1.9503    1.5130 C   0  0  0  0  0  0  0  0  0  0  0  0
    2.9690    1.7450   -3.0255 C   0  0  0  0  0  0  0  0  0  0  0  0
    4.9340   -0.6718    2.4341 C   0  0  0  0  0  0  0  0  0  0  0  0
    3.4153   -2.5447    2.5197 C   0  0  0  0  0  0  0  0  0  0  0  0
    2.9579    0.7122   -3.9643 C   0  0  0  0  0  0  0  0  0  0  0  0
    3.8119    2.8311   -3.2626 C   0  0  0  0  0  0  0  0  0  0  0  0
    4.5730   -1.9145    2.9836 C   0  0  0  0  0  0  0  0  0  0  0  0
    6.1587    0.0758    2.9666 C   0  0  0  0  0  0  0  0  0  0  0  0
    3.7714    0.7684   -5.1084 C   0  0  0  0  0  0  0  0  0  0  0  0
    4.6244    2.8717   -4.4100 C   0  0  0  0  0  0  0  0  0  0  0  0
    5.3491   -2.5468    4.1150 C   0  0  0  0  0  0  0  0  0  0  0  0
    6.6449   -0.4478    4.2487 N   0  0  0  0  0  0  0  0  0  0  0  0
    4.6368    1.8435   -5.3696 C   0  0  0  0  0  0  0  0  0  0  0  0
    6.7184   -1.9022    4.3325 C   0  0  0  0  0  0  0  0  0  0  0  0
    7.2014    0.4257    5.2012 C   0  0  0  0  0  0  0  0  0  0  0  0
    5.4892    1.8733   -6.4653 N   0  0  0  0  0  0  0  0  0  0  0  0
    7.5356    1.5677    4.8794 O   0  0  0  0  0  0  0  0  0  0  0  0
    7.1578   -0.0085    6.6216 C   0  0  0  0  0  0  0  0  0  0  0  0
    5.8890    3.1297   -7.0973 C   0  0  0  0  0  0  0  0  0  0  0  0
    5.7700    0.6887   -7.2730 C   0  0  0  0  0  0  0  0  0  0  0  0
    6.0631   -0.8347    6.8738 O   0  0  0  0  0  0  0  0  0  0  0  0
    7.2543    0.7662    7.7860 C   0  0  0  0  0  0  0  0  0  0  0  0
    5.2012   -0.0126    7.5207 C   0  0  0  0  0  0  0  0  0  0  0  0
    5.8840    1.0603    8.0572 C   0  0  0  0  0  0  0  0  0  0  0  0
    8.3766    1.0813    8.6971 C   0  0  0  0  0  0  0  0  0  0  0  0
    3.8317   -0.2230    7.6293 C   0  0  0  0  0  0  0  0  0  0  0  0
    5.1776    2.0329    8.7696 C   0  0  0  0  0  0  0  0  0  0  0  0
    3.1313    0.7854    8.2789 C   0  0  0  0  0  0  0  0  0  0  0  0
    3.7792    1.9021    8.8320 C   0  0  0  0  0  0  0  0  0  0  0  0
    3.6265    1.4007   -0.3480 H   0  0  0  0  0  0  0  0  0  0  0  0
    1.8663    2.6715   -1.4872 H   0  0  0  0  0  0  0  0  0  0  0  0
    1.2392    1.1104   -2.0261 H   0  0  0  0  0  0  0  0  0  0  0  0
    1.8003   -2.3929    1.1682 H   0  0  0  0  0  0  0  0  0  0  0  0
    3.1186   -3.4470    2.9231 H   0  0  0  0  0  0  0  0  0  0  0  0
    2.3438   -0.1039   -3.8160 H   0  0  0  0  0  0  0  0  0  0  0  0
    3.8395    3.6127   -2.5893 H   0  0  0  0  0  0  0  0  0  0  0  0
    5.8982    1.1054    3.0969 H   0  0  0  0  0  0  0  0  0  0  0  0
    6.9448   -0.0533    2.2523 H   0  0  0  0  0  0  0  0  0  0  0  0
    3.7315   -0.0110   -5.7836 H   0  0  0  0  0  0  0  0  0  0  0  0
    5.2369    3.6897   -4.5537 H   0  0  0  0  0  0  0  0  0  0  0  0
    5.4916   -3.5838    3.8931 H   0  0  0  0  0  0  0  0  0  0  0  0
    4.7821   -2.4049    5.0112 H   0  0  0  0  0  0  0  0  0  0  0  0
    7.3938   -2.2597    3.5835 H   0  0  0  0  0  0  0  0  0  0  0  0
    7.0610   -2.1648    5.3115 H   0  0  0  0  0  0  0  0  0  0  0  0
    5.6523    3.9467   -6.4482 H   0  0  0  0  0  0  0  0  0  0  0  0
    5.3648    3.2460   -8.0229 H   0  0  0  0  0  0  0  0  0  0  0  0
    6.9426    3.1158   -7.2835 H   0  0  0  0  0  0  0  0  0  0  0  0
    5.4508   -0.1861   -6.7460 H   0  0  0  0  0  0  0  0  0  0  0  0
    6.8212    0.6273   -7.4625 H   0  0  0  0  0  0  0  0  0  0  0  0
    5.2434    0.7574   -8.2019 H   0  0  0  0  0  0  0  0  0  0  0  0
    9.2959    0.7569    8.2560 H   0  0  0  0  0  0  0  0  0  0  0  0
    8.2311    0.5774    9.6297 H   0  0  0  0  0  0  0  0  0  0  0  0
    8.4144    2.1375    8.8644 H   0  0  0  0  0  0  0  0  0  0  0  0
    3.3693   -1.0662    7.2549 H   0  0  0  0  0  0  0  0  0  0  0  0
    5.6637    2.8170    9.2322 H   0  0  0  0  0  0  0  0  0  0  0  0
    2.1049    0.7120    8.3574 H   0  0  0  0  0  0  0  0  0  0  0  0
    3.2201    2.6380    9.2913 H   0  0  0  0  0  0  0  0  0  0  0  0
  1  2  2  0  0  0  0
  2  3  1  0  0  0  0
  2  4  1  0  0  0  0
  3  5  1  0  0  0  0
  3 36  1  0  0  0  0
  4  6  2  0  0  0  0
  4  7  1  0  0  0  0
  5  8  1  0  0  0  0
  5 37  1  0  0  0  0
  5 38  1  0  0  0  0
  6  9  1  0  0  0  0
  7 10  2  0  0  0  0
  7 39  1  0  0  0  0
  8 11  2  0  0  0  0
  8 12  1  0  0  0  0
  9 13  2  0  0  0  0
  9 14  1  0  0  0  0
 10 13  1  0  0  0  0
 10 40  1  0  0  0  0
 11 15  1  0  0  0  0
 11 41  1  0  0  0  0
 12 16  2  0  0  0  0
 12 42  1  0  0  0  0
 13 17  1  0  0  0  0
 14 18  1  0  0  0  0
 14 43  1  0  0  0  0
 14 44  1  0  0  0  0
 15 19  2  0  0  0  0
 15 45  1  0  0  0  0
 16 19  1  0  0  0  0
 16 46  1  0  0  0  0
 17 20  1  0  0  0  0
 17 47  1  0  0  0  0
 17 48  1  0  0  0  0
 18 21  1  0  0  0  0
 18 20  1  0  0  0  0
 19 22  1  0  0  0  0
 20 49  1  0  0  0  0
 20 50  1  0  0  0  0
 21 23  2  0  0  0  0
 21 24  1  0  0  0  0
 22 25  1  0  0  0  0
 22 26  1  0  0  0  0
 24 27  1  0  0  0  0
 24 28  2  0  0  0  0
 25 51  1  0  0  0  0
 25 52  1  0  0  0  0
 25 53  1  0  0  0  0
 26 54  1  0  0  0  0
 26 55  1  0  0  0  0
 26 56  1  0  0  0  0
 27 29  1  0  0  0  0
 28 30  1  0  0  0  0
 28 31  1  0  0  0  0
 29 32  2  0  0  0  0
 29 30  1  0  0  0  0
 30 33  2  0  0  0  0
 31 57  1  0  0  0  0
 31 58  1  0  0  0  0
 31 59  1  0  0  0  0
 32 34  1  0  0  0  0
 32 60  1  0  0  0  0
 33 35  1  0  0  0  0
 33 61  1  0  0  0  0
 34 35  2  0  0  0  0
 34 62  1  0  0  0  0
 35 63  1  0  0  0  0
M  END
>  <Molecule Name>
CTX-1019473

>  <SMILES>
CN(C)C1=CC=C(CNC(=O)C2=NC3=C(CCN(C3)C(=O)C3=C(C)C4=C(O3)C=CC=C4)C=C2)C=C1

>  <Batch Name>
CTX-1019473-1

>  <Batch Created Date>
2021-07-30

>  <Batch ID>
CTX-1019473-1

>  <External ID>
P841-0086

>  <Stereochemistry>
Achiral

>  <Amount 1>
1.9

>  <Unit 1>
mg

>  <CRO 1>
Pharmaron

>  <CRO 1 Total Amount>
10.9

>  <CRO 1 Unit>
mg

>  <Pharmaron Solubility (PBS, pH 7.4): Aqueous Solubility - Batch Mean (uM)>
0.0021

>  <Pharmaron Solubility (PBS, pH 7.4): Aqueous Solubility - Batch Mean (uM) Standard Deviation (±)>


>  <Pharmaron Solubility (PBS, pH 7.4): Aqueous Solubility - Batch Mean (uM) Count>
1.0

>  <log P>
3.78

>  <log D>
3.78

>  <Pharmaron Caliper Assay (CDK2/CCNE1): Minimum measured (%)>
75.0

>  <Pharmaron Caliper Assay (CDK2/CCNE1): IC50 - Batch Mean (uM)>
0.875

>  <Pharmaron ADPGLO (CDK2/E1-25C): Minimum measured (%)>
83.2

>  <Pharmaron ADPGLO (CDK2/E1-25C): IC50 - Batch Mean (uM)>
4.37

>  <Pharmaron ADPGLO (CDK2/E1-37C): Minimum measured (%)>
97.9

>  <Pharmaron ADPGLO (CDK2/E1-37C): IC50 - Batch Mean (uM)>
10.0

>  <IncuCyte Kuramochi RB-WT: IC50 - Batch Mean (uM)>
20.0

>  <IncuCyte Kuramochi RB-KO: IC50 - Batch Mean (uM)>
20.0

>  <DSF (npCDK2/CCNE1): dTm D - Batch Mean [Concentration: 100]>


>  <DSF (npCDK2/CCNE1): dTm D - Batch Mean [Concentration: 20.0]>
0.8240000000000001

>  <DSF (pCDK2/CCNE1): dTm D - Batch Mean [Concentration: 100]>


>  <DSF (pCDK2/CCNE1): dTm D - Batch Mean [Concentration: 20.0]>


>  <RLM: t1/2 - Batch Mean (Min)>


>  <RLM: Cl int - Batch Mean (uL/min/mg protein)>


>  <RLM: ER (Hepatic extraction ratio) - Batch Mean>


>  <HLM: t1/2 - Batch Mean (Min)>
10.38

>  <HLM: Cl int - Batch Mean (uL/min/mg protein)>
133.74

>  <HLM: ER (Hepatic extraction ratio) - Batch Mean>
0.867

>  <MDCK-WT 4% BSA: Papp (A-B) - Batch Mean (10-6, cm/s)>


>  <MDCK-WT 4% BSA: Papp (B-A) - Batch Mean (10-6, cm/s)>


>  <MDCK-WT 4% BSA: Efflux Ratio - Batch Mean>


>  <MDCK-WT 4% BSA: ~Net A_B - Batch Mean (10-6, cm/s)>


>  <pIC50>
6.057992

>  <Selection_1>
Y

>  <Selection_N>


>  <Serie>
Naphthyridine

>  <Selection_T>
N

>  <Train_Vs_Test>


$$$$
