CTX-1020817
 OpenBabel08272613283D

 67 72  0  0  0  0  0  0  0  0999 V2000
    4.0782    1.6754    3.6533 Cl  0  0  0  0  0  0  0  0  0  0  0  0
    2.5088    0.8758    3.6329 C   0  0  0  0  0  0  0  0  0  0  0  0
    1.3349    1.2121    2.9276 C   0  0  0  0  0  0  0  0  0  0  0  0
    2.3473   -0.2986    4.4336 C   0  0  0  0  0  0  0  0  0  0  0  0
    0.0934    0.1084    3.3227 S   0  0  0  0  0  0  0  0  0  0  0  0
    1.2116    2.3503    1.9715 C   0  0  0  0  0  0  0  0  0  0  0  0
    1.0724   -0.8720    4.3894 C   0  0  0  0  0  0  0  0  0  0  0  0
    3.2788   -0.9333    5.2517 C   0  0  0  0  0  0  0  0  0  0  0  0
    2.3110    2.9432    1.8863 O   0  0  0  0  0  0  0  0  0  0  0  0
   -0.0786    3.1542    1.5777 N   0  0  0  0  0  0  0  0  0  0  0  0
    0.8153   -2.0784    5.1250 C   0  0  0  0  0  0  0  0  0  0  0  0
    3.0045   -2.0643    5.9612 C   0  0  0  0  0  0  0  0  0  0  0  0
   -1.4984    3.6820    0.4402 C   0  0  0  0  0  0  0  0  0  0  0  0
    0.6364    4.3612    1.9066 C   0  0  0  0  0  0  0  0  0  0  0  0
    1.8060   -2.6423    5.9003 N   0  0  0  0  0  0  0  0  0  0  0  0
   -1.7843    5.4931   -0.0449 C   0  0  0  0  0  0  0  0  0  0  0  0
   -0.3889    5.2686    1.7298 C   0  0  0  0  0  0  0  0  0  0  0  0
   -0.8125    6.0745    0.7256 C   0  0  0  0  0  0  0  0  0  0  0  0
   -1.9342    7.0226   -0.4407 C   0  0  0  0  0  0  0  0  0  0  0  0
    0.2035    7.3317    0.7957 S   0  0  0  0  0  0  0  0  0  0  0  0
   -0.9580    8.0457   -0.1177 C   0  0  0  0  0  0  0  0  0  0  0  0
   -0.6123    9.4682   -0.0601 C   0  0  0  0  0  0  0  0  0  0  0  0
    0.5406    9.9135    0.0352 O   0  0  0  0  0  0  0  0  0  0  0  0
   -1.6041   10.3505    0.1637 N   0  0  0  0  0  0  0  0  0  0  0  0
   -2.9292    9.8685    0.2215 C   0  0  0  0  0  0  0  0  0  0  0  0
   -3.8868   10.9637    0.3397 C   0  0  0  0  0  0  0  0  0  0  0  0
   -4.3333   11.6143   -0.7997 C   0  0  0  0  0  0  0  0  0  0  0  0
   -4.2476   11.3612    1.6187 C   0  0  0  0  0  0  0  0  0  0  0  0
   -5.0797   12.7591   -0.6426 C   0  0  0  0  0  0  0  0  0  0  0  0
   -5.0588   12.4599    1.7515 C   0  0  0  0  0  0  0  0  0  0  0  0
   -5.4198   13.2247    0.6352 C   0  0  0  0  0  0  0  0  0  0  0  0
   -6.0364   14.4352    0.7966 N   0  0  0  0  0  0  0  0  0  0  0  0
   -6.9980   14.9430   -0.1621 C   0  0  0  0  0  0  0  0  0  0  0  0
   -5.8562   15.2468    1.9966 C   0  0  0  0  0  0  0  0  0  0  0  0
   -6.7631   16.4061   -0.4599 C   0  0  0  0  0  0  0  0  0  0  0  0
   -5.6967   16.7232    1.5874 C   0  0  0  0  0  0  0  0  0  0  0  0
   -6.7956   17.1867    0.7653 N   0  3  0  0  0  0  0  0  0  0  0  0
   -6.6822   18.6149    0.4904 C   0  0  0  0  0  0  0  0  0  0  0  0
    4.2246   -0.5268    5.3243 H   0  0  0  0  0  0  0  0  0  0  0  0
   -0.1138   -2.5246    5.0730 H   0  0  0  0  0  0  0  0  0  0  0  0
    3.7382   -2.4801    6.5561 H   0  0  0  0  0  0  0  0  0  0  0  0
   -2.3994    3.3543    0.9155 H   0  0  0  0  0  0  0  0  0  0  0  0
   -1.2109    3.2442   -0.4928 H   0  0  0  0  0  0  0  0  0  0  0  0
    1.4519    4.5405    1.2375 H   0  0  0  0  0  0  0  0  0  0  0  0
    1.1038    4.3737    2.8691 H   0  0  0  0  0  0  0  0  0  0  0  0
   -0.2271    5.9604    2.5299 H   0  0  0  0  0  0  0  0  0  0  0  0
   -1.1339    4.5204    1.5567 H   0  0  0  0  0  0  0  0  0  0  0  0
   -2.7792    7.3071   -0.9604 H   0  0  0  0  0  0  0  0  0  0  0  0
   -1.4098   11.3081    0.2840 H   0  0  0  0  0  0  0  0  0  0  0  0
   -3.0293    9.2247    1.0702 H   0  0  0  0  0  0  0  0  0  0  0  0
   -3.1349    9.3360   -0.6836 H   0  0  0  0  0  0  0  0  0  0  0  0
   -4.1120   11.2501   -1.7396 H   0  0  0  0  0  0  0  0  0  0  0  0
   -3.9151   10.8445    2.4479 H   0  0  0  0  0  0  0  0  0  0  0  0
   -5.3931   13.2816   -1.4756 H   0  0  0  0  0  0  0  0  0  0  0  0
   -5.4072   12.7261    2.6857 H   0  0  0  0  0  0  0  0  0  0  0  0
   -7.9835   14.8233    0.2371 H   0  0  0  0  0  0  0  0  0  0  0  0
   -6.8867   14.3928   -1.0730 H   0  0  0  0  0  0  0  0  0  0  0  0
   -4.9807   14.9234    2.5197 H   0  0  0  0  0  0  0  0  0  0  0  0
   -6.7080   15.1398    2.6353 H   0  0  0  0  0  0  0  0  0  0  0  0
   -7.5268   16.7577   -1.1217 H   0  0  0  0  0  0  0  0  0  0  0  0
   -5.8009   16.5163   -0.9149 H   0  0  0  0  0  0  0  0  0  0  0  0
   -4.7855   16.8314    1.0370 H   0  0  0  0  0  0  0  0  0  0  0  0
   -5.6850   17.3116    2.4811 H   0  0  0  0  0  0  0  0  0  0  0  0
   -7.6860   17.0604    1.2465 H   0  0  0  0  0  0  0  0  0  0  0  0
   -5.7603   18.8083   -0.0173 H   0  0  0  0  0  0  0  0  0  0  0  0
   -6.7027   19.1582    1.4119 H   0  0  0  0  0  0  0  0  0  0  0  0
   -7.5004   18.9256   -0.1252 H   0  0  0  0  0  0  0  0  0  0  0  0
  1  2  1  0  0  0  0
  2  3  2  0  0  0  0
  2  4  1  0  0  0  0
  3  5  1  0  0  0  0
  3  6  1  0  0  0  0
  4  7  2  0  0  0  0
  4  8  1  0  0  0  0
  5  7  1  0  0  0  0
  6  9  2  0  0  0  0
  6 10  1  0  0  0  0
  7 11  1  0  0  0  0
  8 12  2  0  0  0  0
  8 39  1  0  0  0  0
 10 13  1  0  0  0  0
 10 14  1  0  0  0  0
 11 15  2  0  0  0  0
 11 40  1  0  0  0  0
 12 15  1  0  0  0  0
 12 41  1  0  0  0  0
 13 16  1  0  0  0  0
 13 42  1  0  0  0  0
 13 43  1  0  0  0  0
 14 17  1  0  0  0  0
 14 44  1  0  0  0  0
 14 45  1  0  0  0  0
 16 18  2  0  0  0  0
 16 19  1  0  0  0  0
 17 18  1  0  0  0  0
 17 46  1  0  0  0  0
 17 47  1  0  0  0  0
 18 20  1  0  0  0  0
 19 21  2  0  0  0  0
 19 48  1  0  0  0  0
 20 21  1  0  0  0  0
 21 22  1  0  0  0  0
 22 23  2  0  0  0  0
 22 24  1  0  0  0  0
 24 25  1  0  0  0  0
 24 49  1  0  0  0  0
 25 26  1  0  0  0  0
 25 50  1  0  0  0  0
 25 51  1  0  0  0  0
 26 27  2  0  0  0  0
 26 28  1  0  0  0  0
 27 29  1  0  0  0  0
 27 52  1  0  0  0  0
 28 30  2  0  0  0  0
 28 53  1  0  0  0  0
 29 31  2  0  0  0  0
 29 54  1  0  0  0  0
 30 31  1  0  0  0  0
 30 55  1  0  0  0  0
 31 32  1  0  0  0  0
 32 33  1  0  0  0  0
 32 34  1  0  0  0  0
 33 35  1  0  0  0  0
 33 56  1  0  0  0  0
 33 57  1  0  0  0  0
 34 36  1  0  0  0  0
 34 58  1  0  0  0  0
 34 59  1  0  0  0  0
 35 37  1  0  0  0  0
 35 60  1  0  0  0  0
 35 61  1  0  0  0  0
 36 37  1  0  0  0  0
 36 62  1  0  0  0  0
 36 63  1  0  0  0  0
 37 38  1  0  0  0  0
 37 64  1  0  0  0  0
 38 65  1  0  0  0  0
 38 66  1  0  0  0  0
 38 67  1  0  0  0  0
M  CHG  1  37   1
M  END
>  <Molecule Name>
CTX-1020817

>  <SMILES>
CN1CCN(CC1)C1=CC=C(CNC(=O)C2=CC3=C(CCN(C3)C(=O)C3=C(Cl)C4=CC=NC=C4S3)S2)C=C1

>  <Batch Name>
CTX-1020817-1

>  <Batch Created Date>
2021-12-30

>  <Batch ID>
CTX-1020817-1

>  <External ID>
CD-44-2-J

>  <Stereochemistry>
Achiral

>  <Amount 1>
9.1

>  <Unit 1>
mg

>  <CRO 1>
Pharmaron

>  <CRO 1 Total Amount>
34.5

>  <CRO 1 Unit>
mg

>  <Pharmaron Solubility (PBS, pH 7.4): Aqueous Solubility - Batch Mean (uM)>
9.6667

>  <Pharmaron Solubility (PBS, pH 7.4): Aqueous Solubility - Batch Mean (uM) Standard Deviation (±)>


>  <Pharmaron Solubility (PBS, pH 7.4): Aqueous Solubility - Batch Mean (uM) Count>
1.0

>  <log P>
4.23

>  <log D>
3.6

>  <Pharmaron Caliper Assay (CDK2/CCNE1): Minimum measured (%)>
15.7

>  <Pharmaron Caliper Assay (CDK2/CCNE1): IC50 - Batch Mean (uM)>
8.46

>  <Pharmaron ADPGLO (CDK2/E1-25C): Minimum measured (%)>
30.9

>  <Pharmaron ADPGLO (CDK2/E1-25C): IC50 - Batch Mean (uM)>
17.2

>  <Pharmaron ADPGLO (CDK2/E1-37C): Minimum measured (%)>
55.5

>  <Pharmaron ADPGLO (CDK2/E1-37C): IC50 - Batch Mean (uM)>
37.5

>  <IncuCyte Kuramochi RB-WT: IC50 - Batch Mean (uM)>
12.6

>  <IncuCyte Kuramochi RB-KO: IC50 - Batch Mean (uM)>
8.69

>  <DSF (npCDK2/CCNE1): dTm D - Batch Mean [Concentration: 100]>


>  <DSF (npCDK2/CCNE1): dTm D - Batch Mean [Concentration: 20.0]>
0.835

>  <DSF (pCDK2/CCNE1): dTm D - Batch Mean [Concentration: 100]>


>  <DSF (pCDK2/CCNE1): dTm D - Batch Mean [Concentration: 20.0]>
0.5329999999999999

>  <RLM: t1/2 - Batch Mean (Min)>


>  <RLM: Cl int - Batch Mean (uL/min/mg protein)>


>  <RLM: ER (Hepatic extraction ratio) - Batch Mean>


>  <HLM: t1/2 - Batch Mean (Min)>


>  <HLM: Cl int - Batch Mean (uL/min/mg protein)>


>  <HLM: ER (Hepatic extraction ratio) - Batch Mean>


>  <MDCK-WT 4% BSA: Papp (A-B) - Batch Mean (10-6, cm/s)>


>  <MDCK-WT 4% BSA: Papp (B-A) - Batch Mean (10-6, cm/s)>


>  <MDCK-WT 4% BSA: Efflux Ratio - Batch Mean>


>  <MDCK-WT 4% BSA: ~Net A_B - Batch Mean (10-6, cm/s)>


>  <pIC50>
5.07263

>  <Selection_1>
Y

>  <Selection_N>
N

>  <Serie>
Tetrahydrothienopyridine

>  <Selection_T>


>  <Train_Vs_Test>


$$$$
