EDS00760714-2
     RDKit          3D

 56 60  0  0  0  0  0  0  0  0999 V2000
    3.9971   -2.0912   -2.5106 F   0  0  0  0  0  0  0  0  0  0  0  0
    5.2364   -1.5259   -2.4424 C   0  0  0  0  0  0  0  0  0  0  0  0
    5.0866   -0.0226   -2.2779 C   0  0  0  0  0  0  0  0  0  0  0  0
    4.3992    0.3195   -1.0500 N   0  0  0  0  0  0  0  0  0  0  0  0
    4.4510    1.5898   -0.5139 C   0  0  0  0  0  0  0  0  0  0  0  0
    5.2207    2.4622   -0.8976 O   0  0  0  0  0  0  0  0  0  0  0  0
    3.4567    1.8331    0.5828 C   0  0  0  0  0  0  0  0  0  0  0  0
    2.6212    0.7930    0.8695 N   0  0  0  0  0  0  0  0  0  0  0  0
    3.4157    3.0620    1.2235 C   0  0  0  0  0  0  0  0  0  0  0  0
    1.7069    0.9861    1.8533 C   0  0  0  0  0  0  0  0  0  0  0  0
    2.4632    3.2448    2.2182 C   0  0  0  0  0  0  0  0  0  0  0  0
    1.5978    2.2002    2.5357 C   0  0  0  0  0  0  0  0  0  0  0  0
    0.7413   -0.1408    2.1810 C   0  0  1  0  0  0  0  0  0  0  0  0
   -0.6713    0.0456    1.7405 N   0  0  0  0  0  0  0  0  0  0  0  0
    1.1310   -1.5276    1.6465 C   0  0  0  0  0  0  0  0  0  0  0  0
   -1.2911   -1.2796    1.9508 C   0  0  0  0  0  0  0  0  0  0  0  0
   -0.7769    0.4842    0.3324 C   0  0  0  0  0  0  0  0  0  0  0  0
   -0.1785   -2.2656    1.6817 C   0  0  0  0  0  0  0  0  0  0  0  0
   -2.1996    0.7588   -0.0889 C   0  0  0  0  0  0  0  0  0  0  0  0
   -0.2512   -3.6680    2.2448 C   0  0  0  0  0  0  0  0  0  0  0  0
   -0.4023   -3.4516    0.7679 C   0  0  0  0  0  0  0  0  0  0  0  0
   -3.0207    1.6194    0.4858 N   0  0  0  0  0  0  0  0  0  0  0  0
   -2.8184    0.1464   -1.1613 N   0  0  0  0  0  0  0  0  0  0  0  0
   -4.1946    1.5498   -0.2154 C   0  0  0  0  0  0  0  0  0  0  0  0
   -4.1016    0.6329   -1.2579 C   0  0  0  0  0  0  0  0  0  0  0  0
   -2.2157   -0.8331   -2.0325 C   0  0  0  0  0  0  0  0  0  0  0  0
   -5.3924    2.2517   -0.0138 C   0  0  0  0  0  0  0  0  0  0  0  0
   -5.1694    0.3769   -2.1286 C   0  0  0  0  0  0  0  0  0  0  0  0
   -6.4702    2.0098   -0.8726 C   0  0  0  0  0  0  0  0  0  0  0  0
   -6.3570    1.0864   -1.9123 C   0  0  0  0  0  0  0  0  0  0  0  0
    5.7637   -1.9751   -1.5954 H   0  0  0  0  0  0  0  0  0  0  0  0
    5.7663   -1.7681   -3.3678 H   0  0  0  0  0  0  0  0  0  0  0  0
    6.0673    0.4642   -2.2890 H   0  0  0  0  0  0  0  0  0  0  0  0
    4.4890    0.3879   -3.0987 H   0  0  0  0  0  0  0  0  0  0  0  0
    3.6001   -0.2399   -0.7567 H   0  0  0  0  0  0  0  0  0  0  0  0
    4.1004    3.8577    0.9491 H   0  0  0  0  0  0  0  0  0  0  0  0
    2.3862    4.1964    2.7373 H   0  0  0  0  0  0  0  0  0  0  0  0
    0.8318    2.3357    3.2955 H   0  0  0  0  0  0  0  0  0  0  0  0
    0.7221   -0.2141    3.2793 H   0  0  0  0  0  0  0  0  0  0  0  0
    1.8946   -1.9933    2.2787 H   0  0  0  0  0  0  0  0  0  0  0  0
    1.5074   -1.4923    0.6178 H   0  0  0  0  0  0  0  0  0  0  0  0
   -2.1801   -1.4616    1.3394 H   0  0  0  0  0  0  0  0  0  0  0  0
   -1.6003   -1.3554    3.0003 H   0  0  0  0  0  0  0  0  0  0  0  0
   -0.2562    1.4406    0.2033 H   0  0  0  0  0  0  0  0  0  0  0  0
   -0.2935   -0.2264   -0.3459 H   0  0  0  0  0  0  0  0  0  0  0  0
    0.6614   -4.1363    2.5966 H   0  0  0  0  0  0  0  0  0  0  0  0
   -1.1331   -3.9546    2.8076 H   0  0  0  0  0  0  0  0  0  0  0  0
    0.4108   -3.7728    0.1259 H   0  0  0  0  0  0  0  0  0  0  0  0
   -1.3858   -3.6028    0.3378 H   0  0  0  0  0  0  0  0  0  0  0  0
   -1.3558   -0.3734   -2.5267 H   0  0  0  0  0  0  0  0  0  0  0  0
   -1.9040   -1.6893   -1.4298 H   0  0  0  0  0  0  0  0  0  0  0  0
   -2.9315   -1.1646   -2.7871 H   0  0  0  0  0  0  0  0  0  0  0  0
   -5.4691    2.9664    0.7976 H   0  0  0  0  0  0  0  0  0  0  0  0
   -5.0948   -0.3383   -2.9403 H   0  0  0  0  0  0  0  0  0  0  0  0
   -7.4028    2.5485   -0.7252 H   0  0  0  0  0  0  0  0  0  0  0  0
   -7.2081    0.9143   -2.5681 H   0  0  0  0  0  0  0  0  0  0  0  0
  1  2  1  0
  2  3  1  0
  3  4  1  0
  4  5  1  0
  5  6  2  0
  5  7  1  0
  7  8  2  0
  7  9  1  0
  8 10  1  0
  9 11  2  0
 10 12  2  0
 11 12  1  0
 13 14  1  0
 13 15  1  0
 13 10  1  0
 14 16  1  0
 14 17  1  0
 15 18  1  0
 16 18  1  0
 17 19  1  0
 18 20  1  0
 18 21  1  0
 19 22  2  0
 19 23  1  0
 20 21  1  0
 22 24  1  0
 23 25  1  0
 23 26  1  0
 24 27  2  0
 24 25  1  0
 25 28  2  0
 27 29  1  0
 28 30  1  0
 29 30  2  0
  2 31  1  0
  2 32  1  0
  3 33  1  0
  3 34  1  0
  4 35  1  0
  9 36  1  0
 11 37  1  0
 12 38  1  0
 13 39  1  1
 15 40  1  0
 15 41  1  0
 16 42  1  0
 16 43  1  0
 17 44  1  0
 17 45  1  0
 20 46  1  0
 20 47  1  0
 21 48  1  0
 21 49  1  0
 26 50  1  0
 26 51  1  0
 26 52  1  0
 27 53  1  0
 28 54  1  0
 29 55  1  0
 30 56  1  0
M  END
>  <Molecule Name>  (1) 


>  <Ranking_Reconfirmation>  (1) 


>  <ID>  (1) 
EDS00760714-2

>  <Class>  (1) 


>  <Increasing_signal>  (1) 


>  <BB_ID>  (1) 


>  <Purity (%)>  (1) 


>  <Confirmation (/2)>  (1) 


>  <Average_binding_ratio_as_single_compound_in_percentage>  (1) 


>  <Tested_in_DRC>  (1) 


>  <Ranking_DRC>  (1) 


>  <Betamax>  (1) 


>  <Kd>  (1) 


>  <Comment_DRC>  (1) 


>  <SMILES>  (1) 


>  <MMFF94 Energy>  (1) 
114.53

$$$$
