EDS00760714-1
     RDKit          3D

 56 60  0  0  0  0  0  0  0  0999 V2000
    6.6130   -2.2008    0.4195 F   0  0  0  0  0  0  0  0  0  0  0  0
    6.9340   -1.0558   -0.2417 C   0  0  0  0  0  0  0  0  0  0  0  0
    6.7494    0.1409    0.6810 C   0  0  0  0  0  0  0  0  0  0  0  0
    5.3578    0.3825    1.0077 N   0  0  0  0  0  0  0  0  0  0  0  0
    4.9706    1.1097    2.1172 C   0  0  0  0  0  0  0  0  0  0  0  0
    5.7398    1.4968    2.9882 O   0  0  0  0  0  0  0  0  0  0  0  0
    3.5046    1.4183    2.1606 C   0  0  0  0  0  0  0  0  0  0  0  0
    2.7893    1.0738    1.0488 N   0  0  0  0  0  0  0  0  0  0  0  0
    2.9604    2.0427    3.2721 C   0  0  0  0  0  0  0  0  0  0  0  0
    1.4598    1.3509    1.0508 C   0  0  0  0  0  0  0  0  0  0  0  0
    1.6023    2.3415    3.2494 C   0  0  0  0  0  0  0  0  0  0  0  0
    0.8477    2.0021    2.1278 C   0  0  0  0  0  0  0  0  0  0  0  0
    0.6430    1.0287   -0.2076 C   0  0  2  0  0  0  0  0  0  0  0  0
   -0.7161    0.5144    0.1206 N   0  0  0  0  0  0  0  0  0  0  0  0
    1.2444   -0.0869   -1.0811 C   0  0  0  0  0  0  0  0  0  0  0  0
   -0.5497   -0.9313    0.3595 C   0  0  0  0  0  0  0  0  0  0  0  0
   -1.6747    0.8090   -0.9563 C   0  0  0  0  0  0  0  0  0  0  0  0
    0.5854   -1.3304   -0.5493 C   0  0  0  0  0  0  0  0  0  0  0  0
   -3.1064    0.6205   -0.5173 C   0  0  0  0  0  0  0  0  0  0  0  0
    0.4781   -2.5624   -1.4215 C   0  0  0  0  0  0  0  0  0  0  0  0
    1.4083   -2.5628   -0.2442 C   0  0  0  0  0  0  0  0  0  0  0  0
   -3.7097    1.3173    0.4298 N   0  0  0  0  0  0  0  0  0  0  0  0
   -3.9886   -0.2725   -1.0952 N   0  0  0  0  0  0  0  0  0  0  0  0
   -5.0017    0.8619    0.4708 C   0  0  0  0  0  0  0  0  0  0  0  0
   -5.2129   -0.1342   -0.4791 C   0  0  0  0  0  0  0  0  0  0  0  0
   -3.6834   -1.1815   -2.1737 C   0  0  0  0  0  0  0  0  0  0  0  0
   -6.0602    1.2661    1.2997 C   0  0  0  0  0  0  0  0  0  0  0  0
   -6.4589   -0.7567   -0.6491 C   0  0  0  0  0  0  0  0  0  0  0  0
   -7.3115    0.6565    1.1450 C   0  0  0  0  0  0  0  0  0  0  0  0
   -7.5040   -0.3366    0.1829 C   0  0  0  0  0  0  0  0  0  0  0  0
    6.2923   -0.9882   -1.1227 H   0  0  0  0  0  0  0  0  0  0  0  0
    7.9762   -1.1398   -0.5636 H   0  0  0  0  0  0  0  0  0  0  0  0
    7.1176    1.0501    0.1900 H   0  0  0  0  0  0  0  0  0  0  0  0
    7.3138   -0.0038    1.6108 H   0  0  0  0  0  0  0  0  0  0  0  0
    4.6238    0.2282    0.3194 H   0  0  0  0  0  0  0  0  0  0  0  0
    3.5767    2.2962    4.1278 H   0  0  0  0  0  0  0  0  0  0  0  0
    1.1306    2.8374    4.0967 H   0  0  0  0  0  0  0  0  0  0  0  0
   -0.2132    2.2400    2.0969 H   0  0  0  0  0  0  0  0  0  0  0  0
    0.6020    1.9694   -0.7742 H   0  0  0  0  0  0  0  0  0  0  0  0
    0.9419    0.0581   -2.1252 H   0  0  0  0  0  0  0  0  0  0  0  0
    2.3358   -0.1380   -1.0610 H   0  0  0  0  0  0  0  0  0  0  0  0
   -0.2593   -1.0881    1.4059 H   0  0  0  0  0  0  0  0  0  0  0  0
   -1.4630   -1.5092    0.1867 H   0  0  0  0  0  0  0  0  0  0  0  0
   -1.5938    1.8722   -1.2328 H   0  0  0  0  0  0  0  0  0  0  0  0
   -1.4495    0.2401   -1.8657 H   0  0  0  0  0  0  0  0  0  0  0  0
    0.9226   -2.5347   -2.4117 H   0  0  0  0  0  0  0  0  0  0  0  0
   -0.4168   -3.1740   -1.3547 H   0  0  0  0  0  0  0  0  0  0  0  0
    1.1391   -3.1644    0.6141 H   0  0  0  0  0  0  0  0  0  0  0  0
    2.4778   -2.5329   -0.4348 H   0  0  0  0  0  0  0  0  0  0  0  0
   -2.8562   -1.8269   -1.8647 H   0  0  0  0  0  0  0  0  0  0  0  0
   -3.4070   -0.5933   -3.0520 H   0  0  0  0  0  0  0  0  0  0  0  0
   -4.5529   -1.7980   -2.4105 H   0  0  0  0  0  0  0  0  0  0  0  0
   -5.8998    2.0406    2.0421 H   0  0  0  0  0  0  0  0  0  0  0  0
   -6.6229   -1.5307   -1.3913 H   0  0  0  0  0  0  0  0  0  0  0  0
   -8.1395    0.9617    1.7831 H   0  0  0  0  0  0  0  0  0  0  0  0
   -8.4862   -0.7937    0.0780 H   0  0  0  0  0  0  0  0  0  0  0  0
  1  2  1  0
  2  3  1  0
  3  4  1  0
  4  5  1  0
  5  6  2  0
  5  7  1  0
  7  8  2  0
  7  9  1  0
  8 10  1  0
  9 11  2  0
 10 12  2  0
 10 13  1  0
 11 12  1  0
 13 14  1  0
 13 15  1  0
 14 16  1  0
 14 17  1  0
 15 18  1  0
 16 18  1  0
 17 19  1  0
 18 20  1  0
 18 21  1  0
 19 22  2  0
 19 23  1  0
 20 21  1  0
 22 24  1  0
 23 25  1  0
 23 26  1  0
 24 27  2  0
 24 25  1  0
 25 28  2  0
 27 29  1  0
 28 30  1  0
 29 30  2  0
  2 31  1  0
  2 32  1  0
  3 33  1  0
  3 34  1  0
  4 35  1  0
  9 36  1  0
 11 37  1  0
 12 38  1  0
 13 39  1  6
 15 40  1  0
 15 41  1  0
 16 42  1  0
 16 43  1  0
 17 44  1  0
 17 45  1  0
 20 46  1  0
 20 47  1  0
 21 48  1  0
 21 49  1  0
 26 50  1  0
 26 51  1  0
 26 52  1  0
 27 53  1  0
 28 54  1  0
 29 55  1  0
 30 56  1  0
M  END
>  <Molecule Name>  (1) 
Compound 32

>  <Ranking_Reconfirmation>  (1) 
15

>  <ID>  (1) 
EDS00760714-1

>  <Class>  (1) 
Weak repro

>  <Increasing_signal>  (1) 
1

>  <BB_ID>  (1) 
1

>  <Purity (%)>  (1) 
98

>  <Confirmation (/2)>  (1) 
2

>  <Average_binding_ratio_as_single_compound_in_percentage>  (1) 
11.1520776436541

>  <Tested_in_DRC>  (1) 
Yes

>  <Ranking_DRC>  (1) 
32

>  <Betamax>  (1) 
1-5µM

>  <Kd>  (1) 
1-5µM

>  <Comment_DRC>  (1) 
Clear ASMS hit

>  <SMILES>  (1) 
Cn1c(cccc2)c2nc1CN(CC1(CC1)C1)C1c1cccc(C(NCCF)=O)n1

>  <MMFF94 Energy>  (1) 
120.18

$$$$
