EDS00760778-2
     RDKit          3D

 60 65  0  0  0  0  0  0  0  0999 V2000
   -3.7070    1.7164   -0.5854 C   0  0  0  0  0  0  0  0  0  0  0  0
   -3.9160    1.0242    0.6640 N   0  0  0  0  0  0  0  0  0  0  0  0
   -3.4800   -0.2485    0.9690 C   0  0  0  0  0  0  0  0  0  0  0  0
   -2.6906   -1.1144    0.0276 C   0  0  0  0  0  0  0  0  0  0  0  0
   -1.3815   -0.5145   -0.2799 N   0  0  0  0  0  0  0  0  0  0  0  0
   -0.6933   -1.2609   -1.3511 C   0  0  0  0  0  0  0  0  0  0  0  0
    0.1214   -2.3073   -0.6407 C   0  0  0  0  0  0  0  0  0  0  0  0
    1.2950   -2.9621   -1.3358 C   0  0  0  0  0  0  0  0  0  0  0  0
    0.0517   -3.7579   -1.0693 C   0  0  0  0  0  0  0  0  0  0  0  0
    0.1978   -1.9629    0.8197 C   0  0  0  0  0  0  0  0  0  0  0  0
   -0.4674   -0.5789    0.8993 C   0  0  1  0  0  0  0  0  0  0  0  0
    0.5224    0.5882    0.8778 C   0  0  0  0  0  0  0  0  0  0  0  0
    0.1486    1.8006    1.4647 C   0  0  0  0  0  0  0  0  0  0  0  0
    1.0228    2.8843    1.4148 C   0  0  0  0  0  0  0  0  0  0  0  0
    2.2457    2.7432    0.7712 C   0  0  0  0  0  0  0  0  0  0  0  0
    2.5410    1.5142    0.2003 C   0  0  0  0  0  0  0  0  0  0  0  0
    3.8399    1.3112   -0.5171 C   0  0  0  0  0  0  0  0  0  0  0  0
    4.6722    2.2054   -0.6144 O   0  0  0  0  0  0  0  0  0  0  0  0
    3.9953    0.0442   -1.0457 N   0  0  0  0  0  0  0  0  0  0  0  0
    5.1891   -0.3727   -1.7806 C   0  0  0  0  0  0  0  0  0  0  0  0
    5.2452    0.1093   -3.2505 C   0  0  0  0  0  0  0  0  0  0  0  0
    5.8371   -1.2710   -3.6017 C   0  0  0  0  0  0  0  0  0  0  0  0
    5.1247   -1.8122   -2.3453 C   0  0  0  0  0  0  0  0  0  0  0  0
    1.7094    0.4345    0.2367 N   0  0  0  0  0  0  0  0  0  0  0  0
   -3.8121   -0.5726    2.2050 N   0  0  0  0  0  0  0  0  0  0  0  0
   -4.4703    0.5177    2.7129 C   0  0  0  0  0  0  0  0  0  0  0  0
   -5.0278    0.7059    3.9863 C   0  0  0  0  0  0  0  0  0  0  0  0
   -5.6453    1.9274    4.2791 C   0  0  0  0  0  0  0  0  0  0  0  0
   -5.7051    2.9422    3.3229 C   0  0  0  0  0  0  0  0  0  0  0  0
   -5.1550    2.7719    2.0468 C   0  0  0  0  0  0  0  0  0  0  0  0
   -4.5454    1.5408    1.7726 C   0  0  0  0  0  0  0  0  0  0  0  0
   -2.7142    2.1721   -0.5630 H   0  0  0  0  0  0  0  0  0  0  0  0
   -3.7900    1.0096   -1.4139 H   0  0  0  0  0  0  0  0  0  0  0  0
   -4.4707    2.4876   -0.7102 H   0  0  0  0  0  0  0  0  0  0  0  0
   -2.5931   -2.1216    0.4516 H   0  0  0  0  0  0  0  0  0  0  0  0
   -3.2798   -1.2223   -0.8920 H   0  0  0  0  0  0  0  0  0  0  0  0
   -0.0280   -0.5750   -1.8890 H   0  0  0  0  0  0  0  0  0  0  0  0
   -1.3863   -1.6811   -2.0887 H   0  0  0  0  0  0  0  0  0  0  0  0
    1.5082   -2.6841   -2.3622 H   0  0  0  0  0  0  0  0  0  0  0  0
    2.1792   -3.1955   -0.7529 H   0  0  0  0  0  0  0  0  0  0  0  0
    0.0991   -4.5275   -0.3063 H   0  0  0  0  0  0  0  0  0  0  0  0
   -0.5705   -4.0228   -1.9169 H   0  0  0  0  0  0  0  0  0  0  0  0
   -0.3902   -2.6907    1.3921 H   0  0  0  0  0  0  0  0  0  0  0  0
    1.2225   -1.9734    1.2056 H   0  0  0  0  0  0  0  0  0  0  0  0
   -0.9980   -0.5092    1.8573 H   0  0  0  0  0  0  0  0  0  0  0  0
   -0.8178    1.9013    1.9527 H   0  0  0  0  0  0  0  0  0  0  0  0
    0.7481    3.8316    1.8706 H   0  0  0  0  0  0  0  0  0  0  0  0
    2.9477    3.5684    0.7115 H   0  0  0  0  0  0  0  0  0  0  0  0
    3.2098   -0.5817   -0.8761 H   0  0  0  0  0  0  0  0  0  0  0  0
    6.1112   -0.1764   -1.2185 H   0  0  0  0  0  0  0  0  0  0  0  0
    5.8985    0.9640   -3.4446 H   0  0  0  0  0  0  0  0  0  0  0  0
    4.2672    0.2971   -3.7095 H   0  0  0  0  0  0  0  0  0  0  0  0
    6.9307   -1.3110   -3.5412 H   0  0  0  0  0  0  0  0  0  0  0  0
    5.5150   -1.6993   -4.5539 H   0  0  0  0  0  0  0  0  0  0  0  0
    5.6765   -2.5685   -1.7808 H   0  0  0  0  0  0  0  0  0  0  0  0
    4.1135   -2.1849   -2.5449 H   0  0  0  0  0  0  0  0  0  0  0  0
   -4.9742   -0.0869    4.7238 H   0  0  0  0  0  0  0  0  0  0  0  0
   -6.0811    2.0843    5.2628 H   0  0  0  0  0  0  0  0  0  0  0  0
   -6.1895    3.8840    3.5733 H   0  0  0  0  0  0  0  0  0  0  0  0
   -5.2060    3.5663    1.3105 H   0  0  0  0  0  0  0  0  0  0  0  0
  1  2  1  0
  2  3  1  0
  3  4  1  0
  4  5  1  0
  5  6  1  0
  6  7  1  0
  7  8  1  0
  8  9  1  0
  7 10  1  0
 10 11  1  0
 11 12  1  0
 12 13  2  0
 13 14  1  0
 14 15  2  0
 15 16  1  0
 16 17  1  0
 17 18  2  0
 17 19  1  0
 19 20  1  0
 20 21  1  0
 21 22  1  0
 22 23  1  0
 16 24  2  0
  3 25  2  0
 25 26  1  0
 26 27  2  0
 27 28  1  0
 28 29  2  0
 29 30  1  0
 30 31  2  0
 31  2  1  0
 11  5  1  0
 24 12  1  0
 31 26  1  0
  9  7  1  0
 23 20  1  0
  1 32  1  0
  1 33  1  0
  1 34  1  0
  4 35  1  0
  4 36  1  0
  6 37  1  0
  6 38  1  0
  8 39  1  0
  8 40  1  0
  9 41  1  0
  9 42  1  0
 10 43  1  0
 10 44  1  0
 11 45  1  1
 13 46  1  0
 14 47  1  0
 15 48  1  0
 19 49  1  0
 20 50  1  0
 21 51  1  0
 21 52  1  0
 22 53  1  0
 22 54  1  0
 23 55  1  0
 23 56  1  0
 27 57  1  0
 28 58  1  0
 29 59  1  0
 30 60  1  0
M  END
>  <Molecule_Name>  (1) 
>  <Ranking_Reconfirmation>

>  <Kd>  (1) 
?

>  <SMILES_pH74>  (1) 
Cn1c(CN2CC3(CC3)C[C@H]2c2cccc(C(=O)NC3CCC3)n2)nc2ccccc21

$$$$
