EDS00760778-2
     RDKit          3D

 60 65  0  0  0  0  0  0  0  0999 V2000
    3.9044   -0.2163    3.0573 O   0  0  0  0  0  0  0  0  0  0  0  0
    3.2147   -0.2271    2.0465 C   0  0  0  0  0  0  0  0  0  0  0  0
    3.5139    0.4548    0.8810 N   0  0  0  0  0  0  0  0  0  0  0  0
    1.9332   -0.9965    1.9766 C   0  0  0  0  0  0  0  0  0  0  0  0
    4.7443    1.2215    0.6767 C   0  0  0  0  0  0  0  0  0  0  0  0
    1.2407   -0.8721    0.8108 N   0  0  0  0  0  0  0  0  0  0  0  0
    1.5041   -1.7532    3.0542 C   0  0  0  0  0  0  0  0  0  0  0  0
    5.7678    0.5380   -0.2620 C   0  0  0  0  0  0  0  0  0  0  0  0
    4.6287    2.3302   -0.3967 C   0  0  0  0  0  0  0  0  0  0  0  0
    0.0621   -1.5335    0.7043 C   0  0  0  0  0  0  0  0  0  0  0  0
    0.2959   -2.4275    2.9308 C   0  0  0  0  0  0  0  0  0  0  0  0
    6.0485    1.9314   -0.8569 C   0  0  0  0  0  0  0  0  0  0  0  0
   -0.4339   -2.3183    1.7473 C   0  0  0  0  0  0  0  0  0  0  0  0
   -0.7351   -1.4155   -0.5859 C   0  0  1  0  0  0  0  0  0  0  0  0
   -0.3338   -0.3331   -1.5132 N   0  0  0  0  0  0  0  0  0  0  0  0
   -0.5454   -2.6499   -1.4788 C   0  0  0  0  0  0  0  0  0  0  0  0
   -0.9985   -0.6219   -2.7889 C   0  0  0  0  0  0  0  0  0  0  0  0
   -0.5593    1.0349   -1.0373 C   0  0  0  0  0  0  0  0  0  0  0  0
   -0.9222   -2.1342   -2.8413 C   0  0  0  0  0  0  0  0  0  0  0  0
   -1.8906    1.2922   -0.3886 C   0  0  0  0  0  0  0  0  0  0  0  0
   -0.4181   -2.8420   -4.0829 C   0  0  0  0  0  0  0  0  0  0  0  0
   -1.8755   -2.9162   -3.7219 C   0  0  0  0  0  0  0  0  0  0  0  0
   -3.0613    1.1856   -0.9928 N   0  0  0  0  0  0  0  0  0  0  0  0
   -2.0638    1.6442    0.9355 N   0  0  0  0  0  0  0  0  0  0  0  0
   -4.0084    1.4256   -0.0354 C   0  0  0  0  0  0  0  0  0  0  0  0
   -3.4164    1.7074    1.1905 C   0  0  0  0  0  0  0  0  0  0  0  0
   -1.0361    1.8795    1.9222 C   0  0  0  0  0  0  0  0  0  0  0  0
   -5.4060    1.4094   -0.1433 C   0  0  0  0  0  0  0  0  0  0  0  0
   -4.1658    1.9727    2.3448 C   0  0  0  0  0  0  0  0  0  0  0  0
   -6.1733    1.6733    0.9968 C   0  0  0  0  0  0  0  0  0  0  0  0
   -5.5596    1.9499    2.2199 C   0  0  0  0  0  0  0  0  0  0  0  0
    2.8589    0.2838    0.1193 H   0  0  0  0  0  0  0  0  0  0  0  0
    5.1871    1.5837    1.6122 H   0  0  0  0  0  0  0  0  0  0  0  0
    2.0935   -1.8142    3.9634 H   0  0  0  0  0  0  0  0  0  0  0  0
    5.3308   -0.1627   -0.9807 H   0  0  0  0  0  0  0  0  0  0  0  0
    6.6159    0.0595    0.2312 H   0  0  0  0  0  0  0  0  0  0  0  0
    3.8563    2.1573   -1.1557 H   0  0  0  0  0  0  0  0  0  0  0  0
    4.5288    3.3502   -0.0168 H   0  0  0  0  0  0  0  0  0  0  0  0
   -0.0786   -3.0326    3.7520 H   0  0  0  0  0  0  0  0  0  0  0  0
    6.8501    2.4756   -0.3455 H   0  0  0  0  0  0  0  0  0  0  0  0
    6.2274    1.9646   -1.9345 H   0  0  0  0  0  0  0  0  0  0  0  0
   -1.3815   -2.8404    1.6449 H   0  0  0  0  0  0  0  0  0  0  0  0
   -1.8022   -1.3252   -0.3368 H   0  0  0  0  0  0  0  0  0  0  0  0
    0.4973   -2.9928   -1.4831 H   0  0  0  0  0  0  0  0  0  0  0  0
   -1.1835   -3.4798   -1.1540 H   0  0  0  0  0  0  0  0  0  0  0  0
   -0.4618   -0.1535   -3.6213 H   0  0  0  0  0  0  0  0  0  0  0  0
   -2.0474   -0.3074   -2.8096 H   0  0  0  0  0  0  0  0  0  0  0  0
    0.2607    1.2971   -0.3649 H   0  0  0  0  0  0  0  0  0  0  0  0
   -0.4486    1.7339   -1.8776 H   0  0  0  0  0  0  0  0  0  0  0  0
    0.1822   -3.7390   -3.9618 H   0  0  0  0  0  0  0  0  0  0  0  0
   -0.1364   -2.2414   -4.9423 H   0  0  0  0  0  0  0  0  0  0  0  0
   -2.2622   -3.8650   -3.3612 H   0  0  0  0  0  0  0  0  0  0  0  0
   -2.5800   -2.3636   -4.3355 H   0  0  0  0  0  0  0  0  0  0  0  0
   -1.3803    2.6428    2.6219 H   0  0  0  0  0  0  0  0  0  0  0  0
   -0.8499    0.9439    2.4518 H   0  0  0  0  0  0  0  0  0  0  0  0
   -0.1269    2.2434    1.4496 H   0  0  0  0  0  0  0  0  0  0  0  0
   -5.8730    1.1896   -1.0964 H   0  0  0  0  0  0  0  0  0  0  0  0
   -3.6979    2.1867    3.3001 H   0  0  0  0  0  0  0  0  0  0  0  0
   -7.2575    1.6611    0.9254 H   0  0  0  0  0  0  0  0  0  0  0  0
   -6.1764    2.1508    3.0935 H   0  0  0  0  0  0  0  0  0  0  0  0
  1  2  2  0
  2  3  1  0
  2  4  1  0
  3  5  1  0
  4  6  2  0
  4  7  1  0
  5  8  1  0
  5  9  1  0
  6 10  1  0
  7 11  2  0
  8 12  1  0
  9 12  1  0
 10 13  2  0
 11 13  1  0
 14 15  1  0
 14 16  1  0
 14 10  1  0
 15 17  1  0
 15 18  1  0
 16 19  1  0
 17 19  1  0
 18 20  1  0
 19 21  1  0
 19 22  1  0
 20 23  2  0
 20 24  1  0
 21 22  1  0
 23 25  1  0
 24 26  1  0
 24 27  1  0
 25 28  2  0
 25 26  1  0
 26 29  2  0
 28 30  1  0
 29 31  1  0
 30 31  2  0
  3 32  1  0
  5 33  1  0
  7 34  1  0
  8 35  1  0
  8 36  1  0
  9 37  1  0
  9 38  1  0
 11 39  1  0
 12 40  1  0
 12 41  1  0
 13 42  1  0
 14 43  1  1
 16 44  1  0
 16 45  1  0
 17 46  1  0
 17 47  1  0
 18 48  1  0
 18 49  1  0
 21 50  1  0
 21 51  1  0
 22 52  1  0
 22 53  1  0
 27 54  1  0
 27 55  1  0
 27 56  1  0
 28 57  1  0
 29 58  1  0
 30 59  1  0
 31 60  1  0
M  END
>  <Molecule Name>  (1) 


>  <Ranking_Reconfirmation>  (1) 


>  <ID>  (1) 
EDS00760778-2

>  <Class>  (1) 


>  <Increasing_signal>  (1) 


>  <BB_ID>  (1) 


>  <Purity (%)>  (1) 


>  <Confirmation (/2)>  (1) 


>  <Average_binding_ratio_as_single_compound_in_percentage>  (1) 


>  <Tested_in_DRC>  (1) 


>  <Ranking_DRC>  (1) 


>  <Betamax>  (1) 


>  <Kd>  (1) 


>  <Comment_DRC>  (1) 


>  <SMILES>  (1) 


>  <MMFF94 Energy>  (1) 
112.52

$$$$
