EDS00760714-1
     RDKit          3D

 56 60  0  0  0  0  0  0  0  0999 V2000
    3.9984   -0.1638    1.9284 C   0  0  0  0  0  0  0  0  0  0  0  0
    3.4915    0.8438    1.0286 N   0  0  0  0  0  0  0  0  0  0  0  0
    2.1743    0.9861    0.6367 C   0  0  0  0  0  0  0  0  0  0  0  0
    1.0529    0.0934    1.1008 C   0  0  0  0  0  0  0  0  0  0  0  0
    0.3936   -0.6299   -0.0012 N   0  0  0  0  0  0  0  0  0  0  0  0
    1.2707   -1.6269   -0.6324 C   0  0  0  0  0  0  0  0  0  0  0  0
    0.9493   -2.9227    0.0666 C   0  0  0  0  0  0  0  0  0  0  0  0
    1.2502   -4.2442   -0.6076 C   0  0  0  0  0  0  0  0  0  0  0  0
    2.0618   -3.8144    0.5780 C   0  0  0  0  0  0  0  0  0  0  0  0
   -0.3046   -2.7553    0.8771 C   0  0  0  0  0  0  0  0  0  0  0  0
   -0.8056   -1.3557    0.4937 C   0  0  2  0  0  0  0  0  0  0  0  0
   -1.9615   -1.3406   -0.5056 C   0  0  0  0  0  0  0  0  0  0  0  0
   -1.9642   -2.1212   -1.6642 C   0  0  0  0  0  0  0  0  0  0  0  0
   -3.0496   -2.0575   -2.5376 C   0  0  0  0  0  0  0  0  0  0  0  0
   -4.1120   -1.2133   -2.2460 C   0  0  0  0  0  0  0  0  0  0  0  0
   -4.0413   -0.4650   -1.0821 C   0  0  0  0  0  0  0  0  0  0  0  0
   -5.1533    0.4767   -0.7296 C   0  0  0  0  0  0  0  0  0  0  0  0
   -6.1577    0.5859   -1.4227 O   0  0  0  0  0  0  0  0  0  0  0  0
   -4.9343    1.2049    0.4201 N   0  0  0  0  0  0  0  0  0  0  0  0
   -5.8684    2.1935    0.9119 C   0  0  0  0  0  0  0  0  0  0  0  0
   -5.9027    3.4648    0.0758 C   0  0  0  0  0  0  0  0  0  0  0  0
   -6.6806    4.3870    0.7077 F   0  0  0  0  0  0  0  0  0  0  0  0
   -2.9993   -0.5147   -0.2035 N   0  0  0  0  0  0  0  0  0  0  0  0
    2.0454    2.0226   -0.1715 N   0  0  0  0  0  0  0  0  0  0  0  0
    3.3018    2.5450   -0.3236 C   0  0  0  0  0  0  0  0  0  0  0  0
    3.7199    3.6451   -1.0870 C   0  0  0  0  0  0  0  0  0  0  0  0
    5.0746    3.9952   -1.0821 C   0  0  0  0  0  0  0  0  0  0  0  0
    5.9950    3.2641   -0.3305 C   0  0  0  0  0  0  0  0  0  0  0  0
    5.5957    2.1635    0.4378 C   0  0  0  0  0  0  0  0  0  0  0  0
    4.2350    1.8279    0.4188 C   0  0  0  0  0  0  0  0  0  0  0  0
    3.7585   -1.1487    1.5212 H   0  0  0  0  0  0  0  0  0  0  0  0
    5.0811   -0.0729    2.0325 H   0  0  0  0  0  0  0  0  0  0  0  0
    3.5270   -0.0235    2.9045 H   0  0  0  0  0  0  0  0  0  0  0  0
    1.3895   -0.5997    1.8799 H   0  0  0  0  0  0  0  0  0  0  0  0
    0.3206    0.7600    1.5759 H   0  0  0  0  0  0  0  0  0  0  0  0
    1.0128   -1.7032   -1.6948 H   0  0  0  0  0  0  0  0  0  0  0  0
    2.3354   -1.3784   -0.5867 H   0  0  0  0  0  0  0  0  0  0  0  0
    1.7309   -4.2328   -1.5802 H   0  0  0  0  0  0  0  0  0  0  0  0
    0.5581   -5.0686   -0.4742 H   0  0  0  0  0  0  0  0  0  0  0  0
    3.0911   -3.5229    0.4006 H   0  0  0  0  0  0  0  0  0  0  0  0
    1.9142   -4.3507    1.5091 H   0  0  0  0  0  0  0  0  0  0  0  0
   -1.0405   -3.5433    0.6864 H   0  0  0  0  0  0  0  0  0  0  0  0
   -0.0465   -2.7766    1.9431 H   0  0  0  0  0  0  0  0  0  0  0  0
   -1.2054   -0.8801    1.4006 H   0  0  0  0  0  0  0  0  0  0  0  0
   -1.1324   -2.7748   -1.9032 H   0  0  0  0  0  0  0  0  0  0  0  0
   -3.0594   -2.6569   -3.4440 H   0  0  0  0  0  0  0  0  0  0  0  0
   -4.9663   -1.1343   -2.9100 H   0  0  0  0  0  0  0  0  0  0  0  0
   -4.0356    1.0613    0.8762 H   0  0  0  0  0  0  0  0  0  0  0  0
   -6.8690    1.7483    0.9442 H   0  0  0  0  0  0  0  0  0  0  0  0
   -5.5847    2.4309    1.9424 H   0  0  0  0  0  0  0  0  0  0  0  0
   -6.3218    3.2890   -0.9189 H   0  0  0  0  0  0  0  0  0  0  0  0
   -4.9020    3.8923   -0.0390 H   0  0  0  0  0  0  0  0  0  0  0  0
    2.9956    4.2062   -1.6667 H   0  0  0  0  0  0  0  0  0  0  0  0
    5.4090    4.8461   -1.6706 H   0  0  0  0  0  0  0  0  0  0  0  0
    7.0435    3.5550   -0.3412 H   0  0  0  0  0  0  0  0  0  0  0  0
    6.3211    1.6045    1.0179 H   0  0  0  0  0  0  0  0  0  0  0  0
  1  2  1  0
  2  3  1  0
  3  4  1  0
  4  5  1  0
  5  6  1  0
  6  7  1  0
  7  8  1  0
  8  9  1  0
  7 10  1  0
 10 11  1  0
 11 12  1  0
 12 13  2  0
 13 14  1  0
 14 15  2  0
 15 16  1  0
 16 17  1  0
 17 18  2  0
 17 19  1  0
 19 20  1  0
 20 21  1  0
 21 22  1  0
 16 23  2  0
  3 24  2  0
 24 25  1  0
 25 26  2  0
 26 27  1  0
 27 28  2  0
 28 29  1  0
 29 30  2  0
 30  2  1  0
 11  5  1  0
 23 12  1  0
 30 25  1  0
  9  7  1  0
  1 31  1  0
  1 32  1  0
  1 33  1  0
  4 34  1  0
  4 35  1  0
  6 36  1  0
  6 37  1  0
  8 38  1  0
  8 39  1  0
  9 40  1  0
  9 41  1  0
 10 42  1  0
 10 43  1  0
 11 44  1  1
 13 45  1  0
 14 46  1  0
 15 47  1  0
 19 48  1  0
 20 49  1  0
 20 50  1  0
 21 51  1  0
 21 52  1  0
 26 53  1  0
 27 54  1  0
 28 55  1  0
 29 56  1  0
M  END
>  <Molecule_Name>  (1) 
Compound 32

>  <Kd>  (1) 
1-5µM

>  <SMILES_pH74>  (1) 
Cn1c(CN2CC3(CC3)C[C@@H]2c2cccc(C(=O)NCCF)n2)nc2ccccc21

$$$$
