EDS00760714-2
     RDKit          3D

 56 60  0  0  0  0  0  0  0  0999 V2000
   -3.4023   -2.4289    1.1128 C   0  0  0  0  0  0  0  0  0  0  0  0
   -3.5498   -0.9949    1.1688 N   0  0  0  0  0  0  0  0  0  0  0  0
   -2.5419   -0.0716    0.9729 C   0  0  0  0  0  0  0  0  0  0  0  0
   -1.1145   -0.4265    0.6539 C   0  0  0  0  0  0  0  0  0  0  0  0
   -0.7205    0.0194   -0.6881 N   0  0  0  0  0  0  0  0  0  0  0  0
   -1.3918   -0.7250   -1.7610 C   0  0  0  0  0  0  0  0  0  0  0  0
   -0.4698   -0.5200   -2.9389 C   0  0  0  0  0  0  0  0  0  0  0  0
   -1.0227   -0.0971   -4.2830 C   0  0  0  0  0  0  0  0  0  0  0  0
   -0.4922   -1.4885   -4.1024 C   0  0  0  0  0  0  0  0  0  0  0  0
    0.8297    0.0568   -2.4519 C   0  0  0  0  0  0  0  0  0  0  0  0
    0.7316   -0.1144   -0.9313 C   0  0  1  0  0  0  0  0  0  0  0  0
    1.6189    0.8838   -0.2092 C   0  0  0  0  0  0  0  0  0  0  0  0
    1.2073    2.2036   -0.0046 C   0  0  0  0  0  0  0  0  0  0  0  0
    2.0542    3.0924    0.6534 C   0  0  0  0  0  0  0  0  0  0  0  0
    3.2966    2.6518    1.0895 C   0  0  0  0  0  0  0  0  0  0  0  0
    3.6387    1.3298    0.8458 C   0  0  0  0  0  0  0  0  0  0  0  0
    4.9712    0.8093    1.2960 C   0  0  0  0  0  0  0  0  0  0  0  0
    5.7809    1.5148    1.8853 O   0  0  0  0  0  0  0  0  0  0  0  0
    5.1968   -0.5151    0.9853 N   0  0  0  0  0  0  0  0  0  0  0  0
    6.3839   -1.2276    1.4057 C   0  0  0  0  0  0  0  0  0  0  0  0
    7.6534   -0.7748    0.6983 C   0  0  0  0  0  0  0  0  0  0  0  0
    8.6610   -1.6370    1.0093 F   0  0  0  0  0  0  0  0  0  0  0  0
    2.8316    0.4332    0.2056 N   0  0  0  0  0  0  0  0  0  0  0  0
   -3.0059    1.1561    1.1240 N   0  0  0  0  0  0  0  0  0  0  0  0
   -4.3411    1.0254    1.3985 C   0  0  0  0  0  0  0  0  0  0  0  0
   -5.3012    2.0209    1.6332 C   0  0  0  0  0  0  0  0  0  0  0  0
   -6.6207    1.6381    1.8985 C   0  0  0  0  0  0  0  0  0  0  0  0
   -6.9768    0.2895    1.9302 C   0  0  0  0  0  0  0  0  0  0  0  0
   -6.0318   -0.7177    1.6991 C   0  0  0  0  0  0  0  0  0  0  0  0
   -4.7159   -0.3143    1.4342 C   0  0  0  0  0  0  0  0  0  0  0  0
   -2.6783   -2.7328    1.8732 H   0  0  0  0  0  0  0  0  0  0  0  0
   -4.3575   -2.9191    1.3092 H   0  0  0  0  0  0  0  0  0  0  0  0
   -3.0543   -2.7047    0.1147 H   0  0  0  0  0  0  0  0  0  0  0  0
   -0.5019    0.0815    1.4094 H   0  0  0  0  0  0  0  0  0  0  0  0
   -0.9243   -1.4983    0.7808 H   0  0  0  0  0  0  0  0  0  0  0  0
   -1.4561   -1.7964   -1.5371 H   0  0  0  0  0  0  0  0  0  0  0  0
   -2.3952   -0.3301   -1.9489 H   0  0  0  0  0  0  0  0  0  0  0  0
   -0.4434    0.5937   -4.8861 H   0  0  0  0  0  0  0  0  0  0  0  0
   -2.0948    0.0319   -4.3845 H   0  0  0  0  0  0  0  0  0  0  0  0
    0.4430   -1.7379   -4.5917 H   0  0  0  0  0  0  0  0  0  0  0  0
   -1.2091   -2.3020   -4.0898 H   0  0  0  0  0  0  0  0  0  0  0  0
    1.7016   -0.4717   -2.8529 H   0  0  0  0  0  0  0  0  0  0  0  0
    0.9008    1.1115   -2.7455 H   0  0  0  0  0  0  0  0  0  0  0  0
    1.0524   -1.1332   -0.6686 H   0  0  0  0  0  0  0  0  0  0  0  0
    0.2278    2.5347   -0.3439 H   0  0  0  0  0  0  0  0  0  0  0  0
    1.7411    4.1186    0.8259 H   0  0  0  0  0  0  0  0  0  0  0  0
    3.9780    3.3196    1.6061 H   0  0  0  0  0  0  0  0  0  0  0  0
    4.4308   -1.0039    0.5280 H   0  0  0  0  0  0  0  0  0  0  0  0
    6.2119   -2.2919    1.2144 H   0  0  0  0  0  0  0  0  0  0  0  0
    6.5011   -1.1068    2.4883 H   0  0  0  0  0  0  0  0  0  0  0  0
    7.5282   -0.7852   -0.3887 H   0  0  0  0  0  0  0  0  0  0  0  0
    7.9585    0.2298    1.0038 H   0  0  0  0  0  0  0  0  0  0  0  0
   -5.0135    3.0658    1.6064 H   0  0  0  0  0  0  0  0  0  0  0  0
   -7.3726    2.4018    2.0814 H   0  0  0  0  0  0  0  0  0  0  0  0
   -8.0089    0.0149    2.1389 H   0  0  0  0  0  0  0  0  0  0  0  0
   -6.3219   -1.7619    1.7271 H   0  0  0  0  0  0  0  0  0  0  0  0
  1  2  1  0
  2  3  1  0
  3  4  1  0
  4  5  1  0
  5  6  1  0
  6  7  1  0
  7  8  1  0
  8  9  1  0
  7 10  1  0
 10 11  1  0
 11 12  1  0
 12 13  2  0
 13 14  1  0
 14 15  2  0
 15 16  1  0
 16 17  1  0
 17 18  2  0
 17 19  1  0
 19 20  1  0
 20 21  1  0
 21 22  1  0
 16 23  2  0
  3 24  2  0
 24 25  1  0
 25 26  2  0
 26 27  1  0
 27 28  2  0
 28 29  1  0
 29 30  2  0
 30  2  1  0
 11  5  1  0
 23 12  1  0
 30 25  1  0
  9  7  1  0
  1 31  1  0
  1 32  1  0
  1 33  1  0
  4 34  1  0
  4 35  1  0
  6 36  1  0
  6 37  1  0
  8 38  1  0
  8 39  1  0
  9 40  1  0
  9 41  1  0
 10 42  1  0
 10 43  1  0
 11 44  1  6
 13 45  1  0
 14 46  1  0
 15 47  1  0
 19 48  1  0
 20 49  1  0
 20 50  1  0
 21 51  1  0
 21 52  1  0
 26 53  1  0
 27 54  1  0
 28 55  1  0
 29 56  1  0
M  END
>  <Molecule_Name>  (1) 
>  <Ranking_Reconfirmation>

>  <Kd>  (1) 
?

>  <SMILES_pH74>  (1) 
Cn1c(CN2CC3(CC3)C[C@H]2c2cccc(C(=O)NCCF)n2)nc2ccccc21

$$$$
