EDS00760778-1
     RDKit          3D

 60 65  0  0  0  0  0  0  0  0999 V2000
   -5.3886   -1.8776    1.1406 O   0  0  0  0  0  0  0  0  0  0  0  0
   -4.3268   -1.3902    0.7709 C   0  0  0  0  0  0  0  0  0  0  0  0
   -4.1768   -0.6102   -0.3587 N   0  0  0  0  0  0  0  0  0  0  0  0
   -3.0565   -1.5854    1.5383 C   0  0  0  0  0  0  0  0  0  0  0  0
   -5.2882   -0.2444   -1.2344 C   0  0  0  0  0  0  0  0  0  0  0  0
   -1.9498   -1.0044    0.9999 N   0  0  0  0  0  0  0  0  0  0  0  0
   -3.0552   -2.3055    2.7219 C   0  0  0  0  0  0  0  0  0  0  0  0
   -6.2344    0.8371   -0.6585 C   0  0  0  0  0  0  0  0  0  0  0  0
   -4.9223    0.7831   -2.3336 C   0  0  0  0  0  0  0  0  0  0  0  0
   -0.7788   -1.1367    1.6736 C   0  0  0  0  0  0  0  0  0  0  0  0
   -1.8493   -2.4369    3.4010 C   0  0  0  0  0  0  0  0  0  0  0  0
   -6.3012    1.4285   -2.0810 C   0  0  0  0  0  0  0  0  0  0  0  0
   -0.6999   -1.8487    2.8749 C   0  0  0  0  0  0  0  0  0  0  0  0
    0.4975   -0.5198    1.0812 C   0  0  2  0  0  0  0  0  0  0  0  0
    0.2134    0.5271    0.0739 N   0  0  0  0  0  0  0  0  0  0  0  0
    1.3189   -1.5842    0.3448 C   0  0  0  0  0  0  0  0  0  0  0  0
    0.2838   -0.0711   -1.2682 C   0  0  0  0  0  0  0  0  0  0  0  0
    0.9933    1.7584    0.2174 C   0  0  0  0  0  0  0  0  0  0  0  0
    0.8544   -1.4504   -1.0706 C   0  0  0  0  0  0  0  0  0  0  0  0
    2.4907    1.6035    0.2332 C   0  0  0  0  0  0  0  0  0  0  0  0
    1.6016   -2.1440   -2.1885 C   0  0  0  0  0  0  0  0  0  0  0  0
    0.2406   -2.6353   -1.7877 C   0  0  0  0  0  0  0  0  0  0  0  0
    3.2222    1.0685   -0.7267 N   0  0  0  0  0  0  0  0  0  0  0  0
    3.2983    2.0337    1.2684 N   0  0  0  0  0  0  0  0  0  0  0  0
    4.5216    1.1350   -0.2977 C   0  0  0  0  0  0  0  0  0  0  0  0
    4.6034    1.7355    0.9540 C   0  0  0  0  0  0  0  0  0  0  0  0
    2.8489    2.6958    2.4694 C   0  0  0  0  0  0  0  0  0  0  0  0
    5.6924    0.6994   -0.9350 C   0  0  0  0  0  0  0  0  0  0  0  0
    5.8232    1.9293    1.6152 C   0  0  0  0  0  0  0  0  0  0  0  0
    6.9209    0.8846   -0.2907 C   0  0  0  0  0  0  0  0  0  0  0  0
    6.9816    1.4910    0.9638 C   0  0  0  0  0  0  0  0  0  0  0  0
   -3.2248   -0.2756   -0.5095 H   0  0  0  0  0  0  0  0  0  0  0  0
   -5.8149   -1.1237   -1.6267 H   0  0  0  0  0  0  0  0  0  0  0  0
   -3.9685   -2.7487    3.1047 H   0  0  0  0  0  0  0  0  0  0  0  0
   -7.1822    0.4722   -0.2555 H   0  0  0  0  0  0  0  0  0  0  0  0
   -5.7698    1.5067    0.0731 H   0  0  0  0  0  0  0  0  0  0  0  0
   -4.7741    0.3734   -3.3356 H   0  0  0  0  0  0  0  0  0  0  0  0
   -4.0800    1.4386   -2.0893 H   0  0  0  0  0  0  0  0  0  0  0  0
   -1.8044   -2.9957    4.3324 H   0  0  0  0  0  0  0  0  0  0  0  0
   -6.3381    2.5196   -2.1408 H   0  0  0  0  0  0  0  0  0  0  0  0
   -7.1051    1.0061   -2.6985 H   0  0  0  0  0  0  0  0  0  0  0  0
    0.2482   -1.9529    3.3970 H   0  0  0  0  0  0  0  0  0  0  0  0
    1.0641   -0.1156    1.9303 H   0  0  0  0  0  0  0  0  0  0  0  0
    2.3881   -1.3466    0.3983 H   0  0  0  0  0  0  0  0  0  0  0  0
    1.1800   -2.5947    0.7421 H   0  0  0  0  0  0  0  0  0  0  0  0
   -0.7296   -0.1276   -1.6807 H   0  0  0  0  0  0  0  0  0  0  0  0
    0.8912    0.5108   -1.9702 H   0  0  0  0  0  0  0  0  0  0  0  0
    0.6488    2.2571    1.1325 H   0  0  0  0  0  0  0  0  0  0  0  0
    0.7277    2.4539   -0.5925 H   0  0  0  0  0  0  0  0  0  0  0  0
    1.7014   -1.6274   -3.1357 H   0  0  0  0  0  0  0  0  0  0  0  0
    2.4625   -2.7546   -1.9322 H   0  0  0  0  0  0  0  0  0  0  0  0
    0.1755   -3.5816   -1.2635 H   0  0  0  0  0  0  0  0  0  0  0  0
   -0.5823   -2.4588   -2.4673 H   0  0  0  0  0  0  0  0  0  0  0  0
    2.1522    2.0361    2.9895 H   0  0  0  0  0  0  0  0  0  0  0  0
    3.6939    2.9174    3.1253 H   0  0  0  0  0  0  0  0  0  0  0  0
    2.3573    3.6301    2.1849 H   0  0  0  0  0  0  0  0  0  0  0  0
    5.6354    0.2319   -1.9108 H   0  0  0  0  0  0  0  0  0  0  0  0
    5.8840    2.4013    2.5889 H   0  0  0  0  0  0  0  0  0  0  0  0
    7.8362    0.5546   -0.7763 H   0  0  0  0  0  0  0  0  0  0  0  0
    7.9479    1.6283    1.4446 H   0  0  0  0  0  0  0  0  0  0  0  0
  1  2  2  0
  2  3  1  0
  2  4  1  0
  3  5  1  0
  4  6  2  0
  4  7  1  0
  5  8  1  0
  5  9  1  0
  6 10  1  0
  7 11  2  0
  8 12  1  0
  9 12  1  0
 10 13  2  0
 10 14  1  0
 11 13  1  0
 14 15  1  0
 14 16  1  0
 15 17  1  0
 15 18  1  0
 16 19  1  0
 17 19  1  0
 18 20  1  0
 19 21  1  0
 19 22  1  0
 20 23  2  0
 20 24  1  0
 21 22  1  0
 23 25  1  0
 24 26  1  0
 24 27  1  0
 25 28  2  0
 25 26  1  0
 26 29  2  0
 28 30  1  0
 29 31  1  0
 30 31  2  0
  3 32  1  0
  5 33  1  0
  7 34  1  0
  8 35  1  0
  8 36  1  0
  9 37  1  0
  9 38  1  0
 11 39  1  0
 12 40  1  0
 12 41  1  0
 13 42  1  0
 14 43  1  1
 16 44  1  0
 16 45  1  0
 17 46  1  0
 17 47  1  0
 18 48  1  0
 18 49  1  0
 21 50  1  0
 21 51  1  0
 22 52  1  0
 22 53  1  0
 27 54  1  0
 27 55  1  0
 27 56  1  0
 28 57  1  0
 29 58  1  0
 30 59  1  0
 31 60  1  0
M  END
>  <Molecule Name>  (1) 
Compound 16

>  <Ranking_Reconfirmation>  (1) 
24

>  <ID>  (1) 
EDS00760778-1

>  <Class>  (1) 
Medium repro

>  <Increasing_signal>  (1) 
1

>  <BB_ID>  (1) 
1

>  <Purity (%)>  (1) 
83

>  <Confirmation (/2)>  (1) 
2

>  <Average_binding_ratio_as_single_compound_in_percentage>  (1) 
9.32848745460571

>  <Tested_in_DRC>  (1) 
Yes

>  <Ranking_DRC>  (1) 
16

>  <Betamax>  (1) 
1-5µM

>  <Kd>  (1) 
<1µM

>  <Comment_DRC>  (1) 
Clear ASMS hit

>  <SMILES>  (1) 
Cn1c(cccc2)c2nc1CN(CC1(CC1)C1)C1c1cccc(C(NC2CCC2)=O)n1

>  <MMFF94 Energy>  (1) 
119.89

$$$$
