EDS00760778-1
     RDKit          3D

 60 65  0  0  0  0  0  0  0  0999 V2000
   -1.5045    0.8625   -1.4475 C   0  0  0  0  0  0  0  0  0  0  0  0
   -1.6396    0.9960   -0.0176 N   0  0  0  0  0  0  0  0  0  0  0  0
   -2.0054   -0.0019    0.8614 C   0  0  0  0  0  0  0  0  0  0  0  0
   -2.2790   -1.4241    0.4708 C   0  0  0  0  0  0  0  0  0  0  0  0
   -1.2097   -2.0730   -0.3228 N   0  0  0  0  0  0  0  0  0  0  0  0
   -1.6934   -3.3973   -0.7855 C   0  0  0  0  0  0  0  0  0  0  0  0
   -1.3464   -4.3442    0.3405 C   0  0  0  0  0  0  0  0  0  0  0  0
   -1.2586   -5.8327    0.0860 C   0  0  0  0  0  0  0  0  0  0  0  0
   -2.3908   -5.2836    0.9036 C   0  0  0  0  0  0  0  0  0  0  0  0
   -0.3714   -3.6673    1.2669 C   0  0  0  0  0  0  0  0  0  0  0  0
    0.0248   -2.4226    0.4607 C   0  0  2  0  0  0  0  0  0  0  0  0
    0.7644   -1.2950    1.1571 C   0  0  0  0  0  0  0  0  0  0  0  0
    0.8100   -1.1592    2.5452 C   0  0  0  0  0  0  0  0  0  0  0  0
    1.4844   -0.0751    3.1101 C   0  0  0  0  0  0  0  0  0  0  0  0
    2.0956    0.8591    2.2854 C   0  0  0  0  0  0  0  0  0  0  0  0
    2.0167    0.6569    0.9189 C   0  0  0  0  0  0  0  0  0  0  0  0
    2.6256    1.6454   -0.0281 C   0  0  0  0  0  0  0  0  0  0  0  0
    3.2174    2.6459    0.3593 O   0  0  0  0  0  0  0  0  0  0  0  0
    2.4521    1.3145   -1.3588 N   0  0  0  0  0  0  0  0  0  0  0  0
    2.9446    2.1374   -2.4612 C   0  0  0  0  0  0  0  0  0  0  0  0
    2.0383    3.3395   -2.8212 C   0  0  0  0  0  0  0  0  0  0  0  0
    2.3519    3.0372   -4.3006 C   0  0  0  0  0  0  0  0  0  0  0  0
    2.6175    1.5806   -3.8681 C   0  0  0  0  0  0  0  0  0  0  0  0
    1.3890   -0.4062    0.3366 N   0  0  0  0  0  0  0  0  0  0  0  0
   -2.0906    0.4695    2.0931 N   0  0  0  0  0  0  0  0  0  0  0  0
   -1.6922    1.7794    2.0181 C   0  0  0  0  0  0  0  0  0  0  0  0
   -1.5512    2.7254    3.0443 C   0  0  0  0  0  0  0  0  0  0  0  0
   -1.0917    4.0074    2.7218 C   0  0  0  0  0  0  0  0  0  0  0  0
   -0.7827    4.3416    1.4027 C   0  0  0  0  0  0  0  0  0  0  0  0
   -0.9289    3.4143    0.3645 C   0  0  0  0  0  0  0  0  0  0  0  0
   -1.3898    2.1375    0.7083 C   0  0  0  0  0  0  0  0  0  0  0  0
   -0.5195    0.4477   -1.6690 H   0  0  0  0  0  0  0  0  0  0  0  0
   -2.2941    0.2092   -1.8266 H   0  0  0  0  0  0  0  0  0  0  0  0
   -1.6104    1.8422   -1.9195 H   0  0  0  0  0  0  0  0  0  0  0  0
   -2.5243   -1.9976    1.3730 H   0  0  0  0  0  0  0  0  0  0  0  0
   -3.1991   -1.3979   -0.1290 H   0  0  0  0  0  0  0  0  0  0  0  0
   -2.7580   -3.4013   -1.0446 H   0  0  0  0  0  0  0  0  0  0  0  0
   -1.1365   -3.6774   -1.6880 H   0  0  0  0  0  0  0  0  0  0  0  0
   -1.4859   -6.2038   -0.9076 H   0  0  0  0  0  0  0  0  0  0  0  0
   -0.4953   -6.4061    0.6008 H   0  0  0  0  0  0  0  0  0  0  0  0
   -2.3885   -5.4847    1.9696 H   0  0  0  0  0  0  0  0  0  0  0  0
   -3.3818   -5.2872    0.4629 H   0  0  0  0  0  0  0  0  0  0  0  0
   -0.8722   -3.4205    2.2087 H   0  0  0  0  0  0  0  0  0  0  0  0
    0.5011   -4.2914    1.4878 H   0  0  0  0  0  0  0  0  0  0  0  0
    0.7490   -2.7718   -0.2940 H   0  0  0  0  0  0  0  0  0  0  0  0
    0.3017   -1.8542    3.2039 H   0  0  0  0  0  0  0  0  0  0  0  0
    1.5027    0.0540    4.1888 H   0  0  0  0  0  0  0  0  0  0  0  0
    2.5995    1.7280    2.6941 H   0  0  0  0  0  0  0  0  0  0  0  0
    1.9580    0.4363   -1.5064 H   0  0  0  0  0  0  0  0  0  0  0  0
    4.0027    2.4035   -2.3430 H   0  0  0  0  0  0  0  0  0  0  0  0
    2.3756    4.3137   -2.4578 H   0  0  0  0  0  0  0  0  0  0  0  0
    0.9805    3.2099   -2.5640 H   0  0  0  0  0  0  0  0  0  0  0  0
    3.2410    3.5550   -4.6784 H   0  0  0  0  0  0  0  0  0  0  0  0
    1.5270    3.1832   -5.0020 H   0  0  0  0  0  0  0  0  0  0  0  0
    3.4414    1.0801   -4.3836 H   0  0  0  0  0  0  0  0  0  0  0  0
    1.7277    0.9412   -3.9152 H   0  0  0  0  0  0  0  0  0  0  0  0
   -1.7857    2.4539    4.0669 H   0  0  0  0  0  0  0  0  0  0  0  0
   -0.9690    4.7468    3.5091 H   0  0  0  0  0  0  0  0  0  0  0  0
   -0.4160    5.3406    1.1753 H   0  0  0  0  0  0  0  0  0  0  0  0
   -0.6778    3.6808   -0.6559 H   0  0  0  0  0  0  0  0  0  0  0  0
  1  2  1  0
  2  3  1  0
  3  4  1  0
  4  5  1  0
  5  6  1  0
  6  7  1  0
  7  8  1  0
  8  9  1  0
  7 10  1  0
 10 11  1  0
 11 12  1  0
 12 13  2  0
 13 14  1  0
 14 15  2  0
 15 16  1  0
 16 17  1  0
 17 18  2  0
 17 19  1  0
 19 20  1  0
 20 21  1  0
 21 22  1  0
 22 23  1  0
 16 24  2  0
  3 25  2  0
 25 26  1  0
 26 27  2  0
 27 28  1  0
 28 29  2  0
 29 30  1  0
 30 31  2  0
 31  2  1  0
 11  5  1  0
 24 12  1  0
 31 26  1  0
  9  7  1  0
 23 20  1  0
  1 32  1  0
  1 33  1  0
  1 34  1  0
  4 35  1  0
  4 36  1  0
  6 37  1  0
  6 38  1  0
  8 39  1  0
  8 40  1  0
  9 41  1  0
  9 42  1  0
 10 43  1  0
 10 44  1  0
 11 45  1  6
 13 46  1  0
 14 47  1  0
 15 48  1  0
 19 49  1  0
 20 50  1  0
 21 51  1  0
 21 52  1  0
 22 53  1  0
 22 54  1  0
 23 55  1  0
 23 56  1  0
 27 57  1  0
 28 58  1  0
 29 59  1  0
 30 60  1  0
M  END
>  <Molecule_Name>  (1) 
Compound 16

>  <Kd>  (1) 
<1µM

>  <SMILES_pH74>  (1) 
Cn1c(CN2CC3(CC3)C[C@@H]2c2cccc(C(=O)NC3CCC3)n2)nc2ccccc21

$$$$
