EDS00760714-1
 OpenBabel08282614463D

 56 60  0  0  0  0  0  0  0  0999 V2000
    1.3972    3.8655    1.5621 F   0  0  0  0  0  0  0  0  0  0  0  0
    0.7619    3.6800    0.3709 C   0  0  0  0  0  0  0  0  0  0  0  0
    1.4721    4.4919   -0.7051 C   0  0  0  0  0  0  0  0  0  0  0  0
    2.8600    4.1079   -0.8965 N   0  0  0  0  0  0  0  0  0  0  0  0
    3.2480    3.1069   -1.7636 C   0  0  0  0  0  0  0  0  0  0  0  0
    2.4667    2.5040   -2.4869 O   0  0  0  0  0  0  0  0  0  0  0  0
    4.7226    2.8015   -1.7564 C   0  0  0  0  0  0  0  0  0  0  0  0
    5.5067    3.5587   -0.9281 N   0  0  0  0  0  0  0  0  0  0  0  0
    5.2071    1.7934   -2.5801 C   0  0  0  0  0  0  0  0  0  0  0  0
    6.8409    3.2815   -0.9174 C   0  0  0  0  0  0  0  0  0  0  0  0
    6.5689    1.5242   -2.5527 C   0  0  0  0  0  0  0  0  0  0  0  0
    7.3926    2.2772   -1.7216 C   0  0  0  0  0  0  0  0  0  0  0  0
    7.7437    4.1275   -0.0171 C   0  0  2  0  0  0  0  0  0  0  0  0
    8.7688    4.8702   -0.7770 N   0  0  0  0  0  0  0  0  0  0  0  0
    8.5518    3.2614    0.9741 C   0  0  0  0  0  0  0  0  0  0  0  0
    9.9239    5.0961    0.0948 C   0  0  0  0  0  0  0  0  0  0  0  0
    8.2848    6.1002   -1.4285 C   0  0  0  0  0  0  0  0  0  0  0  0
    9.9069    3.9094    1.0167 C   0  0  0  0  0  0  0  0  0  0  0  0
    7.8068    7.2093   -0.5177 C   0  0  0  0  0  0  0  0  0  0  0  0
   11.1671    3.0989    1.2511 C   0  0  0  0  0  0  0  0  0  0  0  0
   10.6483    3.9943    2.3350 C   0  0  0  0  0  0  0  0  0  0  0  0
    8.5625    7.8265    0.3760 N   0  0  0  0  0  0  0  0  0  0  0  0
    6.5466    7.7753   -0.5334 N   0  0  0  0  0  0  0  0  0  0  0  0
    7.7937    8.8060    0.9343 C   0  0  0  0  0  0  0  0  0  0  0  0
    6.5395    8.8422    0.3410 C   0  0  0  0  0  0  0  0  0  0  0  0
    5.3885    7.3531   -1.2810 C   0  0  0  0  0  0  0  0  0  0  0  0
    8.1068    9.7178    1.9519 C   0  0  0  0  0  0  0  0  0  0  0  0
    5.5768    9.8051    0.6723 C   0  0  0  0  0  0  0  0  0  0  0  0
    7.1519   10.6724    2.3180 C   0  0  0  0  0  0  0  0  0  0  0  0
    5.9141   10.7230    1.6740 C   0  0  0  0  0  0  0  0  0  0  0  0
    0.7557    2.6094    0.1502 H   0  0  0  0  0  0  0  0  0  0  0  0
   -0.2702    4.0245    0.4929 H   0  0  0  0  0  0  0  0  0  0  0  0
    0.9372    4.3907   -1.6550 H   0  0  0  0  0  0  0  0  0  0  0  0
    1.4848    5.5477   -0.4208 H   0  0  0  0  0  0  0  0  0  0  0  0
    3.5659    4.4304   -0.2407 H   0  0  0  0  0  0  0  0  0  0  0  0
    4.5418    1.2312   -3.2271 H   0  0  0  0  0  0  0  0  0  0  0  0
    6.9880    0.7379   -3.1749 H   0  0  0  0  0  0  0  0  0  0  0  0
    8.4635    2.0824   -1.7032 H   0  0  0  0  0  0  0  0  0  0  0  0
    7.1210    4.8133    0.5711 H   0  0  0  0  0  0  0  0  0  0  0  0
    8.0731    3.2858    1.9602 H   0  0  0  0  0  0  0  0  0  0  0  0
    8.6440    2.2124    0.6743 H   0  0  0  0  0  0  0  0  0  0  0  0
   10.8450    5.1549   -0.4944 H   0  0  0  0  0  0  0  0  0  0  0  0
    9.8530    5.9865    0.7185 H   0  0  0  0  0  0  0  0  0  0  0  0
    9.1118    6.5104   -2.0251 H   0  0  0  0  0  0  0  0  0  0  0  0
    7.5226    5.8373   -2.1683 H   0  0  0  0  0  0  0  0  0  0  0  0
   11.0865    2.0288    1.4018 H   0  0  0  0  0  0  0  0  0  0  0  0
   12.0807    3.4003    0.7485 H   0  0  0  0  0  0  0  0  0  0  0  0
   11.1921    4.9079    2.5530 H   0  0  0  0  0  0  0  0  0  0  0  0
   10.2074    3.5317    3.2102 H   0  0  0  0  0  0  0  0  0  0  0  0
    4.5202    7.3767   -0.6158 H   0  0  0  0  0  0  0  0  0  0  0  0
    5.2452    8.0480   -2.1115 H   0  0  0  0  0  0  0  0  0  0  0  0
    5.5127    6.3352   -1.6484 H   0  0  0  0  0  0  0  0  0  0  0  0
    9.0753    9.6753    2.4390 H   0  0  0  0  0  0  0  0  0  0  0  0
    4.6133    9.8472    0.1781 H   0  0  0  0  0  0  0  0  0  0  0  0
    7.3821   11.3845    3.1064 H   0  0  0  0  0  0  0  0  0  0  0  0
    5.1946   11.4873    1.9604 H   0  0  0  0  0  0  0  0  0  0  0  0
  1  2  1  0  0  0  0
  2  3  1  0  0  0  0
  2 31  1  0  0  0  0
  2 32  1  0  0  0  0
  3  4  1  0  0  0  0
  3 33  1  0  0  0  0
  3 34  1  0  0  0  0
  4  5  1  0  0  0  0
  4 35  1  0  0  0  0
  5  6  2  0  0  0  0
  5  7  1  0  0  0  0
  7  8  2  0  0  0  0
  7  9  1  0  0  0  0
  8 10  1  0  0  0  0
  9 11  2  0  0  0  0
  9 36  1  0  0  0  0
 10 12  2  0  0  0  0
 10 13  1  0  0  0  0
 11 12  1  0  0  0  0
 11 37  1  0  0  0  0
 12 38  1  0  0  0  0
 13 14  1  0  0  0  0
 13 15  1  0  0  0  0
 13 39  1  1  0  0  0
 14 16  1  0  0  0  0
 14 17  1  0  0  0  0
 15 18  1  0  0  0  0
 15 40  1  0  0  0  0
 15 41  1  0  0  0  0
 16 18  1  0  0  0  0
 16 42  1  0  0  0  0
 16 43  1  0  0  0  0
 17 19  1  0  0  0  0
 17 44  1  0  0  0  0
 17 45  1  0  0  0  0
 18 20  1  0  0  0  0
 18 21  1  0  0  0  0
 19 22  2  0  0  0  0
 19 23  1  0  0  0  0
 20 21  1  0  0  0  0
 20 46  1  0  0  0  0
 20 47  1  0  0  0  0
 21 48  1  0  0  0  0
 21 49  1  0  0  0  0
 22 24  1  0  0  0  0
 23 25  1  0  0  0  0
 23 26  1  0  0  0  0
 24 27  1  0  0  0  0
 24 25  2  0  0  0  0
 25 28  1  0  0  0  0
 26 50  1  0  0  0  0
 26 51  1  0  0  0  0
 26 52  1  0  0  0  0
 27 29  2  0  0  0  0
 27 53  1  0  0  0  0
 28 30  2  0  0  0  0
 28 54  1  0  0  0  0
 29 30  1  0  0  0  0
 29 55  1  0  0  0  0
 30 56  1  0  0  0  0
M  END
>  <Molecule Name>
Compound 32

>  <Ranking_Reconfirmation>
15

>  <ID>
EDS00760714-1

>  <Class>
Weak repro

>  <Increasing_signal>
1

>  <BB_ID>
1

>  <Purity (%)>
98

>  <Confirmation (/2)>
2

>  <Average_binding_ratio_as_single_compound_in_percentage>
11.1520776436541

>  <Tested_in_DRC>
Yes

>  <Ranking_DRC>
32

>  <Betamax>
1-5µM

>  <Kd>
1-5µM

>  <Comment_DRC>
Clear ASMS hit

>  <SMILES>
Cn1c(cccc2)c2nc1CN(CC1(CC1)C1)C1c1cccc(C(NCCF)=O)n1

>  <MMFF94 Energy>
120.18

$$$$
EDS00760778-1
 OpenBabel08282614473D

 60 65  0  0  0  0  0  0  0  0999 V2000
    0.5198   -0.2301   -0.4738 O   0  0  0  0  0  0  0  0  0  0  0  0
    1.4000   -0.8666    0.0935 C   0  0  0  0  0  0  0  0  0  0  0  0
    1.4261   -1.0678    1.4589 N   0  0  0  0  0  0  0  0  0  0  0  0
    2.5415   -1.4656   -0.6830 C   0  0  0  0  0  0  0  0  0  0  0  0
    0.4324   -0.4462    2.3468 C   0  0  0  0  0  0  0  0  0  0  0  0
    3.5272   -2.1120    0.0139 N   0  0  0  0  0  0  0  0  0  0  0  0
    2.5320   -1.3272   -2.0658 C   0  0  0  0  0  0  0  0  0  0  0  0
    0.6763   -0.6533    3.8612 C   0  0  0  0  0  0  0  0  0  0  0  0
   -0.8766   -1.2513    2.5437 C   0  0  0  0  0  0  0  0  0  0  0  0
    4.5528   -2.6402   -0.7188 C   0  0  0  0  0  0  0  0  0  0  0  0
    3.5770   -1.8812   -2.7911 C   0  0  0  0  0  0  0  0  0  0  0  0
   -0.8587   -0.7565    4.0063 C   0  0  0  0  0  0  0  0  0  0  0  0
    4.5917   -2.5478   -2.1157 C   0  0  0  0  0  0  0  0  0  0  0  0
    5.6434   -3.4208    0.0180 C   0  0  2  0  0  0  0  0  0  0  0  0
    7.0027   -3.3757   -0.6101 N   0  0  0  0  0  0  0  0  0  0  0  0
    5.2849   -4.9195    0.0454 C   0  0  0  0  0  0  0  0  0  0  0  0
    7.7072   -4.5798   -0.1268 C   0  0  0  0  0  0  0  0  0  0  0  0
    7.7363   -2.1505   -0.2185 C   0  0  0  0  0  0  0  0  0  0  0  0
    6.6150   -5.6090   -0.0292 C   0  0  0  0  0  0  0  0  0  0  0  0
    9.1625   -2.1017   -0.7197 C   0  0  0  0  0  0  0  0  0  0  0  0
    6.7454   -6.9447   -0.7438 C   0  0  0  0  0  0  0  0  0  0  0  0
    6.8562   -6.8870    0.7492 C   0  0  0  0  0  0  0  0  0  0  0  0
   10.2297   -2.1619    0.0606 N   0  0  0  0  0  0  0  0  0  0  0  0
    9.5464   -2.0003   -2.0397 N   0  0  0  0  0  0  0  0  0  0  0  0
   11.3158   -2.2025   -0.7770 C   0  0  0  0  0  0  0  0  0  0  0  0
   10.9165   -2.1594   -2.1073 C   0  0  0  0  0  0  0  0  0  0  0  0
    8.7097   -1.7380   -3.1844 C   0  0  0  0  0  0  0  0  0  0  0  0
   12.6835   -2.2932   -0.4727 C   0  0  0  0  0  0  0  0  0  0  0  0
   11.8209   -2.2586   -3.1733 C   0  0  0  0  0  0  0  0  0  0  0  0
   13.6061   -2.3957   -1.5199 C   0  0  0  0  0  0  0  0  0  0  0  0
   13.1755   -2.3940   -2.8496 C   0  0  0  0  0  0  0  0  0  0  0  0
    2.2141   -1.6058    1.8097 H   0  0  0  0  0  0  0  0  0  0  0  0
    0.2572    0.6082    2.0914 H   0  0  0  0  0  0  0  0  0  0  0  0
    1.7253   -0.8017   -2.5684 H   0  0  0  0  0  0  0  0  0  0  0  0
    1.2045   -1.5776    4.1208 H   0  0  0  0  0  0  0  0  0  0  0  0
    1.1408    0.1846    4.3872 H   0  0  0  0  0  0  0  0  0  0  0  0
   -1.7349   -0.9253    1.9493 H   0  0  0  0  0  0  0  0  0  0  0  0
   -0.7686   -2.3378    2.4467 H   0  0  0  0  0  0  0  0  0  0  0  0
    3.5950   -1.7999   -3.8750 H   0  0  0  0  0  0  0  0  0  0  0  0
   -1.2252   -1.4616    4.7582 H   0  0  0  0  0  0  0  0  0  0  0  0
   -1.3553    0.2097    4.1534 H   0  0  0  0  0  0  0  0  0  0  0  0
    5.4027   -3.0026   -2.6750 H   0  0  0  0  0  0  0  0  0  0  0  0
    5.6982   -3.0609    1.0550 H   0  0  0  0  0  0  0  0  0  0  0  0
    4.7606   -5.1658    0.9761 H   0  0  0  0  0  0  0  0  0  0  0  0
    4.6493   -5.2217   -0.7945 H   0  0  0  0  0  0  0  0  0  0  0  0
    8.4898   -4.8812   -0.8308 H   0  0  0  0  0  0  0  0  0  0  0  0
    8.1458   -4.4328    0.8669 H   0  0  0  0  0  0  0  0  0  0  0  0
    7.2061   -1.2617   -0.5786 H   0  0  0  0  0  0  0  0  0  0  0  0
    7.7714   -2.0703    0.8771 H   0  0  0  0  0  0  0  0  0  0  0  0
    5.8576   -7.4097   -1.1606 H   0  0  0  0  0  0  0  0  0  0  0  0
    7.6467   -7.1476   -1.3095 H   0  0  0  0  0  0  0  0  0  0  0  0
    7.8354   -7.0411    1.1913 H   0  0  0  0  0  0  0  0  0  0  0  0
    6.0444   -7.3069    1.3319 H   0  0  0  0  0  0  0  0  0  0  0  0
    9.1680   -0.9305   -3.7645 H   0  0  0  0  0  0  0  0  0  0  0  0
    8.6508   -2.6471   -3.7868 H   0  0  0  0  0  0  0  0  0  0  0  0
    7.7162   -1.4206   -2.8670 H   0  0  0  0  0  0  0  0  0  0  0  0
   13.0101   -2.3005    0.5608 H   0  0  0  0  0  0  0  0  0  0  0  0
   11.4940   -2.2506   -4.2068 H   0  0  0  0  0  0  0  0  0  0  0  0
   14.6659   -2.4895   -1.2969 H   0  0  0  0  0  0  0  0  0  0  0  0
   13.9096   -2.4975   -3.6490 H   0  0  0  0  0  0  0  0  0  0  0  0
  1  2  2  0  0  0  0
  2  3  1  0  0  0  0
  2  4  1  0  0  0  0
  3  5  1  0  0  0  0
  3 32  1  0  0  0  0
  4  6  2  0  0  0  0
  4  7  1  0  0  0  0
  5  8  1  0  0  0  0
  5  9  1  0  0  0  0
  5 33  1  0  0  0  0
  6 10  1  0  0  0  0
  7 11  2  0  0  0  0
  7 34  1  0  0  0  0
  8 12  1  0  0  0  0
  8 35  1  0  0  0  0
  8 36  1  0  0  0  0
  9 12  1  0  0  0  0
  9 37  1  0  0  0  0
  9 38  1  0  0  0  0
 10 13  2  0  0  0  0
 10 14  1  0  0  0  0
 11 13  1  0  0  0  0
 11 39  1  0  0  0  0
 12 40  1  0  0  0  0
 12 41  1  0  0  0  0
 13 42  1  0  0  0  0
 14 15  1  0  0  0  0
 14 16  1  0  0  0  0
 14 43  1  1  0  0  0
 15 17  1  0  0  0  0
 15 18  1  0  0  0  0
 16 19  1  0  0  0  0
 16 44  1  0  0  0  0
 16 45  1  0  0  0  0
 17 19  1  0  0  0  0
 17 46  1  0  0  0  0
 17 47  1  0  0  0  0
 18 20  1  0  0  0  0
 18 48  1  0  0  0  0
 18 49  1  0  0  0  0
 19 21  1  0  0  0  0
 19 22  1  0  0  0  0
 20 23  2  0  0  0  0
 20 24  1  0  0  0  0
 21 22  1  0  0  0  0
 21 50  1  0  0  0  0
 21 51  1  0  0  0  0
 22 52  1  0  0  0  0
 22 53  1  0  0  0  0
 23 25  1  0  0  0  0
 24 26  1  0  0  0  0
 24 27  1  0  0  0  0
 25 28  1  0  0  0  0
 25 26  2  0  0  0  0
 26 29  1  0  0  0  0
 27 54  1  0  0  0  0
 27 55  1  0  0  0  0
 27 56  1  0  0  0  0
 28 30  2  0  0  0  0
 28 57  1  0  0  0  0
 29 31  2  0  0  0  0
 29 58  1  0  0  0  0
 30 31  1  0  0  0  0
 30 59  1  0  0  0  0
 31 60  1  0  0  0  0
M  END
>  <Molecule Name>
Compound 16

>  <Ranking_Reconfirmation>
24

>  <ID>
EDS00760778-1

>  <Class>
Medium repro

>  <Increasing_signal>
1

>  <BB_ID>
1

>  <Purity (%)>
83

>  <Confirmation (/2)>
2

>  <Average_binding_ratio_as_single_compound_in_percentage>
9.32848745460571

>  <Tested_in_DRC>
Yes

>  <Ranking_DRC>
16

>  <Betamax>
1-5µM

>  <Kd>
<1µM

>  <Comment_DRC>
Clear ASMS hit

>  <SMILES>
Cn1c(cccc2)c2nc1CN(CC1(CC1)C1)C1c1cccc(C(NC2CCC2)=O)n1

>  <MMFF94 Energy>
119.89

$$$$
EDS00760778-2
 OpenBabel08282614473D

 60 65  0  0  0  0  0  0  0  0999 V2000
    4.3416    3.2632   -1.9543 O   0  0  0  0  0  0  0  0  0  0  0  0
    4.5799    2.3326   -1.1910 C   0  0  0  0  0  0  0  0  0  0  0  0
    4.2750    1.0100   -1.4883 N   0  0  0  0  0  0  0  0  0  0  0  0
    5.2263    2.5640    0.1455 C   0  0  0  0  0  0  0  0  0  0  0  0
    3.6814    0.6230   -2.7800 C   0  0  0  0  0  0  0  0  0  0  0  0
    5.4409    1.4734    0.9373 N   0  0  0  0  0  0  0  0  0  0  0  0
    5.5764    3.8545    0.5091 C   0  0  0  0  0  0  0  0  0  0  0  0
    3.4461   -0.8915   -2.9541 C   0  0  0  0  0  0  0  0  0  0  0  0
    4.6833    0.5619   -3.9521 C   0  0  0  0  0  0  0  0  0  0  0  0
    6.0338    1.6789    2.1546 C   0  0  0  0  0  0  0  0  0  0  0  0
    6.1860    4.0486    1.7414 C   0  0  0  0  0  0  0  0  0  0  0  0
    4.1217   -0.8160   -4.3325 C   0  0  0  0  0  0  0  0  0  0  0  0
    6.4263    2.9533    2.5695 C   0  0  0  0  0  0  0  0  0  0  0  0
    6.2519    0.4276    3.0145 C   0  0  1  0  0  0  0  0  0  0  0  0
    7.5546   -0.2759    2.8790 N   0  0  0  0  0  0  0  0  0  0  0  0
    6.1360    0.6476    4.5375 C   0  0  0  0  0  0  0  0  0  0  0  0
    8.4763    0.2879    3.8752 C   0  0  0  0  0  0  0  0  0  0  0  0
    8.1070   -0.2833    1.5128 C   0  0  0  0  0  0  0  0  0  0  0  0
    7.5630    0.6602    5.0175 C   0  0  0  0  0  0  0  0  0  0  0  0
    9.4407   -0.9770    1.4307 C   0  0  0  0  0  0  0  0  0  0  0  0
    7.8716    0.2089    6.4345 C   0  0  0  0  0  0  0  0  0  0  0  0
    8.0360    1.6513    6.0623 C   0  0  0  0  0  0  0  0  0  0  0  0
   10.5876   -0.3765    1.1606 N   0  0  0  0  0  0  0  0  0  0  0  0
    9.6608   -2.3004    1.7387 N   0  0  0  0  0  0  0  0  0  0  0  0
   11.5643   -1.2651    1.5275 C   0  0  0  0  0  0  0  0  0  0  0  0
   11.0059   -2.4533    1.9854 C   0  0  0  0  0  0  0  0  0  0  0  0
    8.6847   -3.3584    1.8058 C   0  0  0  0  0  0  0  0  0  0  0  0
   12.9566   -1.1037    1.5457 C   0  0  0  0  0  0  0  0  0  0  0  0
   11.7693   -3.4805    2.5514 C   0  0  0  0  0  0  0  0  0  0  0  0
   13.7394   -2.1084    2.1268 C   0  0  0  0  0  0  0  0  0  0  0  0
   13.1497   -3.2647    2.6427 C   0  0  0  0  0  0  0  0  0  0  0  0
    4.5361    0.3356   -0.7779 H   0  0  0  0  0  0  0  0  0  0  0  0
    2.7838    1.2114   -3.0067 H   0  0  0  0  0  0  0  0  0  0  0  0
    5.3814    4.6924   -0.1552 H   0  0  0  0  0  0  0  0  0  0  0  0
    3.9722   -1.5333   -2.2399 H   0  0  0  0  0  0  0  0  0  0  0  0
    2.3933   -1.1904   -2.9876 H   0  0  0  0  0  0  0  0  0  0  0  0
    4.5461    1.3352   -4.7149 H   0  0  0  0  0  0  0  0  0  0  0  0
    5.7389    0.5392   -3.6603 H   0  0  0  0  0  0  0  0  0  0  0  0
    6.4746    5.0491    2.0538 H   0  0  0  0  0  0  0  0  0  0  0  0
    4.8766   -1.5851   -4.5200 H   0  0  0  0  0  0  0  0  0  0  0  0
    3.4215   -0.7927   -5.1742 H   0  0  0  0  0  0  0  0  0  0  0  0
    6.9136    3.1129    3.5259 H   0  0  0  0  0  0  0  0  0  0  0  0
    5.4571   -0.2732    2.7263 H   0  0  0  0  0  0  0  0  0  0  0  0
    5.5967    1.5604    4.8116 H   0  0  0  0  0  0  0  0  0  0  0  0
    5.6131   -0.2014    4.9950 H   0  0  0  0  0  0  0  0  0  0  0  0
    9.2124   -0.4595    4.1909 H   0  0  0  0  0  0  0  0  0  0  0  0
    8.9952    1.1805    3.5085 H   0  0  0  0  0  0  0  0  0  0  0  0
    7.4061   -0.7737    0.8281 H   0  0  0  0  0  0  0  0  0  0  0  0
    8.2593    0.7401    1.1481 H   0  0  0  0  0  0  0  0  0  0  0  0
    7.0526   -0.0448    7.0991 H   0  0  0  0  0  0  0  0  0  0  0  0
    8.7691   -0.3741    6.6154 H   0  0  0  0  0  0  0  0  0  0  0  0
    9.0496    2.0341    5.9943 H   0  0  0  0  0  0  0  0  0  0  0  0
    7.3290    2.3605    6.4768 H   0  0  0  0  0  0  0  0  0  0  0  0
    9.0272   -4.1721    1.1574 H   0  0  0  0  0  0  0  0  0  0  0  0
    8.6060   -3.7047    2.8378 H   0  0  0  0  0  0  0  0  0  0  0  0
    7.7165   -3.0095    1.4430 H   0  0  0  0  0  0  0  0  0  0  0  0
   13.4033   -0.1961    1.1562 H   0  0  0  0  0  0  0  0  0  0  0  0
   11.3156   -4.3828    2.9458 H   0  0  0  0  0  0  0  0  0  0  0  0
   14.8160   -1.9734    2.1950 H   0  0  0  0  0  0  0  0  0  0  0  0
   13.7754   -4.0123    3.1261 H   0  0  0  0  0  0  0  0  0  0  0  0
  1  2  2  0  0  0  0
  2  3  1  0  0  0  0
  2  4  1  0  0  0  0
  3  5  1  0  0  0  0
  3 32  1  0  0  0  0
  4  6  2  0  0  0  0
  4  7  1  0  0  0  0
  5  8  1  0  0  0  0
  5  9  1  0  0  0  0
  5 33  1  0  0  0  0
  6 10  1  0  0  0  0
  7 11  2  0  0  0  0
  7 34  1  0  0  0  0
  8 12  1  0  0  0  0
  8 35  1  0  0  0  0
  8 36  1  0  0  0  0
  9 12  1  0  0  0  0
  9 37  1  0  0  0  0
  9 38  1  0  0  0  0
 10 13  2  0  0  0  0
 11 13  1  0  0  0  0
 11 39  1  0  0  0  0
 12 40  1  0  0  0  0
 12 41  1  0  0  0  0
 13 42  1  0  0  0  0
 14 15  1  0  0  0  0
 14 16  1  0  0  0  0
 14 43  1  6  0  0  0
 14 10  1  0  0  0  0
 15 17  1  0  0  0  0
 15 18  1  0  0  0  0
 16 19  1  0  0  0  0
 16 44  1  0  0  0  0
 16 45  1  0  0  0  0
 17 19  1  0  0  0  0
 17 46  1  0  0  0  0
 17 47  1  0  0  0  0
 18 20  1  0  0  0  0
 18 48  1  0  0  0  0
 18 49  1  0  0  0  0
 19 21  1  0  0  0  0
 19 22  1  0  0  0  0
 20 23  2  0  0  0  0
 20 24  1  0  0  0  0
 21 22  1  0  0  0  0
 21 50  1  0  0  0  0
 21 51  1  0  0  0  0
 22 52  1  0  0  0  0
 22 53  1  0  0  0  0
 23 25  1  0  0  0  0
 24 26  1  0  0  0  0
 24 27  1  0  0  0  0
 25 28  1  0  0  0  0
 25 26  2  0  0  0  0
 26 29  1  0  0  0  0
 27 54  1  0  0  0  0
 27 55  1  0  0  0  0
 27 56  1  0  0  0  0
 28 30  2  0  0  0  0
 28 57  1  0  0  0  0
 29 31  2  0  0  0  0
 29 58  1  0  0  0  0
 30 31  1  0  0  0  0
 30 59  1  0  0  0  0
 31 60  1  0  0  0  0
M  END
>  <Molecule Name>


>  <Ranking_Reconfirmation>


>  <ID>
EDS00760778-2

>  <Class>


>  <Increasing_signal>


>  <BB_ID>


>  <Purity (%)>


>  <Confirmation (/2)>


>  <Average_binding_ratio_as_single_compound_in_percentage>


>  <Tested_in_DRC>


>  <Ranking_DRC>


>  <Betamax>


>  <Kd>


>  <Comment_DRC>


>  <SMILES>


>  <MMFF94 Energy>
112.52

$$$$
EDS00760714-2
 OpenBabel08282614473D

 56 60  0  0  0  0  0  0  0  0999 V2000
    6.0579   -3.1914    4.3510 F   0  0  0  0  0  0  0  0  0  0  0  0
    4.9501   -3.0588    5.1292 C   0  0  0  0  0  0  0  0  0  0  0  0
    5.1549   -1.9181    6.1193 C   0  0  0  0  0  0  0  0  0  0  0  0
    5.4665   -0.6326    5.4963 N   0  0  0  0  0  0  0  0  0  0  0  0
    4.8426    0.5336    5.8930 C   0  0  0  0  0  0  0  0  0  0  0  0
    3.9229    0.5329    6.7105 O   0  0  0  0  0  0  0  0  0  0  0  0
    5.2808    1.8301    5.2522 C   0  0  0  0  0  0  0  0  0  0  0  0
    6.3773    1.8530    4.4280 N   0  0  0  0  0  0  0  0  0  0  0  0
    4.4627    2.9332    5.4712 C   0  0  0  0  0  0  0  0  0  0  0  0
    6.6417    3.0234    3.7591 C   0  0  0  0  0  0  0  0  0  0  0  0
    4.6957    4.0833    4.7397 C   0  0  0  0  0  0  0  0  0  0  0  0
    5.7577    4.1075    3.8450 C   0  0  0  0  0  0  0  0  0  0  0  0
    7.8003    3.1106    2.7331 C   0  0  1  0  0  0  0  0  0  0  0  0
    8.8461    4.1826    2.8251 N   0  0  0  0  0  0  0  0  0  0  0  0
    8.6522    1.8227    2.6483 C   0  0  0  0  0  0  0  0  0  0  0  0
    9.9857    3.6537    3.5809 C   0  0  0  0  0  0  0  0  0  0  0  0
    8.4625    5.5148    3.2965 C   0  0  0  0  0  0  0  0  0  0  0  0
    9.9644    2.1887    3.2841 C   0  0  0  0  0  0  0  0  0  0  0  0
    9.6298    6.4630    3.4753 C   0  0  0  0  0  0  0  0  0  0  0  0
   11.2253    1.4661    2.8549 C   0  0  0  0  0  0  0  0  0  0  0  0
   10.6815    1.2576    4.2368 C   0  0  0  0  0  0  0  0  0  0  0  0
   10.1181    6.8069    4.6529 N   0  0  0  0  0  0  0  0  0  0  0  0
   10.3858    7.0092    2.4617 N   0  0  0  0  0  0  0  0  0  0  0  0
   11.2563    7.5250    4.3998 C   0  0  0  0  0  0  0  0  0  0  0  0
   11.4574    7.6699    3.0322 C   0  0  0  0  0  0  0  0  0  0  0  0
   10.1794    6.8732    1.0427 C   0  0  0  0  0  0  0  0  0  0  0  0
   12.1854    8.0668    5.3029 C   0  0  0  0  0  0  0  0  0  0  0  0
   12.5664    8.3425    2.5025 C   0  0  0  0  0  0  0  0  0  0  0  0
   13.3084    8.7306    4.7936 C   0  0  0  0  0  0  0  0  0  0  0  0
   13.4928    8.8640    3.4171 C   0  0  0  0  0  0  0  0  0  0  0  0
    4.0887   -2.8924    4.4767 H   0  0  0  0  0  0  0  0  0  0  0  0
    4.8024   -4.0076    5.6627 H   0  0  0  0  0  0  0  0  0  0  0  0
    4.2567   -1.8307    6.7410 H   0  0  0  0  0  0  0  0  0  0  0  0
    5.9961   -2.1519    6.7799 H   0  0  0  0  0  0  0  0  0  0  0  0
    6.2857   -0.5487    4.8999 H   0  0  0  0  0  0  0  0  0  0  0  0
    3.6231    2.8813    6.1575 H   0  0  0  0  0  0  0  0  0  0  0  0
    4.0385    4.9422    4.8405 H   0  0  0  0  0  0  0  0  0  0  0  0
    5.8752    4.9797    3.2117 H   0  0  0  0  0  0  0  0  0  0  0  0
    7.2978    3.2303    1.7629 H   0  0  0  0  0  0  0  0  0  0  0  0
    8.2049    0.9497    3.1314 H   0  0  0  0  0  0  0  0  0  0  0  0
    8.8227    1.5682    1.5946 H   0  0  0  0  0  0  0  0  0  0  0  0
   10.9207    4.1039    3.2266 H   0  0  0  0  0  0  0  0  0  0  0  0
    9.8815    3.8225    4.6576 H   0  0  0  0  0  0  0  0  0  0  0  0
    7.7498    5.9776    2.6056 H   0  0  0  0  0  0  0  0  0  0  0  0
    7.9841    5.4509    4.2823 H   0  0  0  0  0  0  0  0  0  0  0  0
   11.1400    0.6368    2.1567 H   0  0  0  0  0  0  0  0  0  0  0  0
   12.1385    2.0365    2.7412 H   0  0  0  0  0  0  0  0  0  0  0  0
   11.2348    1.7001    5.0620 H   0  0  0  0  0  0  0  0  0  0  0  0
   10.2200    0.3101    4.4745 H   0  0  0  0  0  0  0  0  0  0  0  0
   10.2236    7.8668    0.5872 H   0  0  0  0  0  0  0  0  0  0  0  0
   10.9708    6.2363    0.6399 H   0  0  0  0  0  0  0  0  0  0  0  0
    9.2025    6.4320    0.8393 H   0  0  0  0  0  0  0  0  0  0  0  0
   12.0345    7.9478    6.3687 H   0  0  0  0  0  0  0  0  0  0  0  0
   12.7221    8.4444    1.4341 H   0  0  0  0  0  0  0  0  0  0  0  0
   14.0467    9.1375    5.4809 H   0  0  0  0  0  0  0  0  0  0  0  0
   14.3778    9.3775    3.0454 H   0  0  0  0  0  0  0  0  0  0  0  0
  1  2  1  0  0  0  0
  2  3  1  0  0  0  0
  2 31  1  0  0  0  0
  2 32  1  0  0  0  0
  3  4  1  0  0  0  0
  3 33  1  0  0  0  0
  3 34  1  0  0  0  0
  4  5  1  0  0  0  0
  4 35  1  0  0  0  0
  5  6  2  0  0  0  0
  5  7  1  0  0  0  0
  7  8  2  0  0  0  0
  7  9  1  0  0  0  0
  8 10  1  0  0  0  0
  9 11  2  0  0  0  0
  9 36  1  0  0  0  0
 10 12  2  0  0  0  0
 11 12  1  0  0  0  0
 11 37  1  0  0  0  0
 12 38  1  0  0  0  0
 13 14  1  0  0  0  0
 13 15  1  0  0  0  0
 13 39  1  6  0  0  0
 13 10  1  0  0  0  0
 14 16  1  0  0  0  0
 14 17  1  0  0  0  0
 15 18  1  0  0  0  0
 15 40  1  0  0  0  0
 15 41  1  0  0  0  0
 16 18  1  0  0  0  0
 16 42  1  0  0  0  0
 16 43  1  0  0  0  0
 17 19  1  0  0  0  0
 17 44  1  0  0  0  0
 17 45  1  0  0  0  0
 18 20  1  0  0  0  0
 18 21  1  0  0  0  0
 19 22  2  0  0  0  0
 19 23  1  0  0  0  0
 20 21  1  0  0  0  0
 20 46  1  0  0  0  0
 20 47  1  0  0  0  0
 21 48  1  0  0  0  0
 21 49  1  0  0  0  0
 22 24  1  0  0  0  0
 23 25  1  0  0  0  0
 23 26  1  0  0  0  0
 24 27  1  0  0  0  0
 24 25  2  0  0  0  0
 25 28  1  0  0  0  0
 26 50  1  0  0  0  0
 26 51  1  0  0  0  0
 26 52  1  0  0  0  0
 27 29  2  0  0  0  0
 27 53  1  0  0  0  0
 28 30  2  0  0  0  0
 28 54  1  0  0  0  0
 29 30  1  0  0  0  0
 29 55  1  0  0  0  0
 30 56  1  0  0  0  0
M  END
>  <Molecule Name>


>  <Ranking_Reconfirmation>


>  <ID>
EDS00760714-2

>  <Class>


>  <Increasing_signal>


>  <BB_ID>


>  <Purity (%)>


>  <Confirmation (/2)>


>  <Average_binding_ratio_as_single_compound_in_percentage>


>  <Tested_in_DRC>


>  <Ranking_DRC>


>  <Betamax>


>  <Kd>


>  <Comment_DRC>


>  <SMILES>


>  <MMFF94 Energy>
114.53

$$$$
