EDEL-CRBN-0002_ent
 OpenBabel09062620533D

 30 32  0  0  0  0  0  0  0  0999 V2000
   84.3289  154.5182   13.6925 C   0  0  0  0  0  0  0  0  0  0  0  0
   85.1029  153.5795   12.9821 C   0  0  0  0  0  0  0  0  0  0  0  0
   83.1761  154.0726   14.3619 C   0  0  0  0  0  0  0  0  0  0  0  0
   84.7272  152.2315   12.9552 C   0  0  0  0  0  0  0  0  0  0  0  0
   82.8088  152.7169   14.3588 C   0  0  0  0  0  0  0  0  0  0  0  0
   83.5949  151.8029   13.6476 C   0  0  0  0  0  0  0  0  0  0  0  0
   84.3109  156.3141   11.4464 O   0  0  0  0  0  0  0  0  0  0  0  0
   84.5881  156.6961   12.5811 C   0  0  0  0  0  0  0  0  0  0  0  0
   84.6814  155.9035   13.7257 N   0  0  0  0  0  0  0  0  0  0  0  0
   84.8919  158.0255   12.7715 N   0  0  0  0  0  0  0  0  0  0  0  0
   85.4096  156.4306   14.8686 C   0  0  0  0  0  0  0  0  0  0  0  0
   85.0272  158.6804   13.9648 C   0  0  0  0  0  0  0  0  0  0  0  0
   84.9285  157.8279   15.1953 C   0  0  0  0  0  0  0  0  0  0  0  0
   85.1586  159.9004   14.0179 O   0  0  0  0  0  0  0  0  0  0  0  0
   85.0266  158.5645   11.9588 H   0  0  0  0  0  0  0  0  0  0  0  0
   86.1293  154.0359   12.1892 O   0  0  0  0  0  0  0  0  0  0  0  0
   87.0857  153.0254   11.8730 C   0  0  0  0  0  0  0  0  0  0  0  0
   81.5788  152.2473   15.1068 C   0  0  0  0  0  0  0  0  0  0  0  0
   81.5347  150.7904   15.3014 N   0  0  0  0  0  0  0  0  0  0  0  0
   80.1931  150.3551   15.7853 C   0  0  2  0  0  0  0  0  0  0  0  0
   82.6662  150.2438   16.0505 C   0  0  0  0  0  0  0  0  0  0  0  0
   80.1511  149.1385   16.7546 C   0  0  0  0  0  0  0  0  0  0  0  0
   82.7702  150.6050   17.5333 C   0  0  0  0  0  0  0  0  0  0  0  0
   80.6758  149.3237   18.1221 N   0  0  0  0  0  0  0  0  0  0  0  0
   81.4738  150.5226   18.3349 C   0  0  0  0  0  0  0  0  0  0  0  0
   81.2573  148.5163   18.3467 H   0  0  0  0  0  0  0  0  0  0  0  0
   79.3277  150.0519   14.5575 C   0  0  0  0  0  0  0  0  0  0  0  0
   79.3791  149.0321   13.8837 O   0  0  0  0  0  0  0  0  0  0  0  0
   78.3987  150.9903   14.2796 O   0  0  0  0  0  0  0  0  0  0  0  0
   78.3553  151.7731   14.7928 H   0  0  0  0  0  0  0  0  0  0  0  0
  1  9  1  0  0  0  0
  1  2  2  0  0  0  0
  1  3  5  0  0  0  0
  2 16  1  0  0  0  0
  2  4  5  0  0  0  0
  3  5  2  0  0  0  0
  4  6  2  0  0  0  0
  5 18  1  0  0  0  0
  5  6  5  0  0  0  0
  7  8  2  0  0  0  0
  8  9  1  0  0  0  0
  8 10  1  0  0  0  0
  9 11  1  0  0  0  0
 10 12  1  0  0  0  0
 10 15  1  0  0  0  0
 11 13  1  0  0  0  0
 12 14  2  0  0  0  0
 12 13  1  0  0  0  0
 16 17  1  0  0  0  0
 18 19  1  0  0  0  0
 19 20  1  0  0  0  0
 19 21  1  0  0  0  0
 20 27  1  6  0  0  0
 20 22  1  0  0  0  0
 21 23  1  0  0  0  0
 22 24  1  0  0  0  0
 23 25  1  0  0  0  0
 24 25  1  0  0  0  0
 24 26  1  0  0  0  0
 27 28  2  0  0  0  0
 27 29  1  0  0  0  0
 29 30  1  0  0  0  0
M  END
>  <ID>
EDEL-CRBN-0002_ent

>  <Stereoisomer>
enantiomer

>  <MW>
376.17

>  <HBD>
3

>  <HBA>
6

>  <RotBonds>
5

>  <cLogP>
0.39

>  <minimizedAffinity>
-9.01392

>  <CNNscore>
0.9268664718

>  <CNNaffinity>
6.6645865440

>  <CNN_VS>
6.1771817207

>  <CNNaffinity_variance>
0.0717135146

$$$$
