EDEL-CRBN-0014_ent
 OpenBabel09062620533D

 37 41  0  0  0  0  0  0  0  0999 V2000
   83.9230  154.8624   14.0147 C   0  0  0  0  0  0  0  0  0  0  0  0
   84.7857  153.7642   13.8162 C   0  0  0  0  0  0  0  0  0  0  0  0
   82.5438  154.6178   14.2452 C   0  0  0  0  0  0  0  0  0  0  0  0
   84.2683  152.4881   13.9264 C   0  0  0  0  0  0  0  0  0  0  0  0
   82.0241  153.3191   14.3375 C   0  0  0  0  0  0  0  0  0  0  0  0
   82.8998  152.2671   14.1841 C   0  0  0  0  0  0  0  0  0  0  0  0
   84.9472  151.1418   13.8417 C   0  0  2  0  0  0  0  0  0  0  0  0
   82.6853  150.7726   14.2732 C   0  0  1  0  0  0  0  0  0  0  0  0
   83.8079  150.3087   13.4615 N   0  0  0  0  0  0  0  0  0  0  0  0
   85.3872  150.6705   15.2690 C   0  0  0  0  0  0  0  0  0  0  0  0
   82.9562  150.2665   15.7299 C   0  0  0  0  0  0  0  0  0  0  0  0
   83.9711  149.0345   12.9981 C   0  0  0  0  0  0  0  0  0  0  0  0
   84.2781  150.6937   16.2824 N   0  0  0  0  0  0  0  0  0  0  0  0
   85.0436  148.5866   12.6173 O   0  0  0  0  0  0  0  0  0  0  0  0
   84.3096  156.4312   11.6360 O   0  0  0  0  0  0  0  0  0  0  0  0
   84.5229  156.8873   12.7551 C   0  0  0  0  0  0  0  0  0  0  0  0
   84.4068  156.2093   13.9712 N   0  0  0  0  0  0  0  0  0  0  0  0
   84.9637  158.1883   12.8581 N   0  0  0  0  0  0  0  0  0  0  0  0
   85.0988  156.7614   15.1255 C   0  0  0  0  0  0  0  0  0  0  0  0
   85.0725  158.9408   13.9948 C   0  0  0  0  0  0  0  0  0  0  0  0
   84.7693  158.2306   15.2805 C   0  0  0  0  0  0  0  0  0  0  0  0
   85.3362  160.1393   13.9528 O   0  0  0  0  0  0  0  0  0  0  0  0
   85.2309  158.6262   12.0178 H   0  0  0  0  0  0  0  0  0  0  0  0
   86.1079  153.8932   13.4944 O   0  0  0  0  0  0  0  0  0  0  0  0
   86.3012  153.7278   12.0907 C   0  0  0  0  0  0  0  0  0  0  0  0
   82.8036  148.3433   13.0276 O   0  0  0  0  0  0  0  0  0  0  0  0
   82.7165  147.0562   13.6903 C   0  0  0  0  0  0  0  0  0  0  0  0
   82.8945  145.9024   12.6979 C   0  0  0  0  0  0  0  0  0  0  0  0
   81.2863  147.0056   14.2499 C   0  0  0  0  0  0  0  0  0  0  0  0
   83.7020  146.9666   14.8608 C   0  0  0  0  0  0  0  0  0  0  0  0
   84.6141  149.9613   17.5080 C   0  0  0  0  0  0  0  0  0  0  0  0
   83.4385  149.7449   18.4376 C   0  0  0  0  0  0  0  0  0  0  0  0
   83.6356  149.3388   19.7666 C   0  0  0  0  0  0  0  0  0  0  0  0
   82.1301  149.9873   17.9941 C   0  0  0  0  0  0  0  0  0  0  0  0
   82.5497  149.1576   20.6240 C   0  0  0  0  0  0  0  0  0  0  0  0
   81.0447  149.8102   18.8548 C   0  0  0  0  0  0  0  0  0  0  0  0
   81.2547  149.3939   20.1681 C   0  0  0  0  0  0  0  0  0  0  0  0
  1 17  1  0  0  0  0
  1  2  2  0  0  0  0
  1  3  5  0  0  0  0
  2 24  1  0  0  0  0
  2  4  5  0  0  0  0
  3  5  2  0  0  0  0
  4  6  2  0  0  0  0
  4  7  1  0  0  0  0
  5  6  5  0  0  0  0
  6  8  1  0  0  0  0
  7  9  1  0  0  0  0
  7 10  1  1  0  0  0
  8 11  1  1  0  0  0
  8  9  1  0  0  0  0
  9 12  1  0  0  0  0
 10 13  1  0  0  0  0
 11 13  1  0  0  0  0
 12 14  2  0  0  0  0
 12 26  1  0  0  0  0
 13 31  1  0  0  0  0
 15 16  2  0  0  0  0
 16 17  1  0  0  0  0
 16 18  1  0  0  0  0
 17 19  1  0  0  0  0
 18 20  1  0  0  0  0
 18 23  1  0  0  0  0
 19 21  1  0  0  0  0
 20 22  2  0  0  0  0
 20 21  1  0  0  0  0
 24 25  1  0  0  0  0
 26 27  1  0  0  0  0
 27 28  1  0  0  0  0
 27 29  1  0  0  0  0
 27 30  1  0  0  0  0
 31 32  1  0  0  0  0
 32 33  2  0  0  0  0
 32 34  5  0  0  0  0
 33 35  5  0  0  0  0
 34 36  2  0  0  0  0
 35 37  2  0  0  0  0
 36 37  5  0  0  0  0
M  END
>  <ID>
EDEL-CRBN-0014_ent

>  <Stereoisomer>
enantiomer

>  <MW>
492.24

>  <HBD>
1

>  <HBA>
6

>  <RotBonds>
4

>  <cLogP>
3.99

>  <minimizedAffinity>
-8.73680

>  <CNNscore>
0.8841939569

>  <CNNaffinity>
6.9701366425

>  <CNN_VS>
6.1629528999

>  <CNNaffinity_variance>
0.1928734779

$$$$
