EDEL-CRBN-0010
 OpenBabel09062620533D

 36 40  0  0  0  0  0  0  0  0999 V2000
   81.1299  149.9059   12.5817 O   0  0  0  0  0  0  0  0  0  0  0  0
   80.2954  149.0941   12.9845 C   0  0  0  0  0  0  0  0  0  0  0  0
   80.5966  148.3512   14.0806 N   0  0  0  0  0  0  0  0  0  0  0  0
   78.9971  148.8710   12.2407 C   0  0  2  0  0  0  0  0  0  0  0  0
   79.6912  147.5034   14.8097 C   0  0  0  0  0  0  0  0  0  0  0  0
   77.6661  148.7950   13.0142 C   0  0  2  0  0  0  0  0  0  0  0  0
   79.0466  147.5989   11.3964 C   0  0  0  0  0  0  0  0  0  0  0  0
   78.5579  148.3083   15.3829 C   0  0  0  0  0  0  0  0  0  0  0  0
   77.6248  148.9269   14.5251 C   0  0  0  0  0  0  0  0  0  0  0  0
   77.0213  147.4810   12.5355 C   0  0  0  0  0  0  0  0  0  0  0  0
   77.6301  147.2525   11.2231 N   0  0  0  0  0  0  0  0  0  0  0  0
   78.4185  148.4664   16.7779 C   0  0  0  0  0  0  0  0  0  0  0  0
   76.5570  149.6504   15.0913 C   0  0  0  0  0  0  0  0  0  0  0  0
   77.3377  149.1756   17.3398 C   0  0  0  0  0  0  0  0  0  0  0  0
   76.4152  149.7832   16.4774 C   0  0  0  0  0  0  0  0  0  0  0  0
   81.5240  148.3971   14.4079 H   0  0  0  0  0  0  0  0  0  0  0  0
   77.1846  149.2316   18.7577 N   0  0  0  0  0  0  0  0  0  0  0  0
   77.2419  150.4382   19.4451 C   0  0  0  0  0  0  0  0  0  0  0  0
   76.5556  148.0877   19.4033 C   0  0  0  0  0  0  0  0  0  0  0  0
   77.6855  151.4960   19.0040 O   0  0  0  0  0  0  0  0  0  0  0  0
   76.8506  150.3699   20.7616 N   0  0  0  0  0  0  0  0  0  0  0  0
   77.0797  147.9398   20.8139 C   0  0  0  0  0  0  0  0  0  0  0  0
   76.9166  149.2464   21.5402 C   0  0  0  0  0  0  0  0  0  0  0  0
   76.9278  149.3188   22.7666 O   0  0  0  0  0  0  0  0  0  0  0  0
   76.4965  151.1904   21.1748 H   0  0  0  0  0  0  0  0  0  0  0  0
   79.3635  147.8892   17.6002 O   0  0  0  0  0  0  0  0  0  0  0  0
   80.3995  148.8337   17.8919 C   0  0  0  0  0  0  0  0  0  0  0  0
   75.2896  150.3678   17.0056 O   0  0  0  0  0  0  0  0  0  0  0  0
   74.1702  149.4809   17.0254 C   0  0  0  0  0  0  0  0  0  0  0  0
   77.4221  145.8807   10.7489 C   0  0  0  0  0  0  0  0  0  0  0  0
   78.1939  145.5674    9.4856 C   0  0  0  0  0  0  0  0  0  0  0  0
   79.1948  144.5841    9.4896 C   0  0  0  0  0  0  0  0  0  0  0  0
   77.9295  146.2589    8.2948 C   0  0  0  0  0  0  0  0  0  0  0  0
   79.9131  144.2970    8.3282 C   0  0  0  0  0  0  0  0  0  0  0  0
   78.6497  145.9707    7.1338 C   0  0  0  0  0  0  0  0  0  0  0  0
   79.6406  144.9908    7.1510 C   0  0  0  0  0  0  0  0  0  0  0  0
  1  2  2  0  0  0  0
  2  3  1  0  0  0  0
  3  5  1  0  0  0  0
  3 16  1  0  0  0  0
  4  2  1  0  0  0  0
  4  6  1  0  0  0  0
  4  7  1  1  0  0  0
  6  9  1  0  0  0  0
  6 10  1  1  0  0  0
  7 11  1  0  0  0  0
  8  5  1  0  0  0  0
  8 12  2  0  0  0  0
  8  9  5  0  0  0  0
  9 13  2  0  0  0  0
 10 11  1  0  0  0  0
 11 30  1  0  0  0  0
 12 26  1  0  0  0  0
 12 14  5  0  0  0  0
 13 15  5  0  0  0  0
 14 17  1  0  0  0  0
 14 15  2  0  0  0  0
 15 28  1  0  0  0  0
 17 18  1  0  0  0  0
 17 19  1  0  0  0  0
 18 20  2  0  0  0  0
 18 21  1  0  0  0  0
 19 22  1  0  0  0  0
 21 23  1  0  0  0  0
 21 25  1  0  0  0  0
 22 23  1  0  0  0  0
 23 24  2  0  0  0  0
 26 27  1  0  0  0  0
 28 29  1  0  0  0  0
 30 31  1  0  0  0  0
 31 32  2  0  0  0  0
 31 33  5  0  0  0  0
 32 34  5  0  0  0  0
 33 35  2  0  0  0  0
 34 36  2  0  0  0  0
 35 36  5  0  0  0  0
M  END
>  <ID>
EDEL-CRBN-0010

>  <Stereoisomer>
original

>  <MW>
464.21

>  <HBD>
2

>  <HBA>
6

>  <RotBonds>
5

>  <cLogP>
2.0

>  <minimizedAffinity>
-5.73912

>  <CNNscore>
0.2811208665

>  <CNNaffinity>
4.6641116142

>  <CNN_VS>
1.3111790419

>  <CNNaffinity_variance>
0.5645320415

$$$$
