EDEL-CRBN-0015_ent
 OpenBabel09062620533D

 37 41  0  0  0  0  0  0  0  0999 V2000
   84.5731  151.2082   13.0735 C   0  0  0  0  0  0  0  0  0  0  0  0
   85.6656  151.9193   12.5306 C   0  0  0  0  0  0  0  0  0  0  0  0
   83.5998  151.9761   13.7397 C   0  0  0  0  0  0  0  0  0  0  0  0
   85.7941  153.3124   12.6403 C   0  0  0  0  0  0  0  0  0  0  0  0
   83.7105  153.3659   13.8781 C   0  0  0  0  0  0  0  0  0  0  0  0
   84.8040  154.0485   13.3214 C   0  0  0  0  0  0  0  0  0  0  0  0
   87.6320  147.5929   14.9348 N   0  0  0  0  0  0  0  0  0  0  0  0
   87.1495  147.5037   13.5474 C   0  0  0  0  0  0  0  0  0  0  0  0
   86.6680  148.2367   15.8438 C   0  0  0  0  0  0  0  0  0  0  0  0
   85.6289  147.3743   13.4867 C   0  0  0  0  0  0  0  0  0  0  0  0
   85.8242  149.3032   15.1508 C   0  0  0  0  0  0  0  0  0  0  0  0
   84.9954  148.6672   14.0282 C   0  0  2  0  0  0  0  0  0  0  0  0
   83.6407  148.3837   14.5022 O   0  0  0  0  0  0  0  0  0  0  0  0
   84.4109  149.6235   12.9325 C   0  0  1  0  0  0  0  0  0  0  0  0
   83.0687  148.9729   13.3119 C   0  0  0  0  0  0  0  0  0  0  0  0
   88.9704  148.1941   15.0360 C   0  0  0  0  0  0  0  0  0  0  0  0
   90.4156  151.7002   18.6445 Cl  0  0  0  0  0  0  0  0  0  0  0  0
   90.0538  150.0861   18.1644 C   0  0  0  0  0  0  0  0  0  0  0  0
   89.6811  149.8005   16.8509 C   0  0  0  0  0  0  0  0  0  0  0  0
   90.1427  149.0592   19.1042 C   0  0  0  0  0  0  0  0  0  0  0  0
   89.6147  150.7896   15.9451 F   0  0  0  0  0  0  0  0  0  0  0  0
   89.3912  148.4882   16.4566 C   0  0  0  0  0  0  0  0  0  0  0  0
   89.8598  147.7461   18.7255 C   0  0  0  0  0  0  0  0  0  0  0  0
   89.4862  147.4614   17.4098 C   0  0  0  0  0  0  0  0  0  0  0  0
   84.9259  155.4660   13.4348 N   0  0  0  0  0  0  0  0  0  0  0  0
   84.8132  156.2989   12.3284 C   0  0  0  0  0  0  0  0  0  0  0  0
   85.5025  156.0013   14.6589 C   0  0  0  0  0  0  0  0  0  0  0  0
   84.4121  155.9731   11.2131 O   0  0  0  0  0  0  0  0  0  0  0  0
   85.1040  157.6209   12.5749 N   0  0  0  0  0  0  0  0  0  0  0  0
   84.8629  157.3312   14.9881 C   0  0  0  0  0  0  0  0  0  0  0  0
   84.9701  158.2354   13.7907 C   0  0  0  0  0  0  0  0  0  0  0  0
   84.8640  159.4564   13.8806 O   0  0  0  0  0  0  0  0  0  0  0  0
   85.4322  158.1642   11.8223 H   0  0  0  0  0  0  0  0  0  0  0  0
   86.8565  154.0270   12.1396 O   0  0  0  0  0  0  0  0  0  0  0  0
   87.7439  153.3585   11.2524 C   0  0  0  0  0  0  0  0  0  0  0  0
   82.6758  154.0907   14.4205 O   0  0  0  0  0  0  0  0  0  0  0  0
   81.6820  153.2616   15.0239 C   0  0  0  0  0  0  0  0  0  0  0  0
  1  2  2  0  0  0  0
  1  3  5  0  0  0  0
  2  4  5  0  0  0  0
  3  5  2  0  0  0  0
  4 34  1  0  0  0  0
  4  6  2  0  0  0  0
  5 36  1  0  0  0  0
  5  6  5  0  0  0  0
  6 25  1  0  0  0  0
  7  8  1  0  0  0  0
  7  9  1  0  0  0  0
  8 10  1  0  0  0  0
  9 11  1  0  0  0  0
 12 11  1  1  0  0  0
 12 10  1  0  0  0  0
 12 13  1  0  0  0  0
 12 14  1  0  0  0  0
 13 15  1  0  0  0  0
 14  1  1  1  0  0  0
 14 15  1  0  0  0  0
 16  7  1  0  0  0  0
 18 17  1  0  0  0  0
 18 19  2  0  0  0  0
 18 20  5  0  0  0  0
 19 21  1  0  0  0  0
 19 22  5  0  0  0  0
 20 23  2  0  0  0  0
 22 24  2  0  0  0  0
 22 16  1  0  0  0  0
 23 24  5  0  0  0  0
 25 26  1  0  0  0  0
 25 27  1  0  0  0  0
 26 28  2  0  0  0  0
 26 29  1  0  0  0  0
 27 30  1  0  0  0  0
 29 31  1  0  0  0  0
 29 33  1  0  0  0  0
 30 31  1  0  0  0  0
 31 32  2  0  0  0  0
 34 35  1  0  0  0  0
 36 37  1  0  0  0  0
M  END
>  <ID>
EDEL-CRBN-0015_ent

>  <Stereoisomer>
enantiomer

>  <MW>
517.18

>  <HBD>
1

>  <HBA>
6

>  <RotBonds>
6

>  <cLogP>
4.09

>  <minimizedAffinity>
-7.68612

>  <CNNscore>
0.7952077389

>  <CNNaffinity>
6.7457432747

>  <CNN_VS>
5.3642673492

>  <CNNaffinity_variance>
0.3262837231

$$$$
