EDEL-CRBN-0003_ent
 OpenBabel09062620533D

 30 32  0  0  0  0  0  0  0  0999 V2000
   84.0649  154.8073   13.8093 C   0  0  0  0  0  0  0  0  0  0  0  0
   84.8592  153.7290   13.3620 C   0  0  0  0  0  0  0  0  0  0  0  0
   82.7631  154.5359   14.2578 C   0  0  0  0  0  0  0  0  0  0  0  0
   84.3344  152.4217   13.2838 C   0  0  0  0  0  0  0  0  0  0  0  0
   82.2471  153.2404   14.2225 C   0  0  0  0  0  0  0  0  0  0  0  0
   83.0228  152.1942   13.7298 C   0  0  0  0  0  0  0  0  0  0  0  0
   83.9593  156.7162   11.6164 O   0  0  0  0  0  0  0  0  0  0  0  0
   84.5146  156.9610   12.6822 C   0  0  0  0  0  0  0  0  0  0  0  0
   84.5232  156.1605   13.8251 N   0  0  0  0  0  0  0  0  0  0  0  0
   85.1212  158.1865   12.8399 N   0  0  0  0  0  0  0  0  0  0  0  0
   85.2131  156.6526   15.0109 C   0  0  0  0  0  0  0  0  0  0  0  0
   85.1248  158.8918   14.0118 C   0  0  0  0  0  0  0  0  0  0  0  0
   84.8550  158.1006   15.2610 C   0  0  0  0  0  0  0  0  0  0  0  0
   85.2591  160.1126   14.0274 O   0  0  0  0  0  0  0  0  0  0  0  0
   85.5801  158.5791   12.0623 H   0  0  0  0  0  0  0  0  0  0  0  0
   86.1829  153.9117   13.0343 O   0  0  0  0  0  0  0  0  0  0  0  0
   86.3038  154.5976   11.7898 C   0  0  0  0  0  0  0  0  0  0  0  0
   85.1440  151.2609   12.7326 C   0  0  0  0  0  0  0  0  0  0  0  0
   86.5901  151.4171   12.9443 N   0  0  0  0  0  0  0  0  0  0  0  0
   87.1688  150.4351   13.8948 C   0  0  2  0  0  0  0  0  0  0  0  0
   87.3740  151.4716   11.7061 C   0  0  0  0  0  0  0  0  0  0  0  0
   86.7884  148.9452   13.7141 C   0  0  0  0  0  0  0  0  0  0  0  0
   87.3702  150.2365   10.7978 C   0  0  0  0  0  0  0  0  0  0  0  0
   86.7454  148.4017   12.3437 N   0  0  0  0  0  0  0  0  0  0  0  0
   87.7843  148.9225   11.4613 C   0  0  0  0  0  0  0  0  0  0  0  0
   85.8375  148.6286   11.9379 H   0  0  0  0  0  0  0  0  0  0  0  0
   86.9377  150.8798   15.3415 C   0  0  0  0  0  0  0  0  0  0  0  0
   87.6411  150.5836   16.2982 O   0  0  0  0  0  0  0  0  0  0  0  0
   85.8541  151.6582   15.5395 O   0  0  0  0  0  0  0  0  0  0  0  0
   85.3070  151.8925   14.8158 H   0  0  0  0  0  0  0  0  0  0  0  0
  1  9  1  0  0  0  0
  1  2  2  0  0  0  0
  1  3  5  0  0  0  0
  2 16  1  0  0  0  0
  2  4  5  0  0  0  0
  3  5  2  0  0  0  0
  4  6  2  0  0  0  0
  4 18  1  0  0  0  0
  5  6  5  0  0  0  0
  7  8  2  0  0  0  0
  8  9  1  0  0  0  0
  8 10  1  0  0  0  0
  9 11  1  0  0  0  0
 10 12  1  0  0  0  0
 10 15  1  0  0  0  0
 11 13  1  0  0  0  0
 12 14  2  0  0  0  0
 12 13  1  0  0  0  0
 16 17  1  0  0  0  0
 18 19  1  0  0  0  0
 19 20  1  0  0  0  0
 19 21  1  0  0  0  0
 20 27  1  1  0  0  0
 20 22  1  0  0  0  0
 21 23  1  0  0  0  0
 22 24  1  0  0  0  0
 23 25  1  0  0  0  0
 24 25  1  0  0  0  0
 24 26  1  0  0  0  0
 27 28  2  0  0  0  0
 27 29  1  0  0  0  0
 29 30  1  0  0  0  0
M  END
>  <ID>
EDEL-CRBN-0003_ent

>  <Stereoisomer>
enantiomer

>  <MW>
376.17

>  <HBD>
3

>  <HBA>
6

>  <RotBonds>
5

>  <cLogP>
0.39

>  <minimizedAffinity>
-8.31194

>  <CNNscore>
0.8921540976

>  <CNNaffinity>
6.0142498016

>  <CNN_VS>
5.3656377792

>  <CNNaffinity_variance>
0.4152761698

$$$$
