EDEL-CRBN-0006
 OpenBabel09062620533D

 34 38  0  0  0  0  0  0  0  0999 V2000
   86.9118  150.1164    8.8615 O   0  0  0  0  0  0  0  0  0  0  0  0
   87.2373  150.3893   10.0183 C   0  0  0  0  0  0  0  0  0  0  0  0
   87.8739  151.5652   10.2556 N   0  0  0  0  0  0  0  0  0  0  0  0
   86.9910  149.4084   11.1442 C   0  0  2  0  0  0  0  0  0  0  0  0
   88.1442  152.1389   11.5469 C   0  0  0  0  0  0  0  0  0  0  0  0
   86.3625  149.8919   12.4623 C   0  0  2  0  0  0  0  0  0  0  0  0
   88.2692  148.6778   11.5496 C   0  0  0  0  0  0  0  0  0  0  0  0
   86.8581  152.4055   12.2788 C   0  0  0  0  0  0  0  0  0  0  0  0
   86.0165  151.3513   12.6716 C   0  0  0  0  0  0  0  0  0  0  0  0
   87.3181  149.3683   13.5514 C   0  0  0  0  0  0  0  0  0  0  0  0
   88.0816  148.2605   12.9527 N   0  0  0  0  0  0  0  0  0  0  0  0
   86.4907  153.7387   12.5587 C   0  0  0  0  0  0  0  0  0  0  0  0
   84.8180  151.6691   13.3281 C   0  0  0  0  0  0  0  0  0  0  0  0
   85.2971  154.0654   13.2206 C   0  0  0  0  0  0  0  0  0  0  0  0
   84.4510  153.0000   13.5688 C   0  0  0  0  0  0  0  0  0  0  0  0
   88.1795  152.0731    9.4695 H   0  0  0  0  0  0  0  0  0  0  0  0
   85.0067  155.4376   13.5338 N   0  0  0  0  0  0  0  0  0  0  0  0
   84.7257  156.3733   12.5371 C   0  0  0  0  0  0  0  0  0  0  0  0
   84.8190  155.8368   14.9248 C   0  0  0  0  0  0  0  0  0  0  0  0
   84.6922  156.1606   11.3273 O   0  0  0  0  0  0  0  0  0  0  0  0
   84.4591  157.6450   12.9849 N   0  0  0  0  0  0  0  0  0  0  0  0
   85.4138  157.2073   15.1742 C   0  0  0  0  0  0  0  0  0  0  0  0
   84.8535  158.1779   14.1801 C   0  0  0  0  0  0  0  0  0  0  0  0
   84.8250  159.3883   14.3839 O   0  0  0  0  0  0  0  0  0  0  0  0
   83.9346  158.2269   12.3887 H   0  0  0  0  0  0  0  0  0  0  0  0
   83.2195  153.2055   14.1437 O   0  0  0  0  0  0  0  0  0  0  0  0
   82.6750  154.4473   13.6870 C   0  0  0  0  0  0  0  0  0  0  0  0
   87.3557  146.9823   13.0718 C   0  0  0  0  0  0  0  0  0  0  0  0
   86.2928  147.0017   14.1503 C   0  0  0  0  0  0  0  0  0  0  0  0
   84.9355  146.8816   13.8153 C   0  0  0  0  0  0  0  0  0  0  0  0
   86.6479  147.1197   15.5019 C   0  0  0  0  0  0  0  0  0  0  0  0
   83.9553  146.8858   14.8087 C   0  0  0  0  0  0  0  0  0  0  0  0
   85.6658  147.1238   16.4945 C   0  0  0  0  0  0  0  0  0  0  0  0
   84.3209  147.0067   16.1479 C   0  0  0  0  0  0  0  0  0  0  0  0
  1  2  2  0  0  0  0
  2  3  1  0  0  0  0
  3  5  1  0  0  0  0
  3 16  1  0  0  0  0
  4  2  1  0  0  0  0
  4  6  1  0  0  0  0
  4  7  1  1  0  0  0
  6  9  1  0  0  0  0
  6 10  1  1  0  0  0
  7 11  1  0  0  0  0
  8  5  1  0  0  0  0
  8 12  2  0  0  0  0
  8  9  5  0  0  0  0
  9 13  2  0  0  0  0
 10 11  1  0  0  0  0
 11 28  1  0  0  0  0
 13 15  5  0  0  0  0
 14 12  5  0  0  0  0
 14 17  1  0  0  0  0
 14 15  2  0  0  0  0
 15 26  1  0  0  0  0
 17 18  1  0  0  0  0
 17 19  1  0  0  0  0
 18 20  2  0  0  0  0
 18 21  1  0  0  0  0
 19 22  1  0  0  0  0
 21 23  1  0  0  0  0
 21 25  1  0  0  0  0
 22 23  1  0  0  0  0
 23 24  2  0  0  0  0
 26 27  1  0  0  0  0
 28 29  1  0  0  0  0
 29 30  2  0  0  0  0
 29 31  5  0  0  0  0
 30 32  5  0  0  0  0
 31 33  2  0  0  0  0
 32 34  2  0  0  0  0
 33 34  5  0  0  0  0
M  END
>  <ID>
EDEL-CRBN-0006

>  <Stereoisomer>
original

>  <MW>
434.2

>  <HBD>
2

>  <HBA>
5

>  <RotBonds>
4

>  <cLogP>
1.99

>  <minimizedAffinity>
-6.52341

>  <CNNscore>
0.5001559258

>  <CNNaffinity>
6.1107387543

>  <CNN_VS>
3.0563220978

>  <CNNaffinity_variance>
0.1932324618

$$$$
