EDEL-CRBN-0013_ent
 OpenBabel09062620533D

 37 41  0  0  0  0  0  0  0  0999 V2000
   84.1042  154.3495   13.7313 C   0  0  0  0  0  0  0  0  0  0  0  0
   84.8657  153.3597   13.0428 C   0  0  0  0  0  0  0  0  0  0  0  0
   82.9310  153.9782   14.4128 C   0  0  0  0  0  0  0  0  0  0  0  0
   84.4778  152.0121   13.0436 C   0  0  0  0  0  0  0  0  0  0  0  0
   82.5739  152.6436   14.4211 C   0  0  0  0  0  0  0  0  0  0  0  0
   83.3407  151.6729   13.7461 C   0  0  0  0  0  0  0  0  0  0  0  0
   81.4394  151.9268   15.1166 C   0  0  1  0  0  0  0  0  0  0  0  0
   82.7020  150.3272   13.9947 C   0  0  2  0  0  0  0  0  0  0  0  0
   81.3352  150.7440   14.2715 N   0  0  0  0  0  0  0  0  0  0  0  0
   81.8901  151.4270   16.5301 C   0  0  0  0  0  0  0  0  0  0  0  0
   83.2606  149.7041   15.3175 C   0  0  0  0  0  0  0  0  0  0  0  0
   80.3016  149.8504   14.2883 C   0  0  0  0  0  0  0  0  0  0  0  0
   83.0805  150.5096   16.5790 N   0  0  0  0  0  0  0  0  0  0  0  0
   80.3804  148.7223   13.8219 O   0  0  0  0  0  0  0  0  0  0  0  0
   84.1159  156.0975   11.4618 O   0  0  0  0  0  0  0  0  0  0  0  0
   84.4390  156.4916   12.5805 C   0  0  0  0  0  0  0  0  0  0  0  0
   84.5189  155.7174   13.7387 N   0  0  0  0  0  0  0  0  0  0  0  0
   84.8138  157.8070   12.7366 N   0  0  0  0  0  0  0  0  0  0  0  0
   85.3098  156.2220   14.8493 C   0  0  0  0  0  0  0  0  0  0  0  0
   85.0241  158.4734   13.9127 C   0  0  0  0  0  0  0  0  0  0  0  0
   84.9165  157.6497   15.1623 C   0  0  0  0  0  0  0  0  0  0  0  0
   85.2268  159.6844   13.9379 O   0  0  0  0  0  0  0  0  0  0  0  0
   84.9451  158.3256   11.9102 H   0  0  0  0  0  0  0  0  0  0  0  0
   85.9109  153.7849   12.2532 O   0  0  0  0  0  0  0  0  0  0  0  0
   86.9775  152.8417   12.1649 C   0  0  0  0  0  0  0  0  0  0  0  0
   79.2015  150.3759   14.8834 O   0  0  0  0  0  0  0  0  0  0  0  0
   78.0324  149.5572   15.1414 C   0  0  0  0  0  0  0  0  0  0  0  0
   77.5097  149.1793   13.7469 C   0  0  0  0  0  0  0  0  0  0  0  0
   76.9454  150.3545   15.8707 C   0  0  0  0  0  0  0  0  0  0  0  0
   78.4034  148.2722   15.8894 C   0  0  0  0  0  0  0  0  0  0  0  0
   84.2991  151.2408   16.9723 C   0  0  0  0  0  0  0  0  0  0  0  0
   85.5900  150.5304   16.6167 C   0  0  0  0  0  0  0  0  0  0  0  0
   86.5683  151.1868   15.8543 C   0  0  0  0  0  0  0  0  0  0  0  0
   85.8484  149.2296   17.0737 C   0  0  0  0  0  0  0  0  0  0  0  0
   87.7692  150.5477   15.5411 C   0  0  0  0  0  0  0  0  0  0  0  0
   87.0489  148.5918   16.7583 C   0  0  0  0  0  0  0  0  0  0  0  0
   88.0081  149.2504   15.9913 C   0  0  0  0  0  0  0  0  0  0  0  0
  1 17  1  0  0  0  0
  1  2  2  0  0  0  0
  1  3  5  0  0  0  0
  2 24  1  0  0  0  0
  2  4  5  0  0  0  0
  5  3  2  0  0  0  0
  5  7  1  0  0  0  0
  5  6  5  0  0  0  0
  6  4  2  0  0  0  0
  6  8  1  0  0  0  0
  7  9  1  0  0  0  0
  7 10  1  1  0  0  0
  8 11  1  1  0  0  0
  8  9  1  0  0  0  0
  9 12  1  0  0  0  0
 10 13  1  0  0  0  0
 11 13  1  0  0  0  0
 12 14  2  0  0  0  0
 12 26  1  0  0  0  0
 13 31  1  0  0  0  0
 15 16  2  0  0  0  0
 16 17  1  0  0  0  0
 16 18  1  0  0  0  0
 17 19  1  0  0  0  0
 18 20  1  0  0  0  0
 18 23  1  0  0  0  0
 19 21  1  0  0  0  0
 20 22  2  0  0  0  0
 20 21  1  0  0  0  0
 24 25  1  0  0  0  0
 26 27  1  0  0  0  0
 27 28  1  0  0  0  0
 27 29  1  0  0  0  0
 27 30  1  0  0  0  0
 31 32  1  0  0  0  0
 32 33  2  0  0  0  0
 32 34  5  0  0  0  0
 33 35  5  0  0  0  0
 34 36  2  0  0  0  0
 35 37  2  0  0  0  0
 36 37  5  0  0  0  0
M  END
>  <ID>
EDEL-CRBN-0013_ent

>  <Stereoisomer>
enantiomer

>  <MW>
492.24

>  <HBD>
1

>  <HBA>
6

>  <RotBonds>
4

>  <cLogP>
3.99

>  <minimizedAffinity>
-9.71276

>  <CNNscore>
0.8723109961

>  <CNNaffinity>
7.0751376152

>  <CNN_VS>
6.1717205048

>  <CNNaffinity_variance>
0.1427398324

$$$$
