@<TRIPOS>MOLECULE
LIG
   61    65     1     0     0
SMALL
bcc


@<TRIPOS>ATOM
      1 C1          87.5480   152.5570    11.9120 ca         1 LIG       0.527600
      2 N1          86.8780   153.6910    12.2680 nb         1 LIG      -0.752000
      3 C2          87.0780   151.3400    12.4150 ca         1 LIG      -0.345400
      4 C3          85.8080   153.6490    13.0880 ca         1 LIG       0.863900
      5 C4          85.9760   151.4090    13.2480 ca         1 LIG       0.470800
      6 C5          87.4300   149.9660    12.3030 cc         1 LIG      -0.153200
      7 N2          85.3170   152.5170    13.6150 nb         1 LIG      -0.742000
      8 N3          85.6650   150.1320    13.6410 na         1 LIG      -0.175100
      9 C6          86.5410   149.2430    13.0720 cd         1 LIG      -0.115100
     10 C7          84.5740   149.7920    14.5220 c3         1 LIG       0.032600
     11 N4          85.2030   154.8510    13.4370 nh         1 LIG      -0.720300
     12 C8          84.0140   155.2460    12.6800 c3         1 LIG       0.138800
     13 C9          85.3040   155.2500    14.8340 c3         1 LIG       0.187800
     14 C10         84.1680   156.6300    12.0390 c          1 LIG       0.683500
     15 C11         84.8600   156.6960    15.0520 c3         1 LIG      -0.128400
     16 O1          83.7600   156.8660    10.8980 o          1 LIG      -0.650500
     17 N5          84.6550   157.6820    12.7700 ns         1 LIG      -0.575900
     18 C12         85.4340   157.6250    13.9920 c3         1 LIG       0.105000
     19 H1          84.7510   158.5140    12.2020 hn         1 LIG       0.318500
     20 C13         91.4130   150.2660     8.5990 c          1 LIG       0.702700
     21 O2          92.6000   150.5910     8.6280 o          1 LIG      -0.598100
     22 N6          90.4820   150.8460     9.4660 n          1 LIG      -0.458800
     23 C14         89.0250   150.7960     9.2920 c6         1 LIG       0.096500
     24 C15         91.0000   151.7260    10.5070 c6         1 LIG       0.096500
     25 C16         88.3970   152.1630     9.5510 c6         1 LIG      -0.092900
     26 C17         89.9600   152.0300    11.5750 c6         1 LIG      -0.092900
     27 C18         88.7170   152.6940    10.9620 c6         1 LIG      -0.120000
     28 S1          90.2360   147.0000     6.6520 ss         1 LIG       0.069200
     29 C19         90.1330   148.3660     5.6290 cc         1 LIG      -0.272100
     30 C20         90.7910   147.9550     7.9520 cc         1 LIG      -0.119100
     31 C21         90.5280   149.5280     6.2620 cd         1 LIG       0.120100
     32 C22         90.9490   149.2890     7.6150 cd         1 LIG      -0.169600
     33 O3          90.5080   150.7770     5.7250 os         1 LIG      -0.303900
     34 C23         89.2200   151.3560     5.5540 c3         1 LIG       0.112700
     35 H2          88.2610   149.5550    11.7120 ha         1 LIG       0.162000
     36 H3          86.5360   148.1510    13.2040 h4         1 LIG       0.170000
     37 H4          84.9000   149.8940    15.5670 h1         1 LIG       0.055033
     38 H5          83.7270   150.4690    14.3350 h1         1 LIG       0.055033
     39 H6          84.2610   148.7540    14.3350 h1         1 LIG       0.055033
     40 H7          83.8380   154.5050    11.8860 h1         1 LIG       0.090200
     41 H8          83.1670   155.2900    13.3810 h1         1 LIG       0.090200
     42 H9          84.6660   154.5890    15.4390 h1         1 LIG       0.069200
     43 H10         86.3590   155.1710    15.1340 h1         1 LIG       0.069200
     44 H11         83.7620   156.7430    15.0090 hc         1 LIG       0.057200
     45 H12         85.2290   157.0250    16.0340 hc         1 LIG       0.057200
     46 H13         85.4900   158.6390    14.4150 h1         1 LIG       0.042200
     47 H14         86.4220   157.2230    13.7200 h1         1 LIG       0.042200
     48 H15         88.7960   150.4840     8.2620 h1         1 LIG       0.052700
     49 H16         88.6100   150.0760    10.0130 h1         1 LIG       0.052700
     50 H17         91.8650   151.2420    10.9820 h1         1 LIG       0.052700
     51 H18         91.2820   152.6780    10.0330 h1         1 LIG       0.052700
     52 H19         88.7840   152.8770     8.8090 hc         1 LIG       0.057950
     53 H20         87.3060   152.0540     9.4710 hc         1 LIG       0.057950
     54 H21         89.6620   151.0900    12.0640 hc         1 LIG       0.057950
     55 H22         90.4020   152.7210    12.3070 hc         1 LIG       0.057950
     56 H23         88.9290   153.7640    10.8250 hc         1 LIG       0.090700
     57 H24         89.7920   148.3250     4.5840 h4         1 LIG       0.178000
     58 H25         91.0010   147.5530     8.9540 h4         1 LIG       0.186000
     59 H26         88.7750   151.5560     6.5400 h1         1 LIG       0.048700
     60 H27         89.3130   152.2990     4.9950 h1         1 LIG       0.048700
     61 H28         88.5770   150.6600     4.9950 h1         1 LIG       0.048700
@<TRIPOS>BOND
     1    28    29 1   
     2    28    30 1   
     3    29    31 2   
     4    30    32 2   
     5    31    33 1   
     6    32    20 1   
     7    33    34 1   
     8    20    21 2   
     9    20    22 1   
    10    22    23 1   
    11    22    24 1   
    12    23    25 1   
    13    24    26 1   
    14    25    27 1   
    15    27     1 1   
    16     1     2 ar  
    17     1     3 ar  
    18     2     4 ar  
    19     3     5 ar  
    20     3     6 1   
    21     4     7 ar  
    22     4    11 1   
    23     5     8 1   
    24     6     9 2   
    25    11    12 1   
    26    11    13 1   
    27     8    10 1   
    28    12    14 1   
    29    13    15 1   
    30    14    16 2   
    31    14    17 1   
    32    15    18 1   
    33    31    32 1   
    34    26    27 1   
    35     5     7 ar  
    36     8     9 1   
    37    17    18 1   
    38    17    19 1   
    39     6    35 1   
    40     9    36 1   
    41    10    37 1   
    42    10    38 1   
    43    10    39 1   
    44    12    40 1   
    45    12    41 1   
    46    13    42 1   
    47    13    43 1   
    48    15    44 1   
    49    15    45 1   
    50    18    46 1   
    51    18    47 1   
    52    23    48 1   
    53    23    49 1   
    54    24    50 1   
    55    24    51 1   
    56    25    52 1   
    57    25    53 1   
    58    26    54 1   
    59    26    55 1   
    60    27    56 1   
    61    29    57 1   
    62    30    58 1   
    63    34    59 1   
    64    34    60 1   
    65    34    61 1   
@<TRIPOS>SUBSTRUCTURE
     1 LIG         1 TEMP              0 ****  ****    0 ROOT
