@<TRIPOS>MOLECULE
LIG
   61    64     1     0     0
SMALL
bcc


@<TRIPOS>ATOM
      1 C1          80.8120   150.7870    15.8610 ca         1 LIG       0.360800
      2 N1          81.8870   150.4190    15.1040 nb         1 LIG      -0.649000
      3 C2          80.9040   151.3720    17.1140 ca         1 LIG      -0.185300
      4 C3          83.1200   150.6450    15.6230 ca         1 LIG       0.363600
      5 C4          82.1720   151.6000    17.6290 ca         1 LIG      -0.106000
      6 C5          83.2900   151.2360    16.8800 ca         1 LIG      -0.206300
      7 C6          84.3570   150.2550    14.8130 c6         1 LIG       0.068800
      8 O1          85.6120   150.3920    15.5250 os         1 LIG      -0.404600
      9 C7          84.4320   150.9090    13.4120 c6         1 LIG       0.066000
     10 C8          86.1210   151.7350    15.5530 c6         1 LIG       0.101400
     11 N2          84.9690   152.2690    13.4590 n          1 LIG      -0.432800
     12 C9          86.2600   152.3290    14.1480 c6         1 LIG       0.045000
     13 C10         84.0590   153.3310    13.4770 c          1 LIG       0.719700
     14 O2          82.8470   153.1280    13.5070 o          1 LIG      -0.621100
     15 C11         84.5990   154.6690    13.4080 cc         1 LIG      -0.170900
     16 N3          85.6450   155.0530    12.6060 na         1 LIG       0.125400
     17 C12         84.2900   155.7980    14.1480 cd         1 LIG      -0.257300
     18 N4          85.9660   156.3590    12.7260 nc         1 LIG      -0.492800
     19 C13         86.3730   154.2260    11.6680 c3         1 LIG       0.024600
     20 C14         85.1590   156.8100    13.6890 cd         1 LIG       0.301600
     21 C15         85.2510   158.2220    14.1600 c3         1 LIG      -0.100700
     22 C16         84.5530   158.4380    15.4940 c3         1 LIG      -0.091100
     23 N5          78.5460   150.0330    16.1820 ns         1 LIG      -0.540900
     24 C17         79.4660   150.4980    15.2690 c          1 LIG       0.567600
     25 O3          79.2250   150.6880    14.0830 o          1 LIG      -0.619100
     26 H1          78.8630   150.0050    17.1460 hn         1 LIG       0.347500
     27 C18         77.1380   149.9440    15.8940 c3         1 LIG       0.171300
     28 S1          77.0980   151.1410    18.4170 ss         1 LIG      -0.085300
     29 C19         76.3820   150.2300    17.1480 cc         1 LIG      -0.242700
     30 C20         75.6570   150.9870    19.3350 cc         1 LIG       0.395700
     31 C21         75.0920   149.8700    17.5040 cd         1 LIG       0.364600
     32 N6          74.6910   150.3100    18.7550 nd         1 LIG      -0.637000
     33 C22         75.5610   151.5890    20.6920 c3         1 LIG      -0.131400
     34 C23         74.1150   149.0970    16.6910 c3         1 LIG      -0.132400
     35 H2          80.0020   151.6470    17.6810 ha         1 LIG       0.173000
     36 H3          82.2940   152.0640    18.6190 ha         1 LIG       0.147000
     37 H4          84.3010   151.4120    17.2750 ha         1 LIG       0.151000
     38 H5          84.2110   149.1770    14.6510 h1         1 LIG       0.088700
     39 H6          85.0800   150.2950    12.7700 h1         1 LIG       0.079200
     40 H7          83.4080   150.9670    13.0150 h1         1 LIG       0.079200
     41 H8          85.4310   152.3630    16.1360 h1         1 LIG       0.062700
     42 H9          87.1210   151.7080    16.0100 h1         1 LIG       0.062700
     43 H10         86.5870   153.3760    14.2240 h1         1 LIG       0.071200
     44 H11         87.0050   151.7510    13.5790 h1         1 LIG       0.071200
     45 H12         83.5250   155.8870    14.9330 ha         1 LIG       0.170000
     46 H13         87.0020   153.5120    12.2200 h1         1 LIG       0.070033
     47 H14         85.6620   153.6750    11.0360 h1         1 LIG       0.070033
     48 H15         87.0090   154.8630    11.0360 h1         1 LIG       0.070033
     49 H16         86.3130   158.4880    14.2710 hc         1 LIG       0.051200
     50 H17         84.7520   158.8570    13.4140 hc         1 LIG       0.051200
     51 H18         85.2530   158.2210    16.3140 hc         1 LIG       0.040033
     52 H19         84.2150   159.4820    15.5660 hc         1 LIG       0.040033
     53 H20         83.6850   157.7660    15.5660 hc         1 LIG       0.040033
     54 H21         76.8960   148.9320    15.5370 h1         1 LIG       0.073700
     55 H22         76.8650   150.6690    15.1140 h1         1 LIG       0.073700
     56 H23         75.6870   150.8030    21.4510 hc         1 LIG       0.058033
     57 H24         76.3500   152.3460    20.8140 hc         1 LIG       0.058033
     58 H25         74.5760   152.0630    20.8140 hc         1 LIG       0.058033
     59 H26         73.4290   148.5550    17.3590 hc         1 LIG       0.057700
     60 H27         73.5390   149.7870    16.0560 hc         1 LIG       0.057700
     61 H28         74.6530   148.3780    16.0560 hc         1 LIG       0.057700
@<TRIPOS>BOND
     1    28    29 1   
     2    28    30 1   
     3    29    31 2   
     4    29    27 1   
     5    30    32 2   
     6    30    33 1   
     7    31    34 1   
     8    27    23 1   
     9    23    24 1   
    10    24    25 2   
    11    24     1 1   
    12     1     2 ar  
    13     1     3 ar  
    14     2     4 ar  
    15     3     5 ar  
    16     4     6 ar  
    17     7     4 1   
    18     7     8 1   
    19     7     9 1   
    20     8    10 1   
    21     9    11 1   
    22    10    12 1   
    23    11    13 1   
    24    13    14 2   
    25    13    15 1   
    26    15    16 1   
    27    15    17 2   
    28    16    18 1   
    29    16    19 1   
    30    17    20 1   
    31    20    21 1   
    32    21    22 1   
    33    31    32 1   
    34     5     6 ar  
    35    11    12 1   
    36    18    20 2   
    37    23    26 1   
    38     3    35 1   
    39     5    36 1   
    40     6    37 1   
    41     7    38 1   
    42     9    39 1   
    43     9    40 1   
    44    10    41 1   
    45    10    42 1   
    46    12    43 1   
    47    12    44 1   
    48    17    45 1   
    49    19    46 1   
    50    19    47 1   
    51    19    48 1   
    52    21    49 1   
    53    21    50 1   
    54    22    51 1   
    55    22    52 1   
    56    22    53 1   
    57    27    54 1   
    58    27    55 1   
    59    33    56 1   
    60    33    57 1   
    61    33    58 1   
    62    34    59 1   
    63    34    60 1   
    64    34    61 1   
@<TRIPOS>SUBSTRUCTURE
     1 LIG         1 TEMP              0 ****  ****    0 ROOT
