@<TRIPOS>MOLECULE
LIG
   61    66     1     0     0
SMALL
bcc


@<TRIPOS>ATOM
      1 N1          83.8000   151.9290    15.3980 n3         1 LIG      -0.813500
      2 C1          83.7840   150.5330    14.8510 c6         1 LIG       0.217800
      3 C2          82.5730   152.7050    15.0590 c6         1 LIG       0.218800
      4 C3          82.4780   149.8010    15.2640 c6         1 LIG       0.159000
      5 C4          81.2820   151.9210    15.4060 c6         1 LIG       0.083700
      6 N2          81.3110   150.5790    14.8040 n          1 LIG      -0.462800
      7 C5          82.4280   149.6610    16.7680 ca         1 LIG      -0.335900
      8 C6          81.0500   151.7790    16.9220 c6         1 LIG      -0.163700
      9 C7          80.1310   150.0340    14.3290 c          1 LIG       0.665100
     10 C8          83.1090   148.6650    17.4490 ca         1 LIG       0.625200
     11 C9          81.8160   150.6350    17.5480 ca         1 LIG       0.470600
     12 O1          79.0950   150.6910    14.2390 o          1 LIG      -0.601100
     13 C10         80.1600   148.5920    13.8940 c3         1 LIG      -0.170100
     14 N3          83.1410   148.6260    18.7890 nb         1 LIG      -0.742000
     15 N4          81.8360   150.6000    18.8940 nb         1 LIG      -0.701000
     16 C11         82.5180   149.5990    19.4810 ca         1 LIG       0.708300
     17 S1          85.2790   152.7560    15.3580 sy         1 LIG       1.514200
     18 O2          86.2170   151.9680    14.5880 o          1 LIG      -0.650800
     19 O3          85.5880   153.1790    16.7080 o          1 LIG      -0.650800
     20 C12         84.9190   154.2070    14.4260 ca         1 LIG      -0.497800
     21 C13         84.5790   154.0890    13.0910 ca         1 LIG       0.507200
     22 C14         85.0340   155.4770    14.9880 ca         1 LIG       0.021000
     23 N5          84.2880   155.1550    12.3060 nb         1 LIG      -0.680000
     24 C15         84.7560   156.5870    14.1960 ca         1 LIG      -0.272300
     25 C16         84.3860   156.3780    12.8750 ca         1 LIG       0.456200
     26 C17         82.5750   149.5570    20.9880 cx         1 LIG      -0.181000
     27 C18         81.8160   148.4930    21.7490 cx         1 LIG      -0.110400
     28 C19         83.3120   148.4370    21.6860 cx         1 LIG      -0.110400
     29 N6          83.7510   147.6540    16.7060 nu         1 LIG      -0.812900
     30 H1          83.5370   146.7670    17.1550 hn         1 LIG       0.382800
     31 C20         85.1980   147.8040    16.5550 c3         1 LIG       0.175800
     32 C21         85.8780   147.5470    17.8680 cx         1 LIG      -0.157700
     33 C22         87.3740   147.3610    17.9390 cx         1 LIG      -0.129400
     34 C23         86.4610   146.1930    18.1900 cx         1 LIG      -0.129400
     35 H2          83.8450   150.5730    13.7540 h1         1 LIG       0.066200
     36 H3          84.6440   149.9820    15.2590 h1         1 LIG       0.066200
     37 H4          82.5800   153.6470    15.6270 h1         1 LIG       0.060700
     38 H5          82.5770   152.8950    13.9760 h1         1 LIG       0.060700
     39 H6          82.4580   148.8020    14.8030 h1         1 LIG       0.096700
     40 H7          80.4520   152.5110    14.9900 h1         1 LIG       0.102700
     41 H8          81.3610   152.7140    17.4110 hc         1 LIG       0.086700
     42 H9          79.9800   151.5660    17.0660 hc         1 LIG       0.086700
     43 H10         80.1730   147.9410    14.7810 hc         1 LIG       0.069367
     44 H11         79.2660   148.3730    13.2920 hc         1 LIG       0.069367
     45 H12         81.0620   148.4090    13.2920 hc         1 LIG       0.069367
     46 H13         84.5420   153.0840    12.6450 h4         1 LIG       0.041100
     47 H14         85.3380   155.6000    16.0380 ha         1 LIG       0.161000
     48 H15         84.8280   157.6050    14.6060 ha         1 LIG       0.155000
     49 H16         84.1600   157.2570    12.2550 h4         1 LIG       0.030100
     50 H17         82.6150   150.6560    21.0140 hc         1 LIG       0.107700
     51 H18         81.3150   148.7460    22.6950 hc         1 LIG       0.078700
     52 H19         81.0020   147.7940    21.5040 hc         1 LIG       0.078700
     53 H20         83.8080   147.6530    21.0940 hc         1 LIG       0.078700
     54 H21         84.1190   148.3850    22.4320 hc         1 LIG       0.078700
     55 H22         85.5630   147.0830    15.8090 h1         1 LIG       0.069700
     56 H23         85.4240   148.8280    16.2250 h1         1 LIG       0.069700
     57 H24         85.1510   148.2160    18.3520 hc         1 LIG       0.098700
     58 H25         87.9770   147.4000    17.0190 hc         1 LIG       0.070700
     59 H26         88.1920   147.8430    18.4950 hc         1 LIG       0.070700
     60 H27         86.3640   145.7800    19.2050 hc         1 LIG       0.070700
     61 H28         86.3580   145.1830    17.7690 hc         1 LIG       0.070700
@<TRIPOS>BOND
     1    17    18 2   
     2    17    19 2   
     3    17     1 1   
     4    17    20 1   
     5     1     2 1   
     6     1     3 1   
     7    20    21 ar  
     8    20    22 ar  
     9     4     2 1   
    10     5     3 1   
    11    21    23 ar  
    12    22    24 ar  
    13     4     6 1   
    14     4     7 1   
    15     5     8 1   
    16    23    25 ar  
    17     6     9 1   
    18     7    10 ar  
    19     7    11 ar  
    20     9    12 2   
    21     9    13 1   
    22    10    14 ar  
    23    10    29 1   
    24    11    15 ar  
    25    14    16 ar  
    26    29    31 1   
    27    16    26 1   
    28    31    32 1   
    29    26    27 1   
    30    26    28 1   
    31    32    33 1   
    32    32    34 1   
    33     5     6 1   
    34    24    25 ar  
    35     8    11 1   
    36    15    16 ar  
    37    27    28 1   
    38    33    34 1   
    39    29    30 1   
    40     2    35 1   
    41     2    36 1   
    42     3    37 1   
    43     3    38 1   
    44     4    39 1   
    45     5    40 1   
    46     8    41 1   
    47     8    42 1   
    48    13    43 1   
    49    13    44 1   
    50    13    45 1   
    51    21    46 1   
    52    22    47 1   
    53    24    48 1   
    54    25    49 1   
    55    26    50 1   
    56    27    51 1   
    57    27    52 1   
    58    28    53 1   
    59    28    54 1   
    60    31    55 1   
    61    31    56 1   
    62    32    57 1   
    63    33    58 1   
    64    33    59 1   
    65    34    60 1   
    66    34    61 1   
@<TRIPOS>SUBSTRUCTURE
     1 LIG         1 TEMP              0 ****  ****    0 ROOT
