@<TRIPOS>MOLECULE
LIG
   61    64     1     0     0
SMALL
bcc


@<TRIPOS>ATOM
      1 C1          80.9310   148.9100    17.7390 ca         1 LIG       0.356800
      2 N1          81.6630   149.9360    17.2170 nb         1 LIG      -0.662000
      3 C2          81.2220   148.2840    18.9420 ca         1 LIG      -0.185300
      4 C3          82.7450   150.3540    17.9200 ca         1 LIG       0.374600
      5 C4          82.3250   148.7330    19.6570 ca         1 LIG      -0.106000
      6 C5          83.0930   149.7780    19.1450 ca         1 LIG      -0.202300
      7 C6          83.5750   151.5050    17.3640 c6         1 LIG       0.068800
      8 O1          84.9600   151.0920    17.2880 os         1 LIG      -0.411600
      9 C7          83.0130   152.0470    16.0290 c6         1 LIG       0.064000
     10 C8          85.6230   151.4680    16.0770 c6         1 LIG       0.116400
     11 N2          83.8670   153.0940    15.4560 n          1 LIG      -0.461800
     12 C9          85.3050   152.9090    15.6690 c6         1 LIG       0.052000
     13 C10         83.3110   153.9510    14.5080 c          1 LIG       0.696700
     14 O2          82.1630   153.7710    14.1030 o          1 LIG      -0.567100
     15 C11         84.1150   155.0500    14.0160 cc         1 LIG      -0.166900
     16 N3          85.0830   154.9220    13.0480 na         1 LIG       0.113400
     17 C12         84.0750   156.4070    14.2870 cd         1 LIG      -0.251300
     18 N4          85.7110   156.0770    12.7500 nc         1 LIG      -0.500800
     19 C13         85.4940   153.7090    12.3770 c3         1 LIG       0.032600
     20 C14         85.0800   156.9940    13.4890 cd         1 LIG       0.307600
     21 C15         85.4610   158.4320    13.4000 c3         1 LIG      -0.105700
     22 C16         84.9660   159.2360    14.5920 c3         1 LIG      -0.094100
     23 N5          78.5440   148.5920    17.5650 ns         1 LIG      -0.553900
     24 C17         79.7550   148.4590    16.9240 c          1 LIG       0.570600
     25 O3          79.8890   148.0250    15.7870 o          1 LIG      -0.605100
     26 H1          78.5620   149.0400    18.4770 hn         1 LIG       0.330500
     27 C18         77.2790   148.3650    16.9170 c3         1 LIG       0.167300
     28 S1          76.9230   150.8340    18.1690 ss         1 LIG      -0.079300
     29 C19         76.3550   149.4760    17.2850 cc         1 LIG      -0.241700
     30 C20         75.3480   151.5100    18.1320 cc         1 LIG       0.398700
     31 C21         75.0040   149.6270    17.0150 cd         1 LIG       0.352600
     32 N6          74.4390   150.7950    17.5070 nd         1 LIG      -0.630000
     33 C22         75.0850   152.8230    18.7800 c3         1 LIG      -0.131400
     34 C23         74.1330   148.6880    16.2590 c3         1 LIG      -0.127400
     35 H2          80.5990   147.4590    19.3180 ha         1 LIG       0.174000
     36 H3          82.5890   148.2690    20.6180 ha         1 LIG       0.147000
     37 H4          83.9670   150.1460    19.7020 ha         1 LIG       0.165000
     38 H5          83.5130   152.3630    18.0490 h1         1 LIG       0.092700
     39 H6          82.9400   151.2170    15.3120 h1         1 LIG       0.084700
     40 H7          82.0260   152.4880    16.2310 h1         1 LIG       0.084700
     41 H8          86.7090   151.3710    16.2230 h1         1 LIG       0.061700
     42 H9          85.2670   150.8030    15.2760 h1         1 LIG       0.061700
     43 H10         85.6400   153.5890    16.4660 h1         1 LIG       0.059700
     44 H11         85.8280   153.1280    14.7270 h1         1 LIG       0.059700
     45 H12         83.3970   156.9230    14.9830 ha         1 LIG       0.173000
     46 H13         85.7530   152.9460    13.1250 h1         1 LIG       0.065033
     47 H14         84.6710   153.3410    11.7470 h1         1 LIG       0.065033
     48 H15         86.3720   153.9180    11.7470 h1         1 LIG       0.065033
     49 H16         86.5580   158.5050    13.3550 hc         1 LIG       0.058700
     50 H17         84.9930   158.8490    12.4960 hc         1 LIG       0.058700
     51 H18         85.2730   158.7370    15.5230 hc         1 LIG       0.038367
     52 H19         85.3990   160.2470    14.5580 hc         1 LIG       0.038367
     53 H20         83.8690   159.3050    14.5580 hc         1 LIG       0.038367
     54 H21         76.8570   147.4050    17.2510 h1         1 LIG       0.076700
     55 H22         77.4140   148.3310    15.8260 h1         1 LIG       0.076700
     56 H23         75.1090   152.7030    19.8730 hc         1 LIG       0.059700
     57 H24         75.8560   153.5440    18.4730 hc         1 LIG       0.059700
     58 H25         74.0940   153.1910    18.4730 hc         1 LIG       0.059700
     59 H26         73.5600   148.0700    16.9650 hc         1 LIG       0.052700
     60 H27         73.4390   149.2610    15.6260 hc         1 LIG       0.052700
     61 H28         74.7560   148.0400    15.6260 hc         1 LIG       0.052700
@<TRIPOS>BOND
     1    28    29 1   
     2    28    30 1   
     3    29    31 2   
     4    29    27 1   
     5    30    32 2   
     6    30    33 1   
     7    31    34 1   
     8    27    23 1   
     9    23    24 1   
    10    24    25 2   
    11    24     1 1   
    12     1     2 ar  
    13     1     3 ar  
    14     2     4 ar  
    15     3     5 ar  
    16     4     6 ar  
    17     7     4 1   
    18     7     8 1   
    19     7     9 1   
    20     8    10 1   
    21     9    11 1   
    22    10    12 1   
    23    11    13 1   
    24    13    14 2   
    25    13    15 1   
    26    15    16 1   
    27    15    17 2   
    28    16    18 1   
    29    16    19 1   
    30    17    20 1   
    31    20    21 1   
    32    21    22 1   
    33    31    32 1   
    34     5     6 ar  
    35    11    12 1   
    36    18    20 2   
    37    23    26 1   
    38     3    35 1   
    39     5    36 1   
    40     6    37 1   
    41     7    38 1   
    42     9    39 1   
    43     9    40 1   
    44    10    41 1   
    45    10    42 1   
    46    12    43 1   
    47    12    44 1   
    48    17    45 1   
    49    19    46 1   
    50    19    47 1   
    51    19    48 1   
    52    21    49 1   
    53    21    50 1   
    54    22    51 1   
    55    22    52 1   
    56    22    53 1   
    57    27    54 1   
    58    27    55 1   
    59    33    56 1   
    60    33    57 1   
    61    33    58 1   
    62    34    59 1   
    63    34    60 1   
    64    34    61 1   
@<TRIPOS>SUBSTRUCTURE
     1 LIG         1 TEMP              0 ****  ****    0 ROOT
