EDS01357518_ent1
     RDKit          3D

 61 64  0  0  0  0  0  0  0  0999 V2000
   80.9309  148.9095   17.7393 C   0  0  0  0  0  0  0  0  0  0  0  0
   81.6626  149.9365   17.2167 N   0  0  0  0  0  0  0  0  0  0  0  0
   81.2217  148.2844   18.9418 C   0  0  0  0  0  0  0  0  0  0  0  0
   82.7454  150.3540   17.9201 C   0  0  0  0  0  0  0  0  0  0  0  0
   82.3245  148.7335   19.6568 C   0  0  0  0  0  0  0  0  0  0  0  0
   83.0925  149.7779   19.1449 C   0  0  0  0  0  0  0  0  0  0  0  0
   83.5748  151.5050   17.3636 C   0  0  1  0  0  0  0  0  0  0  0  0
   84.9599  151.0918   17.2877 O   0  0  0  0  0  0  0  0  0  0  0  0
   83.0135  152.0473   16.0291 C   0  0  0  0  0  0  0  0  0  0  0  0
   85.6225  151.4675   16.0772 C   0  0  0  0  0  0  0  0  0  0  0  0
   83.8673  153.0938   15.4559 N   0  0  0  0  0  0  0  0  0  0  0  0
   85.3049  152.9089   15.6695 C   0  0  0  0  0  0  0  0  0  0  0  0
   83.3114  153.9514   14.5076 C   0  0  0  0  0  0  0  0  0  0  0  0
   82.1631  153.7712   14.1033 O   0  0  0  0  0  0  0  0  0  0  0  0
   84.1145  155.0496   14.0158 C   0  0  0  0  0  0  0  0  0  0  0  0
   85.0831  154.9219   13.0480 N   0  0  0  0  0  0  0  0  0  0  0  0
   84.0746  156.4069   14.2872 C   0  0  0  0  0  0  0  0  0  0  0  0
   85.7106  156.0771   12.7497 N   0  0  0  0  0  0  0  0  0  0  0  0
   85.4943  153.7093   12.3765 C   0  0  0  0  0  0  0  0  0  0  0  0
   85.0801  156.9936   13.4885 C   0  0  0  0  0  0  0  0  0  0  0  0
   85.4613  158.4319   13.3996 C   0  0  0  0  0  0  0  0  0  0  0  0
   84.9663  159.2358   14.5920 C   0  0  0  0  0  0  0  0  0  0  0  0
   78.5444  148.5923   17.5653 N   0  0  0  0  0  0  0  0  0  0  0  0
   79.7553  148.4595   16.9244 C   0  0  0  0  0  0  0  0  0  0  0  0
   79.8887  148.0248   15.7866 O   0  0  0  0  0  0  0  0  0  0  0  0
   78.5622  149.0399   18.4771 H   0  0  0  0  0  0  0  0  0  0  0  0
   77.2788  148.3647   16.9168 C   0  0  0  0  0  0  0  0  0  0  0  0
   76.9232  150.8336   18.1687 S   0  0  0  0  0  0  0  0  0  0  0  0
   76.3551  149.4758   17.2845 C   0  0  0  0  0  0  0  0  0  0  0  0
   75.3478  151.5102   18.1319 C   0  0  0  0  0  0  0  0  0  0  0  0
   75.0040  149.6273   17.0151 C   0  0  0  0  0  0  0  0  0  0  0  0
   74.4395  150.7949   17.5066 N   0  0  0  0  0  0  0  0  0  0  0  0
   75.0845  152.8226   18.7802 C   0  0  0  0  0  0  0  0  0  0  0  0
   74.1332  148.6883   16.2587 C   0  0  0  0  0  0  0  0  0  0  0  0
   80.5991  147.4592   19.3177 H   0  0  0  0  0  0  0  0  0  0  0  0
   82.5893  148.2692   20.6182 H   0  0  0  0  0  0  0  0  0  0  0  0
   83.9666  150.1464   19.7018 H   0  0  0  0  0  0  0  0  0  0  0  0
   83.5130  152.3635   18.0485 H   0  0  0  0  0  0  0  0  0  0  0  0
   82.9402  151.2168   15.3115 H   0  0  0  0  0  0  0  0  0  0  0  0
   82.0263  152.4885   16.2312 H   0  0  0  0  0  0  0  0  0  0  0  0
   86.7086  151.3713   16.2229 H   0  0  0  0  0  0  0  0  0  0  0  0
   85.2666  150.8029   15.2762 H   0  0  0  0  0  0  0  0  0  0  0  0
   85.6398  153.5894   16.4662 H   0  0  0  0  0  0  0  0  0  0  0  0
   85.8284  153.1281   14.7272 H   0  0  0  0  0  0  0  0  0  0  0  0
   83.3972  156.9230   14.9835 H   0  0  0  0  0  0  0  0  0  0  0  0
   85.7533  152.9456   13.1247 H   0  0  0  0  0  0  0  0  0  0  0  0
   84.6707  153.3414   11.7470 H   0  0  0  0  0  0  0  0  0  0  0  0
   86.3718  153.9183   11.7470 H   0  0  0  0  0  0  0  0  0  0  0  0
   86.5580  158.5049   13.3546 H   0  0  0  0  0  0  0  0  0  0  0  0
   84.9931  158.8485   12.4956 H   0  0  0  0  0  0  0  0  0  0  0  0
   85.2733  158.7372   15.5232 H   0  0  0  0  0  0  0  0  0  0  0  0
   85.3986  160.2467   14.5576 H   0  0  0  0  0  0  0  0  0  0  0  0
   83.8690  159.3049   14.5576 H   0  0  0  0  0  0  0  0  0  0  0  0
   76.8573  147.4052   17.2510 H   0  0  0  0  0  0  0  0  0  0  0  0
   77.4139  148.3309   15.8256 H   0  0  0  0  0  0  0  0  0  0  0  0
   75.1085  152.7029   19.8734 H   0  0  0  0  0  0  0  0  0  0  0  0
   75.8557  153.5444   18.4733 H   0  0  0  0  0  0  0  0  0  0  0  0
   74.0945  153.1911   18.4733 H   0  0  0  0  0  0  0  0  0  0  0  0
   73.5599  148.0701   16.9652 H   0  0  0  0  0  0  0  0  0  0  0  0
   73.4393  149.2609   15.6257 H   0  0  0  0  0  0  0  0  0  0  0  0
   74.7564  148.0395   15.6257 H   0  0  0  0  0  0  0  0  0  0  0  0
 28 29  1  0
 28 30  1  0
 29 31  2  0
 29 27  1  0
 30 32  2  0
 30 33  1  0
 31 34  1  0
 27 23  1  0
 23 24  1  0
 24 25  2  0
 24  1  1  0
  1  2  2  0
  1  3  1  0
  2  4  1  0
  3  5  2  0
  4  6  2  0
  7  4  1  0
  7  8  1  0
  7  9  1  0
  8 10  1  0
  9 11  1  0
 10 12  1  0
 11 13  1  0
 13 14  2  0
 13 15  1  0
 15 16  1  0
 15 17  2  0
 16 18  1  0
 16 19  1  0
 17 20  1  0
 20 21  1  0
 21 22  1  0
 31 32  1  0
  5  6  1  0
 11 12  1  0
 18 20  2  0
 23 26  1  0
  3 35  1  0
  5 36  1  0
  6 37  1  0
  7 38  1  1
  9 39  1  0
  9 40  1  0
 10 41  1  0
 10 42  1  0
 12 43  1  0
 12 44  1  0
 17 45  1  0
 19 46  1  0
 19 47  1  0
 19 48  1  0
 21 49  1  0
 21 50  1  0
 22 51  1  0
 22 52  1  0
 22 53  1  0
 27 54  1  0
 27 55  1  0
 33 56  1  0
 33 57  1  0
 33 58  1  0
 34 59  1  0
 34 60  1  0
 34 61  1  0
M  END
$$$$
