EL2003A-A2U1
     RDKit          3D

 59 63  0  0  0  0  0  0  0  0999 V2000
   -1.4267    0.7579   -1.9598 O   0  0  0  0  0  0  0  0  0  0  0  0
   -2.4969    0.1705   -1.8041 C   0  0  0  0  0  0  0  0  0  0  0  0
   -3.4380    0.1113   -2.8099 N   0  0  0  0  0  0  0  0  0  0  0  0
   -2.8585   -0.5060   -0.6597 N   0  0  0  0  0  0  0  0  0  0  0  0
   -4.8033   -0.3874   -2.7219 C   0  0  0  0  0  0  0  0  0  0  0  0
   -3.1946    0.7463   -4.0936 C   0  0  0  0  0  0  0  0  0  0  0  0
   -2.1531   -0.4892    0.5661 C   0  0  0  0  0  0  0  0  0  0  0  0
   -5.4992    0.1810   -3.9512 C   0  0  0  0  0  0  0  0  0  0  0  0
   -4.3647    0.3065   -4.9599 C   0  0  0  0  0  0  0  0  0  0  0  0
   -2.2490   -1.5896    1.4389 C   0  0  0  0  0  0  0  0  0  0  0  0
   -1.3666    0.6136    0.9313 C   0  0  0  0  0  0  0  0  0  0  0  0
   -1.4798   -1.5911    2.6129 C   0  0  0  0  0  0  0  0  0  0  0  0
   -3.1020   -2.7902    1.1364 C   0  0  0  0  0  0  0  0  0  0  0  0
   -0.6060    0.6141    2.1066 C   0  0  0  0  0  0  0  0  0  0  0  0
   -0.6522   -0.5119    2.9281 C   0  0  0  0  0  0  0  0  0  0  0  0
    0.2421    1.6966    2.3916 N   0  0  0  0  0  0  0  0  0  0  0  0
    1.6432    1.6451    2.4741 C   0  0  0  0  0  0  0  0  0  0  0  0
    2.2662    0.4545    2.6217 N   0  0  0  0  0  0  0  0  0  0  0  0
    2.2513    2.8428    2.3356 N   0  0  0  0  0  0  0  0  0  0  0  0
    3.6215    0.3771    2.5795 C   0  0  0  0  0  0  0  0  0  0  0  0
    3.5842    2.7302    2.3458 C   0  0  0  0  0  0  0  0  0  0  0  0
    4.2784   -0.8607    2.6508 N   0  0  0  0  0  0  0  0  0  0  0  0
    4.3360    1.5790    2.4617 C   0  0  0  0  0  0  0  0  0  0  0  0
    4.4957    3.7379    2.2242 N   0  0  0  0  0  0  0  0  0  0  0  0
    3.6238   -1.9427    1.9119 C   0  0  0  0  0  0  0  0  0  0  0  0
    5.6874    1.8687    2.4162 N   0  0  0  0  0  0  0  0  0  0  0  0
    5.7428    3.1757    2.2705 C   0  0  0  0  0  0  0  0  0  0  0  0
    3.8712   -1.8937    0.3966 C   0  0  0  0  0  0  0  0  0  0  0  0
    2.9652   -0.9794   -0.3555 C   0  0  0  0  0  0  0  0  0  0  0  0
    3.4605    0.1201   -1.0224 N   0  0  0  0  0  0  0  0  0  0  0  0
    1.6011   -1.0679   -0.5376 C   0  0  0  0  0  0  0  0  0  0  0  0
    2.4129    0.7065   -1.5562 C   0  0  0  0  0  0  0  0  0  0  0  0
    1.2612    0.0241   -1.2880 N   0  0  0  0  0  0  0  0  0  0  0  0
   -3.4674   -1.2912   -0.8211 H   0  0  0  0  0  0  0  0  0  0  0  0
   -5.2791   -0.0753   -1.7876 H   0  0  0  0  0  0  0  0  0  0  0  0
   -4.7626   -1.4814   -2.7590 H   0  0  0  0  0  0  0  0  0  0  0  0
   -2.2246    0.4452   -4.5005 H   0  0  0  0  0  0  0  0  0  0  0  0
   -3.1956    1.8315   -3.9408 H   0  0  0  0  0  0  0  0  0  0  0  0
   -6.3182   -0.4522   -4.3027 H   0  0  0  0  0  0  0  0  0  0  0  0
   -5.9051    1.1746   -3.7261 H   0  0  0  0  0  0  0  0  0  0  0  0
   -4.5830    1.0129   -5.7652 H   0  0  0  0  0  0  0  0  0  0  0  0
   -4.1560   -0.6732   -5.4064 H   0  0  0  0  0  0  0  0  0  0  0  0
   -1.3224    1.4878    0.2882 H   0  0  0  0  0  0  0  0  0  0  0  0
   -1.5023   -2.4421    3.2904 H   0  0  0  0  0  0  0  0  0  0  0  0
   -3.0840   -3.5159    1.9567 H   0  0  0  0  0  0  0  0  0  0  0  0
   -4.1450   -2.4903    0.9924 H   0  0  0  0  0  0  0  0  0  0  0  0
   -2.7378   -3.2968    0.2369 H   0  0  0  0  0  0  0  0  0  0  0  0
   -0.0443   -0.5483    3.8298 H   0  0  0  0  0  0  0  0  0  0  0  0
    0.0213    2.5606    1.9152 H   0  0  0  0  0  0  0  0  0  0  0  0
    5.2551   -0.7143    2.3951 H   0  0  0  0  0  0  0  0  0  0  0  0
    4.2734    4.7147    2.1110 H   0  0  0  0  0  0  0  0  0  0  0  0
    2.5563   -2.0193    2.1533 H   0  0  0  0  0  0  0  0  0  0  0  0
    4.0752   -2.8714    2.2826 H   0  0  0  0  0  0  0  0  0  0  0  0
    6.6464    3.7657    2.1907 H   0  0  0  0  0  0  0  0  0  0  0  0
    4.9157   -1.6266    0.1940 H   0  0  0  0  0  0  0  0  0  0  0  0
    3.7256   -2.9037   -0.0082 H   0  0  0  0  0  0  0  0  0  0  0  0
    0.8594   -1.7679   -0.1821 H   0  0  0  0  0  0  0  0  0  0  0  0
    2.4208    1.6160   -2.1402 H   0  0  0  0  0  0  0  0  0  0  0  0
    0.3241    0.2939   -1.5774 H   0  0  0  0  0  0  0  0  0  0  0  0
  1  2  2  0
  2  3  1  0
  2  4  1  0
  3  5  1  0
  3  6  1  0
  4  7  1  0
  5  8  1  0
  6  9  1  0
  7 10  2  0
  7 11  1  0
 10 12  1  0
 10 13  1  0
 11 14  2  0
 12 15  2  0
 14 16  1  0
 16 17  1  0
 17 18  2  0
 17 19  1  0
 18 20  1  0
 19 21  2  0
 20 22  1  0
 20 23  2  0
 21 24  1  0
 22 25  1  0
 23 26  1  0
 24 27  1  0
 25 28  1  0
 28 29  1  0
 29 30  1  0
 29 31  2  0
 30 32  2  0
 31 33  1  0
  8  9  1  0
 14 15  1  0
 21 23  1  0
 26 27  2  0
 32 33  1  0
  4 34  1  0
  5 35  1  0
  5 36  1  0
  6 37  1  0
  6 38  1  0
  8 39  1  0
  8 40  1  0
  9 41  1  0
  9 42  1  0
 11 43  1  0
 12 44  1  0
 13 45  1  0
 13 46  1  0
 13 47  1  0
 15 48  1  0
 16 49  1  0
 22 50  1  0
 24 51  1  0
 25 52  1  0
 25 53  1  0
 27 54  1  0
 28 55  1  0
 28 56  1  0
 31 57  1  0
 32 58  1  0
 33 59  1  0
M  END
>  <Molecule Name>  (1) 
EL2003A-A2U1

>  <Name>  (1) 
EL2003A-A2U1

>  <pIC50 PDK>  (1) 
7.6

>  <selection>  (1) 
Y

>  <MMFF94_energy_kcal_mol>  (1) 
-80.5413

>  <Note>  (1) 
No stereocenters; achiral molecule

$$$$
EL2003A
     RDKit          3D

 56 60  0  0  0  0  0  0  0  0999 V2000
    4.2449   -0.8295    1.0058 O   0  0  0  0  0  0  0  0  0  0  0  0
    4.3393    0.3951    0.9876 C   0  0  0  0  0  0  0  0  0  0  0  0
    5.4575    1.0246    1.5024 N   0  0  0  0  0  0  0  0  0  0  0  0
    3.3979    1.2578    0.4740 N   0  0  0  0  0  0  0  0  0  0  0  0
    6.5557    0.2419    2.0431 C   0  0  0  0  0  0  0  0  0  0  0  0
    5.6832    2.4490    1.7018 C   0  0  0  0  0  0  0  0  0  0  0  0
    2.1225    0.9452   -0.0412 C   0  0  0  0  0  0  0  0  0  0  0  0
    7.6641    1.2563    2.2789 C   0  0  0  0  0  0  0  0  0  0  0  0
    6.8916    2.5219    2.6253 C   0  0  0  0  0  0  0  0  0  0  0  0
    1.5382   -0.3243    0.0303 C   0  0  0  0  0  0  0  0  0  0  0  0
    1.4020    1.9861   -0.6330 C   0  0  0  0  0  0  0  0  0  0  0  0
    0.2565   -0.5823   -0.4927 C   0  0  0  0  0  0  0  0  0  0  0  0
    0.1320    1.7536   -1.1556 C   0  0  0  0  0  0  0  0  0  0  0  0
   -0.2808   -1.8662   -0.3355 N   0  0  0  0  0  0  0  0  0  0  0  0
   -0.4302    0.4777   -1.0873 C   0  0  0  0  0  0  0  0  0  0  0  0
   -1.5565   -2.4059   -0.4855 C   0  0  0  0  0  0  0  0  0  0  0  0
   -2.6154   -1.6090   -0.7622 N   0  0  0  0  0  0  0  0  0  0  0  0
   -1.6190   -3.7395   -0.2915 N   0  0  0  0  0  0  0  0  0  0  0  0
   -3.8630   -2.1315   -0.8838 C   0  0  0  0  0  0  0  0  0  0  0  0
   -2.8632   -4.2156   -0.4035 C   0  0  0  0  0  0  0  0  0  0  0  0
   -4.9547   -1.2853   -1.1247 N   0  0  0  0  0  0  0  0  0  0  0  0
   -4.0142   -3.5099   -0.6843 C   0  0  0  0  0  0  0  0  0  0  0  0
   -3.2673   -5.5107   -0.2579 N   0  0  0  0  0  0  0  0  0  0  0  0
   -4.7830   -0.3933   -2.2776 C   0  0  0  0  0  0  0  0  0  0  0  0
   -5.1101   -4.3477   -0.7170 N   0  0  0  0  0  0  0  0  0  0  0  0
   -4.6225   -5.5428   -0.4534 C   0  0  0  0  0  0  0  0  0  0  0  0
   -5.3850    0.9883   -1.9764 C   0  0  0  0  0  0  0  0  0  0  0  0
   -4.5484    1.8237   -1.0639 C   0  0  0  0  0  0  0  0  0  0  0  0
   -3.8094    1.3054   -0.0271 N   0  0  0  0  0  0  0  0  0  0  0  0
   -4.3188    3.1813   -1.0051 C   0  0  0  0  0  0  0  0  0  0  0  0
   -3.1636    2.3427    0.5804 C   0  0  0  0  0  0  0  0  0  0  0  0
   -3.4538    3.4913    0.0127 N   0  0  0  0  0  0  0  0  0  0  0  0
    3.6977    2.2103    0.3519 H   0  0  0  0  0  0  0  0  0  0  0  0
    6.2191   -0.2080    2.9840 H   0  0  0  0  0  0  0  0  0  0  0  0
    6.8486   -0.5545    1.3523 H   0  0  0  0  0  0  0  0  0  0  0  0
    4.8008    2.9318    2.1319 H   0  0  0  0  0  0  0  0  0  0  0  0
    5.9004    2.8942    0.7249 H   0  0  0  0  0  0  0  0  0  0  0  0
    8.2353    1.4119    1.3557 H   0  0  0  0  0  0  0  0  0  0  0  0
    8.3581    0.9484    3.0656 H   0  0  0  0  0  0  0  0  0  0  0  0
    6.5664    2.4817    3.6719 H   0  0  0  0  0  0  0  0  0  0  0  0
    7.4765    3.4347    2.4831 H   0  0  0  0  0  0  0  0  0  0  0  0
    2.0662   -1.1394    0.5150 H   0  0  0  0  0  0  0  0  0  0  0  0
    1.8131    2.9897   -0.6955 H   0  0  0  0  0  0  0  0  0  0  0  0
   -0.4314    2.5661   -1.6095 H   0  0  0  0  0  0  0  0  0  0  0  0
    0.3670   -2.5923   -0.0632 H   0  0  0  0  0  0  0  0  0  0  0  0
   -1.4154    0.3346   -1.5185 H   0  0  0  0  0  0  0  0  0  0  0  0
   -5.7933   -1.8644   -1.2052 H   0  0  0  0  0  0  0  0  0  0  0  0
   -2.6647   -6.2907   -0.0422 H   0  0  0  0  0  0  0  0  0  0  0  0
   -3.7355   -0.2805   -2.5847 H   0  0  0  0  0  0  0  0  0  0  0  0
   -5.3159   -0.8354   -3.1283 H   0  0  0  0  0  0  0  0  0  0  0  0
   -5.1933   -6.4605   -0.3907 H   0  0  0  0  0  0  0  0  0  0  0  0
   -6.3873    0.8799   -1.5442 H   0  0  0  0  0  0  0  0  0  0  0  0
   -5.5013    1.5262   -2.9256 H   0  0  0  0  0  0  0  0  0  0  0  0
   -3.7169    0.3203    0.2000 H   0  0  0  0  0  0  0  0  0  0  0  0
   -4.7264    3.9526   -1.6457 H   0  0  0  0  0  0  0  0  0  0  0  0
   -2.4941    2.1948    1.4169 H   0  0  0  0  0  0  0  0  0  0  0  0
  1  2  2  0
  2  3  1  0
  2  4  1  0
  3  5  1  0
  3  6  1  0
  4  7  1  0
  5  8  1  0
  6  9  1  0
  7 10  2  0
  7 11  1  0
 10 12  1  0
 11 13  2  0
 12 14  1  0
 12 15  2  0
 14 16  1  0
 16 17  2  0
 16 18  1  0
 17 19  1  0
 18 20  2  0
 19 21  1  0
 19 22  2  0
 20 23  1  0
 21 24  1  0
 22 25  1  0
 23 26  1  0
 24 27  1  0
 27 28  1  0
 28 29  1  0
 28 30  2  0
 29 31  1  0
 30 32  1  0
  8  9  1  0
 13 15  1  0
 20 22  1  0
 25 26  2  0
 31 32  2  0
  4 33  1  0
  5 34  1  0
  5 35  1  0
  6 36  1  0
  6 37  1  0
  8 38  1  0
  8 39  1  0
  9 40  1  0
  9 41  1  0
 10 42  1  0
 11 43  1  0
 13 44  1  0
 14 45  1  0
 15 46  1  0
 21 47  1  0
 23 48  1  0
 24 49  1  0
 24 50  1  0
 26 51  1  0
 27 52  1  0
 27 53  1  0
 29 54  1  0
 30 55  1  0
 31 56  1  0
M  END
>  <Molecule Name>  (2) 
EL2003A

>  <Name>  (2) 
EL2003A

>  <pIC50 PDK>  (2) 
7.9

>  <selection>  (2) 
Y

>  <MMFF94_energy_kcal_mol>  (2) 
-85.8421

>  <Note>  (2) 
No stereocenters; achiral molecule

$$$$
EL2003A-A4U1
     RDKit          3D

 59 63  0  0  0  0  0  0  0  0999 V2000
    3.7887    3.4038    1.5765 F   0  0  0  0  0  0  0  0  0  0  0  0
    3.6194    2.0797    1.8507 C   0  0  0  0  0  0  0  0  0  0  0  0
    4.8647    1.5262    1.7415 F   0  0  0  0  0  0  0  0  0  0  0  0
    3.3087    2.0118    3.1754 F   0  0  0  0  0  0  0  0  0  0  0  0
    2.5748    1.4343    0.9767 C   0  0  0  0  0  0  0  0  0  0  0  0
    2.8126    0.3103    0.1638 C   0  0  0  0  0  0  0  0  0  0  0  0
    1.2859    2.0006    0.9971 C   0  0  0  0  0  0  0  0  0  0  0  0
    4.1062   -0.2669    0.1281 N   0  0  0  0  0  0  0  0  0  0  0  0
    1.7520   -0.1957   -0.6075 C   0  0  0  0  0  0  0  0  0  0  0  0
    0.2491    1.4726    0.2255 C   0  0  0  0  0  0  0  0  0  0  0  0
    4.5218   -1.4182   -0.5045 C   0  0  0  0  0  0  0  0  0  0  0  0
    0.4621    0.3693   -0.5952 C   0  0  0  0  0  0  0  0  0  0  0  0
    3.7931   -2.2024   -1.1054 O   0  0  0  0  0  0  0  0  0  0  0  0
    5.8816   -1.6502   -0.4088 N   0  0  0  0  0  0  0  0  0  0  0  0
   -0.5323   -0.2247   -1.3807 N   0  0  0  0  0  0  0  0  0  0  0  0
    6.4620   -2.8512   -0.9860 C   0  0  0  0  0  0  0  0  0  0  0  0
    6.9158   -0.7849    0.1434 C   0  0  0  0  0  0  0  0  0  0  0  0
   -1.9013   -0.0140   -1.5404 C   0  0  0  0  0  0  0  0  0  0  0  0
    7.8889   -2.8745   -0.4598 C   0  0  0  0  0  0  0  0  0  0  0  0
    8.2254   -1.3948   -0.3371 C   0  0  0  0  0  0  0  0  0  0  0  0
   -2.5615    0.8755   -0.7658 N   0  0  0  0  0  0  0  0  0  0  0  0
   -2.4657   -0.7827   -2.4946 N   0  0  0  0  0  0  0  0  0  0  0  0
   -3.8985    1.0746   -0.9149 C   0  0  0  0  0  0  0  0  0  0  0  0
   -3.7799   -0.5685   -2.6103 C   0  0  0  0  0  0  0  0  0  0  0  0
   -4.5800    2.0026   -0.1240 N   0  0  0  0  0  0  0  0  0  0  0  0
   -4.5606    0.3091   -1.8869 C   0  0  0  0  0  0  0  0  0  0  0  0
   -4.6386   -1.1811   -3.4754 N   0  0  0  0  0  0  0  0  0  0  0  0
   -4.1031    2.1686    1.2494 C   0  0  0  0  0  0  0  0  0  0  0  0
   -5.8834    0.2229   -2.2792 N   0  0  0  0  0  0  0  0  0  0  0  0
   -5.8890   -0.6756   -3.2417 C   0  0  0  0  0  0  0  0  0  0  0  0
   -4.3377    0.9363    2.1311 C   0  0  0  0  0  0  0  0  0  0  0  0
   -5.7832    0.6598    2.3651 C   0  0  0  0  0  0  0  0  0  0  0  0
   -6.4636    1.2865    3.3840 N   0  0  0  0  0  0  0  0  0  0  0  0
   -6.6304   -0.1808    1.6742 C   0  0  0  0  0  0  0  0  0  0  0  0
   -7.6955    0.8386    3.3114 C   0  0  0  0  0  0  0  0  0  0  0  0
   -7.8445   -0.0526    2.2880 N   0  0  0  0  0  0  0  0  0  0  0  0
    1.0801    2.8696    1.6222 H   0  0  0  0  0  0  0  0  0  0  0  0
    4.8076    0.1609    0.7156 H   0  0  0  0  0  0  0  0  0  0  0  0
    1.9102   -1.0554   -1.2518 H   0  0  0  0  0  0  0  0  0  0  0  0
   -0.7220    1.9561    0.2743 H   0  0  0  0  0  0  0  0  0  0  0  0
   -0.2319   -0.9484   -2.0186 H   0  0  0  0  0  0  0  0  0  0  0  0
    6.4400   -2.7460   -2.0766 H   0  0  0  0  0  0  0  0  0  0  0  0
    5.8907   -3.7403   -0.7024 H   0  0  0  0  0  0  0  0  0  0  0  0
    6.8358   -0.8205    1.2353 H   0  0  0  0  0  0  0  0  0  0  0  0
    6.7886    0.2472   -0.1963 H   0  0  0  0  0  0  0  0  0  0  0  0
    8.5728   -3.4169   -1.1181 H   0  0  0  0  0  0  0  0  0  0  0  0
    7.9175   -3.3443    0.5307 H   0  0  0  0  0  0  0  0  0  0  0  0
    8.4868   -0.9922   -1.3232 H   0  0  0  0  0  0  0  0  0  0  0  0
    9.0572   -1.1984    0.3447 H   0  0  0  0  0  0  0  0  0  0  0  0
   -5.5865    1.8593   -0.2001 H   0  0  0  0  0  0  0  0  0  0  0  0
   -4.3814   -1.8795   -4.1564 H   0  0  0  0  0  0  0  0  0  0  0  0
   -4.6276    3.0307    1.6796 H   0  0  0  0  0  0  0  0  0  0  0  0
   -3.0385    2.4316    1.2533 H   0  0  0  0  0  0  0  0  0  0  0  0
   -6.7571   -0.9997   -3.8011 H   0  0  0  0  0  0  0  0  0  0  0  0
   -3.8590    0.0490    1.7004 H   0  0  0  0  0  0  0  0  0  0  0  0
   -3.8561    1.1055    3.1023 H   0  0  0  0  0  0  0  0  0  0  0  0
   -6.4782   -0.8275    0.8210 H   0  0  0  0  0  0  0  0  0  0  0  0
   -8.5123    1.1200    3.9624 H   0  0  0  0  0  0  0  0  0  0  0  0
   -8.7003   -0.5254    2.0329 H   0  0  0  0  0  0  0  0  0  0  0  0
  1  2  1  0
  2  3  1  0
  2  4  1  0
  2  5  1  0
  5  6  2  0
  5  7  1  0
  6  8  1  0
  6  9  1  0
  7 10  2  0
  8 11  1  0
  9 12  2  0
 11 13  2  0
 11 14  1  0
 12 15  1  0
 14 16  1  0
 14 17  1  0
 15 18  1  0
 16 19  1  0
 17 20  1  0
 18 21  2  0
 18 22  1  0
 21 23  1  0
 22 24  2  0
 23 25  1  0
 23 26  2  0
 24 27  1  0
 25 28  1  0
 26 29  1  0
 27 30  1  0
 28 31  1  0
 31 32  1  0
 32 33  1  0
 32 34  2  0
 33 35  2  0
 34 36  1  0
 10 12  1  0
 19 20  1  0
 24 26  1  0
 29 30  2  0
 35 36  1  0
  7 37  1  0
  8 38  1  0
  9 39  1  0
 10 40  1  0
 15 41  1  0
 16 42  1  0
 16 43  1  0
 17 44  1  0
 17 45  1  0
 19 46  1  0
 19 47  1  0
 20 48  1  0
 20 49  1  0
 25 50  1  0
 27 51  1  0
 28 52  1  0
 28 53  1  0
 30 54  1  0
 31 55  1  0
 31 56  1  0
 34 57  1  0
 35 58  1  0
 36 59  1  0
M  END
>  <Molecule Name>  (3) 
EL2003A-A4U1

>  <Name>  (3) 
EL2003A-A4U1

>  <pIC50 PDK>  (3) 
7.3

>  <selection>  (3) 
Y

>  <MMFF94_energy_kcal_mol>  (3) 
-61.7183

>  <Note>  (3) 
No stereocenters; achiral molecule

$$$$
BX912
     RDKit          3D

 53 56  0  0  0  0  0  0  0  0999 V2000
    5.6355   -5.0665    2.2838 Br  0  0  0  0  0  0  0  0  0  0  0  0
    4.0471   -4.1140    1.9186 C   0  0  0  0  0  0  0  0  0  0  0  0
    3.9547   -3.1164    0.9593 C   0  0  0  0  0  0  0  0  0  0  0  0
    2.9056   -4.3707    2.6403 C   0  0  0  0  0  0  0  0  0  0  0  0
    2.7875   -2.4775    0.7346 N   0  0  0  0  0  0  0  0  0  0  0  0
    5.0691   -2.8047    0.1555 N   0  0  0  0  0  0  0  0  0  0  0  0
    1.7384   -3.7267    2.4449 N   0  0  0  0  0  0  0  0  0  0  0  0
    1.7108   -2.8124    1.4667 C   0  0  0  0  0  0  0  0  0  0  0  0
    4.9544   -1.6057   -0.6805 C   0  0  0  0  0  0  0  0  0  0  0  0
    0.4970   -2.1581    1.2826 N   0  0  0  0  0  0  0  0  0  0  0  0
    5.0918   -0.3128    0.1434 C   0  0  0  0  0  0  0  0  0  0  0  0
   -0.0611   -1.5147    0.1675 C   0  0  0  0  0  0  0  0  0  0  0  0
    4.1555    0.7491   -0.3103 C   0  0  0  0  0  0  0  0  0  0  0  0
   -1.2029   -0.7162    0.3602 C   0  0  0  0  0  0  0  0  0  0  0  0
    0.5115   -1.5492   -1.1073 C   0  0  0  0  0  0  0  0  0  0  0  0
    2.8119    0.7135   -0.0258 N   0  0  0  0  0  0  0  0  0  0  0  0
    4.3296    1.9087   -1.0322 C   0  0  0  0  0  0  0  0  0  0  0  0
   -1.7757    0.0113   -0.6884 C   0  0  0  0  0  0  0  0  0  0  0  0
   -0.0453   -0.8259   -2.1625 C   0  0  0  0  0  0  0  0  0  0  0  0
    2.2439    1.8221   -0.5843 C   0  0  0  0  0  0  0  0  0  0  0  0
    3.1367    2.5642   -1.1990 N   0  0  0  0  0  0  0  0  0  0  0  0
   -2.9108    0.8363   -0.5487 N   0  0  0  0  0  0  0  0  0  0  0  0
   -1.1823   -0.0478   -1.9527 C   0  0  0  0  0  0  0  0  0  0  0  0
   -3.7357    0.9615    0.5462 C   0  0  0  0  0  0  0  0  0  0  0  0
   -3.6566    0.2912    1.5723 O   0  0  0  0  0  0  0  0  0  0  0  0
   -4.7090    1.9331    0.4090 N   0  0  0  0  0  0  0  0  0  0  0  0
   -4.8620    2.9181   -0.6522 C   0  0  0  0  0  0  0  0  0  0  0  0
   -5.6784    2.1541    1.4689 C   0  0  0  0  0  0  0  0  0  0  0  0
   -5.8424    3.9394   -0.0917 C   0  0  0  0  0  0  0  0  0  0  0  0
   -6.6929    3.1106    0.8612 C   0  0  0  0  0  0  0  0  0  0  0  0
    2.8852   -5.1220    3.4245 H   0  0  0  0  0  0  0  0  0  0  0  0
    5.9220   -2.8190    0.7099 H   0  0  0  0  0  0  0  0  0  0  0  0
    5.7719   -1.6362   -1.4116 H   0  0  0  0  0  0  0  0  0  0  0  0
    4.0342   -1.6375   -1.2776 H   0  0  0  0  0  0  0  0  0  0  0  0
   -0.1717   -2.4856    1.9688 H   0  0  0  0  0  0  0  0  0  0  0  0
    6.1243    0.0507    0.0666 H   0  0  0  0  0  0  0  0  0  0  0  0
    4.9202   -0.4952    1.2118 H   0  0  0  0  0  0  0  0  0  0  0  0
   -1.6237   -0.6605    1.3598 H   0  0  0  0  0  0  0  0  0  0  0  0
    1.3952   -2.1500   -1.3065 H   0  0  0  0  0  0  0  0  0  0  0  0
    2.3238   -0.0216    0.4740 H   0  0  0  0  0  0  0  0  0  0  0  0
    5.2482    2.3079   -1.4427 H   0  0  0  0  0  0  0  0  0  0  0  0
    0.4143   -0.8660   -3.1471 H   0  0  0  0  0  0  0  0  0  0  0  0
    1.1841    2.0259   -0.5114 H   0  0  0  0  0  0  0  0  0  0  0  0
   -3.2228    1.3021   -1.3843 H   0  0  0  0  0  0  0  0  0  0  0  0
   -1.5921    0.5102   -2.7904 H   0  0  0  0  0  0  0  0  0  0  0  0
   -5.2763    2.4063   -1.5275 H   0  0  0  0  0  0  0  0  0  0  0  0
   -3.8995    3.3659   -0.9164 H   0  0  0  0  0  0  0  0  0  0  0  0
   -6.1261    1.2105    1.7950 H   0  0  0  0  0  0  0  0  0  0  0  0
   -5.1549    2.6121    2.3158 H   0  0  0  0  0  0  0  0  0  0  0  0
   -5.3007    4.7094    0.4709 H   0  0  0  0  0  0  0  0  0  0  0  0
   -6.4284    4.4334   -0.8715 H   0  0  0  0  0  0  0  0  0  0  0  0
   -7.4461    2.5506    0.2939 H   0  0  0  0  0  0  0  0  0  0  0  0
   -7.2070    3.7147    1.6135 H   0  0  0  0  0  0  0  0  0  0  0  0
  1  2  1  0
  2  3  2  0
  2  4  1  0
  3  5  1  0
  3  6  1  0
  4  7  2  0
  5  8  2  0
  6  9  1  0
  8 10  1  0
  9 11  1  0
 10 12  1  0
 11 13  1  0
 12 14  2  0
 12 15  1  0
 13 16  1  0
 13 17  2  0
 14 18  1  0
 15 19  2  0
 16 20  1  0
 17 21  1  0
 18 22  1  0
 18 23  2  0
 22 24  1  0
 24 25  2  0
 24 26  1  0
 26 27  1  0
 26 28  1  0
 27 29  1  0
 28 30  1  0
  7  8  1  0
 19 23  1  0
 20 21  2  0
 29 30  1  0
  4 31  1  0
  6 32  1  0
  9 33  1  0
  9 34  1  0
 10 35  1  0
 11 36  1  0
 11 37  1  0
 14 38  1  0
 15 39  1  0
 16 40  1  0
 17 41  1  0
 19 42  1  0
 20 43  1  0
 22 44  1  0
 23 45  1  0
 27 46  1  0
 27 47  1  0
 28 48  1  0
 28 49  1  0
 29 50  1  0
 29 51  1  0
 30 52  1  0
 30 53  1  0
M  END
>  <Molecule Name>  (4) 
BX912

>  <Name>  (4) 
BX912

>  <pIC50 PDK>  (4) 
7.327902

>  <selection>  (4) 
Y

>  <MMFF94_energy_kcal_mol>  (4) 
-102.6324

>  <Note>  (4) 
No stereocenters; achiral molecule

$$$$
EL5001A
     RDKit          3D

 49 51  0  0  0  0  0  0  0  0999 V2000
    3.9885    3.4750   -2.3064 Br  0  0  0  0  0  0  0  0  0  0  0  0
    2.4621    2.8916   -1.3605 C   0  0  0  0  0  0  0  0  0  0  0  0
    2.2490    1.5750   -0.9794 C   0  0  0  0  0  0  0  0  0  0  0  0
    1.4898    3.7932   -0.9973 C   0  0  0  0  0  0  0  0  0  0  0  0
    1.1298    1.2174   -0.3143 N   0  0  0  0  0  0  0  0  0  0  0  0
    3.1661    0.5778   -1.3570 N   0  0  0  0  0  0  0  0  0  0  0  0
    0.3755    3.4581   -0.3181 N   0  0  0  0  0  0  0  0  0  0  0  0
    0.2355    2.1662   -0.0060 C   0  0  0  0  0  0  0  0  0  0  0  0
    2.9777   -0.7280   -0.7210 C   0  0  0  0  0  0  0  0  0  0  0  0
   -0.9280    1.8436    0.6766 N   0  0  0  0  0  0  0  0  0  0  0  0
    4.1542   -1.6556   -1.0518 C   0  0  0  0  0  0  0  0  0  0  0  0
   -0.7946    0.7826    1.6760 C   0  0  0  0  0  0  0  0  0  0  0  0
    5.4286   -1.2364   -0.3935 C   0  0  0  0  0  0  0  0  0  0  0  0
   -1.0424   -0.6052    1.0612 C   0  0  0  0  0  0  0  0  0  0  0  0
    5.8673    0.0701   -0.4640 N   0  0  0  0  0  0  0  0  0  0  0  0
    6.3247   -1.9976    0.3265 C   0  0  0  0  0  0  0  0  0  0  0  0
   -2.3203   -0.6746    0.3692 N   0  0  0  0  0  0  0  0  0  0  0  0
    7.0016    0.0969    0.1963 C   0  0  0  0  0  0  0  0  0  0  0  0
    7.3191   -1.1340    0.6944 N   0  0  0  0  0  0  0  0  0  0  0  0
   -3.4829   -0.7904    1.0838 C   0  0  0  0  0  0  0  0  0  0  0  0
   -3.4956   -0.9591    2.3006 O   0  0  0  0  0  0  0  0  0  0  0  0
   -4.6279   -0.7294    0.3302 N   0  0  0  0  0  0  0  0  0  0  0  0
   -4.7351   -0.6372   -1.1179 C   0  0  0  0  0  0  0  0  0  0  0  0
   -5.9313   -0.9110    0.9435 C   0  0  0  0  0  0  0  0  0  0  0  0
   -6.2261   -0.4748   -1.3786 C   0  0  0  0  0  0  0  0  0  0  0  0
   -6.8592   -1.2321   -0.2193 C   0  0  0  0  0  0  0  0  0  0  0  0
    1.5713    4.8469   -1.2462 H   0  0  0  0  0  0  0  0  0  0  0  0
    4.1256    0.9076   -1.1868 H   0  0  0  0  0  0  0  0  0  0  0  0
    2.8941   -0.6229    0.3688 H   0  0  0  0  0  0  0  0  0  0  0  0
    2.0551   -1.1860   -1.0974 H   0  0  0  0  0  0  0  0  0  0  0  0
   -1.2793    2.7221    1.0447 H   0  0  0  0  0  0  0  0  0  0  0  0
    3.9005   -2.6721   -0.7274 H   0  0  0  0  0  0  0  0  0  0  0  0
    4.3130   -1.6922   -2.1364 H   0  0  0  0  0  0  0  0  0  0  0  0
   -1.5474    0.9670    2.4516 H   0  0  0  0  0  0  0  0  0  0  0  0
    0.1795    0.8140    2.1803 H   0  0  0  0  0  0  0  0  0  0  0  0
   -1.0175   -1.3679    1.8474 H   0  0  0  0  0  0  0  0  0  0  0  0
   -0.2755   -0.8587    0.3241 H   0  0  0  0  0  0  0  0  0  0  0  0
    6.3420   -3.0443    0.5954 H   0  0  0  0  0  0  0  0  0  0  0  0
   -2.3711   -0.0493   -0.4207 H   0  0  0  0  0  0  0  0  0  0  0  0
    7.6304    0.9648    0.3446 H   0  0  0  0  0  0  0  0  0  0  0  0
    8.1441   -1.3599    1.2329 H   0  0  0  0  0  0  0  0  0  0  0  0
   -4.1556    0.2053   -1.5051 H   0  0  0  0  0  0  0  0  0  0  0  0
   -4.3496   -1.5685   -1.5469 H   0  0  0  0  0  0  0  0  0  0  0  0
   -6.2071    0.0337    1.4252 H   0  0  0  0  0  0  0  0  0  0  0  0
   -5.9122   -1.7030    1.6982 H   0  0  0  0  0  0  0  0  0  0  0  0
   -6.5273   -0.8579   -2.3573 H   0  0  0  0  0  0  0  0  0  0  0  0
   -6.5037    0.5848   -1.3233 H   0  0  0  0  0  0  0  0  0  0  0  0
   -6.8413   -2.3088   -0.4275 H   0  0  0  0  0  0  0  0  0  0  0  0
   -7.8941   -0.9365   -0.0275 H   0  0  0  0  0  0  0  0  0  0  0  0
  1  2  1  0
  2  3  2  0
  2  4  1  0
  3  5  1  0
  3  6  1  0
  4  7  2  0
  5  8  2  0
  6  9  1  0
  8 10  1  0
  9 11  1  0
 10 12  1  0
 11 13  1  0
 12 14  1  0
 13 15  1  0
 13 16  2  0
 14 17  1  0
 15 18  2  0
 16 19  1  0
 17 20  1  0
 20 21  2  0
 20 22  1  0
 22 23  1  0
 22 24  1  0
 23 25  1  0
 24 26  1  0
  7  8  1  0
 18 19  1  0
 25 26  1  0
  4 27  1  0
  6 28  1  0
  9 29  1  0
  9 30  1  0
 10 31  1  0
 11 32  1  0
 11 33  1  0
 12 34  1  0
 12 35  1  0
 14 36  1  0
 14 37  1  0
 16 38  1  0
 17 39  1  0
 18 40  1  0
 19 41  1  0
 23 42  1  0
 23 43  1  0
 24 44  1  0
 24 45  1  0
 25 46  1  0
 25 47  1  0
 26 48  1  0
 26 49  1  0
M  END
>  <Molecule Name>  (5) 
EL5001A

>  <Name>  (5) 
EL5001A

>  <pIC50 PDK>  (5) 
4

>  <selection>  (5) 
Y

>  <MMFF94_energy_kcal_mol>  (5) 
-151.5602

>  <Note>  (5) 
No stereocenters; achiral molecule

$$$$
EL5003A
     RDKit          3D

  0  0  0  0  0  0  0  0  0  0999 V3000
M  V30 BEGIN CTAB
M  V30 COUNTS 56 59 0 0 0
M  V30 BEGIN ATOM
M  V30 1 Br -0.786951 -4.282858 -5.815528 0
M  V30 2 C -0.778633 -3.792061 -3.992607 0
M  V30 3 C -1.587609 -2.799628 -3.459589 0
M  V30 4 C 0.067347 -4.425009 -3.110903 0
M  V30 5 N -1.536010 -2.501271 -2.147504 0
M  V30 6 N -2.451288 -2.063992 -4.298731 0
M  V30 7 N 0.126770 -4.140994 -1.795249 0
M  V30 8 C -0.706281 -3.192088 -1.357300 0
M  V30 9 C -3.239519 -1.008181 -3.642125 0
M  V30 10 N -0.780699 -2.877110 -0.012191 0
M  V30 11 C -2.438031 0.296314 -3.537082 0
M  V30 12 C 0.460476 -2.906810 0.746537 0 CFG=1
M  V30 13 C -2.497194 0.913891 -2.184696 0
M  V30 14 C 1.319471 -1.667992 0.493945 0
M  V30 15 C 0.138087 -2.810269 2.244448 0
M  V30 16 N -3.694681 1.288372 -1.617835 0
M  V30 17 C -1.455175 1.213978 -1.335193 0
M  V30 18 C 0.645503 -0.596539 1.343105 0 CFG=1
M  V30 19 C 0.220582 -1.326723 2.617846 0
M  V30 20 C -3.383978 1.778192 -0.437963 0
M  V30 21 N -2.036359 1.751591 -0.219949 0
M  V30 22 N 1.499042 0.545205 1.598011 0
M  V30 23 C 0.966672 1.765690 1.925164 0
M  V30 24 O -0.242738 1.988088 1.917045 0
M  V30 25 N 1.891664 2.730087 2.231080 0
M  V30 26 C 3.340147 2.648579 2.110204 0
M  V30 27 C 1.472735 4.070286 2.602594 0
M  V30 28 C 3.814128 4.093207 2.192391 0
M  V30 29 C 2.751873 4.752984 3.061792 0
M  V30 30 H 0.744478 -5.208627 -3.436974 0
M  V30 31 H -3.036235 -2.714451 -4.817790 0
M  V30 32 H -3.654523 -1.347679 -2.684612 0
M  V30 33 H -4.109608 -0.815309 -4.282743 0
M  V30 34 H -1.343600 -2.032977 0.043837 0
M  V30 35 H -1.388137 0.138789 -3.815184 0
M  V30 36 H -2.835747 1.019549 -4.260453 0
M  V30 37 H 1.015557 -3.831909 0.552807 0
M  V30 38 H 2.344502 -1.846939 0.843298 0
M  V30 39 H 1.374874 -1.376566 -0.560010 0
M  V30 40 H -0.838168 -3.236439 2.500128 0
M  V30 41 H 0.893385 -3.360430 2.819226 0
M  V30 42 H -0.385913 1.082116 -1.415913 0
M  V30 43 H -0.254286 -0.244961 0.829725 0
M  V30 44 H -0.743824 -0.952194 2.978400 0
M  V30 45 H 0.943987 -1.186838 3.430035 0
M  V30 46 H -4.079962 2.160262 0.296186 0
M  V30 47 H -1.552461 2.045105 0.626151 0
M  V30 48 H 2.408411 0.354371 1.988493 0
M  V30 49 H 3.713733 2.058570 2.954139 0
M  V30 50 H 3.632103 2.164212 1.173800 0
M  V30 51 H 0.702894 4.038433 3.379487 0
M  V30 52 H 1.058749 4.554604 1.710903 0
M  V30 53 H 4.822920 4.183306 2.604205 0
M  V30 54 H 3.808572 4.546840 1.193878 0
M  V30 55 H 2.716048 5.839421 2.945102 0
M  V30 56 H 2.942897 4.524801 4.117324 0
M  V30 END ATOM
M  V30 BEGIN BOND
M  V30 1 1 1 2
M  V30 2 2 2 3
M  V30 3 1 2 4
M  V30 4 1 3 5
M  V30 5 1 3 6
M  V30 6 2 4 7
M  V30 7 2 5 8
M  V30 8 1 6 9
M  V30 9 1 8 10
M  V30 10 1 9 11
M  V30 11 1 12 10
M  V30 12 1 11 13
M  V30 13 1 12 14
M  V30 14 1 12 15
M  V30 15 1 13 16
M  V30 16 2 13 17
M  V30 17 1 14 18
M  V30 18 1 15 19
M  V30 19 2 16 20
M  V30 20 1 17 21
M  V30 21 1 18 22
M  V30 22 1 22 23
M  V30 23 2 23 24
M  V30 24 1 23 25
M  V30 25 1 25 26
M  V30 26 1 25 27
M  V30 27 1 26 28
M  V30 28 1 27 29
M  V30 29 1 7 8
M  V30 30 1 18 19
M  V30 31 1 20 21
M  V30 32 1 28 29
M  V30 33 1 4 30
M  V30 34 1 6 31
M  V30 35 1 9 32
M  V30 36 1 9 33
M  V30 37 1 10 34
M  V30 38 1 11 35
M  V30 39 1 11 36
M  V30 40 1 12 37 CFG=1
M  V30 41 1 14 38
M  V30 42 1 14 39
M  V30 43 1 15 40
M  V30 44 1 15 41
M  V30 45 1 17 42
M  V30 46 1 18 43 CFG=3
M  V30 47 1 19 44
M  V30 48 1 19 45
M  V30 49 1 20 46
M  V30 50 1 21 47
M  V30 51 1 22 48
M  V30 52 1 26 49
M  V30 53 1 26 50
M  V30 54 1 27 51
M  V30 55 1 27 52
M  V30 56 1 28 53
M  V30 57 1 28 54
M  V30 58 1 29 55
M  V30 59 1 29 56
M  V30 END BOND
M  V30 BEGIN COLLECTION
M  V30 MDLV30/STEABS ATOMS=(2 12 18)
M  V30 END COLLECTION
M  V30 END CTAB
M  END
>  <Molecule Name>  (6) 
EL5003A

>  <Name>  (6) 
EL5003A

>  <pIC50 PDK>  (6) 
4

>  <selection>  (6) 
Y

>  <MMFF94_energy_kcal_mol>  (6) 
-154.3111

>  <Note>  (6) 
Stereocenters: [(11, 'R'), (17, 'R')]; absolute config retained

$$$$
