Compound_1_ent1
 OpenBabel09072607323D

 66 68  0  0  0  0  0  0  0  0999 V2000
    3.1880    2.2148   -0.2163 O   0  0  0  0  0  0  0  0  0  0  0  0
    4.4198    1.9717   -0.3782 C   0  0  0  0  0  0  0  0  0  0  0  0
    4.9542    0.7117   -0.6675 N   0  0  0  0  0  0  0  0  0  0  0  0
    5.3383    3.0824   -0.2569 N   0  0  0  0  0  0  0  0  0  0  0  0
    4.2569   -0.4708   -0.2264 C   0  0  0  0  0  0  0  0  0  0  0  0
    6.1995    0.4915   -1.3710 C   0  0  0  0  0  0  0  0  0  0  0  0
    6.7041    2.7389   -0.4564 C   0  0  0  0  0  0  0  0  0  0  0  0
    3.1988   -0.4473    0.6481 C   0  0  0  0  0  0  0  0  0  0  0  0
    4.6209   -1.7308   -0.7099 C   0  0  0  0  0  0  0  0  0  0  0  0
    7.1225    1.6782   -1.3881 C   0  0  0  0  0  0  0  0  0  0  0  0
    7.5772    3.3634    0.1841 O   0  0  0  0  0  0  0  0  0  0  0  0
    2.5064   -1.5966    1.0497 C   0  0  0  0  0  0  0  0  0  0  0  0
    3.9813   -2.8963   -0.3533 C   0  0  0  0  0  0  0  0  0  0  0  0
    2.9314   -2.7950    0.5253 C   0  0  0  0  0  0  0  0  0  0  0  0
    1.3666   -1.4999    2.0013 C   0  0  0  0  0  0  0  0  0  0  0  0
    0.1637   -1.3237    1.2933 N   0  3  1  0  0  0  0  0  0  0  0  0
   -1.0276   -1.2067    2.0135 C   0  0  2  0  0  0  0  0  0  0  0  0
    0.2123   -0.8819   -0.0329 C   0  0  0  0  0  0  0  0  0  0  0  0
   -2.0268   -2.1824    1.5390 C   0  0  0  0  0  0  0  0  0  0  0  0
   -1.6294    0.1709    2.0679 C   0  0  0  0  0  0  0  0  0  0  0  0
    0.0711    0.6075   -0.2214 C   0  0  0  0  0  0  0  0  0  0  0  0
   -3.1843   -2.2751    2.0340 O   0  0  0  0  0  0  0  0  0  0  0  0
   -1.7242   -3.0529    0.5088 O   0  0  0  0  0  0  0  0  0  0  0  0
   -2.1384    0.6540    0.8295 N   0  0  0  0  0  0  0  0  0  0  0  0
   -1.4064    0.9945   -0.3631 C   0  0  0  0  0  0  0  0  0  0  0  0
   -2.6198   -4.0132   -0.0028 C   0  0  0  0  0  0  0  0  0  0  0  0
   -3.5337    0.8276    0.7429 C   0  0  0  0  0  0  0  0  0  0  0  0
   -4.3279    0.5816    1.6884 O   0  0  0  0  0  0  0  0  0  0  0  0
   -4.0903    1.2927   -0.4338 O   0  0  0  0  0  0  0  0  0  0  0  0
   -5.4615    1.5018   -0.6321 C   0  0  0  0  0  0  0  0  0  0  0  0
   -6.1861    0.1939   -0.4392 C   0  0  0  0  0  0  0  0  0  0  0  0
   -5.6456    2.0223   -2.0460 C   0  0  0  0  0  0  0  0  0  0  0  0
   -5.9845    2.5628    0.3383 C   0  0  0  0  0  0  0  0  0  0  0  0
    5.0429    3.9992   -0.0533 H   0  0  0  0  0  0  0  0  0  0  0  0
    5.9703    0.2314   -2.3833 H   0  0  0  0  0  0  0  0  0  0  0  0
    6.7129   -0.2866   -0.8459 H   0  0  0  0  0  0  0  0  0  0  0  0
    2.8983    0.4636    1.0289 H   0  0  0  0  0  0  0  0  0  0  0  0
    5.4120   -1.7905   -1.3699 H   0  0  0  0  0  0  0  0  0  0  0  0
    7.1426    2.0816   -2.3789 H   0  0  0  0  0  0  0  0  0  0  0  0
    8.0890    1.3395   -1.0782 H   0  0  0  0  0  0  0  0  0  0  0  0
    4.2790   -3.8093   -0.7311 H   0  0  0  0  0  0  0  0  0  0  0  0
    2.4385   -3.6574    0.8051 H   0  0  0  0  0  0  0  0  0  0  0  0
    1.5193   -0.6658    2.6539 H   0  0  0  0  0  0  0  0  0  0  0  0
    1.3089   -2.4020    2.5738 H   0  0  0  0  0  0  0  0  0  0  0  0
    0.0316   -2.3032    1.0412 H   0  0  0  0  0  0  0  0  0  0  0  0
   -0.7445   -1.4215    3.0227 H   0  0  0  0  0  0  0  0  0  0  0  0
   -0.5804   -1.3597   -0.5698 H   0  0  0  0  0  0  0  0  0  0  0  0
    1.1875   -1.1347   -0.3935 H   0  0  0  0  0  0  0  0  0  0  0  0
   -0.8740    0.8501    2.4040 H   0  0  0  0  0  0  0  0  0  0  0  0
   -2.4670    0.1055    2.7305 H   0  0  0  0  0  0  0  0  0  0  0  0
    0.5983    0.9020   -1.1047 H   0  0  0  0  0  0  0  0  0  0  0  0
    0.4779    1.1043    0.6345 H   0  0  0  0  0  0  0  0  0  0  0  0
   -1.8283    0.4712   -1.1956 H   0  0  0  0  0  0  0  0  0  0  0  0
   -1.4720    2.0513   -0.5170 H   0  0  0  0  0  0  0  0  0  0  0  0
   -2.1458   -4.5581   -0.7923 H   0  0  0  0  0  0  0  0  0  0  0  0
   -3.4914   -3.5218   -0.3819 H   0  0  0  0  0  0  0  0  0  0  0  0
   -2.9022   -4.6889    0.7773 H   0  0  0  0  0  0  0  0  0  0  0  0
   -5.8037   -0.5306   -1.1275 H   0  0  0  0  0  0  0  0  0  0  0  0
   -7.2318    0.3361   -0.6155 H   0  0  0  0  0  0  0  0  0  0  0  0
   -6.0370   -0.1521    0.5623 H   0  0  0  0  0  0  0  0  0  0  0  0
   -5.2858    1.2950   -2.7435 H   0  0  0  0  0  0  0  0  0  0  0  0
   -5.0965    2.9329   -2.1652 H   0  0  0  0  0  0  0  0  0  0  0  0
   -6.6842    2.2059   -2.2261 H   0  0  0  0  0  0  0  0  0  0  0  0
   -5.8646    2.2167    1.3437 H   0  0  0  0  0  0  0  0  0  0  0  0
   -7.0212    2.7434    0.1445 H   0  0  0  0  0  0  0  0  0  0  0  0
   -5.4335    3.4703    0.2054 H   0  0  0  0  0  0  0  0  0  0  0  0
  1  2  2  0  0  0  0
  2  3  1  0  0  0  0
  2  4  1  0  0  0  0
  3  5  1  0  0  0  0
  3  6  1  0  0  0  0
  4  7  1  0  0  0  0
  4 34  1  0  0  0  0
  5  8  2  0  0  0  0
  5  9  1  0  0  0  0
  6 10  1  0  0  0  0
  6 35  1  0  0  0  0
  6 36  1  0  0  0  0
  7 11  2  0  0  0  0
  7 10  1  0  0  0  0
  8 12  1  0  0  0  0
  8 37  1  0  0  0  0
  9 13  2  0  0  0  0
  9 38  1  0  0  0  0
 10 39  1  0  0  0  0
 10 40  1  0  0  0  0
 12 14  2  0  0  0  0
 12 15  1  0  0  0  0
 13 14  1  0  0  0  0
 13 41  1  0  0  0  0
 14 42  1  0  0  0  0
 15 16  1  0  0  0  0
 15 43  1  0  0  0  0
 15 44  1  0  0  0  0
 16 17  1  0  0  0  0
 16 18  1  0  0  0  0
 16 45  1  6  0  0  0
 17 19  1  0  0  0  0
 17 20  1  0  0  0  0
 17 46  1  1  0  0  0
 18 21  1  0  0  0  0
 18 47  1  0  0  0  0
 18 48  1  0  0  0  0
 19 22  2  0  0  0  0
 19 23  1  0  0  0  0
 20 24  1  0  0  0  0
 20 49  1  0  0  0  0
 20 50  1  0  0  0  0
 21 25  1  0  0  0  0
 21 51  1  0  0  0  0
 21 52  1  0  0  0  0
 23 26  1  0  0  0  0
 24 27  1  0  0  0  0
 24 25  1  0  0  0  0
 25 53  1  0  0  0  0
 25 54  1  0  0  0  0
 26 55  1  0  0  0  0
 26 56  1  0  0  0  0
 26 57  1  0  0  0  0
 27 28  2  0  0  0  0
 27 29  1  0  0  0  0
 29 30  1  0  0  0  0
 30 31  1  0  0  0  0
 30 32  1  0  0  0  0
 30 33  1  0  0  0  0
 31 58  1  0  0  0  0
 31 59  1  0  0  0  0
 31 60  1  0  0  0  0
 32 61  1  0  0  0  0
 32 62  1  0  0  0  0
 32 63  1  0  0  0  0
 33 64  1  0  0  0  0
 33 65  1  0  0  0  0
 33 66  1  0  0  0  0
M  CHG  1  16   1
M  END
>  <Molecule Name>
Compound 1

>  <EC50 (µM) (Excel)>
49.5

>  <Error (µM)>
6.2

>  <HTRC CRBN-DDB1 EC50 (µM)>
49.46 ±  6.19

>  <EC50 fitting (µM)>
60.01

>  <Modèle Fitting>
3PL

>  <Parent_Compound>
Compound 1

>  <MMFF94s_energy_kcalmol>
189.703
$$$$
