Compound_4_s16
 OpenBabel09072607323D

 51 54  0  0  0  0  0  0  0  0999 V2000
   -4.8826    1.8548   -0.2389 O   0  0  0  0  0  0  0  0  0  0  0  0
   -5.2492    0.6940    0.1088 C   0  0  0  0  0  0  0  0  0  0  0  0
   -4.2189   -0.2898    0.3176 N   0  0  0  0  0  0  0  0  0  0  0  0
   -6.6229    0.3945    0.2803 N   0  0  0  0  0  0  0  0  0  0  0  0
   -2.9189   -0.0138   -0.1831 C   0  0  0  0  0  0  0  0  0  0  0  0
   -4.5816   -1.4855    1.0209 C   0  0  0  0  0  0  0  0  0  0  0  0
   -6.9450   -0.9429    0.6744 C   0  0  0  0  0  0  0  0  0  0  0  0
   -1.9310    0.6388    0.5387 C   0  0  0  0  0  0  0  0  0  0  0  0
   -2.5620   -0.3953   -1.4592 C   0  0  0  0  0  0  0  0  0  0  0  0
   -5.8995   -1.9751    0.4517 C   0  0  0  0  0  0  0  0  0  0  0  0
   -8.0691   -1.1924    1.1811 O   0  0  0  0  0  0  0  0  0  0  0  0
   -0.6805    0.8857    0.0108 C   0  0  0  0  0  0  0  0  0  0  0  0
   -1.3172   -0.1543   -1.9973 C   0  0  0  0  0  0  0  0  0  0  0  0
   -0.3518    0.4921   -1.2706 C   0  0  0  0  0  0  0  0  0  0  0  0
    0.5553    1.5445    0.5465 C   0  0  1  0  0  0  0  0  0  0  0  0
    1.0550    0.9208   -1.5124 C   0  0  2  0  0  0  0  0  0  0  0  0
    1.5777    0.7572   -0.1669 N   0  0  0  0  0  0  0  0  0  0  0  0
    0.6949    2.8536   -0.1548 C   0  0  2  0  0  0  0  0  0  0  0  0
    1.0226    2.4291   -1.5807 C   0  0  1  0  0  0  0  0  0  0  0  0
    2.6899    0.0755    0.3085 C   0  0  0  0  0  0  0  0  0  0  0  0
    1.6895    3.6631    0.3744 O   0  0  0  0  0  0  0  0  0  0  0  0
    2.2539    2.9694   -1.9305 O   0  0  0  0  0  0  0  0  0  0  0  0
    3.0282    0.0164    1.5138 O   0  0  0  0  0  0  0  0  0  0  0  0
    3.4937   -0.5924   -0.6023 O   0  0  0  0  0  0  0  0  0  0  0  0
    4.6423   -1.3185   -0.2696 C   0  0  0  0  0  0  0  0  0  0  0  0
    4.2940   -2.4371    0.6766 C   0  0  0  0  0  0  0  0  0  0  0  0
    5.7248   -0.4520    0.3338 C   0  0  0  0  0  0  0  0  0  0  0  0
    5.2006   -1.9131   -1.5461 C   0  0  0  0  0  0  0  0  0  0  0  0
   -7.3215    1.0729    0.1355 H   0  0  0  0  0  0  0  0  0  0  0  0
   -4.6912   -1.2753    2.0643 H   0  0  0  0  0  0  0  0  0  0  0  0
   -3.8238   -2.2320    0.9055 H   0  0  0  0  0  0  0  0  0  0  0  0
   -2.1376    0.9495    1.5009 H   0  0  0  0  0  0  0  0  0  0  0  0
   -3.2613   -0.8850   -2.0391 H   0  0  0  0  0  0  0  0  0  0  0  0
   -6.1843   -2.8834    0.9403 H   0  0  0  0  0  0  0  0  0  0  0  0
   -5.7917   -2.1552   -0.5975 H   0  0  0  0  0  0  0  0  0  0  0  0
   -1.1090   -0.4643   -2.9594 H   0  0  0  0  0  0  0  0  0  0  0  0
    0.5856    1.6224    1.6132 H   0  0  0  0  0  0  0  0  0  0  0  0
    1.5362    0.4452   -2.3414 H   0  0  0  0  0  0  0  0  0  0  0  0
   -0.1856    3.4551   -0.0662 H   0  0  0  0  0  0  0  0  0  0  0  0
    0.3228    2.7638   -2.3177 H   0  0  0  0  0  0  0  0  0  0  0  0
    2.5395    3.1972    0.3373 H   0  0  0  0  0  0  0  0  0  0  0  0
    2.9238    2.6912   -1.2865 H   0  0  0  0  0  0  0  0  0  0  0  0
    3.8983   -2.0277    1.5825 H   0  0  0  0  0  0  0  0  0  0  0  0
    5.1736   -3.0053    0.8963 H   0  0  0  0  0  0  0  0  0  0  0  0
    3.5626   -3.0730    0.2232 H   0  0  0  0  0  0  0  0  0  0  0  0
    5.3658   -0.0129    1.2411 H   0  0  0  0  0  0  0  0  0  0  0  0
    5.9888    0.3216   -0.3567 H   0  0  0  0  0  0  0  0  0  0  0  0
    6.5858   -1.0515    0.5440 H   0  0  0  0  0  0  0  0  0  0  0  0
    4.4599   -2.5352   -2.0035 H   0  0  0  0  0  0  0  0  0  0  0  0
    6.0666   -2.4986   -1.3179 H   0  0  0  0  0  0  0  0  0  0  0  0
    5.4696   -1.1255   -2.2186 H   0  0  0  0  0  0  0  0  0  0  0  0
  1  2  2  0  0  0  0
  2  3  1  0  0  0  0
  2  4  1  0  0  0  0
  3  5  1  0  0  0  0
  3  6  1  0  0  0  0
  4  7  1  0  0  0  0
  4 29  1  0  0  0  0
  5  8  2  0  0  0  0
  5  9  1  0  0  0  0
  6 10  1  0  0  0  0
  6 30  1  0  0  0  0
  6 31  1  0  0  0  0
  7 11  2  0  0  0  0
  7 10  1  0  0  0  0
  8 12  1  0  0  0  0
  8 32  1  0  0  0  0
  9 13  2  0  0  0  0
  9 33  1  0  0  0  0
 10 34  1  0  0  0  0
 10 35  1  0  0  0  0
 12 14  2  0  0  0  0
 13 14  1  0  0  0  0
 13 36  1  0  0  0  0
 15 12  1  0  0  0  0
 15 17  1  0  0  0  0
 15 18  1  0  0  0  0
 15 37  1  1  0  0  0
 16 14  1  0  0  0  0
 16 19  1  0  0  0  0
 16 17  1  0  0  0  0
 16 38  1  6  0  0  0
 17 20  1  0  0  0  0
 18 21  1  0  0  0  0
 18 19  1  0  0  0  0
 18 39  1  1  0  0  0
 19 22  1  0  0  0  0
 19 40  1  6  0  0  0
 20 23  2  0  0  0  0
 20 24  1  0  0  0  0
 21 41  1  0  0  0  0
 22 42  1  0  0  0  0
 24 25  1  0  0  0  0
 25 26  1  0  0  0  0
 25 27  1  0  0  0  0
 25 28  1  0  0  0  0
 26 43  1  0  0  0  0
 26 44  1  0  0  0  0
 26 45  1  0  0  0  0
 27 46  1  0  0  0  0
 27 47  1  0  0  0  0
 27 48  1  0  0  0  0
 28 49  1  0  0  0  0
 28 50  1  0  0  0  0
 28 51  1  0  0  0  0
M  END
>  <Molecule Name>
Compound 4

>  <EC50 (µM) (Excel)>
11.8

>  <Error (µM)>
7.4

>  <HTRC CRBN-DDB1 EC50 (µM)>
11.78 ±  7.41

>  <EC50 fitting (µM)>
15.10

>  <Modèle Fitting>
4PL

>  <Parent_Compound>
Compound 4

>  <MMFF94s_energy_kcalmol>
166.183
$$$$
