Compound_4_s8


 31 34  0  0  0  0  0  0  0  0999 V2000
   84.3676  154.8764   14.3062 C   0  0  0  0  0  0  0  0  0  0  0  0
   85.0701  153.6869   14.4213 C   0  0  0  0  0  0  0  0  0  0  0  0
   82.9943  154.7512   14.2636 C   0  0  0  0  0  0  0  0  0  0  0  0
   84.4612  152.4396   14.4919 C   0  0  0  0  0  0  0  0  0  0  0  0
   82.3571  153.5131   14.3321 C   0  0  0  0  0  0  0  0  0  0  0  0
   83.0829  152.3575   14.4461 C   0  0  0  0  0  0  0  0  0  0  0  0
   84.9443  151.0411   14.6142 C   0  0  0  0  0  0  0  0  0  0  0  0
   82.7435  150.9046   14.5431 C   0  0  0  0  0  0  0  0  0  0  0  0
   83.8526  150.4812   15.3969 N   0  0  0  0  0  0  0  0  0  0  0  0
   84.6623  150.3869   13.2813 C   0  0  0  0  0  0  0  0  0  0  0  0
   83.1439  150.2343   13.2493 C   0  0  0  0  0  0  0  0  0  0  0  0
   83.8550  149.7532   16.6071 C   0  0  0  0  0  0  0  0  0  0  0  0
   85.2997  149.1654   13.1471 O   0  0  0  0  0  0  0  0  0  0  0  0
   82.5857  150.8251   12.1368 O   0  0  0  0  0  0  0  0  0  0  0  0
   84.9608  149.5088   17.1630 O   0  0  0  0  0  0  0  0  0  0  0  0
   85.0125  148.5710   13.8579 H   0  0  0  0  0  0  0  0  0  0  0  0
   82.8359  151.7619   12.1083 H   0  0  0  0  0  0  0  0  0  0  0  0
   85.8212  156.0155   12.0751 O   0  0  0  0  0  0  0  0  0  0  0  0
   85.4733  156.7144   13.0413 C   0  0  0  0  0  0  0  0  0  0  0  0
   85.0307  156.1288   14.2599 N   0  0  0  0  0  0  0  0  0  0  0  0
   85.5074  158.1495   12.9640 N   0  0  0  0  0  0  0  0  0  0  0  0
   85.2787  156.9299   15.4414 C   0  0  0  0  0  0  0  0  0  0  0  0
   85.1089  158.9325   14.0803 C   0  0  0  0  0  0  0  0  0  0  0  0
   84.5335  158.2545   15.2592 C   0  0  0  0  0  0  0  0  0  0  0  0
   85.2712  160.1745   13.9990 O   0  0  0  0  0  0  0  0  0  0  0  0
   85.8074  158.5903   12.1363 H   0  0  0  0  0  0  0  0  0  0  0  0
   82.7233  149.2915   17.2213 O   0  0  0  0  0  0  0  0  0  0  0  0
   81.9409  150.0118   18.1279 C   0  0  0  0  0  0  0  0  0  0  0  0
   81.2262  149.1178   19.1191 C   0  0  0  0  0  0  0  0  0  0  0  0
   80.9696  150.9526   17.4383 C   0  0  0  0  0  0  0  0  0  0  0  0
   82.8863  150.8907   18.9491 C   0  0  0  0  0  0  0  0  0  0  0  0
 18 19  2  0
 19 20  1  0
 19 21  1  0
 20  1  1  0
 20 22  1  0
 21 23  1  0
 21 26  1  0
  1  2  2  0
  1  3  1  0
 22 24  1  0
 23 25  2  0
 23 24  1  0
  2  4  1  0
  3  5  2  0
  4  6  2  0
  5  6  1  0
  7  4  1  0
  7  9  1  0
  7 10  1  0
  8  6  1  0
  8 11  1  0
  8  9  1  0
  9 12  1  0
 10 13  1  0
 10 11  1  0
 11 14  1  0
 12 15  2  0
 12 27  1  0
 13 16  1  0
 14 17  1  0
 27 28  1  0
 28 29  1  0
 28 30  1  0
 28 31  1  0
M  END
> <Molecule Name>
Compound 4

> <EC50 (µM) (Excel)>
11.8

> <Error (µM)>
7.4

> <HTRC CRBN-DDB1 EC50 (µM)>
11.78 ±  7.41

> <EC50 fitting (µM)>
15.10

> <Modèle Fitting>
4PL

> <Parent_Compound>
Compound 4

> <MMFF94s_energy_kcalmol>
162.344
$$$$

> <minimizedAffinity>
-9.62761

> <CNNscore>
0.9506933093

> <CNNaffinity>
7.3901457787

> <CNN_VS>
7.0257620811

> <CNNaffinity_variance>
0.4433907568

$$$$
Compound_4_s8


 31 34  0  0  0  0  0  0  0  0999 V2000
   84.2038  154.5978   14.6179 C   0  0  0  0  0  0  0  0  0  0  0  0
   84.7038  153.6299   15.4752 C   0  0  0  0  0  0  0  0  0  0  0  0
   82.9644  154.3257   14.0763 C   0  0  0  0  0  0  0  0  0  0  0  0
   84.0264  152.4572   15.7874 C   0  0  0  0  0  0  0  0  0  0  0  0
   82.2629  153.1577   14.3716 C   0  0  0  0  0  0  0  0  0  0  0  0
   82.7871  152.2227   15.2238 C   0  0  0  0  0  0  0  0  0  0  0  0
   84.3082  151.2789   16.6456 C   0  0  0  0  0  0  0  0  0  0  0  0
   82.3281  150.9005   15.7496 C   0  0  0  0  0  0  0  0  0  0  0  0
   82.9520  150.9659   17.0705 N   0  0  0  0  0  0  0  0  0  0  0  0
   84.5503  150.1253   15.6997 C   0  0  0  0  0  0  0  0  0  0  0  0
   83.1727  149.8176   15.1190 C   0  0  0  0  0  0  0  0  0  0  0  0
   82.4008  150.7809   18.3576 C   0  0  0  0  0  0  0  0  0  0  0  0
   85.0912  149.0229   16.3388 O   0  0  0  0  0  0  0  0  0  0  0  0
   83.1683  149.8591   13.7419 O   0  0  0  0  0  0  0  0  0  0  0  0
   83.1579  150.8914   19.3607 O   0  0  0  0  0  0  0  0  0  0  0  0
   84.4927  148.7325   17.0448 H   0  0  0  0  0  0  0  0  0  0  0  0
   83.4788  150.7283   13.4436 H   0  0  0  0  0  0  0  0  0  0  0  0
   85.6105  155.2871   12.1818 O   0  0  0  0  0  0  0  0  0  0  0  0
   85.3367  156.1490   13.0334 C   0  0  0  0  0  0  0  0  0  0  0  0
   84.9207  155.7903   14.3457 N   0  0  0  0  0  0  0  0  0  0  0  0
   85.4329  157.5494   12.7229 N   0  0  0  0  0  0  0  0  0  0  0  0
   85.2555  156.7566   15.3719 C   0  0  0  0  0  0  0  0  0  0  0  0
   85.1189  158.5210   13.7105 C   0  0  0  0  0  0  0  0  0  0  0  0
   84.5644  158.0718   15.0033 C   0  0  0  0  0  0  0  0  0  0  0  0
   85.3340  159.7237   13.4230 O   0  0  0  0  0  0  0  0  0  0  0  0
   85.7169  157.8354   11.8247 H   0  0  0  0  0  0  0  0  0  0  0  0
   81.0851  150.4866   18.5885 O   0  0  0  0  0  0  0  0  0  0  0  0
   80.5832  149.2279   18.9303 C   0  0  0  0  0  0  0  0  0  0  0  0
   81.1262  148.7233   20.2505 C   0  0  0  0  0  0  0  0  0  0  0  0
   80.7822  148.2036   17.8279 C   0  0  0  0  0  0  0  0  0  0  0  0
   79.0718  149.3746   19.1176 C   0  0  0  0  0  0  0  0  0  0  0  0
 18 19  2  0
 19 20  1  0
 19 21  1  0
 20  1  1  0
 20 22  1  0
 21 23  1  0
 21 26  1  0
  1  2  2  0
  1  3  1  0
 22 24  1  0
 23 25  2  0
 23 24  1  0
  2  4  1  0
  3  5  2  0
  4  6  2  0
  5  6  1  0
  7  4  1  0
  7  9  1  0
  7 10  1  0
  8  6  1  0
  8 11  1  0
  8  9  1  0
  9 12  1  0
 10 13  1  0
 10 11  1  0
 11 14  1  0
 12 15  2  0
 12 27  1  0
 13 16  1  0
 14 17  1  0
 27 28  1  0
 28 29  1  0
 28 30  1  0
 28 31  1  0
M  END
> <Molecule Name>
Compound 4

> <EC50 (µM) (Excel)>
11.8

> <Error (µM)>
7.4

> <HTRC CRBN-DDB1 EC50 (µM)>
11.78 ±  7.41

> <EC50 fitting (µM)>
15.10

> <Modèle Fitting>
4PL

> <Parent_Compound>
Compound 4

> <MMFF94s_energy_kcalmol>
162.344
$$$$

> <minimizedAffinity>
-8.86716

> <CNNscore>
0.9308413863

> <CNNaffinity>
7.2933297157

> <CNN_VS>
6.7889332771

> <CNNaffinity_variance>
0.5968979001

$$$$
Compound_4_s8


 31 34  0  0  0  0  0  0  0  0999 V2000
   84.5351  153.9987   13.8093 C   0  0  0  0  0  0  0  0  0  0  0  0
   83.8965  153.4703   14.9206 C   0  0  0  0  0  0  0  0  0  0  0  0
   84.5089  153.2073   12.6796 C   0  0  0  0  0  0  0  0  0  0  0  0
   83.2645  152.2326   14.9265 C   0  0  0  0  0  0  0  0  0  0  0  0
   83.8827  151.9620   12.6572 C   0  0  0  0  0  0  0  0  0  0  0  0
   83.2607  151.4709   13.7739 C   0  0  0  0  0  0  0  0  0  0  0  0
   82.5235  151.4371   15.9376 C   0  0  0  0  0  0  0  0  0  0  0  0
   82.5132  150.2175   14.0992 C   0  0  0  0  0  0  0  0  0  0  0  0
   81.5662  150.7760   15.0634 N   0  0  0  0  0  0  0  0  0  0  0  0
   83.4130  150.2625   16.2741 C   0  0  0  0  0  0  0  0  0  0  0  0
   83.3642  149.3826   15.0278 C   0  0  0  0  0  0  0  0  0  0  0  0
   80.1574  150.6941   15.1212 C   0  0  0  0  0  0  0  0  0  0  0  0
   82.9817  149.5783   17.3976 O   0  0  0  0  0  0  0  0  0  0  0  0
   84.6206  149.1228   14.5257 O   0  0  0  0  0  0  0  0  0  0  0  0
   79.5571  151.2713   16.0688 O   0  0  0  0  0  0  0  0  0  0  0  0
   82.0771  149.2588   17.2542 H   0  0  0  0  0  0  0  0  0  0  0  0
   85.0723  149.9599   14.3358 H   0  0  0  0  0  0  0  0  0  0  0  0
   86.2942  155.1588   11.8223 O   0  0  0  0  0  0  0  0  0  0  0  0
   85.7640  155.8591   12.7007 C   0  0  0  0  0  0  0  0  0  0  0  0
   85.1481  155.2767   13.8431 N   0  0  0  0  0  0  0  0  0  0  0  0
   85.7554  157.2928   12.5955 N   0  0  0  0  0  0  0  0  0  0  0  0
   85.1654  156.1079   15.0297 C   0  0  0  0  0  0  0  0  0  0  0  0
   85.1472  158.0777   13.6114 C   0  0  0  0  0  0  0  0  0  0  0  0
   84.4105  157.3968   14.6950 C   0  0  0  0  0  0  0  0  0  0  0  0
   85.2729  159.3238   13.5282 O   0  0  0  0  0  0  0  0  0  0  0  0
   86.1715  157.7313   11.8184 H   0  0  0  0  0  0  0  0  0  0  0  0
   79.3946  150.0224   14.2059 O   0  0  0  0  0  0  0  0  0  0  0  0
   78.2155  149.3267   14.4867 C   0  0  0  0  0  0  0  0  0  0  0  0
   77.5061  148.8538   13.2354 C   0  0  0  0  0  0  0  0  0  0  0  0
   77.2774  150.1116   15.3856 C   0  0  0  0  0  0  0  0  0  0  0  0
   78.6031  148.0653   15.2610 C   0  0  0  0  0  0  0  0  0  0  0  0
 18 19  2  0
 19 20  1  0
 19 21  1  0
 20  1  1  0
 20 22  1  0
 21 23  1  0
 21 26  1  0
  1  2  2  0
  1  3  1  0
 22 24  1  0
 23 25  2  0
 23 24  1  0
  2  4  1  0
  3  5  2  0
  4  6  2  0
  5  6  1  0
  7  4  1  0
  7  9  1  0
  7 10  1  0
  8  6  1  0
  8 11  1  0
  8  9  1  0
  9 12  1  0
 10 13  1  0
 10 11  1  0
 11 14  1  0
 12 15  2  0
 12 27  1  0
 13 16  1  0
 14 17  1  0
 27 28  1  0
 28 29  1  0
 28 30  1  0
 28 31  1  0
M  END
> <Molecule Name>
Compound 4

> <EC50 (µM) (Excel)>
11.8

> <Error (µM)>
7.4

> <HTRC CRBN-DDB1 EC50 (µM)>
11.78 ±  7.41

> <EC50 fitting (µM)>
15.10

> <Modèle Fitting>
4PL

> <Parent_Compound>
Compound 4

> <MMFF94s_energy_kcalmol>
162.344
$$$$

> <minimizedAffinity>
-8.88562

> <CNNscore>
0.7516818047

> <CNNaffinity>
6.7546806335

> <CNN_VS>
5.0773706436

> <CNNaffinity_variance>
0.2073255330

$$$$
Compound_4_s8


 31 34  0  0  0  0  0  0  0  0999 V2000
   84.6908  154.0404   14.6726 C   0  0  0  0  0  0  0  0  0  0  0  0
   83.3979  153.6635   14.3438 C   0  0  0  0  0  0  0  0  0  0  0  0
   85.4310  153.0908   15.3463 C   0  0  0  0  0  0  0  0  0  0  0  0
   82.8571  152.4221   14.6568 C   0  0  0  0  0  0  0  0  0  0  0  0
   84.9140  151.8380   15.6733 C   0  0  0  0  0  0  0  0  0  0  0  0
   83.6319  151.4989   15.3322 C   0  0  0  0  0  0  0  0  0  0  0  0
   81.5446  151.7635   14.4380 C   0  0  0  0  0  0  0  0  0  0  0  0
   82.7782  150.2852   15.5150 C   0  0  0  0  0  0  0  0  0  0  0  0
   81.9929  150.3874   14.2857 N   0  0  0  0  0  0  0  0  0  0  0  0
   80.8957  151.6696   15.7997 C   0  0  0  0  0  0  0  0  0  0  0  0
   81.7073  150.6045   16.5322 C   0  0  0  0  0  0  0  0  0  0  0  0
   81.7494  149.4379   13.2689 C   0  0  0  0  0  0  0  0  0  0  0  0
   79.5566  151.3269   15.7241 O   0  0  0  0  0  0  0  0  0  0  0  0
   82.2144  151.0678   17.7266 O   0  0  0  0  0  0  0  0  0  0  0  0
   81.0255  149.7720   12.2911 O   0  0  0  0  0  0  0  0  0  0  0  0
   79.4663  150.4737   15.2715 H   0  0  0  0  0  0  0  0  0  0  0  0
   82.7541  151.8573   17.5642 H   0  0  0  0  0  0  0  0  0  0  0  0
   86.0684  154.7499   12.2257 O   0  0  0  0  0  0  0  0  0  0  0  0
   85.6157  155.6217   12.9860 C   0  0  0  0  0  0  0  0  0  0  0  0
   85.2080  155.3105   14.3130 N   0  0  0  0  0  0  0  0  0  0  0  0
   85.4883  156.9860   12.5511 N   0  0  0  0  0  0  0  0  0  0  0  0
   85.3292  156.4043   15.2554 C   0  0  0  0  0  0  0  0  0  0  0  0
   84.9714  157.9701   13.4355 C   0  0  0  0  0  0  0  0  0  0  0  0
   84.4435  157.5447   14.7474 C   0  0  0  0  0  0  0  0  0  0  0  0
   84.9934  159.1628   13.0451 O   0  0  0  0  0  0  0  0  0  0  0  0
   85.7597  157.2386   11.6390 H   0  0  0  0  0  0  0  0  0  0  0  0
   82.2535  148.1664   13.2765 O   0  0  0  0  0  0  0  0  0  0  0  0
   81.5692  147.0250   13.7030 C   0  0  0  0  0  0  0  0  0  0  0  0
   80.7563  147.2679   14.9571 C   0  0  0  0  0  0  0  0  0  0  0  0
   82.4848  145.8254   13.8667 C   0  0  0  0  0  0  0  0  0  0  0  0
   80.5660  146.6581   12.6076 C   0  0  0  0  0  0  0  0  0  0  0  0
 18 19  2  0
 19 20  1  0
 19 21  1  0
 20  1  1  0
 20 22  1  0
 21 23  1  0
 21 26  1  0
  1  2  2  0
  1  3  1  0
 22 24  1  0
 23 25  2  0
 23 24  1  0
  2  4  1  0
  3  5  2  0
  4  6  2  0
  5  6  1  0
  7  4  1  0
  7  9  1  0
  7 10  1  0
  8  6  1  0
  8 11  1  0
  8  9  1  0
  9 12  1  0
 10 13  1  0
 10 11  1  0
 11 14  1  0
 12 15  2  0
 12 27  1  0
 13 16  1  0
 14 17  1  0
 27 28  1  0
 28 29  1  0
 28 30  1  0
 28 31  1  0
M  END
> <Molecule Name>
Compound 4

> <EC50 (µM) (Excel)>
11.8

> <Error (µM)>
7.4

> <HTRC CRBN-DDB1 EC50 (µM)>
11.78 ±  7.41

> <EC50 fitting (µM)>
15.10

> <Modèle Fitting>
4PL

> <Parent_Compound>
Compound 4

> <MMFF94s_energy_kcalmol>
162.344
$$$$

> <minimizedAffinity>
-8.14380

> <CNNscore>
0.6264209151

> <CNNaffinity>
6.3884100914

> <CNN_VS>
4.0018339157

> <CNNaffinity_variance>
0.4495231807

$$$$
Compound_4_s8


 31 34  0  0  0  0  0  0  0  0999 V2000
   78.7876  148.0924   12.8017 C   0  0  0  0  0  0  0  0  0  0  0  0
   78.4990  148.3147   14.1393 C   0  0  0  0  0  0  0  0  0  0  0  0
   80.0315  148.5199   12.3855 C   0  0  0  0  0  0  0  0  0  0  0  0
   79.3815  148.9227   15.0242 C   0  0  0  0  0  0  0  0  0  0  0  0
   80.9363  149.1328   13.2511 C   0  0  0  0  0  0  0  0  0  0  0  0
   80.6180  149.3362   14.5674 C   0  0  0  0  0  0  0  0  0  0  0  0
   79.3442  149.2798   16.4648 C   0  0  0  0  0  0  0  0  0  0  0  0
   81.3206  149.9405   15.7407 C   0  0  0  0  0  0  0  0  0  0  0  0
   80.7507  149.0970   16.7905 N   0  0  0  0  0  0  0  0  0  0  0  0
   79.2659  150.7882   16.5162 C   0  0  0  0  0  0  0  0  0  0  0  0
   80.6504  151.2535   16.0730 C   0  0  0  0  0  0  0  0  0  0  0  0
   81.3790  148.3409   17.8045 C   0  0  0  0  0  0  0  0  0  0  0  0
   78.9512  151.2579   17.7798 O   0  0  0  0  0  0  0  0  0  0  0  0
   80.5898  152.1181   15.0020 O   0  0  0  0  0  0  0  0  0  0  0  0
   80.6570  147.6842   18.6038 O   0  0  0  0  0  0  0  0  0  0  0  0
   79.6200  150.9544   18.4134 H   0  0  0  0  0  0  0  0  0  0  0  0
   80.1214  151.6909   14.2678 H   0  0  0  0  0  0  0  0  0  0  0  0
   75.8962  148.1594   12.9557 O   0  0  0  0  0  0  0  0  0  0  0  0
   76.4777  147.7653   11.9312 C   0  0  0  0  0  0  0  0  0  0  0  0
   77.8643  147.4476   11.9403 N   0  0  0  0  0  0  0  0  0  0  0  0
   75.7659  147.6127   10.6915 N   0  0  0  0  0  0  0  0  0  0  0  0
   78.2611  146.4420   10.9758 C   0  0  0  0  0  0  0  0  0  0  0  0
   76.4468  147.1578    9.5307 C   0  0  0  0  0  0  0  0  0  0  0  0
   77.9117  146.9797    9.5858 C   0  0  0  0  0  0  0  0  0  0  0  0
   75.7535  146.9299    8.5095 O   0  0  0  0  0  0  0  0  0  0  0  0
   74.8053  147.8238   10.6469 H   0  0  0  0  0  0  0  0  0  0  0  0
   82.7343  148.2745   17.9770 O   0  0  0  0  0  0  0  0  0  0  0  0
   83.5271  149.2652   18.5628 C   0  0  0  0  0  0  0  0  0  0  0  0
   82.7094  150.3086   19.2943 C   0  0  0  0  0  0  0  0  0  0  0  0
   84.4787  149.9100   17.5714 C   0  0  0  0  0  0  0  0  0  0  0  0
   84.3987  148.5859   19.6210 C   0  0  0  0  0  0  0  0  0  0  0  0
 18 19  2  0
 19 20  1  0
 19 21  1  0
 20  1  1  0
 20 22  1  0
 21 23  1  0
 21 26  1  0
  1  2  2  0
  1  3  1  0
 22 24  1  0
 23 25  2  0
 23 24  1  0
  2  4  1  0
  3  5  2  0
  4  6  2  0
  5  6  1  0
  7  4  1  0
  7  9  1  0
  7 10  1  0
  8  6  1  0
  8 11  1  0
  8  9  1  0
  9 12  1  0
 10 13  1  0
 10 11  1  0
 11 14  1  0
 12 15  2  0
 12 27  1  0
 13 16  1  0
 14 17  1  0
 27 28  1  0
 28 29  1  0
 28 30  1  0
 28 31  1  0
M  END
> <Molecule Name>
Compound 4

> <EC50 (µM) (Excel)>
11.8

> <Error (µM)>
7.4

> <HTRC CRBN-DDB1 EC50 (µM)>
11.78 ±  7.41

> <EC50 fitting (µM)>
15.10

> <Modèle Fitting>
4PL

> <Parent_Compound>
Compound 4

> <MMFF94s_energy_kcalmol>
162.344
$$$$

> <minimizedAffinity>
-5.22046

> <CNNscore>
0.2890953124

> <CNNaffinity>
4.4260067940

> <CNN_VS>
1.2795377970

> <CNNaffinity_variance>
0.1261775643

$$$$
