Compound_8_ent2


 31 33  0  0  0  0  0  0  0  0999 V2000
   82.1823  151.0385   14.9622 C   0  0  0  0  0  0  0  0  0  0  0  0
   82.5565  152.3602   14.9816 C   0  0  0  0  0  0  0  0  0  0  0  0
   82.5117  150.2507   13.9008 C   0  0  0  0  0  0  0  0  0  0  0  0
   83.2607  152.9143   13.9496 C   0  0  0  0  0  0  0  0  0  0  0  0
   83.2245  150.8191   12.8603 C   0  0  0  0  0  0  0  0  0  0  0  0
   83.6037  152.1544   12.8777 C   0  0  0  0  0  0  0  0  0  0  0  0
   83.6370  154.3328   14.0173 C   0  0  0  0  0  0  0  0  0  0  0  0
   82.7158  155.2085   13.8851 O   0  0  0  0  0  0  0  0  0  0  0  0
   84.9370  154.8050   14.2168 N   0  0  0  0  0  0  0  0  0  0  0  0
   85.6813  154.1696   14.3241 H   0  0  0  0  0  0  0  0  0  0  0  0
   85.1869  156.2259   14.2655 C   0  0  0  0  0  0  0  0  0  0  0  0
   85.3057  156.8185   12.9107 C   0  0  0  0  0  0  0  0  0  0  0  0
   84.1012  156.9754   14.9951 C   0  0  0  0  0  0  0  0  0  0  0  0
   85.4368  156.1581   11.8500 O   0  0  0  0  0  0  0  0  0  0  0  0
   85.2663  158.2340   12.8289 N   0  0  0  0  0  0  0  0  0  0  0  0
   84.6560  158.3753   15.2725 C   0  0  0  0  0  0  0  0  0  0  0  0
   85.1557  158.9974   14.0229 C   0  0  0  0  0  0  0  0  0  0  0  0
   85.4744  160.2027   14.0483 O   0  0  0  0  0  0  0  0  0  0  0  0
   85.3149  158.6831   11.9542 H   0  0  0  0  0  0  0  0  0  0  0  0
   81.4218  150.5241   16.1225 C   0  0  0  0  0  0  0  0  0  0  0  0
   79.2128  150.1733   17.3906 S   0  0  0  0  0  0  0  0  0  0  0  0
   78.7271  151.4344   18.0173 O   0  0  0  0  0  0  0  0  0  0  0  0
   80.1262  149.3936   18.2960 O   0  0  0  0  0  0  0  0  0  0  0  0
   79.9867  150.5544   15.9204 N   0  0  0  0  0  0  0  0  0  0  0  0
   77.7589  149.1944   16.9888 C   0  0  0  0  0  0  0  0  0  0  0  0
   79.6618  149.6849   14.8358 C   0  0  0  0  0  0  0  0  0  0  0  0
   76.8051  150.0705   16.2063 C   0  0  0  0  0  0  0  0  0  0  0  0
   78.2603  149.8663   14.3146 C   0  0  0  0  0  0  0  0  0  0  0  0
   77.5236  150.7754   15.1662 N   0  0  0  0  0  0  0  0  0  0  0  0
   78.1784  151.4264   15.5995 H   0  0  0  0  0  0  0  0  0  0  0  0
   76.8436  151.2708   14.5895 H   0  0  0  0  0  0  0  0  0  0  0  0
 21 22  2  0
 21 23  2  0
 21 24  1  0
 21 25  1  0
 24 26  1  0
 24 20  1  0
 25 27  1  0
 26 28  1  0
 20  1  1  0
 27 29  1  0
 28 29  1  0
  1  2  2  0
  1  3  1  0
 29 30  1  0
 29 31  1  0
  2  4  1  0
  3  5  2  0
  4  7  1  0
  4  6  2  0
  5  6  1  0
  7  8  2  0
  7  9  1  0
  9 10  1  0
 11  9  1  0
 11 12  1  0
 11 13  1  0
 12 14  2  0
 12 15  1  0
 13 16  1  0
 15 17  1  0
 15 19  1  0
 16 17  1  0
 17 18  2  0
M  CHG 1  29   1
M  END
> <Molecule Name>
Compound 8

> <EC50 (µM) (Excel)>
6.8

> <Error (µM)>
1.0

> <HTRC CRBN-DDB1 EC50 (µM)>
6.77 ±  1.02

> <EC50 fitting (µM)>
7.19

> <Modèle Fitting>
4PL

> <Parent_Compound>
Compound 8

> <MMFF94s_energy_kcalmol>
109.581
$$$$
