Compound_4_s1


 31 34  0  0  0  0  0  0  0  0999 V2000
   83.9846  154.9627   14.3503 C   0  0  0  0  0  0  0  0  0  0  0  0
   84.6303  153.7887   14.6882 C   0  0  0  0  0  0  0  0  0  0  0  0
   82.6296  154.9952   14.1501 C   0  0  0  0  0  0  0  0  0  0  0  0
   83.9573  152.6180   14.8372 C   0  0  0  0  0  0  0  0  0  0  0  0
   81.9386  153.7995   14.3017 C   0  0  0  0  0  0  0  0  0  0  0  0
   82.5847  152.6321   14.6382 C   0  0  0  0  0  0  0  0  0  0  0  0
   84.2932  151.2037   15.1828 C   0  0  0  0  0  0  0  0  0  0  0  0
   82.1112  151.2516   14.8578 C   0  0  0  0  0  0  0  0  0  0  0  0
   83.2818  150.5138   14.4008 N   0  0  0  0  0  0  0  0  0  0  0  0
   83.7331  150.9826   16.5689 C   0  0  0  0  0  0  0  0  0  0  0  0
   82.2199  150.9943   16.3460 C   0  0  0  0  0  0  0  0  0  0  0  0
   83.3295  149.4663   13.4803 C   0  0  0  0  0  0  0  0  0  0  0  0
   84.1714  149.7366   17.0021 O   0  0  0  0  0  0  0  0  0  0  0  0
   81.7212  149.7200   16.5828 O   0  0  0  0  0  0  0  0  0  0  0  0
   84.3716  148.8673   13.1247 O   0  0  0  0  0  0  0  0  0  0  0  0
   83.9158  149.0609   16.3549 H   0  0  0  0  0  0  0  0  0  0  0  0
   82.1890  149.0806   16.0232 H   0  0  0  0  0  0  0  0  0  0  0  0
   84.9074  156.0103   11.8932 O   0  0  0  0  0  0  0  0  0  0  0  0
   84.9086  156.7436   12.9188 C   0  0  0  0  0  0  0  0  0  0  0  0
   84.7399  156.1803   14.2032 N   0  0  0  0  0  0  0  0  0  0  0  0
   85.0796  158.1499   12.8013 N   0  0  0  0  0  0  0  0  0  0  0  0
   85.3327  156.8438   15.3427 C   0  0  0  0  0  0  0  0  0  0  0  0
   85.0712  158.9216   14.0005 C   0  0  0  0  0  0  0  0  0  0  0  0
   84.9321  158.2894   15.3295 C   0  0  0  0  0  0  0  0  0  0  0  0
   85.1843  160.1546   13.9109 O   0  0  0  0  0  0  0  0  0  0  0  0
   85.1997  158.5765   11.9223 H   0  0  0  0  0  0  0  0  0  0  0  0
   82.1436  149.0350   12.8981 O   0  0  0  0  0  0  0  0  0  0  0  0
   81.6395  147.7364   13.0137 C   0  0  0  0  0  0  0  0  0  0  0  0
   80.3669  147.5206   12.2237 C   0  0  0  0  0  0  0  0  0  0  0  0
   82.6367  146.6735   12.6302 C   0  0  0  0  0  0  0  0  0  0  0  0
   81.3164  147.5162   14.4965 C   0  0  0  0  0  0  0  0  0  0  0  0
 18 19  2  0
 19 20  1  0
 19 21  1  0
 20  1  1  0
 20 22  1  0
 21 23  1  0
 21 26  1  0
  1  2  2  0
  1  3  1  0
 22 24  1  0
 23 25  2  0
 23 24  1  0
  2  4  1  0
  3  5  2  0
  4  6  2  0
  5  6  1  0
  7  4  1  0
  7  9  1  0
  7 10  1  0
  8  6  1  0
  8 11  1  0
  8  9  1  0
  9 12  1  0
 10 13  1  0
 10 11  1  0
 11 14  1  0
 12 15  2  0
 12 27  1  0
 13 16  1  0
 14 17  1  0
 27 28  1  0
 28 29  1  0
 28 30  1  0
 28 31  1  0
M  END
> <Molecule Name>
Compound 4

> <EC50 (µM) (Excel)>
11.8

> <Error (µM)>
7.4

> <HTRC CRBN-DDB1 EC50 (µM)>
11.78 ±  7.41

> <EC50 fitting (µM)>
15.10

> <Modèle Fitting>
4PL

> <Parent_Compound>
Compound 4

> <MMFF94s_energy_kcalmol>
171.662
$$$$

> <minimizedAffinity>
-8.35683

> <CNNscore>
0.8732074499

> <CNNaffinity>
7.1393609047

> <CNN_VS>
6.2341432571

> <CNNaffinity_variance>
0.3904861510

$$$$
Compound_4_s1


 31 34  0  0  0  0  0  0  0  0999 V2000
   84.4647  154.0902   14.0381 C   0  0  0  0  0  0  0  0  0  0  0  0
   84.1052  153.5477   15.2570 C   0  0  0  0  0  0  0  0  0  0  0  0
   84.2296  153.4207   12.8661 C   0  0  0  0  0  0  0  0  0  0  0  0
   83.5055  152.3324   15.3515 C   0  0  0  0  0  0  0  0  0  0  0  0
   83.6164  152.1775   12.9596 C   0  0  0  0  0  0  0  0  0  0  0  0
   83.2598  151.6401   14.1750 C   0  0  0  0  0  0  0  0  0  0  0  0
   82.9900  151.4529   16.4439 C   0  0  0  0  0  0  0  0  0  0  0  0
   82.6129  150.3702   14.5586 C   0  0  0  0  0  0  0  0  0  0  0  0
   83.2470  150.1513   15.8522 N   0  0  0  0  0  0  0  0  0  0  0  0
   81.4845  151.4931   16.3183 C   0  0  0  0  0  0  0  0  0  0  0  0
   81.2161  150.7255   15.0228 C   0  0  0  0  0  0  0  0  0  0  0  0
   83.8897  148.9998   16.3081 C   0  0  0  0  0  0  0  0  0  0  0  0
   80.9561  150.8287   17.4192 O   0  0  0  0  0  0  0  0  0  0  0  0
   80.5679  149.5366   15.3313 O   0  0  0  0  0  0  0  0  0  0  0  0
   84.4192  148.8699   17.4368 O   0  0  0  0  0  0  0  0  0  0  0  0
   81.3299  149.9349   17.4675 H   0  0  0  0  0  0  0  0  0  0  0  0
   81.0964  149.0374   15.9734 H   0  0  0  0  0  0  0  0  0  0  0  0
   86.0480  155.0347   11.8963 O   0  0  0  0  0  0  0  0  0  0  0  0
   85.6310  155.8485   12.7643 C   0  0  0  0  0  0  0  0  0  0  0  0
   85.0987  155.3826   13.9870 N   0  0  0  0  0  0  0  0  0  0  0  0
   85.6888  157.2492   12.5284 N   0  0  0  0  0  0  0  0  0  0  0  0
   85.2046  156.2190   15.1614 C   0  0  0  0  0  0  0  0  0  0  0  0
   85.2007  158.1149   13.5511 C   0  0  0  0  0  0  0  0  0  0  0  0
   84.6881  157.5888   14.8340 C   0  0  0  0  0  0  0  0  0  0  0  0
   85.2124  159.3389   13.3450 O   0  0  0  0  0  0  0  0  0  0  0  0
   86.0533  157.6092   11.6877 H   0  0  0  0  0  0  0  0  0  0  0  0
   83.9622  147.8976   15.4647 O   0  0  0  0  0  0  0  0  0  0  0  0
   85.0110  147.6603   14.5718 C   0  0  0  0  0  0  0  0  0  0  0  0
   84.5371  147.3177   13.1761 C   0  0  0  0  0  0  0  0  0  0  0  0
   85.9911  148.8020   14.4864 C   0  0  0  0  0  0  0  0  0  0  0  0
   85.7909  146.4561   15.1132 C   0  0  0  0  0  0  0  0  0  0  0  0
 18 19  2  0
 19 20  1  0
 19 21  1  0
 20  1  1  0
 20 22  1  0
 21 23  1  0
 21 26  1  0
  1  2  2  0
  1  3  1  0
 22 24  1  0
 23 25  2  0
 23 24  1  0
  2  4  1  0
  3  5  2  0
  4  6  2  0
  5  6  1  0
  7  4  1  0
  7  9  1  0
  7 10  1  0
  8  6  1  0
  8 11  1  0
  8  9  1  0
  9 12  1  0
 10 13  1  0
 10 11  1  0
 11 14  1  0
 12 15  2  0
 12 27  1  0
 13 16  1  0
 14 17  1  0
 27 28  1  0
 28 29  1  0
 28 30  1  0
 28 31  1  0
M  END
> <Molecule Name>
Compound 4

> <EC50 (µM) (Excel)>
11.8

> <Error (µM)>
7.4

> <HTRC CRBN-DDB1 EC50 (µM)>
11.78 ±  7.41

> <EC50 fitting (µM)>
15.10

> <Modèle Fitting>
4PL

> <Parent_Compound>
Compound 4

> <MMFF94s_energy_kcalmol>
171.662
$$$$

> <minimizedAffinity>
-7.81765

> <CNNscore>
0.7779474258

> <CNNaffinity>
7.1080970764

> <CNN_VS>
5.5297260284

> <CNNaffinity_variance>
0.8184614182

$$$$
Compound_4_s1


 31 34  0  0  0  0  0  0  0  0999 V2000
   84.7378  153.5136   14.5521 C   0  0  0  0  0  0  0  0  0  0  0  0
   83.3805  153.2628   14.6156 C   0  0  0  0  0  0  0  0  0  0  0  0
   85.6544  152.5366   14.8396 C   0  0  0  0  0  0  0  0  0  0  0  0
   82.8926  152.0437   14.9639 C   0  0  0  0  0  0  0  0  0  0  0  0
   85.1583  151.2887   15.1961 C   0  0  0  0  0  0  0  0  0  0  0  0
   83.8060  151.0424   15.2585 C   0  0  0  0  0  0  0  0  0  0  0  0
   81.5475  151.4159   15.1347 C   0  0  0  0  0  0  0  0  0  0  0  0
   83.0206  149.8409   15.6016 C   0  0  0  0  0  0  0  0  0  0  0  0
   81.8505  150.4729   16.1973 N   0  0  0  0  0  0  0  0  0  0  0  0
   81.4014  150.4533   13.9788 C   0  0  0  0  0  0  0  0  0  0  0  0
   82.4063  149.3483   14.3083 C   0  0  0  0  0  0  0  0  0  0  0  0
   81.2602  150.1944   17.4306 C   0  0  0  0  0  0  0  0  0  0  0  0
   80.0968  149.9734   13.9979 O   0  0  0  0  0  0  0  0  0  0  0  0
   81.7116  148.1814   14.5985 O   0  0  0  0  0  0  0  0  0  0  0  0
   80.2494  150.7744   17.8922 O   0  0  0  0  0  0  0  0  0  0  0  0
   79.9073  149.5867   14.8671 H   0  0  0  0  0  0  0  0  0  0  0  0
   81.0773  148.3518   15.3123 H   0  0  0  0  0  0  0  0  0  0  0  0
   86.1165  154.1168   12.1601 O   0  0  0  0  0  0  0  0  0  0  0  0
   85.6363  155.0551   12.8518 C   0  0  0  0  0  0  0  0  0  0  0  0
   85.2090  154.8223   14.1780 N   0  0  0  0  0  0  0  0  0  0  0  0
   85.5161  156.3639   12.3100 N   0  0  0  0  0  0  0  0  0  0  0  0
   85.2560  155.9090   15.1303 C   0  0  0  0  0  0  0  0  0  0  0  0
   84.9647  157.3796   13.1454 C   0  0  0  0  0  0  0  0  0  0  0  0
   84.5664  157.1044   14.5422 C   0  0  0  0  0  0  0  0  0  0  0  0
   84.8212  158.5191   12.6744 O   0  0  0  0  0  0  0  0  0  0  0  0
   85.8036  156.5622   11.3896 H   0  0  0  0  0  0  0  0  0  0  0  0
   81.8169  149.2017   18.2280 O   0  0  0  0  0  0  0  0  0  0  0  0
   82.7215  149.4439   19.2656 C   0  0  0  0  0  0  0  0  0  0  0  0
   82.1007  149.3073   20.6390 C   0  0  0  0  0  0  0  0  0  0  0  0
   83.9515  148.5757   19.1990 C   0  0  0  0  0  0  0  0  0  0  0  0
   83.2010  150.8919   19.1075 C   0  0  0  0  0  0  0  0  0  0  0  0
 18 19  2  0
 19 20  1  0
 19 21  1  0
 20  1  1  0
 20 22  1  0
 21 23  1  0
 21 26  1  0
  1  2  2  0
  1  3  1  0
 22 24  1  0
 23 25  2  0
 23 24  1  0
  2  4  1  0
  3  5  2  0
  4  6  2  0
  5  6  1  0
  7  4  1  0
  7  9  1  0
  7 10  1  0
  8  6  1  0
  8 11  1  0
  8  9  1  0
  9 12  1  0
 10 13  1  0
 10 11  1  0
 11 14  1  0
 12 15  2  0
 12 27  1  0
 13 16  1  0
 14 17  1  0
 27 28  1  0
 28 29  1  0
 28 30  1  0
 28 31  1  0
M  END
> <Molecule Name>
Compound 4

> <EC50 (µM) (Excel)>
11.8

> <Error (µM)>
7.4

> <HTRC CRBN-DDB1 EC50 (µM)>
11.78 ±  7.41

> <EC50 fitting (µM)>
15.10

> <Modèle Fitting>
4PL

> <Parent_Compound>
Compound 4

> <MMFF94s_energy_kcalmol>
171.662
$$$$

> <minimizedAffinity>
-7.84830

> <CNNscore>
0.5436803699

> <CNNaffinity>
6.2507300377

> <CNN_VS>
3.3983991146

> <CNNaffinity_variance>
0.0443307571

$$$$
Compound_4_s1


 31 34  0  0  0  0  0  0  0  0999 V2000
   84.3751  154.1867   14.6485 C   0  0  0  0  0  0  0  0  0  0  0  0
   84.8319  153.3912   15.6818 C   0  0  0  0  0  0  0  0  0  0  0  0
   83.2971  153.8145   13.8893 C   0  0  0  0  0  0  0  0  0  0  0  0
   84.2382  152.2095   15.9927 C   0  0  0  0  0  0  0  0  0  0  0  0
   82.6877  152.6064   14.2049 C   0  0  0  0  0  0  0  0  0  0  0  0
   83.1452  151.8165   15.2346 C   0  0  0  0  0  0  0  0  0  0  0  0
   84.4355  151.1212   16.9973 C   0  0  0  0  0  0  0  0  0  0  0  0
   82.7011  150.5168   15.7746 C   0  0  0  0  0  0  0  0  0  0  0  0
   83.9826  149.9827   16.2171 N   0  0  0  0  0  0  0  0  0  0  0  0
   83.2761  151.2440   17.9589 C   0  0  0  0  0  0  0  0  0  0  0  0
   82.0732  150.8061   17.1217 C   0  0  0  0  0  0  0  0  0  0  0  0
   84.5362  148.7345   15.9301 C   0  0  0  0  0  0  0  0  0  0  0  0
   83.5098  150.3634   19.0088 O   0  0  0  0  0  0  0  0  0  0  0  0
   81.5928  149.6026   17.6211 O   0  0  0  0  0  0  0  0  0  0  0  0
   85.6487  148.3287   16.3414 O   0  0  0  0  0  0  0  0  0  0  0  0
   83.6450  149.4696   18.6572 H   0  0  0  0  0  0  0  0  0  0  0  0
   82.3102  148.9498   17.6373 H   0  0  0  0  0  0  0  0  0  0  0  0
   85.8591  154.7204   12.3034 O   0  0  0  0  0  0  0  0  0  0  0  0
   85.5113  155.6769   13.0475 C   0  0  0  0  0  0  0  0  0  0  0  0
   85.0368  155.4321   14.3553 N   0  0  0  0  0  0  0  0  0  0  0  0
   85.5901  157.0185   12.5841 N   0  0  0  0  0  0  0  0  0  0  0  0
   85.2285  156.4430   15.3709 C   0  0  0  0  0  0  0  0  0  0  0  0
   85.1812  158.0535   13.4758 C   0  0  0  0  0  0  0  0  0  0  0  0
   84.7282  157.7585   14.8518 C   0  0  0  0  0  0  0  0  0  0  0  0
   85.2114  159.2272   13.0729 O   0  0  0  0  0  0  0  0  0  0  0  0
   85.9158  157.2260   11.6785 H   0  0  0  0  0  0  0  0  0  0  0  0
   83.8191  147.8546   15.1284 O   0  0  0  0  0  0  0  0  0  0  0  0
   84.0965  147.6185   13.7790 C   0  0  0  0  0  0  0  0  0  0  0  0
   85.1215  146.5257   13.5655 C   0  0  0  0  0  0  0  0  0  0  0  0
   82.8689  147.3003   12.9648 C   0  0  0  0  0  0  0  0  0  0  0  0
   84.6716  148.9211   13.2097 C   0  0  0  0  0  0  0  0  0  0  0  0
 18 19  2  0
 19 20  1  0
 19 21  1  0
 20  1  1  0
 20 22  1  0
 21 23  1  0
 21 26  1  0
  1  2  2  0
  1  3  1  0
 22 24  1  0
 23 25  2  0
 23 24  1  0
  2  4  1  0
  3  5  2  0
  4  6  2  0
  5  6  1  0
  7  4  1  0
  7  9  1  0
  7 10  1  0
  8  6  1  0
  8 11  1  0
  8  9  1  0
  9 12  1  0
 10 13  1  0
 10 11  1  0
 11 14  1  0
 12 15  2  0
 12 27  1  0
 13 16  1  0
 14 17  1  0
 27 28  1  0
 28 29  1  0
 28 30  1  0
 28 31  1  0
M  END
> <Molecule Name>
Compound 4

> <EC50 (µM) (Excel)>
11.8

> <Error (µM)>
7.4

> <HTRC CRBN-DDB1 EC50 (µM)>
11.78 ±  7.41

> <EC50 fitting (µM)>
15.10

> <Modèle Fitting>
4PL

> <Parent_Compound>
Compound 4

> <MMFF94s_energy_kcalmol>
171.662
$$$$

> <minimizedAffinity>
-7.66619

> <CNNscore>
0.5338991880

> <CNNaffinity>
7.0116963387

> <CNN_VS>
3.7435390949

> <CNNaffinity_variance>
0.8227295280

$$$$
Compound_4_s1


 31 34  0  0  0  0  0  0  0  0999 V2000
   84.9928  153.2349   13.9637 C   0  0  0  0  0  0  0  0  0  0  0  0
   85.5330  152.4752   14.9836 C   0  0  0  0  0  0  0  0  0  0  0  0
   84.1033  152.6960   13.0718 C   0  0  0  0  0  0  0  0  0  0  0  0
   85.2105  151.1661   15.1500 C   0  0  0  0  0  0  0  0  0  0  0  0
   83.7715  151.3573   13.2395 C   0  0  0  0  0  0  0  0  0  0  0  0
   84.3115  150.6035   14.2562 C   0  0  0  0  0  0  0  0  0  0  0  0
   85.5713  150.0658   16.0945 C   0  0  0  0  0  0  0  0  0  0  0  0
   84.1417  149.1935   14.6579 C   0  0  0  0  0  0  0  0  0  0  0  0
   85.4697  148.9288   15.1961 N   0  0  0  0  0  0  0  0  0  0  0  0
   84.3367  149.8335   16.9345 C   0  0  0  0  0  0  0  0  0  0  0  0
   83.3487  149.2093   15.9476 C   0  0  0  0  0  0  0  0  0  0  0  0
   86.3253  147.8712   14.8859 C   0  0  0  0  0  0  0  0  0  0  0  0
   84.6797  148.9388   17.9417 O   0  0  0  0  0  0  0  0  0  0  0  0
   83.1247  147.8880   16.3116 O   0  0  0  0  0  0  0  0  0  0  0  0
   87.4621  147.6950   15.3840 O   0  0  0  0  0  0  0  0  0  0  0  0
   85.0522  148.1349   17.5470 H   0  0  0  0  0  0  0  0  0  0  0  0
   83.9718  147.4177   16.3594 H   0  0  0  0  0  0  0  0  0  0  0  0
   86.5374  154.2959   11.8483 O   0  0  0  0  0  0  0  0  0  0  0  0
   85.8974  155.0788   12.6012 C   0  0  0  0  0  0  0  0  0  0  0  0
   85.3644  154.6198   13.8262 N   0  0  0  0  0  0  0  0  0  0  0  0
   85.7006  156.4372   12.2313 N   0  0  0  0  0  0  0  0  0  0  0  0
   85.2048  155.5564   14.9159 C   0  0  0  0  0  0  0  0  0  0  0  0
   84.9679  157.2695   13.1280 C   0  0  0  0  0  0  0  0  0  0  0  0
   84.4607  156.7608   14.4201 C   0  0  0  0  0  0  0  0  0  0  0  0
   84.7579  158.4488   12.8022 O   0  0  0  0  0  0  0  0  0  0  0  0
   86.0578  156.7913   11.3851 H   0  0  0  0  0  0  0  0  0  0  0  0
   85.9087  146.9264   13.9558 O   0  0  0  0  0  0  0  0  0  0  0  0
   86.3755  146.8619   12.6399 C   0  0  0  0  0  0  0  0  0  0  0  0
   86.5915  148.2248   12.0186 C   0  0  0  0  0  0  0  0  0  0  0  0
   87.6400  146.0549   12.4948 C   0  0  0  0  0  0  0  0  0  0  0  0
   85.2995  146.1369   11.8224 C   0  0  0  0  0  0  0  0  0  0  0  0
 18 19  2  0
 19 20  1  0
 19 21  1  0
 20  1  1  0
 20 22  1  0
 21 23  1  0
 21 26  1  0
  1  2  2  0
  1  3  1  0
 22 24  1  0
 23 25  2  0
 23 24  1  0
  2  4  1  0
  3  5  2  0
  4  6  2  0
  5  6  1  0
  7  4  1  0
  7  9  1  0
  7 10  1  0
  8  6  1  0
  8 11  1  0
  8  9  1  0
  9 12  1  0
 10 13  1  0
 10 11  1  0
 11 14  1  0
 12 15  2  0
 12 27  1  0
 13 16  1  0
 14 17  1  0
 27 28  1  0
 28 29  1  0
 28 30  1  0
 28 31  1  0
M  END
> <Molecule Name>
Compound 4

> <EC50 (µM) (Excel)>
11.8

> <Error (µM)>
7.4

> <HTRC CRBN-DDB1 EC50 (µM)>
11.78 ±  7.41

> <EC50 fitting (µM)>
15.10

> <Modèle Fitting>
4PL

> <Parent_Compound>
Compound 4

> <MMFF94s_energy_kcalmol>
171.662
$$$$

> <minimizedAffinity>
-6.46663

> <CNNscore>
0.3295311332

> <CNNaffinity>
5.4181771278

> <CNN_VS>
1.7854580879

> <CNNaffinity_variance>
0.0041929246

$$$$
