Compound_8_ent1


 31 33  0  0  0  0  0  0  0  0999 V2000
   86.9656  150.9736   13.9869 C   0  0  0  0  0  0  0  0  0  0  0  0
   86.0285  151.9581   13.6400 C   0  0  0  0  0  0  0  0  0  0  0  0
   87.1958  150.6619   15.2844 C   0  0  0  0  0  0  0  0  0  0  0  0
   85.3116  152.6395   14.5994 C   0  0  0  0  0  0  0  0  0  0  0  0
   86.4741  151.3459   16.2715 C   0  0  0  0  0  0  0  0  0  0  0  0
   85.5580  152.3091   15.9109 C   0  0  0  0  0  0  0  0  0  0  0  0
   84.3416  153.6614   14.1911 C   0  0  0  0  0  0  0  0  0  0  0  0
   83.1300  153.3429   14.0256 O   0  0  0  0  0  0  0  0  0  0  0  0
   84.6925  154.9952   13.9710 N   0  0  0  0  0  0  0  0  0  0  0  0
   85.6319  155.2623   14.0951 H   0  0  0  0  0  0  0  0  0  0  0  0
   83.7156  156.0196   13.5608 C   0  0  0  0  0  0  0  0  0  0  0  0
   84.2164  156.7418   12.3702 C   0  0  0  0  0  0  0  0  0  0  0  0
   83.4702  156.9155   14.7301 C   0  0  0  0  0  0  0  0  0  0  0  0
   83.7779  156.4722   11.2255 O   0  0  0  0  0  0  0  0  0  0  0  0
   85.2016  157.7425   12.5588 N   0  0  0  0  0  0  0  0  0  0  0  0
   84.7577  157.6376   15.0636 C   0  0  0  0  0  0  0  0  0  0  0  0
   85.3853  158.2596   13.8895 C   0  0  0  0  0  0  0  0  0  0  0  0
   86.1073  159.2769   14.0468 O   0  0  0  0  0  0  0  0  0  0  0  0
   85.7421  158.0731   11.8052 H   0  0  0  0  0  0  0  0  0  0  0  0
   87.6909  150.3332   12.8614 C   0  0  0  0  0  0  0  0  0  0  0  0
   89.0925  151.6674   11.1329 S   0  0  0  0  0  0  0  0  0  0  0  0
   90.4806  152.2405   10.8997 O   0  0  0  0  0  0  0  0  0  0  0  0
   88.0629  152.7321   11.0138 O   0  0  0  0  0  0  0  0  0  0  0  0
   88.9813  150.9126   12.6544 N   0  0  0  0  0  0  0  0  0  0  0  0
   88.7593  150.4183    9.8801 C   0  0  0  0  0  0  0  0  0  0  0  0
   89.9949  149.9427   12.9214 C   0  0  0  0  0  0  0  0  0  0  0  0
   89.6535  149.2114   10.1968 C   0  0  0  0  0  0  0  0  0  0  0  0
   91.1549  149.9158   11.9816 C   0  0  0  0  0  0  0  0  0  0  0  0
   90.8948  149.7358   10.6309 N   0  0  0  0  0  0  0  0  0  0  0  0
   90.9943  150.6506   10.1908 H   0  0  0  0  0  0  0  0  0  0  0  0
   91.5550  149.0039   10.3681 H   0  0  0  0  0  0  0  0  0  0  0  0
 21 22  2  0
 21 23  2  0
 21 24  1  0
 21 25  1  0
 24 26  1  0
 24 20  1  0
 25 27  1  0
 26 28  1  0
 20  1  1  0
 27 29  1  0
 28 29  1  0
  1  2  2  0
  1  3  1  0
 29 30  1  0
 29 31  1  0
  2  4  1  0
  3  5  2  0
  4  7  1  0
  4  6  2  0
  5  6  1  0
  7  8  2  0
  7  9  1  0
  9 10  1  0
 11  9  1  0
 11 12  1  0
 11 13  1  0
 12 14  2  0
 12 15  1  0
 13 16  1  0
 15 17  1  0
 15 19  1  0
 16 17  1  0
 17 18  2  0
M  CHG 1  29   1
M  END
> <Molecule Name>
Compound 8

> <EC50 (µM) (Excel)>
6.8

> <Error (µM)>
1.0

> <HTRC CRBN-DDB1 EC50 (µM)>
6.77 ±  1.02

> <EC50 fitting (µM)>
7.19

> <Modèle Fitting>
4PL

> <Parent_Compound>
Compound 8

> <MMFF94s_energy_kcalmol>
133.791
$$$$

> <minimizedAffinity>
-6.92399

> <CNNscore>
0.7898960114

> <CNNaffinity>
6.5209412575

> <CNN_VS>
5.1508655548

> <CNNaffinity_variance>
0.1255553812

$$$$
Compound_8_ent1


 31 33  0  0  0  0  0  0  0  0999 V2000
   88.7231  152.0862   11.6023 C   0  0  0  0  0  0  0  0  0  0  0  0
   87.5230  152.7985   11.7440 C   0  0  0  0  0  0  0  0  0  0  0  0
   89.0425  151.0882   12.4599 C   0  0  0  0  0  0  0  0  0  0  0  0
   86.6301  152.5111   12.7534 C   0  0  0  0  0  0  0  0  0  0  0  0
   88.1443  150.7839   13.4913 C   0  0  0  0  0  0  0  0  0  0  0  0
   86.9709  151.4945   13.6138 C   0  0  0  0  0  0  0  0  0  0  0  0
   85.3870  153.2820   12.8639 C   0  0  0  0  0  0  0  0  0  0  0  0
   84.2808  152.6764   12.9441 O   0  0  0  0  0  0  0  0  0  0  0  0
   85.3597  154.6781   12.8859 N   0  0  0  0  0  0  0  0  0  0  0  0
   86.2118  155.1675   12.8245 H   0  0  0  0  0  0  0  0  0  0  0  0
   84.1089  155.4497   12.9970 C   0  0  0  0  0  0  0  0  0  0  0  0
   84.1589  156.6189   12.0912 C   0  0  0  0  0  0  0  0  0  0  0  0
   83.9264  155.8258   14.4306 C   0  0  0  0  0  0  0  0  0  0  0  0
   83.5547  156.6038   10.9911 O   0  0  0  0  0  0  0  0  0  0  0  0
   84.9057  157.7516   12.4996 N   0  0  0  0  0  0  0  0  0  0  0  0
   85.0554  156.7489   14.8352 C   0  0  0  0  0  0  0  0  0  0  0  0
   85.2522  157.8590   13.8927 C   0  0  0  0  0  0  0  0  0  0  0  0
   85.7387  158.9402   14.3114 O   0  0  0  0  0  0  0  0  0  0  0  0
   85.1784  158.4418   11.8527 H   0  0  0  0  0  0  0  0  0  0  0  0
   89.6106  152.5114   10.4913 C   0  0  0  0  0  0  0  0  0  0  0  0
   90.8701  151.9245    8.3001 S   0  0  0  0  0  0  0  0  0  0  0  0
   90.9146  150.8988    7.1796 O   0  0  0  0  0  0  0  0  0  0  0  0
   92.2012  152.0440    8.9496 O   0  0  0  0  0  0  0  0  0  0  0  0
   89.6872  151.5269    9.4575 N   0  0  0  0  0  0  0  0  0  0  0  0
   90.4355  153.5277    7.6062 C   0  0  0  0  0  0  0  0  0  0  0  0
   88.3843  151.2805    8.9273 C   0  0  0  0  0  0  0  0  0  0  0  0
   88.9596  153.4545    7.1902 C   0  0  0  0  0  0  0  0  0  0  0  0
   88.2865  151.1270    7.4453 C   0  0  0  0  0  0  0  0  0  0  0  0
   88.7595  152.1610    6.6507 N   0  0  0  0  0  0  0  0  0  0  0  0
   89.6607  151.8564    6.2824 H   0  0  0  0  0  0  0  0  0  0  0  0
   87.9966  152.3063    5.9893 H   0  0  0  0  0  0  0  0  0  0  0  0
 21 22  2  0
 21 23  2  0
 21 24  1  0
 21 25  1  0
 24 26  1  0
 24 20  1  0
 25 27  1  0
 26 28  1  0
 20  1  1  0
 27 29  1  0
 28 29  1  0
  1  2  2  0
  1  3  1  0
 29 30  1  0
 29 31  1  0
  2  4  1  0
  3  5  2  0
  4  7  1  0
  4  6  2  0
  5  6  1  0
  7  8  2  0
  7  9  1  0
  9 10  1  0
 11  9  1  0
 11 12  1  0
 11 13  1  0
 12 14  2  0
 12 15  1  0
 13 16  1  0
 15 17  1  0
 15 19  1  0
 16 17  1  0
 17 18  2  0
M  CHG 1  29   1
M  END
> <Molecule Name>
Compound 8

> <EC50 (µM) (Excel)>
6.8

> <Error (µM)>
1.0

> <HTRC CRBN-DDB1 EC50 (µM)>
6.77 ±  1.02

> <EC50 fitting (µM)>
7.19

> <Modèle Fitting>
4PL

> <Parent_Compound>
Compound 8

> <MMFF94s_energy_kcalmol>
133.791
$$$$

> <minimizedAffinity>
-7.61743

> <CNNscore>
0.6564220190

> <CNNaffinity>
5.7782611847

> <CNN_VS>
3.7929778099

> <CNNaffinity_variance>
0.1347368509

$$$$
Compound_8_ent1


 31 33  0  0  0  0  0  0  0  0999 V2000
   89.4796  151.2186   12.8162 C   0  0  0  0  0  0  0  0  0  0  0  0
   88.1659  151.6801   12.9859 C   0  0  0  0  0  0  0  0  0  0  0  0
   90.2035  151.5717   11.7277 C   0  0  0  0  0  0  0  0  0  0  0  0
   87.5671  152.5047   12.0585 C   0  0  0  0  0  0  0  0  0  0  0  0
   89.6083  152.4101   10.7759 C   0  0  0  0  0  0  0  0  0  0  0  0
   88.3174  152.8531   10.9605 C   0  0  0  0  0  0  0  0  0  0  0  0
   86.1908  152.9633   12.2766 C   0  0  0  0  0  0  0  0  0  0  0  0
   85.2480  152.1223   12.3015 O   0  0  0  0  0  0  0  0  0  0  0  0
   85.8598  154.3074   12.4622 N   0  0  0  0  0  0  0  0  0  0  0  0
   86.5810  154.9773   12.4462 H   0  0  0  0  0  0  0  0  0  0  0  0
   84.4760  154.7649   12.6812 C   0  0  0  0  0  0  0  0  0  0  0  0
   84.3740  156.2118   12.3875 C   0  0  0  0  0  0  0  0  0  0  0  0
   84.0950  154.4229   14.0839 C   0  0  0  0  0  0  0  0  0  0  0  0
   83.8857  156.6129   11.3030 O   0  0  0  0  0  0  0  0  0  0  0  0
   84.8418  157.1280   13.3619 N   0  0  0  0  0  0  0  0  0  0  0  0
   84.9777  155.2087   15.0294 C   0  0  0  0  0  0  0  0  0  0  0  0
   85.0340  156.6402   14.7025 C   0  0  0  0  0  0  0  0  0  0  0  0
   85.2569  157.4706   15.6200 O   0  0  0  0  0  0  0  0  0  0  0  0
   85.0289  158.0662   13.1299 H   0  0  0  0  0  0  0  0  0  0  0  0
   89.9986  150.3148   13.8729 C   0  0  0  0  0  0  0  0  0  0  0  0
   91.6479  151.3494   15.5880 S   0  0  0  0  0  0  0  0  0  0  0  0
   91.7021  151.9874   16.9663 O   0  0  0  0  0  0  0  0  0  0  0  0
   92.2486  152.2525   14.5723 O   0  0  0  0  0  0  0  0  0  0  0  0
   90.0511  150.9551   15.1500 N   0  0  0  0  0  0  0  0  0  0  0  0
   92.5981  149.8206   15.6153 C   0  0  0  0  0  0  0  0  0  0  0  0
   89.3376  150.1762   16.1109 C   0  0  0  0  0  0  0  0  0  0  0  0
   91.8058  148.8116   16.4585 C   0  0  0  0  0  0  0  0  0  0  0  0
   89.9621  150.0490   17.4612 C   0  0  0  0  0  0  0  0  0  0  0  0
   91.2505  149.5406   17.5377 N   0  0  0  0  0  0  0  0  0  0  0  0
   91.8682  150.3358   17.7004 H   0  0  0  0  0  0  0  0  0  0  0  0
   91.1735  148.8363   18.2716 H   0  0  0  0  0  0  0  0  0  0  0  0
 21 22  2  0
 21 23  2  0
 21 24  1  0
 21 25  1  0
 24 26  1  0
 24 20  1  0
 25 27  1  0
 26 28  1  0
 20  1  1  0
 27 29  1  0
 28 29  1  0
  1  2  2  0
  1  3  1  0
 29 30  1  0
 29 31  1  0
  2  4  1  0
  3  5  2  0
  4  7  1  0
  4  6  2  0
  5  6  1  0
  7  8  2  0
  7  9  1  0
  9 10  1  0
 11  9  1  0
 11 12  1  0
 11 13  1  0
 12 14  2  0
 12 15  1  0
 13 16  1  0
 15 17  1  0
 15 19  1  0
 16 17  1  0
 17 18  2  0
M  CHG 1  29   1
M  END
> <Molecule Name>
Compound 8

> <EC50 (µM) (Excel)>
6.8

> <Error (µM)>
1.0

> <HTRC CRBN-DDB1 EC50 (µM)>
6.77 ±  1.02

> <EC50 fitting (µM)>
7.19

> <Modèle Fitting>
4PL

> <Parent_Compound>
Compound 8

> <MMFF94s_energy_kcalmol>
133.791
$$$$

> <minimizedAffinity>
-7.55538

> <CNNscore>
0.3956244886

> <CNNaffinity>
5.2767500877

> <CNN_VS>
2.0876114368

> <CNNaffinity_variance>
0.2408007383

$$$$
Compound_8_ent1


 31 33  0  0  0  0  0  0  0  0999 V2000
   77.4297  149.4704   14.5401 C   0  0  0  0  0  0  0  0  0  0  0  0
   78.7727  149.8674   14.6204 C   0  0  0  0  0  0  0  0  0  0  0  0
   76.5686  149.7281   15.5528 C   0  0  0  0  0  0  0  0  0  0  0  0
   79.2625  150.5305   15.7244 C   0  0  0  0  0  0  0  0  0  0  0  0
   77.0519  150.4022   16.6820 C   0  0  0  0  0  0  0  0  0  0  0  0
   78.3737  150.7842   16.7421 C   0  0  0  0  0  0  0  0  0  0  0  0
   80.6743  150.9270   15.7657 C   0  0  0  0  0  0  0  0  0  0  0  0
   81.1242  151.7286   14.8986 O   0  0  0  0  0  0  0  0  0  0  0  0
   81.5663  150.4565   16.7319 N   0  0  0  0  0  0  0  0  0  0  0  0
   81.2339  149.8312   17.4158 H   0  0  0  0  0  0  0  0  0  0  0  0
   82.9841  150.8568   16.7706 C   0  0  0  0  0  0  0  0  0  0  0  0
   83.8463  149.6568   16.6884 C   0  0  0  0  0  0  0  0  0  0  0  0
   83.2035  151.6526   18.0150 C   0  0  0  0  0  0  0  0  0  0  0  0
   84.4035  149.3406   15.6091 O   0  0  0  0  0  0  0  0  0  0  0  0
   84.0239  148.8779   17.8586 N   0  0  0  0  0  0  0  0  0  0  0  0
   82.9621  150.7562   19.2103 C   0  0  0  0  0  0  0  0  0  0  0  0
   83.6819  149.4782   19.1214 C   0  0  0  0  0  0  0  0  0  0  0  0
   84.0124  148.8856   20.1799 O   0  0  0  0  0  0  0  0  0  0  0  0
   84.3695  147.9574   17.8097 H   0  0  0  0  0  0  0  0  0  0  0  0
   77.0344  148.7400   13.3099 C   0  0  0  0  0  0  0  0  0  0  0  0
   78.6591  148.2350   11.3509 S   0  0  0  0  0  0  0  0  0  0  0  0
   79.6971  147.2290   10.8817 O   0  0  0  0  0  0  0  0  0  0  0  0
   79.2381  149.6031   11.3851 O   0  0  0  0  0  0  0  0  0  0  0  0
   78.0430  147.8213   12.8826 N   0  0  0  0  0  0  0  0  0  0  0  0
   77.2814  148.2349   10.1920 C   0  0  0  0  0  0  0  0  0  0  0  0
   77.5571  146.4833   12.9953 C   0  0  0  0  0  0  0  0  0  0  0  0
   76.5355  146.9061   10.3776 C   0  0  0  0  0  0  0  0  0  0  0  0
   77.8989  145.5543   11.8775 C   0  0  0  0  0  0  0  0  0  0  0  0
   77.5261  145.9175   10.5916 N   0  0  0  0  0  0  0  0  0  0  0  0
   78.3715  146.2467   10.1253 H   0  0  0  0  0  0  0  0  0  0  0  0
   77.0823  145.0706   10.2361 H   0  0  0  0  0  0  0  0  0  0  0  0
 21 22  2  0
 21 23  2  0
 21 24  1  0
 21 25  1  0
 24 26  1  0
 24 20  1  0
 25 27  1  0
 26 28  1  0
 20  1  1  0
 27 29  1  0
 28 29  1  0
  1  2  2  0
  1  3  1  0
 29 30  1  0
 29 31  1  0
  2  4  1  0
  3  5  2  0
  4  7  1  0
  4  6  2  0
  5  6  1  0
  7  8  2  0
  7  9  1  0
  9 10  1  0
 11  9  1  0
 11 12  1  0
 11 13  1  0
 12 14  2  0
 12 15  1  0
 13 16  1  0
 15 17  1  0
 15 19  1  0
 16 17  1  0
 17 18  2  0
M  CHG 1  29   1
M  END
> <Molecule Name>
Compound 8

> <EC50 (µM) (Excel)>
6.8

> <Error (µM)>
1.0

> <HTRC CRBN-DDB1 EC50 (µM)>
6.77 ±  1.02

> <EC50 fitting (µM)>
7.19

> <Modèle Fitting>
4PL

> <Parent_Compound>
Compound 8

> <MMFF94s_energy_kcalmol>
133.791
$$$$

> <minimizedAffinity>
-5.80278

> <CNNscore>
0.3110474050

> <CNNaffinity>
3.8346521854

> <CNN_VS>
1.1927585602

> <CNNaffinity_variance>
0.9530262947

$$$$
Compound_8_ent1


 31 33  0  0  0  0  0  0  0  0999 V2000
   81.5737  150.6930   15.3985 C   0  0  0  0  0  0  0  0  0  0  0  0
   82.6303  151.5732   15.1219 C   0  0  0  0  0  0  0  0  0  0  0  0
   81.1775  150.4639   16.6729 C   0  0  0  0  0  0  0  0  0  0  0  0
   83.2995  152.2337   16.1292 C   0  0  0  0  0  0  0  0  0  0  0  0
   81.8481  151.1286   17.7080 C   0  0  0  0  0  0  0  0  0  0  0  0
   82.8829  151.9893   17.4163 C   0  0  0  0  0  0  0  0  0  0  0  0
   84.3988  153.1452   15.7940 C   0  0  0  0  0  0  0  0  0  0  0  0
   85.5476  152.9451   16.2810 O   0  0  0  0  0  0  0  0  0  0  0  0
   84.2410  154.2450   14.9478 N   0  0  0  0  0  0  0  0  0  0  0  0
   83.3531  154.4169   14.5586 H   0  0  0  0  0  0  0  0  0  0  0  0
   85.3476  155.1589   14.6129 C   0  0  0  0  0  0  0  0  0  0  0  0
   84.8633  156.5573   14.6225 C   0  0  0  0  0  0  0  0  0  0  0  0
   85.9060  154.7407   13.2926 C   0  0  0  0  0  0  0  0  0  0  0  0
   85.0986  157.3104   15.5987 O   0  0  0  0  0  0  0  0  0  0  0  0
   84.1290  157.0199   13.5025 N   0  0  0  0  0  0  0  0  0  0  0  0
   84.8392  154.9287   12.2357 C   0  0  0  0  0  0  0  0  0  0  0  0
   84.2135  156.2573   12.2846 C   0  0  0  0  0  0  0  0  0  0  0  0
   83.7347  156.7490   11.2310 O   0  0  0  0  0  0  0  0  0  0  0  0
   83.5798  157.8352   13.5555 H   0  0  0  0  0  0  0  0  0  0  0  0
   80.9540  150.0241   14.2273 C   0  0  0  0  0  0  0  0  0  0  0  0
   79.8447  147.6964   13.9390 S   0  0  0  0  0  0  0  0  0  0  0  0
   78.5902  146.9134   14.2893 O   0  0  0  0  0  0  0  0  0  0  0  0
   81.0557  146.9812   14.4185 O   0  0  0  0  0  0  0  0  0  0  0  0
   79.7963  149.2681   14.5903 N   0  0  0  0  0  0  0  0  0  0  0  0
   79.9540  147.8523   12.1488 C   0  0  0  0  0  0  0  0  0  0  0  0
   78.6170  150.0121   14.2820 C   0  0  0  0  0  0  0  0  0  0  0  0
   78.8474  148.8223   11.7117 C   0  0  0  0  0  0  0  0  0  0  0  0
   77.4830  149.2456   13.6854 C   0  0  0  0  0  0  0  0  0  0  0  0
   77.7204  148.5338   12.5186 N   0  0  0  0  0  0  0  0  0  0  0  0
   77.7978  147.5526   12.7867 H   0  0  0  0  0  0  0  0  0  0  0  0
   76.9387  148.8069   11.9230 H   0  0  0  0  0  0  0  0  0  0  0  0
 21 22  2  0
 21 23  2  0
 21 24  1  0
 21 25  1  0
 24 26  1  0
 24 20  1  0
 25 27  1  0
 26 28  1  0
 20  1  1  0
 27 29  1  0
 28 29  1  0
  1  2  2  0
  1  3  1  0
 29 30  1  0
 29 31  1  0
  2  4  1  0
  3  5  2  0
  4  7  1  0
  4  6  2  0
  5  6  1  0
  7  8  2  0
  7  9  1  0
  9 10  1  0
 11  9  1  0
 11 12  1  0
 11 13  1  0
 12 14  2  0
 12 15  1  0
 13 16  1  0
 15 17  1  0
 15 19  1  0
 16 17  1  0
 17 18  2  0
M  CHG 1  29   1
M  END
> <Molecule Name>
Compound 8

> <EC50 (µM) (Excel)>
6.8

> <Error (µM)>
1.0

> <HTRC CRBN-DDB1 EC50 (µM)>
6.77 ±  1.02

> <EC50 fitting (µM)>
7.19

> <Modèle Fitting>
4PL

> <Parent_Compound>
Compound 8

> <MMFF94s_energy_kcalmol>
133.791
$$$$

> <minimizedAffinity>
-7.22066

> <CNNscore>
0.2695197761

> <CNNaffinity>
4.9397339821

> <CNN_VS>
1.3313560486

> <CNNaffinity_variance>
0.5245594978

$$$$
