Compound_4_s13


 31 34  0  0  0  0  0  0  0  0999 V2000
   85.3656  154.7443   13.6732 C   0  0  0  0  0  0  0  0  0  0  0  0
   85.3946  153.8625   14.7232 C   0  0  0  0  0  0  0  0  0  0  0  0
   85.8415  154.3129   12.4517 C   0  0  0  0  0  0  0  0  0  0  0  0
   85.8947  152.5668   14.5480 C   0  0  0  0  0  0  0  0  0  0  0  0
   86.3433  153.0195   12.2668 C   0  0  0  0  0  0  0  0  0  0  0  0
   86.3707  152.1384   13.3231 C   0  0  0  0  0  0  0  0  0  0  0  0
   86.0606  151.3951   15.4552 C   0  0  0  0  0  0  0  0  0  0  0  0
   86.8200  150.7397   13.4856 C   0  0  0  0  0  0  0  0  0  0  0  0
   87.2801  150.8186   14.8786 N   0  0  0  0  0  0  0  0  0  0  0  0
   85.0592  150.3669   14.9873 C   0  0  0  0  0  0  0  0  0  0  0  0
   85.6339  149.8224   13.6860 C   0  0  0  0  0  0  0  0  0  0  0  0
   88.4954  150.4532   15.4406 C   0  0  0  0  0  0  0  0  0  0  0  0
   83.8856  151.0552   14.6524 O   0  0  0  0  0  0  0  0  0  0  0  0
   84.7259  149.8983   12.6446 O   0  0  0  0  0  0  0  0  0  0  0  0
   89.3807  149.9727   14.6853 O   0  0  0  0  0  0  0  0  0  0  0  0
   84.0872  151.7353   13.9909 H   0  0  0  0  0  0  0  0  0  0  0  0
   84.4329  150.8167   12.5374 H   0  0  0  0  0  0  0  0  0  0  0  0
   84.2077  156.3090   11.5703 O   0  0  0  0  0  0  0  0  0  0  0  0
   84.5988  156.8549   12.6173 C   0  0  0  0  0  0  0  0  0  0  0  0
   84.8869  156.1028   13.7825 N   0  0  0  0  0  0  0  0  0  0  0  0
   84.7706  158.2867   12.6805 N   0  0  0  0  0  0  0  0  0  0  0  0
   84.7272  156.7094   15.0800 C   0  0  0  0  0  0  0  0  0  0  0  0
   85.2233  158.8358   13.9445 C   0  0  0  0  0  0  0  0  0  0  0  0
   84.6222  158.1805   15.1267 C   0  0  0  0  0  0  0  0  0  0  0  0
   86.0362  159.7640   13.9366 O   0  0  0  0  0  0  0  0  0  0  0  0
   84.5893  158.8628   11.9030 H   0  0  0  0  0  0  0  0  0  0  0  0
   88.8201  150.5749   16.7827 O   0  0  0  0  0  0  0  0  0  0  0  0
   90.1458  150.7547   17.2509 C   0  0  0  0  0  0  0  0  0  0  0  0
   90.9618  151.4551   16.1802 C   0  0  0  0  0  0  0  0  0  0  0  0
   90.1985  151.5413   18.5315 C   0  0  0  0  0  0  0  0  0  0  0  0
   90.7217  149.3751   17.5001 C   0  0  0  0  0  0  0  0  0  0  0  0
 18 19  2  0
 19 20  1  0
 19 21  1  0
 20  1  1  0
 20 22  1  0
 21 23  1  0
 21 26  1  0
  1  2  2  0
  1  3  1  0
 22 24  1  0
 23 25  2  0
 23 24  1  0
  2  4  1  0
  3  5  2  0
  4  6  2  0
  5  6  1  0
  7  4  1  0
  7  9  1  0
  7 10  1  0
  8  6  1  0
  8 11  1  0
  8  9  1  0
  9 12  1  0
 10 13  1  0
 10 11  1  0
 11 14  1  0
 12 15  2  0
 12 27  1  0
 13 16  1  0
 14 17  1  0
 27 28  1  0
 28 29  1  0
 28 30  1  0
 28 31  1  0
M  END
> <Molecule Name>
Compound 4

> <EC50 (µM) (Excel)>
11.8

> <Error (µM)>
7.4

> <HTRC CRBN-DDB1 EC50 (µM)>
11.78 ±  7.41

> <EC50 fitting (µM)>
15.10

> <Modèle Fitting>
4PL

> <Parent_Compound>
Compound 4

> <MMFF94s_energy_kcalmol>
197.272
$$$$

> <minimizedAffinity>
-9.14656

> <CNNscore>
0.9681974053

> <CNNaffinity>
6.8584270477

> <CNN_VS>
6.6403112411

> <CNNaffinity_variance>
0.1951401681

$$$$
Compound_4_s13


 31 34  0  0  0  0  0  0  0  0999 V2000
   85.0419  155.0524   13.6123 C   0  0  0  0  0  0  0  0  0  0  0  0
   84.4268  154.0273   14.2843 C   0  0  0  0  0  0  0  0  0  0  0  0
   86.0504  154.7329   12.7261 C   0  0  0  0  0  0  0  0  0  0  0  0
   84.8199  152.7011   14.0690 C   0  0  0  0  0  0  0  0  0  0  0  0
   86.4503  153.4102   12.5040 C   0  0  0  0  0  0  0  0  0  0  0  0
   85.8307  152.3849   13.1807 C   0  0  0  0  0  0  0  0  0  0  0  0
   84.3688  151.3906   14.6190 C   0  0  0  0  0  0  0  0  0  0  0  0
   85.9922  150.9159   13.1960 C   0  0  0  0  0  0  0  0  0  0  0  0
   85.6482  150.6730   14.6035 N   0  0  0  0  0  0  0  0  0  0  0  0
   83.6772  150.6818   13.4796 C   0  0  0  0  0  0  0  0  0  0  0  0
   84.8008  150.2454   12.5483 C   0  0  0  0  0  0  0  0  0  0  0  0
   86.3400  149.9776   15.5855 C   0  0  0  0  0  0  0  0  0  0  0  0
   82.9304  151.6437   12.7867 O   0  0  0  0  0  0  0  0  0  0  0  0
   84.5952  150.6744   11.2490 O   0  0  0  0  0  0  0  0  0  0  0  0
   87.4415  149.4509   15.2787 O   0  0  0  0  0  0  0  0  0  0  0  0
   83.5148  152.3640   12.5031 H   0  0  0  0  0  0  0  0  0  0  0  0
   84.4911  151.6388   11.2396 H   0  0  0  0  0  0  0  0  0  0  0  0
   84.1679  156.8738   11.5801 O   0  0  0  0  0  0  0  0  0  0  0  0
   84.5619  157.3014   12.6797 C   0  0  0  0  0  0  0  0  0  0  0  0
   84.7077  156.4453   13.7987 N   0  0  0  0  0  0  0  0  0  0  0  0
   84.8838  158.6976   12.8536 N   0  0  0  0  0  0  0  0  0  0  0  0
   84.5486  156.9774   15.1286 C   0  0  0  0  0  0  0  0  0  0  0  0
   85.3284  159.1069   14.1724 C   0  0  0  0  0  0  0  0  0  0  0  0
   84.6008  158.4445   15.2771 C   0  0  0  0  0  0  0  0  0  0  0  0
   86.2360  159.9373   14.2667 O   0  0  0  0  0  0  0  0  0  0  0  0
   84.8054  159.3413   12.1127 H   0  0  0  0  0  0  0  0  0  0  0  0
   85.9129  149.8123   16.8939 O   0  0  0  0  0  0  0  0  0  0  0  0
   85.0210  148.7882   17.2994 C   0  0  0  0  0  0  0  0  0  0  0  0
   83.8539  149.4099   18.0439 C   0  0  0  0  0  0  0  0  0  0  0  0
   84.5145  147.9778   16.1383 C   0  0  0  0  0  0  0  0  0  0  0  0
   85.7863  147.8753   18.2364 C   0  0  0  0  0  0  0  0  0  0  0  0
 18 19  2  0
 19 20  1  0
 19 21  1  0
 20  1  1  0
 20 22  1  0
 21 23  1  0
 21 26  1  0
  1  2  2  0
  1  3  1  0
 22 24  1  0
 23 25  2  0
 23 24  1  0
  2  4  1  0
  3  5  2  0
  4  6  2  0
  5  6  1  0
  7  4  1  0
  7  9  1  0
  7 10  1  0
  8  6  1  0
  8 11  1  0
  8  9  1  0
  9 12  1  0
 10 13  1  0
 10 11  1  0
 11 14  1  0
 12 15  2  0
 12 27  1  0
 13 16  1  0
 14 17  1  0
 27 28  1  0
 28 29  1  0
 28 30  1  0
 28 31  1  0
M  END
> <Molecule Name>
Compound 4

> <EC50 (µM) (Excel)>
11.8

> <Error (µM)>
7.4

> <HTRC CRBN-DDB1 EC50 (µM)>
11.78 ±  7.41

> <EC50 fitting (µM)>
15.10

> <Modèle Fitting>
4PL

> <Parent_Compound>
Compound 4

> <MMFF94s_energy_kcalmol>
197.272
$$$$

> <minimizedAffinity>
-7.93008

> <CNNscore>
0.9537550807

> <CNNaffinity>
7.1890482903

> <CNN_VS>
6.8565912247

> <CNNaffinity_variance>
0.3357006609

$$$$
Compound_4_s13


 31 34  0  0  0  0  0  0  0  0999 V2000
   85.9350  154.5505   12.8746 C   0  0  0  0  0  0  0  0  0  0  0  0
   85.8869  153.3536   13.5425 C   0  0  0  0  0  0  0  0  0  0  0  0
   86.7177  154.6285   11.7406 C   0  0  0  0  0  0  0  0  0  0  0  0
   86.6150  152.2520   13.0777 C   0  0  0  0  0  0  0  0  0  0  0  0
   87.4490  153.5327   11.2681 C   0  0  0  0  0  0  0  0  0  0  0  0
   87.3981  152.3340   11.9416 C   0  0  0  0  0  0  0  0  0  0  0  0
   86.7755  150.8481   13.5538 C   0  0  0  0  0  0  0  0  0  0  0  0
   88.0235  151.0106   11.7367 C   0  0  0  0  0  0  0  0  0  0  0  0
   88.1650  150.6156   13.1446 N   0  0  0  0  0  0  0  0  0  0  0  0
   86.0727  149.9846   12.5343 C   0  0  0  0  0  0  0  0  0  0  0  0
   86.9856  149.9940   11.3150 C   0  0  0  0  0  0  0  0  0  0  0  0
   89.2796  150.1670   13.8394 C   0  0  0  0  0  0  0  0  0  0  0  0
   84.8990  150.6542   12.1639 O   0  0  0  0  0  0  0  0  0  0  0  0
   86.3139  150.3709   10.1655 O   0  0  0  0  0  0  0  0  0  0  0  0
   90.3682  150.0624   13.2158 O   0  0  0  0  0  0  0  0  0  0  0  0
   85.1213  151.5410   11.8399 H   0  0  0  0  0  0  0  0  0  0  0  0
   85.9053  151.2403   10.3002 H   0  0  0  0  0  0  0  0  0  0  0  0
   84.1771  156.1543   11.2780 O   0  0  0  0  0  0  0  0  0  0  0  0
   84.6212  156.5905   12.3549 C   0  0  0  0  0  0  0  0  0  0  0  0
   85.2312  155.7360   13.3057 N   0  0  0  0  0  0  0  0  0  0  0  0
   84.5261  157.9948   12.6750 N   0  0  0  0  0  0  0  0  0  0  0  0
   85.1708  156.0699   14.7064 C   0  0  0  0  0  0  0  0  0  0  0  0
   85.0643  158.4114   13.9560 C   0  0  0  0  0  0  0  0  0  0  0  0
   84.7974  157.4548   15.0524 C   0  0  0  0  0  0  0  0  0  0  0  0
   85.6741  159.4816   14.0291 O   0  0  0  0  0  0  0  0  0  0  0  0
   84.1156  158.6389   12.0537 H   0  0  0  0  0  0  0  0  0  0  0  0
   89.2942  149.8196   15.1813 O   0  0  0  0  0  0  0  0  0  0  0  0
   90.2879  150.2613   16.0902 C   0  0  0  0  0  0  0  0  0  0  0  0
   91.2260  149.1097   16.4012 C   0  0  0  0  0  0  0  0  0  0  0  0
   91.0707  151.4301   15.5586 C   0  0  0  0  0  0  0  0  0  0  0  0
   89.5753  150.6860   17.3586 C   0  0  0  0  0  0  0  0  0  0  0  0
 18 19  2  0
 19 20  1  0
 19 21  1  0
 20  1  1  0
 20 22  1  0
 21 23  1  0
 21 26  1  0
  1  2  2  0
  1  3  1  0
 22 24  1  0
 23 25  2  0
 23 24  1  0
  2  4  1  0
  3  5  2  0
  4  6  2  0
  5  6  1  0
  7  4  1  0
  7  9  1  0
  7 10  1  0
  8  6  1  0
  8 11  1  0
  8  9  1  0
  9 12  1  0
 10 13  1  0
 10 11  1  0
 11 14  1  0
 12 15  2  0
 12 27  1  0
 13 16  1  0
 14 17  1  0
 27 28  1  0
 28 29  1  0
 28 30  1  0
 28 31  1  0
M  END
> <Molecule Name>
Compound 4

> <EC50 (µM) (Excel)>
11.8

> <Error (µM)>
7.4

> <HTRC CRBN-DDB1 EC50 (µM)>
11.78 ±  7.41

> <EC50 fitting (µM)>
15.10

> <Modèle Fitting>
4PL

> <Parent_Compound>
Compound 4

> <MMFF94s_energy_kcalmol>
197.272
$$$$

> <minimizedAffinity>
-8.53886

> <CNNscore>
0.9237096310

> <CNNaffinity>
6.4410223961

> <CNN_VS>
5.9496345520

> <CNNaffinity_variance>
0.1931151003

$$$$
Compound_4_s13


 31 34  0  0  0  0  0  0  0  0999 V2000
   85.9279  154.2970   12.9178 C   0  0  0  0  0  0  0  0  0  0  0  0
   86.7781  154.1752   11.8486 C   0  0  0  0  0  0  0  0  0  0  0  0
   85.6959  153.1781   13.6916 C   0  0  0  0  0  0  0  0  0  0  0  0
   87.3857  152.9471   11.5615 C   0  0  0  0  0  0  0  0  0  0  0  0
   86.2987  151.9462   13.4127 C   0  0  0  0  0  0  0  0  0  0  0  0
   87.1508  151.8286   12.3388 C   0  0  0  0  0  0  0  0  0  0  0  0
   88.3348  152.4889   10.5067 C   0  0  0  0  0  0  0  0  0  0  0  0
   87.9360  150.7157   11.7647 C   0  0  0  0  0  0  0  0  0  0  0  0
   87.8676  151.1071   10.3503 N   0  0  0  0  0  0  0  0  0  0  0  0
   89.6420  152.2263   11.2148 C   0  0  0  0  0  0  0  0  0  0  0  0
   89.4147  150.9374   11.9942 C   0  0  0  0  0  0  0  0  0  0  0  0
   87.4781  150.3742    9.2379 C   0  0  0  0  0  0  0  0  0  0  0  0
   89.8113  153.2451   12.1617 O   0  0  0  0  0  0  0  0  0  0  0  0
   89.7255  151.0791   13.3351 O   0  0  0  0  0  0  0  0  0  0  0  0
   87.1164  149.1804    9.4077 O   0  0  0  0  0  0  0  0  0  0  0  0
   89.0429  153.2677   12.7531 H   0  0  0  0  0  0  0  0  0  0  0  0
   89.2085  151.8083   13.7115 H   0  0  0  0  0  0  0  0  0  0  0  0
   84.2627  155.8570   11.1844 O   0  0  0  0  0  0  0  0  0  0  0  0
   84.6885  156.3400   12.2486 C   0  0  0  0  0  0  0  0  0  0  0  0
   85.2465  155.5232   13.2624 N   0  0  0  0  0  0  0  0  0  0  0  0
   84.6248  157.7619   12.4885 N   0  0  0  0  0  0  0  0  0  0  0  0
   85.1562  155.9357   14.6403 C   0  0  0  0  0  0  0  0  0  0  0  0
   85.1384  158.2341   13.7604 C   0  0  0  0  0  0  0  0  0  0  0  0
   84.8132  157.3474   14.8990 C   0  0  0  0  0  0  0  0  0  0  0  0
   85.7764  159.2897   13.7931 O   0  0  0  0  0  0  0  0  0  0  0  0
   84.2507  158.3815   11.8211 H   0  0  0  0  0  0  0  0  0  0  0  0
   87.4539  150.8539    7.9375 O   0  0  0  0  0  0  0  0  0  0  0  0
   88.6108  150.9665    7.1265 C   0  0  0  0  0  0  0  0  0  0  0  0
   88.8788  152.4327    6.8415 C   0  0  0  0  0  0  0  0  0  0  0  0
   89.8198  150.3395    7.7641 C   0  0  0  0  0  0  0  0  0  0  0  0
   88.3153  150.2472    5.8256 C   0  0  0  0  0  0  0  0  0  0  0  0
 18 19  2  0
 19 20  1  0
 19 21  1  0
 20  1  1  0
 20 22  1  0
 21 23  1  0
 21 26  1  0
  1  2  2  0
  1  3  1  0
 22 24  1  0
 23 25  2  0
 23 24  1  0
  2  4  1  0
  3  5  2  0
  4  6  2  0
  5  6  1  0
  7  4  1  0
  7  9  1  0
  7 10  1  0
  8  6  1  0
  8 11  1  0
  8  9  1  0
  9 12  1  0
 10 13  1  0
 10 11  1  0
 11 14  1  0
 12 15  2  0
 12 27  1  0
 13 16  1  0
 14 17  1  0
 27 28  1  0
 28 29  1  0
 28 30  1  0
 28 31  1  0
M  END
> <Molecule Name>
Compound 4

> <EC50 (µM) (Excel)>
11.8

> <Error (µM)>
7.4

> <HTRC CRBN-DDB1 EC50 (µM)>
11.78 ±  7.41

> <EC50 fitting (µM)>
15.10

> <Modèle Fitting>
4PL

> <Parent_Compound>
Compound 4

> <MMFF94s_energy_kcalmol>
197.272
$$$$

> <minimizedAffinity>
-8.38663

> <CNNscore>
0.9173220992

> <CNNaffinity>
6.7106575966

> <CNN_VS>
6.1558346748

> <CNNaffinity_variance>
0.2680059373

$$$$
Compound_4_s13


 31 34  0  0  0  0  0  0  0  0999 V2000
   84.5855  154.9328   14.0382 C   0  0  0  0  0  0  0  0  0  0  0  0
   84.2249  154.0533   13.0495 C   0  0  0  0  0  0  0  0  0  0  0  0
   85.1035  154.4155   15.2080 C   0  0  0  0  0  0  0  0  0  0  0  0
   84.3824  152.6747   13.2343 C   0  0  0  0  0  0  0  0  0  0  0  0
   85.2648  153.0388   15.4019 C   0  0  0  0  0  0  0  0  0  0  0  0
   84.9014  152.1602   14.4075 C   0  0  0  0  0  0  0  0  0  0  0  0
   84.1004  151.4825   12.3842 C   0  0  0  0  0  0  0  0  0  0  0  0
   84.9284  150.6885   14.2735 C   0  0  0  0  0  0  0  0  0  0  0  0
   83.7350  150.5238   13.4327 N   0  0  0  0  0  0  0  0  0  0  0  0
   85.4486  150.9224   11.9999 C   0  0  0  0  0  0  0  0  0  0  0  0
   85.9783  150.2674   13.2690 C   0  0  0  0  0  0  0  0  0  0  0  0
   82.6259  149.7074   13.6052 C   0  0  0  0  0  0  0  0  0  0  0  0
   86.2869  152.0119   11.7289 O   0  0  0  0  0  0  0  0  0  0  0  0
   87.2411  150.7246   13.6020 O   0  0  0  0  0  0  0  0  0  0  0  0
   82.5813  148.9703   14.6248 O   0  0  0  0  0  0  0  0  0  0  0  0
   86.3121  152.6001   12.4998 H   0  0  0  0  0  0  0  0  0  0  0  0
   87.2221  151.6903   13.6915 H   0  0  0  0  0  0  0  0  0  0  0  0
   84.2137  156.4210   11.6178 O   0  0  0  0  0  0  0  0  0  0  0  0
   84.5358  157.0020   12.6693 C   0  0  0  0  0  0  0  0  0  0  0  0
   84.4312  156.3650   13.9301 N   0  0  0  0  0  0  0  0  0  0  0  0
   85.0286  158.3583   12.6391 N   0  0  0  0  0  0  0  0  0  0  0  0
   84.1977  157.1567   15.1115 C   0  0  0  0  0  0  0  0  0  0  0  0
   85.3728  158.9576   13.9145 C   0  0  0  0  0  0  0  0  0  0  0  0
   84.4381  158.6088   15.0068 C   0  0  0  0  0  0  0  0  0  0  0  0
   86.3714  159.6788   13.9865 O   0  0  0  0  0  0  0  0  0  0  0  0
   85.1265  158.8529   11.7934 H   0  0  0  0  0  0  0  0  0  0  0  0
   81.5483  149.6350   12.7361 O   0  0  0  0  0  0  0  0  0  0  0  0
   80.3848  148.8696   12.9991 C   0  0  0  0  0  0  0  0  0  0  0  0
   79.4669  148.9274   11.7920 C   0  0  0  0  0  0  0  0  0  0  0  0
   80.7045  147.4382   13.3312 C   0  0  0  0  0  0  0  0  0  0  0  0
   79.6923  149.5048   14.1882 C   0  0  0  0  0  0  0  0  0  0  0  0
 18 19  2  0
 19 20  1  0
 19 21  1  0
 20  1  1  0
 20 22  1  0
 21 23  1  0
 21 26  1  0
  1  2  2  0
  1  3  1  0
 22 24  1  0
 23 25  2  0
 23 24  1  0
  2  4  1  0
  3  5  2  0
  4  6  2  0
  5  6  1  0
  7  4  1  0
  7  9  1  0
  7 10  1  0
  8  6  1  0
  8 11  1  0
  8  9  1  0
  9 12  1  0
 10 13  1  0
 10 11  1  0
 11 14  1  0
 12 15  2  0
 12 27  1  0
 13 16  1  0
 14 17  1  0
 27 28  1  0
 28 29  1  0
 28 30  1  0
 28 31  1  0
M  END
> <Molecule Name>
Compound 4

> <EC50 (µM) (Excel)>
11.8

> <Error (µM)>
7.4

> <HTRC CRBN-DDB1 EC50 (µM)>
11.78 ±  7.41

> <EC50 fitting (µM)>
15.10

> <Modèle Fitting>
4PL

> <Parent_Compound>
Compound 4

> <MMFF94s_energy_kcalmol>
197.272
$$$$

> <minimizedAffinity>
-8.68798

> <CNNscore>
0.8034691215

> <CNNaffinity>
6.3403182030

> <CNN_VS>
5.0942497253

> <CNNaffinity_variance>
0.0637830794

$$$$
