Compound_12_ent2
 OpenBabel09072607323D

 68 71  0  0  0  0  0  0  0  0999 V2000
    0.0285    0.9701   -1.8129 S   0  0  0  0  0  0  0  0  0  0  0  0
   -0.8578    0.2374   -2.7664 O   0  0  0  0  0  0  0  0  0  0  0  0
   -0.7356    2.2088   -1.3629 O   0  0  0  0  0  0  0  0  0  0  0  0
    0.4808    0.0629   -0.4489 N   0  0  0  0  0  0  0  0  0  0  0  0
    1.4282    1.5708   -2.7268 C   0  0  0  0  0  0  0  0  0  0  0  0
    1.8903   -0.0616   -0.2416 C   0  0  0  0  0  0  0  0  0  0  0  0
   -0.2383    0.3675    0.7557 C   0  0  0  0  0  0  0  0  0  0  0  0
    2.1559    2.6600   -1.9766 C   0  0  0  0  0  0  0  0  0  0  0  0
    2.5464    1.2643    0.1578 C   0  0  0  0  0  0  0  0  0  0  0  0
   -1.4517   -0.4702    0.9566 C   0  0  0  0  0  0  0  0  0  0  0  0
    2.9821    2.0271   -0.9689 N   0  0  0  0  0  0  0  0  0  0  0  0
   -2.6643   -0.0722    0.4641 C   0  0  0  0  0  0  0  0  0  0  0  0
   -1.3205   -1.6484    1.6482 C   0  0  0  0  0  0  0  0  0  0  0  0
    4.3735    2.2156   -1.1631 C   0  0  0  0  0  0  0  0  0  0  0  0
   -3.7765   -0.8785    0.6710 C   0  0  0  0  0  0  0  0  0  0  0  0
   -2.4418   -2.4248    1.8364 C   0  0  0  0  0  0  0  0  0  0  0  0
    4.8462    2.8728   -2.1190 O   0  0  0  0  0  0  0  0  0  0  0  0
    5.3101    1.6041   -0.1866 C   0  0  0  0  0  0  0  0  0  0  0  0
   -5.0456   -0.4197    0.1305 C   0  0  0  0  0  0  0  0  0  0  0  0
   -3.6785   -2.0675    1.3614 C   0  0  0  0  0  0  0  0  0  0  0  0
    6.7193    1.9699   -0.6002 C   0  0  0  0  0  0  0  0  0  0  0  0
   -5.0894    0.6823   -0.5023 O   0  0  0  0  0  0  0  0  0  0  0  0
   -6.2794   -1.1079    0.2464 N   0  0  0  0  0  0  0  0  0  0  0  0
    7.7215    1.4783    0.1908 O   0  0  0  0  0  0  0  0  0  0  0  0
   -7.5131   -0.5617   -0.3363 C   0  0  1  0  0  0  0  0  0  0  0  0
    8.1113    0.1989    0.4582 C   0  0  0  0  0  0  0  0  0  0  0  0
   -8.1559   -1.5993   -1.1494 C   0  0  0  0  0  0  0  0  0  0  0  0
   -8.4285   -0.2584    0.8464 C   0  0  0  0  0  0  0  0  0  0  0  0
    9.1848    0.0442    1.3539 C   0  0  0  0  0  0  0  0  0  0  0  0
    7.5522   -0.9342   -0.0693 C   0  0  0  0  0  0  0  0  0  0  0  0
   -7.4342   -2.2237   -1.9758 O   0  0  0  0  0  0  0  0  0  0  0  0
   -9.5477   -1.8848   -1.0036 N   0  0  0  0  0  0  0  0  0  0  0  0
   -9.7958    0.1807    0.3932 C   0  0  0  0  0  0  0  0  0  0  0  0
    9.6699   -1.1892    1.7010 C   0  0  0  0  0  0  0  0  0  0  0  0
    8.0185   -2.1999    0.2608 C   0  0  0  0  0  0  0  0  0  0  0  0
  -10.4189   -0.9694   -0.3138 C   0  0  0  0  0  0  0  0  0  0  0  0
    9.0724   -2.2914    1.1436 C   0  0  0  0  0  0  0  0  0  0  0  0
  -11.6627   -1.1372   -0.3098 O   0  0  0  0  0  0  0  0  0  0  0  0
    1.0896    1.9612   -3.6637 H   0  0  0  0  0  0  0  0  0  0  0  0
    2.1059    0.7561   -2.8747 H   0  0  0  0  0  0  0  0  0  0  0  0
    2.3408   -0.4075   -1.1484 H   0  0  0  0  0  0  0  0  0  0  0  0
    2.0400   -0.7523    0.5618 H   0  0  0  0  0  0  0  0  0  0  0  0
   -0.5387    1.3938    0.7193 H   0  0  0  0  0  0  0  0  0  0  0  0
    0.4211    0.1636    1.5733 H   0  0  0  0  0  0  0  0  0  0  0  0
    1.4499    3.3148   -1.5099 H   0  0  0  0  0  0  0  0  0  0  0  0
    2.7590    3.2367   -2.6464 H   0  0  0  0  0  0  0  0  0  0  0  0
    3.3936    1.0539    0.7766 H   0  0  0  0  0  0  0  0  0  0  0  0
    1.8115    1.8447    0.6755 H   0  0  0  0  0  0  0  0  0  0  0  0
   -2.7518    0.8157   -0.0545 H   0  0  0  0  0  0  0  0  0  0  0  0
   -0.4039   -1.9451    2.0181 H   0  0  0  0  0  0  0  0  0  0  0  0
   -2.3483   -3.3116    2.3559 H   0  0  0  0  0  0  0  0  0  0  0  0
    5.1950    0.5403   -0.1899 H   0  0  0  0  0  0  0  0  0  0  0  0
    5.1064    1.9641    0.8002 H   0  0  0  0  0  0  0  0  0  0  0  0
   -4.5045   -2.6667    1.5153 H   0  0  0  0  0  0  0  0  0  0  0  0
    6.7946    3.0372   -0.5990 H   0  0  0  0  0  0  0  0  0  0  0  0
    6.8639    1.5228   -1.5615 H   0  0  0  0  0  0  0  0  0  0  0  0
   -6.3104   -1.9672    0.7259 H   0  0  0  0  0  0  0  0  0  0  0  0
   -7.3186    0.2999   -0.9402 H   0  0  0  0  0  0  0  0  0  0  0  0
   -7.9903    0.5218    1.4330 H   0  0  0  0  0  0  0  0  0  0  0  0
   -8.5390   -1.1540    1.4214 H   0  0  0  0  0  0  0  0  0  0  0  0
    9.6205    0.8859    1.7623 H   0  0  0  0  0  0  0  0  0  0  0  0
    6.7638   -0.8453   -0.7293 H   0  0  0  0  0  0  0  0  0  0  0  0
   -9.9156   -2.7172   -1.3791 H   0  0  0  0  0  0  0  0  0  0  0  0
   -9.7108    1.0157   -0.2704 H   0  0  0  0  0  0  0  0  0  0  0  0
  -10.3934    0.4800    1.2288 H   0  0  0  0  0  0  0  0  0  0  0  0
   10.4584   -1.2860    2.3597 H   0  0  0  0  0  0  0  0  0  0  0  0
    7.5885   -3.0467   -0.1430 H   0  0  0  0  0  0  0  0  0  0  0  0
    9.4269   -3.2272    1.3959 H   0  0  0  0  0  0  0  0  0  0  0  0
  1  2  2  0  0  0  0
  1  3  2  0  0  0  0
  1  4  1  0  0  0  0
  1  5  1  0  0  0  0
  4  6  1  0  0  0  0
  4  7  1  0  0  0  0
  5  8  1  0  0  0  0
  5 39  1  0  0  0  0
  5 40  1  0  0  0  0
  6  9  1  0  0  0  0
  6 41  1  0  0  0  0
  6 42  1  0  0  0  0
  7 10  1  0  0  0  0
  7 43  1  0  0  0  0
  7 44  1  0  0  0  0
  8 11  1  0  0  0  0
  8 45  1  0  0  0  0
  8 46  1  0  0  0  0
  9 11  1  0  0  0  0
  9 47  1  0  0  0  0
  9 48  1  0  0  0  0
 10 12  2  0  0  0  0
 10 13  1  0  0  0  0
 11 14  1  0  0  0  0
 12 15  1  0  0  0  0
 12 49  1  0  0  0  0
 13 16  2  0  0  0  0
 13 50  1  0  0  0  0
 14 17  2  0  0  0  0
 14 18  1  0  0  0  0
 15 19  1  0  0  0  0
 15 20  2  0  0  0  0
 16 20  1  0  0  0  0
 16 51  1  0  0  0  0
 18 21  1  0  0  0  0
 18 52  1  0  0  0  0
 18 53  1  0  0  0  0
 19 22  2  0  0  0  0
 19 23  1  0  0  0  0
 20 54  1  0  0  0  0
 21 24  1  0  0  0  0
 21 55  1  0  0  0  0
 21 56  1  0  0  0  0
 23 57  1  0  0  0  0
 24 26  1  0  0  0  0
 25 23  1  0  0  0  0
 25 27  1  0  0  0  0
 25 28  1  0  0  0  0
 25 58  1  6  0  0  0
 26 29  2  0  0  0  0
 26 30  1  0  0  0  0
 27 31  2  0  0  0  0
 27 32  1  0  0  0  0
 28 33  1  0  0  0  0
 28 59  1  0  0  0  0
 28 60  1  0  0  0  0
 29 34  1  0  0  0  0
 29 61  1  0  0  0  0
 30 35  2  0  0  0  0
 30 62  1  0  0  0  0
 32 36  1  0  0  0  0
 32 63  1  0  0  0  0
 33 36  1  0  0  0  0
 33 64  1  0  0  0  0
 33 65  1  0  0  0  0
 34 37  2  0  0  0  0
 34 66  1  0  0  0  0
 35 37  1  0  0  0  0
 35 67  1  0  0  0  0
 36 38  2  0  0  0  0
 37 68  1  0  0  0  0
M  END
>  <Molecule Name>
Compound 12

>  <EC50 (µM) (Excel)>
61.9

>  <Error (µM)>
8.1

>  <HTRC CRBN-DDB1 EC50 (µM)>
61.88 ±  8.05

>  <EC50 fitting (µM)>
111.51

>  <Modèle Fitting>
4PL

>  <Parent_Compound>
Compound 12

>  <MMFF94s_energy_kcalmol>
147.331
$$$$
