Compound_12_ent2


 40 43  0  0  0  0  0  0  0  0999 V2000
   83.4478  148.8967   19.1862 S   0  0  0  0  0  0  0  0  0  0  0  0
   82.8524  150.0611   19.9081 O   0  0  0  0  0  0  0  0  0  0  0  0
   82.3372  147.8679   19.0162 O   0  0  0  0  0  0  0  0  0  0  0  0
   84.0947  149.2817   17.6626 N   0  0  0  0  0  0  0  0  0  0  0  0
   84.6429  148.1446   20.2639 C   0  0  0  0  0  0  0  0  0  0  0  0
   85.4697  148.9336   17.4803 C   0  0  0  0  0  0  0  0  0  0  0  0
   84.9898  146.7447   19.8183 C   0  0  0  0  0  0  0  0  0  0  0  0
   85.6920  147.4183   17.4289 C   0  0  0  0  0  0  0  0  0  0  0  0
   85.9267  146.8499   18.7185 N   0  0  0  0  0  0  0  0  0  0  0  0
   87.2077  146.3120   18.9995 C   0  0  0  0  0  0  0  0  0  0  0  0
   87.5024  145.7901   20.0994 O   0  0  0  0  0  0  0  0  0  0  0  0
   83.2729  148.9266   16.5404 C   0  0  0  0  0  0  0  0  0  0  0  0
   83.1897  149.9872   15.4999 C   0  0  0  0  0  0  0  0  0  0  0  0
   83.8571  151.1712   15.6548 C   0  0  0  0  0  0  0  0  0  0  0  0
   82.4266  149.7451   14.3851 C   0  0  0  0  0  0  0  0  0  0  0  0
   83.7563  152.1396   14.6640 C   0  0  0  0  0  0  0  0  0  0  0  0
   82.3471  150.7252   13.4214 C   0  0  0  0  0  0  0  0  0  0  0  0
   82.9982  151.9279   13.5324 C   0  0  0  0  0  0  0  0  0  0  0  0
   84.4818  153.3829   14.8670 C   0  0  0  0  0  0  0  0  0  0  0  0
   85.2304  153.5059   15.8874 O   0  0  0  0  0  0  0  0  0  0  0  0
   84.4314  154.5080   14.0061 N   0  0  0  0  0  0  0  0  0  0  0  0
   83.8688  154.4742   13.1990 H   0  0  0  0  0  0  0  0  0  0  0  0
   85.2040  155.7239   14.2969 C   0  0  0  0  0  0  0  0  0  0  0  0
   85.6988  156.2867   13.0363 C   0  0  0  0  0  0  0  0  0  0  0  0
   84.2068  156.7133   14.8930 C   0  0  0  0  0  0  0  0  0  0  0  0
   86.2693  155.5004   12.2301 O   0  0  0  0  0  0  0  0  0  0  0  0
   85.5360  157.6747   12.7415 N   0  0  0  0  0  0  0  0  0  0  0  0
   84.8299  158.0663   15.1136 C   0  0  0  0  0  0  0  0  0  0  0  0
   85.1891  158.6119   13.7779 C   0  0  0  0  0  0  0  0  0  0  0  0
   85.1901  159.8480   13.5605 O   0  0  0  0  0  0  0  0  0  0  0  0
   85.6625  157.9943   11.8190 H   0  0  0  0  0  0  0  0  0  0  0  0
   88.2450  146.3723   17.9388 C   0  0  0  0  0  0  0  0  0  0  0  0
   89.2768  147.3991   18.3534 C   0  0  0  0  0  0  0  0  0  0  0  0
   88.9813  148.7001   18.0504 O   0  0  0  0  0  0  0  0  0  0  0  0
   89.7834  149.7919   17.8933 C   0  0  0  0  0  0  0  0  0  0  0  0
   90.1797  150.0954   16.5782 C   0  0  0  0  0  0  0  0  0  0  0  0
   90.2319  150.6061   18.8986 C   0  0  0  0  0  0  0  0  0  0  0  0
   90.9862  151.1649   16.2905 C   0  0  0  0  0  0  0  0  0  0  0  0
   91.0501  151.6986   18.6429 C   0  0  0  0  0  0  0  0  0  0  0  0
   91.4064  151.9484   17.3356 C   0  0  0  0  0  0  0  0  0  0  0  0
  1  2  2  0
  1  3  2  0
  1  4  1  0
  1  5  1  0
  4  6  1  0
  4 12  1  0
  5  7  1  0
  6  8  1  0
 12 13  1  0
  7  9  1  0
  8  9  1  0
 13 14  2  0
 13 15  1  0
  9 10  1  0
 14 16  1  0
 15 17  2  0
 10 11  2  0
 10 32  1  0
 16 19  1  0
 16 18  2  0
 17 18  1  0
 32 33  1  0
 19 20  2  0
 19 21  1  0
 33 34  1  0
 21 22  1  0
 34 35  1  0
 23 21  1  0
 23 24  1  0
 23 25  1  0
 35 36  2  0
 35 37  1  0
 24 26  2  0
 24 27  1  0
 25 28  1  0
 36 38  1  0
 37 39  2  0
 27 29  1  0
 27 31  1  0
 28 29  1  0
 38 40  2  0
 39 40  1  0
 29 30  2  0
M  END
> <Molecule Name>
Compound 12

> <EC50 (µM) (Excel)>
61.9

> <Error (µM)>
8.1

> <HTRC CRBN-DDB1 EC50 (µM)>
61.88 ±  8.05

> <EC50 fitting (µM)>
111.51

> <Modèle Fitting>
4PL

> <Parent_Compound>
Compound 12

> <MMFF94s_energy_kcalmol>
147.331
$$$$

> <minimizedAffinity>
-7.89676

> <CNNscore>
0.5359663963

> <CNNaffinity>
6.9033236504

> <CNN_VS>
3.6999495029

> <CNNaffinity_variance>
0.0768489167

$$$$
Compound_12_ent2


 40 43  0  0  0  0  0  0  0  0999 V2000
   79.4375  149.6767   17.0138 S   0  0  0  0  0  0  0  0  0  0  0  0
   78.7561  150.7233   16.1941 O   0  0  0  0  0  0  0  0  0  0  0  0
   79.4856  148.4128   16.1647 O   0  0  0  0  0  0  0  0  0  0  0  0
   81.0140  150.0899   17.4956 N   0  0  0  0  0  0  0  0  0  0  0  0
   78.3822  149.2946   18.3905 C   0  0  0  0  0  0  0  0  0  0  0  0
   81.2485  150.0518   18.9058 C   0  0  0  0  0  0  0  0  0  0  0  0
   78.7607  147.9824   19.0335 C   0  0  0  0  0  0  0  0  0  0  0  0
   81.2204  148.6271   19.4693 C   0  0  0  0  0  0  0  0  0  0  0  0
   79.9135  148.2198   19.8781 N   0  0  0  0  0  0  0  0  0  0  0  0
   79.6697  148.0088   21.2584 C   0  0  0  0  0  0  0  0  0  0  0  0
   78.5576  147.6469   21.7074 O   0  0  0  0  0  0  0  0  0  0  0  0
   82.0672  149.4785   16.7354 C   0  0  0  0  0  0  0  0  0  0  0  0
   82.5036  150.2832   15.5622 C   0  0  0  0  0  0  0  0  0  0  0  0
   83.2106  151.4417   15.7341 C   0  0  0  0  0  0  0  0  0  0  0  0
   82.1771  149.8326   14.3076 C   0  0  0  0  0  0  0  0  0  0  0  0
   83.6011  152.1685   14.6165 C   0  0  0  0  0  0  0  0  0  0  0  0
   82.5787  150.5758   13.2205 C   0  0  0  0  0  0  0  0  0  0  0  0
   83.2891  151.7433   13.3430 C   0  0  0  0  0  0  0  0  0  0  0  0
   84.3515  153.3928   14.8430 C   0  0  0  0  0  0  0  0  0  0  0  0
   85.0773  153.4934   15.8821 O   0  0  0  0  0  0  0  0  0  0  0  0
   84.3501  154.5220   13.9862 N   0  0  0  0  0  0  0  0  0  0  0  0
   83.8069  154.5052   13.1652 H   0  0  0  0  0  0  0  0  0  0  0  0
   85.1447  155.7175   14.3014 C   0  0  0  0  0  0  0  0  0  0  0  0
   85.6761  156.2786   13.0549 C   0  0  0  0  0  0  0  0  0  0  0  0
   84.1593  156.7249   14.8868 C   0  0  0  0  0  0  0  0  0  0  0  0
   86.2435  155.4855   12.2532 O   0  0  0  0  0  0  0  0  0  0  0  0
   85.5508  157.6722   12.7686 N   0  0  0  0  0  0  0  0  0  0  0  0
   84.8090  158.0615   15.1302 C   0  0  0  0  0  0  0  0  0  0  0  0
   85.2059  158.6090   13.8060 C   0  0  0  0  0  0  0  0  0  0  0  0
   85.2394  159.8464   13.5988 O   0  0  0  0  0  0  0  0  0  0  0  0
   85.7020  157.9960   11.8512 H   0  0  0  0  0  0  0  0  0  0  0  0
   80.7861  148.2282   22.2124 C   0  0  0  0  0  0  0  0  0  0  0  0
   81.1125  146.9005   22.8615 C   0  0  0  0  0  0  0  0  0  0  0  0
   82.3362  146.3703   22.5565 O   0  0  0  0  0  0  0  0  0  0  0  0
   83.5715  146.9434   22.4801 C   0  0  0  0  0  0  0  0  0  0  0  0
   83.8909  147.5874   21.2711 C   0  0  0  0  0  0  0  0  0  0  0  0
   84.5167  146.9413   23.4708 C   0  0  0  0  0  0  0  0  0  0  0  0
   85.1005  148.1988   21.0705 C   0  0  0  0  0  0  0  0  0  0  0  0
   85.7526  147.5514   23.3017 C   0  0  0  0  0  0  0  0  0  0  0  0
   86.0107  148.1674   22.0966 C   0  0  0  0  0  0  0  0  0  0  0  0
  1  2  2  0
  1  3  2  0
  1  4  1  0
  1  5  1  0
  4  6  1  0
  4 12  1  0
  5  7  1  0
  6  8  1  0
 12 13  1  0
  7  9  1  0
  8  9  1  0
 13 14  2  0
 13 15  1  0
  9 10  1  0
 14 16  1  0
 15 17  2  0
 10 11  2  0
 10 32  1  0
 16 19  1  0
 16 18  2  0
 17 18  1  0
 32 33  1  0
 19 20  2  0
 19 21  1  0
 33 34  1  0
 21 22  1  0
 34 35  1  0
 23 21  1  0
 23 24  1  0
 23 25  1  0
 35 36  2  0
 35 37  1  0
 24 26  2  0
 24 27  1  0
 25 28  1  0
 36 38  1  0
 37 39  2  0
 27 29  1  0
 27 31  1  0
 28 29  1  0
 38 40  2  0
 39 40  1  0
 29 30  2  0
M  END
> <Molecule Name>
Compound 12

> <EC50 (µM) (Excel)>
61.9

> <Error (µM)>
8.1

> <HTRC CRBN-DDB1 EC50 (µM)>
61.88 ±  8.05

> <EC50 fitting (µM)>
111.51

> <Modèle Fitting>
4PL

> <Parent_Compound>
Compound 12

> <MMFF94s_energy_kcalmol>
147.331
$$$$

> <minimizedAffinity>
-8.34754

> <CNNscore>
0.5098628998

> <CNNaffinity>
6.5953860283

> <CNN_VS>
3.3627426624

> <CNNaffinity_variance>
0.0621602684

$$$$
Compound_12_ent2


 40 43  0  0  0  0  0  0  0  0999 V2000
   83.0203  149.7415   18.9913 S   0  0  0  0  0  0  0  0  0  0  0  0
   83.0287  151.2262   19.1563 O   0  0  0  0  0  0  0  0  0  0  0  0
   81.5628  149.3213   18.8503 O   0  0  0  0  0  0  0  0  0  0  0  0
   83.8972  149.1879   17.6450 N   0  0  0  0  0  0  0  0  0  0  0  0
   83.5852  149.0239   20.5148 C   0  0  0  0  0  0  0  0  0  0  0  0
   84.9240  148.2364   17.9376 C   0  0  0  0  0  0  0  0  0  0  0  0
   83.2219  147.5618   20.6089 C   0  0  0  0  0  0  0  0  0  0  0  0
   84.3628  146.8862   18.3957 C   0  0  0  0  0  0  0  0  0  0  0  0
   84.1738  146.8171   19.8102 N   0  0  0  0  0  0  0  0  0  0  0  0
   84.9862  145.9302   20.5603 C   0  0  0  0  0  0  0  0  0  0  0  0
   84.8879  145.8001   21.8023 O   0  0  0  0  0  0  0  0  0  0  0  0
   83.1046  148.8245   16.5046 C   0  0  0  0  0  0  0  0  0  0  0  0
   83.1303  149.8338   15.4115 C   0  0  0  0  0  0  0  0  0  0  0  0
   83.7869  151.0228   15.5743 C   0  0  0  0  0  0  0  0  0  0  0  0
   82.4782  149.5397   14.2401 C   0  0  0  0  0  0  0  0  0  0  0  0
   83.7897  151.9426   14.5332 C   0  0  0  0  0  0  0  0  0  0  0  0
   82.4996  150.4723   13.2276 C   0  0  0  0  0  0  0  0  0  0  0  0
   83.1444  151.6778   13.3442 C   0  0  0  0  0  0  0  0  0  0  0  0
   84.4998  153.1929   14.7466 C   0  0  0  0  0  0  0  0  0  0  0  0
   85.2100  153.3335   15.7919 O   0  0  0  0  0  0  0  0  0  0  0  0
   84.4742  154.3068   13.8703 N   0  0  0  0  0  0  0  0  0  0  0  0
   83.9415  154.2593   13.0437 H   0  0  0  0  0  0  0  0  0  0  0  0
   85.2284  155.5312   14.1735 C   0  0  0  0  0  0  0  0  0  0  0  0
   85.6953  156.1265   12.9171 C   0  0  0  0  0  0  0  0  0  0  0  0
   84.2215  156.4906   14.8015 C   0  0  0  0  0  0  0  0  0  0  0  0
   86.2687  155.3660   12.0886 O   0  0  0  0  0  0  0  0  0  0  0  0
   85.5031  157.5165   12.6508 N   0  0  0  0  0  0  0  0  0  0  0  0
   84.8228  157.8507   15.0392 C   0  0  0  0  0  0  0  0  0  0  0  0
   85.1534  158.4276   13.7093 C   0  0  0  0  0  0  0  0  0  0  0  0
   85.1288  159.6674   13.5153 O   0  0  0  0  0  0  0  0  0  0  0  0
   85.6109  157.8555   11.7328 H   0  0  0  0  0  0  0  0  0  0  0  0
   85.9989  145.1204   19.8369 C   0  0  0  0  0  0  0  0  0  0  0  0
   87.3656  145.6821   20.1645 C   0  0  0  0  0  0  0  0  0  0  0  0
   87.8368  146.6438   19.3131 O   0  0  0  0  0  0  0  0  0  0  0  0
   89.0839  147.1731   19.1552 C   0  0  0  0  0  0  0  0  0  0  0  0
   90.1673  146.3238   19.4444 C   0  0  0  0  0  0  0  0  0  0  0  0
   89.3651  148.4490   18.7457 C   0  0  0  0  0  0  0  0  0  0  0  0
   91.4677  146.7386   19.3264 C   0  0  0  0  0  0  0  0  0  0  0  0
   90.6711  148.9024   18.6149 C   0  0  0  0  0  0  0  0  0  0  0  0
   91.6928  148.0269   18.9115 C   0  0  0  0  0  0  0  0  0  0  0  0
  1  2  2  0
  1  3  2  0
  1  4  1  0
  1  5  1  0
  4  6  1  0
  4 12  1  0
  5  7  1  0
  6  8  1  0
 12 13  1  0
  7  9  1  0
  8  9  1  0
 13 14  2  0
 13 15  1  0
  9 10  1  0
 14 16  1  0
 15 17  2  0
 10 11  2  0
 10 32  1  0
 16 19  1  0
 16 18  2  0
 17 18  1  0
 32 33  1  0
 19 20  2  0
 19 21  1  0
 33 34  1  0
 21 22  1  0
 34 35  1  0
 23 21  1  0
 23 24  1  0
 23 25  1  0
 35 36  2  0
 35 37  1  0
 24 26  2  0
 24 27  1  0
 25 28  1  0
 36 38  1  0
 37 39  2  0
 27 29  1  0
 27 31  1  0
 28 29  1  0
 38 40  2  0
 39 40  1  0
 29 30  2  0
M  END
> <Molecule Name>
Compound 12

> <EC50 (µM) (Excel)>
61.9

> <Error (µM)>
8.1

> <HTRC CRBN-DDB1 EC50 (µM)>
61.88 ±  8.05

> <EC50 fitting (µM)>
111.51

> <Modèle Fitting>
4PL

> <Parent_Compound>
Compound 12

> <MMFF94s_energy_kcalmol>
147.331
$$$$

> <minimizedAffinity>
-7.22916

> <CNNscore>
0.5067628622

> <CNNaffinity>
6.6269702911

> <CNN_VS>
3.3583023548

> <CNNaffinity_variance>
0.0513445251

$$$$
Compound_12_ent2


 40 43  0  0  0  0  0  0  0  0999 V2000
   79.8128  149.6815   18.0820 S   0  0  0  0  0  0  0  0  0  0  0  0
   80.9536  149.6634   19.0462 O   0  0  0  0  0  0  0  0  0  0  0  0
   79.0285  150.9597   18.3500 O   0  0  0  0  0  0  0  0  0  0  0  0
   80.2832  149.6432   16.4494 N   0  0  0  0  0  0  0  0  0  0  0  0
   78.7217  148.3463   18.5085 C   0  0  0  0  0  0  0  0  0  0  0  0
   79.7271  148.5727   15.6814 C   0  0  0  0  0  0  0  0  0  0  0  0
   77.3571  148.5237   17.8879 C   0  0  0  0  0  0  0  0  0  0  0  0
   78.2179  148.7256   15.4642 C   0  0  0  0  0  0  0  0  0  0  0  0
   77.4457  148.1165   16.5005 N   0  0  0  0  0  0  0  0  0  0  0  0
   76.6576  146.9824   16.1815 C   0  0  0  0  0  0  0  0  0  0  0  0
   75.9462  146.3871   17.0234 O   0  0  0  0  0  0  0  0  0  0  0  0
   80.2354  150.9059   15.7681 C   0  0  0  0  0  0  0  0  0  0  0  0
   81.4432  151.1887   14.9460 C   0  0  0  0  0  0  0  0  0  0  0  0
   82.2214  152.2842   15.2023 C   0  0  0  0  0  0  0  0  0  0  0  0
   81.7525  150.3232   13.9267 C   0  0  0  0  0  0  0  0  0  0  0  0
   83.3413  152.5182   14.4143 C   0  0  0  0  0  0  0  0  0  0  0  0
   82.8688  150.5832   13.1640 C   0  0  0  0  0  0  0  0  0  0  0  0
   83.6794  151.6684   13.3830 C   0  0  0  0  0  0  0  0  0  0  0  0
   84.1417  153.6924   14.7206 C   0  0  0  0  0  0  0  0  0  0  0  0
   84.8368  153.7100   15.7851 O   0  0  0  0  0  0  0  0  0  0  0  0
   84.2228  154.8578   13.9178 N   0  0  0  0  0  0  0  0  0  0  0  0
   83.7069  154.9049   13.0806 H   0  0  0  0  0  0  0  0  0  0  0  0
   85.0630  155.9970   14.3127 C   0  0  0  0  0  0  0  0  0  0  0  0
   85.5919  156.6401   13.1054 C   0  0  0  0  0  0  0  0  0  0  0  0
   84.1227  156.9852   14.9969 C   0  0  0  0  0  0  0  0  0  0  0  0
   86.1181  155.8968   12.2311 O   0  0  0  0  0  0  0  0  0  0  0  0
   85.5094  158.0557   12.9350 N   0  0  0  0  0  0  0  0  0  0  0  0
   84.8218  158.2756   15.3345 C   0  0  0  0  0  0  0  0  0  0  0  0
   85.2145  158.9158   14.0513 C   0  0  0  0  0  0  0  0  0  0  0  0
   85.2866  160.1642   13.9441 O   0  0  0  0  0  0  0  0  0  0  0  0
   85.6560  158.4479   12.0440 H   0  0  0  0  0  0  0  0  0  0  0  0
   76.6794  146.4800   14.7844 C   0  0  0  0  0  0  0  0  0  0  0  0
   75.4133  146.9491   14.1005 C   0  0  0  0  0  0  0  0  0  0  0  0
   75.3063  146.6499   12.7698 O   0  0  0  0  0  0  0  0  0  0  0  0
   75.4904  147.4171   11.6572 C   0  0  0  0  0  0  0  0  0  0  0  0
   74.3536  147.6544   10.8635 C   0  0  0  0  0  0  0  0  0  0  0  0
   76.6772  147.9668   11.2524 C   0  0  0  0  0  0  0  0  0  0  0  0
   74.4096  148.4076    9.7204 C   0  0  0  0  0  0  0  0  0  0  0  0
   76.7699  148.7357   10.0997 C   0  0  0  0  0  0  0  0  0  0  0  0
   75.6240  148.9354    9.3611 C   0  0  0  0  0  0  0  0  0  0  0  0
  1  2  2  0
  1  3  2  0
  1  4  1  0
  1  5  1  0
  4  6  1  0
  4 12  1  0
  5  7  1  0
  6  8  1  0
 12 13  1  0
  7  9  1  0
  8  9  1  0
 13 14  2  0
 13 15  1  0
  9 10  1  0
 14 16  1  0
 15 17  2  0
 10 11  2  0
 10 32  1  0
 16 19  1  0
 16 18  2  0
 17 18  1  0
 32 33  1  0
 19 20  2  0
 19 21  1  0
 33 34  1  0
 21 22  1  0
 34 35  1  0
 23 21  1  0
 23 24  1  0
 23 25  1  0
 35 36  2  0
 35 37  1  0
 24 26  2  0
 24 27  1  0
 25 28  1  0
 36 38  1  0
 37 39  2  0
 27 29  1  0
 27 31  1  0
 28 29  1  0
 38 40  2  0
 39 40  1  0
 29 30  2  0
M  END
> <Molecule Name>
Compound 12

> <EC50 (µM) (Excel)>
61.9

> <Error (µM)>
8.1

> <HTRC CRBN-DDB1 EC50 (µM)>
61.88 ±  8.05

> <EC50 fitting (µM)>
111.51

> <Modèle Fitting>
4PL

> <Parent_Compound>
Compound 12

> <MMFF94s_energy_kcalmol>
147.331
$$$$

> <minimizedAffinity>
-9.22703

> <CNNscore>
0.4694544971

> <CNNaffinity>
6.6765685081

> <CNN_VS>
3.1343450546

> <CNNaffinity_variance>
0.0487686880

$$$$
Compound_12_ent2


 40 43  0  0  0  0  0  0  0  0999 V2000
   79.5031  149.6534   15.3669 S   0  0  0  0  0  0  0  0  0  0  0  0
   78.9813  150.8359   14.6178 O   0  0  0  0  0  0  0  0  0  0  0  0
   79.8929  148.6096   14.3280 O   0  0  0  0  0  0  0  0  0  0  0  0
   80.8451  149.9933   16.3526 N   0  0  0  0  0  0  0  0  0  0  0  0
   78.1501  148.9484   16.2767 C   0  0  0  0  0  0  0  0  0  0  0  0
   80.6880  149.6516   17.7324 C   0  0  0  0  0  0  0  0  0  0  0  0
   78.4535  147.5376   16.7196 C   0  0  0  0  0  0  0  0  0  0  0  0
   80.6336  148.1375   17.9618 C   0  0  0  0  0  0  0  0  0  0  0  0
   79.3062  147.6145   17.8882 N   0  0  0  0  0  0  0  0  0  0  0  0
   78.7145  147.0978   19.0681 C   0  0  0  0  0  0  0  0  0  0  0  0
   77.5588  146.6155   19.0971 O   0  0  0  0  0  0  0  0  0  0  0  0
   82.1157  149.5935   15.8171 C   0  0  0  0  0  0  0  0  0  0  0  0
   82.6409  150.5134   14.7719 C   0  0  0  0  0  0  0  0  0  0  0  0
   83.2897  151.6666   15.1189 C   0  0  0  0  0  0  0  0  0  0  0  0
   82.4559  150.1738   13.4551 C   0  0  0  0  0  0  0  0  0  0  0  0
   83.7663  152.5027   14.1170 C   0  0  0  0  0  0  0  0  0  0  0  0
   82.9399  151.0237   12.4861 C   0  0  0  0  0  0  0  0  0  0  0  0
   83.5967  152.1906   12.7852 C   0  0  0  0  0  0  0  0  0  0  0  0
   84.4508  153.7175   14.5284 C   0  0  0  0  0  0  0  0  0  0  0  0
   85.1319  153.7137   15.6021 O   0  0  0  0  0  0  0  0  0  0  0  0
   84.4296  154.9462   13.8219 N   0  0  0  0  0  0  0  0  0  0  0  0
   83.9189  155.0125   12.9828 H   0  0  0  0  0  0  0  0  0  0  0  0
   85.1562  156.1228   14.3194 C   0  0  0  0  0  0  0  0  0  0  0  0
   85.7616  156.8246   13.1828 C   0  0  0  0  0  0  0  0  0  0  0  0
   84.0948  157.0374   14.9241 C   0  0  0  0  0  0  0  0  0  0  0  0
   86.4156  156.1346   12.3521 O   0  0  0  0  0  0  0  0  0  0  0  0
   85.6107  158.2366   13.0309 N   0  0  0  0  0  0  0  0  0  0  0  0
   84.6776  158.3580   15.3533 C   0  0  0  0  0  0  0  0  0  0  0  0
   85.1555  159.0508   14.1275 C   0  0  0  0  0  0  0  0  0  0  0  0
   85.1621  160.3035   14.0508 O   0  0  0  0  0  0  0  0  0  0  0  0
   85.8203  158.6581   12.1662 H   0  0  0  0  0  0  0  0  0  0  0  0
   79.5041  147.1319   20.3251 C   0  0  0  0  0  0  0  0  0  0  0  0
   79.0127  148.2999   21.1528 C   0  0  0  0  0  0  0  0  0  0  0  0
   78.4787  147.9859   22.3726 O   0  0  0  0  0  0  0  0  0  0  0  0
   77.9704  146.8172   22.8585 C   0  0  0  0  0  0  0  0  0  0  0  0
   78.7700  146.1218   23.7836 C   0  0  0  0  0  0  0  0  0  0  0  0
   76.7613  146.2699   22.5220 C   0  0  0  0  0  0  0  0  0  0  0  0
   78.3714  144.9357   24.3417 C   0  0  0  0  0  0  0  0  0  0  0  0
   76.3259  145.0699   23.0686 C   0  0  0  0  0  0  0  0  0  0  0  0
   77.1503  144.4324   23.9699 C   0  0  0  0  0  0  0  0  0  0  0  0
  1  2  2  0
  1  3  2  0
  1  4  1  0
  1  5  1  0
  4  6  1  0
  4 12  1  0
  5  7  1  0
  6  8  1  0
 12 13  1  0
  7  9  1  0
  8  9  1  0
 13 14  2  0
 13 15  1  0
  9 10  1  0
 14 16  1  0
 15 17  2  0
 10 11  2  0
 10 32  1  0
 16 19  1  0
 16 18  2  0
 17 18  1  0
 32 33  1  0
 19 20  2  0
 19 21  1  0
 33 34  1  0
 21 22  1  0
 34 35  1  0
 23 21  1  0
 23 24  1  0
 23 25  1  0
 35 36  2  0
 35 37  1  0
 24 26  2  0
 24 27  1  0
 25 28  1  0
 36 38  1  0
 37 39  2  0
 27 29  1  0
 27 31  1  0
 28 29  1  0
 38 40  2  0
 39 40  1  0
 29 30  2  0
M  END
> <Molecule Name>
Compound 12

> <EC50 (µM) (Excel)>
61.9

> <Error (µM)>
8.1

> <HTRC CRBN-DDB1 EC50 (µM)>
61.88 ±  8.05

> <EC50 fitting (µM)>
111.51

> <Modèle Fitting>
4PL

> <Parent_Compound>
Compound 12

> <MMFF94s_energy_kcalmol>
147.331
$$$$

> <minimizedAffinity>
-7.80009

> <CNNscore>
0.4596101344

> <CNNaffinity>
6.7786388397

> <CNN_VS>
3.1155312061

> <CNNaffinity_variance>
0.0373226963

$$$$
