Compound_1_ent2


 35 37  0  0  0  0  0  0  0  0999 V2000
   84.3576  150.0717   14.3972 N   0  0  0  0  0  0  0  0  0  0  0  0
   82.9856  150.1660   14.1907 C   0  0  0  0  0  0  0  0  0  0  0  0
   84.9308  150.9704   15.3609 C   0  0  0  0  0  0  0  0  0  0  0  0
   82.2651  149.7473   15.5066 C   0  0  0  0  0  0  0  0  0  0  0  0
   84.4925  150.9350   16.7541 C   0  0  0  0  0  0  0  0  0  0  0  0
   82.1134  150.9182   16.3238 N   0  0  0  0  0  0  0  0  0  0  0  0
   83.1811  151.6653   17.0131 C   0  0  0  0  0  0  0  0  0  0  0  0
   80.8051  151.3923   16.4902 C   0  0  0  0  0  0  0  0  0  0  0  0
   80.5164  152.4146   17.1708 O   0  0  0  0  0  0  0  0  0  0  0  0
   84.3273  149.1417   14.8152 H   0  0  0  0  0  0  0  0  0  0  0  0
   82.3812  149.3624   13.0992 C   0  0  0  0  0  0  0  0  0  0  0  0
   81.4804  149.9015   12.3576 O   0  0  0  0  0  0  0  0  0  0  0  0
   82.6761  148.0630   12.7747 O   0  0  0  0  0  0  0  0  0  0  0  0
   81.8871  146.9711   13.2016 C   0  0  0  0  0  0  0  0  0  0  0  0
   85.2322  149.9260   13.2613 C   0  0  0  0  0  0  0  0  0  0  0  0
   85.6705  153.6596   12.8044 C   0  0  0  0  0  0  0  0  0  0  0  0
   85.1969  152.4279   13.1767 C   0  0  0  0  0  0  0  0  0  0  0  0
   86.8158  153.6865   12.0008 C   0  0  0  0  0  0  0  0  0  0  0  0
   85.7878  151.2091   12.8033 C   0  0  0  0  0  0  0  0  0  0  0  0
   87.4120  152.5169   11.6226 C   0  0  0  0  0  0  0  0  0  0  0  0
   86.8920  151.2814   12.0283 C   0  0  0  0  0  0  0  0  0  0  0  0
   85.0897  154.5686   15.4829 O   0  0  0  0  0  0  0  0  0  0  0  0
   85.1081  155.3206   14.5009 C   0  0  0  0  0  0  0  0  0  0  0  0
   85.0704  154.9017   13.1519 N   0  0  0  0  0  0  0  0  0  0  0  0
   85.1693  156.7405   14.7615 N   0  0  0  0  0  0  0  0  0  0  0  0
   84.4679  155.7019   12.1052 C   0  0  0  0  0  0  0  0  0  0  0  0
   85.1827  157.5679   13.6098 C   0  0  0  0  0  0  0  0  0  0  0  0
   84.3772  157.1721   12.4412 C   0  0  0  0  0  0  0  0  0  0  0  0
   85.8662  158.6133   13.5918 O   0  0  0  0  0  0  0  0  0  0  0  0
   85.1996  157.1078   15.6744 H   0  0  0  0  0  0  0  0  0  0  0  0
   79.7572  150.7292   15.8924 O   0  0  0  0  0  0  0  0  0  0  0  0
   78.7685  149.9709   16.5094 C   0  0  0  0  0  0  0  0  0  0  0  0
   77.4099  150.5089   16.0385 C   0  0  0  0  0  0  0  0  0  0  0  0
   78.8208  150.0276   18.0388 C   0  0  0  0  0  0  0  0  0  0  0  0
   78.8646  148.5465   16.0161 C   0  0  0  0  0  0  0  0  0  0  0  0
 22 23  2  0
 23 24  1  0
 23 25  1  0
 24 16  1  0
 24 26  1  0
 25 27  1  0
 25 30  1  0
 16 17  2  0
 16 18  1  0
 26 28  1  0
 27 29  2  0
 27 28  1  0
 17 19  1  0
 18 20  2  0
 19 21  2  0
 19 15  1  0
 20 21  1  0
 15  1  1  0
  1  2  1  0
  1  3  1  0
  1 10  1  0
  2 11  1  0
  2  4  1  0
  3  5  1  0
 11 12  2  0
 11 13  1  0
  4  6  1  0
  5  7  1  0
 13 14  1  0
  6  8  1  0
  6  7  1  0
  8  9  2  0
  8 31  1  0
 31 32  1  0
 32 33  1  0
 32 34  1  0
 32 35  1  0
M  CHG 1   1   1
M  END
> <Molecule Name>
Compound 1

> <EC50 (µM) (Excel)>
49.5

> <Error (µM)>
6.2

> <HTRC CRBN-DDB1 EC50 (µM)>
49.46 ±  6.19

> <EC50 fitting (µM)>
60.01

> <Modèle Fitting>
3PL

> <Parent_Compound>
Compound 1

> <MMFF94s_energy_kcalmol>
176.500
$$$$

> <minimizedAffinity>
-7.80356

> <CNNscore>
0.3152046502

> <CNNaffinity>
5.1572394371

> <CNN_VS>
1.6255857944

> <CNNaffinity_variance>
1.5502516031

$$$$
Compound_1_ent2


 35 37  0  0  0  0  0  0  0  0999 V2000
   84.2786  150.1686   16.0270 N   0  0  0  0  0  0  0  0  0  0  0  0
   83.9374  151.4997   15.8130 C   0  0  0  0  0  0  0  0  0  0  0  0
   85.0427  149.5220   14.9960 C   0  0  0  0  0  0  0  0  0  0  0  0
   85.2480  152.3410   15.7921 C   0  0  0  0  0  0  0  0  0  0  0  0
   86.3599  150.0329   14.6242 C   0  0  0  0  0  0  0  0  0  0  0  0
   85.7420  152.3634   14.4440 N   0  0  0  0  0  0  0  0  0  0  0  0
   86.3204  151.2359   13.6907 C   0  0  0  0  0  0  0  0  0  0  0  0
   85.6751  153.5959   13.7800 C   0  0  0  0  0  0  0  0  0  0  0  0
   86.0611  153.7680   12.5914 O   0  0  0  0  0  0  0  0  0  0  0  0
   84.9045  150.3555   16.8105 H   0  0  0  0  0  0  0  0  0  0  0  0
   83.0242  152.1565   16.7808 C   0  0  0  0  0  0  0  0  0  0  0  0
   83.4939  152.5424   17.9133 O   0  0  0  0  0  0  0  0  0  0  0  0
   81.6873  152.4092   16.6086 O   0  0  0  0  0  0  0  0  0  0  0  0
   80.7868  151.4454   16.1014 C   0  0  0  0  0  0  0  0  0  0  0  0
   83.2917  149.2663   16.5639 C   0  0  0  0  0  0  0  0  0  0  0  0
   84.8984  148.2313   19.8331 C   0  0  0  0  0  0  0  0  0  0  0  0
   84.6573  148.4674   18.5042 C   0  0  0  0  0  0  0  0  0  0  0  0
   83.8842  148.5705   20.7355 C   0  0  0  0  0  0  0  0  0  0  0  0
   83.4676  149.0230   18.0043 C   0  0  0  0  0  0  0  0  0  0  0  0
   82.7166  149.1129   20.2781 C   0  0  0  0  0  0  0  0  0  0  0  0
   82.5157  149.3365   18.9102 C   0  0  0  0  0  0  0  0  0  0  0  0
   87.1223  147.2448   18.2778 O   0  0  0  0  0  0  0  0  0  0  0  0
   87.1920  147.4723   19.4917 C   0  0  0  0  0  0  0  0  0  0  0  0
   86.0860  147.6464   20.3538 N   0  0  0  0  0  0  0  0  0  0  0  0
   88.5137  147.5621   20.0687 N   0  0  0  0  0  0  0  0  0  0  0  0
   86.1253  147.2768   21.7540 C   0  0  0  0  0  0  0  0  0  0  0  0
   88.5500  147.8179   21.4631 C   0  0  0  0  0  0  0  0  0  0  0  0
   87.5225  147.2069   22.3245 C   0  0  0  0  0  0  0  0  0  0  0  0
   89.4400  148.5482   21.9477 O   0  0  0  0  0  0  0  0  0  0  0  0
   89.3315  147.4534   19.5315 H   0  0  0  0  0  0  0  0  0  0  0  0
   85.1667  154.6964   14.4324 O   0  0  0  0  0  0  0  0  0  0  0  0
   84.8005  155.9183   13.8795 C   0  0  0  0  0  0  0  0  0  0  0  0
   85.7415  156.1932   12.6979 C   0  0  0  0  0  0  0  0  0  0  0  0
   84.8896  157.0861   14.8661 C   0  0  0  0  0  0  0  0  0  0  0  0
   83.4085  155.7986   13.3055 C   0  0  0  0  0  0  0  0  0  0  0  0
 22 23  2  0
 23 24  1  0
 23 25  1  0
 24 16  1  0
 24 26  1  0
 25 27  1  0
 25 30  1  0
 16 17  2  0
 16 18  1  0
 26 28  1  0
 27 29  2  0
 27 28  1  0
 17 19  1  0
 18 20  2  0
 19 21  2  0
 19 15  1  0
 20 21  1  0
 15  1  1  0
  1  2  1  0
  1  3  1  0
  1 10  1  0
  2 11  1  0
  2  4  1  0
  3  5  1  0
 11 12  2  0
 11 13  1  0
  4  6  1  0
  5  7  1  0
 13 14  1  0
  6  8  1  0
  6  7  1  0
  8  9  2  0
  8 31  1  0
 31 32  1  0
 32 33  1  0
 32 34  1  0
 32 35  1  0
M  CHG 1   1   1
M  END
> <Molecule Name>
Compound 1

> <EC50 (µM) (Excel)>
49.5

> <Error (µM)>
6.2

> <HTRC CRBN-DDB1 EC50 (µM)>
49.46 ±  6.19

> <EC50 fitting (µM)>
60.01

> <Modèle Fitting>
3PL

> <Parent_Compound>
Compound 1

> <MMFF94s_energy_kcalmol>
176.500
$$$$

> <minimizedAffinity>
-6.93646

> <CNNscore>
0.3133015633

> <CNNaffinity>
4.3212246895

> <CNN_VS>
1.3538464308

> <CNNaffinity_variance>
2.0910980701

$$$$
Compound_1_ent2


 35 37  0  0  0  0  0  0  0  0999 V2000
   84.5434  150.6451   14.5340 N   0  0  0  0  0  0  0  0  0  0  0  0
   84.2516  152.0004   14.6444 C   0  0  0  0  0  0  0  0  0  0  0  0
   85.1524  150.2116   13.3067 C   0  0  0  0  0  0  0  0  0  0  0  0
   85.5945  152.7894   14.6417 C   0  0  0  0  0  0  0  0  0  0  0  0
   86.4452  150.7525   12.8937 C   0  0  0  0  0  0  0  0  0  0  0  0
   85.9356  153.0844   13.2784 N   0  0  0  0  0  0  0  0  0  0  0  0
   86.3656  152.1274   12.2429 C   0  0  0  0  0  0  0  0  0  0  0  0
   85.8604  154.4315   12.8985 C   0  0  0  0  0  0  0  0  0  0  0  0
   86.1201  154.8418   11.7342 O   0  0  0  0  0  0  0  0  0  0  0  0
   85.2619  150.6431   15.2581 H   0  0  0  0  0  0  0  0  0  0  0  0
   83.4882  152.4616   15.8304 C   0  0  0  0  0  0  0  0  0  0  0  0
   84.1098  152.6237   16.9437 O   0  0  0  0  0  0  0  0  0  0  0  0
   82.1474  152.7442   15.8863 O   0  0  0  0  0  0  0  0  0  0  0  0
   81.1620  151.8808   15.3565 C   0  0  0  0  0  0  0  0  0  0  0  0
   83.5761  149.6775   14.9859 C   0  0  0  0  0  0  0  0  0  0  0  0
   83.0081  148.7343   18.6093 C   0  0  0  0  0  0  0  0  0  0  0  0
   82.8345  149.1841   17.3257 C   0  0  0  0  0  0  0  0  0  0  0  0
   84.2801  148.2637   18.9537 C   0  0  0  0  0  0  0  0  0  0  0  0
   83.8460  149.1985   16.3507 C   0  0  0  0  0  0  0  0  0  0  0  0
   85.2830  148.2654   18.0260 C   0  0  0  0  0  0  0  0  0  0  0  0
   85.0580  148.7343   16.7256 C   0  0  0  0  0  0  0  0  0  0  0  0
   80.6673  150.4244   18.6605 O   0  0  0  0  0  0  0  0  0  0  0  0
   80.7882  149.4122   19.3613 C   0  0  0  0  0  0  0  0  0  0  0  0
   82.0028  148.7364   19.6157 N   0  0  0  0  0  0  0  0  0  0  0  0
   79.5872  148.8862   19.9686 N   0  0  0  0  0  0  0  0  0  0  0  0
   82.2521  148.0229   20.8517 C   0  0  0  0  0  0  0  0  0  0  0  0
   79.7694  147.7294   20.7685 C   0  0  0  0  0  0  0  0  0  0  0  0
   80.9937  147.6123   21.5800 C   0  0  0  0  0  0  0  0  0  0  0  0
   78.9038  146.8289   20.7821 O   0  0  0  0  0  0  0  0  0  0  0  0
   78.7046  149.3016   19.8364 H   0  0  0  0  0  0  0  0  0  0  0  0
   85.4871  155.3817   13.8221 O   0  0  0  0  0  0  0  0  0  0  0  0
   84.4326  156.2835   13.7349 C   0  0  0  0  0  0  0  0  0  0  0  0
   84.4687  156.9050   12.3315 C   0  0  0  0  0  0  0  0  0  0  0  0
   84.5008  157.4050   14.7754 C   0  0  0  0  0  0  0  0  0  0  0  0
   83.1302  155.5256   13.8393 C   0  0  0  0  0  0  0  0  0  0  0  0
 22 23  2  0
 23 24  1  0
 23 25  1  0
 24 16  1  0
 24 26  1  0
 25 27  1  0
 25 30  1  0
 16 17  2  0
 16 18  1  0
 26 28  1  0
 27 29  2  0
 27 28  1  0
 17 19  1  0
 18 20  2  0
 19 21  2  0
 19 15  1  0
 20 21  1  0
 15  1  1  0
  1  2  1  0
  1  3  1  0
  1 10  1  0
  2 11  1  0
  2  4  1  0
  3  5  1  0
 11 12  2  0
 11 13  1  0
  4  6  1  0
  5  7  1  0
 13 14  1  0
  6  8  1  0
  6  7  1  0
  8  9  2  0
  8 31  1  0
 31 32  1  0
 32 33  1  0
 32 34  1  0
 32 35  1  0
M  CHG 1   1   1
M  END
> <Molecule Name>
Compound 1

> <EC50 (µM) (Excel)>
49.5

> <Error (µM)>
6.2

> <HTRC CRBN-DDB1 EC50 (µM)>
49.46 ±  6.19

> <EC50 fitting (µM)>
60.01

> <Modèle Fitting>
3PL

> <Parent_Compound>
Compound 1

> <MMFF94s_energy_kcalmol>
176.500
$$$$

> <minimizedAffinity>
-6.99955

> <CNNscore>
0.3085101247

> <CNNaffinity>
4.6162867546

> <CNN_VS>
1.4241712093

> <CNNaffinity_variance>
1.5848037004

$$$$
Compound_1_ent2


 35 37  0  0  0  0  0  0  0  0999 V2000
   84.8898  150.5441   14.5463 N   0  0  0  0  0  0  0  0  0  0  0  0
   84.5761  151.8896   14.7050 C   0  0  0  0  0  0  0  0  0  0  0  0
   85.3519  150.1355   13.2484 C   0  0  0  0  0  0  0  0  0  0  0  0
   85.8852  152.7175   14.5413 C   0  0  0  0  0  0  0  0  0  0  0  0
   86.5668  150.7162   12.6817 C   0  0  0  0  0  0  0  0  0  0  0  0
   86.0439  153.0301   13.1489 N   0  0  0  0  0  0  0  0  0  0  0  0
   86.3674  152.0919   12.0588 C   0  0  0  0  0  0  0  0  0  0  0  0
   85.8837  154.3765   12.7940 C   0  0  0  0  0  0  0  0  0  0  0  0
   85.9835  154.8008   11.6101 O   0  0  0  0  0  0  0  0  0  0  0  0
   85.6932  150.5589   15.1745 H   0  0  0  0  0  0  0  0  0  0  0  0
   83.9549  152.3216   15.9816 C   0  0  0  0  0  0  0  0  0  0  0  0
   84.7065  152.8082   16.9038 O   0  0  0  0  0  0  0  0  0  0  0  0
   82.6251  152.2599   16.3112 O   0  0  0  0  0  0  0  0  0  0  0  0
   81.5937  152.4225   15.3589 C   0  0  0  0  0  0  0  0  0  0  0  0
   84.0146  149.5461   15.1068 C   0  0  0  0  0  0  0  0  0  0  0  0
   84.2858  148.0571   18.5781 C   0  0  0  0  0  0  0  0  0  0  0  0
   83.8233  148.6818   17.4487 C   0  0  0  0  0  0  0  0  0  0  0  0
   85.6079  147.5991   18.5576 C   0  0  0  0  0  0  0  0  0  0  0  0
   84.5896  148.8849   16.2888 C   0  0  0  0  0  0  0  0  0  0  0  0
   86.3767  147.7822   17.4432 C   0  0  0  0  0  0  0  0  0  0  0  0
   85.8601  148.4261   16.3119 C   0  0  0  0  0  0  0  0  0  0  0  0
   85.2480  146.8383   21.0126 O   0  0  0  0  0  0  0  0  0  0  0  0
   84.2150  147.5164   20.9563 C   0  0  0  0  0  0  0  0  0  0  0  0
   83.5324  147.8660   19.7695 N   0  0  0  0  0  0  0  0  0  0  0  0
   83.6654  147.9819   22.2089 N   0  0  0  0  0  0  0  0  0  0  0  0
   82.0978  148.0638   19.7265 C   0  0  0  0  0  0  0  0  0  0  0  0
   82.4783  148.7504   22.1015 C   0  0  0  0  0  0  0  0  0  0  0  0
   81.4894  148.3897   21.0704 C   0  0  0  0  0  0  0  0  0  0  0  0
   82.2789  149.7145   22.8703 O   0  0  0  0  0  0  0  0  0  0  0  0
   84.0854  147.7799   23.0761 H   0  0  0  0  0  0  0  0  0  0  0  0
   85.6027  155.3101   13.7658 O   0  0  0  0  0  0  0  0  0  0  0  0
   84.5541  156.2227   13.7898 C   0  0  0  0  0  0  0  0  0  0  0  0
   84.8051  157.1870   14.9578 C   0  0  0  0  0  0  0  0  0  0  0  0
   83.1808  155.5701   13.9723 C   0  0  0  0  0  0  0  0  0  0  0  0
   84.5971  157.0513   12.5276 C   0  0  0  0  0  0  0  0  0  0  0  0
 22 23  2  0
 23 24  1  0
 23 25  1  0
 24 16  1  0
 24 26  1  0
 25 27  1  0
 25 30  1  0
 16 17  2  0
 16 18  1  0
 26 28  1  0
 27 29  2  0
 27 28  1  0
 17 19  1  0
 18 20  2  0
 19 21  2  0
 19 15  1  0
 20 21  1  0
 15  1  1  0
  1  2  1  0
  1  3  1  0
  1 10  1  0
  2 11  1  0
  2  4  1  0
  3  5  1  0
 11 12  2  0
 11 13  1  0
  4  6  1  0
  5  7  1  0
 13 14  1  0
  6  8  1  0
  6  7  1  0
  8  9  2  0
  8 31  1  0
 31 32  1  0
 32 33  1  0
 32 34  1  0
 32 35  1  0
M  CHG 1   1   1
M  END
> <Molecule Name>
Compound 1

> <EC50 (µM) (Excel)>
49.5

> <Error (µM)>
6.2

> <HTRC CRBN-DDB1 EC50 (µM)>
49.46 ±  6.19

> <EC50 fitting (µM)>
60.01

> <Modèle Fitting>
3PL

> <Parent_Compound>
Compound 1

> <MMFF94s_energy_kcalmol>
176.500
$$$$

> <minimizedAffinity>
-6.51147

> <CNNscore>
0.3080449104

> <CNNaffinity>
4.6712002754

> <CNN_VS>
1.4389394522

> <CNNaffinity_variance>
1.2714667320

$$$$
Compound_1_ent2


 35 37  0  0  0  0  0  0  0  0999 V2000
   84.3677  150.1934   14.2781 N   0  0  0  0  0  0  0  0  0  0  0  0
   83.1229  150.2912   14.8904 C   0  0  0  0  0  0  0  0  0  0  0  0
   84.8413  148.8695   13.9812 C   0  0  0  0  0  0  0  0  0  0  0  0
   82.0471  149.7682   13.8929 C   0  0  0  0  0  0  0  0  0  0  0  0
   84.0832  147.9988   13.0859 C   0  0  0  0  0  0  0  0  0  0  0  0
   81.9107  148.3519   14.0863 N   0  0  0  0  0  0  0  0  0  0  0  0
   82.8958  147.3095   13.7456 C   0  0  0  0  0  0  0  0  0  0  0  0
   80.7037  147.9171   14.6506 C   0  0  0  0  0  0  0  0  0  0  0  0
   80.4433  146.7059   14.8891 O   0  0  0  0  0  0  0  0  0  0  0  0
   84.0768  150.6261   13.4014 H   0  0  0  0  0  0  0  0  0  0  0  0
   82.6667  151.6270   15.3482 C   0  0  0  0  0  0  0  0  0  0  0  0
   81.7535  152.2340   14.6777 O   0  0  0  0  0  0  0  0  0  0  0  0
   83.1206  152.3211   16.4404 O   0  0  0  0  0  0  0  0  0  0  0  0
   83.1948  151.7507   17.7313 C   0  0  0  0  0  0  0  0  0  0  0  0
   85.4495  151.0226   14.7457 C   0  0  0  0  0  0  0  0  0  0  0  0
   85.5721  154.4421   13.1231 C   0  0  0  0  0  0  0  0  0  0  0  0
   85.2789  153.3915   13.9540 C   0  0  0  0  0  0  0  0  0  0  0  0
   86.4419  154.1884   12.0567 C   0  0  0  0  0  0  0  0  0  0  0  0
   85.7949  152.0941   13.7983 C   0  0  0  0  0  0  0  0  0  0  0  0
   86.9594  152.9363   11.8808 C   0  0  0  0  0  0  0  0  0  0  0  0
   86.6313  151.8937   12.7565 C   0  0  0  0  0  0  0  0  0  0  0  0
   82.8624  155.1034   13.8704 O   0  0  0  0  0  0  0  0  0  0  0  0
   83.7901  155.9214   13.8909 C   0  0  0  0  0  0  0  0  0  0  0  0
   85.0389  155.7547   13.2510 N   0  0  0  0  0  0  0  0  0  0  0  0
   83.5710  157.1453   14.6270 N   0  0  0  0  0  0  0  0  0  0  0  0
   85.8091  156.8724   12.7447 C   0  0  0  0  0  0  0  0  0  0  0  0
   84.6559  158.0585   14.6209 C   0  0  0  0  0  0  0  0  0  0  0  0
   85.4662  158.1911   13.3974 C   0  0  0  0  0  0  0  0  0  0  0  0
   84.9154  158.7369   15.6372 O   0  0  0  0  0  0  0  0  0  0  0  0
   82.7278  157.3321   15.0995 H   0  0  0  0  0  0  0  0  0  0  0  0
   79.7301  148.8358   14.9724 O   0  0  0  0  0  0  0  0  0  0  0  0
   78.5348  149.0766   14.3046 C   0  0  0  0  0  0  0  0  0  0  0  0
   77.4912  148.0928   14.8524 C   0  0  0  0  0  0  0  0  0  0  0  0
   78.6363  148.8972   12.7871 C   0  0  0  0  0  0  0  0  0  0  0  0
   78.0486  150.4630   14.6552 C   0  0  0  0  0  0  0  0  0  0  0  0
 22 23  2  0
 23 24  1  0
 23 25  1  0
 24 16  1  0
 24 26  1  0
 25 27  1  0
 25 30  1  0
 16 17  2  0
 16 18  1  0
 26 28  1  0
 27 29  2  0
 27 28  1  0
 17 19  1  0
 18 20  2  0
 19 21  2  0
 19 15  1  0
 20 21  1  0
 15  1  1  0
  1  2  1  0
  1  3  1  0
  1 10  1  0
  2 11  1  0
  2  4  1  0
  3  5  1  0
 11 12  2  0
 11 13  1  0
  4  6  1  0
  5  7  1  0
 13 14  1  0
  6  8  1  0
  6  7  1  0
  8  9  2  0
  8 31  1  0
 31 32  1  0
 32 33  1  0
 32 34  1  0
 32 35  1  0
M  CHG 1   1   1
M  END
> <Molecule Name>
Compound 1

> <EC50 (µM) (Excel)>
49.5

> <Error (µM)>
6.2

> <HTRC CRBN-DDB1 EC50 (µM)>
49.46 ±  6.19

> <EC50 fitting (µM)>
60.01

> <Modèle Fitting>
3PL

> <Parent_Compound>
Compound 1

> <MMFF94s_energy_kcalmol>
176.500
$$$$

> <minimizedAffinity>
-7.50216

> <CNNscore>
0.3067141175

> <CNNaffinity>
5.5160117149

> <CNN_VS>
1.6918386221

> <CNNaffinity_variance>
0.7686696649

$$$$
