Compound_4_s16


 31 34  0  0  0  0  0  0  0  0999 V2000
   84.1340  154.8819   14.2582 C   0  0  0  0  0  0  0  0  0  0  0  0
   84.9028  153.7299   14.3269 C   0  0  0  0  0  0  0  0  0  0  0  0
   82.7698  154.6813   14.2623 C   0  0  0  0  0  0  0  0  0  0  0  0
   84.3357  152.4740   14.3947 C   0  0  0  0  0  0  0  0  0  0  0  0
   82.1919  153.4328   14.3294 C   0  0  0  0  0  0  0  0  0  0  0  0
   82.9660  152.3040   14.3968 C   0  0  0  0  0  0  0  0  0  0  0  0
   84.9017  151.0884   14.4843 C   0  0  0  0  0  0  0  0  0  0  0  0
   82.7074  150.8380   14.4696 C   0  0  0  0  0  0  0  0  0  0  0  0
   83.8436  150.4463   15.2857 N   0  0  0  0  0  0  0  0  0  0  0  0
   84.6678  150.4317   13.1656 C   0  0  0  0  0  0  0  0  0  0  0  0
   83.1529  150.2723   13.1421 C   0  0  0  0  0  0  0  0  0  0  0  0
   83.9198  149.7014   16.4549 C   0  0  0  0  0  0  0  0  0  0  0  0
   85.3084  149.2083   13.0337 O   0  0  0  0  0  0  0  0  0  0  0  0
   82.8528  148.9216   13.0152 O   0  0  0  0  0  0  0  0  0  0  0  0
   84.9831  149.4355   17.0625 O   0  0  0  0  0  0  0  0  0  0  0  0
   85.0111  148.6101   13.7371 H   0  0  0  0  0  0  0  0  0  0  0  0
   83.2771  148.4272   13.7339 H   0  0  0  0  0  0  0  0  0  0  0  0
   84.5629  156.1080   11.8784 O   0  0  0  0  0  0  0  0  0  0  0  0
   84.7217  156.8382   12.9003 C   0  0  0  0  0  0  0  0  0  0  0  0
   84.6721  156.1942   14.1871 N   0  0  0  0  0  0  0  0  0  0  0  0
   84.9382  158.2312   12.7627 N   0  0  0  0  0  0  0  0  0  0  0  0
   85.1732  156.9288   15.3119 C   0  0  0  0  0  0  0  0  0  0  0  0
   85.1074  158.9780   13.9716 C   0  0  0  0  0  0  0  0  0  0  0  0
   84.6248  158.3402   15.2239 C   0  0  0  0  0  0  0  0  0  0  0  0
   85.6431  160.1157   13.9345 O   0  0  0  0  0  0  0  0  0  0  0  0
   84.9707  158.6641   11.8791 H   0  0  0  0  0  0  0  0  0  0  0  0
   82.7447  149.2096   17.0018 O   0  0  0  0  0  0  0  0  0  0  0  0
   81.9841  149.8640   17.9767 C   0  0  0  0  0  0  0  0  0  0  0  0
   81.3390  148.8586   18.8939 C   0  0  0  0  0  0  0  0  0  0  0  0
   80.9291  150.7694   17.3819 C   0  0  0  0  0  0  0  0  0  0  0  0
   82.9208  150.7358   18.7874 C   0  0  0  0  0  0  0  0  0  0  0  0
 18 19  2  0
 19 20  1  0
 19 21  1  0
 20  1  1  0
 20 22  1  0
 21 23  1  0
 21 26  1  0
  1  2  2  0
  1  3  1  0
 22 24  1  0
 23 25  2  0
 23 24  1  0
  2  4  1  0
  3  5  2  0
  4  6  2  0
  5  6  1  0
  7  4  1  0
  7  9  1  0
  7 10  1  0
  8  6  1  0
  8 11  1  0
  8  9  1  0
  9 12  1  0
 10 13  1  0
 10 11  1  0
 11 14  1  0
 12 15  2  0
 12 27  1  0
 13 16  1  0
 14 17  1  0
 27 28  1  0
 28 29  1  0
 28 30  1  0
 28 31  1  0
M  END
> <Molecule Name>
Compound 4

> <EC50 (µM) (Excel)>
11.8

> <Error (µM)>
7.4

> <HTRC CRBN-DDB1 EC50 (µM)>
11.78 ±  7.41

> <EC50 fitting (µM)>
15.10

> <Modèle Fitting>
4PL

> <Parent_Compound>
Compound 4

> <MMFF94s_energy_kcalmol>
166.183
$$$$
