Compound_4_s12


 31 34  0  0  0  0  0  0  0  0999 V2000
   84.0971  154.8436   14.1559 C   0  0  0  0  0  0  0  0  0  0  0  0
   84.8202  153.6522   14.2425 C   0  0  0  0  0  0  0  0  0  0  0  0
   82.7239  154.7236   14.1748 C   0  0  0  0  0  0  0  0  0  0  0  0
   84.1828  152.4334   14.3406 C   0  0  0  0  0  0  0  0  0  0  0  0
   82.0842  153.4894   14.2741 C   0  0  0  0  0  0  0  0  0  0  0  0
   82.8038  152.3371   14.3575 C   0  0  0  0  0  0  0  0  0  0  0  0
   84.7063  151.0424   14.4491 C   0  0  0  0  0  0  0  0  0  0  0  0
   82.5029  150.8765   14.4674 C   0  0  0  0  0  0  0  0  0  0  0  0
   83.6339  150.4635   15.2808 N   0  0  0  0  0  0  0  0  0  0  0  0
   84.4417  150.3561   13.1501 C   0  0  0  0  0  0  0  0  0  0  0  0
   82.9075  150.2844   13.1381 C   0  0  0  0  0  0  0  0  0  0  0  0
   83.7050  149.7468   16.4729 C   0  0  0  0  0  0  0  0  0  0  0  0
   84.9173  151.0492   12.0443 O   0  0  0  0  0  0  0  0  0  0  0  0
   82.4710  148.9919   12.9636 O   0  0  0  0  0  0  0  0  0  0  0  0
   84.7973  149.4864   17.0296 O   0  0  0  0  0  0  0  0  0  0  0  0
   84.5174  151.9326   12.0200 H   0  0  0  0  0  0  0  0  0  0  0  0
   82.8306  148.4312   13.6686 H   0  0  0  0  0  0  0  0  0  0  0  0
   84.7452  156.1391   11.7407 O   0  0  0  0  0  0  0  0  0  0  0  0
   84.8099  156.8074   12.8038 C   0  0  0  0  0  0  0  0  0  0  0  0
   84.7175  156.1189   14.0534 N   0  0  0  0  0  0  0  0  0  0  0  0
   84.9722  158.2197   12.7417 N   0  0  0  0  0  0  0  0  0  0  0  0
   85.2936  156.7969   15.2115 C   0  0  0  0  0  0  0  0  0  0  0  0
   85.0362  158.8991   13.9909 C   0  0  0  0  0  0  0  0  0  0  0  0
   84.7060  158.1837   15.2567 C   0  0  0  0  0  0  0  0  0  0  0  0
   85.3789  160.1160   13.9877 O   0  0  0  0  0  0  0  0  0  0  0  0
   85.0364  158.6992   11.8843 H   0  0  0  0  0  0  0  0  0  0  0  0
   82.5433  149.2991   17.0776 O   0  0  0  0  0  0  0  0  0  0  0  0
   81.9092  150.0616   18.0606 C   0  0  0  0  0  0  0  0  0  0  0  0
   82.9135  151.0113   18.6606 C   0  0  0  0  0  0  0  0  0  0  0  0
   81.2745  149.2495   19.1529 C   0  0  0  0  0  0  0  0  0  0  0  0
   80.7898  150.8851   17.4186 C   0  0  0  0  0  0  0  0  0  0  0  0
 18 19  2  0
 19 20  1  0
 19 21  1  0
 20  1  1  0
 20 22  1  0
 21 23  1  0
 21 26  1  0
  1  2  2  0
  1  3  1  0
 22 24  1  0
 23 25  2  0
 23 24  1  0
  2  4  1  0
  3  5  2  0
  4  6  2  0
  5  6  1  0
  7  4  1  0
  7  9  1  0
  7 10  1  0
  8  6  1  0
  8 11  1  0
  8  9  1  0
  9 12  1  0
 10 13  1  0
 10 11  1  0
 11 14  1  0
 12 15  2  0
 12 27  1  0
 13 16  1  0
 14 17  1  0
 27 28  1  0
 28 29  1  0
 28 30  1  0
 28 31  1  0
M  END
> <Molecule Name>
Compound 4

> <EC50 (µM) (Excel)>
11.8

> <Error (µM)>
7.4

> <HTRC CRBN-DDB1 EC50 (µM)>
11.78 ±  7.41

> <EC50 fitting (µM)>
15.10

> <Modèle Fitting>
4PL

> <Parent_Compound>
Compound 4

> <MMFF94s_energy_kcalmol>
162.454
$$$$

> <minimizedAffinity>
-9.51988

> <CNNscore>
0.9640263319

> <CNNaffinity>
7.2923545837

> <CNN_VS>
7.0300216675

> <CNNaffinity_variance>
0.2540880144

$$$$
Compound_4_s12


 31 34  0  0  0  0  0  0  0  0999 V2000
   84.7417  154.7146   14.3254 C   0  0  0  0  0  0  0  0  0  0  0  0
   85.2269  153.7902   15.2527 C   0  0  0  0  0  0  0  0  0  0  0  0
   83.8049  154.2431   13.4307 C   0  0  0  0  0  0  0  0  0  0  0  0
   84.7845  152.4842   15.2603 C   0  0  0  0  0  0  0  0  0  0  0  0
   83.3608  152.9221   13.4423 C   0  0  0  0  0  0  0  0  0  0  0  0
   83.8440  152.0333   14.3529 C   0  0  0  0  0  0  0  0  0  0  0  0
   85.1286  151.3219   16.1272 C   0  0  0  0  0  0  0  0  0  0  0  0
   83.6328  150.5886   14.6753 C   0  0  0  0  0  0  0  0  0  0  0  0
   83.8209  150.6385   16.1153 N   0  0  0  0  0  0  0  0  0  0  0  0
   85.9383  150.3709   15.3096 C   0  0  0  0  0  0  0  0  0  0  0  0
   84.9128  149.8974   14.2689 C   0  0  0  0  0  0  0  0  0  0  0  0
   83.0291  150.1892   17.1692 C   0  0  0  0  0  0  0  0  0  0  0  0
   87.0378  150.9570   14.6957 O   0  0  0  0  0  0  0  0  0  0  0  0
   84.8103  148.5260   14.2591 O   0  0  0  0  0  0  0  0  0  0  0  0
   83.3720  150.3282   18.3666 O   0  0  0  0  0  0  0  0  0  0  0  0
   86.7409  151.6853   14.1280 H   0  0  0  0  0  0  0  0  0  0  0  0
   84.5637  148.2139   15.1438 H   0  0  0  0  0  0  0  0  0  0  0  0
   86.0126  155.9451   12.1340 O   0  0  0  0  0  0  0  0  0  0  0  0
   85.6032  156.6814   13.0675 C   0  0  0  0  0  0  0  0  0  0  0  0
   85.1729  156.0690   14.2856 N   0  0  0  0  0  0  0  0  0  0  0  0
   85.5771  158.0935   12.8940 N   0  0  0  0  0  0  0  0  0  0  0  0
   85.2017  156.9096   15.4795 C   0  0  0  0  0  0  0  0  0  0  0  0
   85.0999  158.8525   13.9995 C   0  0  0  0  0  0  0  0  0  0  0  0
   84.4477  158.1734   15.1557 C   0  0  0  0  0  0  0  0  0  0  0  0
   85.2473  160.1076   13.9656 O   0  0  0  0  0  0  0  0  0  0  0  0
   85.8722  158.5208   12.0575 H   0  0  0  0  0  0  0  0  0  0  0  0
   81.8212  149.5665   16.9061 O   0  0  0  0  0  0  0  0  0  0  0  0
   80.6249  150.2862   16.9329 C   0  0  0  0  0  0  0  0  0  0  0  0
   79.9586  150.0697   18.2670 C   0  0  0  0  0  0  0  0  0  0  0  0
   79.6682  149.9277   15.8322 C   0  0  0  0  0  0  0  0  0  0  0  0
   80.9289  151.7789   16.7818 C   0  0  0  0  0  0  0  0  0  0  0  0
 18 19  2  0
 19 20  1  0
 19 21  1  0
 20  1  1  0
 20 22  1  0
 21 23  1  0
 21 26  1  0
  1  2  2  0
  1  3  1  0
 22 24  1  0
 23 25  2  0
 23 24  1  0
  2  4  1  0
  3  5  2  0
  4  6  2  0
  5  6  1  0
  7  4  1  0
  7  9  1  0
  7 10  1  0
  8  6  1  0
  8 11  1  0
  8  9  1  0
  9 12  1  0
 10 13  1  0
 10 11  1  0
 11 14  1  0
 12 15  2  0
 12 27  1  0
 13 16  1  0
 14 17  1  0
 27 28  1  0
 28 29  1  0
 28 30  1  0
 28 31  1  0
M  END
> <Molecule Name>
Compound 4

> <EC50 (µM) (Excel)>
11.8

> <Error (µM)>
7.4

> <HTRC CRBN-DDB1 EC50 (µM)>
11.78 ±  7.41

> <EC50 fitting (µM)>
15.10

> <Modèle Fitting>
4PL

> <Parent_Compound>
Compound 4

> <MMFF94s_energy_kcalmol>
162.454
$$$$

> <minimizedAffinity>
-8.70164

> <CNNscore>
0.9324915409

> <CNNaffinity>
7.1769976616

> <CNN_VS>
6.6924896240

> <CNNaffinity_variance>
0.3051559031

$$$$
Compound_4_s12


 31 34  0  0  0  0  0  0  0  0999 V2000
   84.5124  154.5172   14.5805 C   0  0  0  0  0  0  0  0  0  0  0  0
   85.0743  153.6039   15.4749 C   0  0  0  0  0  0  0  0  0  0  0  0
   83.3952  154.0883   13.8960 C   0  0  0  0  0  0  0  0  0  0  0  0
   84.5315  152.3488   15.6521 C   0  0  0  0  0  0  0  0  0  0  0  0
   82.8502  152.8187   14.0785 C   0  0  0  0  0  0  0  0  0  0  0  0
   83.4103  151.9400   14.9542 C   0  0  0  0  0  0  0  0  0  0  0  0
   84.9243  151.2092   16.5284 C   0  0  0  0  0  0  0  0  0  0  0  0
   83.1383  150.5425   15.4111 C   0  0  0  0  0  0  0  0  0  0  0  0
   83.5823  150.6547   16.7901 N   0  0  0  0  0  0  0  0  0  0  0  0
   85.4929  150.1408   15.6546 C   0  0  0  0  0  0  0  0  0  0  0  0
   84.2628  149.7102   14.8419 C   0  0  0  0  0  0  0  0  0  0  0  0
   82.9548  150.3430   17.9937 C   0  0  0  0  0  0  0  0  0  0  0  0
   86.5117  150.5835   14.8206 O   0  0  0  0  0  0  0  0  0  0  0  0
   84.0447  148.3566   14.9484 O   0  0  0  0  0  0  0  0  0  0  0  0
   83.5151  150.5154   19.1014 O   0  0  0  0  0  0  0  0  0  0  0  0
   86.1815  151.3040   14.2614 H   0  0  0  0  0  0  0  0  0  0  0  0
   83.9333  148.1196   15.8824 H   0  0  0  0  0  0  0  0  0  0  0  0
   85.8185  155.3741   12.2372 O   0  0  0  0  0  0  0  0  0  0  0  0
   85.4881  156.2465   13.0803 C   0  0  0  0  0  0  0  0  0  0  0  0
   85.0426  155.8197   14.3701 N   0  0  0  0  0  0  0  0  0  0  0  0
   85.5636  157.6253   12.7370 N   0  0  0  0  0  0  0  0  0  0  0  0
   85.1630  156.7927   15.4525 C   0  0  0  0  0  0  0  0  0  0  0  0
   85.1712  158.5460   13.7491 C   0  0  0  0  0  0  0  0  0  0  0  0
   84.4981  158.0629   14.9888 C   0  0  0  0  0  0  0  0  0  0  0  0
   85.4113  159.7728   13.5609 O   0  0  0  0  0  0  0  0  0  0  0  0
   85.8695  157.9251   11.8506 H   0  0  0  0  0  0  0  0  0  0  0  0
   81.6712  149.8252   17.9872 O   0  0  0  0  0  0  0  0  0  0  0  0
   81.4567  148.4454   17.9791 C   0  0  0  0  0  0  0  0  0  0  0  0
   82.7743  147.7486   18.2003 C   0  0  0  0  0  0  0  0  0  0  0  0
   80.8240  147.9300   16.7183 C   0  0  0  0  0  0  0  0  0  0  0  0
   80.5149  148.0731   19.1270 C   0  0  0  0  0  0  0  0  0  0  0  0
 18 19  2  0
 19 20  1  0
 19 21  1  0
 20  1  1  0
 20 22  1  0
 21 23  1  0
 21 26  1  0
  1  2  2  0
  1  3  1  0
 22 24  1  0
 23 25  2  0
 23 24  1  0
  2  4  1  0
  3  5  2  0
  4  6  2  0
  5  6  1  0
  7  4  1  0
  7  9  1  0
  7 10  1  0
  8  6  1  0
  8 11  1  0
  8  9  1  0
  9 12  1  0
 10 13  1  0
 10 11  1  0
 11 14  1  0
 12 15  2  0
 12 27  1  0
 13 16  1  0
 14 17  1  0
 27 28  1  0
 28 29  1  0
 28 30  1  0
 28 31  1  0
M  END
> <Molecule Name>
Compound 4

> <EC50 (µM) (Excel)>
11.8

> <Error (µM)>
7.4

> <HTRC CRBN-DDB1 EC50 (µM)>
11.78 ±  7.41

> <EC50 fitting (µM)>
15.10

> <Modèle Fitting>
4PL

> <Parent_Compound>
Compound 4

> <MMFF94s_energy_kcalmol>
162.454
$$$$

> <minimizedAffinity>
-8.18425

> <CNNscore>
0.8890124559

> <CNNaffinity>
7.0376458168

> <CNN_VS>
6.2565546036

> <CNNaffinity_variance>
0.3588783443

$$$$
Compound_4_s12


 31 34  0  0  0  0  0  0  0  0999 V2000
   84.6862  154.0885   13.9363 C   0  0  0  0  0  0  0  0  0  0  0  0
   83.7259  153.6222   14.8363 C   0  0  0  0  0  0  0  0  0  0  0  0
   85.1824  153.1628   13.0435 C   0  0  0  0  0  0  0  0  0  0  0  0
   83.3083  152.3082   14.8206 C   0  0  0  0  0  0  0  0  0  0  0  0
   84.7572  151.8356   13.0315 C   0  0  0  0  0  0  0  0  0  0  0  0
   83.8203  151.3968   13.9158 C   0  0  0  0  0  0  0  0  0  0  0  0
   82.3147  151.5696   15.6501 C   0  0  0  0  0  0  0  0  0  0  0  0
   83.1335  150.1026   14.2147 C   0  0  0  0  0  0  0  0  0  0  0  0
   81.8388  150.6138   14.6318 N   0  0  0  0  0  0  0  0  0  0  0  0
   83.0707  150.6507   16.5515 C   0  0  0  0  0  0  0  0  0  0  0  0
   83.6814  149.6588   15.5504 C   0  0  0  0  0  0  0  0  0  0  0  0
   80.5450  150.3107   14.2149 C   0  0  0  0  0  0  0  0  0  0  0  0
   84.0600  151.2836   17.2931 O   0  0  0  0  0  0  0  0  0  0  0  0
   83.3511  148.3625   15.8695 O   0  0  0  0  0  0  0  0  0  0  0  0
   79.5379  150.8716   14.7066 O   0  0  0  0  0  0  0  0  0  0  0  0
   84.6851  151.7193   16.6929 H   0  0  0  0  0  0  0  0  0  0  0  0
   82.3857  148.2707   15.8910 H   0  0  0  0  0  0  0  0  0  0  0  0
   86.0125  155.3243   11.7810 O   0  0  0  0  0  0  0  0  0  0  0  0
   85.6022  156.0557   12.7180 C   0  0  0  0  0  0  0  0  0  0  0  0
   85.1423  155.4353   13.9212 N   0  0  0  0  0  0  0  0  0  0  0  0
   85.6043  157.4701   12.5630 N   0  0  0  0  0  0  0  0  0  0  0  0
   85.1678  156.2595   15.1265 C   0  0  0  0  0  0  0  0  0  0  0  0
   85.1238  158.2231   13.6712 C   0  0  0  0  0  0  0  0  0  0  0  0
   84.4418  157.5410   14.8082 C   0  0  0  0  0  0  0  0  0  0  0  0
   85.2944  159.4757   13.6564 O   0  0  0  0  0  0  0  0  0  0  0  0
   85.9198  157.9029   11.7369 H   0  0  0  0  0  0  0  0  0  0  0  0
   80.3443  149.3624   13.2268 O   0  0  0  0  0  0  0  0  0  0  0  0
   79.0781  148.8168   13.0058 C   0  0  0  0  0  0  0  0  0  0  0  0
   78.0783  149.5487   13.8633 C   0  0  0  0  0  0  0  0  0  0  0  0
   78.9882  147.3430   13.2804 C   0  0  0  0  0  0  0  0  0  0  0  0
   78.6913  149.0144   11.5379 C   0  0  0  0  0  0  0  0  0  0  0  0
 18 19  2  0
 19 20  1  0
 19 21  1  0
 20  1  1  0
 20 22  1  0
 21 23  1  0
 21 26  1  0
  1  2  2  0
  1  3  1  0
 22 24  1  0
 23 25  2  0
 23 24  1  0
  2  4  1  0
  3  5  2  0
  4  6  2  0
  5  6  1  0
  7  4  1  0
  7  9  1  0
  7 10  1  0
  8  6  1  0
  8 11  1  0
  8  9  1  0
  9 12  1  0
 10 13  1  0
 10 11  1  0
 11 14  1  0
 12 15  2  0
 12 27  1  0
 13 16  1  0
 14 17  1  0
 27 28  1  0
 28 29  1  0
 28 30  1  0
 28 31  1  0
M  END
> <Molecule Name>
Compound 4

> <EC50 (µM) (Excel)>
11.8

> <Error (µM)>
7.4

> <HTRC CRBN-DDB1 EC50 (µM)>
11.78 ±  7.41

> <EC50 fitting (µM)>
15.10

> <Modèle Fitting>
4PL

> <Parent_Compound>
Compound 4

> <MMFF94s_energy_kcalmol>
162.454
$$$$

> <minimizedAffinity>
-9.14050

> <CNNscore>
0.7986502647

> <CNNaffinity>
6.8992962837

> <CNN_VS>
5.5101246834

> <CNNaffinity_variance>
0.3183946311

$$$$
Compound_4_s12


 31 34  0  0  0  0  0  0  0  0999 V2000
   84.8062  153.9650   13.9798 C   0  0  0  0  0  0  0  0  0  0  0  0
   85.6117  152.9404   14.4810 C   0  0  0  0  0  0  0  0  0  0  0  0
   83.5630  153.5894   13.5174 C   0  0  0  0  0  0  0  0  0  0  0  0
   85.1746  151.6329   14.5053 C   0  0  0  0  0  0  0  0  0  0  0  0
   83.1256  152.2663   13.5441 C   0  0  0  0  0  0  0  0  0  0  0  0
   83.9233  151.2793   14.0358 C   0  0  0  0  0  0  0  0  0  0  0  0
   85.8194  150.3766   14.9815 C   0  0  0  0  0  0  0  0  0  0  0  0
   83.8251  149.7992   14.2249 C   0  0  0  0  0  0  0  0  0  0  0  0
   84.6112  149.6642   15.4395 N   0  0  0  0  0  0  0  0  0  0  0  0
   86.1728  149.5650   13.7795 C   0  0  0  0  0  0  0  0  0  0  0  0
   84.7871  149.2041   13.2241 C   0  0  0  0  0  0  0  0  0  0  0  0
   84.3313  149.0576   16.6615 C   0  0  0  0  0  0  0  0  0  0  0  0
   86.9228  150.2576   12.8377 O   0  0  0  0  0  0  0  0  0  0  0  0
   84.6477  147.8436   13.0791 O   0  0  0  0  0  0  0  0  0  0  0  0
   85.1565  149.0472   17.6047 O   0  0  0  0  0  0  0  0  0  0  0  0
   86.4348  151.0458   12.5521 H   0  0  0  0  0  0  0  0  0  0  0  0
   84.7926  147.4108   13.9350 H   0  0  0  0  0  0  0  0  0  0  0  0
   86.1723  155.1750   11.8348 O   0  0  0  0  0  0  0  0  0  0  0  0
   85.7057  155.9216   12.7326 C   0  0  0  0  0  0  0  0  0  0  0  0
   85.2211  155.3244   13.9378 N   0  0  0  0  0  0  0  0  0  0  0  0
   85.6700  157.3299   12.5325 N   0  0  0  0  0  0  0  0  0  0  0  0
   85.1770  156.1859   15.1162 C   0  0  0  0  0  0  0  0  0  0  0  0
   85.1263  158.1012   13.5981 C   0  0  0  0  0  0  0  0  0  0  0  0
   84.4243  157.4332   14.7313 C   0  0  0  0  0  0  0  0  0  0  0  0
   85.2588  159.3575   13.5492 O   0  0  0  0  0  0  0  0  0  0  0  0
   86.0023  157.7468   11.7048 H   0  0  0  0  0  0  0  0  0  0  0  0
   83.1080  148.4413   16.8602 O   0  0  0  0  0  0  0  0  0  0  0  0
   82.9367  147.0844   16.5780 C   0  0  0  0  0  0  0  0  0  0  0  0
   84.2872  146.4689   16.3179 C   0  0  0  0  0  0  0  0  0  0  0  0
   82.0293  146.8095   15.4133 C   0  0  0  0  0  0  0  0  0  0  0  0
   82.3153  146.3897   17.7923 C   0  0  0  0  0  0  0  0  0  0  0  0
 18 19  2  0
 19 20  1  0
 19 21  1  0
 20  1  1  0
 20 22  1  0
 21 23  1  0
 21 26  1  0
  1  2  2  0
  1  3  1  0
 22 24  1  0
 23 25  2  0
 23 24  1  0
  2  4  1  0
  3  5  2  0
  4  6  2  0
  5  6  1  0
  7  4  1  0
  7  9  1  0
  7 10  1  0
  8  6  1  0
  8 11  1  0
  8  9  1  0
  9 12  1  0
 10 13  1  0
 10 11  1  0
 11 14  1  0
 12 15  2  0
 12 27  1  0
 13 16  1  0
 14 17  1  0
 27 28  1  0
 28 29  1  0
 28 30  1  0
 28 31  1  0
M  END
> <Molecule Name>
Compound 4

> <EC50 (µM) (Excel)>
11.8

> <Error (µM)>
7.4

> <HTRC CRBN-DDB1 EC50 (µM)>
11.78 ±  7.41

> <EC50 fitting (µM)>
15.10

> <Modèle Fitting>
4PL

> <Parent_Compound>
Compound 4

> <MMFF94s_energy_kcalmol>
162.454
$$$$

> <minimizedAffinity>
-7.47142

> <CNNscore>
0.6842806935

> <CNNaffinity>
6.4366741180

> <CNN_VS>
4.4044919014

> <CNNaffinity_variance>
0.1551507562

$$$$
