Compound_4_s4


 31 34  0  0  0  0  0  0  0  0999 V2000
   84.1574  154.9794   14.2387 C   0  0  0  0  0  0  0  0  0  0  0  0
   85.0555  153.9263   14.2117 C   0  0  0  0  0  0  0  0  0  0  0  0
   82.8195  154.6224   14.3468 C   0  0  0  0  0  0  0  0  0  0  0  0
   84.6765  152.6044   14.2855 C   0  0  0  0  0  0  0  0  0  0  0  0
   82.3882  153.3146   14.4237 C   0  0  0  0  0  0  0  0  0  0  0  0
   83.3276  152.3090   14.3921 C   0  0  0  0  0  0  0  0  0  0  0  0
   85.4000  151.2863   14.2839 C   0  0  0  0  0  0  0  0  0  0  0  0
   83.2506  150.8214   14.4464 C   0  0  0  0  0  0  0  0  0  0  0  0
   84.4958  150.5406   15.1279 N   0  0  0  0  0  0  0  0  0  0  0  0
   85.1229  150.6249   12.9526 C   0  0  0  0  0  0  0  0  0  0  0  0
   83.6222  150.3467   13.0538 C   0  0  0  0  0  0  0  0  0  0  0  0
   84.6856  149.7592   16.2733 C   0  0  0  0  0  0  0  0  0  0  0  0
   85.4031  151.4533   11.8738 O   0  0  0  0  0  0  0  0  0  0  0  0
   82.9946  151.0853   12.0707 O   0  0  0  0  0  0  0  0  0  0  0  0
   85.8267  149.5696   16.8025 O   0  0  0  0  0  0  0  0  0  0  0  0
   84.8888  152.2719   11.9526 H   0  0  0  0  0  0  0  0  0  0  0  0
   83.2295  152.0212   12.1699 H   0  0  0  0  0  0  0  0  0  0  0  0
   84.3060  156.3476   11.8262 O   0  0  0  0  0  0  0  0  0  0  0  0
   84.5800  156.9618   12.8912 C   0  0  0  0  0  0  0  0  0  0  0  0
   84.5693  156.3341   14.1614 N   0  0  0  0  0  0  0  0  0  0  0  0
   84.9092  158.3529   12.7538 N   0  0  0  0  0  0  0  0  0  0  0  0
   84.9664  157.0630   15.3212 C   0  0  0  0  0  0  0  0  0  0  0  0
   85.2203  159.0534   13.9564 C   0  0  0  0  0  0  0  0  0  0  0  0
   84.6199  158.5455   15.2142 C   0  0  0  0  0  0  0  0  0  0  0  0
   85.9854  160.0708   13.9227 O   0  0  0  0  0  0  0  0  0  0  0  0
   84.9197  158.7991   11.8763 H   0  0  0  0  0  0  0  0  0  0  0  0
   83.6330  149.1163   16.9383 O   0  0  0  0  0  0  0  0  0  0  0  0
   83.0683  149.5716   18.1267 C   0  0  0  0  0  0  0  0  0  0  0  0
   83.7689  149.0919   19.3606 C   0  0  0  0  0  0  0  0  0  0  0  0
   81.5888  149.2773   18.1478 C   0  0  0  0  0  0  0  0  0  0  0  0
   83.2003  151.1016   18.1173 C   0  0  0  0  0  0  0  0  0  0  0  0
 18 19  2  0
 19 20  1  0
 19 21  1  0
 20  1  1  0
 20 22  1  0
 21 23  1  0
 21 26  1  0
  1  2  2  0
  1  3  1  0
 22 24  1  0
 23 25  2  0
 23 24  1  0
  2  4  1  0
  3  5  2  0
  4  6  2  0
  5  6  1  0
  7  4  1  0
  7  9  1  0
  7 10  1  0
  8  6  1  0
  8 11  1  0
  8  9  1  0
  9 12  1  0
 10 13  1  0
 10 11  1  0
 11 14  1  0
 12 15  2  0
 12 27  1  0
 13 16  1  0
 14 17  1  0
 27 28  1  0
 28 29  1  0
 28 30  1  0
 28 31  1  0
M  END
> <Molecule Name>
Compound 4

> <EC50 (µM) (Excel)>
11.8

> <Error (µM)>
7.4

> <HTRC CRBN-DDB1 EC50 (µM)>
11.78 ±  7.41

> <EC50 fitting (µM)>
15.10

> <Modèle Fitting>
4PL

> <Parent_Compound>
Compound 4

> <MMFF94s_energy_kcalmol>
179.945
$$$$
