Compound_4_s5


 31 34  0  0  0  0  0  0  0  0999 V2000
   83.9619  154.9773   14.3233 C   0  0  0  0  0  0  0  0  0  0  0  0
   84.6168  153.8332   14.7242 C   0  0  0  0  0  0  0  0  0  0  0  0
   82.6040  154.9701   14.0509 C   0  0  0  0  0  0  0  0  0  0  0  0
   83.9503  152.6534   14.8666 C   0  0  0  0  0  0  0  0  0  0  0  0
   81.9329  153.7573   14.2001 C   0  0  0  0  0  0  0  0  0  0  0  0
   82.5949  152.6250   14.5996 C   0  0  0  0  0  0  0  0  0  0  0  0
   84.3187  151.2635   15.2698 C   0  0  0  0  0  0  0  0  0  0  0  0
   82.1564  151.2238   14.8372 C   0  0  0  0  0  0  0  0  0  0  0  0
   83.3706  150.5300   14.4740 N   0  0  0  0  0  0  0  0  0  0  0  0
   83.7028  151.0742   16.6429 C   0  0  0  0  0  0  0  0  0  0  0  0
   82.2040  151.0278   16.3383 C   0  0  0  0  0  0  0  0  0  0  0  0
   83.5090  149.4617   13.5952 C   0  0  0  0  0  0  0  0  0  0  0  0
   84.0085  152.1658   17.4333 O   0  0  0  0  0  0  0  0  0  0  0  0
   81.7095  149.7823   16.6432 O   0  0  0  0  0  0  0  0  0  0  0  0
   84.6492  148.9346   13.3592 O   0  0  0  0  0  0  0  0  0  0  0  0
   83.7100  152.9772   16.9934 H   0  0  0  0  0  0  0  0  0  0  0  0
   82.2084  149.1082   16.1557 H   0  0  0  0  0  0  0  0  0  0  0  0
   84.8358  156.0479   11.8576 O   0  0  0  0  0  0  0  0  0  0  0  0
   84.8596  156.7674   12.8945 C   0  0  0  0  0  0  0  0  0  0  0  0
   84.6886  156.1945   14.1843 N   0  0  0  0  0  0  0  0  0  0  0  0
   85.0589  158.1799   12.8050 N   0  0  0  0  0  0  0  0  0  0  0  0
   85.2664  156.8774   15.3207 C   0  0  0  0  0  0  0  0  0  0  0  0
   85.0770  158.9445   14.0049 C   0  0  0  0  0  0  0  0  0  0  0  0
   84.8587  158.3304   15.3309 C   0  0  0  0  0  0  0  0  0  0  0  0
   85.2861  160.1982   13.9577 O   0  0  0  0  0  0  0  0  0  0  0  0
   85.1812  158.6152   11.9304 H   0  0  0  0  0  0  0  0  0  0  0  0
   82.4554  148.8729   12.9026 O   0  0  0  0  0  0  0  0  0  0  0  0
   81.6562  147.8492   13.4052 C   0  0  0  0  0  0  0  0  0  0  0  0
   82.2913  147.0983   14.5484 C   0  0  0  0  0  0  0  0  0  0  0  0
   80.2698  148.2908   13.7966 C   0  0  0  0  0  0  0  0  0  0  0  0
   81.4808  146.8243   12.2758 C   0  0  0  0  0  0  0  0  0  0  0  0
 18 19  2  0
 19 20  1  0
 19 21  1  0
 20  1  1  0
 20 22  1  0
 21 23  1  0
 21 26  1  0
  1  2  2  0
  1  3  1  0
 22 24  1  0
 23 25  2  0
 23 24  1  0
  2  4  1  0
  3  5  2  0
  4  6  2  0
  5  6  1  0
  7  4  1  0
  7  9  1  0
  7 10  1  0
  8  6  1  0
  8 11  1  0
  8  9  1  0
  9 12  1  0
 10 13  1  0
 10 11  1  0
 11 14  1  0
 12 15  2  0
 12 27  1  0
 13 16  1  0
 14 17  1  0
 27 28  1  0
 28 29  1  0
 28 30  1  0
 28 31  1  0
M  END
> <Molecule Name>
Compound 4

> <EC50 (µM) (Excel)>
11.8

> <Error (µM)>
7.4

> <HTRC CRBN-DDB1 EC50 (µM)>
11.78 ±  7.41

> <EC50 fitting (µM)>
15.10

> <Modèle Fitting>
4PL

> <Parent_Compound>
Compound 4

> <MMFF94s_energy_kcalmol>
163.563
$$$$

> <minimizedAffinity>
-8.67140

> <CNNscore>
0.8525338769

> <CNNaffinity>
7.0973114967

> <CNN_VS>
6.0506982803

> <CNNaffinity_variance>
0.2922334671

$$$$
Compound_4_s5


 31 34  0  0  0  0  0  0  0  0999 V2000
   84.7920  153.9868   14.0066 C   0  0  0  0  0  0  0  0  0  0  0  0
   84.0061  153.5882   15.0659 C   0  0  0  0  0  0  0  0  0  0  0  0
   85.1331  153.1063   12.9934 C   0  0  0  0  0  0  0  0  0  0  0  0
   83.5366  152.3121   15.1534 C   0  0  0  0  0  0  0  0  0  0  0  0
   84.6469  151.8036   13.0939 C   0  0  0  0  0  0  0  0  0  0  0  0
   83.8656  151.4180   14.1527 C   0  0  0  0  0  0  0  0  0  0  0  0
   82.6880  151.5530   16.1197 C   0  0  0  0  0  0  0  0  0  0  0  0
   83.2209  150.1294   14.5216 C   0  0  0  0  0  0  0  0  0  0  0  0
   83.2660  150.2448   15.9612 N   0  0  0  0  0  0  0  0  0  0  0  0
   81.3682  151.3396   15.4034 C   0  0  0  0  0  0  0  0  0  0  0  0
   81.7361  150.3372   14.3073 C   0  0  0  0  0  0  0  0  0  0  0  0
   83.7467  149.3132   16.8742 C   0  0  0  0  0  0  0  0  0  0  0  0
   80.9504  152.5362   14.8528 O   0  0  0  0  0  0  0  0  0  0  0  0
   81.0811  149.1495   14.5293 O   0  0  0  0  0  0  0  0  0  0  0  0
   83.7294  149.5404   18.1319 O   0  0  0  0  0  0  0  0  0  0  0  0
   81.6445  152.8844   14.2714 H   0  0  0  0  0  0  0  0  0  0  0  0
   81.2950  148.8235   15.4175 H   0  0  0  0  0  0  0  0  0  0  0  0
   86.2269  155.0807   11.8308 O   0  0  0  0  0  0  0  0  0  0  0  0
   85.7516  155.8470   12.7141 C   0  0  0  0  0  0  0  0  0  0  0  0
   85.2665  155.3285   13.9457 N   0  0  0  0  0  0  0  0  0  0  0  0
   85.6859  157.2593   12.5043 N   0  0  0  0  0  0  0  0  0  0  0  0
   85.2732  156.1935   15.1047 C   0  0  0  0  0  0  0  0  0  0  0  0
   85.1408  158.0779   13.5327 C   0  0  0  0  0  0  0  0  0  0  0  0
   84.6079  157.5106   14.7886 C   0  0  0  0  0  0  0  0  0  0  0  0
   85.1010  159.3409   13.3870 O   0  0  0  0  0  0  0  0  0  0  0  0
   86.0115  157.6579   11.6650 H   0  0  0  0  0  0  0  0  0  0  0  0
   84.2800  148.0758   16.5265 O   0  0  0  0  0  0  0  0  0  0  0  0
   85.6052  147.8654   16.1537 C   0  0  0  0  0  0  0  0  0  0  0  0
   86.3088  146.8316   16.9967 C   0  0  0  0  0  0  0  0  0  0  0  0
   85.7860  147.5380   14.6941 C   0  0  0  0  0  0  0  0  0  0  0  0
   86.3522  149.1843   16.3968 C   0  0  0  0  0  0  0  0  0  0  0  0
 18 19  2  0
 19 20  1  0
 19 21  1  0
 20  1  1  0
 20 22  1  0
 21 23  1  0
 21 26  1  0
  1  2  2  0
  1  3  1  0
 22 24  1  0
 23 25  2  0
 23 24  1  0
  2  4  1  0
  3  5  2  0
  4  6  2  0
  5  6  1  0
  7  4  1  0
  7  9  1  0
  7 10  1  0
  8  6  1  0
  8 11  1  0
  8  9  1  0
  9 12  1  0
 10 13  1  0
 10 11  1  0
 11 14  1  0
 12 15  2  0
 12 27  1  0
 13 16  1  0
 14 17  1  0
 27 28  1  0
 28 29  1  0
 28 30  1  0
 28 31  1  0
M  END
> <Molecule Name>
Compound 4

> <EC50 (µM) (Excel)>
11.8

> <Error (µM)>
7.4

> <HTRC CRBN-DDB1 EC50 (µM)>
11.78 ±  7.41

> <EC50 fitting (µM)>
15.10

> <Modèle Fitting>
4PL

> <Parent_Compound>
Compound 4

> <MMFF94s_energy_kcalmol>
163.563
$$$$

> <minimizedAffinity>
-8.40507

> <CNNscore>
0.8459011912

> <CNNaffinity>
7.1903004646

> <CNN_VS>
6.0822834969

> <CNNaffinity_variance>
0.8749635816

$$$$
Compound_4_s5


 31 34  0  0  0  0  0  0  0  0999 V2000
   84.3599  154.3030   14.6432 C   0  0  0  0  0  0  0  0  0  0  0  0
   84.8913  153.4763   15.6090 C   0  0  0  0  0  0  0  0  0  0  0  0
   83.2189  153.9490   13.9426 C   0  0  0  0  0  0  0  0  0  0  0  0
   84.3119  152.2802   15.9087 C   0  0  0  0  0  0  0  0  0  0  0  0
   82.6351  152.7229   14.2579 C   0  0  0  0  0  0  0  0  0  0  0  0
   83.1727  151.9082   15.2209 C   0  0  0  0  0  0  0  0  0  0  0  0
   84.5976  151.1671   16.8624 C   0  0  0  0  0  0  0  0  0  0  0  0
   82.7822  150.5772   15.7575 C   0  0  0  0  0  0  0  0  0  0  0  0
   84.0904  150.0628   16.0920 N   0  0  0  0  0  0  0  0  0  0  0  0
   83.5130  151.2637   17.9183 C   0  0  0  0  0  0  0  0  0  0  0  0
   82.2579  150.8357   17.1547 C   0  0  0  0  0  0  0  0  0  0  0  0
   84.6384  148.8361   15.7351 C   0  0  0  0  0  0  0  0  0  0  0  0
   83.4054  152.5747   18.3419 O   0  0  0  0  0  0  0  0  0  0  0  0
   81.7784  149.6587   17.6778 O   0  0  0  0  0  0  0  0  0  0  0  0
   85.8167  148.4999   16.0987 O   0  0  0  0  0  0  0  0  0  0  0  0
   83.2415  153.1490   17.5775 H   0  0  0  0  0  0  0  0  0  0  0  0
   82.4762  148.9855   17.6522 H   0  0  0  0  0  0  0  0  0  0  0  0
   85.7921  154.8598   12.2708 O   0  0  0  0  0  0  0  0  0  0  0  0
   85.4649  155.8060   13.0395 C   0  0  0  0  0  0  0  0  0  0  0  0
   84.9906  155.5472   14.3544 N   0  0  0  0  0  0  0  0  0  0  0  0
   85.5606  157.1668   12.6126 N   0  0  0  0  0  0  0  0  0  0  0  0
   85.1687  156.5694   15.3619 C   0  0  0  0  0  0  0  0  0  0  0  0
   85.1787  158.1952   13.5189 C   0  0  0  0  0  0  0  0  0  0  0  0
   84.6525  157.8985   14.8673 C   0  0  0  0  0  0  0  0  0  0  0  0
   85.2854  159.4159   13.1779 O   0  0  0  0  0  0  0  0  0  0  0  0
   85.8843  157.3881   11.7096 H   0  0  0  0  0  0  0  0  0  0  0  0
   83.9834  147.8763   14.9694 O   0  0  0  0  0  0  0  0  0  0  0  0
   83.8402  147.9355   13.5854 C   0  0  0  0  0  0  0  0  0  0  0  0
   84.3207  146.6930   12.8787 C   0  0  0  0  0  0  0  0  0  0  0  0
   82.4442  148.2711   13.1282 C   0  0  0  0  0  0  0  0  0  0  0  0
   84.7426  149.0749   13.0915 C   0  0  0  0  0  0  0  0  0  0  0  0
 18 19  2  0
 19 20  1  0
 19 21  1  0
 20  1  1  0
 20 22  1  0
 21 23  1  0
 21 26  1  0
  1  2  2  0
  1  3  1  0
 22 24  1  0
 23 25  2  0
 23 24  1  0
  2  4  1  0
  3  5  2  0
  4  6  2  0
  5  6  1  0
  7  4  1  0
  7  9  1  0
  7 10  1  0
  8  6  1  0
  8 11  1  0
  8  9  1  0
  9 12  1  0
 10 13  1  0
 10 11  1  0
 11 14  1  0
 12 15  2  0
 12 27  1  0
 13 16  1  0
 14 17  1  0
 27 28  1  0
 28 29  1  0
 28 30  1  0
 28 31  1  0
M  END
> <Molecule Name>
Compound 4

> <EC50 (µM) (Excel)>
11.8

> <Error (µM)>
7.4

> <HTRC CRBN-DDB1 EC50 (µM)>
11.78 ±  7.41

> <EC50 fitting (µM)>
15.10

> <Modèle Fitting>
4PL

> <Parent_Compound>
Compound 4

> <MMFF94s_energy_kcalmol>
163.563
$$$$

> <minimizedAffinity>
-8.26532

> <CNNscore>
0.6459783912

> <CNNaffinity>
6.9743294716

> <CNN_VS>
4.5052661896

> <CNNaffinity_variance>
0.3492570221

$$$$
Compound_4_s5


 31 34  0  0  0  0  0  0  0  0999 V2000
   84.8842  153.4881   14.4840 C   0  0  0  0  0  0  0  0  0  0  0  0
   83.5672  153.1006   14.3653 C   0  0  0  0  0  0  0  0  0  0  0  0
   85.8515  152.6136   14.9506 C   0  0  0  0  0  0  0  0  0  0  0  0
   83.1704  151.8418   14.7033 C   0  0  0  0  0  0  0  0  0  0  0  0
   85.4334  151.3285   15.2932 C   0  0  0  0  0  0  0  0  0  0  0  0
   84.1201  150.9538   15.1710 C   0  0  0  0  0  0  0  0  0  0  0  0
   81.8762  151.0966   14.7033 C   0  0  0  0  0  0  0  0  0  0  0  0
   83.3962  149.6857   15.4539 C   0  0  0  0  0  0  0  0  0  0  0  0
   82.1081  150.2251   15.8245 N   0  0  0  0  0  0  0  0  0  0  0  0
   81.9968  150.0956   13.5702 C   0  0  0  0  0  0  0  0  0  0  0  0
   83.0376  149.1073   14.1009 C   0  0  0  0  0  0  0  0  0  0  0  0
   81.3608  149.9373   16.9609 C   0  0  0  0  0  0  0  0  0  0  0  0
   82.4647  150.7403   12.4410 O   0  0  0  0  0  0  0  0  0  0  0  0
   82.4549  147.8756   14.2807 O   0  0  0  0  0  0  0  0  0  0  0  0
   80.2267  150.4878   17.1715 O   0  0  0  0  0  0  0  0  0  0  0  0
   83.3032  151.1831   12.6456 H   0  0  0  0  0  0  0  0  0  0  0  0
   81.6905  147.9628   14.8716 H   0  0  0  0  0  0  0  0  0  0  0  0
   86.1912  154.1756   12.0739 O   0  0  0  0  0  0  0  0  0  0  0  0
   85.6859  155.0830   12.7913 C   0  0  0  0  0  0  0  0  0  0  0  0
   85.2656  154.8120   14.1220 N   0  0  0  0  0  0  0  0  0  0  0  0
   85.5203  156.4108   12.2888 N   0  0  0  0  0  0  0  0  0  0  0  0
   85.2408  155.9041   15.0698 C   0  0  0  0  0  0  0  0  0  0  0  0
   84.9452  157.3960   13.1393 C   0  0  0  0  0  0  0  0  0  0  0  0
   84.4810  157.0798   14.5059 C   0  0  0  0  0  0  0  0  0  0  0  0
   84.8171  158.5936   12.7303 O   0  0  0  0  0  0  0  0  0  0  0  0
   85.7987  156.6392   11.3725 H   0  0  0  0  0  0  0  0  0  0  0  0
   81.7559  149.0487   17.9564 O   0  0  0  0  0  0  0  0  0  0  0  0
   82.5790  149.3822   19.0290 C   0  0  0  0  0  0  0  0  0  0  0  0
   81.9119  149.2168   20.3714 C   0  0  0  0  0  0  0  0  0  0  0  0
   83.9044  148.6652   19.0297 C   0  0  0  0  0  0  0  0  0  0  0  0
   82.8969  150.8784   18.8997 C   0  0  0  0  0  0  0  0  0  0  0  0
 18 19  2  0
 19 20  1  0
 19 21  1  0
 20  1  1  0
 20 22  1  0
 21 23  1  0
 21 26  1  0
  1  2  2  0
  1  3  1  0
 22 24  1  0
 23 25  2  0
 23 24  1  0
  2  4  1  0
  3  5  2  0
  4  6  2  0
  5  6  1  0
  7  4  1  0
  7  9  1  0
  7 10  1  0
  8  6  1  0
  8 11  1  0
  8  9  1  0
  9 12  1  0
 10 13  1  0
 10 11  1  0
 11 14  1  0
 12 15  2  0
 12 27  1  0
 13 16  1  0
 14 17  1  0
 27 28  1  0
 28 29  1  0
 28 30  1  0
 28 31  1  0
M  END
> <Molecule Name>
Compound 4

> <EC50 (µM) (Excel)>
11.8

> <Error (µM)>
7.4

> <HTRC CRBN-DDB1 EC50 (µM)>
11.78 ±  7.41

> <EC50 fitting (µM)>
15.10

> <Modèle Fitting>
4PL

> <Parent_Compound>
Compound 4

> <MMFF94s_energy_kcalmol>
163.563
$$$$

> <minimizedAffinity>
-8.03437

> <CNNscore>
0.6237414479

> <CNNaffinity>
6.6324844360

> <CNN_VS>
4.1369552612

> <CNNaffinity_variance>
0.4719369411

$$$$
Compound_4_s5


 31 34  0  0  0  0  0  0  0  0999 V2000
   84.8953  153.9523   14.3858 C   0  0  0  0  0  0  0  0  0  0  0  0
   84.5928  153.1434   13.3121 C   0  0  0  0  0  0  0  0  0  0  0  0
   84.7949  153.4876   15.6866 C   0  0  0  0  0  0  0  0  0  0  0  0
   84.1837  151.8564   13.4932 C   0  0  0  0  0  0  0  0  0  0  0  0
   84.3753  152.1693   15.8592 C   0  0  0  0  0  0  0  0  0  0  0  0
   84.0768  151.3734   14.7833 C   0  0  0  0  0  0  0  0  0  0  0  0
   83.7874  150.7285   12.5983 C   0  0  0  0  0  0  0  0  0  0  0  0
   83.6141  149.9653   14.6602 C   0  0  0  0  0  0  0  0  0  0  0  0
   82.8294  150.0778   13.4522 N   0  0  0  0  0  0  0  0  0  0  0  0
   84.9289  149.7338   12.6874 C   0  0  0  0  0  0  0  0  0  0  0  0
   84.7952  149.1916   14.1121 C   0  0  0  0  0  0  0  0  0  0  0  0
   81.5217  149.6540   13.2452 C   0  0  0  0  0  0  0  0  0  0  0  0
   86.1282  150.4016   12.5280 O   0  0  0  0  0  0  0  0  0  0  0  0
   84.4745  147.8559   14.0693 O   0  0  0  0  0  0  0  0  0  0  0  0
   80.9380  149.8146   12.1196 O   0  0  0  0  0  0  0  0  0  0  0  0
   86.1928  151.1116   13.1858 H   0  0  0  0  0  0  0  0  0  0  0  0
   83.6654  147.7342   13.5483 H   0  0  0  0  0  0  0  0  0  0  0  0
   86.2910  154.8268   12.0886 O   0  0  0  0  0  0  0  0  0  0  0  0
   85.7871  155.6764   12.8745 C   0  0  0  0  0  0  0  0  0  0  0  0
   85.3202  155.2932   14.1614 N   0  0  0  0  0  0  0  0  0  0  0  0
   85.6697  157.0496   12.4957 N   0  0  0  0  0  0  0  0  0  0  0  0
   85.2941  156.2917   15.2074 C   0  0  0  0  0  0  0  0  0  0  0  0
   85.0939  157.9660   13.4195 C   0  0  0  0  0  0  0  0  0  0  0  0
   84.5811  157.5357   14.7366 C   0  0  0  0  0  0  0  0  0  0  0  0
   85.0079  159.1998   13.1223 O   0  0  0  0  0  0  0  0  0  0  0  0
   85.9811  157.3554   11.6132 H   0  0  0  0  0  0  0  0  0  0  0  0
   80.7362  149.0307   14.2101 O   0  0  0  0  0  0  0  0  0  0  0  0
   79.7803  149.6797   14.9877 C   0  0  0  0  0  0  0  0  0  0  0  0
   80.2614  150.9889   15.5611 C   0  0  0  0  0  0  0  0  0  0  0  0
   78.4608  149.8860   14.2900 C   0  0  0  0  0  0  0  0  0  0  0  0
   79.4950  148.7730   16.1931 C   0  0  0  0  0  0  0  0  0  0  0  0
 18 19  2  0
 19 20  1  0
 19 21  1  0
 20  1  1  0
 20 22  1  0
 21 23  1  0
 21 26  1  0
  1  2  2  0
  1  3  1  0
 22 24  1  0
 23 25  2  0
 23 24  1  0
  2  4  1  0
  3  5  2  0
  4  6  2  0
  5  6  1  0
  7  4  1  0
  7  9  1  0
  7 10  1  0
  8  6  1  0
  8 11  1  0
  8  9  1  0
  9 12  1  0
 10 13  1  0
 10 11  1  0
 11 14  1  0
 12 15  2  0
 12 27  1  0
 13 16  1  0
 14 17  1  0
 27 28  1  0
 28 29  1  0
 28 30  1  0
 28 31  1  0
M  END
> <Molecule Name>
Compound 4

> <EC50 (µM) (Excel)>
11.8

> <Error (µM)>
7.4

> <HTRC CRBN-DDB1 EC50 (µM)>
11.78 ±  7.41

> <EC50 fitting (µM)>
15.10

> <Modèle Fitting>
4PL

> <Parent_Compound>
Compound 4

> <MMFF94s_energy_kcalmol>
163.563
$$$$

> <minimizedAffinity>
-8.48089

> <CNNscore>
0.5839615464

> <CNNaffinity>
6.4614353180

> <CNN_VS>
3.7732298374

> <CNNaffinity_variance>
0.0676790476

$$$$
