Compound_11_ent1


 37 40  0  0  0  0  0  0  0  0999 V2000
   83.4061  150.2662   15.8060 C   0  0  0  0  0  0  0  0  0  0  0  0
   83.4496  149.3419   16.8018 C   0  0  0  0  0  0  0  0  0  0  0  0
   82.9460  151.5323   16.1482 C   0  0  0  0  0  0  0  0  0  0  0  0
   83.0640  149.5978   18.1067 C   0  0  0  0  0  0  0  0  0  0  0  0
   82.5542  151.8307   17.4287 C   0  0  0  0  0  0  0  0  0  0  0  0
   82.6152  150.8550   18.4092 C   0  0  0  0  0  0  0  0  0  0  0  0
   83.1460  148.5288   19.1153 C   0  0  0  0  0  0  0  0  0  0  0  0
   82.3525  147.5291   19.0328 O   0  0  0  0  0  0  0  0  0  0  0  0
   84.0438  148.5043   20.1951 N   0  0  0  0  0  0  0  0  0  0  0  0
   84.6772  149.2509   20.2983 H   0  0  0  0  0  0  0  0  0  0  0  0
   84.0777  147.4261   21.1649 C   0  0  0  0  0  0  0  0  0  0  0  0
   84.5093  147.9736   22.4653 C   0  0  0  0  0  0  0  0  0  0  0  0
   85.0428  146.3786   20.6592 C   0  0  0  0  0  0  0  0  0  0  0  0
   83.6734  148.2815   23.3319 O   0  0  0  0  0  0  0  0  0  0  0  0
   85.8918  148.1395   22.7031 N   0  0  0  0  0  0  0  0  0  0  0  0
   86.4658  146.8010   20.6810 C   0  0  0  0  0  0  0  0  0  0  0  0
   86.7863  147.8937   21.6252 C   0  0  0  0  0  0  0  0  0  0  0  0
   87.8213  148.6060   21.5011 O   0  0  0  0  0  0  0  0  0  0  0  0
   86.2256  148.4166   23.5869 H   0  0  0  0  0  0  0  0  0  0  0  0
   83.7825  149.9761   14.3823 C   0  0  0  0  0  0  0  0  0  0  0  0
   85.7369  151.7136   14.5785 S   0  0  0  0  0  0  0  0  0  0  0  0
   86.9827  151.7684   13.6741 O   0  0  0  0  0  0  0  0  0  0  0  0
   86.1772  150.7293   15.6666 O   0  0  0  0  0  0  0  0  0  0  0  0
   84.4079  151.0939   13.7867 N   0  0  0  0  0  0  0  0  0  0  0  0
   85.5106  153.2403   15.3968 C   0  0  0  0  0  0  0  0  0  0  0  0
   83.6032  151.9764   13.0362 C   0  0  0  0  0  0  0  0  0  0  0  0
   84.7834  154.3174   14.7196 C   0  0  0  0  0  0  0  0  0  0  0  0
   84.3622  153.1067   12.3994 C   0  0  0  0  0  0  0  0  0  0  0  0
   84.5565  154.2387   13.3071 N   0  0  0  0  0  0  0  0  0  0  0  0
   84.5087  155.5119   12.6760 C   0  0  0  0  0  0  0  0  0  0  0  0
   84.3139  155.5742   11.4442 O   0  0  0  0  0  0  0  0  0  0  0  0
   84.6817  156.7379   13.4308 C   0  0  0  0  0  0  0  0  0  0  0  0
   85.3473  157.8013   12.8799 N   0  0  0  0  0  0  0  0  0  0  0  0
   84.1904  156.8629   14.7096 C   0  0  0  0  0  0  0  0  0  0  0  0
   85.5295  158.9453   13.5477 C   0  0  0  0  0  0  0  0  0  0  0  0
   84.3643  158.0240   15.4146 C   0  0  0  0  0  0  0  0  0  0  0  0
   85.0400  159.0914   14.8449 C   0  0  0  0  0  0  0  0  0  0  0  0
 21 22  2  0
 21 23  2  0
 21 24  1  0
 21 25  1  0
 24 26  1  0
 24 20  1  0
 25 27  1  0
 26 28  1  0
 20  1  1  0
 27 29  1  0
 28 29  1  0
  1  2  2  0
  1  3  1  0
 29 30  1  0
  2  4  1  0
  3  5  2  0
 30 31  2  0
 30 32  1  0
  4  7  1  0
  4  6  2  0
  5  6  1  0
 32 33  2  0
 32 34  1  0
  7  8  2  0
  7  9  1  0
 33 35  1  0
 34 36  2  0
  9 10  1  0
 35 37  2  0
 36 37  1  0
 11  9  1  0
 11 12  1  0
 11 13  1  0
 12 14  2  0
 12 15  1  0
 13 16  1  0
 15 17  1  0
 15 19  1  0
 16 17  1  0
 17 18  2  0
M  END
> <Molecule Name>
Compound 11

> <EC50 (µM) (Excel)>
37.7

> <Error (µM)>
0.8

> <HTRC CRBN-DDB1 EC50 (µM)>
37.72 ±  0.78

> <EC50 fitting (µM)>
52.96

> <Modèle Fitting>
3PL

> <Parent_Compound>
Compound 11

> <MMFF94s_energy_kcalmol>
162.965
$$$$

> <minimizedAffinity>
-8.24388

> <CNNscore>
0.6250433326

> <CNNaffinity>
6.8539581299

> <CNN_VS>
4.2840209007

> <CNNaffinity_variance>
0.0600532182

$$$$
Compound_11_ent1


 37 40  0  0  0  0  0  0  0  0999 V2000
   83.4961  149.5117   18.1227 C   0  0  0  0  0  0  0  0  0  0  0  0
   82.1708  149.7361   17.9197 C   0  0  0  0  0  0  0  0  0  0  0  0
   83.8813  149.1682   19.4132 C   0  0  0  0  0  0  0  0  0  0  0  0
   81.2132  149.6426   18.9152 C   0  0  0  0  0  0  0  0  0  0  0  0
   82.9664  149.0632   20.4303 C   0  0  0  0  0  0  0  0  0  0  0  0
   81.6269  149.3028   20.1749 C   0  0  0  0  0  0  0  0  0  0  0  0
   79.8006  149.9068   18.5965 C   0  0  0  0  0  0  0  0  0  0  0  0
   79.5095  150.5455   17.5273 O   0  0  0  0  0  0  0  0  0  0  0  0
   78.7071  149.5097   19.3836 N   0  0  0  0  0  0  0  0  0  0  0  0
   78.8811  149.0118   20.2149 H   0  0  0  0  0  0  0  0  0  0  0  0
   77.3325  149.8020   19.0241 C   0  0  0  0  0  0  0  0  0  0  0  0
   76.8862  150.9845   19.7856 C   0  0  0  0  0  0  0  0  0  0  0  0
   76.4986  148.5856   19.3546 C   0  0  0  0  0  0  0  0  0  0  0  0
   76.9120  152.1158   19.2716 O   0  0  0  0  0  0  0  0  0  0  0  0
   76.4295  150.8023   21.1098 N   0  0  0  0  0  0  0  0  0  0  0  0
   76.3449  148.3300   20.8088 C   0  0  0  0  0  0  0  0  0  0  0  0
   76.5496  149.5061   21.6824 C   0  0  0  0  0  0  0  0  0  0  0  0
   76.8252  149.3912   22.9092 O   0  0  0  0  0  0  0  0  0  0  0  0
   76.0404  151.5489   21.6202 H   0  0  0  0  0  0  0  0  0  0  0  0
   84.5394  149.6561   17.0535 C   0  0  0  0  0  0  0  0  0  0  0  0
   85.1020  150.6731   14.7027 S   0  0  0  0  0  0  0  0  0  0  0  0
   84.4640  150.2498   13.3661 O   0  0  0  0  0  0  0  0  0  0  0  0
   86.2673  149.6861   14.8253 O   0  0  0  0  0  0  0  0  0  0  0  0
   84.0680  150.4602   15.9921 N   0  0  0  0  0  0  0  0  0  0  0  0
   85.8414  152.2487   14.5527 C   0  0  0  0  0  0  0  0  0  0  0  0
   83.1621  151.4959   16.3027 C   0  0  0  0  0  0  0  0  0  0  0  0
   85.0206  153.4481   14.7402 C   0  0  0  0  0  0  0  0  0  0  0  0
   82.6768  152.2651   15.1061 C   0  0  0  0  0  0  0  0  0  0  0  0
   83.5921  153.3388   14.7156 N   0  0  0  0  0  0  0  0  0  0  0  0
   82.9499  154.5056   14.2181 C   0  0  0  0  0  0  0  0  0  0  0  0
   81.7033  154.5326   14.1501 O   0  0  0  0  0  0  0  0  0  0  0  0
   83.7100  155.6631   13.7878 C   0  0  0  0  0  0  0  0  0  0  0  0
   84.0518  155.8152   12.4697 N   0  0  0  0  0  0  0  0  0  0  0  0
   84.1082  156.6277   14.6841 C   0  0  0  0  0  0  0  0  0  0  0  0
   84.7556  156.8669   12.0378 C   0  0  0  0  0  0  0  0  0  0  0  0
   84.8302  157.7140   14.2668 C   0  0  0  0  0  0  0  0  0  0  0  0
   85.1691  157.8547   12.9305 C   0  0  0  0  0  0  0  0  0  0  0  0
 21 22  2  0
 21 23  2  0
 21 24  1  0
 21 25  1  0
 24 26  1  0
 24 20  1  0
 25 27  1  0
 26 28  1  0
 20  1  1  0
 27 29  1  0
 28 29  1  0
  1  2  2  0
  1  3  1  0
 29 30  1  0
  2  4  1  0
  3  5  2  0
 30 31  2  0
 30 32  1  0
  4  7  1  0
  4  6  2  0
  5  6  1  0
 32 33  2  0
 32 34  1  0
  7  8  2  0
  7  9  1  0
 33 35  1  0
 34 36  2  0
  9 10  1  0
 35 37  2  0
 36 37  1  0
 11  9  1  0
 11 12  1  0
 11 13  1  0
 12 14  2  0
 12 15  1  0
 13 16  1  0
 15 17  1  0
 15 19  1  0
 16 17  1  0
 17 18  2  0
M  END
> <Molecule Name>
Compound 11

> <EC50 (µM) (Excel)>
37.7

> <Error (µM)>
0.8

> <HTRC CRBN-DDB1 EC50 (µM)>
37.72 ±  0.78

> <EC50 fitting (µM)>
52.96

> <Modèle Fitting>
3PL

> <Parent_Compound>
Compound 11

> <MMFF94s_energy_kcalmol>
162.965
$$$$

> <minimizedAffinity>
-8.44153

> <CNNscore>
0.2789391577

> <CNNaffinity>
5.8954405785

> <CNN_VS>
1.6444692612

> <CNNaffinity_variance>
0.6080105901

$$$$
Compound_11_ent1


 37 40  0  0  0  0  0  0  0  0999 V2000
   83.3038  149.8406   16.9981 C   0  0  0  0  0  0  0  0  0  0  0  0
   81.9888  149.4992   16.9526 C   0  0  0  0  0  0  0  0  0  0  0  0
   83.7993  150.2568   18.2281 C   0  0  0  0  0  0  0  0  0  0  0  0
   81.1427  149.5487   18.0473 C   0  0  0  0  0  0  0  0  0  0  0  0
   82.9973  150.3204   19.3395 C   0  0  0  0  0  0  0  0  0  0  0  0
   81.6630  149.9637   19.2433 C   0  0  0  0  0  0  0  0  0  0  0  0
   79.7309  149.1601   17.8970 C   0  0  0  0  0  0  0  0  0  0  0  0
   79.1036  148.6808   18.9033 O   0  0  0  0  0  0  0  0  0  0  0  0
   78.9846  149.2702   16.7122 N   0  0  0  0  0  0  0  0  0  0  0  0
   79.4236  149.6373   15.9112 H   0  0  0  0  0  0  0  0  0  0  0  0
   77.5945  148.8661   16.6184 C   0  0  0  0  0  0  0  0  0  0  0  0
   77.5411  147.4477   16.2154 C   0  0  0  0  0  0  0  0  0  0  0  0
   76.9214  149.7555   15.5985 C   0  0  0  0  0  0  0  0  0  0  0  0
   77.3986  146.5524   17.0655 O   0  0  0  0  0  0  0  0  0  0  0  0
   77.6550  147.1304   14.8436 N   0  0  0  0  0  0  0  0  0  0  0  0
   77.3620  149.5201   14.2006 C   0  0  0  0  0  0  0  0  0  0  0  0
   77.9482  148.1874   13.9385 C   0  0  0  0  0  0  0  0  0  0  0  0
   78.6937  147.9659   12.9440 O   0  0  0  0  0  0  0  0  0  0  0  0
   77.5352  146.2069   14.5242 H   0  0  0  0  0  0  0  0  0  0  0  0
   84.2100  149.8290   15.8016 C   0  0  0  0  0  0  0  0  0  0  0  0
   85.0638  151.3270   13.8258 S   0  0  0  0  0  0  0  0  0  0  0  0
   84.5823  151.2451   12.3649 O   0  0  0  0  0  0  0  0  0  0  0  0
   86.1904  150.2891   13.8477 O   0  0  0  0  0  0  0  0  0  0  0  0
   83.8807  150.8720   14.9076 N   0  0  0  0  0  0  0  0  0  0  0  0
   85.8408  152.8626   14.1259 C   0  0  0  0  0  0  0  0  0  0  0  0
   82.9610  151.8481   15.3447 C   0  0  0  0  0  0  0  0  0  0  0  0
   85.0227  154.0224   14.4911 C   0  0  0  0  0  0  0  0  0  0  0  0
   82.6336  152.8884   14.3105 C   0  0  0  0  0  0  0  0  0  0  0  0
   83.6057  153.9825   14.2824 N   0  0  0  0  0  0  0  0  0  0  0  0
   83.0458  155.2581   13.9978 C   0  0  0  0  0  0  0  0  0  0  0  0
   81.8167  155.3530   13.7988 O   0  0  0  0  0  0  0  0  0  0  0  0
   83.8700  156.4493   13.9331 C   0  0  0  0  0  0  0  0  0  0  0  0
   84.5096  156.7855   12.7690 N   0  0  0  0  0  0  0  0  0  0  0  0
   84.0335  157.2634   15.0299 C   0  0  0  0  0  0  0  0  0  0  0  0
   85.2809  157.8736   12.6738 C   0  0  0  0  0  0  0  0  0  0  0  0
   84.8185  158.3832   14.9582 C   0  0  0  0  0  0  0  0  0  0  0  0
   85.4598  158.7108   13.7742 C   0  0  0  0  0  0  0  0  0  0  0  0
 21 22  2  0
 21 23  2  0
 21 24  1  0
 21 25  1  0
 24 26  1  0
 24 20  1  0
 25 27  1  0
 26 28  1  0
 20  1  1  0
 27 29  1  0
 28 29  1  0
  1  2  2  0
  1  3  1  0
 29 30  1  0
  2  4  1  0
  3  5  2  0
 30 31  2  0
 30 32  1  0
  4  7  1  0
  4  6  2  0
  5  6  1  0
 32 33  2  0
 32 34  1  0
  7  8  2  0
  7  9  1  0
 33 35  1  0
 34 36  2  0
  9 10  1  0
 35 37  2  0
 36 37  1  0
 11  9  1  0
 11 12  1  0
 11 13  1  0
 12 14  2  0
 12 15  1  0
 13 16  1  0
 15 17  1  0
 15 19  1  0
 16 17  1  0
 17 18  2  0
M  END
> <Molecule Name>
Compound 11

> <EC50 (µM) (Excel)>
37.7

> <Error (µM)>
0.8

> <HTRC CRBN-DDB1 EC50 (µM)>
37.72 ±  0.78

> <EC50 fitting (µM)>
52.96

> <Modèle Fitting>
3PL

> <Parent_Compound>
Compound 11

> <MMFF94s_energy_kcalmol>
162.965
$$$$

> <minimizedAffinity>
-7.82439

> <CNNscore>
0.2591787577

> <CNNaffinity>
6.3966622353

> <CNN_VS>
1.6578789949

> <CNNaffinity_variance>
0.0134292068

$$$$
Compound_11_ent1


 37 40  0  0  0  0  0  0  0  0999 V2000
   82.1891  149.5888   19.5158 C   0  0  0  0  0  0  0  0  0  0  0  0
   81.0515  149.4050   18.7947 C   0  0  0  0  0  0  0  0  0  0  0  0
   82.2167  149.0370   20.7911 C   0  0  0  0  0  0  0  0  0  0  0  0
   79.9473  148.7130   19.2625 C   0  0  0  0  0  0  0  0  0  0  0  0
   81.1460  148.3428   21.2950 C   0  0  0  0  0  0  0  0  0  0  0  0
   80.0079  148.1830   20.5230 C   0  0  0  0  0  0  0  0  0  0  0  0
   78.7591  148.5690   18.4057 C   0  0  0  0  0  0  0  0  0  0  0  0
   77.6885  148.0730   18.8993 O   0  0  0  0  0  0  0  0  0  0  0  0
   78.6899  148.9376   17.0521 N   0  0  0  0  0  0  0  0  0  0  0  0
   79.4885  149.3277   16.6286 H   0  0  0  0  0  0  0  0  0  0  0  0
   77.4922  148.7681   16.2515 C   0  0  0  0  0  0  0  0  0  0  0  0
   77.7362  147.7079   15.2548 C   0  0  0  0  0  0  0  0  0  0  0  0
   77.1882  150.0911   15.5870 C   0  0  0  0  0  0  0  0  0  0  0  0
   77.3600  146.5421   15.4648 O   0  0  0  0  0  0  0  0  0  0  0  0
   78.4059  148.0468   14.0581 N   0  0  0  0  0  0  0  0  0  0  0  0
   78.1593  150.4805   14.5339 C   0  0  0  0  0  0  0  0  0  0  0  0
   78.9260  149.3649   13.9374 C   0  0  0  0  0  0  0  0  0  0  0  0
   80.0179  149.5495   13.3309 O   0  0  0  0  0  0  0  0  0  0  0  0
   78.5092  147.3915   13.3307 H   0  0  0  0  0  0  0  0  0  0  0  0
   83.3688  150.3765   19.0253 C   0  0  0  0  0  0  0  0  0  0  0  0
   84.4174  150.3724   16.6217 S   0  0  0  0  0  0  0  0  0  0  0  0
   83.9117  149.5467   15.4237 O   0  0  0  0  0  0  0  0  0  0  0  0
   85.3728  149.3888   17.3049 O   0  0  0  0  0  0  0  0  0  0  0  0
   83.1918  150.7674   17.6795 N   0  0  0  0  0  0  0  0  0  0  0  0
   85.4229  151.6908   16.0717 C   0  0  0  0  0  0  0  0  0  0  0  0
   82.4368  151.9316   17.4258 C   0  0  0  0  0  0  0  0  0  0  0  0
   84.7956  152.9509   15.6638 C   0  0  0  0  0  0  0  0  0  0  0  0
   82.2595  152.2410   15.9657 C   0  0  0  0  0  0  0  0  0  0  0  0
   83.3867  152.9887   15.4058 N   0  0  0  0  0  0  0  0  0  0  0  0
   83.0243  153.9431   14.4161 C   0  0  0  0  0  0  0  0  0  0  0  0
   81.8218  154.0713   14.1051 O   0  0  0  0  0  0  0  0  0  0  0  0
   84.0197  154.7689   13.7604 C   0  0  0  0  0  0  0  0  0  0  0  0
   84.8655  154.2252   12.8297 N   0  0  0  0  0  0  0  0  0  0  0  0
   84.1427  156.1067   14.0561 C   0  0  0  0  0  0  0  0  0  0  0  0
   85.7979  154.9551   12.2086 C   0  0  0  0  0  0  0  0  0  0  0  0
   85.0900  156.8757   13.4340 C   0  0  0  0  0  0  0  0  0  0  0  0
   85.9390  156.3122   12.4948 C   0  0  0  0  0  0  0  0  0  0  0  0
 21 22  2  0
 21 23  2  0
 21 24  1  0
 21 25  1  0
 24 26  1  0
 24 20  1  0
 25 27  1  0
 26 28  1  0
 20  1  1  0
 27 29  1  0
 28 29  1  0
  1  2  2  0
  1  3  1  0
 29 30  1  0
  2  4  1  0
  3  5  2  0
 30 31  2  0
 30 32  1  0
  4  7  1  0
  4  6  2  0
  5  6  1  0
 32 33  2  0
 32 34  1  0
  7  8  2  0
  7  9  1  0
 33 35  1  0
 34 36  2  0
  9 10  1  0
 35 37  2  0
 36 37  1  0
 11  9  1  0
 11 12  1  0
 11 13  1  0
 12 14  2  0
 12 15  1  0
 13 16  1  0
 15 17  1  0
 15 19  1  0
 16 17  1  0
 17 18  2  0
M  END
> <Molecule Name>
Compound 11

> <EC50 (µM) (Excel)>
37.7

> <Error (µM)>
0.8

> <HTRC CRBN-DDB1 EC50 (µM)>
37.72 ±  0.78

> <EC50 fitting (µM)>
52.96

> <Modèle Fitting>
3PL

> <Parent_Compound>
Compound 11

> <MMFF94s_energy_kcalmol>
162.965
$$$$

> <minimizedAffinity>
-8.10284

> <CNNscore>
0.2573733628

> <CNNaffinity>
5.5012679100

> <CNN_VS>
1.4158798456

> <CNNaffinity_variance>
0.6440634727

$$$$
Compound_11_ent1


 37 40  0  0  0  0  0  0  0  0999 V2000
   83.3585  149.1890   18.4447 C   0  0  0  0  0  0  0  0  0  0  0  0
   82.2889  148.4448   18.0571 C   0  0  0  0  0  0  0  0  0  0  0  0
   83.3210  149.7146   19.7308 C   0  0  0  0  0  0  0  0  0  0  0  0
   81.1919  148.1956   18.8640 C   0  0  0  0  0  0  0  0  0  0  0  0
   82.2547  149.4926   20.5650 C   0  0  0  0  0  0  0  0  0  0  0  0
   81.1872  148.7288   20.1246 C   0  0  0  0  0  0  0  0  0  0  0  0
   80.0799  147.3779   18.3524 C   0  0  0  0  0  0  0  0  0  0  0  0
   80.2150  146.1077   18.2896 O   0  0  0  0  0  0  0  0  0  0  0  0
   78.8442  147.8799   17.9122 N   0  0  0  0  0  0  0  0  0  0  0  0
   78.6918  148.8520   17.9450 H   0  0  0  0  0  0  0  0  0  0  0  0
   77.7828  147.0274   17.4113 C   0  0  0  0  0  0  0  0  0  0  0  0
   77.8234  147.0396   15.9364 C   0  0  0  0  0  0  0  0  0  0  0  0
   76.4706  147.5669   17.9320 C   0  0  0  0  0  0  0  0  0  0  0  0
   78.3960  146.1312   15.3107 O   0  0  0  0  0  0  0  0  0  0  0  0
   77.1974  148.1052   15.2522 N   0  0  0  0  0  0  0  0  0  0  0  0
   76.0693  148.8675   17.3394 C   0  0  0  0  0  0  0  0  0  0  0  0
   76.6764  149.1781   16.0267 C   0  0  0  0  0  0  0  0  0  0  0  0
   76.7439  150.3573   15.5805 O   0  0  0  0  0  0  0  0  0  0  0  0
   77.1241  148.1051   14.2704 H   0  0  0  0  0  0  0  0  0  0  0  0
   84.5273  149.4955   17.5544 C   0  0  0  0  0  0  0  0  0  0  0  0
   85.2135  150.3186   15.1610 S   0  0  0  0  0  0  0  0  0  0  0  0
   84.6334  149.7975   13.8325 O   0  0  0  0  0  0  0  0  0  0  0  0
   86.3583  149.3330   15.4161 O   0  0  0  0  0  0  0  0  0  0  0  0
   84.1172  150.2180   16.4120 N   0  0  0  0  0  0  0  0  0  0  0  0
   85.9803  151.8702   14.9238 C   0  0  0  0  0  0  0  0  0  0  0  0
   83.2117  151.2837   16.5968 C   0  0  0  0  0  0  0  0  0  0  0  0
   85.1678  153.0887   14.9773 C   0  0  0  0  0  0  0  0  0  0  0  0
   82.7937  151.9610   15.3218 C   0  0  0  0  0  0  0  0  0  0  0  0
   83.7408  152.9916   14.8929 N   0  0  0  0  0  0  0  0  0  0  0  0
   83.1384  154.1219   14.2754 C   0  0  0  0  0  0  0  0  0  0  0  0
   81.8969  154.1556   14.1459 O   0  0  0  0  0  0  0  0  0  0  0  0
   83.9335  155.2343   13.7929 C   0  0  0  0  0  0  0  0  0  0  0  0
   84.6239  155.1311   12.6139 N   0  0  0  0  0  0  0  0  0  0  0  0
   84.0183  156.4102   14.5018 C   0  0  0  0  0  0  0  0  0  0  0  0
   85.3704  156.1344   12.1405 C   0  0  0  0  0  0  0  0  0  0  0  0
   84.7766  157.4523   14.0385 C   0  0  0  0  0  0  0  0  0  0  0  0
   85.4698  157.3337   12.8445 C   0  0  0  0  0  0  0  0  0  0  0  0
 21 22  2  0
 21 23  2  0
 21 24  1  0
 21 25  1  0
 24 26  1  0
 24 20  1  0
 25 27  1  0
 26 28  1  0
 20  1  1  0
 27 29  1  0
 28 29  1  0
  1  2  2  0
  1  3  1  0
 29 30  1  0
  2  4  1  0
  3  5  2  0
 30 31  2  0
 30 32  1  0
  4  7  1  0
  4  6  2  0
  5  6  1  0
 32 33  2  0
 32 34  1  0
  7  8  2  0
  7  9  1  0
 33 35  1  0
 34 36  2  0
  9 10  1  0
 35 37  2  0
 36 37  1  0
 11  9  1  0
 11 12  1  0
 11 13  1  0
 12 14  2  0
 12 15  1  0
 13 16  1  0
 15 17  1  0
 15 19  1  0
 16 17  1  0
 17 18  2  0
M  END
> <Molecule Name>
Compound 11

> <EC50 (µM) (Excel)>
37.7

> <Error (µM)>
0.8

> <HTRC CRBN-DDB1 EC50 (µM)>
37.72 ±  0.78

> <EC50 fitting (µM)>
52.96

> <Modèle Fitting>
3PL

> <Parent_Compound>
Compound 11

> <MMFF94s_energy_kcalmol>
162.965
$$$$

> <minimizedAffinity>
-6.90795

> <CNNscore>
0.2529813051

> <CNNaffinity>
5.6672573090

> <CNN_VS>
1.4337100983

> <CNNaffinity_variance>
0.4463927746

$$$$
