Compound_12_ent1


 40 43  0  0  0  0  0  0  0  0999 V2000
   86.8853  147.9759   14.5941 S   0  0  0  0  0  0  0  0  0  0  0  0
   87.5753  146.7823   15.1831 O   0  0  0  0  0  0  0  0  0  0  0  0
   85.3931  147.6762   14.6421 O   0  0  0  0  0  0  0  0  0  0  0  0
   87.2615  149.4335   15.3962 N   0  0  0  0  0  0  0  0  0  0  0  0
   87.3099  148.0204   12.8632 C   0  0  0  0  0  0  0  0  0  0  0  0
   87.8124  150.4475   14.5235 C   0  0  0  0  0  0  0  0  0  0  0  0
   86.3511  148.9036   12.0895 C   0  0  0  0  0  0  0  0  0  0  0  0
   86.7007  150.9523   13.5920 C   0  0  0  0  0  0  0  0  0  0  0  0
   86.7516  150.2816   12.3207 N   0  0  0  0  0  0  0  0  0  0  0  0
   87.2292  151.0246   11.2152 C   0  0  0  0  0  0  0  0  0  0  0  0
   87.3015  150.4961   10.0586 O   0  0  0  0  0  0  0  0  0  0  0  0
   86.2437  149.9228   16.2651 C   0  0  0  0  0  0  0  0  0  0  0  0
   85.1898  150.7215   15.6382 C   0  0  0  0  0  0  0  0  0  0  0  0
   85.3483  152.1007   15.4423 C   0  0  0  0  0  0  0  0  0  0  0  0
   84.0350  150.0842   15.2454 C   0  0  0  0  0  0  0  0  0  0  0  0
   84.3690  152.8598   14.8580 C   0  0  0  0  0  0  0  0  0  0  0  0
   83.0482  150.8451   14.6574 C   0  0  0  0  0  0  0  0  0  0  0  0
   83.2001  152.2016   14.4630 C   0  0  0  0  0  0  0  0  0  0  0  0
   84.5136  154.2918   14.6447 C   0  0  0  0  0  0  0  0  0  0  0  0
   85.2902  154.9862   15.3907 O   0  0  0  0  0  0  0  0  0  0  0  0
   83.8436  155.0312   13.6396 N   0  0  0  0  0  0  0  0  0  0  0  0
   83.2324  154.5513   13.0352 H   0  0  0  0  0  0  0  0  0  0  0  0
   84.0132  156.4643   13.4553 C   0  0  0  0  0  0  0  0  0  0  0  0
   85.3234  156.7902   12.8585 C   0  0  0  0  0  0  0  0  0  0  0  0
   83.6691  157.2458   14.6795 C   0  0  0  0  0  0  0  0  0  0  0  0
   85.9654  155.9125   12.2539 O   0  0  0  0  0  0  0  0  0  0  0  0
   85.8272  158.1068   12.9876 N   0  0  0  0  0  0  0  0  0  0  0  0
   84.8103  158.0698   15.2345 C   0  0  0  0  0  0  0  0  0  0  0  0
   85.3537  158.8716   14.1040 C   0  0  0  0  0  0  0  0  0  0  0  0
   85.4132  160.1146   14.0840 O   0  0  0  0  0  0  0  0  0  0  0  0
   86.4711  158.4788   12.3424 H   0  0  0  0  0  0  0  0  0  0  0  0
   87.6575  152.4398   11.3795 C   0  0  0  0  0  0  0  0  0  0  0  0
   88.8298  152.6992   10.4835 C   0  0  0  0  0  0  0  0  0  0  0  0
   88.6667  153.6193    9.4813 O   0  0  0  0  0  0  0  0  0  0  0  0
   88.7729  153.5012    8.1205 C   0  0  0  0  0  0  0  0  0  0  0  0
   89.2212  154.6135    7.4161 C   0  0  0  0  0  0  0  0  0  0  0  0
   88.4796  152.3970    7.3763 C   0  0  0  0  0  0  0  0  0  0  0  0
   89.3723  154.6354    6.0551 C   0  0  0  0  0  0  0  0  0  0  0  0
   88.6093  152.3487    5.9979 C   0  0  0  0  0  0  0  0  0  0  0  0
   89.0569  153.4765    5.3530 C   0  0  0  0  0  0  0  0  0  0  0  0
  1  2  2  0
  1  3  2  0
  1  4  1  0
  1  5  1  0
  4  6  1  0
  4 12  1  0
  5  7  1  0
  6  8  1  0
 12 13  1  0
  7  9  1  0
  8  9  1  0
 13 14  2  0
 13 15  1  0
  9 10  1  0
 14 16  1  0
 15 17  2  0
 10 11  2  0
 10 32  1  0
 16 19  1  0
 16 18  2  0
 17 18  1  0
 32 33  1  0
 19 20  2  0
 19 21  1  0
 33 34  1  0
 21 22  1  0
 34 35  1  0
 23 21  1  0
 23 24  1  0
 23 25  1  0
 35 36  2  0
 35 37  1  0
 24 26  2  0
 24 27  1  0
 25 28  1  0
 36 38  1  0
 37 39  2  0
 27 29  1  0
 27 31  1  0
 28 29  1  0
 38 40  2  0
 39 40  1  0
 29 30  2  0
M  END
> <Molecule Name>
Compound 12

> <EC50 (µM) (Excel)>
61.9

> <Error (µM)>
8.1

> <HTRC CRBN-DDB1 EC50 (µM)>
61.88 ±  8.05

> <EC50 fitting (µM)>
111.51

> <Modèle Fitting>
4PL

> <Parent_Compound>
Compound 12

> <MMFF94s_energy_kcalmol>
156.552
$$$$

> <minimizedAffinity>
-8.63180

> <CNNscore>
0.6130837202

> <CNNaffinity>
6.8691105843

> <CNN_VS>
4.2113399506

> <CNNaffinity_variance>
0.0576640181

$$$$
Compound_12_ent1


 40 43  0  0  0  0  0  0  0  0999 V2000
   82.4607  150.5692   18.1686 S   0  0  0  0  0  0  0  0  0  0  0  0
   82.3352  150.3646   19.6485 O   0  0  0  0  0  0  0  0  0  0  0  0
   83.1219  151.9276   17.9776 O   0  0  0  0  0  0  0  0  0  0  0  0
   83.3342  149.3280   17.3901 N   0  0  0  0  0  0  0  0  0  0  0  0
   80.8072  150.7463   17.5261 C   0  0  0  0  0  0  0  0  0  0  0  0
   82.5946  148.6792   16.3292 C   0  0  0  0  0  0  0  0  0  0  0  0
   80.8230  151.3757   16.1471 C   0  0  0  0  0  0  0  0  0  0  0  0
   82.4520  149.6606   15.1567 C   0  0  0  0  0  0  0  0  0  0  0  0
   81.1812  150.3325   15.2006 N   0  0  0  0  0  0  0  0  0  0  0  0
   80.2099  149.9436   14.2478 C   0  0  0  0  0  0  0  0  0  0  0  0
   79.0622  150.4956   14.2265 O   0  0  0  0  0  0  0  0  0  0  0  0
   84.6694  149.6679   17.0269 C   0  0  0  0  0  0  0  0  0  0  0  0
   84.8338  150.3572   15.7464 C   0  0  0  0  0  0  0  0  0  0  0  0
   84.7598  151.7548   15.6636 C   0  0  0  0  0  0  0  0  0  0  0  0
   85.0621  149.5977   14.6217 C   0  0  0  0  0  0  0  0  0  0  0  0
   84.9105  152.4120   14.4711 C   0  0  0  0  0  0  0  0  0  0  0  0
   85.2141  150.2559   13.4208 C   0  0  0  0  0  0  0  0  0  0  0  0
   85.1420  151.6301   13.3350 C   0  0  0  0  0  0  0  0  0  0  0  0
   84.8383  153.8612   14.3632 C   0  0  0  0  0  0  0  0  0  0  0  0
   85.2832  154.6073   15.3053 O   0  0  0  0  0  0  0  0  0  0  0  0
   84.2952  154.5638   13.2601 N   0  0  0  0  0  0  0  0  0  0  0  0
   83.9369  154.0436   12.5050 H   0  0  0  0  0  0  0  0  0  0  0  0
   84.2400  156.0158   13.1865 C   0  0  0  0  0  0  0  0  0  0  0  0
   85.4808  156.5849   12.6249 C   0  0  0  0  0  0  0  0  0  0  0  0
   83.7856  156.6390   14.4643 C   0  0  0  0  0  0  0  0  0  0  0  0
   86.2477  155.8657   11.9595 O   0  0  0  0  0  0  0  0  0  0  0  0
   85.7755  157.9498   12.8571 N   0  0  0  0  0  0  0  0  0  0  0  0
   84.7884  157.5849   15.0880 C   0  0  0  0  0  0  0  0  0  0  0  0
   85.1952  158.5449   14.0254 C   0  0  0  0  0  0  0  0  0  0  0  0
   85.0616  159.7800   14.1004 O   0  0  0  0  0  0  0  0  0  0  0  0
   86.3506  158.4651   12.2464 H   0  0  0  0  0  0  0  0  0  0  0  0
   80.5079  148.8813   13.2499 C   0  0  0  0  0  0  0  0  0  0  0  0
   79.7791  149.1917   11.9783 C   0  0  0  0  0  0  0  0  0  0  0  0
   79.0148  148.1956   11.4296 O   0  0  0  0  0  0  0  0  0  0  0  0
   77.6606  148.0906   11.2506 C   0  0  0  0  0  0  0  0  0  0  0  0
   77.1513  148.4483   10.0068 C   0  0  0  0  0  0  0  0  0  0  0  0
   76.7499  147.6704   12.1744 C   0  0  0  0  0  0  0  0  0  0  0  0
   75.8196  148.3942    9.6917 C   0  0  0  0  0  0  0  0  0  0  0  0
   75.3897  147.5906   11.9242 C   0  0  0  0  0  0  0  0  0  0  0  0
   74.9413  147.9561   10.6778 C   0  0  0  0  0  0  0  0  0  0  0  0
  1  2  2  0
  1  3  2  0
  1  4  1  0
  1  5  1  0
  4  6  1  0
  4 12  1  0
  5  7  1  0
  6  8  1  0
 12 13  1  0
  7  9  1  0
  8  9  1  0
 13 14  2  0
 13 15  1  0
  9 10  1  0
 14 16  1  0
 15 17  2  0
 10 11  2  0
 10 32  1  0
 16 19  1  0
 16 18  2  0
 17 18  1  0
 32 33  1  0
 19 20  2  0
 19 21  1  0
 33 34  1  0
 21 22  1  0
 34 35  1  0
 23 21  1  0
 23 24  1  0
 23 25  1  0
 35 36  2  0
 35 37  1  0
 24 26  2  0
 24 27  1  0
 25 28  1  0
 36 38  1  0
 37 39  2  0
 27 29  1  0
 27 31  1  0
 28 29  1  0
 38 40  2  0
 39 40  1  0
 29 30  2  0
M  END
> <Molecule Name>
Compound 12

> <EC50 (µM) (Excel)>
61.9

> <Error (µM)>
8.1

> <HTRC CRBN-DDB1 EC50 (µM)>
61.88 ±  8.05

> <EC50 fitting (µM)>
111.51

> <Modèle Fitting>
4PL

> <Parent_Compound>
Compound 12

> <MMFF94s_energy_kcalmol>
156.552
$$$$

> <minimizedAffinity>
-9.42320

> <CNNscore>
0.5669851303

> <CNNaffinity>
6.6361060143

> <CNN_VS>
3.7625734806

> <CNNaffinity_variance>
0.4733537734

$$$$
Compound_12_ent1


 40 43  0  0  0  0  0  0  0  0999 V2000
   88.2923  151.5148   11.5350 S   0  0  0  0  0  0  0  0  0  0  0  0
   88.0598  152.9907   11.6597 O   0  0  0  0  0  0  0  0  0  0  0  0
   89.1403  151.1111   12.7336 O   0  0  0  0  0  0  0  0  0  0  0  0
   86.8478  150.6114   11.4520 N   0  0  0  0  0  0  0  0  0  0  0  0
   89.3324  151.2710   10.1079 C   0  0  0  0  0  0  0  0  0  0  0  0
   86.7504  149.7852   10.2683 C   0  0  0  0  0  0  0  0  0  0  0  0
   89.9771  149.8992   10.1314 C   0  0  0  0  0  0  0  0  0  0  0  0
   87.7607  148.6347   10.3863 C   0  0  0  0  0  0  0  0  0  0  0  0
   88.9767  148.9445    9.6837 N   0  0  0  0  0  0  0  0  0  0  0  0
   89.2111  148.2656    8.4645 C   0  0  0  0  0  0  0  0  0  0  0  0
   90.2672  148.4887    7.7883 O   0  0  0  0  0  0  0  0  0  0  0  0
   86.4942  149.9295   12.6521 C   0  0  0  0  0  0  0  0  0  0  0  0
   85.7293  150.7024   13.6316 C   0  0  0  0  0  0  0  0  0  0  0  0
   85.6651  152.1009   13.5572 C   0  0  0  0  0  0  0  0  0  0  0  0
   85.0734  150.0210   14.6314 C   0  0  0  0  0  0  0  0  0  0  0  0
   84.9539  152.8361   14.4685 C   0  0  0  0  0  0  0  0  0  0  0  0
   84.3572  150.7578   15.5494 C   0  0  0  0  0  0  0  0  0  0  0  0
   84.2916  152.1332   15.4799 C   0  0  0  0  0  0  0  0  0  0  0  0
   84.8736  154.2877   14.4090 C   0  0  0  0  0  0  0  0  0  0  0  0
   85.5219  155.0106   15.2452 O   0  0  0  0  0  0  0  0  0  0  0  0
   84.1079  155.0172   13.4671 N   0  0  0  0  0  0  0  0  0  0  0  0
   83.5873  154.5155   12.7989 H   0  0  0  0  0  0  0  0  0  0  0  0
   84.0517  156.4707   13.4374 C   0  0  0  0  0  0  0  0  0  0  0  0
   85.1861  157.0491   12.6908 C   0  0  0  0  0  0  0  0  0  0  0  0
   83.8203  157.0645   14.7870 C   0  0  0  0  0  0  0  0  0  0  0  0
   85.8267  156.3436   11.8908 O   0  0  0  0  0  0  0  0  0  0  0  0
   85.5251  158.4070   12.9024 N   0  0  0  0  0  0  0  0  0  0  0  0
   84.9195  157.9918   15.2572 C   0  0  0  0  0  0  0  0  0  0  0  0
   85.1512  158.9758   14.1643 C   0  0  0  0  0  0  0  0  0  0  0  0
   85.0408  160.2091   14.2891 O   0  0  0  0  0  0  0  0  0  0  0  0
   85.9946  158.9350   12.2167 H   0  0  0  0  0  0  0  0  0  0  0  0
   88.2290  147.2760    7.9455 C   0  0  0  0  0  0  0  0  0  0  0  0
   87.6370  147.8011    6.6733 C   0  0  0  0  0  0  0  0  0  0  0  0
   87.0801  146.8910    5.8136 O   0  0  0  0  0  0  0  0  0  0  0  0
   85.7721  146.5789    5.5515 C   0  0  0  0  0  0  0  0  0  0  0  0
   85.0689  147.4319    4.7075 C   0  0  0  0  0  0  0  0  0  0  0  0
   85.0793  145.5102    6.0385 C   0  0  0  0  0  0  0  0  0  0  0  0
   83.7572  147.2414    4.3628 C   0  0  0  0  0  0  0  0  0  0  0  0
   83.7525  145.2563    5.7317 C   0  0  0  0  0  0  0  0  0  0  0  0
   83.1064  146.1317    4.8924 C   0  0  0  0  0  0  0  0  0  0  0  0
  1  2  2  0
  1  3  2  0
  1  4  1  0
  1  5  1  0
  4  6  1  0
  4 12  1  0
  5  7  1  0
  6  8  1  0
 12 13  1  0
  7  9  1  0
  8  9  1  0
 13 14  2  0
 13 15  1  0
  9 10  1  0
 14 16  1  0
 15 17  2  0
 10 11  2  0
 10 32  1  0
 16 19  1  0
 16 18  2  0
 17 18  1  0
 32 33  1  0
 19 20  2  0
 19 21  1  0
 33 34  1  0
 21 22  1  0
 34 35  1  0
 23 21  1  0
 23 24  1  0
 23 25  1  0
 35 36  2  0
 35 37  1  0
 24 26  2  0
 24 27  1  0
 25 28  1  0
 36 38  1  0
 37 39  2  0
 27 29  1  0
 27 31  1  0
 28 29  1  0
 38 40  2  0
 39 40  1  0
 29 30  2  0
M  END
> <Molecule Name>
Compound 12

> <EC50 (µM) (Excel)>
61.9

> <Error (µM)>
8.1

> <HTRC CRBN-DDB1 EC50 (µM)>
61.88 ±  8.05

> <EC50 fitting (µM)>
111.51

> <Modèle Fitting>
4PL

> <Parent_Compound>
Compound 12

> <MMFF94s_energy_kcalmol>
156.552
$$$$

> <minimizedAffinity>
-7.34135

> <CNNscore>
0.4738577306

> <CNNaffinity>
6.7473721504

> <CNN_VS>
3.1972944736

> <CNNaffinity_variance>
0.0053972863

$$$$
Compound_12_ent1


 40 43  0  0  0  0  0  0  0  0999 V2000
   88.4908  149.4305   15.8833 S   0  0  0  0  0  0  0  0  0  0  0  0
   88.8326  149.7209   14.4527 O   0  0  0  0  0  0  0  0  0  0  0  0
   88.6438  150.7449   16.6366 O   0  0  0  0  0  0  0  0  0  0  0  0
   86.9311  148.7687   16.0808 N   0  0  0  0  0  0  0  0  0  0  0  0
   89.7701  148.3630   16.5171 C   0  0  0  0  0  0  0  0  0  0  0  0
   86.9274  147.4913   16.7603 C   0  0  0  0  0  0  0  0  0  0  0  0
   89.7701  148.3530   18.0330 C   0  0  0  0  0  0  0  0  0  0  0  0
   87.2940  147.7167   18.2344 C   0  0  0  0  0  0  0  0  0  0  0  0
   88.6937  147.4739   18.4587 N   0  0  0  0  0  0  0  0  0  0  0  0
   89.0431  146.2873   19.1460 C   0  0  0  0  0  0  0  0  0  0  0  0
   90.2631  146.0069   19.3809 O   0  0  0  0  0  0  0  0  0  0  0  0
   85.9493  149.6770   16.5721 C   0  0  0  0  0  0  0  0  0  0  0  0
   85.1728  150.3960   15.5613 C   0  0  0  0  0  0  0  0  0  0  0  0
   85.2554  151.7906   15.4438 C   0  0  0  0  0  0  0  0  0  0  0  0
   84.3557  149.6677   14.7269 C   0  0  0  0  0  0  0  0  0  0  0  0
   84.5328  152.4756   14.5029 C   0  0  0  0  0  0  0  0  0  0  0  0
   83.6277  150.3539   13.7795 C   0  0  0  0  0  0  0  0  0  0  0  0
   83.7060  151.7253   13.6607 C   0  0  0  0  0  0  0  0  0  0  0  0
   84.6045  153.9221   14.3635 C   0  0  0  0  0  0  0  0  0  0  0  0
   85.2477  154.6277   15.2182 O   0  0  0  0  0  0  0  0  0  0  0  0
   84.0005  154.6648   13.3199 N   0  0  0  0  0  0  0  0  0  0  0  0
   83.4917  154.1768   12.6327 H   0  0  0  0  0  0  0  0  0  0  0  0
   84.0939  156.1127   13.2122 C   0  0  0  0  0  0  0  0  0  0  0  0
   85.4135  156.5422   12.7093 C   0  0  0  0  0  0  0  0  0  0  0  0
   83.6353  156.8116   14.4487 C   0  0  0  0  0  0  0  0  0  0  0  0
   86.1400  155.7337   12.1039 O   0  0  0  0  0  0  0  0  0  0  0  0
   85.8294  157.8774   12.9284 N   0  0  0  0  0  0  0  0  0  0  0  0
   84.6919  157.6711   15.1074 C   0  0  0  0  0  0  0  0  0  0  0  0
   85.2489  158.5577   14.0491 C   0  0  0  0  0  0  0  0  0  0  0  0
   85.2347  159.8015   14.0900 O   0  0  0  0  0  0  0  0  0  0  0  0
   86.4850  158.3172   12.3402 H   0  0  0  0  0  0  0  0  0  0  0  0
   87.9929  145.3411   19.6096 C   0  0  0  0  0  0  0  0  0  0  0  0
   88.3150  144.9047   21.0061 C   0  0  0  0  0  0  0  0  0  0  0  0
   87.6821  145.5555   22.0325 O   0  0  0  0  0  0  0  0  0  0  0  0
   86.5149  146.2722   22.0643 C   0  0  0  0  0  0  0  0  0  0  0  0
   86.6149  147.6581   22.0043 C   0  0  0  0  0  0  0  0  0  0  0  0
   85.2526  145.7642   22.1522 C   0  0  0  0  0  0  0  0  0  0  0  0
   85.5315  148.4955   22.0290 C   0  0  0  0  0  0  0  0  0  0  0  0
   84.1131  146.5514   22.1815 C   0  0  0  0  0  0  0  0  0  0  0  0
   84.2703  147.9151   22.1190 C   0  0  0  0  0  0  0  0  0  0  0  0
  1  2  2  0
  1  3  2  0
  1  4  1  0
  1  5  1  0
  4  6  1  0
  4 12  1  0
  5  7  1  0
  6  8  1  0
 12 13  1  0
  7  9  1  0
  8  9  1  0
 13 14  2  0
 13 15  1  0
  9 10  1  0
 14 16  1  0
 15 17  2  0
 10 11  2  0
 10 32  1  0
 16 19  1  0
 16 18  2  0
 17 18  1  0
 32 33  1  0
 19 20  2  0
 19 21  1  0
 33 34  1  0
 21 22  1  0
 34 35  1  0
 23 21  1  0
 23 24  1  0
 23 25  1  0
 35 36  2  0
 35 37  1  0
 24 26  2  0
 24 27  1  0
 25 28  1  0
 36 38  1  0
 37 39  2  0
 27 29  1  0
 27 31  1  0
 28 29  1  0
 38 40  2  0
 39 40  1  0
 29 30  2  0
M  END
> <Molecule Name>
Compound 12

> <EC50 (µM) (Excel)>
61.9

> <Error (µM)>
8.1

> <HTRC CRBN-DDB1 EC50 (µM)>
61.88 ±  8.05

> <EC50 fitting (µM)>
111.51

> <Modèle Fitting>
4PL

> <Parent_Compound>
Compound 12

> <MMFF94s_energy_kcalmol>
156.552
$$$$

> <minimizedAffinity>
-7.42326

> <CNNscore>
0.4659686089

> <CNNaffinity>
6.9154419899

> <CNN_VS>
3.2223789692

> <CNNaffinity_variance>
0.4139321148

$$$$
Compound_12_ent1


 40 43  0  0  0  0  0  0  0  0999 V2000
   88.8469  149.0904   13.5283 S   0  0  0  0  0  0  0  0  0  0  0  0
   89.6850  149.6056   14.6596 O   0  0  0  0  0  0  0  0  0  0  0  0
   88.4397  147.6727   13.9065 O   0  0  0  0  0  0  0  0  0  0  0  0
   87.4895  150.0690   13.1975 N   0  0  0  0  0  0  0  0  0  0  0  0
   89.9247  148.9196   12.1186 C   0  0  0  0  0  0  0  0  0  0  0  0
   87.4383  150.5430   11.8314 C   0  0  0  0  0  0  0  0  0  0  0  0
   89.3071  148.0200   11.0663 C   0  0  0  0  0  0  0  0  0  0  0  0
   87.1235  149.3557   10.9097 C   0  0  0  0  0  0  0  0  0  0  0  0
   88.3280  148.8129   10.3414 N   0  0  0  0  0  0  0  0  0  0  0  0
   88.5732  149.0744    8.9725 C   0  0  0  0  0  0  0  0  0  0  0  0
   89.6194  148.6251    8.4016 O   0  0  0  0  0  0  0  0  0  0  0  0
   86.2469  149.5541   13.6677 C   0  0  0  0  0  0  0  0  0  0  0  0
   85.4181  150.4780   14.4432 C   0  0  0  0  0  0  0  0  0  0  0  0
   85.4668  151.8599   14.2122 C   0  0  0  0  0  0  0  0  0  0  0  0
   84.5881  149.9558   15.4088 C   0  0  0  0  0  0  0  0  0  0  0  0
   84.6973  152.7354   14.9320 C   0  0  0  0  0  0  0  0  0  0  0  0
   83.8129  150.8339   16.1345 C   0  0  0  0  0  0  0  0  0  0  0  0
   83.8578  152.1936   15.9104 C   0  0  0  0  0  0  0  0  0  0  0  0
   84.7319  154.1726   14.7077 C   0  0  0  0  0  0  0  0  0  0  0  0
   85.3937  154.9386   15.4933 O   0  0  0  0  0  0  0  0  0  0  0  0
   84.0700  154.8420   13.6496 N   0  0  0  0  0  0  0  0  0  0  0  0
   83.5445  154.3053   13.0131 H   0  0  0  0  0  0  0  0  0  0  0  0
   84.1274  156.2827   13.4559 C   0  0  0  0  0  0  0  0  0  0  0  0
   85.3975  156.7030   12.8322 C   0  0  0  0  0  0  0  0  0  0  0  0
   83.7488  157.0430   14.6833 C   0  0  0  0  0  0  0  0  0  0  0  0
   86.0922  155.8727   12.2190 O   0  0  0  0  0  0  0  0  0  0  0  0
   85.8029  158.0544   12.9458 N   0  0  0  0  0  0  0  0  0  0  0  0
   84.8350  157.9539   15.2123 C   0  0  0  0  0  0  0  0  0  0  0  0
   85.2945  158.7879   14.0680 C   0  0  0  0  0  0  0  0  0  0  0  0
   85.2597  160.0316   14.0415 O   0  0  0  0  0  0  0  0  0  0  0  0
   86.4044  158.4703   12.2866 H   0  0  0  0  0  0  0  0  0  0  0  0
   87.6142  149.8801    8.1698 C   0  0  0  0  0  0  0  0  0  0  0  0
   88.1582  150.0423    6.7833 C   0  0  0  0  0  0  0  0  0  0  0  0
   88.2635  151.3170    6.2918 O   0  0  0  0  0  0  0  0  0  0  0  0
   89.1637  152.3154    6.5558 C   0  0  0  0  0  0  0  0  0  0  0  0
   88.7095  153.4078    7.2870 C   0  0  0  0  0  0  0  0  0  0  0  0
   90.4712  152.3522    6.1705 C   0  0  0  0  0  0  0  0  0  0  0  0
   89.4999  154.4756    7.6200 C   0  0  0  0  0  0  0  0  0  0  0  0
   91.3269  153.3990    6.4722 C   0  0  0  0  0  0  0  0  0  0  0  0
   90.8253  154.4527    7.1976 C   0  0  0  0  0  0  0  0  0  0  0  0
  1  2  2  0
  1  3  2  0
  1  4  1  0
  1  5  1  0
  4  6  1  0
  4 12  1  0
  5  7  1  0
  6  8  1  0
 12 13  1  0
  7  9  1  0
  8  9  1  0
 13 14  2  0
 13 15  1  0
  9 10  1  0
 14 16  1  0
 15 17  2  0
 10 11  2  0
 10 32  1  0
 16 19  1  0
 16 18  2  0
 17 18  1  0
 32 33  1  0
 19 20  2  0
 19 21  1  0
 33 34  1  0
 21 22  1  0
 34 35  1  0
 23 21  1  0
 23 24  1  0
 23 25  1  0
 35 36  2  0
 35 37  1  0
 24 26  2  0
 24 27  1  0
 25 28  1  0
 36 38  1  0
 37 39  2  0
 27 29  1  0
 27 31  1  0
 28 29  1  0
 38 40  2  0
 39 40  1  0
 29 30  2  0
M  END
> <Molecule Name>
Compound 12

> <EC50 (µM) (Excel)>
61.9

> <Error (µM)>
8.1

> <HTRC CRBN-DDB1 EC50 (µM)>
61.88 ±  8.05

> <EC50 fitting (µM)>
111.51

> <Modèle Fitting>
4PL

> <Parent_Compound>
Compound 12

> <MMFF94s_energy_kcalmol>
156.552
$$$$

> <minimizedAffinity>
-8.00801

> <CNNscore>
0.4172029495

> <CNNaffinity>
6.4469966888

> <CNN_VS>
2.6897060871

> <CNNaffinity_variance>
0.4487299919

$$$$
