Compound_7_ent1


 36 38  0  0  0  0  0  0  0  0999 V2000
   86.8801  150.9519   12.4694 C   0  0  0  0  0  0  0  0  0  0  0  0
   86.2652  152.1383   12.7961 C   0  0  0  0  0  0  0  0  0  0  0  0
   87.8732  150.9794   11.5247 C   0  0  0  0  0  0  0  0  0  0  0  0
   86.5820  153.3394   12.2379 C   0  0  0  0  0  0  0  0  0  0  0  0
   88.2477  152.1693   10.9125 C   0  0  0  0  0  0  0  0  0  0  0  0
   87.5979  153.3195   11.2803 C   0  0  0  0  0  0  0  0  0  0  0  0
   85.9959  154.6237   12.5615 C   0  0  0  0  0  0  0  0  0  0  0  0
   86.6346  155.6859   12.4007 O   0  0  0  0  0  0  0  0  0  0  0  0
   84.6655  154.6957   13.0794 N   0  0  0  0  0  0  0  0  0  0  0  0
   84.1574  153.8626   13.2097 H   0  0  0  0  0  0  0  0  0  0  0  0
   84.0336  155.9796   13.4235 C   0  0  0  0  0  0  0  0  0  0  0  0
   84.3142  156.9776   12.3716 C   0  0  0  0  0  0  0  0  0  0  0  0
   84.3242  156.4100   14.8122 C   0  0  0  0  0  0  0  0  0  0  0  0
   84.1826  156.6124   11.1755 O   0  0  0  0  0  0  0  0  0  0  0  0
   84.7138  158.2895   12.6385 N   0  0  0  0  0  0  0  0  0  0  0  0
   85.3194  157.5389   14.9089 C   0  0  0  0  0  0  0  0  0  0  0  0
   85.0273  158.6486   13.9865 C   0  0  0  0  0  0  0  0  0  0  0  0
   85.0334  159.8658   14.2867 O   0  0  0  0  0  0  0  0  0  0  0  0
   84.7780  158.9527   11.9137 H   0  0  0  0  0  0  0  0  0  0  0  0
   86.4748  149.7070   13.1037 C   0  0  0  0  0  0  0  0  0  0  0  0
   86.0470  150.5403   15.6131 S   0  0  0  0  0  0  0  0  0  0  0  0
   87.4853  150.4027   15.9548 O   0  0  0  0  0  0  0  0  0  0  0  0
   85.2876  149.8718   16.7616 O   0  0  0  0  0  0  0  0  0  0  0  0
   85.5947  149.7934   14.1898 N   0  0  0  0  0  0  0  0  0  0  0  0
   85.5825  152.2621   15.6921 C   0  0  0  0  0  0  0  0  0  0  0  0
   84.2134  149.5995   13.9834 C   0  0  0  0  0  0  0  0  0  0  0  0
   84.0915  152.3996   15.9766 C   0  0  0  0  0  0  0  0  0  0  0  0
   83.5472  150.9622   13.8981 C   0  0  0  0  0  0  0  0  0  0  0  0
   83.3418  151.3838   15.2669 N   0  0  0  0  0  0  0  0  0  0  0  0
   82.3030  150.7155   15.9589 C   0  0  0  0  0  0  0  0  0  0  0  0
   81.5871  149.8222   15.4473 O   0  0  0  0  0  0  0  0  0  0  0  0
   82.0223  151.0355   17.2984 O   0  0  0  0  0  0  0  0  0  0  0  0
   81.9312  150.0251   18.2808 C   0  0  0  0  0  0  0  0  0  0  0  0
   80.5141  149.7999   18.7576 C   0  0  0  0  0  0  0  0  0  0  0  0
   82.5272  148.7273   17.7634 C   0  0  0  0  0  0  0  0  0  0  0  0
   82.8221  150.4858   19.4316 C   0  0  0  0  0  0  0  0  0  0  0  0
 21 22  2  0
 21 23  2  0
 21 24  1  0
 21 25  1  0
 24 26  1  0
 24 20  1  0
 25 27  1  0
 26 28  1  0
 20  1  1  0
 27 29  1  0
 28 29  1  0
  1  2  2  0
  1  3  1  0
 29 30  1  0
  2  4  1  0
  3  5  2  0
 30 31  2  0
 30 32  1  0
  4  7  1  0
  4  6  2  0
  5  6  1  0
 32 33  1  0
  7  8  2  0
  7  9  1  0
 33 34  1  0
 33 35  1  0
 33 36  1  0
  9 10  1  0
 11  9  1  0
 11 12  1  0
 11 13  1  0
 12 14  2  0
 12 15  1  0
 13 16  1  0
 15 17  1  0
 15 19  1  0
 16 17  1  0
 17 18  2  0
M  END
> <Molecule Name>
Compound 7

> <EC50 (µM) (Excel)>
4.1

> <Error (µM)>
0.2

> <HTRC CRBN-DDB1 EC50 (µM)>
4.06 ±  0.18

> <EC50 fitting (µM)>
3.77

> <Modèle Fitting>
4PL

> <Parent_Compound>
Compound 7

> <MMFF94s_energy_kcalmol>
145.431
$$$$
