Compound_4_s9


 31 34  0  0  0  0  0  0  0  0999 V2000
   84.1777  154.9178   14.4076 C   0  0  0  0  0  0  0  0  0  0  0  0
   84.9232  153.8052   14.7578 C   0  0  0  0  0  0  0  0  0  0  0  0
   82.8180  154.8771   14.1957 C   0  0  0  0  0  0  0  0  0  0  0  0
   84.3043  152.5966   14.9066 C   0  0  0  0  0  0  0  0  0  0  0  0
   82.1838  153.6454   14.3467 C   0  0  0  0  0  0  0  0  0  0  0  0
   82.9319  152.5450   14.6947 C   0  0  0  0  0  0  0  0  0  0  0  0
   84.6951  151.2032   15.2595 C   0  0  0  0  0  0  0  0  0  0  0  0
   82.5172  151.1340   14.9156 C   0  0  0  0  0  0  0  0  0  0  0  0
   83.7283  150.4659   14.4732 N   0  0  0  0  0  0  0  0  0  0  0  0
   84.1257  150.9616   16.6434 C   0  0  0  0  0  0  0  0  0  0  0  0
   82.6158  150.8964   16.4060 C   0  0  0  0  0  0  0  0  0  0  0  0
   83.8218  149.4252   13.5520 C   0  0  0  0  0  0  0  0  0  0  0  0
   84.5846  149.7736   17.1958 O   0  0  0  0  0  0  0  0  0  0  0  0
   81.9965  151.9382   17.0685 O   0  0  0  0  0  0  0  0  0  0  0  0
   84.9629  148.9303   13.2559 O   0  0  0  0  0  0  0  0  0  0  0  0
   84.3521  149.0346   16.6121 H   0  0  0  0  0  0  0  0  0  0  0  0
   82.3867  152.7796   16.7844 H   0  0  0  0  0  0  0  0  0  0  0  0
   85.1358  155.9251   11.9869 O   0  0  0  0  0  0  0  0  0  0  0  0
   85.0495  156.7021   12.9731 C   0  0  0  0  0  0  0  0  0  0  0  0
   84.8236  156.1688   14.2544 N   0  0  0  0  0  0  0  0  0  0  0  0
   85.1753  158.1130   12.8228 N   0  0  0  0  0  0  0  0  0  0  0  0
   85.2691  156.9328   15.4134 C   0  0  0  0  0  0  0  0  0  0  0  0
   85.0637  158.9077   13.9925 C   0  0  0  0  0  0  0  0  0  0  0  0
   84.6775  158.3237   15.3049 C   0  0  0  0  0  0  0  0  0  0  0  0
   85.2900  160.1407   13.9528 O   0  0  0  0  0  0  0  0  0  0  0  0
   85.3337  158.5209   11.9409 H   0  0  0  0  0  0  0  0  0  0  0  0
   82.7483  148.8516   12.8987 O   0  0  0  0  0  0  0  0  0  0  0  0
   81.9037  147.8895   13.4648 C   0  0  0  0  0  0  0  0  0  0  0  0
   81.5836  146.7589   12.5212 C   0  0  0  0  0  0  0  0  0  0  0  0
   82.6125  147.2889   14.6625 C   0  0  0  0  0  0  0  0  0  0  0  0
   80.5979  148.4744   13.9565 C   0  0  0  0  0  0  0  0  0  0  0  0
 18 19  2  0
 19 20  1  0
 19 21  1  0
 20  1  1  0
 20 22  1  0
 21 23  1  0
 21 26  1  0
  1  2  2  0
  1  3  1  0
 22 24  1  0
 23 25  2  0
 23 24  1  0
  2  4  1  0
  3  5  2  0
  4  6  2  0
  5  6  1  0
  7  4  1  0
  7  9  1  0
  7 10  1  0
  8  6  1  0
  8 11  1  0
  8  9  1  0
  9 12  1  0
 10 13  1  0
 10 11  1  0
 11 14  1  0
 12 15  2  0
 12 27  1  0
 13 16  1  0
 14 17  1  0
 27 28  1  0
 28 29  1  0
 28 30  1  0
 28 31  1  0
M  END
> <Molecule Name>
Compound 4

> <EC50 (µM) (Excel)>
11.8

> <Error (µM)>
7.4

> <HTRC CRBN-DDB1 EC50 (µM)>
11.78 ±  7.41

> <EC50 fitting (µM)>
15.10

> <Modèle Fitting>
4PL

> <Parent_Compound>
Compound 4

> <MMFF94s_energy_kcalmol>
153.088
$$$$

> <minimizedAffinity>
-8.69454

> <CNNscore>
0.8843896389

> <CNNaffinity>
7.2122654915

> <CNN_VS>
6.3784527779

> <CNNaffinity_variance>
0.4899530411

$$$$
Compound_4_s9


 31 34  0  0  0  0  0  0  0  0999 V2000
   84.5399  154.5197   14.2650 C   0  0  0  0  0  0  0  0  0  0  0  0
   84.5719  153.8370   15.4688 C   0  0  0  0  0  0  0  0  0  0  0  0
   83.9770  154.0020   13.1203 C   0  0  0  0  0  0  0  0  0  0  0  0
   84.0256  152.5878   15.5520 C   0  0  0  0  0  0  0  0  0  0  0  0
   83.4190  152.7276   13.2020 C   0  0  0  0  0  0  0  0  0  0  0  0
   83.4550  152.0562   14.4017 C   0  0  0  0  0  0  0  0  0  0  0  0
   83.8430  151.5405   16.5953 C   0  0  0  0  0  0  0  0  0  0  0  0
   82.9449  150.7063   14.7613 C   0  0  0  0  0  0  0  0  0  0  0  0
   83.9245  150.3516   15.7729 N   0  0  0  0  0  0  0  0  0  0  0  0
   82.3585  151.5293   16.9017 C   0  0  0  0  0  0  0  0  0  0  0  0
   81.7337  150.9356   15.6377 C   0  0  0  0  0  0  0  0  0  0  0  0
   84.6722  149.1782   15.8394 C   0  0  0  0  0  0  0  0  0  0  0  0
   82.0604  150.7454   18.0079 O   0  0  0  0  0  0  0  0  0  0  0  0
   80.9173  151.8748   15.0385 O   0  0  0  0  0  0  0  0  0  0  0  0
   85.5038  148.9999   16.7940 O   0  0  0  0  0  0  0  0  0  0  0  0
   82.3703  149.8390   17.8549 H   0  0  0  0  0  0  0  0  0  0  0  0
   81.4267  152.6817   14.8639 H   0  0  0  0  0  0  0  0  0  0  0  0
   86.0728  155.4507   12.1260 O   0  0  0  0  0  0  0  0  0  0  0  0
   85.6501  156.2801   12.9728 C   0  0  0  0  0  0  0  0  0  0  0  0
   85.1074  155.8146   14.1836 N   0  0  0  0  0  0  0  0  0  0  0  0
   85.7081  157.6832   12.7342 N   0  0  0  0  0  0  0  0  0  0  0  0
   85.1443  156.6948   15.3453 C   0  0  0  0  0  0  0  0  0  0  0  0
   85.2074  158.5401   13.7478 C   0  0  0  0  0  0  0  0  0  0  0  0
   84.5066  158.0107   14.9482 C   0  0  0  0  0  0  0  0  0  0  0  0
   85.3430  159.7838   13.6594 O   0  0  0  0  0  0  0  0  0  0  0  0
   86.0814  158.0444   11.8979 H   0  0  0  0  0  0  0  0  0  0  0  0
   84.5961  148.1420   14.9290 O   0  0  0  0  0  0  0  0  0  0  0  0
   85.5312  147.9160   13.9122 C   0  0  0  0  0  0  0  0  0  0  0  0
   85.2674  146.6483   13.1412 C   0  0  0  0  0  0  0  0  0  0  0  0
   85.4436  149.0667   12.9295 C   0  0  0  0  0  0  0  0  0  0  0  0
   86.9533  147.8653   14.4263 C   0  0  0  0  0  0  0  0  0  0  0  0
 18 19  2  0
 19 20  1  0
 19 21  1  0
 20  1  1  0
 20 22  1  0
 21 23  1  0
 21 26  1  0
  1  2  2  0
  1  3  1  0
 22 24  1  0
 23 25  2  0
 23 24  1  0
  2  4  1  0
  3  5  2  0
  4  6  2  0
  5  6  1  0
  7  4  1  0
  7  9  1  0
  7 10  1  0
  8  6  1  0
  8 11  1  0
  8  9  1  0
  9 12  1  0
 10 13  1  0
 10 11  1  0
 11 14  1  0
 12 15  2  0
 12 27  1  0
 13 16  1  0
 14 17  1  0
 27 28  1  0
 28 29  1  0
 28 30  1  0
 28 31  1  0
M  END
> <Molecule Name>
Compound 4

> <EC50 (µM) (Excel)>
11.8

> <Error (µM)>
7.4

> <HTRC CRBN-DDB1 EC50 (µM)>
11.78 ±  7.41

> <EC50 fitting (µM)>
15.10

> <Modèle Fitting>
4PL

> <Parent_Compound>
Compound 4

> <MMFF94s_energy_kcalmol>
153.088
$$$$

> <minimizedAffinity>
-8.44791

> <CNNscore>
0.8687278032

> <CNNaffinity>
7.2623982430

> <CNN_VS>
6.3090472221

> <CNNaffinity_variance>
0.5641877055

$$$$
Compound_4_s9


 31 34  0  0  0  0  0  0  0  0999 V2000
   84.6480  154.4910   14.2417 C   0  0  0  0  0  0  0  0  0  0  0  0
   84.7141  153.7915   15.4344 C   0  0  0  0  0  0  0  0  0  0  0  0
   84.0944  153.9713   13.0935 C   0  0  0  0  0  0  0  0  0  0  0  0
   84.2130  152.5226   15.5023 C   0  0  0  0  0  0  0  0  0  0  0  0
   83.5825  152.6768   13.1595 C   0  0  0  0  0  0  0  0  0  0  0  0
   83.6521  151.9887   14.3483 C   0  0  0  0  0  0  0  0  0  0  0  0
   84.0762  151.4536   16.5306 C   0  0  0  0  0  0  0  0  0  0  0  0
   83.1930  150.6163   14.6907 C   0  0  0  0  0  0  0  0  0  0  0  0
   84.1929  150.2811   15.6890 N   0  0  0  0  0  0  0  0  0  0  0  0
   82.5956  151.3851   16.8481 C   0  0  0  0  0  0  0  0  0  0  0  0
   81.9818  150.7890   15.5799 C   0  0  0  0  0  0  0  0  0  0  0  0
   84.9822  149.1341   15.7315 C   0  0  0  0  0  0  0  0  0  0  0  0
   82.3345  150.5742   17.9442 O   0  0  0  0  0  0  0  0  0  0  0  0
   81.1278  151.7077   15.0016 O   0  0  0  0  0  0  0  0  0  0  0  0
   85.8274  148.9709   16.6768 O   0  0  0  0  0  0  0  0  0  0  0  0
   82.6750  149.6819   17.7747 H   0  0  0  0  0  0  0  0  0  0  0  0
   81.6068  152.5347   14.8358 H   0  0  0  0  0  0  0  0  0  0  0  0
   86.1623  155.4963   12.1231 O   0  0  0  0  0  0  0  0  0  0  0  0
   85.7033  156.3022   12.9738 C   0  0  0  0  0  0  0  0  0  0  0  0
   85.1687  155.8064   14.1762 N   0  0  0  0  0  0  0  0  0  0  0  0
   85.7121  157.7086   12.7480 N   0  0  0  0  0  0  0  0  0  0  0  0
   85.1647  156.6768   15.3458 C   0  0  0  0  0  0  0  0  0  0  0  0
   85.1728  158.5375   13.7650 C   0  0  0  0  0  0  0  0  0  0  0  0
   84.4826  157.9722   14.9551 C   0  0  0  0  0  0  0  0  0  0  0  0
   85.2638  159.7861   13.6886 O   0  0  0  0  0  0  0  0  0  0  0  0
   86.0783  158.0907   11.9179 H   0  0  0  0  0  0  0  0  0  0  0  0
   84.9353  148.1100   14.8057 O   0  0  0  0  0  0  0  0  0  0  0  0
   84.0182  147.0532   14.8453 C   0  0  0  0  0  0  0  0  0  0  0  0
   84.6738  145.7006   14.7373 C   0  0  0  0  0  0  0  0  0  0  0  0
   83.3036  147.1015   16.1812 C   0  0  0  0  0  0  0  0  0  0  0  0
   82.9652  147.1521   13.7634 C   0  0  0  0  0  0  0  0  0  0  0  0
 18 19  2  0
 19 20  1  0
 19 21  1  0
 20  1  1  0
 20 22  1  0
 21 23  1  0
 21 26  1  0
  1  2  2  0
  1  3  1  0
 22 24  1  0
 23 25  2  0
 23 24  1  0
  2  4  1  0
  3  5  2  0
  4  6  2  0
  5  6  1  0
  7  4  1  0
  7  9  1  0
  7 10  1  0
  8  6  1  0
  8 11  1  0
  8  9  1  0
  9 12  1  0
 10 13  1  0
 10 11  1  0
 11 14  1  0
 12 15  2  0
 12 27  1  0
 13 16  1  0
 14 17  1  0
 27 28  1  0
 28 29  1  0
 28 30  1  0
 28 31  1  0
M  END
> <Molecule Name>
Compound 4

> <EC50 (µM) (Excel)>
11.8

> <Error (µM)>
7.4

> <HTRC CRBN-DDB1 EC50 (µM)>
11.78 ±  7.41

> <EC50 fitting (µM)>
15.10

> <Modèle Fitting>
4PL

> <Parent_Compound>
Compound 4

> <MMFF94s_energy_kcalmol>
153.088
$$$$

> <minimizedAffinity>
-8.20581

> <CNNscore>
0.8606891632

> <CNNaffinity>
7.2939281464

> <CNN_VS>
6.2778048515

> <CNNaffinity_variance>
1.0086970329

$$$$
Compound_4_s9


 31 34  0  0  0  0  0  0  0  0999 V2000
   84.6212  154.0351   14.3308 C   0  0  0  0  0  0  0  0  0  0  0  0
   83.3383  153.8904   14.8301 C   0  0  0  0  0  0  0  0  0  0  0  0
   85.4350  152.9679   14.0245 C   0  0  0  0  0  0  0  0  0  0  0  0
   82.8313  152.6392   15.0382 C   0  0  0  0  0  0  0  0  0  0  0  0
   84.9206  151.6901   14.2358 C   0  0  0  0  0  0  0  0  0  0  0  0
   83.6451  151.5551   14.7322 C   0  0  0  0  0  0  0  0  0  0  0  0
   81.5601  152.0421   15.5348 C   0  0  0  0  0  0  0  0  0  0  0  0
   82.8638  150.3301   15.0495 C   0  0  0  0  0  0  0  0  0  0  0  0
   82.0749  150.8402   16.1568 N   0  0  0  0  0  0  0  0  0  0  0  0
   80.8990  151.4278   14.3168 C   0  0  0  0  0  0  0  0  0  0  0  0
   81.7917  150.2298   13.9875 C   0  0  0  0  0  0  0  0  0  0  0  0
   81.9244  150.2610   17.4147 C   0  0  0  0  0  0  0  0  0  0  0  0
   79.6017  151.0113   14.5823 O   0  0  0  0  0  0  0  0  0  0  0  0
   82.3708  150.4099   12.7466 O   0  0  0  0  0  0  0  0  0  0  0  0
   81.1933  150.8258   18.2985 O   0  0  0  0  0  0  0  0  0  0  0  0
   79.6106  150.3692   15.3093 H   0  0  0  0  0  0  0  0  0  0  0  0
   82.8509  151.2527   12.7330 H   0  0  0  0  0  0  0  0  0  0  0  0
   85.9266  154.8594   12.0051 O   0  0  0  0  0  0  0  0  0  0  0  0
   85.5597  155.7324   12.8341 C   0  0  0  0  0  0  0  0  0  0  0  0
   85.1426  155.3343   14.1166 N   0  0  0  0  0  0  0  0  0  0  0  0
   85.5565  157.1180   12.5041 N   0  0  0  0  0  0  0  0  0  0  0  0
   85.2604  156.2883   15.2127 C   0  0  0  0  0  0  0  0  0  0  0  0
   85.1263  158.0274   13.5042 C   0  0  0  0  0  0  0  0  0  0  0  0
   84.5526  157.5614   14.7950 C   0  0  0  0  0  0  0  0  0  0  0  0
   85.2185  159.2655   13.3262 O   0  0  0  0  0  0  0  0  0  0  0  0
   85.8419  157.4326   11.6159 H   0  0  0  0  0  0  0  0  0  0  0  0
   82.5182  149.0797   17.8149 O   0  0  0  0  0  0  0  0  0  0  0  0
   83.0493  148.8573   19.0908 C   0  0  0  0  0  0  0  0  0  0  0  0
   82.1804  147.9689   19.9434 C   0  0  0  0  0  0  0  0  0  0  0  0
   84.3845  148.1586   18.9283 C   0  0  0  0  0  0  0  0  0  0  0  0
   83.2983  150.1407   19.8524 C   0  0  0  0  0  0  0  0  0  0  0  0
 18 19  2  0
 19 20  1  0
 19 21  1  0
 20  1  1  0
 20 22  1  0
 21 23  1  0
 21 26  1  0
  1  2  2  0
  1  3  1  0
 22 24  1  0
 23 25  2  0
 23 24  1  0
  2  4  1  0
  3  5  2  0
  4  6  2  0
  5  6  1  0
  7  4  1  0
  7  9  1  0
  7 10  1  0
  8  6  1  0
  8 11  1  0
  8  9  1  0
  9 12  1  0
 10 13  1  0
 10 11  1  0
 11 14  1  0
 12 15  2  0
 12 27  1  0
 13 16  1  0
 14 17  1  0
 27 28  1  0
 28 29  1  0
 28 30  1  0
 28 31  1  0
M  END
> <Molecule Name>
Compound 4

> <EC50 (µM) (Excel)>
11.8

> <Error (µM)>
7.4

> <HTRC CRBN-DDB1 EC50 (µM)>
11.78 ±  7.41

> <EC50 fitting (µM)>
15.10

> <Modèle Fitting>
4PL

> <Parent_Compound>
Compound 4

> <MMFF94s_energy_kcalmol>
153.088
$$$$

> <minimizedAffinity>
-8.46761

> <CNNscore>
0.7862367630

> <CNNaffinity>
7.0229849815

> <CNN_VS>
5.5217289925

> <CNNaffinity_variance>
0.2155491114

$$$$
Compound_4_s9


 31 34  0  0  0  0  0  0  0  0999 V2000
   84.5452  154.0577   14.9269 C   0  0  0  0  0  0  0  0  0  0  0  0
   83.2422  153.6827   14.6481 C   0  0  0  0  0  0  0  0  0  0  0  0
   85.4023  153.2944   15.6870 C   0  0  0  0  0  0  0  0  0  0  0  0
   82.7587  152.5031   15.1388 C   0  0  0  0  0  0  0  0  0  0  0  0
   84.9120  152.0905   16.1892 C   0  0  0  0  0  0  0  0  0  0  0  0
   83.6162  151.7254   15.9076 C   0  0  0  0  0  0  0  0  0  0  0  0
   81.4811  151.7389   15.0894 C   0  0  0  0  0  0  0  0  0  0  0  0
   82.8508  150.5161   16.3120 C   0  0  0  0  0  0  0  0  0  0  0  0
   81.5227  151.0985   16.3873 N   0  0  0  0  0  0  0  0  0  0  0  0
   81.7628  150.5367   14.2101 C   0  0  0  0  0  0  0  0  0  0  0  0
   82.6997  149.6782   15.0620 C   0  0  0  0  0  0  0  0  0  0  0  0
   80.6271  151.0067   17.4503 C   0  0  0  0  0  0  0  0  0  0  0  0
   80.6057  149.8354   13.8995 O   0  0  0  0  0  0  0  0  0  0  0  0
   83.9283  149.5745   14.4398 O   0  0  0  0  0  0  0  0  0  0  0  0
   79.4837  151.5741   17.3774 O   0  0  0  0  0  0  0  0  0  0  0  0
   80.1721  149.5483   14.7183 H   0  0  0  0  0  0  0  0  0  0  0  0
   84.2807  150.4622   14.2700 H   0  0  0  0  0  0  0  0  0  0  0  0
   85.6984  154.3745   12.4046 O   0  0  0  0  0  0  0  0  0  0  0  0
   85.3763  155.4024   13.0554 C   0  0  0  0  0  0  0  0  0  0  0  0
   85.0421  155.2814   14.4158 N   0  0  0  0  0  0  0  0  0  0  0  0
   85.3418  156.6893   12.4457 N   0  0  0  0  0  0  0  0  0  0  0  0
   85.2195  156.4417   15.2806 C   0  0  0  0  0  0  0  0  0  0  0  0
   84.9668  157.7887   13.2600 C   0  0  0  0  0  0  0  0  0  0  0  0
   84.4773  157.6039   14.6523 C   0  0  0  0  0  0  0  0  0  0  0  0
   85.0380  158.9624   12.8235 O   0  0  0  0  0  0  0  0  0  0  0  0
   85.5695  156.8111   11.4957 H   0  0  0  0  0  0  0  0  0  0  0  0
   80.8697  150.3295   18.6295 O   0  0  0  0  0  0  0  0  0  0  0  0
   80.2530  149.1251   18.9879 C   0  0  0  0  0  0  0  0  0  0  0  0
   80.2821  148.0980   17.8855 C   0  0  0  0  0  0  0  0  0  0  0  0
   81.0091  148.5426   20.1654 C   0  0  0  0  0  0  0  0  0  0  0  0
   78.8146  149.3102   19.4188 C   0  0  0  0  0  0  0  0  0  0  0  0
 18 19  2  0
 19 20  1  0
 19 21  1  0
 20  1  1  0
 20 22  1  0
 21 23  1  0
 21 26  1  0
  1  2  2  0
  1  3  1  0
 22 24  1  0
 23 25  2  0
 23 24  1  0
  2  4  1  0
  3  5  2  0
  4  6  2  0
  5  6  1  0
  7  4  1  0
  7  9  1  0
  7 10  1  0
  8  6  1  0
  8 11  1  0
  8  9  1  0
  9 12  1  0
 10 13  1  0
 10 11  1  0
 11 14  1  0
 12 15  2  0
 12 27  1  0
 13 16  1  0
 14 17  1  0
 27 28  1  0
 28 29  1  0
 28 30  1  0
 28 31  1  0
M  END
> <Molecule Name>
Compound 4

> <EC50 (µM) (Excel)>
11.8

> <Error (µM)>
7.4

> <HTRC CRBN-DDB1 EC50 (µM)>
11.78 ±  7.41

> <EC50 fitting (µM)>
15.10

> <Modèle Fitting>
4PL

> <Parent_Compound>
Compound 4

> <MMFF94s_energy_kcalmol>
153.088
$$$$

> <minimizedAffinity>
-8.30213

> <CNNscore>
0.7399325967

> <CNNaffinity>
6.5590529442

> <CNN_VS>
4.8532571793

> <CNNaffinity_variance>
0.0879490003

$$$$
