Compound_8_ent2
 OpenBabel09072607323D

 52 53  0  0  0  0  0  0  0  0999 V2000
    0.6828    0.0000    0.0000 Cl  0  0  0  0  0  0  0  0  0  0  0  0
    4.5250    0.7152    0.3485 S   0  0  0  0  0  0  0  0  0  0  0  0
    4.3619   -0.5604    1.1004 O   0  0  0  0  0  0  0  0  0  0  0  0
    4.7718    1.8909    1.2534 O   0  0  0  0  0  0  0  0  0  0  0  0
    3.1415    0.9640   -0.6156 N   0  0  0  0  0  0  0  0  0  0  0  0
    5.9178    0.4913   -0.7666 C   0  0  0  0  0  0  0  0  0  0  0  0
    3.4156    1.4161   -1.9417 C   0  0  0  0  0  0  0  0  0  0  0  0
    2.2831    1.9342    0.0347 C   0  0  0  0  0  0  0  0  0  0  0  0
    5.6931   -0.7851   -1.5475 C   0  0  0  0  0  0  0  0  0  0  0  0
    4.0228    0.3596   -2.8271 C   0  0  0  0  0  0  0  0  0  0  0  0
    1.2807    1.3148    0.9296 C   0  0  0  0  0  0  0  0  0  0  0  0
    4.3373   -0.8219   -2.0528 N   0  3  0  0  0  0  0  0  0  0  0  0
    0.0656    0.9752    0.3860 C   0  0  0  0  0  0  0  0  0  0  0  0
    1.5289    1.0796    2.2482 C   0  0  0  0  0  0  0  0  0  0  0  0
   -0.9154    0.3993    1.1435 C   0  0  0  0  0  0  0  0  0  0  0  0
    0.5309    0.4964    3.0081 C   0  0  0  0  0  0  0  0  0  0  0  0
   -2.1982    0.0550    0.5157 C   0  0  0  0  0  0  0  0  0  0  0  0
   -0.6978    0.1524    2.4610 C   0  0  0  0  0  0  0  0  0  0  0  0
   -2.3491    0.3092   -0.7275 O   0  0  0  0  0  0  0  0  0  0  0  0
   -3.2781   -0.5349    1.1780 N   0  0  0  0  0  0  0  0  0  0  0  0
   -4.4925   -0.8284    0.4549 C   0  0  1  0  0  0  0  0  0  0  0  0
   -4.8058   -2.2784    0.4552 C   0  0  0  0  0  0  0  0  0  0  0  0
   -5.6877   -0.1057    1.0223 C   0  0  0  0  0  0  0  0  0  0  0  0
   -4.0066   -3.1829    0.8038 O   0  0  0  0  0  0  0  0  0  0  0  0
   -6.1064   -2.6491    0.0277 N   0  0  0  0  0  0  0  0  0  0  0  0
   -6.7992   -0.2241   -0.0241 C   0  0  0  0  0  0  0  0  0  0  0  0
   -7.0105   -1.6412   -0.4052 C   0  0  0  0  0  0  0  0  0  0  0  0
   -7.9983   -1.9229   -1.1123 O   0  0  0  0  0  0  0  0  0  0  0  0
    1.9108    0.0000    0.0000 H   0  0  0  0  0  0  0  0  0  0  0  0
    6.8249    0.4175   -0.2039 H   0  0  0  0  0  0  0  0  0  0  0  0
    5.9975    1.3248   -1.4328 H   0  0  0  0  0  0  0  0  0  0  0  0
    4.0954    2.2404   -1.8840 H   0  0  0  0  0  0  0  0  0  0  0  0
    2.4784    1.6904   -2.3790 H   0  0  0  0  0  0  0  0  0  0  0  0
    1.7680    2.4924   -0.7190 H   0  0  0  0  0  0  0  0  0  0  0  0
    2.9077    2.5584    0.6389 H   0  0  0  0  0  0  0  0  0  0  0  0
    5.8557   -1.6263   -0.9065 H   0  0  0  0  0  0  0  0  0  0  0  0
    6.3764   -0.8194   -2.3702 H   0  0  0  0  0  0  0  0  0  0  0  0
    4.9194    0.7415   -3.2690 H   0  0  0  0  0  0  0  0  0  0  0  0
    3.3207    0.0992   -3.5914 H   0  0  0  0  0  0  0  0  0  0  0  0
    3.6923   -0.8822   -1.2649 H   0  0  0  0  0  0  0  0  0  0  0  0
    4.2468   -1.6349   -2.6621 H   0  0  0  0  0  0  0  0  0  0  0  0
   -0.1099    1.1586   -0.6143 H   0  0  0  0  0  0  0  0  0  0  0  0
    2.4373    1.3299    2.6691 H   0  0  0  0  0  0  0  0  0  0  0  0
    0.7044    0.3121    4.0086 H   0  0  0  0  0  0  0  0  0  0  0  0
   -1.4306   -0.2820    3.0435 H   0  0  0  0  0  0  0  0  0  0  0  0
   -3.2108   -0.7500    2.1364 H   0  0  0  0  0  0  0  0  0  0  0  0
   -4.3072   -0.4929   -0.5441 H   0  0  0  0  0  0  0  0  0  0  0  0
   -5.4504    0.9231    1.1957 H   0  0  0  0  0  0  0  0  0  0  0  0
   -5.9887   -0.5278    1.9583 H   0  0  0  0  0  0  0  0  0  0  0  0
   -6.3802   -3.5948    0.0308 H   0  0  0  0  0  0  0  0  0  0  0  0
   -6.5246    0.3363   -0.8933 H   0  0  0  0  0  0  0  0  0  0  0  0
   -7.7069    0.1593    0.3930 H   0  0  0  0  0  0  0  0  0  0  0  0
  1 29  1  0  0  0  0
  2  3  2  0  0  0  0
  2  4  2  0  0  0  0
  2  5  1  0  0  0  0
  2  6  1  0  0  0  0
  5  7  1  0  0  0  0
  5  8  1  0  0  0  0
  6  9  1  0  0  0  0
  6 30  1  0  0  0  0
  6 31  1  0  0  0  0
  7 10  1  0  0  0  0
  7 32  1  0  0  0  0
  7 33  1  0  0  0  0
  8 11  1  0  0  0  0
  8 34  1  0  0  0  0
  8 35  1  0  0  0  0
  9 12  1  0  0  0  0
  9 36  1  0  0  0  0
  9 37  1  0  0  0  0
 10 12  1  0  0  0  0
 10 38  1  0  0  0  0
 10 39  1  0  0  0  0
 11 13  2  0  0  0  0
 11 14  1  0  0  0  0
 12 40  1  0  0  0  0
 12 41  1  0  0  0  0
 13 15  1  0  0  0  0
 13 42  1  0  0  0  0
 14 16  2  0  0  0  0
 14 43  1  0  0  0  0
 15 17  1  0  0  0  0
 15 18  2  0  0  0  0
 16 18  1  0  0  0  0
 16 44  1  0  0  0  0
 17 19  2  0  0  0  0
 17 20  1  0  0  0  0
 18 45  1  0  0  0  0
 20 46  1  0  0  0  0
 21 20  1  0  0  0  0
 21 22  1  0  0  0  0
 21 23  1  0  0  0  0
 21 47  1  6  0  0  0
 22 24  2  0  0  0  0
 22 25  1  0  0  0  0
 23 26  1  0  0  0  0
 23 48  1  0  0  0  0
 23 49  1  0  0  0  0
 25 27  1  0  0  0  0
 25 50  1  0  0  0  0
 26 27  1  0  0  0  0
 26 51  1  0  0  0  0
 26 52  1  0  0  0  0
 27 28  2  0  0  0  0
M  CHG  1  12   1
M  END
>  <Molecule Name>
Compound 8

>  <EC50 (µM) (Excel)>
6.8

>  <Error (µM)>
1.0

>  <HTRC CRBN-DDB1 EC50 (µM)>
6.77 ±  1.02

>  <EC50 fitting (µM)>
7.19

>  <Modèle Fitting>
4PL

>  <Parent_Compound>
Compound 8

>  <MMFF94s_energy_kcalmol>
109.581
$$$$
