Compound_12_ent2


 40 43  0  0  0  0  0  0  0  0999 V2000
   83.4478  148.8967   19.1862 S   0  0  0  0  0  0  0  0  0  0  0  0
   82.8524  150.0611   19.9081 O   0  0  0  0  0  0  0  0  0  0  0  0
   82.3372  147.8679   19.0162 O   0  0  0  0  0  0  0  0  0  0  0  0
   84.0947  149.2817   17.6626 N   0  0  0  0  0  0  0  0  0  0  0  0
   84.6429  148.1446   20.2639 C   0  0  0  0  0  0  0  0  0  0  0  0
   85.4697  148.9336   17.4803 C   0  0  0  0  0  0  0  0  0  0  0  0
   84.9898  146.7447   19.8183 C   0  0  0  0  0  0  0  0  0  0  0  0
   85.6920  147.4183   17.4289 C   0  0  0  0  0  0  0  0  0  0  0  0
   85.9267  146.8499   18.7185 N   0  0  0  0  0  0  0  0  0  0  0  0
   87.2077  146.3120   18.9995 C   0  0  0  0  0  0  0  0  0  0  0  0
   87.5024  145.7901   20.0994 O   0  0  0  0  0  0  0  0  0  0  0  0
   83.2729  148.9266   16.5404 C   0  0  0  0  0  0  0  0  0  0  0  0
   83.1897  149.9872   15.4999 C   0  0  0  0  0  0  0  0  0  0  0  0
   83.8571  151.1712   15.6548 C   0  0  0  0  0  0  0  0  0  0  0  0
   82.4266  149.7451   14.3851 C   0  0  0  0  0  0  0  0  0  0  0  0
   83.7563  152.1396   14.6640 C   0  0  0  0  0  0  0  0  0  0  0  0
   82.3471  150.7252   13.4214 C   0  0  0  0  0  0  0  0  0  0  0  0
   82.9982  151.9279   13.5324 C   0  0  0  0  0  0  0  0  0  0  0  0
   84.4818  153.3829   14.8670 C   0  0  0  0  0  0  0  0  0  0  0  0
   85.2304  153.5059   15.8874 O   0  0  0  0  0  0  0  0  0  0  0  0
   84.4314  154.5080   14.0061 N   0  0  0  0  0  0  0  0  0  0  0  0
   83.8688  154.4742   13.1990 H   0  0  0  0  0  0  0  0  0  0  0  0
   85.2040  155.7239   14.2969 C   0  0  0  0  0  0  0  0  0  0  0  0
   85.6988  156.2867   13.0363 C   0  0  0  0  0  0  0  0  0  0  0  0
   84.2068  156.7133   14.8930 C   0  0  0  0  0  0  0  0  0  0  0  0
   86.2693  155.5004   12.2301 O   0  0  0  0  0  0  0  0  0  0  0  0
   85.5360  157.6747   12.7415 N   0  0  0  0  0  0  0  0  0  0  0  0
   84.8299  158.0663   15.1136 C   0  0  0  0  0  0  0  0  0  0  0  0
   85.1891  158.6119   13.7779 C   0  0  0  0  0  0  0  0  0  0  0  0
   85.1901  159.8480   13.5605 O   0  0  0  0  0  0  0  0  0  0  0  0
   85.6625  157.9943   11.8190 H   0  0  0  0  0  0  0  0  0  0  0  0
   88.2450  146.3723   17.9388 C   0  0  0  0  0  0  0  0  0  0  0  0
   89.2768  147.3991   18.3534 C   0  0  0  0  0  0  0  0  0  0  0  0
   88.9813  148.7001   18.0504 O   0  0  0  0  0  0  0  0  0  0  0  0
   89.7834  149.7919   17.8933 C   0  0  0  0  0  0  0  0  0  0  0  0
   90.1797  150.0954   16.5782 C   0  0  0  0  0  0  0  0  0  0  0  0
   90.2319  150.6061   18.8986 C   0  0  0  0  0  0  0  0  0  0  0  0
   90.9862  151.1649   16.2905 C   0  0  0  0  0  0  0  0  0  0  0  0
   91.0501  151.6986   18.6429 C   0  0  0  0  0  0  0  0  0  0  0  0
   91.4064  151.9484   17.3356 C   0  0  0  0  0  0  0  0  0  0  0  0
  1  2  2  0
  1  3  2  0
  1  4  1  0
  1  5  1  0
  4  6  1  0
  4 12  1  0
  5  7  1  0
  6  8  1  0
 12 13  1  0
  7  9  1  0
  8  9  1  0
 13 14  2  0
 13 15  1  0
  9 10  1  0
 14 16  1  0
 15 17  2  0
 10 11  2  0
 10 32  1  0
 16 19  1  0
 16 18  2  0
 17 18  1  0
 32 33  1  0
 19 20  2  0
 19 21  1  0
 33 34  1  0
 21 22  1  0
 34 35  1  0
 23 21  1  0
 23 24  1  0
 23 25  1  0
 35 36  2  0
 35 37  1  0
 24 26  2  0
 24 27  1  0
 25 28  1  0
 36 38  1  0
 37 39  2  0
 27 29  1  0
 27 31  1  0
 28 29  1  0
 38 40  2  0
 39 40  1  0
 29 30  2  0
M  END
> <Molecule Name>
Compound 12

> <EC50 (µM) (Excel)>
61.9

> <Error (µM)>
8.1

> <HTRC CRBN-DDB1 EC50 (µM)>
61.88 ±  8.05

> <EC50 fitting (µM)>
111.51

> <Modèle Fitting>
4PL

> <Parent_Compound>
Compound 12

> <MMFF94s_energy_kcalmol>
147.331
$$$$
