Compound_9_ent1


 36 38  0  0  0  0  0  0  0  0999 V2000
   80.8721  150.2191   17.1834 C   0  0  0  0  0  0  0  0  0  0  0  0
   79.6077  150.7372   17.3568 C   0  0  0  0  0  0  0  0  0  0  0  0
   80.9259  148.8824   16.7715 C   0  0  0  0  0  0  0  0  0  0  0  0
   78.4695  149.9905   17.1391 C   0  0  0  0  0  0  0  0  0  0  0  0
   79.8100  148.1304   16.5522 C   0  0  0  0  0  0  0  0  0  0  0  0
   78.5364  148.6828   16.7362 C   0  0  0  0  0  0  0  0  0  0  0  0
   77.1720  150.6067   17.3424 C   0  0  0  0  0  0  0  0  0  0  0  0
   76.2841  150.6056   16.4269 O   0  0  0  0  0  0  0  0  0  0  0  0
   76.7826  151.2489   18.5469 N   0  0  0  0  0  0  0  0  0  0  0  0
   77.4181  151.2863   19.2978 H   0  0  0  0  0  0  0  0  0  0  0  0
   75.4532  151.8600   18.7016 C   0  0  0  0  0  0  0  0  0  0  0  0
   75.6148  153.0364   19.5653 C   0  0  0  0  0  0  0  0  0  0  0  0
   74.4681  150.8410   19.2358 C   0  0  0  0  0  0  0  0  0  0  0  0
   75.7296  154.2184   19.1105 O   0  0  0  0  0  0  0  0  0  0  0  0
   75.6429  152.8286   20.9843 N   0  0  0  0  0  0  0  0  0  0  0  0
   74.5456  150.6090   20.7018 C   0  0  0  0  0  0  0  0  0  0  0  0
   75.4286  151.5066   21.4427 C   0  0  0  0  0  0  0  0  0  0  0  0
   75.9980  151.1166   22.4823 O   0  0  0  0  0  0  0  0  0  0  0  0
   75.8038  153.5711   21.6104 H   0  0  0  0  0  0  0  0  0  0  0  0
   82.1259  150.9873   17.4002 C   0  0  0  0  0  0  0  0  0  0  0  0
   84.1056  150.6959   15.7784 S   0  0  0  0  0  0  0  0  0  0  0  0
   84.8848  150.3997   17.0557 O   0  0  0  0  0  0  0  0  0  0  0  0
   83.8810  149.3257   15.1481 O   0  0  0  0  0  0  0  0  0  0  0  0
   82.6700  151.3863   16.1547 N   0  0  0  0  0  0  0  0  0  0  0  0
   85.1963  151.5754   14.7193 C   0  0  0  0  0  0  0  0  0  0  0  0
   82.0426  152.3909   15.4461 C   0  0  0  0  0  0  0  0  0  0  0  0
   85.1767  153.0357   15.1741 C   0  0  0  0  0  0  0  0  0  0  0  0
   82.7535  152.9909   14.2789 C   0  0  0  0  0  0  0  0  0  0  0  0
   83.9884  153.6264   14.6025 N   0  0  0  0  0  0  0  0  0  0  0  0
   84.0901  155.0134   14.3434 C   0  0  0  0  0  0  0  0  0  0  0  0
   83.0821  155.5882   13.8398 O   0  0  0  0  0  0  0  0  0  0  0  0
   85.3159  155.8004   14.6376 C   0  0  0  0  0  0  0  0  0  0  0  0
   85.2156  157.1602   14.1966 N   0  0  0  0  0  0  0  0  0  0  0  0
   84.4312  158.0114   15.0343 C   0  0  0  0  0  0  0  0  0  0  0  0
   84.7792  157.2734   12.8188 C   0  0  0  0  0  0  0  0  0  0  0  0
   86.1753  157.4987   14.2660 H   0  0  0  0  0  0  0  0  0  0  0  0
 21 22  2  0
 21 23  2  0
 21 24  1  0
 21 25  1  0
 24 26  1  0
 24 20  1  0
 25 27  1  0
 26 28  1  0
 20  1  1  0
 27 29  1  0
 28 29  1  0
  1  2  2  0
  1  3  1  0
 29 30  1  0
  2  4  1  0
  3  5  2  0
 30 31  2  0
 30 32  1  0
  4  7  1  0
  4  6  2  0
  5  6  1  0
 32 33  1  0
  7  8  2  0
  7  9  1  0
 33 34  1  0
 33 35  1  0
 33 36  1  0
  9 10  1  0
 11  9  1  0
 11 12  1  0
 11 13  1  0
 12 14  2  0
 12 15  1  0
 13 16  1  0
 15 17  1  0
 15 19  1  0
 16 17  1  0
 17 18  2  0
M  CHG 1  33   1
M  END
> <Molecule Name>
Compound 9

> <EC50 (µM) (Excel)>
54.0

> <Error (µM)>
9.3

> <HTRC CRBN-DDB1 EC50 (µM)>
53.95 ±  9.32

> <EC50 fitting (µM)>
108.30

> <Modèle Fitting>
4PL

> <Parent_Compound>
Compound 9

> <MMFF94s_energy_kcalmol>
165.178
$$$$

> <minimizedAffinity>
-7.86998

> <CNNscore>
0.2992449999

> <CNNaffinity>
5.9060959816

> <CNN_VS>
1.7673697472

> <CNNaffinity_variance>
0.3574322760

$$$$
Compound_9_ent1


 36 38  0  0  0  0  0  0  0  0999 V2000
   82.0124  150.1484   14.4523 C   0  0  0  0  0  0  0  0  0  0  0  0
   83.0408  151.0643   14.4792 C   0  0  0  0  0  0  0  0  0  0  0  0
   80.8719  150.4992   15.1841 C   0  0  0  0  0  0  0  0  0  0  0  0
   82.9543  152.2487   15.1793 C   0  0  0  0  0  0  0  0  0  0  0  0
   80.7706  151.6663   15.8819 C   0  0  0  0  0  0  0  0  0  0  0  0
   81.8319  152.5797   15.8917 C   0  0  0  0  0  0  0  0  0  0  0  0
   84.0798  153.1638   15.1593 C   0  0  0  0  0  0  0  0  0  0  0  0
   84.9593  153.1569   16.0829 O   0  0  0  0  0  0  0  0  0  0  0  0
   84.2994  154.1237   14.1370 N   0  0  0  0  0  0  0  0  0  0  0  0
   83.6603  154.1844   13.3906 H   0  0  0  0  0  0  0  0  0  0  0  0
   85.4579  155.0303   14.1646 C   0  0  0  0  0  0  0  0  0  0  0  0
   84.9454  156.3804   14.4307 C   0  0  0  0  0  0  0  0  0  0  0  0
   86.2407  154.9180   12.8728 C   0  0  0  0  0  0  0  0  0  0  0  0
   84.9403  156.9025   15.5902 O   0  0  0  0  0  0  0  0  0  0  0  0
   84.4303  157.1332   13.3238 N   0  0  0  0  0  0  0  0  0  0  0  0
   85.6640  155.6699   11.7278 C   0  0  0  0  0  0  0  0  0  0  0  0
   84.5340  156.5408   12.0424 C   0  0  0  0  0  0  0  0  0  0  0  0
   83.6552  156.7694   11.1865 O   0  0  0  0  0  0  0  0  0  0  0  0
   84.0233  158.0207   13.4495 H   0  0  0  0  0  0  0  0  0  0  0  0
   82.0585  148.8631   13.7075 C   0  0  0  0  0  0  0  0  0  0  0  0
   79.9081  148.4048   12.3660 S   0  0  0  0  0  0  0  0  0  0  0  0
   80.2567  149.7250   11.6862 O   0  0  0  0  0  0  0  0  0  0  0  0
   80.3133  147.3407   11.3517 O   0  0  0  0  0  0  0  0  0  0  0  0
   80.7863  148.2409   13.7374 N   0  0  0  0  0  0  0  0  0  0  0  0
   78.1570  148.3535   12.4915 C   0  0  0  0  0  0  0  0  0  0  0  0
   80.3452  147.6858   14.9216 C   0  0  0  0  0  0  0  0  0  0  0  0
   77.7743  149.1861   13.7164 C   0  0  0  0  0  0  0  0  0  0  0  0
   78.9146  147.2728   15.0260 C   0  0  0  0  0  0  0  0  0  0  0  0
   77.9796  148.3378   14.8680 N   0  0  0  0  0  0  0  0  0  0  0  0
   77.1332  148.6241   15.9649 C   0  0  0  0  0  0  0  0  0  0  0  0
   77.2631  147.9132   17.0030 O   0  0  0  0  0  0  0  0  0  0  0  0
   76.1187  149.7097   15.9381 C   0  0  0  0  0  0  0  0  0  0  0  0
   75.3784  149.8012   17.1617 N   0  0  0  0  0  0  0  0  0  0  0  0
   74.0625  149.2465   17.1154 C   0  0  0  0  0  0  0  0  0  0  0  0
   75.3352  151.1495   17.6927 C   0  0  0  0  0  0  0  0  0  0  0  0
   75.9128  149.2133   17.8014 H   0  0  0  0  0  0  0  0  0  0  0  0
 21 22  2  0
 21 23  2  0
 21 24  1  0
 21 25  1  0
 24 26  1  0
 24 20  1  0
 25 27  1  0
 26 28  1  0
 20  1  1  0
 27 29  1  0
 28 29  1  0
  1  2  2  0
  1  3  1  0
 29 30  1  0
  2  4  1  0
  3  5  2  0
 30 31  2  0
 30 32  1  0
  4  7  1  0
  4  6  2  0
  5  6  1  0
 32 33  1  0
  7  8  2  0
  7  9  1  0
 33 34  1  0
 33 35  1  0
 33 36  1  0
  9 10  1  0
 11  9  1  0
 11 12  1  0
 11 13  1  0
 12 14  2  0
 12 15  1  0
 13 16  1  0
 15 17  1  0
 15 19  1  0
 16 17  1  0
 17 18  2  0
M  CHG 1  33   1
M  END
> <Molecule Name>
Compound 9

> <EC50 (µM) (Excel)>
54.0

> <Error (µM)>
9.3

> <HTRC CRBN-DDB1 EC50 (µM)>
53.95 ±  9.32

> <EC50 fitting (µM)>
108.30

> <Modèle Fitting>
4PL

> <Parent_Compound>
Compound 9

> <MMFF94s_energy_kcalmol>
165.178
$$$$

> <minimizedAffinity>
-7.63746

> <CNNscore>
0.2939530313

> <CNNaffinity>
5.1663064957

> <CNN_VS>
1.5186514854

> <CNNaffinity_variance>
1.0141739845

$$$$
Compound_9_ent1


 36 38  0  0  0  0  0  0  0  0999 V2000
   86.4614  151.2843   11.9261 C   0  0  0  0  0  0  0  0  0  0  0  0
   87.1725  150.8263   10.8390 C   0  0  0  0  0  0  0  0  0  0  0  0
   86.6236  152.6420   12.2255 C   0  0  0  0  0  0  0  0  0  0  0  0
   87.9899  151.6491   10.0937 C   0  0  0  0  0  0  0  0  0  0  0  0
   87.4282  153.4689   11.4987 C   0  0  0  0  0  0  0  0  0  0  0  0
   88.1398  152.9765   10.3979 C   0  0  0  0  0  0  0  0  0  0  0  0
   88.7067  151.0933    8.9616 C   0  0  0  0  0  0  0  0  0  0  0  0
   88.2062  150.1610    8.2497 O   0  0  0  0  0  0  0  0  0  0  0  0
   89.9957  151.5256    8.5533 N   0  0  0  0  0  0  0  0  0  0  0  0
   90.4426  152.2440    9.0568 H   0  0  0  0  0  0  0  0  0  0  0  0
   90.6808  150.9273    7.3969 C   0  0  0  0  0  0  0  0  0  0  0  0
   92.1170  151.1835    7.5638 C   0  0  0  0  0  0  0  0  0  0  0  0
   90.1080  151.4778    6.1074 C   0  0  0  0  0  0  0  0  0  0  0  0
   92.9207  150.3271    8.0512 O   0  0  0  0  0  0  0  0  0  0  0  0
   92.6227  152.4618    7.1544 N   0  0  0  0  0  0  0  0  0  0  0  0
   90.6127  152.8228    5.7261 C   0  0  0  0  0  0  0  0  0  0  0  0
   91.7043  153.3483    6.5425 C   0  0  0  0  0  0  0  0  0  0  0  0
   91.8357  154.5785    6.7055 O   0  0  0  0  0  0  0  0  0  0  0  0
   93.5651  152.7111    7.2925 H   0  0  0  0  0  0  0  0  0  0  0  0
   85.5646  150.4365   12.7543 C   0  0  0  0  0  0  0  0  0  0  0  0
   83.2872  151.1311   13.7369 S   0  0  0  0  0  0  0  0  0  0  0  0
   82.7875  150.8569   12.3221 O   0  0  0  0  0  0  0  0  0  0  0  0
   82.8334  149.9158   14.5384 O   0  0  0  0  0  0  0  0  0  0  0  0
   84.9210  151.2290   13.7364 N   0  0  0  0  0  0  0  0  0  0  0  0
   82.3741  152.5084   14.3321 C   0  0  0  0  0  0  0  0  0  0  0  0
   85.6820  152.0948   14.4955 C   0  0  0  0  0  0  0  0  0  0  0  0
   83.0378  153.7625   13.7606 C   0  0  0  0  0  0  0  0  0  0  0  0
   84.9814  153.1119   15.3338 C   0  0  0  0  0  0  0  0  0  0  0  0
   84.1837  154.0363   14.5971 N   0  0  0  0  0  0  0  0  0  0  0  0
   84.5389  155.4035   14.6751 C   0  0  0  0  0  0  0  0  0  0  0  0
   85.5334  155.7076   15.3951 O   0  0  0  0  0  0  0  0  0  0  0  0
   83.7980  156.4709   13.9540 C   0  0  0  0  0  0  0  0  0  0  0  0
   84.6233  157.1794   13.0210 N   0  0  0  0  0  0  0  0  0  0  0  0
   85.6454  156.3963   12.4016 C   0  0  0  0  0  0  0  0  0  0  0  0
   85.1901  158.3912   13.5795 C   0  0  0  0  0  0  0  0  0  0  0  0
   83.9708  157.4335   12.2794 H   0  0  0  0  0  0  0  0  0  0  0  0
 21 22  2  0
 21 23  2  0
 21 24  1  0
 21 25  1  0
 24 26  1  0
 24 20  1  0
 25 27  1  0
 26 28  1  0
 20  1  1  0
 27 29  1  0
 28 29  1  0
  1  2  2  0
  1  3  1  0
 29 30  1  0
  2  4  1  0
  3  5  2  0
 30 31  2  0
 30 32  1  0
  4  7  1  0
  4  6  2  0
  5  6  1  0
 32 33  1  0
  7  8  2  0
  7  9  1  0
 33 34  1  0
 33 35  1  0
 33 36  1  0
  9 10  1  0
 11  9  1  0
 11 12  1  0
 11 13  1  0
 12 14  2  0
 12 15  1  0
 13 16  1  0
 15 17  1  0
 15 19  1  0
 16 17  1  0
 17 18  2  0
M  CHG 1  33   1
M  END
> <Molecule Name>
Compound 9

> <EC50 (µM) (Excel)>
54.0

> <Error (µM)>
9.3

> <HTRC CRBN-DDB1 EC50 (µM)>
53.95 ±  9.32

> <EC50 fitting (µM)>
108.30

> <Modèle Fitting>
4PL

> <Parent_Compound>
Compound 9

> <MMFF94s_energy_kcalmol>
165.178
$$$$

> <minimizedAffinity>
-7.37808

> <CNNscore>
0.2300025672

> <CNNaffinity>
5.4806885719

> <CNN_VS>
1.2605724335

> <CNNaffinity_variance>
1.0465321541

$$$$
Compound_9_ent1


 36 38  0  0  0  0  0  0  0  0999 V2000
   86.4912  151.2734   11.9299 C   0  0  0  0  0  0  0  0  0  0  0  0
   87.0991  150.8428   10.7713 C   0  0  0  0  0  0  0  0  0  0  0  0
   86.7166  152.6127   12.2685 C   0  0  0  0  0  0  0  0  0  0  0  0
   87.8778  151.6744    9.9951 C   0  0  0  0  0  0  0  0  0  0  0  0
   87.4841  153.4480   11.5120 C   0  0  0  0  0  0  0  0  0  0  0  0
   88.0904  152.9836   10.3382 C   0  0  0  0  0  0  0  0  0  0  0  0
   88.4849  151.1480    8.7874 C   0  0  0  0  0  0  0  0  0  0  0  0
   89.3783  150.2390    8.8336 O   0  0  0  0  0  0  0  0  0  0  0  0
   88.1484  151.5841    7.4792 N   0  0  0  0  0  0  0  0  0  0  0  0
   87.4645  152.2835    7.3677 H   0  0  0  0  0  0  0  0  0  0  0  0
   88.7957  151.0175    6.2856 C   0  0  0  0  0  0  0  0  0  0  0  0
   89.4279  152.1305    5.5659 C   0  0  0  0  0  0  0  0  0  0  0  0
   87.7860  150.2501    5.4577 C   0  0  0  0  0  0  0  0  0  0  0  0
   90.6615  152.4169    5.6806 O   0  0  0  0  0  0  0  0  0  0  0  0
   88.6051  152.9221    4.6977 N   0  0  0  0  0  0  0  0  0  0  0  0
   86.9142  151.0941    4.5993 C   0  0  0  0  0  0  0  0  0  0  0  0
   87.2592  152.5125    4.5411 C   0  0  0  0  0  0  0  0  0  0  0  0
   86.3734  153.3709    4.3523 O   0  0  0  0  0  0  0  0  0  0  0  0
   88.9600  153.7137    4.2324 H   0  0  0  0  0  0  0  0  0  0  0  0
   85.6392  150.4154   12.7942 C   0  0  0  0  0  0  0  0  0  0  0  0
   83.3464  151.1007   13.7467 S   0  0  0  0  0  0  0  0  0  0  0  0
   82.8645  150.8143   12.3283 O   0  0  0  0  0  0  0  0  0  0  0  0
   82.8918  149.8875   14.5510 O   0  0  0  0  0  0  0  0  0  0  0  0
   84.9794  151.2096   13.7639 N   0  0  0  0  0  0  0  0  0  0  0  0
   82.4175  152.4756   14.3229 C   0  0  0  0  0  0  0  0  0  0  0  0
   85.7260  152.0854   14.5259 C   0  0  0  0  0  0  0  0  0  0  0  0
   83.0792  153.7305   13.7508 C   0  0  0  0  0  0  0  0  0  0  0  0
   85.0093  153.1030   15.3498 C   0  0  0  0  0  0  0  0  0  0  0  0
   84.2138  154.0173   14.5983 N   0  0  0  0  0  0  0  0  0  0  0  0
   84.5589  155.3873   14.6715 C   0  0  0  0  0  0  0  0  0  0  0  0
   85.5433  155.7027   15.4006 O   0  0  0  0  0  0  0  0  0  0  0  0
   83.8190  156.4452   13.9353 C   0  0  0  0  0  0  0  0  0  0  0  0
   84.6509  157.1555   13.0096 N   0  0  0  0  0  0  0  0  0  0  0  0
   85.7138  156.3890   12.4402 C   0  0  0  0  0  0  0  0  0  0  0  0
   85.1647  158.3970   13.5540 C   0  0  0  0  0  0  0  0  0  0  0  0
   84.0138  157.3719   12.2429 H   0  0  0  0  0  0  0  0  0  0  0  0
 21 22  2  0
 21 23  2  0
 21 24  1  0
 21 25  1  0
 24 26  1  0
 24 20  1  0
 25 27  1  0
 26 28  1  0
 20  1  1  0
 27 29  1  0
 28 29  1  0
  1  2  2  0
  1  3  1  0
 29 30  1  0
  2  4  1  0
  3  5  2  0
 30 31  2  0
 30 32  1  0
  4  7  1  0
  4  6  2  0
  5  6  1  0
 32 33  1  0
  7  8  2  0
  7  9  1  0
 33 34  1  0
 33 35  1  0
 33 36  1  0
  9 10  1  0
 11  9  1  0
 11 12  1  0
 11 13  1  0
 12 14  2  0
 12 15  1  0
 13 16  1  0
 15 17  1  0
 15 19  1  0
 16 17  1  0
 17 18  2  0
M  CHG 1  33   1
M  END
> <Molecule Name>
Compound 9

> <EC50 (µM) (Excel)>
54.0

> <Error (µM)>
9.3

> <HTRC CRBN-DDB1 EC50 (µM)>
53.95 ±  9.32

> <EC50 fitting (µM)>
108.30

> <Modèle Fitting>
4PL

> <Parent_Compound>
Compound 9

> <MMFF94s_energy_kcalmol>
165.178
$$$$

> <minimizedAffinity>
-7.56027

> <CNNscore>
0.2183623463

> <CNNaffinity>
5.2875571251

> <CNN_VS>
1.1546033621

> <CNNaffinity_variance>
1.8009458780

$$$$
Compound_9_ent1


 36 38  0  0  0  0  0  0  0  0999 V2000
   82.4834  149.5254   17.9974 C   0  0  0  0  0  0  0  0  0  0  0  0
   81.4276  149.0690   17.2397 C   0  0  0  0  0  0  0  0  0  0  0  0
   83.0396  148.5937   18.8816 C   0  0  0  0  0  0  0  0  0  0  0  0
   80.9493  147.7801   17.3435 C   0  0  0  0  0  0  0  0  0  0  0  0
   82.5782  147.3158   18.9965 C   0  0  0  0  0  0  0  0  0  0  0  0
   81.5030  146.8782   18.2134 C   0  0  0  0  0  0  0  0  0  0  0  0
   79.8334  147.3726   16.5109 C   0  0  0  0  0  0  0  0  0  0  0  0
   78.9804  146.5148   16.9147 O   0  0  0  0  0  0  0  0  0  0  0  0
   79.5951  147.8787   15.2063 N   0  0  0  0  0  0  0  0  0  0  0  0
   80.2134  148.5461   14.8302 H   0  0  0  0  0  0  0  0  0  0  0  0
   78.4475  147.4309   14.4018 C   0  0  0  0  0  0  0  0  0  0  0  0
   78.9852  146.6791   13.2607 C   0  0  0  0  0  0  0  0  0  0  0  0
   77.5933  148.6166   14.0039 C   0  0  0  0  0  0  0  0  0  0  0  0
   79.0590  145.4098   13.2412 O   0  0  0  0  0  0  0  0  0  0  0  0
   79.4444  147.4227   12.1233 N   0  0  0  0  0  0  0  0  0  0  0  0
   78.1118  149.3988   12.8513 C   0  0  0  0  0  0  0  0  0  0  0  0
   79.2647  148.8263   12.1603 C   0  0  0  0  0  0  0  0  0  0  0  0
   80.0965  149.5675   11.5984 O   0  0  0  0  0  0  0  0  0  0  0  0
   79.8651  146.9775   11.3526 H   0  0  0  0  0  0  0  0  0  0  0  0
   83.0360  150.9027   17.9151 C   0  0  0  0  0  0  0  0  0  0  0  0
   84.5034  150.5919   15.8212 S   0  0  0  0  0  0  0  0  0  0  0  0
   85.6076  150.3429   16.8434 O   0  0  0  0  0  0  0  0  0  0  0  0
   84.1438  149.2014   15.3091 O   0  0  0  0  0  0  0  0  0  0  0  0
   83.2110  151.2733   16.5592 N   0  0  0  0  0  0  0  0  0  0  0  0
   85.2450  151.4555   14.4836 C   0  0  0  0  0  0  0  0  0  0  0  0
   82.3932  152.2487   16.0255 C   0  0  0  0  0  0  0  0  0  0  0  0
   85.3200  152.9278   14.8917 C   0  0  0  0  0  0  0  0  0  0  0  0
   82.7459  152.8248   14.6944 C   0  0  0  0  0  0  0  0  0  0  0  0
   84.0087  153.4858   14.6529 N   0  0  0  0  0  0  0  0  0  0  0  0
   84.0069  154.8661   14.3429 C   0  0  0  0  0  0  0  0  0  0  0  0
   82.8880  155.4126   14.1207 O   0  0  0  0  0  0  0  0  0  0  0  0
   85.2498  155.6777   14.2720 C   0  0  0  0  0  0  0  0  0  0  0  0
   85.2880  156.5256   13.1173 N   0  0  0  0  0  0  0  0  0  0  0  0
   84.9219  157.8863   13.3538 C   0  0  0  0  0  0  0  0  0  0  0  0
   84.5325  155.9903   12.0018 C   0  0  0  0  0  0  0  0  0  0  0  0
   86.2773  156.5362   12.8691 H   0  0  0  0  0  0  0  0  0  0  0  0
 21 22  2  0
 21 23  2  0
 21 24  1  0
 21 25  1  0
 24 26  1  0
 24 20  1  0
 25 27  1  0
 26 28  1  0
 20  1  1  0
 27 29  1  0
 28 29  1  0
  1  2  2  0
  1  3  1  0
 29 30  1  0
  2  4  1  0
  3  5  2  0
 30 31  2  0
 30 32  1  0
  4  7  1  0
  4  6  2  0
  5  6  1  0
 32 33  1  0
  7  8  2  0
  7  9  1  0
 33 34  1  0
 33 35  1  0
 33 36  1  0
  9 10  1  0
 11  9  1  0
 11 12  1  0
 11 13  1  0
 12 14  2  0
 12 15  1  0
 13 16  1  0
 15 17  1  0
 15 19  1  0
 16 17  1  0
 17 18  2  0
M  CHG 1  33   1
M  END
> <Molecule Name>
Compound 9

> <EC50 (µM) (Excel)>
54.0

> <Error (µM)>
9.3

> <HTRC CRBN-DDB1 EC50 (µM)>
53.95 ±  9.32

> <EC50 fitting (µM)>
108.30

> <Modèle Fitting>
4PL

> <Parent_Compound>
Compound 9

> <MMFF94s_energy_kcalmol>
165.178
$$$$

> <minimizedAffinity>
-6.03707

> <CNNscore>
0.2018630952

> <CNNaffinity>
5.3343348503

> <CNN_VS>
1.0768053532

> <CNNaffinity_variance>
0.4727112055

$$$$
