Compound_10_ent2


 39 42  0  0  0  0  0  0  0  0999 V2000
   81.7588  151.6231   15.2152 C   0  0  0  0  0  0  0  0  0  0  0  0
   83.3199  150.4231   13.5073 S   0  0  0  0  0  0  0  0  0  0  0  0
   83.3091  149.0527   14.1750 O   0  0  0  0  0  0  0  0  0  0  0  0
   82.1849  150.4007   12.5193 O   0  0  0  0  0  0  0  0  0  0  0  0
   83.0419  151.5930   14.6517 N   0  0  0  0  0  0  0  0  0  0  0  0
   84.8156  150.5619   12.5972 C   0  0  0  0  0  0  0  0  0  0  0  0
   84.0987  152.2891   15.2498 C   0  0  0  0  0  0  0  0  0  0  0  0
   85.9217  151.2426   13.3569 C   0  0  0  0  0  0  0  0  0  0  0  0
   84.7063  153.3176   14.2773 C   0  0  0  0  0  0  0  0  0  0  0  0
   85.6099  152.6797   13.3777 N   0  0  0  0  0  0  0  0  0  0  0  0
   86.2691  153.4493   12.4260 C   0  0  0  0  0  0  0  0  0  0  0  0
   87.0783  152.8892   11.6111 O   0  0  0  0  0  0  0  0  0  0  0  0
   86.1092  154.8955   12.2733 C   0  0  0  0  0  0  0  0  0  0  0  0
   84.9823  155.4531   12.8648 O   0  0  0  0  0  0  0  0  0  0  0  0
   84.9703  156.6570   13.5119 C   0  0  0  0  0  0  0  0  0  0  0  0
   84.6124  156.7160   14.8355 C   0  0  0  0  0  0  0  0  0  0  0  0
   85.3228  157.8170   12.8195 C   0  0  0  0  0  0  0  0  0  0  0  0
   84.6189  157.9527   15.4331 C   0  0  0  0  0  0  0  0  0  0  0  0
   85.3214  159.0435   13.4401 C   0  0  0  0  0  0  0  0  0  0  0  0
   84.9642  159.1112   14.7658 C   0  0  0  0  0  0  0  0  0  0  0  0
   81.5967  150.9858   16.5376 C   0  0  0  0  0  0  0  0  0  0  0  0
   80.3394  150.7007   17.0598 C   0  0  0  0  0  0  0  0  0  0  0  0
   82.6901  150.6455   17.3037 C   0  0  0  0  0  0  0  0  0  0  0  0
   80.1691  150.1029   18.2896 C   0  0  0  0  0  0  0  0  0  0  0  0
   82.5678  150.0450   18.5421 C   0  0  0  0  0  0  0  0  0  0  0  0
   81.3031  149.7873   19.0066 C   0  0  0  0  0  0  0  0  0  0  0  0
   78.8742  149.7906   18.8667 C   0  0  0  0  0  0  0  0  0  0  0  0
   78.6963  148.6438   19.3586 O   0  0  0  0  0  0  0  0  0  0  0  0
   77.7856  150.7009   18.9137 N   0  0  0  0  0  0  0  0  0  0  0  0
   77.8743  151.6086   18.5429 H   0  0  0  0  0  0  0  0  0  0  0  0
   76.5450  150.2696   19.5161 C   0  0  0  0  0  0  0  0  0  0  0  0
   76.3943  150.7868   20.8941 C   0  0  0  0  0  0  0  0  0  0  0  0
   75.3800  150.7953   18.6965 C   0  0  0  0  0  0  0  0  0  0  0  0
   76.6052  150.0278   21.8681 O   0  0  0  0  0  0  0  0  0  0  0  0
   76.0114  152.1407   21.0651 N   0  0  0  0  0  0  0  0  0  0  0  0
   75.3887  152.3078   18.6205 C   0  0  0  0  0  0  0  0  0  0  0  0
   75.5553  152.9264   19.9569 C   0  0  0  0  0  0  0  0  0  0  0  0
   75.2993  154.1354   20.1240 O   0  0  0  0  0  0  0  0  0  0  0  0
   76.0595  152.5481   21.9601 H   0  0  0  0  0  0  0  0  0  0  0  0
  2  3  2  0
  2  4  2  0
  2  5  1  0
  2  6  1  0
  5  7  1  0
  5  1  1  0
  6  8  1  0
  7  9  1  0
  1 21  1  0
  8 10  1  0
  9 10  1  0
 21 22  2  0
 21 23  1  0
 10 11  1  0
 22 24  1  0
 23 25  2  0
 11 12  2  0
 11 13  1  0
 24 27  1  0
 24 26  2  0
 25 26  1  0
 13 14  1  0
 27 28  2  0
 27 29  1  0
 14 15  1  0
 29 30  1  0
 15 16  2  0
 15 17  1  0
 31 29  1  0
 31 32  1  0
 31 33  1  0
 16 18  1  0
 17 19  2  0
 32 34  2  0
 32 35  1  0
 33 36  1  0
 18 20  2  0
 19 20  1  0
 35 37  1  0
 35 39  1  0
 36 37  1  0
 37 38  2  0
M  END
> <Molecule Name>
Compound 10

> <EC50 (µM) (Excel)>
14.3

> <Error (µM)>
1.3

> <HTRC CRBN-DDB1 EC50 (µM)>
14.29 ±  1.32

> <EC50 fitting (µM)>
23.96

> <Modèle Fitting>
3PL

> <Parent_Compound>
Compound 10

> <MMFF94s_energy_kcalmol>
145.091
$$$$

> <minimizedAffinity>
-10.23051

> <CNNscore>
0.2335942686

> <CNNaffinity>
6.2149682045

> <CNN_VS>
1.4517809153

> <CNNaffinity_variance>
0.2327405661

$$$$
Compound_10_ent2


 39 42  0  0  0  0  0  0  0  0999 V2000
   87.8215  148.9391   12.4450 C   0  0  0  0  0  0  0  0  0  0  0  0
   87.8529  149.9231   14.8583 S   0  0  0  0  0  0  0  0  0  0  0  0
   88.3032  148.6536   15.5721 O   0  0  0  0  0  0  0  0  0  0  0  0
   89.1171  150.6645   14.5157 O   0  0  0  0  0  0  0  0  0  0  0  0
   87.0499  149.5134   13.4645 N   0  0  0  0  0  0  0  0  0  0  0  0
   86.9607  150.8981   16.0151 C   0  0  0  0  0  0  0  0  0  0  0  0
   85.6526  149.4421   13.4261 C   0  0  0  0  0  0  0  0  0  0  0  0
   85.4723  150.6846   15.9610 C   0  0  0  0  0  0  0  0  0  0  0  0
   85.0250  150.8489   13.4305 C   0  0  0  0  0  0  0  0  0  0  0  0
   84.9814  151.3710   14.7565 N   0  0  0  0  0  0  0  0  0  0  0  0
   84.4367  152.6327   14.9664 C   0  0  0  0  0  0  0  0  0  0  0  0
   84.3954  153.1139   16.1494 O   0  0  0  0  0  0  0  0  0  0  0  0
   83.8880  153.4851   13.9116 C   0  0  0  0  0  0  0  0  0  0  0  0
   83.4756  154.7535   14.3014 O   0  0  0  0  0  0  0  0  0  0  0  0
   84.1485  155.9054   14.0040 C   0  0  0  0  0  0  0  0  0  0  0  0
   84.9804  155.9468   12.9134 C   0  0  0  0  0  0  0  0  0  0  0  0
   83.9828  157.0308   14.8136 C   0  0  0  0  0  0  0  0  0  0  0  0
   85.6300  157.1311   12.6638 C   0  0  0  0  0  0  0  0  0  0  0  0
   84.6443  158.2049   14.5429 C   0  0  0  0  0  0  0  0  0  0  0  0
   85.4795  158.2547   13.4522 C   0  0  0  0  0  0  0  0  0  0  0  0
   87.8816  149.6698   11.1629 C   0  0  0  0  0  0  0  0  0  0  0  0
   87.6646  149.0284    9.9479 C   0  0  0  0  0  0  0  0  0  0  0  0
   88.1520  151.0202   11.1241 C   0  0  0  0  0  0  0  0  0  0  0  0
   87.7126  149.6946    8.7426 C   0  0  0  0  0  0  0  0  0  0  0  0
   88.2103  151.7293    9.9396 C   0  0  0  0  0  0  0  0  0  0  0  0
   87.9879  151.0448    8.7719 C   0  0  0  0  0  0  0  0  0  0  0  0
   87.4921  149.0594    7.4560 C   0  0  0  0  0  0  0  0  0  0  0  0
   87.9225  147.8875    7.2828 O   0  0  0  0  0  0  0  0  0  0  0  0
   86.8171  149.6777    6.3706 N   0  0  0  0  0  0  0  0  0  0  0  0
   86.4623  150.5921    6.4559 H   0  0  0  0  0  0  0  0  0  0  0  0
   86.6609  148.9393    5.1385 C   0  0  0  0  0  0  0  0  0  0  0  0
   85.2493  148.8990    4.6972 C   0  0  0  0  0  0  0  0  0  0  0  0
   87.4671  149.6146    4.0433 C   0  0  0  0  0  0  0  0  0  0  0  0
   84.5728  147.8600    4.8761 O   0  0  0  0  0  0  0  0  0  0  0  0
   84.7057  150.0529    4.0793 N   0  0  0  0  0  0  0  0  0  0  0  0
   87.0173  151.0432    3.8194 C   0  0  0  0  0  0  0  0  0  0  0  0
   85.5454  151.1423    3.6776 C   0  0  0  0  0  0  0  0  0  0  0  0
   85.0295  152.1758    3.2074 O   0  0  0  0  0  0  0  0  0  0  0  0
   83.7350  150.1069    3.9236 H   0  0  0  0  0  0  0  0  0  0  0  0
  2  3  2  0
  2  4  2  0
  2  5  1  0
  2  6  1  0
  5  7  1  0
  5  1  1  0
  6  8  1  0
  7  9  1  0
  1 21  1  0
  8 10  1  0
  9 10  1  0
 21 22  2  0
 21 23  1  0
 10 11  1  0
 22 24  1  0
 23 25  2  0
 11 12  2  0
 11 13  1  0
 24 27  1  0
 24 26  2  0
 25 26  1  0
 13 14  1  0
 27 28  2  0
 27 29  1  0
 14 15  1  0
 29 30  1  0
 15 16  2  0
 15 17  1  0
 31 29  1  0
 31 32  1  0
 31 33  1  0
 16 18  1  0
 17 19  2  0
 32 34  2  0
 32 35  1  0
 33 36  1  0
 18 20  2  0
 19 20  1  0
 35 37  1  0
 35 39  1  0
 36 37  1  0
 37 38  2  0
M  END
> <Molecule Name>
Compound 10

> <EC50 (µM) (Excel)>
14.3

> <Error (µM)>
1.3

> <HTRC CRBN-DDB1 EC50 (µM)>
14.29 ±  1.32

> <EC50 fitting (µM)>
23.96

> <Modèle Fitting>
3PL

> <Parent_Compound>
Compound 10

> <MMFF94s_energy_kcalmol>
145.091
$$$$

> <minimizedAffinity>
-7.71592

> <CNNscore>
0.2312507331

> <CNNaffinity>
4.8493900299

> <CNN_VS>
1.1214250326

> <CNNaffinity_variance>
1.4818143845

$$$$
Compound_10_ent2


 39 42  0  0  0  0  0  0  0  0999 V2000
   87.2831  150.0163   11.0029 C   0  0  0  0  0  0  0  0  0  0  0  0
   87.6730  149.8593   13.5753 S   0  0  0  0  0  0  0  0  0  0  0  0
   87.8842  148.3510   13.6407 O   0  0  0  0  0  0  0  0  0  0  0  0
   89.0429  150.4516   13.3815 O   0  0  0  0  0  0  0  0  0  0  0  0
   86.7166  150.2231   12.2683 N   0  0  0  0  0  0  0  0  0  0  0  0
   87.0830  150.3843   15.1441 C   0  0  0  0  0  0  0  0  0  0  0  0
   85.3367  150.4112   12.4085 C   0  0  0  0  0  0  0  0  0  0  0  0
   85.5830  150.4679   15.2259 C   0  0  0  0  0  0  0  0  0  0  0  0
   85.0262  151.7658   13.0728 C   0  0  0  0  0  0  0  0  0  0  0  0
   85.1771  151.6734   14.4875 N   0  0  0  0  0  0  0  0  0  0  0  0
   84.9290  152.7977   15.2667 C   0  0  0  0  0  0  0  0  0  0  0  0
   85.0645  152.7292   16.5354 O   0  0  0  0  0  0  0  0  0  0  0  0
   84.5115  154.0967   14.7390 C   0  0  0  0  0  0  0  0  0  0  0  0
   85.1490  155.2091   15.2746 O   0  0  0  0  0  0  0  0  0  0  0  0
   85.1454  156.4484   14.6982 C   0  0  0  0  0  0  0  0  0  0  0  0
   85.3791  156.5748   13.3518 C   0  0  0  0  0  0  0  0  0  0  0  0
   84.9036  157.5758   15.4856 C   0  0  0  0  0  0  0  0  0  0  0  0
   85.3630  157.8446   12.8282 C   0  0  0  0  0  0  0  0  0  0  0  0
   84.8928  158.8364   14.9379 C   0  0  0  0  0  0  0  0  0  0  0  0
   85.1259  158.9717   13.5899 C   0  0  0  0  0  0  0  0  0  0  0  0
   87.8108  151.2070   10.3066 C   0  0  0  0  0  0  0  0  0  0  0  0
   88.1022  151.1861    8.9466 C   0  0  0  0  0  0  0  0  0  0  0  0
   88.0307  152.3881   10.9809 C   0  0  0  0  0  0  0  0  0  0  0  0
   88.5911  152.2883    8.2795 C   0  0  0  0  0  0  0  0  0  0  0  0
   88.5197  153.5181   10.3539 C   0  0  0  0  0  0  0  0  0  0  0  0
   88.7891  153.4393    9.0112 C   0  0  0  0  0  0  0  0  0  0  0  0
   88.9067  152.3040    6.8626 C   0  0  0  0  0  0  0  0  0  0  0  0
   90.0998  152.1012    6.5104 O   0  0  0  0  0  0  0  0  0  0  0  0
   87.9504  152.5351    5.8387 N   0  0  0  0  0  0  0  0  0  0  0  0
   87.0057  152.6986    6.0623 H   0  0  0  0  0  0  0  0  0  0  0  0
   88.3904  152.5256    4.4624 C   0  0  0  0  0  0  0  0  0  0  0  0
   87.3014  152.1350    3.5401 C   0  0  0  0  0  0  0  0  0  0  0  0
   88.8470  153.9200    4.0721 C   0  0  0  0  0  0  0  0  0  0  0  0
   87.2759  150.9758    3.0659 O   0  0  0  0  0  0  0  0  0  0  0  0
   86.3128  153.0994    3.2217 N   0  0  0  0  0  0  0  0  0  0  0  0
   87.7334  154.9349    4.2242 C   0  0  0  0  0  0  0  0  0  0  0  0
   86.4775  154.4757    3.5850 C   0  0  0  0  0  0  0  0  0  0  0  0
   85.5565  155.2858    3.3600 O   0  0  0  0  0  0  0  0  0  0  0  0
   85.4994  152.8191    2.7430 H   0  0  0  0  0  0  0  0  0  0  0  0
  2  3  2  0
  2  4  2  0
  2  5  1  0
  2  6  1  0
  5  7  1  0
  5  1  1  0
  6  8  1  0
  7  9  1  0
  1 21  1  0
  8 10  1  0
  9 10  1  0
 21 22  2  0
 21 23  1  0
 10 11  1  0
 22 24  1  0
 23 25  2  0
 11 12  2  0
 11 13  1  0
 24 27  1  0
 24 26  2  0
 25 26  1  0
 13 14  1  0
 27 28  2  0
 27 29  1  0
 14 15  1  0
 29 30  1  0
 15 16  2  0
 15 17  1  0
 31 29  1  0
 31 32  1  0
 31 33  1  0
 16 18  1  0
 17 19  2  0
 32 34  2  0
 32 35  1  0
 33 36  1  0
 18 20  2  0
 19 20  1  0
 35 37  1  0
 35 39  1  0
 36 37  1  0
 37 38  2  0
M  END
> <Molecule Name>
Compound 10

> <EC50 (µM) (Excel)>
14.3

> <Error (µM)>
1.3

> <HTRC CRBN-DDB1 EC50 (µM)>
14.29 ±  1.32

> <EC50 fitting (µM)>
23.96

> <Modèle Fitting>
3PL

> <Parent_Compound>
Compound 10

> <MMFF94s_energy_kcalmol>
145.091
$$$$

> <minimizedAffinity>
-9.58672

> <CNNscore>
0.2212698311

> <CNNaffinity>
4.9937987328

> <CNN_VS>
1.1049770117

> <CNNaffinity_variance>
1.6418052912

$$$$
Compound_10_ent2


 39 42  0  0  0  0  0  0  0  0999 V2000
   79.7658  149.4737   16.2475 C   0  0  0  0  0  0  0  0  0  0  0  0
   81.7472  149.9176   17.8818 S   0  0  0  0  0  0  0  0  0  0  0  0
   80.9258  149.9559   19.1654 O   0  0  0  0  0  0  0  0  0  0  0  0
   82.1746  148.4839   17.7177 O   0  0  0  0  0  0  0  0  0  0  0  0
   80.7877  150.3647   16.6031 N   0  0  0  0  0  0  0  0  0  0  0  0
   83.1941  150.8778   18.1448 C   0  0  0  0  0  0  0  0  0  0  0  0
   80.7859  151.6790   16.1217 C   0  0  0  0  0  0  0  0  0  0  0  0
   83.0642  152.3023   17.6783 C   0  0  0  0  0  0  0  0  0  0  0  0
   82.0696  151.9798   15.3252 C   0  0  0  0  0  0  0  0  0  0  0  0
   83.1453  152.2846   16.2099 N   0  0  0  0  0  0  0  0  0  0  0  0
   84.3905  152.5950   15.6752 C   0  0  0  0  0  0  0  0  0  0  0  0
   85.3639  152.8660   16.4573 O   0  0  0  0  0  0  0  0  0  0  0  0
   84.6908  152.6391   14.2441 C   0  0  0  0  0  0  0  0  0  0  0  0
   84.0283  153.6145   13.5089 O   0  0  0  0  0  0  0  0  0  0  0  0
   84.3499  154.9428   13.5291 C   0  0  0  0  0  0  0  0  0  0  0  0
   84.7794  155.5226   14.6965 C   0  0  0  0  0  0  0  0  0  0  0  0
   84.2384  155.6985   12.3603 C   0  0  0  0  0  0  0  0  0  0  0  0
   85.0884  156.8603   14.6566 C   0  0  0  0  0  0  0  0  0  0  0  0
   84.5537  157.0363   12.3460 C   0  0  0  0  0  0  0  0  0  0  0  0
   84.9848  157.6246   13.5112 C   0  0  0  0  0  0  0  0  0  0  0  0
   79.6607  149.1165   14.8184 C   0  0  0  0  0  0  0  0  0  0  0  0
   78.4270  148.9512   14.1975 C   0  0  0  0  0  0  0  0  0  0  0  0
   80.7859  148.9371   14.0438 C   0  0  0  0  0  0  0  0  0  0  0  0
   78.3097  148.6221   12.8645 C   0  0  0  0  0  0  0  0  0  0  0  0
   80.7169  148.6067   12.7040 C   0  0  0  0  0  0  0  0  0  0  0  0
   79.4733  148.4566   12.1448 C   0  0  0  0  0  0  0  0  0  0  0  0
   77.0407  148.4412   12.1830 C   0  0  0  0  0  0  0  0  0  0  0  0
   76.0081  148.2436   12.8781 O   0  0  0  0  0  0  0  0  0  0  0  0
   76.8858  148.4727   10.7719 N   0  0  0  0  0  0  0  0  0  0  0  0
   77.6619  148.6237   10.1854 H   0  0  0  0  0  0  0  0  0  0  0  0
   75.5674  148.2787   10.2134 C   0  0  0  0  0  0  0  0  0  0  0  0
   75.4418  148.8954    8.8743 C   0  0  0  0  0  0  0  0  0  0  0  0
   75.3001  146.7917   10.0629 C   0  0  0  0  0  0  0  0  0  0  0  0
   74.8399  149.9868    8.7479 O   0  0  0  0  0  0  0  0  0  0  0  0
   76.0145  148.2201    7.7676 N   0  0  0  0  0  0  0  0  0  0  0  0
   76.3185  146.1304    9.1579 C   0  0  0  0  0  0  0  0  0  0  0  0
   76.4950  146.8756    7.8890 C   0  0  0  0  0  0  0  0  0  0  0  0
   77.0636  146.3356    6.9193 O   0  0  0  0  0  0  0  0  0  0  0  0
   76.0832  148.6824    6.9011 H   0  0  0  0  0  0  0  0  0  0  0  0
  2  3  2  0
  2  4  2  0
  2  5  1  0
  2  6  1  0
  5  7  1  0
  5  1  1  0
  6  8  1  0
  7  9  1  0
  1 21  1  0
  8 10  1  0
  9 10  1  0
 21 22  2  0
 21 23  1  0
 10 11  1  0
 22 24  1  0
 23 25  2  0
 11 12  2  0
 11 13  1  0
 24 27  1  0
 24 26  2  0
 25 26  1  0
 13 14  1  0
 27 28  2  0
 27 29  1  0
 14 15  1  0
 29 30  1  0
 15 16  2  0
 15 17  1  0
 31 29  1  0
 31 32  1  0
 31 33  1  0
 16 18  1  0
 17 19  2  0
 32 34  2  0
 32 35  1  0
 33 36  1  0
 18 20  2  0
 19 20  1  0
 35 37  1  0
 35 39  1  0
 36 37  1  0
 37 38  2  0
M  END
> <Molecule Name>
Compound 10

> <EC50 (µM) (Excel)>
14.3

> <Error (µM)>
1.3

> <HTRC CRBN-DDB1 EC50 (µM)>
14.29 ±  1.32

> <EC50 fitting (µM)>
23.96

> <Modèle Fitting>
3PL

> <Parent_Compound>
Compound 10

> <MMFF94s_energy_kcalmol>
145.091
$$$$

> <minimizedAffinity>
-8.91403

> <CNNscore>
0.2210580856

> <CNNaffinity>
4.5538692474

> <CNN_VS>
1.0066696405

> <CNNaffinity_variance>
2.1155016422

$$$$
Compound_10_ent2


 39 42  0  0  0  0  0  0  0  0999 V2000
   82.1868  151.8265   17.0111 C   0  0  0  0  0  0  0  0  0  0  0  0
   82.5441  150.4665   14.8164 S   0  0  0  0  0  0  0  0  0  0  0  0
   82.2623  149.0879   15.4027 O   0  0  0  0  0  0  0  0  0  0  0  0
   81.2182  150.9712   14.3140 O   0  0  0  0  0  0  0  0  0  0  0  0
   83.1057  151.4681   16.0152 N   0  0  0  0  0  0  0  0  0  0  0  0
   83.5936  150.2505   13.4248 C   0  0  0  0  0  0  0  0  0  0  0  0
   84.4767  151.6781   16.2025 C   0  0  0  0  0  0  0  0  0  0  0  0
   85.0558  150.4048   13.7438 C   0  0  0  0  0  0  0  0  0  0  0  0
   85.0533  152.5911   15.1040 C   0  0  0  0  0  0  0  0  0  0  0  0
   85.3102  151.8428   13.9179 N   0  0  0  0  0  0  0  0  0  0  0  0
   85.8451  152.4944   12.8125 C   0  0  0  0  0  0  0  0  0  0  0  0
   86.0761  151.8362   11.7420 O   0  0  0  0  0  0  0  0  0  0  0  0
   86.1772  153.9185   12.7697 C   0  0  0  0  0  0  0  0  0  0  0  0
   85.1050  154.7943   12.6502 O   0  0  0  0  0  0  0  0  0  0  0  0
   85.0536  156.0299   13.2325 C   0  0  0  0  0  0  0  0  0  0  0  0
   84.9790  157.1517   12.4457 C   0  0  0  0  0  0  0  0  0  0  0  0
   85.0774  156.1392   14.6242 C   0  0  0  0  0  0  0  0  0  0  0  0
   84.9297  158.3658   13.0863 C   0  0  0  0  0  0  0  0  0  0  0  0
   85.0271  157.3661   15.2419 C   0  0  0  0  0  0  0  0  0  0  0  0
   84.9521  158.4948   14.4609 C   0  0  0  0  0  0  0  0  0  0  0  0
   81.9867  150.8618   18.1113 C   0  0  0  0  0  0  0  0  0  0  0  0
   80.7695  150.2160   18.3018 C   0  0  0  0  0  0  0  0  0  0  0  0
   83.0043  150.5621   18.9905 C   0  0  0  0  0  0  0  0  0  0  0  0
   80.5658  149.3102   19.3200 C   0  0  0  0  0  0  0  0  0  0  0  0
   82.8461  149.6609   20.0259 C   0  0  0  0  0  0  0  0  0  0  0  0
   81.6238  149.0541   20.1654 C   0  0  0  0  0  0  0  0  0  0  0  0
   79.3108  148.6177   19.5499 C   0  0  0  0  0  0  0  0  0  0  0  0
   78.2426  149.1676   19.1688 O   0  0  0  0  0  0  0  0  0  0  0  0
   79.2075  147.3503   20.1815 N   0  0  0  0  0  0  0  0  0  0  0  0
   80.0127  146.8799   20.4970 H   0  0  0  0  0  0  0  0  0  0  0  0
   77.8979  146.7641   20.3522 C   0  0  0  0  0  0  0  0  0  0  0  0
   77.1618  146.6809   19.0714 C   0  0  0  0  0  0  0  0  0  0  0  0
   78.0465  145.3523   20.8908 C   0  0  0  0  0  0  0  0  0  0  0  0
   76.2588  147.5119   18.8198 O   0  0  0  0  0  0  0  0  0  0  0  0
   77.5093  145.6501   18.1629 N   0  0  0  0  0  0  0  0  0  0  0  0
   78.8561  144.4801   19.9542 C   0  0  0  0  0  0  0  0  0  0  0  0
   78.3764  144.5790   18.5555 C   0  0  0  0  0  0  0  0  0  0  0  0
   78.7255  143.7294   17.7119 O   0  0  0  0  0  0  0  0  0  0  0  0
   77.1489  145.6703   17.2469 H   0  0  0  0  0  0  0  0  0  0  0  0
  2  3  2  0
  2  4  2  0
  2  5  1  0
  2  6  1  0
  5  7  1  0
  5  1  1  0
  6  8  1  0
  7  9  1  0
  1 21  1  0
  8 10  1  0
  9 10  1  0
 21 22  2  0
 21 23  1  0
 10 11  1  0
 22 24  1  0
 23 25  2  0
 11 12  2  0
 11 13  1  0
 24 27  1  0
 24 26  2  0
 25 26  1  0
 13 14  1  0
 27 28  2  0
 27 29  1  0
 14 15  1  0
 29 30  1  0
 15 16  2  0
 15 17  1  0
 31 29  1  0
 31 32  1  0
 31 33  1  0
 16 18  1  0
 17 19  2  0
 32 34  2  0
 32 35  1  0
 33 36  1  0
 18 20  2  0
 19 20  1  0
 35 37  1  0
 35 39  1  0
 36 37  1  0
 37 38  2  0
M  END
> <Molecule Name>
Compound 10

> <EC50 (µM) (Excel)>
14.3

> <Error (µM)>
1.3

> <HTRC CRBN-DDB1 EC50 (µM)>
14.29 ±  1.32

> <EC50 fitting (µM)>
23.96

> <Modèle Fitting>
3PL

> <Parent_Compound>
Compound 10

> <MMFF94s_energy_kcalmol>
145.091
$$$$

> <minimizedAffinity>
-8.00968

> <CNNscore>
0.2173572630

> <CNNaffinity>
5.2367801666

> <CNN_VS>
1.1382522583

> <CNNaffinity_variance>
0.6658387780

$$$$
