Compound_4_s4
 OpenBabel09072607323D

 51 54  0  0  0  0  0  0  0  0999 V2000
   -4.7905    2.0819   -0.4215 O   0  0  0  0  0  0  0  0  0  0  0  0
   -5.0912    0.8972   -0.1171 C   0  0  0  0  0  0  0  0  0  0  0  0
   -4.1330   -0.1449   -0.0587 N   0  0  0  0  0  0  0  0  0  0  0  0
   -6.4757    0.6492    0.1727 N   0  0  0  0  0  0  0  0  0  0  0  0
   -2.7973    0.1477   -0.4345 C   0  0  0  0  0  0  0  0  0  0  0  0
   -4.5214   -1.4486    0.3699 C   0  0  0  0  0  0  0  0  0  0  0  0
   -6.8219   -0.6905    0.5179 C   0  0  0  0  0  0  0  0  0  0  0  0
   -1.8496    0.5903    0.4722 C   0  0  0  0  0  0  0  0  0  0  0  0
   -2.3540    0.0077   -1.7433 C   0  0  0  0  0  0  0  0  0  0  0  0
   -5.9616   -1.7746   -0.0161 C   0  0  0  0  0  0  0  0  0  0  0  0
   -7.8341   -0.9180    1.2564 O   0  0  0  0  0  0  0  0  0  0  0  0
   -0.5480    0.8799    0.1281 C   0  0  0  0  0  0  0  0  0  0  0  0
   -1.0621    0.2843   -2.1392 C   0  0  0  0  0  0  0  0  0  0  0  0
   -0.1632    0.7215   -1.1929 C   0  0  0  0  0  0  0  0  0  0  0  0
    0.6691    1.3599    0.8692 C   0  0  1  0  0  0  0  0  0  0  0  0
    1.2745    1.1127   -1.2367 C   0  0  2  0  0  0  0  0  0  0  0  0
    1.6798    0.6883    0.0860 N   0  0  0  0  0  0  0  0  0  0  0  0
    0.9159    2.7905    0.4461 C   0  0  1  0  0  0  0  0  0  0  0  0
    1.2907    2.6154   -1.0265 C   0  0  2  0  0  0  0  0  0  0  0  0
    2.7568   -0.1384    0.4255 C   0  0  0  0  0  0  0  0  0  0  0  0
   -0.2108    3.5912    0.5804 O   0  0  0  0  0  0  0  0  0  0  0  0
    0.3263    3.2538   -1.7803 O   0  0  0  0  0  0  0  0  0  0  0  0
    3.0352   -0.4575    1.6250 O   0  0  0  0  0  0  0  0  0  0  0  0
    3.6239   -0.6878   -0.5283 O   0  0  0  0  0  0  0  0  0  0  0  0
    4.7020   -1.5124   -0.2181 C   0  0  0  0  0  0  0  0  0  0  0  0
    4.3224   -2.7746    0.4934 C   0  0  0  0  0  0  0  0  0  0  0  0
    5.7636   -0.7299    0.5146 C   0  0  0  0  0  0  0  0  0  0  0  0
    5.3286   -1.9367   -1.5544 C   0  0  0  0  0  0  0  0  0  0  0  0
   -7.1498    1.3657    0.1351 H   0  0  0  0  0  0  0  0  0  0  0  0
   -4.4286   -1.5037    1.4344 H   0  0  0  0  0  0  0  0  0  0  0  0
   -3.8823   -2.1581   -0.1128 H   0  0  0  0  0  0  0  0  0  0  0  0
   -2.1332    0.7094    1.4573 H   0  0  0  0  0  0  0  0  0  0  0  0
   -3.0252   -0.3198   -2.4555 H   0  0  0  0  0  0  0  0  0  0  0  0
   -6.2503   -2.7132    0.4089 H   0  0  0  0  0  0  0  0  0  0  0  0
   -6.0603   -1.8454   -1.0792 H   0  0  0  0  0  0  0  0  0  0  0  0
   -0.7756    0.1660   -3.1236 H   0  0  0  0  0  0  0  0  0  0  0  0
    0.6259    1.2293    1.9303 H   0  0  0  0  0  0  0  0  0  0  0  0
    1.8098    0.7674   -2.0964 H   0  0  0  0  0  0  0  0  0  0  0  0
    1.6567    3.2820    1.0415 H   0  0  0  0  0  0  0  0  0  0  0  0
    2.2392    3.0263   -1.3030 H   0  0  0  0  0  0  0  0  0  0  0  0
   -0.9400    3.2124    0.0649 H   0  0  0  0  0  0  0  0  0  0  0  0
   -0.5482    2.9018   -1.5517 H   0  0  0  0  0  0  0  0  0  0  0  0
    3.8784   -2.5327    1.4364 H   0  0  0  0  0  0  0  0  0  0  0  0
    5.1965   -3.3707    0.6531 H   0  0  0  0  0  0  0  0  0  0  0  0
    3.6211   -3.3220   -0.1011 H   0  0  0  0  0  0  0  0  0  0  0  0
    5.3799   -0.4066    1.4597 H   0  0  0  0  0  0  0  0  0  0  0  0
    6.0434    0.1232   -0.0675 H   0  0  0  0  0  0  0  0  0  0  0  0
    6.6204   -1.3514    0.6713 H   0  0  0  0  0  0  0  0  0  0  0  0
    4.6155   -2.4992   -2.1201 H   0  0  0  0  0  0  0  0  0  0  0  0
    6.1920   -2.5406   -1.3677 H   0  0  0  0  0  0  0  0  0  0  0  0
    5.6150   -1.0660   -2.1065 H   0  0  0  0  0  0  0  0  0  0  0  0
  1  2  2  0  0  0  0
  2  3  1  0  0  0  0
  2  4  1  0  0  0  0
  3  5  1  0  0  0  0
  3  6  1  0  0  0  0
  4  7  1  0  0  0  0
  4 29  1  0  0  0  0
  5  8  2  0  0  0  0
  5  9  1  0  0  0  0
  6 10  1  0  0  0  0
  6 30  1  0  0  0  0
  6 31  1  0  0  0  0
  7 11  2  0  0  0  0
  7 10  1  0  0  0  0
  8 12  1  0  0  0  0
  8 32  1  0  0  0  0
  9 13  2  0  0  0  0
  9 33  1  0  0  0  0
 10 34  1  0  0  0  0
 10 35  1  0  0  0  0
 12 14  2  0  0  0  0
 13 14  1  0  0  0  0
 13 36  1  0  0  0  0
 15 12  1  0  0  0  0
 15 17  1  0  0  0  0
 15 18  1  0  0  0  0
 15 37  1  1  0  0  0
 16 14  1  0  0  0  0
 16 19  1  0  0  0  0
 16 17  1  0  0  0  0
 16 38  1  6  0  0  0
 17 20  1  0  0  0  0
 18 21  1  0  0  0  0
 18 19  1  0  0  0  0
 18 39  1  1  0  0  0
 19 22  1  0  0  0  0
 19 40  1  6  0  0  0
 20 23  2  0  0  0  0
 20 24  1  0  0  0  0
 21 41  1  0  0  0  0
 22 42  1  0  0  0  0
 24 25  1  0  0  0  0
 25 26  1  0  0  0  0
 25 27  1  0  0  0  0
 25 28  1  0  0  0  0
 26 43  1  0  0  0  0
 26 44  1  0  0  0  0
 26 45  1  0  0  0  0
 27 46  1  0  0  0  0
 27 47  1  0  0  0  0
 27 48  1  0  0  0  0
 28 49  1  0  0  0  0
 28 50  1  0  0  0  0
 28 51  1  0  0  0  0
M  END
>  <Molecule Name>
Compound 4

>  <EC50 (µM) (Excel)>
11.8

>  <Error (µM)>
7.4

>  <HTRC CRBN-DDB1 EC50 (µM)>
11.78 ±  7.41

>  <EC50 fitting (µM)>
15.10

>  <Modèle Fitting>
4PL

>  <Parent_Compound>
Compound 4

>  <MMFF94s_energy_kcalmol>
179.945
$$$$
