Compound_4_s9
 OpenBabel09072607323D

 51 54  0  0  0  0  0  0  0  0999 V2000
   -3.3000    0.6124    2.9061 O   0  0  0  0  0  0  0  0  0  0  0  0
   -4.2791    0.5538    2.1176 C   0  0  0  0  0  0  0  0  0  0  0  0
   -4.0832    0.0813    0.8078 N   0  0  0  0  0  0  0  0  0  0  0  0
   -5.5849    0.9556    2.5206 N   0  0  0  0  0  0  0  0  0  0  0  0
   -2.8116    0.1791    0.1921 C   0  0  0  0  0  0  0  0  0  0  0  0
   -5.2165   -0.5081    0.1051 C   0  0  0  0  0  0  0  0  0  0  0  0
   -6.6255    0.8534    1.5619 C   0  0  0  0  0  0  0  0  0  0  0  0
   -1.9063   -0.8588    0.3314 C   0  0  0  0  0  0  0  0  0  0  0  0
   -2.5415    1.3230   -0.5246 C   0  0  0  0  0  0  0  0  0  0  0  0
   -6.3550    0.4911    0.1449 C   0  0  0  0  0  0  0  0  0  0  0  0
   -7.8179    1.0685    1.8859 O   0  0  0  0  0  0  0  0  0  0  0  0
   -0.6787   -0.7688   -0.2608 C   0  0  0  0  0  0  0  0  0  0  0  0
   -1.2898    1.4178   -1.1299 C   0  0  0  0  0  0  0  0  0  0  0  0
   -0.3962    0.3822   -0.9865 C   0  0  0  0  0  0  0  0  0  0  0  0
    0.5475   -1.6074   -0.3706 C   0  0  2  0  0  0  0  0  0  0  0  0
    0.9850    0.2267   -1.5155 C   0  0  1  0  0  0  0  0  0  0  0  0
    1.5544   -0.5694   -0.4428 N   0  0  0  0  0  0  0  0  0  0  0  0
    0.5819   -2.0872   -1.8081 C   0  0  1  0  0  0  0  0  0  0  0  0
    0.9017   -0.8203   -2.6038 C   0  0  1  0  0  0  0  0  0  0  0  0
    2.7361   -0.3176    0.2504 C   0  0  0  0  0  0  0  0  0  0  0  0
    1.5593   -3.0516   -2.0125 O   0  0  0  0  0  0  0  0  0  0  0  0
   -0.1562   -0.5171   -3.4384 O   0  0  0  0  0  0  0  0  0  0  0  0
    3.1178   -1.1103    1.1781 O   0  0  0  0  0  0  0  0  0  0  0  0
    3.5723    0.7573    0.0190 O   0  0  0  0  0  0  0  0  0  0  0  0
    4.7578    0.9994    0.7228 C   0  0  0  0  0  0  0  0  0  0  0  0
    5.7593   -0.1190    0.5912 C   0  0  0  0  0  0  0  0  0  0  0  0
    5.3986    2.2470    0.1480 C   0  0  0  0  0  0  0  0  0  0  0  0
    4.5226    1.2477    2.1966 C   0  0  0  0  0  0  0  0  0  0  0  0
   -5.7586    1.2914    3.4296 H   0  0  0  0  0  0  0  0  0  0  0  0
   -5.5119   -1.4163    0.5876 H   0  0  0  0  0  0  0  0  0  0  0  0
   -4.9527   -0.7348   -0.9068 H   0  0  0  0  0  0  0  0  0  0  0  0
   -2.1575   -1.6962    0.8798 H   0  0  0  0  0  0  0  0  0  0  0  0
   -3.2379    2.0798   -0.6102 H   0  0  0  0  0  0  0  0  0  0  0  0
   -7.2310    0.0556   -0.2884 H   0  0  0  0  0  0  0  0  0  0  0  0
   -6.0898    1.3667   -0.4099 H   0  0  0  0  0  0  0  0  0  0  0  0
   -1.0367    2.2543   -1.6787 H   0  0  0  0  0  0  0  0  0  0  0  0
    0.6315   -2.3770    0.3680 H   0  0  0  0  0  0  0  0  0  0  0  0
    1.4594    1.1375   -1.8161 H   0  0  0  0  0  0  0  0  0  0  0  0
   -0.3373   -2.5517   -2.0982 H   0  0  0  0  0  0  0  0  0  0  0  0
    1.7796   -0.9001   -3.2102 H   0  0  0  0  0  0  0  0  0  0  0  0
    2.4256   -2.6912   -1.7664 H   0  0  0  0  0  0  0  0  0  0  0  0
   -0.9689   -0.4382   -2.9147 H   0  0  0  0  0  0  0  0  0  0  0  0
    5.9426   -0.3136   -0.4449 H   0  0  0  0  0  0  0  0  0  0  0  0
    5.3720   -1.0012    1.0567 H   0  0  0  0  0  0  0  0  0  0  0  0
    6.6744    0.1637    1.0683 H   0  0  0  0  0  0  0  0  0  0  0  0
    5.5796    2.1058   -0.8971 H   0  0  0  0  0  0  0  0  0  0  0  0
    6.3256    2.4348    0.6484 H   0  0  0  0  0  0  0  0  0  0  0  0
    4.7430    3.0811    0.2869 H   0  0  0  0  0  0  0  0  0  0  0  0
    4.0694    0.3837    2.6360 H   0  0  0  0  0  0  0  0  0  0  0  0
    3.8747    2.0907    2.3173 H   0  0  0  0  0  0  0  0  0  0  0  0
    5.4573    1.4443    2.6788 H   0  0  0  0  0  0  0  0  0  0  0  0
  1  2  2  0  0  0  0
  2  3  1  0  0  0  0
  2  4  1  0  0  0  0
  3  5  1  0  0  0  0
  3  6  1  0  0  0  0
  4  7  1  0  0  0  0
  4 29  1  0  0  0  0
  5  8  2  0  0  0  0
  5  9  1  0  0  0  0
  6 10  1  0  0  0  0
  6 30  1  0  0  0  0
  6 31  1  0  0  0  0
  7 11  2  0  0  0  0
  7 10  1  0  0  0  0
  8 12  1  0  0  0  0
  8 32  1  0  0  0  0
  9 13  2  0  0  0  0
  9 33  1  0  0  0  0
 10 34  1  0  0  0  0
 10 35  1  0  0  0  0
 12 14  2  0  0  0  0
 13 14  1  0  0  0  0
 13 36  1  0  0  0  0
 15 12  1  0  0  0  0
 15 17  1  0  0  0  0
 15 18  1  0  0  0  0
 15 37  1  1  0  0  0
 16 14  1  0  0  0  0
 16 19  1  0  0  0  0
 16 17  1  0  0  0  0
 16 38  1  6  0  0  0
 17 20  1  0  0  0  0
 18 21  1  0  0  0  0
 18 19  1  0  0  0  0
 18 39  1  6  0  0  0
 19 22  1  0  0  0  0
 19 40  1  6  0  0  0
 20 23  2  0  0  0  0
 20 24  1  0  0  0  0
 21 41  1  0  0  0  0
 22 42  1  0  0  0  0
 24 25  1  0  0  0  0
 25 26  1  0  0  0  0
 25 27  1  0  0  0  0
 25 28  1  0  0  0  0
 26 43  1  0  0  0  0
 26 44  1  0  0  0  0
 26 45  1  0  0  0  0
 27 46  1  0  0  0  0
 27 47  1  0  0  0  0
 27 48  1  0  0  0  0
 28 49  1  0  0  0  0
 28 50  1  0  0  0  0
 28 51  1  0  0  0  0
M  END
>  <Molecule Name>
Compound 4

>  <EC50 (µM) (Excel)>
11.8

>  <Error (µM)>
7.4

>  <HTRC CRBN-DDB1 EC50 (µM)>
11.78 ±  7.41

>  <EC50 fitting (µM)>
15.10

>  <Modèle Fitting>
4PL

>  <Parent_Compound>
Compound 4

>  <MMFF94s_energy_kcalmol>
153.088
$$$$
