Compound_4_s16


 31 34  0  0  0  0  0  0  0  0999 V2000
   84.1340  154.8819   14.2582 C   0  0  0  0  0  0  0  0  0  0  0  0
   84.9028  153.7299   14.3269 C   0  0  0  0  0  0  0  0  0  0  0  0
   82.7698  154.6813   14.2623 C   0  0  0  0  0  0  0  0  0  0  0  0
   84.3357  152.4740   14.3947 C   0  0  0  0  0  0  0  0  0  0  0  0
   82.1919  153.4328   14.3294 C   0  0  0  0  0  0  0  0  0  0  0  0
   82.9660  152.3040   14.3968 C   0  0  0  0  0  0  0  0  0  0  0  0
   84.9017  151.0884   14.4843 C   0  0  0  0  0  0  0  0  0  0  0  0
   82.7074  150.8380   14.4696 C   0  0  0  0  0  0  0  0  0  0  0  0
   83.8436  150.4463   15.2857 N   0  0  0  0  0  0  0  0  0  0  0  0
   84.6678  150.4317   13.1656 C   0  0  0  0  0  0  0  0  0  0  0  0
   83.1529  150.2723   13.1421 C   0  0  0  0  0  0  0  0  0  0  0  0
   83.9198  149.7014   16.4549 C   0  0  0  0  0  0  0  0  0  0  0  0
   85.3084  149.2083   13.0337 O   0  0  0  0  0  0  0  0  0  0  0  0
   82.8528  148.9216   13.0152 O   0  0  0  0  0  0  0  0  0  0  0  0
   84.9831  149.4355   17.0625 O   0  0  0  0  0  0  0  0  0  0  0  0
   85.0111  148.6101   13.7371 H   0  0  0  0  0  0  0  0  0  0  0  0
   83.2771  148.4272   13.7339 H   0  0  0  0  0  0  0  0  0  0  0  0
   84.5629  156.1080   11.8784 O   0  0  0  0  0  0  0  0  0  0  0  0
   84.7217  156.8382   12.9003 C   0  0  0  0  0  0  0  0  0  0  0  0
   84.6721  156.1942   14.1871 N   0  0  0  0  0  0  0  0  0  0  0  0
   84.9382  158.2312   12.7627 N   0  0  0  0  0  0  0  0  0  0  0  0
   85.1732  156.9288   15.3119 C   0  0  0  0  0  0  0  0  0  0  0  0
   85.1074  158.9780   13.9716 C   0  0  0  0  0  0  0  0  0  0  0  0
   84.6248  158.3402   15.2239 C   0  0  0  0  0  0  0  0  0  0  0  0
   85.6431  160.1157   13.9345 O   0  0  0  0  0  0  0  0  0  0  0  0
   84.9707  158.6641   11.8791 H   0  0  0  0  0  0  0  0  0  0  0  0
   82.7447  149.2096   17.0018 O   0  0  0  0  0  0  0  0  0  0  0  0
   81.9841  149.8640   17.9767 C   0  0  0  0  0  0  0  0  0  0  0  0
   81.3390  148.8586   18.8939 C   0  0  0  0  0  0  0  0  0  0  0  0
   80.9291  150.7694   17.3819 C   0  0  0  0  0  0  0  0  0  0  0  0
   82.9208  150.7358   18.7874 C   0  0  0  0  0  0  0  0  0  0  0  0
 18 19  2  0
 19 20  1  0
 19 21  1  0
 20  1  1  0
 20 22  1  0
 21 23  1  0
 21 26  1  0
  1  2  2  0
  1  3  1  0
 22 24  1  0
 23 25  2  0
 23 24  1  0
  2  4  1  0
  3  5  2  0
  4  6  2  0
  5  6  1  0
  7  4  1  0
  7  9  1  0
  7 10  1  0
  8  6  1  0
  8 11  1  0
  8  9  1  0
  9 12  1  0
 10 13  1  0
 10 11  1  0
 11 14  1  0
 12 15  2  0
 12 27  1  0
 13 16  1  0
 14 17  1  0
 27 28  1  0
 28 29  1  0
 28 30  1  0
 28 31  1  0
M  END
> <Molecule Name>
Compound 4

> <EC50 (µM) (Excel)>
11.8

> <Error (µM)>
7.4

> <HTRC CRBN-DDB1 EC50 (µM)>
11.78 ±  7.41

> <EC50 fitting (µM)>
15.10

> <Modèle Fitting>
4PL

> <Parent_Compound>
Compound 4

> <MMFF94s_energy_kcalmol>
166.183
$$$$

> <minimizedAffinity>
-9.23484

> <CNNscore>
0.9668022990

> <CNNaffinity>
7.2184119225

> <CNN_VS>
6.9787774086

> <CNNaffinity_variance>
0.2016038150

$$$$
Compound_4_s16


 31 34  0  0  0  0  0  0  0  0999 V2000
   84.4919  154.4768   13.9500 C   0  0  0  0  0  0  0  0  0  0  0  0
   83.6149  153.9270   14.8728 C   0  0  0  0  0  0  0  0  0  0  0  0
   84.9863  153.5974   13.0100 C   0  0  0  0  0  0  0  0  0  0  0  0
   83.2657  152.5926   14.8463 C   0  0  0  0  0  0  0  0  0  0  0  0
   84.6454  152.2633   12.9735 C   0  0  0  0  0  0  0  0  0  0  0  0
   83.7772  151.7355   13.8930 C   0  0  0  0  0  0  0  0  0  0  0  0
   82.3588  151.7453   15.6875 C   0  0  0  0  0  0  0  0  0  0  0  0
   83.2019  150.3874   14.1633 C   0  0  0  0  0  0  0  0  0  0  0  0
   81.8985  150.7914   14.6616 N   0  0  0  0  0  0  0  0  0  0  0  0
   83.2272  150.8512   16.5070 C   0  0  0  0  0  0  0  0  0  0  0  0
   83.8256  149.9228   15.4578 C   0  0  0  0  0  0  0  0  0  0  0  0
   80.6163  150.4062   14.2940 C   0  0  0  0  0  0  0  0  0  0  0  0
   82.5341  150.1409   17.4763 O   0  0  0  0  0  0  0  0  0  0  0  0
   83.4765  148.6157   15.7741 O   0  0  0  0  0  0  0  0  0  0  0  0
   79.5638  150.8421   14.8166 O   0  0  0  0  0  0  0  0  0  0  0  0
   81.8452  149.6046   17.0536 H   0  0  0  0  0  0  0  0  0  0  0  0
   82.5113  148.5455   15.8391 H   0  0  0  0  0  0  0  0  0  0  0  0
   84.7484  155.8537   11.6285 O   0  0  0  0  0  0  0  0  0  0  0  0
   84.8400  156.5481   12.6831 C   0  0  0  0  0  0  0  0  0  0  0  0
   84.8804  155.8427   13.9376 N   0  0  0  0  0  0  0  0  0  0  0  0
   84.8989  157.9615   12.6111 N   0  0  0  0  0  0  0  0  0  0  0  0
   85.3129  156.5748   15.0921 C   0  0  0  0  0  0  0  0  0  0  0  0
   85.0016  158.6647   13.8531 C   0  0  0  0  0  0  0  0  0  0  0  0
   84.6105  157.9189   15.0774 C   0  0  0  0  0  0  0  0  0  0  0  0
   85.4074  159.8554   13.8664 O   0  0  0  0  0  0  0  0  0  0  0  0
   84.8707  158.4364   11.7492 H   0  0  0  0  0  0  0  0  0  0  0  0
   80.4730  149.4739   13.2781 O   0  0  0  0  0  0  0  0  0  0  0  0
   79.3066  148.7443   13.0243 C   0  0  0  0  0  0  0  0  0  0  0  0
   79.3489  147.4269   13.7528 C   0  0  0  0  0  0  0  0  0  0  0  0
   79.0760  148.5094   11.5484 C   0  0  0  0  0  0  0  0  0  0  0  0
   78.1334  149.5517   13.5406 C   0  0  0  0  0  0  0  0  0  0  0  0
 18 19  2  0
 19 20  1  0
 19 21  1  0
 20  1  1  0
 20 22  1  0
 21 23  1  0
 21 26  1  0
  1  2  2  0
  1  3  1  0
 22 24  1  0
 23 25  2  0
 23 24  1  0
  2  4  1  0
  3  5  2  0
  4  6  2  0
  5  6  1  0
  7  4  1  0
  7  9  1  0
  7 10  1  0
  8  6  1  0
  8 11  1  0
  8  9  1  0
  9 12  1  0
 10 13  1  0
 10 11  1  0
 11 14  1  0
 12 15  2  0
 12 27  1  0
 13 16  1  0
 14 17  1  0
 27 28  1  0
 28 29  1  0
 28 30  1  0
 28 31  1  0
M  END
> <Molecule Name>
Compound 4

> <EC50 (µM) (Excel)>
11.8

> <Error (µM)>
7.4

> <HTRC CRBN-DDB1 EC50 (µM)>
11.78 ±  7.41

> <EC50 fitting (µM)>
15.10

> <Modèle Fitting>
4PL

> <Parent_Compound>
Compound 4

> <MMFF94s_energy_kcalmol>
166.183
$$$$

> <minimizedAffinity>
-9.31930

> <CNNscore>
0.9026932120

> <CNNaffinity>
6.9173946381

> <CNN_VS>
6.2442851067

> <CNNaffinity_variance>
0.1495946646

$$$$
Compound_4_s16


 31 34  0  0  0  0  0  0  0  0999 V2000
   85.0485  154.1005   14.5169 C   0  0  0  0  0  0  0  0  0  0  0  0
   84.6342  153.1975   13.5495 C   0  0  0  0  0  0  0  0  0  0  0  0
   85.2576  153.5665   15.7709 C   0  0  0  0  0  0  0  0  0  0  0  0
   84.4464  151.8596   13.8291 C   0  0  0  0  0  0  0  0  0  0  0  0
   85.0733  152.2330   16.0623 C   0  0  0  0  0  0  0  0  0  0  0  0
   84.6634  151.3534   15.0947 C   0  0  0  0  0  0  0  0  0  0  0  0
   84.0237  150.6812   13.0040 C   0  0  0  0  0  0  0  0  0  0  0  0
   84.3606  149.8951   15.0402 C   0  0  0  0  0  0  0  0  0  0  0  0
   84.7951  149.6226   13.6811 N   0  0  0  0  0  0  0  0  0  0  0  0
   82.6428  150.3161   13.4338 C   0  0  0  0  0  0  0  0  0  0  0  0
   82.8667  149.7891   14.8455 C   0  0  0  0  0  0  0  0  0  0  0  0
   85.6637  148.6677   13.1698 C   0  0  0  0  0  0  0  0  0  0  0  0
   82.0444  149.3608   12.6251 O   0  0  0  0  0  0  0  0  0  0  0  0
   82.4177  148.4755   14.9031 O   0  0  0  0  0  0  0  0  0  0  0  0
   85.9527  148.5439   11.9566 O   0  0  0  0  0  0  0  0  0  0  0  0
   82.5900  148.5588   12.6140 H   0  0  0  0  0  0  0  0  0  0  0  0
   82.8684  147.9496   14.2240 H   0  0  0  0  0  0  0  0  0  0  0  0
   86.0544  154.9928   12.1625 O   0  0  0  0  0  0  0  0  0  0  0  0
   85.6399  155.8930   12.9504 C   0  0  0  0  0  0  0  0  0  0  0  0
   85.2550  155.4848   14.2764 N   0  0  0  0  0  0  0  0  0  0  0  0
   85.5649  157.2421   12.5257 N   0  0  0  0  0  0  0  0  0  0  0  0
   85.1068  156.5121   15.2656 C   0  0  0  0  0  0  0  0  0  0  0  0
   85.0848  158.1916   13.4826 C   0  0  0  0  0  0  0  0  0  0  0  0
   84.3236  157.6492   14.6379 C   0  0  0  0  0  0  0  0  0  0  0  0
   85.3164  159.4172   13.3185 O   0  0  0  0  0  0  0  0  0  0  0  0
   85.8300  157.5132   11.6172 H   0  0  0  0  0  0  0  0  0  0  0  0
   86.2620  147.7805   14.0511 O   0  0  0  0  0  0  0  0  0  0  0  0
   85.9103  146.4333   14.1877 C   0  0  0  0  0  0  0  0  0  0  0  0
   85.7556  146.0817   15.6438 C   0  0  0  0  0  0  0  0  0  0  0  0
   86.9077  145.5019   13.5362 C   0  0  0  0  0  0  0  0  0  0  0  0
   84.5809  146.2285   13.4908 C   0  0  0  0  0  0  0  0  0  0  0  0
 18 19  2  0
 19 20  1  0
 19 21  1  0
 20  1  1  0
 20 22  1  0
 21 23  1  0
 21 26  1  0
  1  2  2  0
  1  3  1  0
 22 24  1  0
 23 25  2  0
 23 24  1  0
  2  4  1  0
  3  5  2  0
  4  6  2  0
  5  6  1  0
  7  4  1  0
  7  9  1  0
  7 10  1  0
  8  6  1  0
  8 11  1  0
  8  9  1  0
  9 12  1  0
 10 13  1  0
 10 11  1  0
 11 14  1  0
 12 15  2  0
 12 27  1  0
 13 16  1  0
 14 17  1  0
 27 28  1  0
 28 29  1  0
 28 30  1  0
 28 31  1  0
M  END
> <Molecule Name>
Compound 4

> <EC50 (µM) (Excel)>
11.8

> <Error (µM)>
7.4

> <HTRC CRBN-DDB1 EC50 (µM)>
11.78 ±  7.41

> <EC50 fitting (µM)>
15.10

> <Modèle Fitting>
4PL

> <Parent_Compound>
Compound 4

> <MMFF94s_energy_kcalmol>
166.183
$$$$

> <minimizedAffinity>
-7.73242

> <CNNscore>
0.7493991256

> <CNNaffinity>
6.7882347107

> <CNN_VS>
5.0870971680

> <CNNaffinity_variance>
0.6579862237

$$$$
Compound_4_s16


 31 34  0  0  0  0  0  0  0  0999 V2000
   84.9024  153.9995   13.8865 C   0  0  0  0  0  0  0  0  0  0  0  0
   85.7635  153.0361   14.3897 C   0  0  0  0  0  0  0  0  0  0  0  0
   83.7292  153.5171   13.3460 C   0  0  0  0  0  0  0  0  0  0  0  0
   85.4610  151.6906   14.3493 C   0  0  0  0  0  0  0  0  0  0  0  0
   83.4161  152.1766   13.2997 C   0  0  0  0  0  0  0  0  0  0  0  0
   84.2783  151.2369   13.8014 C   0  0  0  0  0  0  0  0  0  0  0  0
   86.1761  150.4567   14.8122 C   0  0  0  0  0  0  0  0  0  0  0  0
   84.2850  149.7509   13.9158 C   0  0  0  0  0  0  0  0  0  0  0  0
   85.0134  149.6218   15.1661 N   0  0  0  0  0  0  0  0  0  0  0  0
   86.6524  149.7411   13.5932 C   0  0  0  0  0  0  0  0  0  0  0  0
   85.3501  149.2667   12.9609 C   0  0  0  0  0  0  0  0  0  0  0  0
   84.7166  148.9314   16.3335 C   0  0  0  0  0  0  0  0  0  0  0  0
   87.4987  148.6772   13.8696 O   0  0  0  0  0  0  0  0  0  0  0  0
   85.3845  147.8810   12.8653 O   0  0  0  0  0  0  0  0  0  0  0  0
   85.4468  148.9061   17.3518 O   0  0  0  0  0  0  0  0  0  0  0  0
   87.0437  148.0432   14.4456 H   0  0  0  0  0  0  0  0  0  0  0  0
   85.5429  147.5002   13.7433 H   0  0  0  0  0  0  0  0  0  0  0  0
   85.9674  155.2654   11.7384 O   0  0  0  0  0  0  0  0  0  0  0  0
   85.5848  156.0222   12.6784 C   0  0  0  0  0  0  0  0  0  0  0  0
   85.1704  155.3940   13.9058 N   0  0  0  0  0  0  0  0  0  0  0  0
   85.5718  157.4285   12.5099 N   0  0  0  0  0  0  0  0  0  0  0  0
   85.0575  156.2269   15.0675 C   0  0  0  0  0  0  0  0  0  0  0  0
   85.1241  158.2055   13.6251 C   0  0  0  0  0  0  0  0  0  0  0  0
   84.3297  157.4935   14.6595 C   0  0  0  0  0  0  0  0  0  0  0  0
   85.4097  159.4290   13.6902 O   0  0  0  0  0  0  0  0  0  0  0  0
   85.8567  157.8505   11.6673 H   0  0  0  0  0  0  0  0  0  0  0  0
   83.5318  148.2141   16.3930 O   0  0  0  0  0  0  0  0  0  0  0  0
   83.4196  146.8393   16.1594 C   0  0  0  0  0  0  0  0  0  0  0  0
   82.8072  146.1575   17.3544 C   0  0  0  0  0  0  0  0  0  0  0  0
   84.7459  146.1955   15.8229 C   0  0  0  0  0  0  0  0  0  0  0  0
   82.5086  146.6451   14.9648 C   0  0  0  0  0  0  0  0  0  0  0  0
 18 19  2  0
 19 20  1  0
 19 21  1  0
 20  1  1  0
 20 22  1  0
 21 23  1  0
 21 26  1  0
  1  2  2  0
  1  3  1  0
 22 24  1  0
 23 25  2  0
 23 24  1  0
  2  4  1  0
  3  5  2  0
  4  6  2  0
  5  6  1  0
  7  4  1  0
  7  9  1  0
  7 10  1  0
  8  6  1  0
  8 11  1  0
  8  9  1  0
  9 12  1  0
 10 13  1  0
 10 11  1  0
 11 14  1  0
 12 15  2  0
 12 27  1  0
 13 16  1  0
 14 17  1  0
 27 28  1  0
 28 29  1  0
 28 30  1  0
 28 31  1  0
M  END
> <Molecule Name>
Compound 4

> <EC50 (µM) (Excel)>
11.8

> <Error (µM)>
7.4

> <HTRC CRBN-DDB1 EC50 (µM)>
11.78 ±  7.41

> <EC50 fitting (µM)>
15.10

> <Modèle Fitting>
4PL

> <Parent_Compound>
Compound 4

> <MMFF94s_energy_kcalmol>
166.183
$$$$

> <minimizedAffinity>
-7.38133

> <CNNscore>
0.6347247958

> <CNNaffinity>
6.4703202248

> <CNN_VS>
4.1068725586

> <CNNaffinity_variance>
0.1524564326

$$$$
Compound_4_s16


 31 34  0  0  0  0  0  0  0  0999 V2000
   85.8256  153.4537   12.7268 C   0  0  0  0  0  0  0  0  0  0  0  0
   87.0007  153.0318   12.1234 C   0  0  0  0  0  0  0  0  0  0  0  0
   84.8391  152.4958   12.8300 C   0  0  0  0  0  0  0  0  0  0  0  0
   87.1646  151.7423   11.6611 C   0  0  0  0  0  0  0  0  0  0  0  0
   84.9907  151.2057   12.3721 C   0  0  0  0  0  0  0  0  0  0  0  0
   86.1586  150.8046   11.7779 C   0  0  0  0  0  0  0  0  0  0  0  0
   88.2962  151.0205   10.9929 C   0  0  0  0  0  0  0  0  0  0  0  0
   86.6673  149.5401   11.1749 C   0  0  0  0  0  0  0  0  0  0  0  0
   88.0702  149.6662   11.5304 N   0  0  0  0  0  0  0  0  0  0  0  0
   87.9027  150.8075    9.5699 C   0  0  0  0  0  0  0  0  0  0  0  0
   86.7667  149.7997    9.6905 C   0  0  0  0  0  0  0  0  0  0  0  0
   88.9354  148.7919   12.1743 C   0  0  0  0  0  0  0  0  0  0  0  0
   88.9313  150.3196    8.7770 O   0  0  0  0  0  0  0  0  0  0  0  0
   87.1106  148.6589    8.9758 O   0  0  0  0  0  0  0  0  0  0  0  0
   90.1403  149.0335   12.4202 O   0  0  0  0  0  0  0  0  0  0  0  0
   89.2498  149.4791    9.1416 H   0  0  0  0  0  0  0  0  0  0  0  0
   87.9588  148.3177    9.2999 H   0  0  0  0  0  0  0  0  0  0  0  0
   86.2017  155.6294   11.1534 O   0  0  0  0  0  0  0  0  0  0  0  0
   85.6758  155.8611   12.2815 C   0  0  0  0  0  0  0  0  0  0  0  0
   85.6111  154.7690   13.2175 N   0  0  0  0  0  0  0  0  0  0  0  0
   85.1766  157.1498   12.5916 N   0  0  0  0  0  0  0  0  0  0  0  0
   85.3331  155.0898   14.5870 C   0  0  0  0  0  0  0  0  0  0  0  0
   84.5992  157.3204   13.8898 C   0  0  0  0  0  0  0  0  0  0  0  0
   84.1884  156.0847   14.6058 C   0  0  0  0  0  0  0  0  0  0  0  0
   84.4628  158.4763   14.3670 O   0  0  0  0  0  0  0  0  0  0  0  0
   85.2246  157.8915   11.9460 H   0  0  0  0  0  0  0  0  0  0  0  0
   88.4470  147.5597   12.5805 O   0  0  0  0  0  0  0  0  0  0  0  0
   87.8507  147.3079   13.8207 C   0  0  0  0  0  0  0  0  0  0  0  0
   86.5045  146.6609   13.6283 C   0  0  0  0  0  0  0  0  0  0  0  0
   87.7064  148.5563   14.6619 C   0  0  0  0  0  0  0  0  0  0  0  0
   88.7482  146.3536   14.5813 C   0  0  0  0  0  0  0  0  0  0  0  0
 18 19  2  0
 19 20  1  0
 19 21  1  0
 20  1  1  0
 20 22  1  0
 21 23  1  0
 21 26  1  0
  1  2  2  0
  1  3  1  0
 22 24  1  0
 23 25  2  0
 23 24  1  0
  2  4  1  0
  3  5  2  0
  4  6  2  0
  5  6  1  0
  7  4  1  0
  7  9  1  0
  7 10  1  0
  8  6  1  0
  8 11  1  0
  8  9  1  0
  9 12  1  0
 10 13  1  0
 10 11  1  0
 11 14  1  0
 12 15  2  0
 12 27  1  0
 13 16  1  0
 14 17  1  0
 27 28  1  0
 28 29  1  0
 28 30  1  0
 28 31  1  0
M  END
> <Molecule Name>
Compound 4

> <EC50 (µM) (Excel)>
11.8

> <Error (µM)>
7.4

> <HTRC CRBN-DDB1 EC50 (µM)>
11.78 ±  7.41

> <EC50 fitting (µM)>
15.10

> <Modèle Fitting>
4PL

> <Parent_Compound>
Compound 4

> <MMFF94s_energy_kcalmol>
166.183
$$$$

> <minimizedAffinity>
-6.31930

> <CNNscore>
0.3095610738

> <CNNaffinity>
5.1260075569

> <CNN_VS>
1.5868123770

> <CNNaffinity_variance>
0.2582785189

$$$$
