Compound_11_ent1
 OpenBabel09072607323D

 60 63  0  0  0  0  0  0  0  0999 V2000
    1.7629    0.1904   -0.5714 S   0  0  0  0  0  0  0  0  0  0  0  0
    1.4507    1.6319   -0.1270 O   0  0  0  0  0  0  0  0  0  0  0  0
    0.8041    0.0072   -1.7521 O   0  0  0  0  0  0  0  0  0  0  0  0
    1.3965   -0.9280    0.6084 N   0  0  0  0  0  0  0  0  0  0  0  0
    3.3671    0.0983   -1.2568 C   0  0  0  0  0  0  0  0  0  0  0  0
    2.3700   -1.2107    1.5893 C   0  0  0  0  0  0  0  0  0  0  0  0
    0.5089   -1.9641    0.2424 C   0  0  0  0  0  0  0  0  0  0  0  0
    4.5179   -0.0889   -0.3690 C   0  0  0  0  0  0  0  0  0  0  0  0
    3.2355   -0.0361    1.9503 C   0  0  0  0  0  0  0  0  0  0  0  0
   -0.9056   -1.6111    0.5993 C   0  0  0  0  0  0  0  0  0  0  0  0
    4.3686    0.1319    1.0388 N   0  0  0  0  0  0  0  0  0  0  0  0
   -1.8123   -1.1319   -0.2930 C   0  0  0  0  0  0  0  0  0  0  0  0
   -1.3302   -1.7337    1.9170 C   0  0  0  0  0  0  0  0  0  0  0  0
    5.5580    0.6006    1.6611 C   0  0  0  0  0  0  0  0  0  0  0  0
   -3.1049   -0.7678    0.0437 C   0  0  0  0  0  0  0  0  0  0  0  0
   -2.6022   -1.3857    2.2955 C   0  0  0  0  0  0  0  0  0  0  0  0
    5.5540    0.8281    2.8889 O   0  0  0  0  0  0  0  0  0  0  0  0
    6.7736    0.8206    0.9018 C   0  0  0  0  0  0  0  0  0  0  0  0
   -4.0136   -0.2566   -0.9954 C   0  0  0  0  0  0  0  0  0  0  0  0
   -3.4901   -0.9006    1.3504 C   0  0  0  0  0  0  0  0  0  0  0  0
    7.2871    2.0839    0.7689 N   0  0  0  0  0  0  0  0  0  0  0  0
    7.4347   -0.2231    0.2968 C   0  0  0  0  0  0  0  0  0  0  0  0
   -3.5969   -0.1661   -2.2012 O   0  0  0  0  0  0  0  0  0  0  0  0
   -5.3389    0.1547   -0.7782 N   0  0  0  0  0  0  0  0  0  0  0  0
    8.4030    2.3248    0.0727 C   0  0  0  0  0  0  0  0  0  0  0  0
    8.5793   -0.0024   -0.4221 C   0  0  0  0  0  0  0  0  0  0  0  0
   -6.1902    0.6567   -1.8401 C   0  0  2  0  0  0  0  0  0  0  0  0
    9.0871    1.2808   -0.5484 C   0  0  0  0  0  0  0  0  0  0  0  0
   -6.6559    2.0079   -1.4734 C   0  0  0  0  0  0  0  0  0  0  0  0
   -7.3477   -0.3022   -1.9982 C   0  0  0  0  0  0  0  0  0  0  0  0
   -6.0784    3.0176   -1.9111 O   0  0  0  0  0  0  0  0  0  0  0  0
   -7.7714    2.1282   -0.6151 N   0  0  0  0  0  0  0  0  0  0  0  0
   -8.3046   -0.2934   -0.8633 C   0  0  0  0  0  0  0  0  0  0  0  0
   -8.3032    0.9389   -0.0449 C   0  0  0  0  0  0  0  0  0  0  0  0
   -8.7563    0.9627    1.1333 O   0  0  0  0  0  0  0  0  0  0  0  0
    3.5307    1.0106   -1.7914 H   0  0  0  0  0  0  0  0  0  0  0  0
    3.3441   -0.8023   -1.8342 H   0  0  0  0  0  0  0  0  0  0  0  0
    3.0009   -1.9926    1.2212 H   0  0  0  0  0  0  0  0  0  0  0  0
    1.8420   -1.4897    2.4771 H   0  0  0  0  0  0  0  0  0  0  0  0
    0.7863   -2.8605    0.7566 H   0  0  0  0  0  0  0  0  0  0  0  0
    0.5683   -2.1059   -0.8165 H   0  0  0  0  0  0  0  0  0  0  0  0
    5.2839    0.5766   -0.7085 H   0  0  0  0  0  0  0  0  0  0  0  0
    4.7193   -1.1375   -0.4380 H   0  0  0  0  0  0  0  0  0  0  0  0
    3.6119   -0.1801    2.9415 H   0  0  0  0  0  0  0  0  0  0  0  0
    2.6313    0.8442    1.8805 H   0  0  0  0  0  0  0  0  0  0  0  0
   -1.5203   -1.0339   -1.2780 H   0  0  0  0  0  0  0  0  0  0  0  0
   -0.6738   -2.0947    2.6268 H   0  0  0  0  0  0  0  0  0  0  0  0
   -2.8957   -1.4850    3.2799 H   0  0  0  0  0  0  0  0  0  0  0  0
   -4.4473   -0.6378    1.6326 H   0  0  0  0  0  0  0  0  0  0  0  0
    7.0643   -1.1823    0.3856 H   0  0  0  0  0  0  0  0  0  0  0  0
   -5.7058    0.1000    0.1337 H   0  0  0  0  0  0  0  0  0  0  0  0
    8.7602    3.2899   -0.0054 H   0  0  0  0  0  0  0  0  0  0  0  0
    9.0653   -0.7943   -0.8713 H   0  0  0  0  0  0  0  0  0  0  0  0
   -5.6652    0.7254   -2.7699 H   0  0  0  0  0  0  0  0  0  0  0  0
    9.9487    1.4589   -1.0878 H   0  0  0  0  0  0  0  0  0  0  0  0
   -6.9527   -1.2918   -2.0964 H   0  0  0  0  0  0  0  0  0  0  0  0
   -7.8931    0.0141   -2.8627 H   0  0  0  0  0  0  0  0  0  0  0  0
   -8.1681    3.0074   -0.4179 H   0  0  0  0  0  0  0  0  0  0  0  0
   -8.0650   -1.1161   -0.2225 H   0  0  0  0  0  0  0  0  0  0  0  0
   -9.2801   -0.3587   -1.2982 H   0  0  0  0  0  0  0  0  0  0  0  0
  1  2  2  0  0  0  0
  1  3  2  0  0  0  0
  1  4  1  0  0  0  0
  1  5  1  0  0  0  0
  4  6  1  0  0  0  0
  4  7  1  0  0  0  0
  5  8  1  0  0  0  0
  5 36  1  0  0  0  0
  5 37  1  0  0  0  0
  6  9  1  0  0  0  0
  6 38  1  0  0  0  0
  6 39  1  0  0  0  0
  7 10  1  0  0  0  0
  7 40  1  0  0  0  0
  7 41  1  0  0  0  0
  8 11  1  0  0  0  0
  8 42  1  0  0  0  0
  8 43  1  0  0  0  0
  9 11  1  0  0  0  0
  9 44  1  0  0  0  0
  9 45  1  0  0  0  0
 10 12  2  0  0  0  0
 10 13  1  0  0  0  0
 11 14  1  0  0  0  0
 12 15  1  0  0  0  0
 12 46  1  0  0  0  0
 13 16  2  0  0  0  0
 13 47  1  0  0  0  0
 14 17  2  0  0  0  0
 14 18  1  0  0  0  0
 15 19  1  0  0  0  0
 15 20  2  0  0  0  0
 16 20  1  0  0  0  0
 16 48  1  0  0  0  0
 18 21  2  0  0  0  0
 18 22  1  0  0  0  0
 19 23  2  0  0  0  0
 19 24  1  0  0  0  0
 20 49  1  0  0  0  0
 21 25  1  0  0  0  0
 22 26  2  0  0  0  0
 22 50  1  0  0  0  0
 24 51  1  0  0  0  0
 25 28  2  0  0  0  0
 25 52  1  0  0  0  0
 26 28  1  0  0  0  0
 26 53  1  0  0  0  0
 27 24  1  0  0  0  0
 27 29  1  0  0  0  0
 27 30  1  0  0  0  0
 27 54  1  6  0  0  0
 28 55  1  0  0  0  0
 29 31  2  0  0  0  0
 29 32  1  0  0  0  0
 30 33  1  0  0  0  0
 30 56  1  0  0  0  0
 30 57  1  0  0  0  0
 32 34  1  0  0  0  0
 32 58  1  0  0  0  0
 33 34  1  0  0  0  0
 33 59  1  0  0  0  0
 33 60  1  0  0  0  0
 34 35  2  0  0  0  0
M  END
>  <Molecule Name>
Compound 11

>  <EC50 (µM) (Excel)>
37.7

>  <Error (µM)>
0.8

>  <HTRC CRBN-DDB1 EC50 (µM)>
37.72 ±  0.78

>  <EC50 fitting (µM)>
52.96

>  <Modèle Fitting>
3PL

>  <Parent_Compound>
Compound 11

>  <MMFF94s_energy_kcalmol>
162.965
$$$$
