Compound_11_ent1


 37 40  0  0  0  0  0  0  0  0999 V2000
   83.4061  150.2662   15.8060 C   0  0  0  0  0  0  0  0  0  0  0  0
   83.4496  149.3419   16.8018 C   0  0  0  0  0  0  0  0  0  0  0  0
   82.9460  151.5323   16.1482 C   0  0  0  0  0  0  0  0  0  0  0  0
   83.0640  149.5978   18.1067 C   0  0  0  0  0  0  0  0  0  0  0  0
   82.5542  151.8307   17.4287 C   0  0  0  0  0  0  0  0  0  0  0  0
   82.6152  150.8550   18.4092 C   0  0  0  0  0  0  0  0  0  0  0  0
   83.1460  148.5288   19.1153 C   0  0  0  0  0  0  0  0  0  0  0  0
   82.3525  147.5291   19.0328 O   0  0  0  0  0  0  0  0  0  0  0  0
   84.0438  148.5043   20.1951 N   0  0  0  0  0  0  0  0  0  0  0  0
   84.6772  149.2509   20.2983 H   0  0  0  0  0  0  0  0  0  0  0  0
   84.0777  147.4261   21.1649 C   0  0  0  0  0  0  0  0  0  0  0  0
   84.5093  147.9736   22.4653 C   0  0  0  0  0  0  0  0  0  0  0  0
   85.0428  146.3786   20.6592 C   0  0  0  0  0  0  0  0  0  0  0  0
   83.6734  148.2815   23.3319 O   0  0  0  0  0  0  0  0  0  0  0  0
   85.8918  148.1395   22.7031 N   0  0  0  0  0  0  0  0  0  0  0  0
   86.4658  146.8010   20.6810 C   0  0  0  0  0  0  0  0  0  0  0  0
   86.7863  147.8937   21.6252 C   0  0  0  0  0  0  0  0  0  0  0  0
   87.8213  148.6060   21.5011 O   0  0  0  0  0  0  0  0  0  0  0  0
   86.2256  148.4166   23.5869 H   0  0  0  0  0  0  0  0  0  0  0  0
   83.7825  149.9761   14.3823 C   0  0  0  0  0  0  0  0  0  0  0  0
   85.7369  151.7136   14.5785 S   0  0  0  0  0  0  0  0  0  0  0  0
   86.9827  151.7684   13.6741 O   0  0  0  0  0  0  0  0  0  0  0  0
   86.1772  150.7293   15.6666 O   0  0  0  0  0  0  0  0  0  0  0  0
   84.4079  151.0939   13.7867 N   0  0  0  0  0  0  0  0  0  0  0  0
   85.5106  153.2403   15.3968 C   0  0  0  0  0  0  0  0  0  0  0  0
   83.6032  151.9764   13.0362 C   0  0  0  0  0  0  0  0  0  0  0  0
   84.7834  154.3174   14.7196 C   0  0  0  0  0  0  0  0  0  0  0  0
   84.3622  153.1067   12.3994 C   0  0  0  0  0  0  0  0  0  0  0  0
   84.5565  154.2387   13.3071 N   0  0  0  0  0  0  0  0  0  0  0  0
   84.5087  155.5119   12.6760 C   0  0  0  0  0  0  0  0  0  0  0  0
   84.3139  155.5742   11.4442 O   0  0  0  0  0  0  0  0  0  0  0  0
   84.6817  156.7379   13.4308 C   0  0  0  0  0  0  0  0  0  0  0  0
   85.3473  157.8013   12.8799 N   0  0  0  0  0  0  0  0  0  0  0  0
   84.1904  156.8629   14.7096 C   0  0  0  0  0  0  0  0  0  0  0  0
   85.5295  158.9453   13.5477 C   0  0  0  0  0  0  0  0  0  0  0  0
   84.3643  158.0240   15.4146 C   0  0  0  0  0  0  0  0  0  0  0  0
   85.0400  159.0914   14.8449 C   0  0  0  0  0  0  0  0  0  0  0  0
 21 22  2  0
 21 23  2  0
 21 24  1  0
 21 25  1  0
 24 26  1  0
 24 20  1  0
 25 27  1  0
 26 28  1  0
 20  1  1  0
 27 29  1  0
 28 29  1  0
  1  2  2  0
  1  3  1  0
 29 30  1  0
  2  4  1  0
  3  5  2  0
 30 31  2  0
 30 32  1  0
  4  7  1  0
  4  6  2  0
  5  6  1  0
 32 33  2  0
 32 34  1  0
  7  8  2  0
  7  9  1  0
 33 35  1  0
 34 36  2  0
  9 10  1  0
 35 37  2  0
 36 37  1  0
 11  9  1  0
 11 12  1  0
 11 13  1  0
 12 14  2  0
 12 15  1  0
 13 16  1  0
 15 17  1  0
 15 19  1  0
 16 17  1  0
 17 18  2  0
M  END
> <Molecule Name>
Compound 11

> <EC50 (µM) (Excel)>
37.7

> <Error (µM)>
0.8

> <HTRC CRBN-DDB1 EC50 (µM)>
37.72 ±  0.78

> <EC50 fitting (µM)>
52.96

> <Modèle Fitting>
3PL

> <Parent_Compound>
Compound 11

> <MMFF94s_energy_kcalmol>
162.965
$$$$
