Compound_11_ent2


 37 40  0  0  0  0  0  0  0  0999 V2000
   83.2334  150.3564   17.5875 C   0  0  0  0  0  0  0  0  0  0  0  0
   83.1153  149.3587   18.5416 C   0  0  0  0  0  0  0  0  0  0  0  0
   82.0503  151.0143   17.2655 C   0  0  0  0  0  0  0  0  0  0  0  0
   81.9448  149.0099   19.1490 C   0  0  0  0  0  0  0  0  0  0  0  0
   80.8644  150.6792   17.8644 C   0  0  0  0  0  0  0  0  0  0  0  0
   80.7984  149.6629   18.8224 C   0  0  0  0  0  0  0  0  0  0  0  0
   81.9152  147.9436   20.1401 C   0  0  0  0  0  0  0  0  0  0  0  0
   82.9209  147.1554   20.2725 O   0  0  0  0  0  0  0  0  0  0  0  0
   80.8334  147.6825   21.0113 N   0  0  0  0  0  0  0  0  0  0  0  0
   80.0393  148.2612   20.9501 H   0  0  0  0  0  0  0  0  0  0  0  0
   80.8241  146.6063   21.9957 C   0  0  0  0  0  0  0  0  0  0  0  0
   80.9774  147.2112   23.3253 C   0  0  0  0  0  0  0  0  0  0  0  0
   79.5173  145.8775   21.8272 C   0  0  0  0  0  0  0  0  0  0  0  0
   82.0326  147.0653   23.9782 O   0  0  0  0  0  0  0  0  0  0  0  0
   79.8820  147.9686   23.8431 N   0  0  0  0  0  0  0  0  0  0  0  0
   78.3666  146.4849   22.5488 C   0  0  0  0  0  0  0  0  0  0  0  0
   78.6309  147.7838   23.1855 C   0  0  0  0  0  0  0  0  0  0  0  0
   77.8076  148.7426   23.1793 O   0  0  0  0  0  0  0  0  0  0  0  0
   79.9851  148.5808   24.6072 H   0  0  0  0  0  0  0  0  0  0  0  0
   84.5287  150.6807   16.9696 C   0  0  0  0  0  0  0  0  0  0  0  0
   85.6633  151.1923   14.6446 S   0  0  0  0  0  0  0  0  0  0  0  0
   85.6152  149.9319   13.8123 O   0  0  0  0  0  0  0  0  0  0  0  0
   86.9694  151.0367   15.4451 O   0  0  0  0  0  0  0  0  0  0  0  0
   84.4269  151.3656   15.7307 N   0  0  0  0  0  0  0  0  0  0  0  0
   85.9010  152.5826   13.6102 C   0  0  0  0  0  0  0  0  0  0  0  0
   83.1964  151.9427   15.4361 C   0  0  0  0  0  0  0  0  0  0  0  0
   85.3345  153.8784   14.1749 C   0  0  0  0  0  0  0  0  0  0  0  0
   83.0182  152.6717   14.1576 C   0  0  0  0  0  0  0  0  0  0  0  0
   83.8785  153.8482   14.1045 N   0  0  0  0  0  0  0  0  0  0  0  0
   83.2762  155.1099   13.9646 C   0  0  0  0  0  0  0  0  0  0  0  0
   82.0141  155.1896   13.8986 O   0  0  0  0  0  0  0  0  0  0  0  0
   83.9937  156.3762   13.8849 C   0  0  0  0  0  0  0  0  0  0  0  0
   84.4939  156.8164   12.6947 N   0  0  0  0  0  0  0  0  0  0  0  0
   84.1714  157.1376   15.0150 C   0  0  0  0  0  0  0  0  0  0  0  0
   85.1510  157.9691   12.6041 C   0  0  0  0  0  0  0  0  0  0  0  0
   84.8465  158.3392   14.9659 C   0  0  0  0  0  0  0  0  0  0  0  0
   85.3366  158.7492   13.7453 C   0  0  0  0  0  0  0  0  0  0  0  0
 21 22  2  0
 21 23  2  0
 21 24  1  0
 21 25  1  0
 24 26  1  0
 24 20  1  0
 25 27  1  0
 26 28  1  0
 20  1  1  0
 27 29  1  0
 28 29  1  0
  1  2  2  0
  1  3  1  0
 29 30  1  0
  2  4  1  0
  3  5  2  0
 30 31  2  0
 30 32  1  0
  4  7  1  0
  4  6  2  0
  5  6  1  0
 32 33  2  0
 32 34  1  0
  7  8  2  0
  7  9  1  0
 33 35  1  0
 34 36  2  0
  9 10  1  0
 35 37  2  0
 36 37  1  0
 11  9  1  0
 11 12  1  0
 11 13  1  0
 12 14  2  0
 12 15  1  0
 13 16  1  0
 15 17  1  0
 15 19  1  0
 16 17  1  0
 17 18  2  0
M  END
> <Molecule Name>
Compound 11

> <EC50 (µM) (Excel)>
37.7

> <Error (µM)>
0.8

> <HTRC CRBN-DDB1 EC50 (µM)>
37.72 ±  0.78

> <EC50 fitting (µM)>
52.96

> <Modèle Fitting>
3PL

> <Parent_Compound>
Compound 11

> <MMFF94s_energy_kcalmol>
152.433
$$$$

> <minimizedAffinity>
-8.58510

> <CNNscore>
0.4683251083

> <CNNaffinity>
6.4888744354

> <CNN_VS>
3.0389027596

> <CNNaffinity_variance>
0.1222625375

$$$$
Compound_11_ent2


 37 40  0  0  0  0  0  0  0  0999 V2000
   84.5879  150.5787   16.6773 C   0  0  0  0  0  0  0  0  0  0  0  0
   84.3265  149.5451   17.5621 C   0  0  0  0  0  0  0  0  0  0  0  0
   84.0593  151.8153   17.0346 C   0  0  0  0  0  0  0  0  0  0  0  0
   83.6068  149.6811   18.7129 C   0  0  0  0  0  0  0  0  0  0  0  0
   83.3339  151.9729   18.1863 C   0  0  0  0  0  0  0  0  0  0  0  0
   83.0975  150.8962   19.0465 C   0  0  0  0  0  0  0  0  0  0  0  0
   83.3790  148.5354   19.5822 C   0  0  0  0  0  0  0  0  0  0  0  0
   82.1903  148.0792   19.7530 O   0  0  0  0  0  0  0  0  0  0  0  0
   84.3903  147.8455   20.2884 N   0  0  0  0  0  0  0  0  0  0  0  0
   85.3192  148.1560   20.1884 H   0  0  0  0  0  0  0  0  0  0  0  0
   84.1389  146.7008   21.1566 C   0  0  0  0  0  0  0  0  0  0  0  0
   85.2332  145.7404   20.9632 C   0  0  0  0  0  0  0  0  0  0  0  0
   84.0640  147.2332   22.5631 C   0  0  0  0  0  0  0  0  0  0  0  0
   85.0360  144.6524   20.3814 O   0  0  0  0  0  0  0  0  0  0  0  0
   86.5250  146.0929   21.4618 N   0  0  0  0  0  0  0  0  0  0  0  0
   85.3794  147.3979   23.2387 C   0  0  0  0  0  0  0  0  0  0  0  0
   86.5604  147.1723   22.3922 C   0  0  0  0  0  0  0  0  0  0  0  0
   87.6026  147.8850   22.4469 O   0  0  0  0  0  0  0  0  0  0  0  0
   87.3408  145.6192   21.1800 H   0  0  0  0  0  0  0  0  0  0  0  0
   85.3709  150.3621   15.4507 C   0  0  0  0  0  0  0  0  0  0  0  0
   86.2411  151.4913   13.2320 S   0  0  0  0  0  0  0  0  0  0  0  0
   86.2120  150.4527   12.1349 O   0  0  0  0  0  0  0  0  0  0  0  0
   87.6242  151.2851   13.8764 O   0  0  0  0  0  0  0  0  0  0  0  0
   85.1019  151.2958   14.4163 N   0  0  0  0  0  0  0  0  0  0  0  0
   86.2741  153.0954   12.5353 C   0  0  0  0  0  0  0  0  0  0  0  0
   83.8087  151.8038   14.3552 C   0  0  0  0  0  0  0  0  0  0  0  0
   85.6653  154.1699   13.4263 C   0  0  0  0  0  0  0  0  0  0  0  0
   83.4567  152.7819   13.2981 C   0  0  0  0  0  0  0  0  0  0  0  0
   84.2157  154.0169   13.4576 N   0  0  0  0  0  0  0  0  0  0  0  0
   83.5083  155.2139   13.6600 C   0  0  0  0  0  0  0  0  0  0  0  0
   82.2431  155.1851   13.7070 O   0  0  0  0  0  0  0  0  0  0  0  0
   84.1163  156.5284   13.8250 C   0  0  0  0  0  0  0  0  0  0  0  0
   84.6083  157.2053   12.7479 N   0  0  0  0  0  0  0  0  0  0  0  0
   84.1978  157.0958   15.0739 C   0  0  0  0  0  0  0  0  0  0  0  0
   85.1662  158.4053   12.8806 C   0  0  0  0  0  0  0  0  0  0  0  0
   84.7684  158.3381   15.2564 C   0  0  0  0  0  0  0  0  0  0  0  0
   85.2537  158.9898   14.1439 C   0  0  0  0  0  0  0  0  0  0  0  0
 21 22  2  0
 21 23  2  0
 21 24  1  0
 21 25  1  0
 24 26  1  0
 24 20  1  0
 25 27  1  0
 26 28  1  0
 20  1  1  0
 27 29  1  0
 28 29  1  0
  1  2  2  0
  1  3  1  0
 29 30  1  0
  2  4  1  0
  3  5  2  0
 30 31  2  0
 30 32  1  0
  4  7  1  0
  4  6  2  0
  5  6  1  0
 32 33  2  0
 32 34  1  0
  7  8  2  0
  7  9  1  0
 33 35  1  0
 34 36  2  0
  9 10  1  0
 35 37  2  0
 36 37  1  0
 11  9  1  0
 11 12  1  0
 11 13  1  0
 12 14  2  0
 12 15  1  0
 13 16  1  0
 15 17  1  0
 15 19  1  0
 16 17  1  0
 17 18  2  0
M  END
> <Molecule Name>
Compound 11

> <EC50 (µM) (Excel)>
37.7

> <Error (µM)>
0.8

> <HTRC CRBN-DDB1 EC50 (µM)>
37.72 ±  0.78

> <EC50 fitting (µM)>
52.96

> <Modèle Fitting>
3PL

> <Parent_Compound>
Compound 11

> <MMFF94s_energy_kcalmol>
152.433
$$$$

> <minimizedAffinity>
-8.72837

> <CNNscore>
0.3567050695

> <CNNaffinity>
6.3293309212

> <CNN_VS>
2.2577044964

> <CNNaffinity_variance>
0.0126440069

$$$$
Compound_11_ent2


 37 40  0  0  0  0  0  0  0  0999 V2000
   84.5810  150.5269   16.6671 C   0  0  0  0  0  0  0  0  0  0  0  0
   84.2686  149.4379   17.4646 C   0  0  0  0  0  0  0  0  0  0  0  0
   84.0569  151.7442   17.0911 C   0  0  0  0  0  0  0  0  0  0  0  0
   83.5051  149.5046   18.5931 C   0  0  0  0  0  0  0  0  0  0  0  0
   83.2880  151.8325   18.2218 C   0  0  0  0  0  0  0  0  0  0  0  0
   83.0010  150.7018   18.9927 C   0  0  0  0  0  0  0  0  0  0  0  0
   83.2251  148.3043   19.3684 C   0  0  0  0  0  0  0  0  0  0  0  0
   83.6906  147.1678   18.9920 O   0  0  0  0  0  0  0  0  0  0  0  0
   82.4536  148.2709   20.5520 N   0  0  0  0  0  0  0  0  0  0  0  0
   82.0762  149.1178   20.8831 H   0  0  0  0  0  0  0  0  0  0  0  0
   82.1833  147.0557   21.3120 C   0  0  0  0  0  0  0  0  0  0  0  0
   81.5402  147.4472   22.5732 C   0  0  0  0  0  0  0  0  0  0  0  0
   81.3055  146.1909   20.4468 C   0  0  0  0  0  0  0  0  0  0  0  0
   82.1458  147.3429   23.6610 O   0  0  0  0  0  0  0  0  0  0  0  0
   80.2038  147.9491   22.5119 N   0  0  0  0  0  0  0  0  0  0  0  0
   79.8529  146.5048   20.5209 C   0  0  0  0  0  0  0  0  0  0  0  0
   79.5016  147.7042   21.2958 C   0  0  0  0  0  0  0  0  0  0  0  0
   78.6112  148.5272   20.9395 O   0  0  0  0  0  0  0  0  0  0  0  0
   79.7931  148.4344   23.2636 H   0  0  0  0  0  0  0  0  0  0  0  0
   85.4096  150.3840   15.4598 C   0  0  0  0  0  0  0  0  0  0  0  0
   86.2064  151.5094   13.2118 S   0  0  0  0  0  0  0  0  0  0  0  0
   86.1441  150.4681   12.1186 O   0  0  0  0  0  0  0  0  0  0  0  0
   87.6098  151.3071   13.8122 O   0  0  0  0  0  0  0  0  0  0  0  0
   85.1059  151.3148   14.4324 N   0  0  0  0  0  0  0  0  0  0  0  0
   86.2143  153.1119   12.5107 C   0  0  0  0  0  0  0  0  0  0  0  0
   83.8106  151.8204   14.4115 C   0  0  0  0  0  0  0  0  0  0  0  0
   85.6324  154.1875   13.4182 C   0  0  0  0  0  0  0  0  0  0  0  0
   83.4232  152.7954   13.3639 C   0  0  0  0  0  0  0  0  0  0  0  0
   84.1848  154.0321   13.4962 N   0  0  0  0  0  0  0  0  0  0  0  0
   83.4822  155.2284   13.7183 C   0  0  0  0  0  0  0  0  0  0  0  0
   82.2192  155.1975   13.8058 O   0  0  0  0  0  0  0  0  0  0  0  0
   84.0928  156.5443   13.8607 C   0  0  0  0  0  0  0  0  0  0  0  0
   84.6209  157.1848   12.7785 N   0  0  0  0  0  0  0  0  0  0  0  0
   84.1402  157.1499   15.0933 C   0  0  0  0  0  0  0  0  0  0  0  0
   85.1817  158.3855   12.8906 C   0  0  0  0  0  0  0  0  0  0  0  0
   84.7125  158.3944   15.2543 C   0  0  0  0  0  0  0  0  0  0  0  0
   85.2348  159.0087   14.1372 C   0  0  0  0  0  0  0  0  0  0  0  0
 21 22  2  0
 21 23  2  0
 21 24  1  0
 21 25  1  0
 24 26  1  0
 24 20  1  0
 25 27  1  0
 26 28  1  0
 20  1  1  0
 27 29  1  0
 28 29  1  0
  1  2  2  0
  1  3  1  0
 29 30  1  0
  2  4  1  0
  3  5  2  0
 30 31  2  0
 30 32  1  0
  4  7  1  0
  4  6  2  0
  5  6  1  0
 32 33  2  0
 32 34  1  0
  7  8  2  0
  7  9  1  0
 33 35  1  0
 34 36  2  0
  9 10  1  0
 35 37  2  0
 36 37  1  0
 11  9  1  0
 11 12  1  0
 11 13  1  0
 12 14  2  0
 12 15  1  0
 13 16  1  0
 15 17  1  0
 15 19  1  0
 16 17  1  0
 17 18  2  0
M  END
> <Molecule Name>
Compound 11

> <EC50 (µM) (Excel)>
37.7

> <Error (µM)>
0.8

> <HTRC CRBN-DDB1 EC50 (µM)>
37.72 ±  0.78

> <EC50 fitting (µM)>
52.96

> <Modèle Fitting>
3PL

> <Parent_Compound>
Compound 11

> <MMFF94s_energy_kcalmol>
152.433
$$$$

> <minimizedAffinity>
-8.83512

> <CNNscore>
0.3137328327

> <CNNaffinity>
6.1897854805

> <CNN_VS>
1.9419388771

> <CNNaffinity_variance>
0.0686702207

$$$$
Compound_11_ent2


 37 40  0  0  0  0  0  0  0  0999 V2000
   82.6615  150.8192   15.4008 C   0  0  0  0  0  0  0  0  0  0  0  0
   81.6656  150.0263   15.9476 C   0  0  0  0  0  0  0  0  0  0  0  0
   82.8884  152.0254   16.0566 C   0  0  0  0  0  0  0  0  0  0  0  0
   80.9324  150.3616   17.0479 C   0  0  0  0  0  0  0  0  0  0  0  0
   82.1631  152.3806   17.1635 C   0  0  0  0  0  0  0  0  0  0  0  0
   81.1671  151.5438   17.6761 C   0  0  0  0  0  0  0  0  0  0  0  0
   79.9010  149.4652   17.5506 C   0  0  0  0  0  0  0  0  0  0  0  0
   80.1809  148.2390   17.8120 O   0  0  0  0  0  0  0  0  0  0  0  0
   78.5580  149.8349   17.7894 N   0  0  0  0  0  0  0  0  0  0  0  0
   78.2942  150.7656   17.6064 H   0  0  0  0  0  0  0  0  0  0  0  0
   77.5399  148.9190   18.2911 C   0  0  0  0  0  0  0  0  0  0  0  0
   77.4807  149.0678   19.7512 C   0  0  0  0  0  0  0  0  0  0  0  0
   76.2502  149.2902   17.6085 C   0  0  0  0  0  0  0  0  0  0  0  0
   77.8925  148.1607   20.5053 O   0  0  0  0  0  0  0  0  0  0  0  0
   76.9380  150.2810   20.2759 N   0  0  0  0  0  0  0  0  0  0  0  0
   75.5008  150.4025   18.2528 C   0  0  0  0  0  0  0  0  0  0  0  0
   76.1959  151.0797   19.3576 C   0  0  0  0  0  0  0  0  0  0  0  0
   76.1693  152.3308   19.5341 O   0  0  0  0  0  0  0  0  0  0  0  0
   77.0685  150.5488   21.2142 H   0  0  0  0  0  0  0  0  0  0  0  0
   83.4138  150.3971   14.2090 C   0  0  0  0  0  0  0  0  0  0  0  0
   85.8457  151.4068   14.3551 S   0  0  0  0  0  0  0  0  0  0  0  0
   86.8079  150.3974   13.7731 O   0  0  0  0  0  0  0  0  0  0  0  0
   85.7432  150.9852   15.8325 O   0  0  0  0  0  0  0  0  0  0  0  0
   84.3193  151.3729   13.7168 N   0  0  0  0  0  0  0  0  0  0  0  0
   86.5781  152.9952   14.3623 C   0  0  0  0  0  0  0  0  0  0  0  0
   83.9261  152.0721   12.5808 C   0  0  0  0  0  0  0  0  0  0  0  0
   85.5758  154.1393   14.2879 C   0  0  0  0  0  0  0  0  0  0  0  0
   84.8243  153.1046   12.0106 C   0  0  0  0  0  0  0  0  0  0  0  0
   85.0096  154.2080   12.9461 N   0  0  0  0  0  0  0  0  0  0  0  0
   84.6170  155.4962   12.5454 C   0  0  0  0  0  0  0  0  0  0  0  0
   84.1092  155.6595   11.3968 O   0  0  0  0  0  0  0  0  0  0  0  0
   84.7454  156.7010   13.3558 C   0  0  0  0  0  0  0  0  0  0  0  0
   85.4952  157.7536   12.9197 N   0  0  0  0  0  0  0  0  0  0  0  0
   84.1082  156.7831   14.5705 C   0  0  0  0  0  0  0  0  0  0  0  0
   85.6232  158.8601   13.6464 C   0  0  0  0  0  0  0  0  0  0  0  0
   84.2140  157.9119   15.3559 C   0  0  0  0  0  0  0  0  0  0  0  0
   84.9805  158.9534   14.8806 C   0  0  0  0  0  0  0  0  0  0  0  0
 21 22  2  0
 21 23  2  0
 21 24  1  0
 21 25  1  0
 24 26  1  0
 24 20  1  0
 25 27  1  0
 26 28  1  0
 20  1  1  0
 27 29  1  0
 28 29  1  0
  1  2  2  0
  1  3  1  0
 29 30  1  0
  2  4  1  0
  3  5  2  0
 30 31  2  0
 30 32  1  0
  4  7  1  0
  4  6  2  0
  5  6  1  0
 32 33  2  0
 32 34  1  0
  7  8  2  0
  7  9  1  0
 33 35  1  0
 34 36  2  0
  9 10  1  0
 35 37  2  0
 36 37  1  0
 11  9  1  0
 11 12  1  0
 11 13  1  0
 12 14  2  0
 12 15  1  0
 13 16  1  0
 15 17  1  0
 15 19  1  0
 16 17  1  0
 17 18  2  0
M  END
> <Molecule Name>
Compound 11

> <EC50 (µM) (Excel)>
37.7

> <Error (µM)>
0.8

> <HTRC CRBN-DDB1 EC50 (µM)>
37.72 ±  0.78

> <EC50 fitting (µM)>
52.96

> <Modèle Fitting>
3PL

> <Parent_Compound>
Compound 11

> <MMFF94s_energy_kcalmol>
152.433
$$$$

> <minimizedAffinity>
-5.06407

> <CNNscore>
0.2620190382

> <CNNaffinity>
6.6070857048

> <CNN_VS>
1.7311822176

> <CNNaffinity_variance>
0.0794834867

$$$$
Compound_11_ent2


 37 40  0  0  0  0  0  0  0  0999 V2000
   88.5154  150.3708   14.5618 C   0  0  0  0  0  0  0  0  0  0  0  0
   87.2061  150.1941   14.9790 C   0  0  0  0  0  0  0  0  0  0  0  0
   89.4887  150.0060   15.4870 C   0  0  0  0  0  0  0  0  0  0  0  0
   86.8474  149.7023   16.1998 C   0  0  0  0  0  0  0  0  0  0  0  0
   89.1492  149.5098   16.7183 C   0  0  0  0  0  0  0  0  0  0  0  0
   87.8111  149.3511   17.0915 C   0  0  0  0  0  0  0  0  0  0  0  0
   85.4428  149.5543   16.5537 C   0  0  0  0  0  0  0  0  0  0  0  0
   85.0964  148.7758   17.5150 O   0  0  0  0  0  0  0  0  0  0  0  0
   84.3747  150.2182   15.9089 N   0  0  0  0  0  0  0  0  0  0  0  0
   84.5892  150.8282   15.1664 H   0  0  0  0  0  0  0  0  0  0  0  0
   82.9735  150.0530   16.2785 C   0  0  0  0  0  0  0  0  0  0  0  0
   82.2652  151.2893   15.9219 C   0  0  0  0  0  0  0  0  0  0  0  0
   82.4682  148.8479   15.5304 C   0  0  0  0  0  0  0  0  0  0  0  0
   81.8435  152.0644   16.8064 O   0  0  0  0  0  0  0  0  0  0  0  0
   82.0765  151.5726   14.5341 N   0  0  0  0  0  0  0  0  0  0  0  0
   82.0207  149.1205   14.1378 C   0  0  0  0  0  0  0  0  0  0  0  0
   82.2817  150.4800   13.6419 C   0  0  0  0  0  0  0  0  0  0  0  0
   82.6780  150.7288   12.4679 O   0  0  0  0  0  0  0  0  0  0  0  0
   81.8205  152.4676   14.2138 H   0  0  0  0  0  0  0  0  0  0  0  0
   88.8325  150.9091   13.2298 C   0  0  0  0  0  0  0  0  0  0  0  0
   88.0746  152.3891   11.1829 S   0  0  0  0  0  0  0  0  0  0  0  0
   87.9066  151.4824    9.9857 O   0  0  0  0  0  0  0  0  0  0  0  0
   89.5656  152.7700   11.1304 O   0  0  0  0  0  0  0  0  0  0  0  0
   87.7900  151.6777   12.6496 N   0  0  0  0  0  0  0  0  0  0  0  0
   87.1929  153.8789   10.9324 C   0  0  0  0  0  0  0  0  0  0  0  0
   86.5386  151.5846   13.2490 C   0  0  0  0  0  0  0  0  0  0  0  0
   86.7378  154.5527   12.2199 C   0  0  0  0  0  0  0  0  0  0  0  0
   85.4026  152.3586   12.6936 C   0  0  0  0  0  0  0  0  0  0  0  0
   85.6427  153.7923   12.8102 N   0  0  0  0  0  0  0  0  0  0  0  0
   84.7382  154.5619   13.5612 C   0  0  0  0  0  0  0  0  0  0  0  0
   83.7541  153.9919   14.1183 O   0  0  0  0  0  0  0  0  0  0  0  0
   84.8309  156.0024   13.7637 C   0  0  0  0  0  0  0  0  0  0  0  0
   84.8764  156.8513   12.6971 N   0  0  0  0  0  0  0  0  0  0  0  0
   84.8735  156.5158   15.0377 C   0  0  0  0  0  0  0  0  0  0  0  0
   84.9612  158.1681   12.8638 C   0  0  0  0  0  0  0  0  0  0  0  0
   84.9612  157.8748   15.2558 C   0  0  0  0  0  0  0  0  0  0  0  0
   85.0049  158.6991   14.1528 C   0  0  0  0  0  0  0  0  0  0  0  0
 21 22  2  0
 21 23  2  0
 21 24  1  0
 21 25  1  0
 24 26  1  0
 24 20  1  0
 25 27  1  0
 26 28  1  0
 20  1  1  0
 27 29  1  0
 28 29  1  0
  1  2  2  0
  1  3  1  0
 29 30  1  0
  2  4  1  0
  3  5  2  0
 30 31  2  0
 30 32  1  0
  4  7  1  0
  4  6  2  0
  5  6  1  0
 32 33  2  0
 32 34  1  0
  7  8  2  0
  7  9  1  0
 33 35  1  0
 34 36  2  0
  9 10  1  0
 35 37  2  0
 36 37  1  0
 11  9  1  0
 11 12  1  0
 11 13  1  0
 12 14  2  0
 12 15  1  0
 13 16  1  0
 15 17  1  0
 15 19  1  0
 16 17  1  0
 17 18  2  0
M  END
> <Molecule Name>
Compound 11

> <EC50 (µM) (Excel)>
37.7

> <Error (µM)>
0.8

> <HTRC CRBN-DDB1 EC50 (µM)>
37.72 ±  0.78

> <EC50 fitting (µM)>
52.96

> <Modèle Fitting>
3PL

> <Parent_Compound>
Compound 11

> <MMFF94s_energy_kcalmol>
152.433
$$$$

> <minimizedAffinity>
-8.14185

> <CNNscore>
0.2614237964

> <CNNaffinity>
6.4716181755

> <CNN_VS>
1.6918350458

> <CNNaffinity_variance>
0.0993431583

$$$$
