Compound_1_ent2


 35 37  0  0  0  0  0  0  0  0999 V2000
   84.3576  150.0717   14.3972 N   0  0  0  0  0  0  0  0  0  0  0  0
   82.9856  150.1660   14.1907 C   0  0  0  0  0  0  0  0  0  0  0  0
   84.9308  150.9704   15.3609 C   0  0  0  0  0  0  0  0  0  0  0  0
   82.2651  149.7473   15.5066 C   0  0  0  0  0  0  0  0  0  0  0  0
   84.4925  150.9350   16.7541 C   0  0  0  0  0  0  0  0  0  0  0  0
   82.1134  150.9182   16.3238 N   0  0  0  0  0  0  0  0  0  0  0  0
   83.1811  151.6653   17.0131 C   0  0  0  0  0  0  0  0  0  0  0  0
   80.8051  151.3923   16.4902 C   0  0  0  0  0  0  0  0  0  0  0  0
   80.5164  152.4146   17.1708 O   0  0  0  0  0  0  0  0  0  0  0  0
   84.3273  149.1417   14.8152 H   0  0  0  0  0  0  0  0  0  0  0  0
   82.3812  149.3624   13.0992 C   0  0  0  0  0  0  0  0  0  0  0  0
   81.4804  149.9015   12.3576 O   0  0  0  0  0  0  0  0  0  0  0  0
   82.6761  148.0630   12.7747 O   0  0  0  0  0  0  0  0  0  0  0  0
   81.8871  146.9711   13.2016 C   0  0  0  0  0  0  0  0  0  0  0  0
   85.2322  149.9260   13.2613 C   0  0  0  0  0  0  0  0  0  0  0  0
   85.6705  153.6596   12.8044 C   0  0  0  0  0  0  0  0  0  0  0  0
   85.1969  152.4279   13.1767 C   0  0  0  0  0  0  0  0  0  0  0  0
   86.8158  153.6865   12.0008 C   0  0  0  0  0  0  0  0  0  0  0  0
   85.7878  151.2091   12.8033 C   0  0  0  0  0  0  0  0  0  0  0  0
   87.4120  152.5169   11.6226 C   0  0  0  0  0  0  0  0  0  0  0  0
   86.8920  151.2814   12.0283 C   0  0  0  0  0  0  0  0  0  0  0  0
   85.0897  154.5686   15.4829 O   0  0  0  0  0  0  0  0  0  0  0  0
   85.1081  155.3206   14.5009 C   0  0  0  0  0  0  0  0  0  0  0  0
   85.0704  154.9017   13.1519 N   0  0  0  0  0  0  0  0  0  0  0  0
   85.1693  156.7405   14.7615 N   0  0  0  0  0  0  0  0  0  0  0  0
   84.4679  155.7019   12.1052 C   0  0  0  0  0  0  0  0  0  0  0  0
   85.1827  157.5679   13.6098 C   0  0  0  0  0  0  0  0  0  0  0  0
   84.3772  157.1721   12.4412 C   0  0  0  0  0  0  0  0  0  0  0  0
   85.8662  158.6133   13.5918 O   0  0  0  0  0  0  0  0  0  0  0  0
   85.1996  157.1078   15.6744 H   0  0  0  0  0  0  0  0  0  0  0  0
   79.7572  150.7292   15.8924 O   0  0  0  0  0  0  0  0  0  0  0  0
   78.7685  149.9709   16.5094 C   0  0  0  0  0  0  0  0  0  0  0  0
   77.4099  150.5089   16.0385 C   0  0  0  0  0  0  0  0  0  0  0  0
   78.8208  150.0276   18.0388 C   0  0  0  0  0  0  0  0  0  0  0  0
   78.8646  148.5465   16.0161 C   0  0  0  0  0  0  0  0  0  0  0  0
 22 23  2  0
 23 24  1  0
 23 25  1  0
 24 16  1  0
 24 26  1  0
 25 27  1  0
 25 30  1  0
 16 17  2  0
 16 18  1  0
 26 28  1  0
 27 29  2  0
 27 28  1  0
 17 19  1  0
 18 20  2  0
 19 21  2  0
 19 15  1  0
 20 21  1  0
 15  1  1  0
  1  2  1  0
  1  3  1  0
  1 10  1  0
  2 11  1  0
  2  4  1  0
  3  5  1  0
 11 12  2  0
 11 13  1  0
  4  6  1  0
  5  7  1  0
 13 14  1  0
  6  8  1  0
  6  7  1  0
  8  9  2  0
  8 31  1  0
 31 32  1  0
 32 33  1  0
 32 34  1  0
 32 35  1  0
M  CHG 1   1   1
M  END
> <Molecule Name>
Compound 1

> <EC50 (µM) (Excel)>
49.5

> <Error (µM)>
6.2

> <HTRC CRBN-DDB1 EC50 (µM)>
49.46 ±  6.19

> <EC50 fitting (µM)>
60.01

> <Modèle Fitting>
3PL

> <Parent_Compound>
Compound 1

> <MMFF94s_energy_kcalmol>
176.500
$$$$
