Compound_4_s12


 31 34  0  0  0  0  0  0  0  0999 V2000
   84.0971  154.8436   14.1559 C   0  0  0  0  0  0  0  0  0  0  0  0
   84.8202  153.6522   14.2425 C   0  0  0  0  0  0  0  0  0  0  0  0
   82.7239  154.7236   14.1748 C   0  0  0  0  0  0  0  0  0  0  0  0
   84.1828  152.4334   14.3406 C   0  0  0  0  0  0  0  0  0  0  0  0
   82.0842  153.4894   14.2741 C   0  0  0  0  0  0  0  0  0  0  0  0
   82.8038  152.3371   14.3575 C   0  0  0  0  0  0  0  0  0  0  0  0
   84.7063  151.0424   14.4491 C   0  0  0  0  0  0  0  0  0  0  0  0
   82.5029  150.8765   14.4674 C   0  0  0  0  0  0  0  0  0  0  0  0
   83.6339  150.4635   15.2808 N   0  0  0  0  0  0  0  0  0  0  0  0
   84.4417  150.3561   13.1501 C   0  0  0  0  0  0  0  0  0  0  0  0
   82.9075  150.2844   13.1381 C   0  0  0  0  0  0  0  0  0  0  0  0
   83.7050  149.7468   16.4729 C   0  0  0  0  0  0  0  0  0  0  0  0
   84.9173  151.0492   12.0443 O   0  0  0  0  0  0  0  0  0  0  0  0
   82.4710  148.9919   12.9636 O   0  0  0  0  0  0  0  0  0  0  0  0
   84.7973  149.4864   17.0296 O   0  0  0  0  0  0  0  0  0  0  0  0
   84.5174  151.9326   12.0200 H   0  0  0  0  0  0  0  0  0  0  0  0
   82.8306  148.4312   13.6686 H   0  0  0  0  0  0  0  0  0  0  0  0
   84.7452  156.1391   11.7407 O   0  0  0  0  0  0  0  0  0  0  0  0
   84.8099  156.8074   12.8038 C   0  0  0  0  0  0  0  0  0  0  0  0
   84.7175  156.1189   14.0534 N   0  0  0  0  0  0  0  0  0  0  0  0
   84.9722  158.2197   12.7417 N   0  0  0  0  0  0  0  0  0  0  0  0
   85.2936  156.7969   15.2115 C   0  0  0  0  0  0  0  0  0  0  0  0
   85.0362  158.8991   13.9909 C   0  0  0  0  0  0  0  0  0  0  0  0
   84.7060  158.1837   15.2567 C   0  0  0  0  0  0  0  0  0  0  0  0
   85.3789  160.1160   13.9877 O   0  0  0  0  0  0  0  0  0  0  0  0
   85.0364  158.6992   11.8843 H   0  0  0  0  0  0  0  0  0  0  0  0
   82.5433  149.2991   17.0776 O   0  0  0  0  0  0  0  0  0  0  0  0
   81.9092  150.0616   18.0606 C   0  0  0  0  0  0  0  0  0  0  0  0
   82.9135  151.0113   18.6606 C   0  0  0  0  0  0  0  0  0  0  0  0
   81.2745  149.2495   19.1529 C   0  0  0  0  0  0  0  0  0  0  0  0
   80.7898  150.8851   17.4186 C   0  0  0  0  0  0  0  0  0  0  0  0
 18 19  2  0
 19 20  1  0
 19 21  1  0
 20  1  1  0
 20 22  1  0
 21 23  1  0
 21 26  1  0
  1  2  2  0
  1  3  1  0
 22 24  1  0
 23 25  2  0
 23 24  1  0
  2  4  1  0
  3  5  2  0
  4  6  2  0
  5  6  1  0
  7  4  1  0
  7  9  1  0
  7 10  1  0
  8  6  1  0
  8 11  1  0
  8  9  1  0
  9 12  1  0
 10 13  1  0
 10 11  1  0
 11 14  1  0
 12 15  2  0
 12 27  1  0
 13 16  1  0
 14 17  1  0
 27 28  1  0
 28 29  1  0
 28 30  1  0
 28 31  1  0
M  END
> <Molecule Name>
Compound 4

> <EC50 (µM) (Excel)>
11.8

> <Error (µM)>
7.4

> <HTRC CRBN-DDB1 EC50 (µM)>
11.78 ±  7.41

> <EC50 fitting (µM)>
15.10

> <Modèle Fitting>
4PL

> <Parent_Compound>
Compound 4

> <MMFF94s_energy_kcalmol>
162.454
$$$$
