Compound_9_ent2


 36 38  0  0  0  0  0  0  0  0999 V2000
   82.4104  150.3827   15.6561 C   0  0  0  0  0  0  0  0  0  0  0  0
   83.4163  151.2699   15.3570 C   0  0  0  0  0  0  0  0  0  0  0  0
   81.1047  150.8584   15.6705 C   0  0  0  0  0  0  0  0  0  0  0  0
   83.2025  152.6034   15.0707 C   0  0  0  0  0  0  0  0  0  0  0  0
   80.8587  152.1798   15.3902 C   0  0  0  0  0  0  0  0  0  0  0  0
   81.9058  153.0567   15.0895 C   0  0  0  0  0  0  0  0  0  0  0  0
   84.3093  153.4995   14.7625 C   0  0  0  0  0  0  0  0  0  0  0  0
   85.4832  153.2337   15.1848 O   0  0  0  0  0  0  0  0  0  0  0  0
   84.1721  154.6764   14.0067 N   0  0  0  0  0  0  0  0  0  0  0  0
   83.2878  154.9297   13.6559 H   0  0  0  0  0  0  0  0  0  0  0  0
   85.3238  155.5251   13.7372 C   0  0  0  0  0  0  0  0  0  0  0  0
   85.0980  156.3628   12.5417 C   0  0  0  0  0  0  0  0  0  0  0  0
   85.5297  156.3633   14.9836 C   0  0  0  0  0  0  0  0  0  0  0  0
   84.9132  155.8152   11.4359 O   0  0  0  0  0  0  0  0  0  0  0  0
   85.0864  157.7766   12.6196 N   0  0  0  0  0  0  0  0  0  0  0  0
   84.5384  157.5172   15.0313 C   0  0  0  0  0  0  0  0  0  0  0  0
   84.8437  158.3970   13.8755 C   0  0  0  0  0  0  0  0  0  0  0  0
   84.8802  159.6422   14.0273 O   0  0  0  0  0  0  0  0  0  0  0  0
   85.2441  158.3222   11.8154 H   0  0  0  0  0  0  0  0  0  0  0  0
   82.7008  148.9441   15.9555 C   0  0  0  0  0  0  0  0  0  0  0  0
   85.0998  147.9335   16.1244 S   0  0  0  0  0  0  0  0  0  0  0  0
   84.9604  148.2976   17.5741 O   0  0  0  0  0  0  0  0  0  0  0  0
   85.1718  146.4262   16.0606 O   0  0  0  0  0  0  0  0  0  0  0  0
   83.8123  148.4878   15.2408 N   0  0  0  0  0  0  0  0  0  0  0  0
   86.6726  148.5411   15.5786 C   0  0  0  0  0  0  0  0  0  0  0  0
   83.7840  148.3949   13.8542 C   0  0  0  0  0  0  0  0  0  0  0  0
   86.3874  149.8665   14.9043 C   0  0  0  0  0  0  0  0  0  0  0  0
   85.0809  148.5042   13.1214 C   0  0  0  0  0  0  0  0  0  0  0  0
   85.9265  149.5748   13.5710 N   0  0  0  0  0  0  0  0  0  0  0  0
   86.3751  150.4772   12.5833 C   0  0  0  0  0  0  0  0  0  0  0  0
   86.0224  150.3012   11.3710 O   0  0  0  0  0  0  0  0  0  0  0  0
   87.2437  151.6409   12.8477 C   0  0  0  0  0  0  0  0  0  0  0  0
   87.9293  152.1140   11.6872 N   0  0  0  0  0  0  0  0  0  0  0  0
   89.2843  151.6787   11.5584 C   0  0  0  0  0  0  0  0  0  0  0  0
   87.6945  153.4839   11.3610 C   0  0  0  0  0  0  0  0  0  0  0  0
   87.4626  151.6167   10.9287 H   0  0  0  0  0  0  0  0  0  0  0  0
 21 22  2  0
 21 23  2  0
 21 24  1  0
 21 25  1  0
 24 26  1  0
 24 20  1  0
 25 27  1  0
 26 28  1  0
 20  1  1  0
 27 29  1  0
 28 29  1  0
  1  2  2  0
  1  3  1  0
 29 30  1  0
  2  4  1  0
  3  5  2  0
 30 31  2  0
 30 32  1  0
  4  7  1  0
  4  6  2  0
  5  6  1  0
 32 33  1  0
  7  8  2  0
  7  9  1  0
 33 34  1  0
 33 35  1  0
 33 36  1  0
  9 10  1  0
 11  9  1  0
 11 12  1  0
 11 13  1  0
 12 14  2  0
 12 15  1  0
 13 16  1  0
 15 17  1  0
 15 19  1  0
 16 17  1  0
 17 18  2  0
M  CHG 1  33   1
M  END
> <Molecule Name>
Compound 9

> <EC50 (µM) (Excel)>
54.0

> <Error (µM)>
9.3

> <HTRC CRBN-DDB1 EC50 (µM)>
53.95 ±  9.32

> <EC50 fitting (µM)>
108.30

> <Modèle Fitting>
4PL

> <Parent_Compound>
Compound 9

> <MMFF94s_energy_kcalmol>
152.432
$$$$

> <minimizedAffinity>
-7.22372

> <CNNscore>
0.6436757445

> <CNNaffinity>
6.7406487465

> <CNN_VS>
4.3387923241

> <CNNaffinity_variance>
0.0385637730

$$$$
Compound_9_ent2


 36 38  0  0  0  0  0  0  0  0999 V2000
   81.9529  150.2974   14.4388 C   0  0  0  0  0  0  0  0  0  0  0  0
   82.9775  151.1602   14.1318 C   0  0  0  0  0  0  0  0  0  0  0  0
   80.9390  150.7591   15.2695 C   0  0  0  0  0  0  0  0  0  0  0  0
   83.0552  152.4563   14.6012 C   0  0  0  0  0  0  0  0  0  0  0  0
   80.9870  152.0432   15.7532 C   0  0  0  0  0  0  0  0  0  0  0  0
   82.0445  152.8960   15.4212 C   0  0  0  0  0  0  0  0  0  0  0  0
   84.1679  153.3265   14.2440 C   0  0  0  0  0  0  0  0  0  0  0  0
   85.3643  152.8871   14.2945 O   0  0  0  0  0  0  0  0  0  0  0  0
   84.0126  154.6615   13.8331 N   0  0  0  0  0  0  0  0  0  0  0  0
   83.1105  155.0518   13.7763 H   0  0  0  0  0  0  0  0  0  0  0  0
   85.1715  155.4732   13.4907 C   0  0  0  0  0  0  0  0  0  0  0  0
   84.8590  156.4073   12.3899 C   0  0  0  0  0  0  0  0  0  0  0  0
   85.5619  156.2057   14.7593 C   0  0  0  0  0  0  0  0  0  0  0  0
   84.5212  155.9529   11.2780 O   0  0  0  0  0  0  0  0  0  0  0  0
   84.9337  157.8104   12.5655 N   0  0  0  0  0  0  0  0  0  0  0  0
   84.6471  157.3978   15.0010 C   0  0  0  0  0  0  0  0  0  0  0  0
   84.8682  158.3461   13.8807 C   0  0  0  0  0  0  0  0  0  0  0  0
   84.9898  159.5735   14.1125 O   0  0  0  0  0  0  0  0  0  0  0  0
   85.0297  158.4065   11.7879 H   0  0  0  0  0  0  0  0  0  0  0  0
   81.9183  148.9014   13.8973 C   0  0  0  0  0  0  0  0  0  0  0  0
   79.6813  148.5548   12.6010 S   0  0  0  0  0  0  0  0  0  0  0  0
   80.2847  149.5452   11.6477 O   0  0  0  0  0  0  0  0  0  0  0  0
   79.5641  147.2481   11.8525 O   0  0  0  0  0  0  0  0  0  0  0  0
   80.6279  148.3657   13.9477 N   0  0  0  0  0  0  0  0  0  0  0  0
   78.0283  149.0945   12.9432 C   0  0  0  0  0  0  0  0  0  0  0  0
   80.2087  147.6074   15.0346 C   0  0  0  0  0  0  0  0  0  0  0  0
   78.1074  149.8484   14.2541 C   0  0  0  0  0  0  0  0  0  0  0  0
   78.7476  147.5802   15.3437 C   0  0  0  0  0  0  0  0  0  0  0  0
   78.1111  148.8675   15.3091 N   0  0  0  0  0  0  0  0  0  0  0  0
   77.3868  149.2405   16.4612 C   0  0  0  0  0  0  0  0  0  0  0  0
   77.3290  148.4370   17.4491 O   0  0  0  0  0  0  0  0  0  0  0  0
   76.6710  150.5216   16.6194 C   0  0  0  0  0  0  0  0  0  0  0  0
   76.0989  150.6968   17.9166 N   0  0  0  0  0  0  0  0  0  0  0  0
   74.7385  151.1344   17.9301 C   0  0  0  0  0  0  0  0  0  0  0  0
   76.9513  151.3232   18.8753 C   0  0  0  0  0  0  0  0  0  0  0  0
   76.0287  149.7409   18.2653 H   0  0  0  0  0  0  0  0  0  0  0  0
 21 22  2  0
 21 23  2  0
 21 24  1  0
 21 25  1  0
 24 26  1  0
 24 20  1  0
 25 27  1  0
 26 28  1  0
 20  1  1  0
 27 29  1  0
 28 29  1  0
  1  2  2  0
  1  3  1  0
 29 30  1  0
  2  4  1  0
  3  5  2  0
 30 31  2  0
 30 32  1  0
  4  7  1  0
  4  6  2  0
  5  6  1  0
 32 33  1  0
  7  8  2  0
  7  9  1  0
 33 34  1  0
 33 35  1  0
 33 36  1  0
  9 10  1  0
 11  9  1  0
 11 12  1  0
 11 13  1  0
 12 14  2  0
 12 15  1  0
 13 16  1  0
 15 17  1  0
 15 19  1  0
 16 17  1  0
 17 18  2  0
M  CHG 1  33   1
M  END
> <Molecule Name>
Compound 9

> <EC50 (µM) (Excel)>
54.0

> <Error (µM)>
9.3

> <HTRC CRBN-DDB1 EC50 (µM)>
53.95 ±  9.32

> <EC50 fitting (µM)>
108.30

> <Modèle Fitting>
4PL

> <Parent_Compound>
Compound 9

> <MMFF94s_energy_kcalmol>
152.432
$$$$

> <minimizedAffinity>
-8.50239

> <CNNscore>
0.5773851871

> <CNNaffinity>
6.4532732964

> <CNN_VS>
3.7260243893

> <CNNaffinity_variance>
0.0755456463

$$$$
Compound_9_ent2


 36 38  0  0  0  0  0  0  0  0999 V2000
   81.7887  150.3578   14.3566 C   0  0  0  0  0  0  0  0  0  0  0  0
   82.8236  151.1987   14.0244 C   0  0  0  0  0  0  0  0  0  0  0  0
   80.7678  150.8636   15.1525 C   0  0  0  0  0  0  0  0  0  0  0  0
   82.9052  152.5140   14.4359 C   0  0  0  0  0  0  0  0  0  0  0  0
   80.8195  152.1678   15.5784 C   0  0  0  0  0  0  0  0  0  0  0  0
   81.8876  152.9973   15.2221 C   0  0  0  0  0  0  0  0  0  0  0  0
   84.0289  153.3594   14.0544 C   0  0  0  0  0  0  0  0  0  0  0  0
   85.1794  152.8438   13.8611 O   0  0  0  0  0  0  0  0  0  0  0  0
   83.9330  154.7503   13.8775 N   0  0  0  0  0  0  0  0  0  0  0  0
   83.0680  155.2002   14.0138 H   0  0  0  0  0  0  0  0  0  0  0  0
   85.0994  155.5328   13.4947 C   0  0  0  0  0  0  0  0  0  0  0  0
   84.7697  156.4827   12.4126 C   0  0  0  0  0  0  0  0  0  0  0  0
   85.5588  156.2456   14.7514 C   0  0  0  0  0  0  0  0  0  0  0  0
   84.3766  156.0454   11.3121 O   0  0  0  0  0  0  0  0  0  0  0  0
   84.8895  157.8820   12.5935 N   0  0  0  0  0  0  0  0  0  0  0  0
   84.6870  157.4602   15.0358 C   0  0  0  0  0  0  0  0  0  0  0  0
   84.8900  158.4101   13.9134 C   0  0  0  0  0  0  0  0  0  0  0  0
   85.0540  159.6320   14.1475 O   0  0  0  0  0  0  0  0  0  0  0  0
   84.9713  158.4807   11.8162 H   0  0  0  0  0  0  0  0  0  0  0  0
   81.7503  148.9390   13.8781 C   0  0  0  0  0  0  0  0  0  0  0  0
   80.6361  147.0493   15.2897 S   0  0  0  0  0  0  0  0  0  0  0  0
   79.3886  147.5031   14.5885 O   0  0  0  0  0  0  0  0  0  0  0  0
   80.9119  145.6416   14.8169 O   0  0  0  0  0  0  0  0  0  0  0  0
   81.9168  148.0389   14.9348 N   0  0  0  0  0  0  0  0  0  0  0  0
   80.2577  146.9401   17.0177 C   0  0  0  0  0  0  0  0  0  0  0  0
   83.1435  147.9035   15.5744 C   0  0  0  0  0  0  0  0  0  0  0  0
   80.7513  148.2355   17.6270 C   0  0  0  0  0  0  0  0  0  0  0  0
   83.1419  147.4434   16.9954 C   0  0  0  0  0  0  0  0  0  0  0  0
   82.1710  148.0969   17.8282 N   0  0  0  0  0  0  0  0  0  0  0  0
   82.6583  148.6938   19.0103 C   0  0  0  0  0  0  0  0  0  0  0  0
   83.9025  148.6223   19.2782 O   0  0  0  0  0  0  0  0  0  0  0  0
   81.8206  149.4147   19.9887 C   0  0  0  0  0  0  0  0  0  0  0  0
   81.6956  148.7359   21.2394 N   0  0  0  0  0  0  0  0  0  0  0  0
   82.5999  149.1641   22.2597 C   0  0  0  0  0  0  0  0  0  0  0  0
   81.5043  147.3242   21.1463 C   0  0  0  0  0  0  0  0  0  0  0  0
   80.7951  149.0647   21.5876 H   0  0  0  0  0  0  0  0  0  0  0  0
 21 22  2  0
 21 23  2  0
 21 24  1  0
 21 25  1  0
 24 26  1  0
 24 20  1  0
 25 27  1  0
 26 28  1  0
 20  1  1  0
 27 29  1  0
 28 29  1  0
  1  2  2  0
  1  3  1  0
 29 30  1  0
  2  4  1  0
  3  5  2  0
 30 31  2  0
 30 32  1  0
  4  7  1  0
  4  6  2  0
  5  6  1  0
 32 33  1  0
  7  8  2  0
  7  9  1  0
 33 34  1  0
 33 35  1  0
 33 36  1  0
  9 10  1  0
 11  9  1  0
 11 12  1  0
 11 13  1  0
 12 14  2  0
 12 15  1  0
 13 16  1  0
 15 17  1  0
 15 19  1  0
 16 17  1  0
 17 18  2  0
M  CHG 1  33   1
M  END
> <Molecule Name>
Compound 9

> <EC50 (µM) (Excel)>
54.0

> <Error (µM)>
9.3

> <HTRC CRBN-DDB1 EC50 (µM)>
53.95 ±  9.32

> <EC50 fitting (µM)>
108.30

> <Modèle Fitting>
4PL

> <Parent_Compound>
Compound 9

> <MMFF94s_energy_kcalmol>
152.432
$$$$

> <minimizedAffinity>
-7.50000

> <CNNscore>
0.4630693197

> <CNNaffinity>
6.3014469147

> <CNN_VS>
2.9180066586

> <CNNaffinity_variance>
0.0429805852

$$$$
Compound_9_ent2


 36 38  0  0  0  0  0  0  0  0999 V2000
   81.9815  150.2790   14.5560 C   0  0  0  0  0  0  0  0  0  0  0  0
   83.0255  151.1307   14.2856 C   0  0  0  0  0  0  0  0  0  0  0  0
   80.8442  150.8108   15.1520 C   0  0  0  0  0  0  0  0  0  0  0  0
   83.0074  152.4811   14.5720 C   0  0  0  0  0  0  0  0  0  0  0  0
   80.7949  152.1502   15.4497 C   0  0  0  0  0  0  0  0  0  0  0  0
   81.8754  152.9898   15.1612 C   0  0  0  0  0  0  0  0  0  0  0  0
   84.1460  153.3366   14.2646 C   0  0  0  0  0  0  0  0  0  0  0  0
   85.3235  152.8470   14.2357 O   0  0  0  0  0  0  0  0  0  0  0  0
   84.0367  154.7101   13.9876 N   0  0  0  0  0  0  0  0  0  0  0  0
   83.1510  155.1398   13.9964 H   0  0  0  0  0  0  0  0  0  0  0  0
   85.2195  155.5042   13.6879 C   0  0  0  0  0  0  0  0  0  0  0  0
   84.9934  156.3710   12.5134 C   0  0  0  0  0  0  0  0  0  0  0  0
   85.5123  156.3111   14.9375 C   0  0  0  0  0  0  0  0  0  0  0  0
   84.7413  155.8511   11.4076 O   0  0  0  0  0  0  0  0  0  0  0  0
   85.0561  157.7823   12.6115 N   0  0  0  0  0  0  0  0  0  0  0  0
   84.5831  157.5123   15.0379 C   0  0  0  0  0  0  0  0  0  0  0  0
   84.8906  158.3940   13.8841 C   0  0  0  0  0  0  0  0  0  0  0  0
   84.9956  159.6332   14.0520 O   0  0  0  0  0  0  0  0  0  0  0  0
   85.2122  158.3320   11.8098 H   0  0  0  0  0  0  0  0  0  0  0  0
   82.0549  148.8213   14.2196 C   0  0  0  0  0  0  0  0  0  0  0  0
   81.2562  146.5433   15.2083 S   0  0  0  0  0  0  0  0  0  0  0  0
   80.5375  146.4262   13.8955 O   0  0  0  0  0  0  0  0  0  0  0  0
   82.2970  145.4489   15.2323 O   0  0  0  0  0  0  0  0  0  0  0  0
   81.9754  148.0275   15.3677 N   0  0  0  0  0  0  0  0  0  0  0  0
   80.0868  146.1605   16.4838 C   0  0  0  0  0  0  0  0  0  0  0  0
   82.5807  148.4221   16.5551 C   0  0  0  0  0  0  0  0  0  0  0  0
   79.5808  147.4954   16.9886 C   0  0  0  0  0  0  0  0  0  0  0  0
   81.9984  147.9189   17.8353 C   0  0  0  0  0  0  0  0  0  0  0  0
   80.5664  148.0037   17.9081 N   0  0  0  0  0  0  0  0  0  0  0  0
   80.0338  148.6775   19.0277 C   0  0  0  0  0  0  0  0  0  0  0  0
   80.8272  149.1612   19.9002 O   0  0  0  0  0  0  0  0  0  0  0  0
   78.5922  148.8730   19.2769 C   0  0  0  0  0  0  0  0  0  0  0  0
   78.0794  148.0488   20.3249 N   0  0  0  0  0  0  0  0  0  0  0  0
   77.3229  146.9150   19.8955 C   0  0  0  0  0  0  0  0  0  0  0  0
   77.5402  148.7548   21.4424 C   0  0  0  0  0  0  0  0  0  0  0  0
   78.9213  147.6215   20.7108 H   0  0  0  0  0  0  0  0  0  0  0  0
 21 22  2  0
 21 23  2  0
 21 24  1  0
 21 25  1  0
 24 26  1  0
 24 20  1  0
 25 27  1  0
 26 28  1  0
 20  1  1  0
 27 29  1  0
 28 29  1  0
  1  2  2  0
  1  3  1  0
 29 30  1  0
  2  4  1  0
  3  5  2  0
 30 31  2  0
 30 32  1  0
  4  7  1  0
  4  6  2  0
  5  6  1  0
 32 33  1  0
  7  8  2  0
  7  9  1  0
 33 34  1  0
 33 35  1  0
 33 36  1  0
  9 10  1  0
 11  9  1  0
 11 12  1  0
 11 13  1  0
 12 14  2  0
 12 15  1  0
 13 16  1  0
 15 17  1  0
 15 19  1  0
 16 17  1  0
 17 18  2  0
M  CHG 1  33   1
M  END
> <Molecule Name>
Compound 9

> <EC50 (µM) (Excel)>
54.0

> <Error (µM)>
9.3

> <HTRC CRBN-DDB1 EC50 (µM)>
53.95 ±  9.32

> <EC50 fitting (µM)>
108.30

> <Modèle Fitting>
4PL

> <Parent_Compound>
Compound 9

> <MMFF94s_energy_kcalmol>
152.432
$$$$

> <minimizedAffinity>
-6.94522

> <CNNscore>
0.3600118756

> <CNNaffinity>
6.5339274406

> <CNN_VS>
2.3522915840

> <CNNaffinity_variance>
0.1698640436

$$$$
Compound_9_ent2


 36 38  0  0  0  0  0  0  0  0999 V2000
   81.6325  149.9644   15.8838 C   0  0  0  0  0  0  0  0  0  0  0  0
   82.5895  150.8796   15.5164 C   0  0  0  0  0  0  0  0  0  0  0  0
   81.2572  149.9151   17.2210 C   0  0  0  0  0  0  0  0  0  0  0  0
   83.1967  151.7504   16.3990 C   0  0  0  0  0  0  0  0  0  0  0  0
   81.8425  150.7678   18.1241 C   0  0  0  0  0  0  0  0  0  0  0  0
   82.8137  151.6879   17.7169 C   0  0  0  0  0  0  0  0  0  0  0  0
   84.2082  152.6993   15.9528 C   0  0  0  0  0  0  0  0  0  0  0  0
   85.2023  152.9736   16.7034 O   0  0  0  0  0  0  0  0  0  0  0  0
   84.1664  153.3569   14.7114 N   0  0  0  0  0  0  0  0  0  0  0  0
   83.4209  153.1822   14.0925 H   0  0  0  0  0  0  0  0  0  0  0  0
   85.2137  154.2938   14.3310 C   0  0  0  0  0  0  0  0  0  0  0  0
   85.6026  154.1105   12.9178 C   0  0  0  0  0  0  0  0  0  0  0  0
   84.6528  155.6787   14.5874 C   0  0  0  0  0  0  0  0  0  0  0  0
   86.0834  153.0190   12.5513 O   0  0  0  0  0  0  0  0  0  0  0  0
   85.4430  155.1462   11.9655 N   0  0  0  0  0  0  0  0  0  0  0  0
   83.7065  156.0962   13.4708 C   0  0  0  0  0  0  0  0  0  0  0  0
   84.5169  156.1916   12.2309 C   0  0  0  0  0  0  0  0  0  0  0  0
   84.3709  157.1709   11.4598 O   0  0  0  0  0  0  0  0  0  0  0  0
   85.9661  155.1423   11.1314 H   0  0  0  0  0  0  0  0  0  0  0  0
   81.0042  149.0457   14.8815 C   0  0  0  0  0  0  0  0  0  0  0  0
   78.4687  149.1670   14.2804 S   0  0  0  0  0  0  0  0  0  0  0  0
   78.9344  150.1876   13.2829 O   0  0  0  0  0  0  0  0  0  0  0  0
   77.9360  147.9970   13.4875 O   0  0  0  0  0  0  0  0  0  0  0  0
   79.7101  148.6804   15.2641 N   0  0  0  0  0  0  0  0  0  0  0  0
   77.0880  149.8671   15.1432 C   0  0  0  0  0  0  0  0  0  0  0  0
   79.4938  147.8462   16.3547 C   0  0  0  0  0  0  0  0  0  0  0  0
   77.6520  150.4245   16.4332 C   0  0  0  0  0  0  0  0  0  0  0  0
   78.1933  147.9686   17.0790 C   0  0  0  0  0  0  0  0  0  0  0  0
   77.7908  149.3208   17.3486 N   0  0  0  0  0  0  0  0  0  0  0  0
   77.4881  149.6295   18.6919 C   0  0  0  0  0  0  0  0  0  0  0  0
   77.5788  148.7170   19.5773 O   0  0  0  0  0  0  0  0  0  0  0  0
   77.0634  150.9605   19.1678 C   0  0  0  0  0  0  0  0  0  0  0  0
   75.6537  151.0681   19.3723 N   0  0  0  0  0  0  0  0  0  0  0  0
   75.0795  150.0623   20.2095 C   0  0  0  0  0  0  0  0  0  0  0  0
   74.8960  151.3992   18.2084 C   0  0  0  0  0  0  0  0  0  0  0  0
   75.5702  151.9084   19.9443 H   0  0  0  0  0  0  0  0  0  0  0  0
 21 22  2  0
 21 23  2  0
 21 24  1  0
 21 25  1  0
 24 26  1  0
 24 20  1  0
 25 27  1  0
 26 28  1  0
 20  1  1  0
 27 29  1  0
 28 29  1  0
  1  2  2  0
  1  3  1  0
 29 30  1  0
  2  4  1  0
  3  5  2  0
 30 31  2  0
 30 32  1  0
  4  7  1  0
  4  6  2  0
  5  6  1  0
 32 33  1  0
  7  8  2  0
  7  9  1  0
 33 34  1  0
 33 35  1  0
 33 36  1  0
  9 10  1  0
 11  9  1  0
 11 12  1  0
 11 13  1  0
 12 14  2  0
 12 15  1  0
 13 16  1  0
 15 17  1  0
 15 19  1  0
 16 17  1  0
 17 18  2  0
M  CHG 1  33   1
M  END
> <Molecule Name>
Compound 9

> <EC50 (µM) (Excel)>
54.0

> <Error (µM)>
9.3

> <HTRC CRBN-DDB1 EC50 (µM)>
53.95 ±  9.32

> <EC50 fitting (µM)>
108.30

> <Modèle Fitting>
4PL

> <Parent_Compound>
Compound 9

> <MMFF94s_energy_kcalmol>
152.432
$$$$

> <minimizedAffinity>
-7.64315

> <CNNscore>
0.3270414174

> <CNNaffinity>
5.5390543938

> <CNN_VS>
1.8115001917

> <CNNaffinity_variance>
0.5199126601

$$$$
