Compound_1_ent2
 OpenBabel09072607323D

 66 68  0  0  0  0  0  0  0  0999 V2000
    4.0810    2.0976    0.2297 O   0  0  0  0  0  0  0  0  0  0  0  0
    4.9606    1.4639   -0.3660 C   0  0  0  0  0  0  0  0  0  0  0  0
    4.7449    0.3058   -1.1464 N   0  0  0  0  0  0  0  0  0  0  0  0
    6.3148    1.9552   -0.2537 N   0  0  0  0  0  0  0  0  0  0  0  0
    3.6937   -0.5798   -0.7800 C   0  0  0  0  0  0  0  0  0  0  0  0
    5.5710   -0.0275   -2.2889 C   0  0  0  0  0  0  0  0  0  0  0  0
    7.2919    1.2045   -0.9557 C   0  0  0  0  0  0  0  0  0  0  0  0
    2.9739   -0.5042    0.3845 C   0  0  0  0  0  0  0  0  0  0  0  0
    3.3440   -1.5913   -1.6815 C   0  0  0  0  0  0  0  0  0  0  0  0
    6.9361    0.6192   -2.2603 C   0  0  0  0  0  0  0  0  0  0  0  0
    8.4329    1.0459   -0.4727 O   0  0  0  0  0  0  0  0  0  0  0  0
    1.9211   -1.3721    0.7196 C   0  0  0  0  0  0  0  0  0  0  0  0
    2.3246   -2.4502   -1.3821 C   0  0  0  0  0  0  0  0  0  0  0  0
    1.6176   -2.3344   -0.1787 C   0  0  0  0  0  0  0  0  0  0  0  0
    1.2090   -1.2404    2.0004 C   0  0  0  0  0  0  0  0  0  0  0  0
    0.1204   -0.2984    1.9379 N   0  3  2  0  0  0  0  0  0  0  0  0
   -1.0019   -0.6064    1.1766 C   0  0  1  0  0  0  0  0  0  0  0  0
    0.6227    1.0442    1.8374 C   0  0  0  0  0  0  0  0  0  0  0  0
   -1.4598   -2.0174    1.1368 C   0  0  0  0  0  0  0  0  0  0  0  0
   -2.1979    0.2376    1.7087 C   0  0  0  0  0  0  0  0  0  0  0  0
   -0.2199    2.1768    2.2138 C   0  0  0  0  0  0  0  0  0  0  0  0
   -2.3668   -2.3516    0.2896 O   0  0  0  0  0  0  0  0  0  0  0  0
   -1.0180   -3.0478    1.9266 O   0  0  0  0  0  0  0  0  0  0  0  0
   -2.2029    1.4929    1.0115 N   0  0  0  0  0  0  0  0  0  0  0  0
   -1.2247    2.5876    1.1452 C   0  0  0  0  0  0  0  0  0  0  0  0
   -1.5188   -4.3646    1.8152 C   0  0  0  0  0  0  0  0  0  0  0  0
   -3.2607    1.6998    0.1156 C   0  0  0  0  0  0  0  0  0  0  0  0
   -3.3934    2.7474   -0.5747 O   0  0  0  0  0  0  0  0  0  0  0  0
   -4.2225    0.7275   -0.0417 O   0  0  0  0  0  0  0  0  0  0  0  0
   -5.3331    0.7579   -0.8775 C   0  0  0  0  0  0  0  0  0  0  0  0
   -6.0995   -0.5574   -0.6784 C   0  0  0  0  0  0  0  0  0  0  0  0
   -4.9778    0.9049   -2.3598 C   0  0  0  0  0  0  0  0  0  0  0  0
   -6.2539    1.8677   -0.4281 C   0  0  0  0  0  0  0  0  0  0  0  0
    6.5431    2.7549    0.2731 H   0  0  0  0  0  0  0  0  0  0  0  0
    5.0648    0.2909   -3.1762 H   0  0  0  0  0  0  0  0  0  0  0  0
    5.7257   -1.0860   -2.2649 H   0  0  0  0  0  0  0  0  0  0  0  0
    3.2213    0.2376    1.0579 H   0  0  0  0  0  0  0  0  0  0  0  0
    3.8560   -1.6885   -2.5723 H   0  0  0  0  0  0  0  0  0  0  0  0
    6.9561    1.3967   -2.9951 H   0  0  0  0  0  0  0  0  0  0  0  0
    7.6498   -0.1527   -2.4596 H   0  0  0  0  0  0  0  0  0  0  0  0
    2.0722   -3.1940   -2.0514 H   0  0  0  0  0  0  0  0  0  0  0  0
    0.8518   -2.9954    0.0253 H   0  0  0  0  0  0  0  0  0  0  0  0
    1.9031   -0.9122    2.7457 H   0  0  0  0  0  0  0  0  0  0  0  0
    0.7945   -2.1975    2.2393 H   0  0  0  0  0  0  0  0  0  0  0  0
   -0.3477   -0.3912    2.8394 H   0  0  0  0  0  0  0  0  0  0  0  0
   -0.6894   -0.3890    0.1766 H   0  0  0  0  0  0  0  0  0  0  0  0
    0.8992    1.1932    0.8145 H   0  0  0  0  0  0  0  0  0  0  0  0
    1.4018    1.0673    2.5704 H   0  0  0  0  0  0  0  0  0  0  0  0
   -2.0837    0.4065    2.7591 H   0  0  0  0  0  0  0  0  0  0  0  0
   -3.1194   -0.2810    1.5453 H   0  0  0  0  0  0  0  0  0  0  0  0
    0.4143    3.0140    2.4181 H   0  0  0  0  0  0  0  0  0  0  0  0
   -0.7866    1.8691    3.0677 H   0  0  0  0  0  0  0  0  0  0  0  0
   -0.7230    2.7449    0.2133 H   0  0  0  0  0  0  0  0  0  0  0  0
   -1.7143    3.4987    1.4191 H   0  0  0  0  0  0  0  0  0  0  0  0
   -1.0292   -4.9939    2.5287 H   0  0  0  0  0  0  0  0  0  0  0  0
   -1.3344   -4.7340    0.8281 H   0  0  0  0  0  0  0  0  0  0  0  0
   -2.5719   -4.3629    2.0045 H   0  0  0  0  0  0  0  0  0  0  0  0
   -5.4850   -1.3781   -0.9846 H   0  0  0  0  0  0  0  0  0  0  0  0
   -6.9931   -0.5420   -1.2667 H   0  0  0  0  0  0  0  0  0  0  0  0
   -6.3545   -0.6687    0.3548 H   0  0  0  0  0  0  0  0  0  0  0  0
   -4.3262    0.1078   -2.6511 H   0  0  0  0  0  0  0  0  0  0  0  0
   -4.4871    1.8425   -2.5177 H   0  0  0  0  0  0  0  0  0  0  0  0
   -5.8719    0.8671   -2.9463 H   0  0  0  0  0  0  0  0  0  0  0  0
   -6.4856    1.7410    0.6088 H   0  0  0  0  0  0  0  0  0  0  0  0
   -7.1566    1.8364   -1.0017 H   0  0  0  0  0  0  0  0  0  0  0  0
   -5.7718    2.8119   -0.5730 H   0  0  0  0  0  0  0  0  0  0  0  0
  1  2  2  0  0  0  0
  2  3  1  0  0  0  0
  2  4  1  0  0  0  0
  3  5  1  0  0  0  0
  3  6  1  0  0  0  0
  4  7  1  0  0  0  0
  4 34  1  0  0  0  0
  5  8  2  0  0  0  0
  5  9  1  0  0  0  0
  6 10  1  0  0  0  0
  6 35  1  0  0  0  0
  6 36  1  0  0  0  0
  7 11  2  0  0  0  0
  7 10  1  0  0  0  0
  8 12  1  0  0  0  0
  8 37  1  0  0  0  0
  9 13  2  0  0  0  0
  9 38  1  0  0  0  0
 10 39  1  0  0  0  0
 10 40  1  0  0  0  0
 12 14  2  0  0  0  0
 12 15  1  0  0  0  0
 13 14  1  0  0  0  0
 13 41  1  0  0  0  0
 14 42  1  0  0  0  0
 15 16  1  0  0  0  0
 15 43  1  0  0  0  0
 15 44  1  0  0  0  0
 16 17  1  0  0  0  0
 16 18  1  0  0  0  0
 16 45  1  1  0  0  0
 17 19  1  0  0  0  0
 17 20  1  0  0  0  0
 17 46  1  6  0  0  0
 18 21  1  0  0  0  0
 18 47  1  0  0  0  0
 18 48  1  0  0  0  0
 19 22  2  0  0  0  0
 19 23  1  0  0  0  0
 20 24  1  0  0  0  0
 20 49  1  0  0  0  0
 20 50  1  0  0  0  0
 21 25  1  0  0  0  0
 21 51  1  0  0  0  0
 21 52  1  0  0  0  0
 23 26  1  0  0  0  0
 24 27  1  0  0  0  0
 24 25  1  0  0  0  0
 25 53  1  0  0  0  0
 25 54  1  0  0  0  0
 26 55  1  0  0  0  0
 26 56  1  0  0  0  0
 26 57  1  0  0  0  0
 27 28  2  0  0  0  0
 27 29  1  0  0  0  0
 29 30  1  0  0  0  0
 30 31  1  0  0  0  0
 30 32  1  0  0  0  0
 30 33  1  0  0  0  0
 31 58  1  0  0  0  0
 31 59  1  0  0  0  0
 31 60  1  0  0  0  0
 32 61  1  0  0  0  0
 32 62  1  0  0  0  0
 32 63  1  0  0  0  0
 33 64  1  0  0  0  0
 33 65  1  0  0  0  0
 33 66  1  0  0  0  0
M  CHG  1  16   1
M  END
>  <Molecule Name>
Compound 1

>  <EC50 (µM) (Excel)>
49.5

>  <Error (µM)>
6.2

>  <HTRC CRBN-DDB1 EC50 (µM)>
49.46 ±  6.19

>  <EC50 fitting (µM)>
60.01

>  <Modèle Fitting>
3PL

>  <Parent_Compound>
Compound 1

>  <MMFF94s_energy_kcalmol>
176.500
$$$$
