Compound_4_s8
 OpenBabel09072607323D

 51 54  0  0  0  0  0  0  0  0999 V2000
   -3.2238    1.9635    2.2676 O   0  0  0  0  0  0  0  0  0  0  0  0
   -4.1752    1.2868    1.8434 C   0  0  0  0  0  0  0  0  0  0  0  0
   -3.9664    0.0422    1.1867 N   0  0  0  0  0  0  0  0  0  0  0  0
   -5.5307    1.7381    2.0034 N   0  0  0  0  0  0  0  0  0  0  0  0
   -2.8021   -0.2311    0.4252 C   0  0  0  0  0  0  0  0  0  0  0  0
   -5.0525   -0.9062    1.3280 C   0  0  0  0  0  0  0  0  0  0  0  0
   -6.6063    0.9493    1.5147 C   0  0  0  0  0  0  0  0  0  0  0  0
   -1.8763    0.7588    0.1340 C   0  0  0  0  0  0  0  0  0  0  0  0
   -2.4967   -1.4874   -0.0563 C   0  0  0  0  0  0  0  0  0  0  0  0
   -6.3030   -0.2612    0.7252 C   0  0  0  0  0  0  0  0  0  0  0  0
   -7.7703    1.3325    1.7862 O   0  0  0  0  0  0  0  0  0  0  0  0
   -0.7118    0.5317   -0.5898 C   0  0  0  0  0  0  0  0  0  0  0  0
   -1.3363   -1.7436   -0.7852 C   0  0  0  0  0  0  0  0  0  0  0  0
   -0.4428   -0.7413   -1.0542 C   0  0  0  0  0  0  0  0  0  0  0  0
    0.4259    1.3732   -1.0390 C   0  0  1  0  0  0  0  0  0  0  0  0
    0.8609   -0.6582   -1.7814 C   0  0  2  0  0  0  0  0  0  0  0  0
    1.4918    0.3846   -0.9734 N   0  0  0  0  0  0  0  0  0  0  0  0
    0.2848    1.4950   -2.5388 C   0  0  2  0  0  0  0  0  0  0  0  0
    0.6423    0.1077   -3.0656 C   0  0  2  0  0  0  0  0  0  0  0  0
    2.7491    0.4150   -0.3308 C   0  0  0  0  0  0  0  0  0  0  0  0
    1.1119    2.4699   -3.0696 O   0  0  0  0  0  0  0  0  0  0  0  0
   -0.3576   -0.4235   -3.8506 O   0  0  0  0  0  0  0  0  0  0  0  0
    3.0711    1.4478    0.3182 O   0  0  0  0  0  0  0  0  0  0  0  0
    3.6491   -0.6144   -0.3674 O   0  0  0  0  0  0  0  0  0  0  0  0
    4.9003   -0.6206    0.2551 C   0  0  0  0  0  0  0  0  0  0  0  0
    4.8046   -0.4506    1.7566 C   0  0  0  0  0  0  0  0  0  0  0  0
    5.8565    0.3902   -0.3515 C   0  0  0  0  0  0  0  0  0  0  0  0
    5.5205   -1.9993    0.0196 C   0  0  0  0  0  0  0  0  0  0  0  0
   -5.7138    2.5950    2.4523 H   0  0  0  0  0  0  0  0  0  0  0  0
   -5.2158   -1.1241    2.3628 H   0  0  0  0  0  0  0  0  0  0  0  0
   -4.8213   -1.8234    0.8278 H   0  0  0  0  0  0  0  0  0  0  0  0
   -2.0618    1.7158    0.4729 H   0  0  0  0  0  0  0  0  0  0  0  0
   -3.1499   -2.2644    0.1296 H   0  0  0  0  0  0  0  0  0  0  0  0
   -7.1253   -0.9441    0.7740 H   0  0  0  0  0  0  0  0  0  0  0  0
   -6.1376   -0.0085   -0.3013 H   0  0  0  0  0  0  0  0  0  0  0  0
   -1.1485   -2.6995   -1.1259 H   0  0  0  0  0  0  0  0  0  0  0  0
    0.5276    2.3053   -0.5234 H   0  0  0  0  0  0  0  0  0  0  0  0
    1.3364   -1.6043   -1.9351 H   0  0  0  0  0  0  0  0  0  0  0  0
   -0.7017    1.7992   -2.8201 H   0  0  0  0  0  0  0  0  0  0  0  0
    1.4913    0.0905   -3.7166 H   0  0  0  0  0  0  0  0  0  0  0  0
    2.0349    2.2629   -2.8548 H   0  0  0  0  0  0  0  0  0  0  0  0
   -1.1848   -0.4525   -3.3448 H   0  0  0  0  0  0  0  0  0  0  0  0
    4.3747    0.5032    1.9809 H   0  0  0  0  0  0  0  0  0  0  0  0
    5.7831   -0.5105    2.1854 H   0  0  0  0  0  0  0  0  0  0  0  0
    4.1884   -1.2244    2.1646 H   0  0  0  0  0  0  0  0  0  0  0  0
    5.4671    1.3772   -0.2131 H   0  0  0  0  0  0  0  0  0  0  0  0
    5.9668    0.1937   -1.3975 H   0  0  0  0  0  0  0  0  0  0  0  0
    6.8096    0.3122    0.1285 H   0  0  0  0  0  0  0  0  0  0  0  0
    4.8817   -2.7527    0.4309 H   0  0  0  0  0  0  0  0  0  0  0  0
    6.4782   -2.0454    0.4946 H   0  0  0  0  0  0  0  0  0  0  0  0
    5.6354   -2.1639   -1.0314 H   0  0  0  0  0  0  0  0  0  0  0  0
  1  2  2  0  0  0  0
  2  3  1  0  0  0  0
  2  4  1  0  0  0  0
  3  5  1  0  0  0  0
  3  6  1  0  0  0  0
  4  7  1  0  0  0  0
  4 29  1  0  0  0  0
  5  8  2  0  0  0  0
  5  9  1  0  0  0  0
  6 10  1  0  0  0  0
  6 30  1  0  0  0  0
  6 31  1  0  0  0  0
  7 11  2  0  0  0  0
  7 10  1  0  0  0  0
  8 12  1  0  0  0  0
  8 32  1  0  0  0  0
  9 13  2  0  0  0  0
  9 33  1  0  0  0  0
 10 34  1  0  0  0  0
 10 35  1  0  0  0  0
 12 14  2  0  0  0  0
 13 14  1  0  0  0  0
 13 36  1  0  0  0  0
 15 12  1  0  0  0  0
 15 17  1  0  0  0  0
 15 18  1  0  0  0  0
 15 37  1  1  0  0  0
 16 14  1  0  0  0  0
 16 19  1  0  0  0  0
 16 17  1  0  0  0  0
 16 38  1  6  0  0  0
 17 20  1  0  0  0  0
 18 21  1  0  0  0  0
 18 19  1  0  0  0  0
 18 39  1  6  0  0  0
 19 22  1  0  0  0  0
 19 40  1  6  0  0  0
 20 23  2  0  0  0  0
 20 24  1  0  0  0  0
 21 41  1  0  0  0  0
 22 42  1  0  0  0  0
 24 25  1  0  0  0  0
 25 26  1  0  0  0  0
 25 27  1  0  0  0  0
 25 28  1  0  0  0  0
 26 43  1  0  0  0  0
 26 44  1  0  0  0  0
 26 45  1  0  0  0  0
 27 46  1  0  0  0  0
 27 47  1  0  0  0  0
 27 48  1  0  0  0  0
 28 49  1  0  0  0  0
 28 50  1  0  0  0  0
 28 51  1  0  0  0  0
M  END
>  <Molecule Name>
Compound 4

>  <EC50 (µM) (Excel)>
11.8

>  <Error (µM)>
7.4

>  <HTRC CRBN-DDB1 EC50 (µM)>
11.78 ±  7.41

>  <EC50 fitting (µM)>
15.10

>  <Modèle Fitting>
4PL

>  <Parent_Compound>
Compound 4

>  <MMFF94s_energy_kcalmol>
162.344
$$$$
