Compound_10_ent1


 39 42  0  0  0  0  0  0  0  0999 V2000
   83.8035  149.5555   16.3003 C   0  0  0  0  0  0  0  0  0  0  0  0
   81.9134  149.6110   18.1662 S   0  0  0  0  0  0  0  0  0  0  0  0
   82.0828  148.4717   19.1442 O   0  0  0  0  0  0  0  0  0  0  0  0
   82.7972  150.7360   18.7057 O   0  0  0  0  0  0  0  0  0  0  0  0
   82.4902  149.1637   16.6560 N   0  0  0  0  0  0  0  0  0  0  0  0
   80.2447  150.1361   18.2487 C   0  0  0  0  0  0  0  0  0  0  0  0
   81.5720  148.8725   15.6260 C   0  0  0  0  0  0  0  0  0  0  0  0
   79.3144  149.4457   17.2977 C   0  0  0  0  0  0  0  0  0  0  0  0
   80.6780  150.0194   15.2074 C   0  0  0  0  0  0  0  0  0  0  0  0
   79.4473  149.9259   15.9438 N   0  0  0  0  0  0  0  0  0  0  0  0
   78.2925  150.3533   15.2460 C   0  0  0  0  0  0  0  0  0  0  0  0
   78.4016  150.7686   14.0727 O   0  0  0  0  0  0  0  0  0  0  0  0
   76.9407  150.3222   15.8737 C   0  0  0  0  0  0  0  0  0  0  0  0
   77.0076  150.3310   17.2645 O   0  0  0  0  0  0  0  0  0  0  0  0
   76.2086  151.0421   18.1332 C   0  0  0  0  0  0  0  0  0  0  0  0
   74.8790  151.3131   17.9515 C   0  0  0  0  0  0  0  0  0  0  0  0
   76.8049  151.5301   19.2994 C   0  0  0  0  0  0  0  0  0  0  0  0
   74.1710  152.0373   18.8859 C   0  0  0  0  0  0  0  0  0  0  0  0
   76.1011  152.2539   20.2351 C   0  0  0  0  0  0  0  0  0  0  0  0
   74.7630  152.5228   20.0444 C   0  0  0  0  0  0  0  0  0  0  0  0
   83.8601  150.4650   15.1263 C   0  0  0  0  0  0  0  0  0  0  0  0
   84.1226  151.8186   15.2662 C   0  0  0  0  0  0  0  0  0  0  0  0
   83.6464  149.9087   13.8835 C   0  0  0  0  0  0  0  0  0  0  0  0
   84.1829  152.6714   14.1737 C   0  0  0  0  0  0  0  0  0  0  0  0
   83.7026  150.7419   12.7863 C   0  0  0  0  0  0  0  0  0  0  0  0
   83.9650  152.0857   12.9436 C   0  0  0  0  0  0  0  0  0  0  0  0
   84.4551  154.0915   14.2928 C   0  0  0  0  0  0  0  0  0  0  0  0
   85.2242  154.4666   15.2183 O   0  0  0  0  0  0  0  0  0  0  0  0
   83.9308  155.0896   13.4580 N   0  0  0  0  0  0  0  0  0  0  0  0
   83.3297  154.8058   12.7318 H   0  0  0  0  0  0  0  0  0  0  0  0
   84.2063  156.5039   13.5833 C   0  0  0  0  0  0  0  0  0  0  0  0
   85.4416  156.9109   12.8835 C   0  0  0  0  0  0  0  0  0  0  0  0
   84.3914  156.8239   15.0503 C   0  0  0  0  0  0  0  0  0  0  0  0
   86.1275  156.1629   12.1408 O   0  0  0  0  0  0  0  0  0  0  0  0
   85.8646  158.2614   13.0850 N   0  0  0  0  0  0  0  0  0  0  0  0
   84.7630  158.2404   15.3182 C   0  0  0  0  0  0  0  0  0  0  0  0
   85.2350  158.9927   14.1313 C   0  0  0  0  0  0  0  0  0  0  0  0
   85.1062  160.2359   14.0070 O   0  0  0  0  0  0  0  0  0  0  0  0
   86.5627  158.6690   12.5231 H   0  0  0  0  0  0  0  0  0  0  0  0
  2  3  2  0
  2  4  2  0
  2  5  1  0
  2  6  1  0
  5  7  1  0
  5  1  1  0
  6  8  1  0
  7  9  1  0
  1 21  1  0
  8 10  1  0
  9 10  1  0
 21 22  2  0
 21 23  1  0
 10 11  1  0
 22 24  1  0
 23 25  2  0
 11 12  2  0
 11 13  1  0
 24 27  1  0
 24 26  2  0
 25 26  1  0
 13 14  1  0
 27 28  2  0
 27 29  1  0
 14 15  1  0
 29 30  1  0
 15 16  2  0
 15 17  1  0
 31 29  1  0
 31 32  1  0
 31 33  1  0
 16 18  1  0
 17 19  2  0
 32 34  2  0
 32 35  1  0
 33 36  1  0
 18 20  2  0
 19 20  1  0
 35 37  1  0
 35 39  1  0
 36 37  1  0
 37 38  2  0
M  END
> <Molecule Name>
Compound 10

> <EC50 (µM) (Excel)>
14.3

> <Error (µM)>
1.3

> <HTRC CRBN-DDB1 EC50 (µM)>
14.29 ±  1.32

> <EC50 fitting (µM)>
23.96

> <Modèle Fitting>
3PL

> <Parent_Compound>
Compound 10

> <MMFF94s_energy_kcalmol>
144.245
$$$$
