Compound_4_s13
 OpenBabel09072607323D

 51 54  0  0  0  0  0  0  0  0999 V2000
   -3.2047    2.3572    1.3013 O   0  0  0  0  0  0  0  0  0  0  0  0
   -4.1541    1.6323    0.9545 C   0  0  0  0  0  0  0  0  0  0  0  0
   -3.9991    0.6309   -0.0352 N   0  0  0  0  0  0  0  0  0  0  0  0
   -5.4579    1.7913    1.5530 N   0  0  0  0  0  0  0  0  0  0  0  0
   -2.7263   -0.0292   -0.2111 C   0  0  0  0  0  0  0  0  0  0  0  0
   -5.1267    0.2524   -0.8490 C   0  0  0  0  0  0  0  0  0  0  0  0
   -6.5063    0.9066    1.0813 C   0  0  0  0  0  0  0  0  0  0  0  0
   -1.6623    0.1339    0.6387 C   0  0  0  0  0  0  0  0  0  0  0  0
   -2.5606   -0.8531   -1.3058 C   0  0  0  0  0  0  0  0  0  0  0  0
   -6.4641    0.6592   -0.3766 C   0  0  0  0  0  0  0  0  0  0  0  0
   -7.3148    0.4505    1.8941 O   0  0  0  0  0  0  0  0  0  0  0  0
   -0.4500   -0.5210    0.3916 C   0  0  0  0  0  0  0  0  0  0  0  0
   -1.3526   -1.5122   -1.5611 C   0  0  0  0  0  0  0  0  0  0  0  0
   -0.2877   -1.3453   -0.7060 C   0  0  0  0  0  0  0  0  0  0  0  0
    0.8627   -0.5596    1.0978 C   0  0  2  0  0  0  0  0  0  0  0  0
    1.0944   -1.8677   -0.6688 C   0  0  1  0  0  0  0  0  0  0  0  0
    1.7517   -0.7032   -0.0603 N   0  0  0  0  0  0  0  0  0  0  0  0
    0.9813   -1.9511    1.6710 C   0  0  2  0  0  0  0  0  0  0  0  0
    1.2595   -2.8479    0.4716 C   0  0  1  0  0  0  0  0  0  0  0  0
    2.8648    0.0137   -0.4767 C   0  0  0  0  0  0  0  0  0  0  0  0
   -0.2840   -2.3078    2.1558 O   0  0  0  0  0  0  0  0  0  0  0  0
    0.3682   -3.9034    0.3938 O   0  0  0  0  0  0  0  0  0  0  0  0
    3.4428   -0.3453   -1.5359 O   0  0  0  0  0  0  0  0  0  0  0  0
    3.4005    1.1072    0.1858 O   0  0  0  0  0  0  0  0  0  0  0  0
    4.5404    1.8143   -0.2718 C   0  0  0  0  0  0  0  0  0  0  0  0
    5.7222    0.8647   -0.3388 C   0  0  0  0  0  0  0  0  0  0  0  0
    4.3176    2.4502   -1.6162 C   0  0  0  0  0  0  0  0  0  0  0  0
    4.8270    2.9030    0.7429 C   0  0  0  0  0  0  0  0  0  0  0  0
   -5.6275    2.4677    2.2480 H   0  0  0  0  0  0  0  0  0  0  0  0
   -5.1236   -0.8147   -0.9276 H   0  0  0  0  0  0  0  0  0  0  0  0
   -4.9889    0.7748   -1.7726 H   0  0  0  0  0  0  0  0  0  0  0  0
   -1.7560    0.7436    1.4660 H   0  0  0  0  0  0  0  0  0  0  0  0
   -3.3511   -0.9872   -1.9556 H   0  0  0  0  0  0  0  0  0  0  0  0
   -7.1608   -0.1181   -0.6118 H   0  0  0  0  0  0  0  0  0  0  0  0
   -6.7134    1.5772   -0.8665 H   0  0  0  0  0  0  0  0  0  0  0  0
   -1.2608   -2.1219   -2.3887 H   0  0  0  0  0  0  0  0  0  0  0  0
    1.0186    0.2316    1.8011 H   0  0  0  0  0  0  0  0  0  0  0  0
    1.4053   -2.2768   -1.6074 H   0  0  0  0  0  0  0  0  0  0  0  0
    1.7257   -2.0242    2.4361 H   0  0  0  0  0  0  0  0  0  0  0  0
    2.2139   -3.3311    0.4947 H   0  0  0  0  0  0  0  0  0  0  0  0
   -0.9367   -2.2322    1.4423 H   0  0  0  0  0  0  0  0  0  0  0  0
   -0.5385   -3.5597    0.3676 H   0  0  0  0  0  0  0  0  0  0  0  0
    5.5214    0.0954   -1.0548 H   0  0  0  0  0  0  0  0  0  0  0  0
    5.8806    0.4240    0.6233 H   0  0  0  0  0  0  0  0  0  0  0  0
    6.5979    1.4052   -0.6321 H   0  0  0  0  0  0  0  0  0  0  0  0
    4.1142    1.6899   -2.3411 H   0  0  0  0  0  0  0  0  0  0  0  0
    5.1942    2.9921   -1.9041 H   0  0  0  0  0  0  0  0  0  0  0  0
    3.4859    3.1211   -1.5600 H   0  0  0  0  0  0  0  0  0  0  0  0
    4.9873    2.4613    1.7042 H   0  0  0  0  0  0  0  0  0  0  0  0
    3.9939    3.5726    0.7925 H   0  0  0  0  0  0  0  0  0  0  0  0
    5.7021    3.4437    0.4484 H   0  0  0  0  0  0  0  0  0  0  0  0
  1  2  2  0  0  0  0
  2  3  1  0  0  0  0
  2  4  1  0  0  0  0
  3  5  1  0  0  0  0
  3  6  1  0  0  0  0
  4  7  1  0  0  0  0
  4 29  1  0  0  0  0
  5  8  2  0  0  0  0
  5  9  1  0  0  0  0
  6 10  1  0  0  0  0
  6 30  1  0  0  0  0
  6 31  1  0  0  0  0
  7 11  2  0  0  0  0
  7 10  1  0  0  0  0
  8 12  1  0  0  0  0
  8 32  1  0  0  0  0
  9 13  2  0  0  0  0
  9 33  1  0  0  0  0
 10 34  1  0  0  0  0
 10 35  1  0  0  0  0
 12 14  2  0  0  0  0
 13 14  1  0  0  0  0
 13 36  1  0  0  0  0
 15 12  1  0  0  0  0
 15 17  1  0  0  0  0
 15 18  1  0  0  0  0
 15 37  1  1  0  0  0
 16 14  1  0  0  0  0
 16 19  1  0  0  0  0
 16 17  1  0  0  0  0
 16 38  1  6  0  0  0
 17 20  1  0  0  0  0
 18 21  1  0  0  0  0
 18 19  1  0  0  0  0
 18 39  1  1  0  0  0
 19 22  1  0  0  0  0
 19 40  1  1  0  0  0
 20 23  2  0  0  0  0
 20 24  1  0  0  0  0
 21 41  1  0  0  0  0
 22 42  1  0  0  0  0
 24 25  1  0  0  0  0
 25 26  1  0  0  0  0
 25 27  1  0  0  0  0
 25 28  1  0  0  0  0
 26 43  1  0  0  0  0
 26 44  1  0  0  0  0
 26 45  1  0  0  0  0
 27 46  1  0  0  0  0
 27 47  1  0  0  0  0
 27 48  1  0  0  0  0
 28 49  1  0  0  0  0
 28 50  1  0  0  0  0
 28 51  1  0  0  0  0
M  END
>  <Molecule Name>
Compound 4

>  <EC50 (µM) (Excel)>
11.8

>  <Error (µM)>
7.4

>  <HTRC CRBN-DDB1 EC50 (µM)>
11.78 ±  7.41

>  <EC50 fitting (µM)>
15.10

>  <Modèle Fitting>
4PL

>  <Parent_Compound>
Compound 4

>  <MMFF94s_energy_kcalmol>
197.272
$$$$
