Compound_4_s5
 OpenBabel09072607323D

 51 54  0  0  0  0  0  0  0  0999 V2000
   -3.1866   -0.4783    3.0043 O   0  0  0  0  0  0  0  0  0  0  0  0
   -4.1901   -0.2773    2.2654 C   0  0  0  0  0  0  0  0  0  0  0  0
   -4.0604   -0.2504    0.8500 N   0  0  0  0  0  0  0  0  0  0  0  0
   -5.4877   -0.0704    2.8279 N   0  0  0  0  0  0  0  0  0  0  0  0
   -2.8116    0.1048    0.2640 C   0  0  0  0  0  0  0  0  0  0  0  0
   -5.2156   -0.5890    0.0484 C   0  0  0  0  0  0  0  0  0  0  0  0
   -6.5851    0.1519    1.9498 C   0  0  0  0  0  0  0  0  0  0  0  0
   -1.8821   -0.8752   -0.0084 C   0  0  0  0  0  0  0  0  0  0  0  0
   -2.5571    1.4360   -0.0211 C   0  0  0  0  0  0  0  0  0  0  0  0
   -6.4176    0.2133    0.4831 C   0  0  0  0  0  0  0  0  0  0  0  0
   -7.7565    0.3053    2.4212 O   0  0  0  0  0  0  0  0  0  0  0  0
   -0.6786   -0.5682   -0.5685 C   0  0  0  0  0  0  0  0  0  0  0  0
   -1.3224    1.7378   -0.5939 C   0  0  0  0  0  0  0  0  0  0  0  0
   -0.4050    0.7543   -0.8606 C   0  0  0  0  0  0  0  0  0  0  0  0
    0.5281   -1.3401   -0.9906 C   0  0  2  0  0  0  0  0  0  0  0  0
    0.9605    0.7733   -1.4498 C   0  0  1  0  0  0  0  0  0  0  0  0
    1.5394   -0.3467   -0.7440 N   0  0  0  0  0  0  0  0  0  0  0  0
    0.5044   -1.3121   -2.5069 C   0  0  2  0  0  0  0  0  0  0  0  0
    0.8234    0.1506   -2.8236 C   0  0  2  0  0  0  0  0  0  0  0  0
    2.7404   -0.3822   -0.0448 C   0  0  0  0  0  0  0  0  0  0  0  0
   -0.7623   -1.6439   -2.9486 O   0  0  0  0  0  0  0  0  0  0  0  0
    2.0319    0.2291   -3.4734 O   0  0  0  0  0  0  0  0  0  0  0  0
    3.1413   -1.4455    0.5403 O   0  0  0  0  0  0  0  0  0  0  0  0
    3.6044    0.7006    0.0875 O   0  0  0  0  0  0  0  0  0  0  0  0
    4.8079    0.6676    0.7874 C   0  0  0  0  0  0  0  0  0  0  0  0
    4.6443    0.3233    2.2465 C   0  0  0  0  0  0  0  0  0  0  0  0
    5.8513   -0.2267    0.1693 C   0  0  0  0  0  0  0  0  0  0  0  0
    5.3831    2.0905    0.7538 C   0  0  0  0  0  0  0  0  0  0  0  0
   -5.6196   -0.0815    3.8035 H   0  0  0  0  0  0  0  0  0  0  0  0
   -5.4289   -1.6314    0.1617 H   0  0  0  0  0  0  0  0  0  0  0  0
   -5.0027   -0.3639   -0.9758 H   0  0  0  0  0  0  0  0  0  0  0  0
   -2.1012   -1.8585    0.2156 H   0  0  0  0  0  0  0  0  0  0  0  0
   -3.2511    2.1724    0.1816 H   0  0  0  0  0  0  0  0  0  0  0  0
   -7.2931   -0.1833    0.0129 H   0  0  0  0  0  0  0  0  0  0  0  0
   -6.2715    1.2338    0.1964 H   0  0  0  0  0  0  0  0  0  0  0  0
   -1.0950    2.7185   -0.8211 H   0  0  0  0  0  0  0  0  0  0  0  0
    0.6241   -2.3137   -0.5572 H   0  0  0  0  0  0  0  0  0  0  0  0
    1.4443    1.7275   -1.4319 H   0  0  0  0  0  0  0  0  0  0  0  0
    1.1838   -1.9962   -2.9710 H   0  0  0  0  0  0  0  0  0  0  0  0
    0.0884    0.6213   -3.4426 H   0  0  0  0  0  0  0  0  0  0  0  0
   -1.4115   -1.0441   -2.5489 H   0  0  0  0  0  0  0  0  0  0  0  0
    2.7180   -0.1917   -2.9320 H   0  0  0  0  0  0  0  0  0  0  0  0
    4.2438   -0.6648    2.3371 H   0  0  0  0  0  0  0  0  0  0  0  0
    3.9765    1.0223    2.7052 H   0  0  0  0  0  0  0  0  0  0  0  0
    5.5965    0.3681    2.7325 H   0  0  0  0  0  0  0  0  0  0  0  0
    5.4993   -1.2371    0.1675 H   0  0  0  0  0  0  0  0  0  0  0  0
    6.7558   -0.1652    0.7376 H   0  0  0  0  0  0  0  0  0  0  0  0
    6.0398    0.0871   -0.8361 H   0  0  0  0  0  0  0  0  0  0  0  0
    4.6777    2.7706    1.1838 H   0  0  0  0  0  0  0  0  0  0  0  0
    5.5782    2.3725   -0.2598 H   0  0  0  0  0  0  0  0  0  0  0  0
    6.2943    2.1202    1.3140 H   0  0  0  0  0  0  0  0  0  0  0  0
  1  2  2  0  0  0  0
  2  3  1  0  0  0  0
  2  4  1  0  0  0  0
  3  5  1  0  0  0  0
  3  6  1  0  0  0  0
  4  7  1  0  0  0  0
  4 29  1  0  0  0  0
  5  8  2  0  0  0  0
  5  9  1  0  0  0  0
  6 10  1  0  0  0  0
  6 30  1  0  0  0  0
  6 31  1  0  0  0  0
  7 11  2  0  0  0  0
  7 10  1  0  0  0  0
  8 12  1  0  0  0  0
  8 32  1  0  0  0  0
  9 13  2  0  0  0  0
  9 33  1  0  0  0  0
 10 34  1  0  0  0  0
 10 35  1  0  0  0  0
 12 14  2  0  0  0  0
 13 14  1  0  0  0  0
 13 36  1  0  0  0  0
 15 12  1  0  0  0  0
 15 17  1  0  0  0  0
 15 18  1  0  0  0  0
 15 37  1  1  0  0  0
 16 14  1  0  0  0  0
 16 19  1  0  0  0  0
 16 17  1  0  0  0  0
 16 38  1  1  0  0  0
 17 20  1  0  0  0  0
 18 21  1  0  0  0  0
 18 19  1  0  0  0  0
 18 39  1  6  0  0  0
 19 22  1  0  0  0  0
 19 40  1  6  0  0  0
 20 23  2  0  0  0  0
 20 24  1  0  0  0  0
 21 41  1  0  0  0  0
 22 42  1  0  0  0  0
 24 25  1  0  0  0  0
 25 26  1  0  0  0  0
 25 27  1  0  0  0  0
 25 28  1  0  0  0  0
 26 43  1  0  0  0  0
 26 44  1  0  0  0  0
 26 45  1  0  0  0  0
 27 46  1  0  0  0  0
 27 47  1  0  0  0  0
 27 48  1  0  0  0  0
 28 49  1  0  0  0  0
 28 50  1  0  0  0  0
 28 51  1  0  0  0  0
M  END
>  <Molecule Name>
Compound 4

>  <EC50 (µM) (Excel)>
11.8

>  <Error (µM)>
7.4

>  <HTRC CRBN-DDB1 EC50 (µM)>
11.78 ±  7.41

>  <EC50 fitting (µM)>
15.10

>  <Modèle Fitting>
4PL

>  <Parent_Compound>
Compound 4

>  <MMFF94s_energy_kcalmol>
163.563
$$$$
