Compound_4_s1


 31 34  0  0  0  0  0  0  0  0999 V2000
   83.9846  154.9627   14.3503 C   0  0  0  0  0  0  0  0  0  0  0  0
   84.6303  153.7887   14.6882 C   0  0  0  0  0  0  0  0  0  0  0  0
   82.6296  154.9952   14.1501 C   0  0  0  0  0  0  0  0  0  0  0  0
   83.9573  152.6180   14.8372 C   0  0  0  0  0  0  0  0  0  0  0  0
   81.9386  153.7995   14.3017 C   0  0  0  0  0  0  0  0  0  0  0  0
   82.5847  152.6321   14.6382 C   0  0  0  0  0  0  0  0  0  0  0  0
   84.2932  151.2037   15.1828 C   0  0  0  0  0  0  0  0  0  0  0  0
   82.1112  151.2516   14.8578 C   0  0  0  0  0  0  0  0  0  0  0  0
   83.2818  150.5138   14.4008 N   0  0  0  0  0  0  0  0  0  0  0  0
   83.7331  150.9826   16.5689 C   0  0  0  0  0  0  0  0  0  0  0  0
   82.2199  150.9943   16.3460 C   0  0  0  0  0  0  0  0  0  0  0  0
   83.3295  149.4663   13.4803 C   0  0  0  0  0  0  0  0  0  0  0  0
   84.1714  149.7366   17.0021 O   0  0  0  0  0  0  0  0  0  0  0  0
   81.7212  149.7200   16.5828 O   0  0  0  0  0  0  0  0  0  0  0  0
   84.3716  148.8673   13.1247 O   0  0  0  0  0  0  0  0  0  0  0  0
   83.9158  149.0609   16.3549 H   0  0  0  0  0  0  0  0  0  0  0  0
   82.1890  149.0806   16.0232 H   0  0  0  0  0  0  0  0  0  0  0  0
   84.9074  156.0103   11.8932 O   0  0  0  0  0  0  0  0  0  0  0  0
   84.9086  156.7436   12.9188 C   0  0  0  0  0  0  0  0  0  0  0  0
   84.7399  156.1803   14.2032 N   0  0  0  0  0  0  0  0  0  0  0  0
   85.0796  158.1499   12.8013 N   0  0  0  0  0  0  0  0  0  0  0  0
   85.3327  156.8438   15.3427 C   0  0  0  0  0  0  0  0  0  0  0  0
   85.0712  158.9216   14.0005 C   0  0  0  0  0  0  0  0  0  0  0  0
   84.9321  158.2894   15.3295 C   0  0  0  0  0  0  0  0  0  0  0  0
   85.1843  160.1546   13.9109 O   0  0  0  0  0  0  0  0  0  0  0  0
   85.1997  158.5765   11.9223 H   0  0  0  0  0  0  0  0  0  0  0  0
   82.1436  149.0350   12.8981 O   0  0  0  0  0  0  0  0  0  0  0  0
   81.6395  147.7364   13.0137 C   0  0  0  0  0  0  0  0  0  0  0  0
   80.3669  147.5206   12.2237 C   0  0  0  0  0  0  0  0  0  0  0  0
   82.6367  146.6735   12.6302 C   0  0  0  0  0  0  0  0  0  0  0  0
   81.3164  147.5162   14.4965 C   0  0  0  0  0  0  0  0  0  0  0  0
 18 19  2  0
 19 20  1  0
 19 21  1  0
 20  1  1  0
 20 22  1  0
 21 23  1  0
 21 26  1  0
  1  2  2  0
  1  3  1  0
 22 24  1  0
 23 25  2  0
 23 24  1  0
  2  4  1  0
  3  5  2  0
  4  6  2  0
  5  6  1  0
  7  4  1  0
  7  9  1  0
  7 10  1  0
  8  6  1  0
  8 11  1  0
  8  9  1  0
  9 12  1  0
 10 13  1  0
 10 11  1  0
 11 14  1  0
 12 15  2  0
 12 27  1  0
 13 16  1  0
 14 17  1  0
 27 28  1  0
 28 29  1  0
 28 30  1  0
 28 31  1  0
M  END
> <Molecule Name>
Compound 4

> <EC50 (µM) (Excel)>
11.8

> <Error (µM)>
7.4

> <HTRC CRBN-DDB1 EC50 (µM)>
11.78 ±  7.41

> <EC50 fitting (µM)>
15.10

> <Modèle Fitting>
4PL

> <Parent_Compound>
Compound 4

> <MMFF94s_energy_kcalmol>
171.662
$$$$
