Compound_9_ent1


 36 38  0  0  0  0  0  0  0  0999 V2000
   80.8721  150.2191   17.1834 C   0  0  0  0  0  0  0  0  0  0  0  0
   79.6077  150.7372   17.3568 C   0  0  0  0  0  0  0  0  0  0  0  0
   80.9259  148.8824   16.7715 C   0  0  0  0  0  0  0  0  0  0  0  0
   78.4695  149.9905   17.1391 C   0  0  0  0  0  0  0  0  0  0  0  0
   79.8100  148.1304   16.5522 C   0  0  0  0  0  0  0  0  0  0  0  0
   78.5364  148.6828   16.7362 C   0  0  0  0  0  0  0  0  0  0  0  0
   77.1720  150.6067   17.3424 C   0  0  0  0  0  0  0  0  0  0  0  0
   76.2841  150.6056   16.4269 O   0  0  0  0  0  0  0  0  0  0  0  0
   76.7826  151.2489   18.5469 N   0  0  0  0  0  0  0  0  0  0  0  0
   77.4181  151.2863   19.2978 H   0  0  0  0  0  0  0  0  0  0  0  0
   75.4532  151.8600   18.7016 C   0  0  0  0  0  0  0  0  0  0  0  0
   75.6148  153.0364   19.5653 C   0  0  0  0  0  0  0  0  0  0  0  0
   74.4681  150.8410   19.2358 C   0  0  0  0  0  0  0  0  0  0  0  0
   75.7296  154.2184   19.1105 O   0  0  0  0  0  0  0  0  0  0  0  0
   75.6429  152.8286   20.9843 N   0  0  0  0  0  0  0  0  0  0  0  0
   74.5456  150.6090   20.7018 C   0  0  0  0  0  0  0  0  0  0  0  0
   75.4286  151.5066   21.4427 C   0  0  0  0  0  0  0  0  0  0  0  0
   75.9980  151.1166   22.4823 O   0  0  0  0  0  0  0  0  0  0  0  0
   75.8038  153.5711   21.6104 H   0  0  0  0  0  0  0  0  0  0  0  0
   82.1259  150.9873   17.4002 C   0  0  0  0  0  0  0  0  0  0  0  0
   84.1056  150.6959   15.7784 S   0  0  0  0  0  0  0  0  0  0  0  0
   84.8848  150.3997   17.0557 O   0  0  0  0  0  0  0  0  0  0  0  0
   83.8810  149.3257   15.1481 O   0  0  0  0  0  0  0  0  0  0  0  0
   82.6700  151.3863   16.1547 N   0  0  0  0  0  0  0  0  0  0  0  0
   85.1963  151.5754   14.7193 C   0  0  0  0  0  0  0  0  0  0  0  0
   82.0426  152.3909   15.4461 C   0  0  0  0  0  0  0  0  0  0  0  0
   85.1767  153.0357   15.1741 C   0  0  0  0  0  0  0  0  0  0  0  0
   82.7535  152.9909   14.2789 C   0  0  0  0  0  0  0  0  0  0  0  0
   83.9884  153.6264   14.6025 N   0  0  0  0  0  0  0  0  0  0  0  0
   84.0901  155.0134   14.3434 C   0  0  0  0  0  0  0  0  0  0  0  0
   83.0821  155.5882   13.8398 O   0  0  0  0  0  0  0  0  0  0  0  0
   85.3159  155.8004   14.6376 C   0  0  0  0  0  0  0  0  0  0  0  0
   85.2156  157.1602   14.1966 N   0  0  0  0  0  0  0  0  0  0  0  0
   84.4312  158.0114   15.0343 C   0  0  0  0  0  0  0  0  0  0  0  0
   84.7792  157.2734   12.8188 C   0  0  0  0  0  0  0  0  0  0  0  0
   86.1753  157.4987   14.2660 H   0  0  0  0  0  0  0  0  0  0  0  0
 21 22  2  0
 21 23  2  0
 21 24  1  0
 21 25  1  0
 24 26  1  0
 24 20  1  0
 25 27  1  0
 26 28  1  0
 20  1  1  0
 27 29  1  0
 28 29  1  0
  1  2  2  0
  1  3  1  0
 29 30  1  0
  2  4  1  0
  3  5  2  0
 30 31  2  0
 30 32  1  0
  4  7  1  0
  4  6  2  0
  5  6  1  0
 32 33  1  0
  7  8  2  0
  7  9  1  0
 33 34  1  0
 33 35  1  0
 33 36  1  0
  9 10  1  0
 11  9  1  0
 11 12  1  0
 11 13  1  0
 12 14  2  0
 12 15  1  0
 13 16  1  0
 15 17  1  0
 15 19  1  0
 16 17  1  0
 17 18  2  0
M  CHG 1  33   1
M  END
> <Molecule Name>
Compound 9

> <EC50 (µM) (Excel)>
54.0

> <Error (µM)>
9.3

> <HTRC CRBN-DDB1 EC50 (µM)>
53.95 ±  9.32

> <EC50 fitting (µM)>
108.30

> <Modèle Fitting>
4PL

> <Parent_Compound>
Compound 9

> <MMFF94s_energy_kcalmol>
165.178
$$$$
