Compound_11_ent2


 37 40  0  0  0  0  0  0  0  0999 V2000
   83.2334  150.3564   17.5875 C   0  0  0  0  0  0  0  0  0  0  0  0
   83.1153  149.3587   18.5416 C   0  0  0  0  0  0  0  0  0  0  0  0
   82.0503  151.0143   17.2655 C   0  0  0  0  0  0  0  0  0  0  0  0
   81.9448  149.0099   19.1490 C   0  0  0  0  0  0  0  0  0  0  0  0
   80.8644  150.6792   17.8644 C   0  0  0  0  0  0  0  0  0  0  0  0
   80.7984  149.6629   18.8224 C   0  0  0  0  0  0  0  0  0  0  0  0
   81.9152  147.9436   20.1401 C   0  0  0  0  0  0  0  0  0  0  0  0
   82.9209  147.1554   20.2725 O   0  0  0  0  0  0  0  0  0  0  0  0
   80.8334  147.6825   21.0113 N   0  0  0  0  0  0  0  0  0  0  0  0
   80.0393  148.2612   20.9501 H   0  0  0  0  0  0  0  0  0  0  0  0
   80.8241  146.6063   21.9957 C   0  0  0  0  0  0  0  0  0  0  0  0
   80.9774  147.2112   23.3253 C   0  0  0  0  0  0  0  0  0  0  0  0
   79.5173  145.8775   21.8272 C   0  0  0  0  0  0  0  0  0  0  0  0
   82.0326  147.0653   23.9782 O   0  0  0  0  0  0  0  0  0  0  0  0
   79.8820  147.9686   23.8431 N   0  0  0  0  0  0  0  0  0  0  0  0
   78.3666  146.4849   22.5488 C   0  0  0  0  0  0  0  0  0  0  0  0
   78.6309  147.7838   23.1855 C   0  0  0  0  0  0  0  0  0  0  0  0
   77.8076  148.7426   23.1793 O   0  0  0  0  0  0  0  0  0  0  0  0
   79.9851  148.5808   24.6072 H   0  0  0  0  0  0  0  0  0  0  0  0
   84.5287  150.6807   16.9696 C   0  0  0  0  0  0  0  0  0  0  0  0
   85.6633  151.1923   14.6446 S   0  0  0  0  0  0  0  0  0  0  0  0
   85.6152  149.9319   13.8123 O   0  0  0  0  0  0  0  0  0  0  0  0
   86.9694  151.0367   15.4451 O   0  0  0  0  0  0  0  0  0  0  0  0
   84.4269  151.3656   15.7307 N   0  0  0  0  0  0  0  0  0  0  0  0
   85.9010  152.5826   13.6102 C   0  0  0  0  0  0  0  0  0  0  0  0
   83.1964  151.9427   15.4361 C   0  0  0  0  0  0  0  0  0  0  0  0
   85.3345  153.8784   14.1749 C   0  0  0  0  0  0  0  0  0  0  0  0
   83.0182  152.6717   14.1576 C   0  0  0  0  0  0  0  0  0  0  0  0
   83.8785  153.8482   14.1045 N   0  0  0  0  0  0  0  0  0  0  0  0
   83.2762  155.1099   13.9646 C   0  0  0  0  0  0  0  0  0  0  0  0
   82.0141  155.1896   13.8986 O   0  0  0  0  0  0  0  0  0  0  0  0
   83.9937  156.3762   13.8849 C   0  0  0  0  0  0  0  0  0  0  0  0
   84.4939  156.8164   12.6947 N   0  0  0  0  0  0  0  0  0  0  0  0
   84.1714  157.1376   15.0150 C   0  0  0  0  0  0  0  0  0  0  0  0
   85.1510  157.9691   12.6041 C   0  0  0  0  0  0  0  0  0  0  0  0
   84.8465  158.3392   14.9659 C   0  0  0  0  0  0  0  0  0  0  0  0
   85.3366  158.7492   13.7453 C   0  0  0  0  0  0  0  0  0  0  0  0
 21 22  2  0
 21 23  2  0
 21 24  1  0
 21 25  1  0
 24 26  1  0
 24 20  1  0
 25 27  1  0
 26 28  1  0
 20  1  1  0
 27 29  1  0
 28 29  1  0
  1  2  2  0
  1  3  1  0
 29 30  1  0
  2  4  1  0
  3  5  2  0
 30 31  2  0
 30 32  1  0
  4  7  1  0
  4  6  2  0
  5  6  1  0
 32 33  2  0
 32 34  1  0
  7  8  2  0
  7  9  1  0
 33 35  1  0
 34 36  2  0
  9 10  1  0
 35 37  2  0
 36 37  1  0
 11  9  1  0
 11 12  1  0
 11 13  1  0
 12 14  2  0
 12 15  1  0
 13 16  1  0
 15 17  1  0
 15 19  1  0
 16 17  1  0
 17 18  2  0
M  END
> <Molecule Name>
Compound 11

> <EC50 (µM) (Excel)>
37.7

> <Error (µM)>
0.8

> <HTRC CRBN-DDB1 EC50 (µM)>
37.72 ±  0.78

> <EC50 fitting (µM)>
52.96

> <Modèle Fitting>
3PL

> <Parent_Compound>
Compound 11

> <MMFF94s_energy_kcalmol>
152.433
$$$$
