EL2003A_MD_final
     RDKit          3D

 37 41  0  0  0  0  0  0  0  0999 V2000
   58.9100   57.6100   29.5500 C   0  0  0  0  0  0  0  0  0  0  0  0
   59.8800   58.5300   29.1000 N   0  0  0  0  0  0  0  0  0  0  0  0
   57.6100   57.6700   29.1700 N   0  0  0  0  0  0  0  0  0  0  0  0
   59.5100   59.4600   28.1900 C   0  0  0  0  0  0  0  0  0  0  0  0
   57.2600   58.7000   28.4000 C   0  0  0  0  0  0  0  0  0  0  0  0
   58.1300   59.5500   27.8500 C   0  0  0  0  0  0  0  0  0  0  0  0
   56.0800   58.9300   27.5800 N   0  0  0  0  0  0  0  0  0  0  0  0
   57.2200   60.1500   27.0000 N   0  0  0  0  0  0  0  0  0  0  0  0
   56.0400   60.0600   26.7100 C   0  0  0  0  0  0  0  0  0  0  0  0
   55.3400   58.2400   27.6000 H   0  0  0  0  0  0  0  0  0  0  0  0
   59.2300   56.6900   30.5800 N   0  0  0  0  0  0  0  0  0  0  0  0
   58.4800   56.1300   30.9600 H   0  0  0  0  0  0  0  0  0  0  0  0
   62.8300   55.4600   30.6200 C   0  0  0  0  0  0  0  0  0  0  0  0
   61.6200   56.0100   30.0900 C   0  0  0  0  0  0  0  0  0  0  0  0
   62.8800   55.6900   32.0600 C   0  0  0  0  0  0  0  0  0  0  0  0
   60.5100   56.1300   30.9700 C   0  0  0  0  0  0  0  0  0  0  0  0
   61.8700   55.6400   32.8400 C   0  0  0  0  0  0  0  0  0  0  0  0
   60.7700   55.8900   32.3500 C   0  0  0  0  0  0  0  0  0  0  0  0
   64.4000   56.9600   28.6900 O   0  0  0  0  0  0  0  0  0  0  0  0
   63.9500   57.5100   29.6700 C   0  0  0  0  0  0  0  0  0  0  0  0
   64.1100   58.9200   29.9900 N   0  0  0  0  0  0  0  0  0  0  0  0
   63.1500   56.8100   30.6300 N   0  0  0  0  0  0  0  0  0  0  0  0
   63.9100   59.8200   29.0700 C   0  0  0  0  0  0  0  0  0  0  0  0
   65.1400   59.5900   29.4200 C   0  0  0  0  0  0  0  0  0  0  0  0
   64.3500   60.6600   28.3100 C   0  0  0  0  0  0  0  0  0  0  0  0
   65.5100   60.4400   28.6500 C   0  0  0  0  0  0  0  0  0  0  0  0
   62.6600   57.3900   31.2900 H   0  0  0  0  0  0  0  0  0  0  0  0
   60.5100   60.2400   27.6900 N   0  0  0  0  0  0  0  0  0  0  0  0
   61.4700   59.9400   27.8100 H   0  0  0  0  0  0  0  0  0  0  0  0
   60.4200   61.3600   27.0300 C   0  0  0  0  0  0  0  0  0  0  0  0
   60.3500   62.4200   26.3600 C   0  0  0  0  0  0  0  0  0  0  0  0
   59.1500   63.0600   25.8600 C   0  0  0  0  0  0  0  0  0  0  0  0
   59.1400   64.5000   25.9900 N   0  0  0  0  0  0  0  0  0  0  0  0
   59.2100   63.3400   24.5200 C   0  0  0  0  0  0  0  0  0  0  0  0
   59.1800   65.3900   24.9400 C   0  0  0  0  0  0  0  0  0  0  0  0
   59.1700   64.4600   24.1300 N   0  0  0  0  0  0  0  0  0  0  0  0
   59.1700   64.8400   26.9400 H   0  0  0  0  0  0  0  0  0  0  0  0
 19 20  2  0
 20 21  1  0
 20 22  1  0
 21 23  1  0
 21 24  1  0
 22 13  1  0
 23 25  1  0
 24 26  1  0
 13 14  2  0
 13 15  1  0
 14 16  1  0
 15 17  2  0
 16 11  1  0
 16 18  2  0
 11  1  1  0
  1  2  2  0
  1  3  1  0
  2  4  1  0
  3  5  2  0
  4 28  1  0
  4  6  2  0
  5  7  1  0
 28 30  1  0
  6  8  1  0
  7  9  1  0
 30 31  1  0
 31 32  1  0
 32 33  1  0
 32 34  2  0
 33 35  1  0
 34 36  1  0
 25 26  1  0
 17 18  1  0
  5  6  1  0
  8  9  2  0
 35 36  2  0
 22 27  1  0
 11 12  1  0
 28 29  1  0
  7 10  1  0
 33 37  1  0
M  END
>  <Source>  (1) 
EL2003A pose2, GROMACS MD last frame t=1000 ps

>  <MD_time_ps>  (1) 
1000

>  <pIC50_PDK>  (1) 
7.9

>  <dG_bind_kcalmol>  (1) 
-44.51

>  <method>  (1) 
MM-GBSA OBC2 1-traj ensemble mean, 1 ns GROMACS

$$$$
