@<TRIPOS>MOLECULE
LIG
   31    34     1     0     0
SMALL
gas


@<TRIPOS>ATOM
      1 C1          84.1340   154.8820    14.2580 ce         1 LIG       0.144591
      2 C2          84.9030   153.7300    14.3270 c1         1 LIG      -0.075482
      3 C3          82.7700   154.6810    14.2620 c1         1 LIG      -0.035763
      4 C4          84.3360   152.4740    14.3950 ca         1 LIG       0.061672
      5 C5          82.1920   153.4330    14.3290 c1         1 LIG      -0.056125
      6 C6          82.9660   152.3040    14.3970 ca         1 LIG       0.066932
      7 C7          84.9020   151.0880    14.4840 ca         1 LIG       0.092255
      8 C8          82.7070   150.8380    14.4700 ca         1 LIG       0.092798
      9 N1          83.8440   150.4460    15.2860 n          1 LIG      -0.207859
     10 C9          84.6680   150.4320    13.1660 ca         1 LIG       0.127121
     11 C10         83.1530   150.2720    13.1420 ca         1 LIG       0.127143
     12 C11         83.9200   149.7010    16.4550 c          1 LIG       0.365526
     13 O1          85.3080   149.2080    13.0340 oh         1 LIG      -0.356655
     14 O2          82.8530   148.9220    13.0150 oh         1 LIG      -0.356655
     15 O3          84.9830   149.4350    17.0620 o          1 LIG      -0.241377
     16 H1          85.0110   148.6100    13.7370 ho         1 LIG       0.218452
     17 H2          83.2770   148.4270    13.7340 ho         1 LIG       0.218452
     18 O4          84.5630   156.1080    11.8780 o          1 LIG      -0.252099
     19 C12         84.7220   156.8380    12.9000 c          1 LIG       0.324954
     20 N2          84.6720   156.1940    14.1870 n          1 LIG      -0.165321
     21 N3          84.9380   158.2310    12.7630 ns         1 LIG      -0.226954
     22 C13         85.1730   156.9290    15.3120 c1         1 LIG       0.021911
     23 C14         85.1070   158.9780    13.9720 c          1 LIG       0.296822
     24 C15         84.6250   158.3400    15.2240 c1         1 LIG       0.014545
     25 O5          85.6430   160.1160    13.9340 o          1 LIG      -0.261606
     26 H3          84.9710   158.6640    11.8790 hn         1 LIG       0.161345
     27 O6          82.7450   149.2100    17.0020 os         1 LIG      -0.255470
     28 C16         81.9840   149.8640    17.9770 c3         1 LIG       0.262931
     29 C17         81.3390   148.8590    18.8940 c1         1 LIG      -0.035362
     30 C18         80.9290   150.7690    17.3820 c1         1 LIG      -0.035362
     31 C19         82.9210   150.7360    18.7870 c1         1 LIG      -0.035362
@<TRIPOS>BOND
     1    18    19 2   
     2    19    20 1   
     3    19    21 1   
     4    20     1 1   
     5    20    22 1   
     6    21    23 1   
     7    21    26 1   
     8     1     2 2   
     9     1     3 1   
    10    22    24 1   
    11    23    25 2   
    12    23    24 1   
    13     2     4 1   
    14     3     5 2   
    15     4     6 ar  
    16     5     6 1   
    17     7     4 ar  
    18     7     9 1   
    19     7    10 ar  
    20     8     6 ar  
    21     8    11 ar  
    22     8     9 1   
    23     9    12 1   
    24    10    13 1   
    25    10    11 ar  
    26    11    14 1   
    27    12    15 2   
    28    12    27 1   
    29    13    16 1   
    30    14    17 1   
    31    27    28 1   
    32    28    29 1   
    33    28    30 1   
    34    28    31 1   
@<TRIPOS>SUBSTRUCTURE
     1 LIG         1 TEMP              0 ****  ****    0 ROOT
