@<TRIPOS>MOLECULE
LIG
   31    34     1     0     0
SMALL
gas


@<TRIPOS>ATOM
      1 C1          83.9620   154.9770    14.3230 ce         1 LIG       0.144591
      2 C2          84.6170   153.8330    14.7240 c1         1 LIG      -0.075482
      3 C3          82.6040   154.9700    14.0510 c1         1 LIG      -0.035763
      4 C4          83.9500   152.6530    14.8670 ca         1 LIG       0.061672
      5 C5          81.9330   153.7570    14.2000 c1         1 LIG      -0.056125
      6 C6          82.5950   152.6250    14.6000 ca         1 LIG       0.066932
      7 C7          84.3190   151.2630    15.2700 ca         1 LIG       0.092255
      8 C8          82.1560   151.2240    14.8370 ca         1 LIG       0.092798
      9 N1          83.3710   150.5300    14.4740 n          1 LIG      -0.207859
     10 C9          83.7030   151.0740    16.6430 ca         1 LIG       0.127121
     11 C10         82.2040   151.0280    16.3380 ca         1 LIG       0.127143
     12 C11         83.5090   149.4620    13.5950 c          1 LIG       0.365526
     13 O1          84.0080   152.1660    17.4330 oh         1 LIG      -0.356655
     14 O2          81.7100   149.7820    16.6430 oh         1 LIG      -0.356655
     15 O3          84.6490   148.9350    13.3590 o          1 LIG      -0.241377
     16 H1          83.7100   152.9770    16.9930 ho         1 LIG       0.218452
     17 H2          82.2080   149.1080    16.1560 ho         1 LIG       0.218452
     18 O4          84.8360   156.0480    11.8580 o          1 LIG      -0.252099
     19 C12         84.8600   156.7670    12.8950 c          1 LIG       0.324954
     20 N2          84.6890   156.1950    14.1840 n          1 LIG      -0.165321
     21 N3          85.0590   158.1800    12.8050 ns         1 LIG      -0.226954
     22 C13         85.2660   156.8770    15.3210 c1         1 LIG       0.021911
     23 C14         85.0770   158.9450    14.0050 c          1 LIG       0.296822
     24 C15         84.8590   158.3300    15.3310 c1         1 LIG       0.014545
     25 O5          85.2860   160.1980    13.9580 o          1 LIG      -0.261606
     26 H3          85.1810   158.6150    11.9300 hn         1 LIG       0.161345
     27 O6          82.4550   148.8730    12.9030 os         1 LIG      -0.255470
     28 C16         81.6560   147.8490    13.4050 c3         1 LIG       0.262931
     29 C17         82.2910   147.0980    14.5480 c1         1 LIG      -0.035362
     30 C18         80.2700   148.2910    13.7970 c1         1 LIG      -0.035362
     31 C19         81.4810   146.8240    12.2760 c1         1 LIG      -0.035362
@<TRIPOS>BOND
     1    18    19 2   
     2    19    20 1   
     3    19    21 1   
     4    20     1 1   
     5    20    22 1   
     6    21    23 1   
     7    21    26 1   
     8     1     2 2   
     9     1     3 1   
    10    22    24 1   
    11    23    25 2   
    12    23    24 1   
    13     2     4 1   
    14     3     5 2   
    15     4     6 ar  
    16     5     6 1   
    17     7     4 ar  
    18     7     9 1   
    19     7    10 ar  
    20     8     6 ar  
    21     8    11 ar  
    22     8     9 1   
    23     9    12 1   
    24    10    13 1   
    25    10    11 ar  
    26    11    14 1   
    27    12    15 2   
    28    12    27 1   
    29    13    16 1   
    30    14    17 1   
    31    27    28 1   
    32    28    29 1   
    33    28    30 1   
    34    28    31 1   
@<TRIPOS>SUBSTRUCTURE
     1 LIG         1 TEMP              0 ****  ****    0 ROOT
