@<TRIPOS>MOLECULE
LIG
   40    43     1     0     0
SMALL
gas


@<TRIPOS>ATOM
      1 S1          86.8850   147.9760    14.5940 s6         1 LIG      -0.028516
      2 O1          87.5750   146.7820    15.1830 o          1 LIG      -0.465650
      3 O2          85.3930   147.6760    14.6420 o          1 LIG      -0.465650
      4 N1          87.2610   149.4340    15.3960 n3         1 LIG       0.088182
      5 C1          87.3100   148.0200    12.8630 c1         1 LIG       0.433298
      6 C2          87.8120   150.4470    14.5240 c1         1 LIG       0.144128
      7 C3          86.3510   148.9040    12.0890 c1         1 LIG       0.151929
      8 C4          86.7010   150.9520    13.5920 c1         1 LIG       0.050885
      9 N2          86.7520   150.2820    12.3210 n          1 LIG      -0.131856
     10 C5          87.2290   151.0250    11.2150 c          1 LIG       0.315883
     11 O3          87.3020   150.4960    10.0590 o          1 LIG      -0.259714
     12 C6          86.2440   149.9230    16.2650 c1         1 LIG       0.101345
     13 C7          85.1900   150.7210    15.6380 ce         1 LIG       0.137243
     14 C8          85.3480   152.1010    15.4420 c1         1 LIG      -0.070903
     15 C9          84.0350   150.0840    15.2450 c1         1 LIG      -0.034370
     16 C10         84.3690   152.8600    14.8580 ce         1 LIG       0.132225
     17 C11         83.0480   150.8450    14.6570 c1         1 LIG      -0.015502
     18 C12         83.2000   152.2020    14.4630 c1         1 LIG      -0.039159
     19 C13         84.5140   154.2920    14.6450 c          1 LIG       0.264307
     20 O4          85.2900   154.9860    15.3910 o          1 LIG      -0.270071
     21 N3          83.8440   155.0310    13.6400 ns         1 LIG      -0.268731
     22 H1          83.2320   154.5510    13.0350 hn         1 LIG       0.156888
     23 C14         84.0130   156.4640    13.4550 c2         1 LIG       0.148463
     24 C15         85.3230   156.7900    12.8580 c          1 LIG       0.273186
     25 C16         83.6690   157.2460    14.6800 c1         1 LIG      -0.035395
     26 O5          85.9650   155.9120    12.2540 o          1 LIG      -0.269204
     27 N4          85.8270   158.1070    12.9880 ns         1 LIG      -0.238886
     28 C17         84.8100   158.0700    15.2350 c1         1 LIG      -0.000228
     29 C18         85.3540   158.8720    14.1040 c          1 LIG       0.294631
     30 O6          85.4130   160.1150    14.0840 o          1 LIG      -0.261697
     31 H2          86.4710   158.4790    12.3420 hn         1 LIG       0.160017
     32 C19         87.6570   152.4400    11.3800 c1         1 LIG       0.025781
     33 C20         88.8300   152.6990    10.4830 c1         1 LIG       0.070673
     34 O7          88.6670   153.6190     9.4810 os         1 LIG      -0.241973
     35 C21         88.7730   153.5010     8.1200 ce         1 LIG       0.195323
     36 C22         89.2210   154.6130     7.4160 c1         1 LIG      -0.016824
     37 C23         88.4800   152.3970     7.3760 c1         1 LIG      -0.016824
     38 C24         89.3720   154.6350     6.0550 c1         1 LIG      -0.006061
     39 C25         88.6090   152.3490     5.9980 c1         1 LIG      -0.006061
     40 C26         89.0570   153.4760     5.3530 c1         1 LIG      -0.001112
@<TRIPOS>BOND
     1     1     2 2   
     2     1     3 2   
     3     1     4 1   
     4     1     5 1   
     5     4     6 1   
     6     4    12 1   
     7     5     7 1   
     8     6     8 1   
     9    12    13 1   
    10     7     9 1   
    11     8     9 1   
    12    13    14 2   
    13    13    15 1   
    14     9    10 1   
    15    14    16 1   
    16    15    17 2   
    17    10    11 2   
    18    10    32 1   
    19    16    19 1   
    20    16    18 2   
    21    17    18 1   
    22    32    33 1   
    23    19    20 2   
    24    19    21 1   
    25    33    34 1   
    26    21    22 1   
    27    34    35 1   
    28    23    21 1   
    29    23    24 1   
    30    23    25 1   
    31    35    36 2   
    32    35    37 1   
    33    24    26 2   
    34    24    27 1   
    35    25    28 1   
    36    36    38 1   
    37    37    39 2   
    38    27    29 1   
    39    27    31 1   
    40    28    29 1   
    41    38    40 2   
    42    39    40 1   
    43    29    30 2   
@<TRIPOS>SUBSTRUCTURE
     1 LIG         1 TEMP              0 ****  ****    0 ROOT
