@<TRIPOS>MOLECULE
LIG
   40    43     1     0     0
SMALL
gas


@<TRIPOS>ATOM
      1 S1          83.4480   148.8970    19.1860 s6         1 LIG      -0.028516
      2 O1          82.8520   150.0610    19.9080 o          1 LIG      -0.465650
      3 O2          82.3370   147.8680    19.0160 o          1 LIG      -0.465650
      4 N1          84.0950   149.2820    17.6630 n3         1 LIG       0.088182
      5 C1          84.6430   148.1450    20.2640 c1         1 LIG       0.433298
      6 C2          85.4700   148.9340    17.4800 c1         1 LIG       0.144128
      7 C3          84.9900   146.7450    19.8180 c1         1 LIG       0.151929
      8 C4          85.6920   147.4180    17.4290 c1         1 LIG       0.050885
      9 N2          85.9270   146.8500    18.7180 n          1 LIG      -0.131856
     10 C5          87.2080   146.3120    19.0000 c          1 LIG       0.315883
     11 O3          87.5020   145.7900    20.0990 o          1 LIG      -0.259714
     12 C6          83.2730   148.9270    16.5400 c1         1 LIG       0.101345
     13 C7          83.1900   149.9870    15.5000 ce         1 LIG       0.137243
     14 C8          83.8570   151.1710    15.6550 c1         1 LIG      -0.070903
     15 C9          82.4270   149.7450    14.3850 c1         1 LIG      -0.034370
     16 C10         83.7560   152.1400    14.6640 ce         1 LIG       0.132225
     17 C11         82.3470   150.7250    13.4210 c1         1 LIG      -0.015502
     18 C12         82.9980   151.9280    13.5320 c1         1 LIG      -0.039159
     19 C13         84.4820   153.3830    14.8670 c          1 LIG       0.264307
     20 O4          85.2300   153.5060    15.8870 o          1 LIG      -0.270071
     21 N3          84.4310   154.5080    14.0060 ns         1 LIG      -0.268731
     22 H1          83.8690   154.4740    13.1990 hn         1 LIG       0.156888
     23 C14         85.2040   155.7240    14.2970 c2         1 LIG       0.148463
     24 C15         85.6990   156.2870    13.0360 c          1 LIG       0.273186
     25 C16         84.2070   156.7130    14.8930 c1         1 LIG      -0.035395
     26 O5          86.2690   155.5000    12.2300 o          1 LIG      -0.269204
     27 N4          85.5360   157.6750    12.7420 ns         1 LIG      -0.238886
     28 C17         84.8300   158.0660    15.1140 c1         1 LIG      -0.000228
     29 C18         85.1890   158.6120    13.7780 c          1 LIG       0.294631
     30 O6          85.1900   159.8480    13.5600 o          1 LIG      -0.261697
     31 H2          85.6620   157.9940    11.8190 hn         1 LIG       0.160017
     32 C19         88.2450   146.3720    17.9390 c1         1 LIG       0.025781
     33 C20         89.2770   147.3990    18.3530 c1         1 LIG       0.070673
     34 O7          88.9810   148.7000    18.0500 os         1 LIG      -0.241973
     35 C21         89.7830   149.7920    17.8930 ce         1 LIG       0.195323
     36 C22         90.1800   150.0950    16.5780 c1         1 LIG      -0.016824
     37 C23         90.2320   150.6060    18.8990 c1         1 LIG      -0.016824
     38 C24         90.9860   151.1650    16.2910 c1         1 LIG      -0.006061
     39 C25         91.0500   151.6990    18.6430 c1         1 LIG      -0.006061
     40 C26         91.4060   151.9480    17.3360 c1         1 LIG      -0.001112
@<TRIPOS>BOND
     1     1     2 2   
     2     1     3 2   
     3     1     4 1   
     4     1     5 1   
     5     4     6 1   
     6     4    12 1   
     7     5     7 1   
     8     6     8 1   
     9    12    13 1   
    10     7     9 1   
    11     8     9 1   
    12    13    14 2   
    13    13    15 1   
    14     9    10 1   
    15    14    16 1   
    16    15    17 2   
    17    10    11 2   
    18    10    32 1   
    19    16    19 1   
    20    16    18 2   
    21    17    18 1   
    22    32    33 1   
    23    19    20 2   
    24    19    21 1   
    25    33    34 1   
    26    21    22 1   
    27    34    35 1   
    28    23    21 1   
    29    23    24 1   
    30    23    25 1   
    31    35    36 2   
    32    35    37 1   
    33    24    26 2   
    34    24    27 1   
    35    25    28 1   
    36    36    38 1   
    37    37    39 2   
    38    27    29 1   
    39    27    31 1   
    40    28    29 1   
    41    38    40 2   
    42    39    40 1   
    43    29    30 2   
@<TRIPOS>SUBSTRUCTURE
     1 LIG         1 TEMP              0 ****  ****    0 ROOT
