@<TRIPOS>MOLECULE
LIG
   35    37     1     0     0
SMALL
gas


@<TRIPOS>ATOM
      1 N1          84.3580   150.0720    14.3970 nx         1 LIG       0.440859
      2 C1          82.9860   150.1660    14.1910 c2         1 LIG       0.173253
      3 C2          84.9310   150.9700    15.3610 c1         1 LIG       0.039381
      4 C3          82.2650   149.7470    15.5070 c1         1 LIG       0.035194
      5 C4          84.4930   150.9350    16.7540 c1         1 LIG       0.046954
      6 N2          82.1130   150.9180    16.3240 n          1 LIG      -0.129887
      7 C5          83.1810   151.6650    17.0130 c1         1 LIG       0.037576
      8 C6          80.8050   151.3920    16.4900 c          1 LIG       0.379641
      9 O1          80.5160   152.4150    17.1710 o          1 LIG      -0.240000
     10 H1          84.3270   149.1420    14.8150 hn         1 LIG       0.237553
     11 C7          82.3810   149.3620    13.0990 c          1 LIG       0.360031
     12 O2          81.4800   149.9010    12.3580 o          1 LIG      -0.252791
     13 O3          82.6760   148.0630    12.7750 os         1 LIG      -0.214288
     14 C8          81.8870   146.9710    13.2020 c1         1 LIG       0.094131
     15 C9          85.2320   149.9260    13.2610 c1         1 LIG       0.002338
     16 C10         85.6710   153.6600    12.8040 ce         1 LIG       0.146537
     17 C11         85.1970   152.4280    13.1770 c1         1 LIG      -0.056325
     18 C12         86.8160   153.6860    12.0010 c1         1 LIG      -0.027566
     19 C13         85.7880   151.2090    12.8030 ce         1 LIG       0.156638
     20 C14         87.4120   152.5170    11.6230 c1         1 LIG      -0.014170
     21 C15         86.8920   151.2810    12.0280 c1         1 LIG      -0.031077
     22 O4          85.0900   154.5690    15.4830 o          1 LIG      -0.252104
     23 C16         85.1080   155.3210    14.5010 c          1 LIG       0.324951
     24 N3          85.0700   154.9020    13.1520 n          1 LIG      -0.165248
     25 N4          85.1690   156.7400    14.7610 ns         1 LIG      -0.226949
     26 C17         84.4680   155.7020    12.1050 c1         1 LIG       0.021912
     27 C18         85.1830   157.5680    13.6100 c          1 LIG       0.296820
     28 C19         84.3770   157.1720    12.4410 c1         1 LIG       0.014548
     29 O5          85.8660   158.6130    13.5920 o          1 LIG      -0.261611
     30 H2          85.2000   157.1080    15.6740 hn         1 LIG       0.161350
     31 O6          79.7570   150.7290    15.8920 os         1 LIG      -0.254543
     32 C20         78.7690   149.9710    16.5090 c3         1 LIG       0.262972
     33 C21         77.4100   150.5090    16.0380 c1         1 LIG      -0.035360
     34 C22         78.8210   150.0280    18.0390 c1         1 LIG      -0.035360
     35 C23         78.8650   148.5470    16.0160 c1         1 LIG      -0.035360
@<TRIPOS>BOND
     1    22    23 2   
     2    23    24 1   
     3    23    25 1   
     4    24    16 1   
     5    24    26 1   
     6    25    27 1   
     7    25    30 1   
     8    16    17 2   
     9    16    18 1   
    10    26    28 1   
    11    27    29 2   
    12    27    28 1   
    13    17    19 1   
    14    18    20 2   
    15    19    21 2   
    16    19    15 1   
    17    20    21 1   
    18    15     1 1   
    19     1     2 1   
    20     1     3 1   
    21     1    10 1   
    22     2    11 1   
    23     2     4 1   
    24     3     5 1   
    25    11    12 2   
    26    11    13 1   
    27     4     6 1   
    28     5     7 1   
    29    13    14 1   
    30     6     8 1   
    31     6     7 1   
    32     8     9 2   
    33     8    31 1   
    34    31    32 1   
    35    32    33 1   
    36    32    34 1   
    37    32    35 1   
@<TRIPOS>SUBSTRUCTURE
     1 LIG         1 TEMP              0 ****  ****    0 ROOT
