@<TRIPOS>MOLECULE
LIG
   39    42     1     0     0
SMALL
gas


@<TRIPOS>ATOM
      1 C1          81.7590   151.6230    15.2150 c1         1 LIG       0.101345
      2 S1          83.3200   150.4230    13.5070 s6         1 LIG      -0.028516
      3 O1          83.3090   149.0530    14.1750 o          1 LIG      -0.465650
      4 O2          82.1850   150.4010    12.5190 o          1 LIG      -0.465650
      5 N1          83.0420   151.5930    14.6520 n3         1 LIG       0.088182
      6 C2          84.8160   150.5620    12.5970 c1         1 LIG       0.433299
      7 C3          84.0990   152.2890    15.2500 c1         1 LIG       0.144129
      8 C4          85.9220   151.2430    13.3570 c1         1 LIG       0.151968
      9 C5          84.7060   153.3180    14.2770 c1         1 LIG       0.050924
     10 N2          85.6100   152.6800    13.3780 n          1 LIG      -0.130741
     11 C6          86.2690   153.4490    12.4260 c          1 LIG       0.329990
     12 O3          87.0780   152.8890    11.6110 o          1 LIG      -0.258232
     13 C7          86.1090   154.8950    12.2730 c1         1 LIG       0.083666
     14 O4          84.9820   155.4530    12.8650 os         1 LIG      -0.245315
     15 C8          84.9700   156.6570    13.5120 ce         1 LIG       0.194724
     16 C9          84.6120   156.7160    14.8350 c1         1 LIG      -0.016850
     17 C10         85.3230   157.8170    12.8190 c1         1 LIG      -0.016850
     18 C11         84.6190   157.9530    15.4330 c1         1 LIG      -0.006061
     19 C12         85.3210   159.0430    13.4400 c1         1 LIG      -0.006061
     20 C13         84.9640   159.1110    14.7660 c1         1 LIG      -0.001112
     21 C14         81.5970   150.9860    16.5380 ce         1 LIG       0.137243
     22 C15         80.3390   150.7010    17.0600 c1         1 LIG      -0.070903
     23 C16         82.6900   150.6450    17.3040 c1         1 LIG      -0.034370
     24 C17         80.1690   150.1030    18.2900 ce         1 LIG       0.132225
     25 C18         82.5680   150.0450    18.5420 c1         1 LIG      -0.015502
     26 C19         81.3030   149.7870    19.0070 c1         1 LIG      -0.039159
     27 C20         78.8740   149.7910    18.8670 c          1 LIG       0.264307
     28 O5          78.6960   148.6440    19.3590 o          1 LIG      -0.270071
     29 N3          77.7860   150.7010    18.9140 ns         1 LIG      -0.268731
     30 H1          77.8740   151.6090    18.5430 hn         1 LIG       0.156888
     31 C21         76.5450   150.2700    19.5160 c2         1 LIG       0.148463
     32 C22         76.3940   150.7870    20.8940 c          1 LIG       0.273186
     33 C23         75.3800   150.7950    18.6970 c1         1 LIG      -0.035395
     34 O6          76.6050   150.0280    21.8680 o          1 LIG      -0.269204
     35 N4          76.0110   152.1410    21.0650 ns         1 LIG      -0.238886
     36 C24         75.3890   152.3080    18.6200 c1         1 LIG      -0.000228
     37 C25         75.5550   152.9260    19.9570 c          1 LIG       0.294631
     38 O7          75.2990   154.1350    20.1240 o          1 LIG      -0.261697
     39 H2          76.0590   152.5480    21.9600 hn         1 LIG       0.160017
@<TRIPOS>BOND
     1     2     3 2   
     2     2     4 2   
     3     2     5 1   
     4     2     6 1   
     5     5     7 1   
     6     5     1 1   
     7     6     8 1   
     8     7     9 1   
     9     1    21 1   
    10     8    10 1   
    11     9    10 1   
    12    21    22 2   
    13    21    23 1   
    14    10    11 1   
    15    22    24 1   
    16    23    25 2   
    17    11    12 2   
    18    11    13 1   
    19    24    27 1   
    20    24    26 2   
    21    25    26 1   
    22    13    14 1   
    23    27    28 2   
    24    27    29 1   
    25    14    15 1   
    26    29    30 1   
    27    15    16 2   
    28    15    17 1   
    29    31    29 1   
    30    31    32 1   
    31    31    33 1   
    32    16    18 1   
    33    17    19 2   
    34    32    34 2   
    35    32    35 1   
    36    33    36 1   
    37    18    20 2   
    38    19    20 1   
    39    35    37 1   
    40    35    39 1   
    41    36    37 1   
    42    37    38 2   
@<TRIPOS>SUBSTRUCTURE
     1 LIG         1 TEMP              0 ****  ****    0 ROOT
