@<TRIPOS>MOLECULE
LIG
   36    38     1     0     0
SMALL
gas


@<TRIPOS>ATOM
      1 C1          80.8720   150.2190    17.1830 ce         1 LIG       0.137246
      2 C2          79.6080   150.7370    17.3570 c1         1 LIG      -0.070901
      3 C3          80.9260   148.8820    16.7710 c1         1 LIG      -0.034369
      4 C4          78.4690   149.9900    17.1390 ce         1 LIG       0.132228
      5 C5          79.8100   148.1300    16.5520 c1         1 LIG      -0.015503
      6 C6          78.5360   148.6830    16.7360 c1         1 LIG      -0.039159
      7 C7          77.1720   150.6070    17.3420 c          1 LIG       0.264304
      8 O1          76.2840   150.6060    16.4270 o          1 LIG      -0.270077
      9 N1          76.7830   151.2490    18.5470 ns         1 LIG      -0.268729
     10 H1          77.4180   151.2860    19.2980 hn         1 LIG       0.156892
     11 C8          75.4530   151.8600    18.7020 c2         1 LIG       0.148464
     12 C9          75.6150   153.0360    19.5650 c          1 LIG       0.273184
     13 C10         74.4680   150.8410    19.2360 c1         1 LIG      -0.035393
     14 O2          75.7300   154.2180    19.1100 o          1 LIG      -0.269211
     15 N2          75.6430   152.8290    20.9840 ns         1 LIG      -0.238882
     16 C11         74.5460   150.6090    20.7020 c1         1 LIG      -0.000226
     17 C12         75.4290   151.5070    21.4430 c          1 LIG       0.294629
     18 O3          75.9980   151.1170    22.4820 o          1 LIG      -0.261703
     19 H2          75.8040   153.5710    21.6100 hn         1 LIG       0.160021
     20 C13         82.1260   150.9870    17.4000 c1         1 LIG       0.101347
     21 S1          84.1060   150.6960    15.7780 s6         1 LIG      -0.028508
     22 O4          84.8850   150.4000    17.0560 o          1 LIG      -0.465648
     23 O5          83.8810   149.3260    15.1480 o          1 LIG      -0.465648
     24 N3          82.6700   151.3860    16.1550 n3         1 LIG       0.088168
     25 C14         85.1960   151.5750    14.7190 c1         1 LIG       0.433285
     26 C15         82.0430   152.3910    15.4460 c1         1 LIG       0.144133
     27 C16         85.1770   153.0360    15.1740 c1         1 LIG       0.152068
     28 C17         82.7540   152.9910    14.2790 c1         1 LIG       0.051025
     29 N4          83.9880   153.6260    14.6020 n          1 LIG      -0.128374
     30 C18         84.0900   155.0130    14.3430 c          1 LIG       0.349871
     31 O6          83.0820   155.5880    13.8400 o          1 LIG      -0.255073
     32 C19         85.3160   155.8000    14.6380 c1         1 LIG       0.057912
     33 N5          85.2160   157.1600    14.1970 nx         1 LIG       0.476636
     34 C20         84.4310   158.0110    15.0340 c1         1 LIG       0.088759
     35 C21         84.7790   157.2730    12.8190 c1         1 LIG       0.088759
     36 H3          86.1750   157.4990    14.2660 hn         1 LIG       0.248473
@<TRIPOS>BOND
     1    21    22 2   
     2    21    23 2   
     3    21    24 1   
     4    21    25 1   
     5    24    26 1   
     6    24    20 1   
     7    25    27 1   
     8    26    28 1   
     9    20     1 1   
    10    27    29 1   
    11    28    29 1   
    12     1     2 2   
    13     1     3 1   
    14    29    30 1   
    15     2     4 1   
    16     3     5 2   
    17    30    31 2   
    18    30    32 1   
    19     4     7 1   
    20     4     6 2   
    21     5     6 1   
    22    32    33 1   
    23     7     8 2   
    24     7     9 1   
    25    33    34 1   
    26    33    35 1   
    27    33    36 1   
    28     9    10 1   
    29    11     9 1   
    30    11    12 1   
    31    11    13 1   
    32    12    14 2   
    33    12    15 1   
    34    13    16 1   
    35    15    17 1   
    36    15    19 1   
    37    16    17 1   
    38    17    18 2   
@<TRIPOS>SUBSTRUCTURE
     1 LIG         1 TEMP              0 ****  ****    0 ROOT
