@<TRIPOS>MOLECULE
LIG
   31    34     1     0     0
SMALL
gas


@<TRIPOS>ATOM
      1 C1          84.3680   154.8760    14.3060 ce         1 LIG       0.144591
      2 C2          85.0700   153.6870    14.4210 c1         1 LIG      -0.075482
      3 C3          82.9940   154.7510    14.2640 c1         1 LIG      -0.035763
      4 C4          84.4610   152.4400    14.4920 ca         1 LIG       0.061672
      5 C5          82.3570   153.5130    14.3320 c1         1 LIG      -0.056125
      6 C6          83.0830   152.3570    14.4460 ca         1 LIG       0.066932
      7 C7          84.9440   151.0410    14.6140 ca         1 LIG       0.092255
      8 C8          82.7430   150.9050    14.5430 ca         1 LIG       0.092798
      9 N1          83.8530   150.4810    15.3970 n          1 LIG      -0.207859
     10 C9          84.6620   150.3870    13.2810 ca         1 LIG       0.127121
     11 C10         83.1440   150.2340    13.2490 ca         1 LIG       0.127143
     12 C11         83.8550   149.7530    16.6070 c          1 LIG       0.365526
     13 O1          85.3000   149.1650    13.1470 oh         1 LIG      -0.356655
     14 O2          82.5860   150.8250    12.1370 oh         1 LIG      -0.356655
     15 O3          84.9610   149.5090    17.1630 o          1 LIG      -0.241377
     16 H1          85.0130   148.5710    13.8580 ho         1 LIG       0.218452
     17 H2          82.8360   151.7620    12.1080 ho         1 LIG       0.218452
     18 O4          85.8210   156.0160    12.0750 o          1 LIG      -0.252099
     19 C12         85.4730   156.7140    13.0410 c          1 LIG       0.324954
     20 N2          85.0310   156.1290    14.2600 n          1 LIG      -0.165321
     21 N3          85.5070   158.1490    12.9640 ns         1 LIG      -0.226954
     22 C13         85.2790   156.9300    15.4410 c1         1 LIG       0.021911
     23 C14         85.1090   158.9330    14.0800 c          1 LIG       0.296822
     24 C15         84.5340   158.2550    15.2590 c1         1 LIG       0.014545
     25 O5          85.2710   160.1740    13.9990 o          1 LIG      -0.261606
     26 H3          85.8070   158.5900    12.1360 hn         1 LIG       0.161345
     27 O6          82.7230   149.2920    17.2210 os         1 LIG      -0.255470
     28 C16         81.9410   150.0120    18.1280 c3         1 LIG       0.262931
     29 C17         81.2260   149.1180    19.1190 c1         1 LIG      -0.035362
     30 C18         80.9700   150.9530    17.4380 c1         1 LIG      -0.035362
     31 C19         82.8860   150.8910    18.9490 c1         1 LIG      -0.035362
@<TRIPOS>BOND
     1    18    19 2   
     2    19    20 1   
     3    19    21 1   
     4    20     1 1   
     5    20    22 1   
     6    21    23 1   
     7    21    26 1   
     8     1     2 2   
     9     1     3 1   
    10    22    24 1   
    11    23    25 2   
    12    23    24 1   
    13     2     4 1   
    14     3     5 2   
    15     4     6 ar  
    16     5     6 1   
    17     7     4 ar  
    18     7     9 1   
    19     7    10 ar  
    20     8     6 ar  
    21     8    11 ar  
    22     8     9 1   
    23     9    12 1   
    24    10    13 1   
    25    10    11 ar  
    26    11    14 1   
    27    12    15 2   
    28    12    27 1   
    29    13    16 1   
    30    14    17 1   
    31    27    28 1   
    32    28    29 1   
    33    28    30 1   
    34    28    31 1   
@<TRIPOS>SUBSTRUCTURE
     1 LIG         1 TEMP              0 ****  ****    0 ROOT
