@<TRIPOS>MOLECULE
LIG
   31    34     1     0     0
SMALL
gas


@<TRIPOS>ATOM
      1 C1          83.9850   154.9630    14.3500 ce         1 LIG       0.144591
      2 C2          84.6300   153.7890    14.6880 c1         1 LIG      -0.075482
      3 C3          82.6300   154.9950    14.1500 c1         1 LIG      -0.035763
      4 C4          83.9570   152.6180    14.8370 ca         1 LIG       0.061672
      5 C5          81.9390   153.7990    14.3020 c1         1 LIG      -0.056125
      6 C6          82.5850   152.6320    14.6380 ca         1 LIG       0.066932
      7 C7          84.2930   151.2040    15.1830 ca         1 LIG       0.092255
      8 C8          82.1110   151.2520    14.8580 ca         1 LIG       0.092798
      9 N1          83.2820   150.5140    14.4010 n          1 LIG      -0.207859
     10 C9          83.7330   150.9830    16.5690 ca         1 LIG       0.127121
     11 C10         82.2200   150.9940    16.3460 ca         1 LIG       0.127143
     12 C11         83.3290   149.4660    13.4800 c          1 LIG       0.365526
     13 O1          84.1710   149.7370    17.0020 oh         1 LIG      -0.356655
     14 O2          81.7210   149.7200    16.5830 oh         1 LIG      -0.356655
     15 O3          84.3720   148.8670    13.1250 o          1 LIG      -0.241377
     16 H1          83.9160   149.0610    16.3550 ho         1 LIG       0.218452
     17 H2          82.1890   149.0810    16.0230 ho         1 LIG       0.218452
     18 O4          84.9070   156.0100    11.8930 o          1 LIG      -0.252099
     19 C12         84.9090   156.7440    12.9190 c          1 LIG       0.324954
     20 N2          84.7400   156.1800    14.2030 n          1 LIG      -0.165321
     21 N3          85.0800   158.1500    12.8010 ns         1 LIG      -0.226954
     22 C13         85.3330   156.8440    15.3430 c1         1 LIG       0.021911
     23 C14         85.0710   158.9220    14.0010 c          1 LIG       0.296822
     24 C15         84.9320   158.2890    15.3290 c1         1 LIG       0.014545
     25 O5          85.1840   160.1550    13.9110 o          1 LIG      -0.261606
     26 H3          85.2000   158.5770    11.9220 hn         1 LIG       0.161345
     27 O6          82.1440   149.0350    12.8980 os         1 LIG      -0.255470
     28 C16         81.6390   147.7360    13.0140 c3         1 LIG       0.262931
     29 C17         80.3670   147.5210    12.2240 c1         1 LIG      -0.035362
     30 C18         82.6370   146.6730    12.6300 c1         1 LIG      -0.035362
     31 C19         81.3160   147.5160    14.4960 c1         1 LIG      -0.035362
@<TRIPOS>BOND
     1    18    19 2   
     2    19    20 1   
     3    19    21 1   
     4    20     1 1   
     5    20    22 1   
     6    21    23 1   
     7    21    26 1   
     8     1     2 2   
     9     1     3 1   
    10    22    24 1   
    11    23    25 2   
    12    23    24 1   
    13     2     4 1   
    14     3     5 2   
    15     4     6 ar  
    16     5     6 1   
    17     7     4 ar  
    18     7     9 1   
    19     7    10 ar  
    20     8     6 ar  
    21     8    11 ar  
    22     8     9 1   
    23     9    12 1   
    24    10    13 1   
    25    10    11 ar  
    26    11    14 1   
    27    12    15 2   
    28    12    27 1   
    29    13    16 1   
    30    14    17 1   
    31    27    28 1   
    32    28    29 1   
    33    28    30 1   
    34    28    31 1   
@<TRIPOS>SUBSTRUCTURE
     1 LIG         1 TEMP              0 ****  ****    0 ROOT
