@<TRIPOS>MOLECULE
LIG
   37    40     1     0     0
SMALL
gas


@<TRIPOS>ATOM
      1 C1          83.4060   150.2660    15.8060 ce         1 LIG       0.137243
      2 C2          83.4500   149.3420    16.8020 c1         1 LIG      -0.070903
      3 C3          82.9460   151.5320    16.1480 c1         1 LIG      -0.034370
      4 C4          83.0640   149.5980    18.1070 ce         1 LIG       0.132225
      5 C5          82.5540   151.8310    17.4290 c1         1 LIG      -0.015502
      6 C6          82.6150   150.8550    18.4090 c1         1 LIG      -0.039159
      7 C7          83.1460   148.5290    19.1150 c          1 LIG       0.264307
      8 O1          82.3530   147.5290    19.0330 o          1 LIG      -0.270071
      9 N1          84.0440   148.5040    20.1950 ns         1 LIG      -0.268731
     10 H1          84.6770   149.2510    20.2980 hn         1 LIG       0.156888
     11 C8          84.0780   147.4260    21.1650 c2         1 LIG       0.148463
     12 C9          84.5090   147.9740    22.4650 c          1 LIG       0.273186
     13 C10         85.0430   146.3790    20.6590 c1         1 LIG      -0.035395
     14 O2          83.6730   148.2810    23.3320 o          1 LIG      -0.269204
     15 N2          85.8920   148.1390    22.7030 ns         1 LIG      -0.238886
     16 C11         86.4660   146.8010    20.6810 c1         1 LIG      -0.000228
     17 C12         86.7860   147.8940    21.6250 c          1 LIG       0.294631
     18 O3          87.8210   148.6060    21.5010 o          1 LIG      -0.261697
     19 H2          86.2260   148.4170    23.5870 hn         1 LIG       0.160017
     20 C13         83.7820   149.9760    14.3820 c1         1 LIG       0.101345
     21 S1          85.7370   151.7140    14.5790 s6         1 LIG      -0.028516
     22 O4          86.9830   151.7680    13.6740 o          1 LIG      -0.465650
     23 O5          86.1770   150.7290    15.6670 o          1 LIG      -0.465650
     24 N3          84.4080   151.0940    13.7870 n3         1 LIG       0.088182
     25 C14         85.5110   153.2400    15.3970 c1         1 LIG       0.433281
     26 C15         83.6030   151.9760    13.0360 c1         1 LIG       0.144111
     27 C16         84.7830   154.3170    14.7200 c1         1 LIG       0.151465
     28 C17         84.3620   153.1070    12.3990 c1         1 LIG       0.050421
     29 N4          84.5560   154.2390    13.3070 n          1 LIG      -0.136954
     30 C18         84.5090   155.5120    12.6760 c          1 LIG       0.297117
     31 O6          84.3140   155.5740    11.4440 o          1 LIG      -0.266977
     32 C19         84.6820   156.7380    13.4310 ce         1 LIG       0.189068
     33 N5          85.3470   157.8010    12.8800 nf         1 LIG      -0.181990
     34 C20         84.1900   156.8630    14.7100 c1         1 LIG      -0.026049
     35 C21         85.5290   158.9450    13.5480 c1         1 LIG       0.049553
     36 C22         84.3640   158.0240    15.4150 c1         1 LIG      -0.006110
     37 C23         85.0400   159.0910    14.8450 c1         1 LIG       0.010543
@<TRIPOS>BOND
     1    21    22 2   
     2    21    23 2   
     3    21    24 1   
     4    21    25 1   
     5    24    26 1   
     6    24    20 1   
     7    25    27 1   
     8    26    28 1   
     9    20     1 1   
    10    27    29 1   
    11    28    29 1   
    12     1     2 2   
    13     1     3 1   
    14    29    30 1   
    15     2     4 1   
    16     3     5 2   
    17    30    31 2   
    18    30    32 1   
    19     4     7 1   
    20     4     6 2   
    21     5     6 1   
    22    32    33 2   
    23    32    34 1   
    24     7     8 2   
    25     7     9 1   
    26    33    35 1   
    27    34    36 2   
    28     9    10 1   
    29    35    37 2   
    30    36    37 1   
    31    11     9 1   
    32    11    12 1   
    33    11    13 1   
    34    12    14 2   
    35    12    15 1   
    36    13    16 1   
    37    15    17 1   
    38    15    19 1   
    39    16    17 1   
    40    17    18 2   
@<TRIPOS>SUBSTRUCTURE
     1 LIG         1 TEMP              0 ****  ****    0 ROOT
