@<TRIPOS>MOLECULE
LIG
   31    33     1     0     0
SMALL
gas


@<TRIPOS>ATOM
      1 C1          82.1820   151.0380    14.9620 ce         1 LIG       0.137248
      2 C2          82.5560   152.3600    14.9820 c1         1 LIG      -0.070901
      3 C3          82.5120   150.2510    13.9010 c1         1 LIG      -0.034369
      4 C4          83.2610   152.9140    13.9500 ce         1 LIG       0.132228
      5 C5          83.2250   150.8190    12.8600 c1         1 LIG      -0.015503
      6 C6          83.6040   152.1540    12.8780 c1         1 LIG      -0.039159
      7 C7          83.6370   154.3330    14.0170 c          1 LIG       0.264304
      8 O1          82.7160   155.2080    13.8850 o          1 LIG      -0.270077
      9 N1          84.9370   154.8050    14.2170 ns         1 LIG      -0.268729
     10 H1          85.6810   154.1700    14.3240 hn         1 LIG       0.156892
     11 C8          85.1870   156.2260    14.2650 c2         1 LIG       0.148464
     12 C9          85.3060   156.8190    12.9110 c          1 LIG       0.273184
     13 C10         84.1010   156.9750    14.9950 c1         1 LIG      -0.035393
     14 O2          85.4370   156.1580    11.8500 o          1 LIG      -0.269211
     15 N2          85.2660   158.2340    12.8290 ns         1 LIG      -0.238882
     16 C11         84.6560   158.3750    15.2730 c1         1 LIG      -0.000226
     17 C12         85.1560   158.9970    14.0230 c          1 LIG       0.294629
     18 O3          85.4740   160.2030    14.0480 o          1 LIG      -0.261703
     19 H2          85.3150   158.6830    11.9540 hn         1 LIG       0.160021
     20 C13         81.4220   150.5240    16.1220 c1         1 LIG       0.101513
     21 S1          79.2130   150.1730    17.3910 s6         1 LIG      -0.025336
     22 O4          78.7270   151.4340    18.0170 o          1 LIG      -0.465554
     23 O5          80.1260   149.3940    18.2960 o          1 LIG      -0.465554
     24 N3          79.9870   150.5540    15.9200 n3         1 LIG       0.091633
     25 C14         77.7590   149.1940    16.9890 c1         1 LIG       0.463902
     26 C15         79.6620   149.6850    14.8360 c1         1 LIG       0.174593
     27 C16         76.8050   150.0710    16.2060 c1         1 LIG       0.148442
     28 C17         78.2600   149.8660    14.3150 c1         1 LIG       0.047676
     29 N4          77.5240   150.7750    15.1660 ny         1 LIG       0.410144
     30 H3          78.1780   151.4260    15.6000 hn         1 LIG       0.227861
     31 H4          76.8440   151.2710    14.5890 hn         1 LIG       0.227861
@<TRIPOS>BOND
     1    21    22 2   
     2    21    23 2   
     3    21    24 1   
     4    21    25 1   
     5    24    26 1   
     6    24    20 1   
     7    25    27 1   
     8    26    28 1   
     9    20     1 1   
    10    27    29 1   
    11    28    29 1   
    12     1     2 2   
    13     1     3 1   
    14    29    30 1   
    15    29    31 1   
    16     2     4 1   
    17     3     5 2   
    18     4     7 1   
    19     4     6 2   
    20     5     6 1   
    21     7     8 2   
    22     7     9 1   
    23     9    10 1   
    24    11     9 1   
    25    11    12 1   
    26    11    13 1   
    27    12    14 2   
    28    12    15 1   
    29    13    16 1   
    30    15    17 1   
    31    15    19 1   
    32    16    17 1   
    33    17    18 2   
@<TRIPOS>SUBSTRUCTURE
     1 LIG         1 TEMP              0 ****  ****    0 ROOT
