D03
     RDKit          3D

 54 57  0  0  0  0  0  0  0  0999 V2000
    2.8174   -2.7275   -0.2883 O   0  0  0  0  0  0  0  0  0  0  0  0
    3.3893   -1.6534   -0.1246 C   0  0  0  0  0  0  0  0  0  0  0  0
    4.8526   -1.6496   -0.2563 C   0  0  0  0  0  0  0  0  0  0  0  0
    5.6111   -2.4157    0.6133 C   0  0  0  0  0  0  0  0  0  0  0  0
    6.9636   -2.4786    0.5592 N   0  0  0  0  0  0  0  0  0  0  0  0
    7.5727   -1.7796   -0.4283 C   0  0  0  0  0  0  0  0  0  0  0  0
    6.8955   -1.0171   -1.3729 C   0  0  0  0  0  0  0  0  0  0  0  0
    7.6601   -0.2708   -2.4212 C   0  0  0  0  0  0  0  0  0  0  0  0
    8.7764   -0.9250   -2.8401 F   0  0  0  0  0  0  0  0  0  0  0  0
    8.0791    0.9457   -1.9778 F   0  0  0  0  0  0  0  0  0  0  0  0
    6.9260   -0.0258   -3.5414 F   0  0  0  0  0  0  0  0  0  0  0  0
    5.4995   -0.9524   -1.2777 C   0  0  0  0  0  0  0  0  0  0  0  0
    2.7243   -0.4667    0.1703 N   0  0  0  0  0  0  0  0  0  0  0  0
    1.2665   -0.4862    0.0167 C   0  0  0  0  0  0  0  0  0  0  0  0
    0.5218    0.7053    0.5822 C   0  0  0  0  0  0  0  0  0  0  0  0
   -0.8213    0.7291    0.3862 N   0  0  0  0  0  0  0  0  0  0  0  0
   -1.5072    1.7908    0.8989 C   0  0  0  0  0  0  0  0  0  0  0  0
   -2.9897    1.7895    0.6747 C   0  0  0  0  0  0  0  0  0  0  0  0
   -3.7085    2.6750    1.1222 O   0  0  0  0  0  0  0  0  0  0  0  0
   -3.4494    0.7107   -0.0541 N   0  0  0  0  0  0  0  0  0  0  0  0
   -4.8605    0.4375   -0.2470 C   0  0  0  0  0  0  0  0  0  0  0  0
   -5.4772   -0.1711    1.0263 C   0  0  0  0  0  0  0  0  0  0  0  0
   -6.7434   -0.9924    0.7705 C   0  0  0  0  0  0  0  0  0  0  0  0
   -7.4329   -0.5919   -0.5185 C   0  0  0  0  0  0  0  0  0  0  0  0
   -8.5664   -1.3162   -0.6822 F   0  0  0  0  0  0  0  0  0  0  0  0
   -7.8186    0.7072   -0.4265 F   0  0  0  0  0  0  0  0  0  0  0  0
   -6.5417   -0.7641   -1.7398 C   0  0  0  0  0  0  0  0  0  0  0  0
   -5.0649   -0.4768   -1.4564 C   0  0  0  0  0  0  0  0  0  0  0  0
   -0.9154    2.8274    1.6036 C   0  0  0  0  0  0  0  0  0  0  0  0
    0.4608    2.7855    1.7926 C   0  0  0  0  0  0  0  0  0  0  0  0
    1.1987    1.7207    1.2663 C   0  0  0  0  0  0  0  0  0  0  0  0
    2.6833    1.6330    1.4763 C   0  0  0  0  0  0  0  0  0  0  0  0
    3.3583    0.8386    0.3593 C   0  0  0  0  0  0  0  0  0  0  0  0
    5.1479   -3.0099    1.3968 H   0  0  0  0  0  0  0  0  0  0  0  0
    8.6585   -1.8630   -0.4374 H   0  0  0  0  0  0  0  0  0  0  0  0
    4.9222   -0.3785   -1.9999 H   0  0  0  0  0  0  0  0  0  0  0  0
    0.8730   -1.3978    0.4818 H   0  0  0  0  0  0  0  0  0  0  0  0
    1.0618   -0.5432   -1.0596 H   0  0  0  0  0  0  0  0  0  0  0  0
   -2.7515   -0.0031   -0.2541 H   0  0  0  0  0  0  0  0  0  0  0  0
   -5.3521    1.3989   -0.4473 H   0  0  0  0  0  0  0  0  0  0  0  0
   -4.7488   -0.8092    1.5445 H   0  0  0  0  0  0  0  0  0  0  0  0
   -5.7069    0.6422    1.7275 H   0  0  0  0  0  0  0  0  0  0  0  0
   -6.4904   -2.0590    0.7267 H   0  0  0  0  0  0  0  0  0  0  0  0
   -7.4300   -0.8782    1.6171 H   0  0  0  0  0  0  0  0  0  0  0  0
   -6.8946   -0.0877   -2.5278 H   0  0  0  0  0  0  0  0  0  0  0  0
   -6.6386   -1.7802   -2.1402 H   0  0  0  0  0  0  0  0  0  0  0  0
   -4.5466   -1.4292   -1.2788 H   0  0  0  0  0  0  0  0  0  0  0  0
   -4.5975   -0.0462   -2.3509 H   0  0  0  0  0  0  0  0  0  0  0  0
   -1.5115    3.6441    1.9979 H   0  0  0  0  0  0  0  0  0  0  0  0
    0.9501    3.5821    2.3483 H   0  0  0  0  0  0  0  0  0  0  0  0
    2.8654    1.1464    2.4425 H   0  0  0  0  0  0  0  0  0  0  0  0
    3.1236    2.6361    1.5151 H   0  0  0  0  0  0  0  0  0  0  0  0
    3.2884    1.3728   -0.5963 H   0  0  0  0  0  0  0  0  0  0  0  0
    4.4177    0.7272    0.6044 H   0  0  0  0  0  0  0  0  0  0  0  0
  1  2  2  0
  2  3  1  0
  3  4  2  0
  4  5  1  0
  5  6  2  0
  6  7  1  0
  7  8  1  0
  8  9  1  0
  8 10  1  0
  8 11  1  0
  7 12  2  0
  2 13  1  0
 13 14  1  0
 14 15  1  0
 15 16  2  0
 16 17  1  0
 17 18  1  0
 18 19  2  0
 18 20  1  0
 20 21  1  0
 21 22  1  0
 22 23  1  0
 23 24  1  0
 24 25  1  0
 24 26  1  0
 24 27  1  0
 27 28  1  0
 17 29  2  0
 29 30  1  0
 30 31  2  0
 31 32  1  0
 32 33  1  0
 33 13  1  0
 31 15  1  0
 12  3  1  0
 28 21  1  0
  4 34  1  0
  6 35  1  0
 12 36  1  0
 14 37  1  0
 14 38  1  0
 20 39  1  0
 21 40  1  0
 22 41  1  0
 22 42  1  0
 23 43  1  0
 23 44  1  0
 27 45  1  0
 27 46  1  0
 28 47  1  0
 28 48  1  0
 29 49  1  0
 30 50  1  0
 32 51  1  0
 32 52  1  0
 33 53  1  0
 33 54  1  0
M  END
>  <type>  (1) 
designed

$$$$
E01
     RDKit          3D

 67 72  0  0  0  0  0  0  0  0999 V2000
    2.0260    0.5954   -3.1935 O   0  0  0  0  0  0  0  0  0  0  0  0
    2.6037   -0.0064   -2.2921 C   0  0  0  0  0  0  0  0  0  0  0  0
    4.0733    0.1380   -2.1897 C   0  0  0  0  0  0  0  0  0  0  0  0
    4.8560   -0.0609   -3.3268 C   0  0  0  0  0  0  0  0  0  0  0  0
    6.2418    0.0846   -3.2446 C   0  0  0  0  0  0  0  0  0  0  0  0
    6.8550    0.4473   -2.0329 C   0  0  0  0  0  0  0  0  0  0  0  0
    8.2475    0.5971   -1.9337 C   0  0  0  0  0  0  0  0  0  0  0  0
    8.8547    0.9724   -0.7312 C   0  0  0  0  0  0  0  0  0  0  0  0
   10.2172    1.0782   -0.7886 O   0  0  0  0  0  0  0  0  0  0  0  0
   10.8779    1.5342    0.3855 C   0  0  0  0  0  0  0  0  0  0  0  0
    8.0625    1.2004    0.3914 C   0  0  0  0  0  0  0  0  0  0  0  0
    6.6732    1.0544    0.3123 C   0  0  0  0  0  0  0  0  0  0  0  0
    6.0559    0.6771   -0.8896 C   0  0  0  0  0  0  0  0  0  0  0  0
    4.6637    0.5278   -0.9815 C   0  0  0  0  0  0  0  0  0  0  0  0
    1.9410   -0.7829   -1.3437 N   0  0  0  0  0  0  0  0  0  0  0  0
    0.4816   -0.8090   -1.4232 C   0  0  0  0  0  0  0  0  0  0  0  0
   -0.1953   -1.3392   -0.1736 C   0  0  0  0  0  0  0  0  0  0  0  0
   -1.5424   -1.1865   -0.1000 N   0  0  0  0  0  0  0  0  0  0  0  0
   -2.1598   -1.6505    1.0248 C   0  0  0  0  0  0  0  0  0  0  0  0
   -3.6417   -1.4409    1.1008 C   0  0  0  0  0  0  0  0  0  0  0  0
   -4.2822   -1.7639    2.0947 O   0  0  0  0  0  0  0  0  0  0  0  0
   -4.1851   -0.8571   -0.0226 N   0  0  0  0  0  0  0  0  0  0  0  0
   -5.5613   -0.4186   -0.0917 C   0  0  0  0  0  0  0  0  0  0  0  0
   -5.7682    1.0202    0.3455 C   0  0  0  0  0  0  0  0  0  0  0  0
   -4.7301    1.9547    0.1286 C   0  0  0  0  0  0  0  0  0  0  0  0
   -4.8118    3.2662    0.5986 C   0  0  0  0  0  0  0  0  0  0  0  0
   -5.9380    3.6827    1.2933 C   0  0  0  0  0  0  0  0  0  0  0  0
   -6.9961    2.7968    1.4919 C   0  0  0  0  0  0  0  0  0  0  0  0
   -6.9401    1.4781    0.9956 C   0  0  0  0  0  0  0  0  0  0  0  0
   -8.1082    0.6721    1.1569 N   0  0  0  0  0  0  0  0  0  0  0  0
   -8.6083   -0.2586    0.2658 C   0  0  0  0  0  0  0  0  0  0  0  0
   -9.7610   -0.8105    0.7829 C   0  0  0  0  0  0  0  0  0  0  0  0
  -10.0115   -0.1750    2.0151 C   0  0  0  0  0  0  0  0  0  0  0  0
   -9.0059    0.7471    2.2079 C   0  0  0  0  0  0  0  0  0  0  0  0
   -1.4971   -2.2702    2.0735 C   0  0  0  0  0  0  0  0  0  0  0  0
   -0.1205   -2.4313    1.9729 C   0  0  0  0  0  0  0  0  0  0  0  0
    0.5485   -1.9723    0.8334 C   0  0  0  0  0  0  0  0  0  0  0  0
    2.0470   -2.0912    0.7347 C   0  0  0  0  0  0  0  0  0  0  0  0
    2.5429   -1.9521   -0.7024 C   0  0  0  0  0  0  0  0  0  0  0  0
    4.3912   -0.3247   -4.2738 H   0  0  0  0  0  0  0  0  0  0  0  0
    6.8421   -0.0776   -4.1381 H   0  0  0  0  0  0  0  0  0  0  0  0
    8.8780    0.4262   -2.8042 H   0  0  0  0  0  0  0  0  0  0  0  0
   10.7478    0.8272    1.2115 H   0  0  0  0  0  0  0  0  0  0  0  0
   11.9481    1.5942    0.1644 H   0  0  0  0  0  0  0  0  0  0  0  0
   10.5388    2.5376    0.6655 H   0  0  0  0  0  0  0  0  0  0  0  0
    8.4913    1.4930    1.3437 H   0  0  0  0  0  0  0  0  0  0  0  0
    6.0766    1.2427    1.2024 H   0  0  0  0  0  0  0  0  0  0  0  0
    4.0335    0.7230   -0.1173 H   0  0  0  0  0  0  0  0  0  0  0  0
    0.1138    0.2038   -1.6258 H   0  0  0  0  0  0  0  0  0  0  0  0
    0.2070   -1.4466   -2.2722 H   0  0  0  0  0  0  0  0  0  0  0  0
   -3.5274   -0.5918   -0.7489 H   0  0  0  0  0  0  0  0  0  0  0  0
   -6.1396   -1.1014    0.5358 H   0  0  0  0  0  0  0  0  0  0  0  0
   -5.8767   -0.5261   -1.1344 H   0  0  0  0  0  0  0  0  0  0  0  0
   -3.8212    1.6620   -0.3949 H   0  0  0  0  0  0  0  0  0  0  0  0
   -3.9898    3.9573    0.4254 H   0  0  0  0  0  0  0  0  0  0  0  0
   -6.0042    4.7019    1.6649 H   0  0  0  0  0  0  0  0  0  0  0  0
   -7.8839    3.1769    1.9919 H   0  0  0  0  0  0  0  0  0  0  0  0
   -8.1349   -0.4350   -0.6885 H   0  0  0  0  0  0  0  0  0  0  0  0
  -10.3653   -1.5719    0.3071 H   0  0  0  0  0  0  0  0  0  0  0  0
  -10.8359   -0.3626    2.6921 H   0  0  0  0  0  0  0  0  0  0  0  0
   -8.8322    1.4128    3.0418 H   0  0  0  0  0  0  0  0  0  0  0  0
   -2.0394   -2.6109    2.9505 H   0  0  0  0  0  0  0  0  0  0  0  0
    0.4245   -2.9047    2.7867 H   0  0  0  0  0  0  0  0  0  0  0  0
    2.4896   -1.2995    1.3517 H   0  0  0  0  0  0  0  0  0  0  0  0
    2.3774   -3.0566    1.1355 H   0  0  0  0  0  0  0  0  0  0  0  0
    3.6341   -1.9197   -0.7195 H   0  0  0  0  0  0  0  0  0  0  0  0
    2.2517   -2.8271   -1.2979 H   0  0  0  0  0  0  0  0  0  0  0  0
  1  2  2  0
  2  3  1  0
  3  4  2  0
  4  5  1  0
  5  6  2  0
  6  7  1  0
  7  8  2  0
  8  9  1  0
  9 10  1  0
  8 11  1  0
 11 12  2  0
 12 13  1  0
 13 14  2  0
  2 15  1  0
 15 16  1  0
 16 17  1  0
 17 18  2  0
 18 19  1  0
 19 20  1  0
 20 21  2  0
 20 22  1  0
 22 23  1  0
 23 24  1  0
 24 25  2  0
 25 26  1  0
 26 27  2  0
 27 28  1  0
 28 29  2  0
 29 30  1  0
 30 31  1  0
 31 32  2  0
 32 33  1  0
 33 34  2  0
 19 35  2  0
 35 36  1  0
 36 37  2  0
 37 38  1  0
 38 39  1  0
 39 15  1  0
 37 17  1  0
 14  3  1  0
 13  6  1  0
 29 24  1  0
 34 30  1  0
  4 40  1  0
  5 41  1  0
  7 42  1  0
 10 43  1  0
 10 44  1  0
 10 45  1  0
 11 46  1  0
 12 47  1  0
 14 48  1  0
 16 49  1  0
 16 50  1  0
 22 51  1  0
 23 52  1  0
 23 53  1  0
 25 54  1  0
 26 55  1  0
 27 56  1  0
 28 57  1  0
 31 58  1  0
 32 59  1  0
 33 60  1  0
 34 61  1  0
 35 62  1  0
 36 63  1  0
 38 64  1  0
 38 65  1  0
 39 66  1  0
 39 67  1  0
M  END
>  <type>  (2) 
designed

$$$$
E02
     RDKit          3D

 73 78  0  0  0  0  0  0  0  0999 V2000
    3.0887   -0.0880    2.2839 O   0  0  0  0  0  0  0  0  0  0  0  0
    3.6430   -0.2897    1.2055 C   0  0  0  0  0  0  0  0  0  0  0  0
    5.1156   -0.4177    1.2044 C   0  0  0  0  0  0  0  0  0  0  0  0
    5.7074   -1.3869    2.0136 C   0  0  0  0  0  0  0  0  0  0  0  0
    7.0977   -1.5072    2.0421 C   0  0  0  0  0  0  0  0  0  0  0  0
    7.9096   -0.6533    1.2752 C   0  0  0  0  0  0  0  0  0  0  0  0
    9.3123   -0.7664    1.2950 C   0  0  0  0  0  0  0  0  0  0  0  0
   10.1105    0.0926    0.5366 C   0  0  0  0  0  0  0  0  0  0  0  0
   11.4769    0.0769    0.4727 O   0  0  0  0  0  0  0  0  0  0  0  0
   12.1500   -0.8872    1.2721 C   0  0  0  0  0  0  0  0  0  0  0  0
    9.5045    1.0748   -0.2467 C   0  0  0  0  0  0  0  0  0  0  0  0
    8.1147    1.2043   -0.2778 C   0  0  0  0  0  0  0  0  0  0  0  0
    7.3035    0.3453    0.4757 C   0  0  0  0  0  0  0  0  0  0  0  0
    5.9055    0.4609    0.4558 C   0  0  0  0  0  0  0  0  0  0  0  0
    2.9504   -0.4000    0.0024 N   0  0  0  0  0  0  0  0  0  0  0  0
    1.5254   -0.0528    0.0390 C   0  0  0  0  0  0  0  0  0  0  0  0
    0.8235   -0.0140   -1.3018 C   0  0  0  0  0  0  0  0  0  0  0  0
   -0.3038    0.7323   -1.3983 N   0  0  0  0  0  0  0  0  0  0  0  0
   -0.9576    0.7148   -2.5951 C   0  0  0  0  0  0  0  0  0  0  0  0
   -2.1955    1.5563   -2.6844 C   0  0  0  0  0  0  0  0  0  0  0  0
   -2.8618    1.6089   -3.7127 O   0  0  0  0  0  0  0  0  0  0  0  0
   -2.4995    2.2339   -1.5244 N   0  0  0  0  0  0  0  0  0  0  0  0
   -3.7328    2.9547   -1.3414 C   0  0  0  0  0  0  0  0  0  0  0  0
   -4.7733    2.0893   -0.6814 C   0  0  0  0  0  0  0  0  0  0  0  0
   -4.9336    2.0864    0.7064 C   0  0  0  0  0  0  0  0  0  0  0  0
   -5.8930    1.2617    1.3057 C   0  0  0  0  0  0  0  0  0  0  0  0
   -6.7128    0.4081    0.5494 C   0  0  0  0  0  0  0  0  0  0  0  0
   -7.6602   -0.3894    1.2080 N   0  0  0  0  0  0  0  0  0  0  0  0
   -8.1455   -1.6268    0.5641 C   0  0  0  0  0  0  0  0  0  0  0  0
   -9.5993   -1.4745    0.0688 C   0  0  0  0  0  0  0  0  0  0  0  0
  -10.5792   -1.1523    1.1264 N   0  0  0  0  0  0  0  0  0  0  0  0
   -9.9328   -0.4542    2.2572 C   0  0  0  0  0  0  0  0  0  0  0  0
   -8.7160    0.4174    1.8721 C   0  0  0  0  0  0  0  0  0  0  0  0
   -6.5325    0.4148   -0.8391 C   0  0  0  0  0  0  0  0  0  0  0  0
   -5.5765    1.2384   -1.4474 C   0  0  0  0  0  0  0  0  0  0  0  0
   -0.5449   -0.0270   -3.6929 C   0  0  0  0  0  0  0  0  0  0  0  0
    0.6107   -0.7906   -3.5709 C   0  0  0  0  0  0  0  0  0  0  0  0
    1.3156   -0.7770   -2.3656 C   0  0  0  0  0  0  0  0  0  0  0  0
    2.5704   -1.5768   -2.1669 C   0  0  0  0  0  0  0  0  0  0  0  0
    3.5452   -0.8069   -1.2748 C   0  0  0  0  0  0  0  0  0  0  0  0
    5.0895   -2.0410    2.6246 H   0  0  0  0  0  0  0  0  0  0  0  0
    7.5441   -2.2696    2.6776 H   0  0  0  0  0  0  0  0  0  0  0  0
    9.7601   -1.5365    1.9151 H   0  0  0  0  0  0  0  0  0  0  0  0
   13.2253   -0.7622    1.1115 H   0  0  0  0  0  0  0  0  0  0  0  0
   11.9517   -0.7256    2.3371 H   0  0  0  0  0  0  0  0  0  0  0  0
   11.8849   -1.9054    0.9685 H   0  0  0  0  0  0  0  0  0  0  0  0
   10.1213    1.7485   -0.8372 H   0  0  0  0  0  0  0  0  0  0  0  0
    7.6754    1.9847   -0.8949 H   0  0  0  0  0  0  0  0  0  0  0  0
    5.4282    1.2433   -0.1287 H   0  0  0  0  0  0  0  0  0  0  0  0
    1.4264    0.9243    0.5276 H   0  0  0  0  0  0  0  0  0  0  0  0
    1.0228   -0.7934    0.6729 H   0  0  0  0  0  0  0  0  0  0  0  0
   -1.9301    2.0035   -0.7145 H   0  0  0  0  0  0  0  0  0  0  0  0
   -4.1023    3.3268   -2.3041 H   0  0  0  0  0  0  0  0  0  0  0  0
   -3.5130    3.8292   -0.7188 H   0  0  0  0  0  0  0  0  0  0  0  0
   -4.3124    2.7183    1.3361 H   0  0  0  0  0  0  0  0  0  0  0  0
   -5.9818    1.2686    2.3893 H   0  0  0  0  0  0  0  0  0  0  0  0
   -7.4945   -1.9697   -0.2476 H   0  0  0  0  0  0  0  0  0  0  0  0
   -8.1100   -2.4272    1.3150 H   0  0  0  0  0  0  0  0  0  0  0  0
   -9.6437   -0.6797   -0.6858 H   0  0  0  0  0  0  0  0  0  0  0  0
   -9.9152   -2.3976   -0.4307 H   0  0  0  0  0  0  0  0  0  0  0  0
  -10.9898   -2.0146    1.4812 H   0  0  0  0  0  0  0  0  0  0  0  0
   -9.6082   -1.2050    2.9891 H   0  0  0  0  0  0  0  0  0  0  0  0
  -10.6853    0.1678    2.7538 H   0  0  0  0  0  0  0  0  0  0  0  0
   -8.3137    0.8736    2.7844 H   0  0  0  0  0  0  0  0  0  0  0  0
   -9.0571    1.2259    1.2103 H   0  0  0  0  0  0  0  0  0  0  0  0
   -7.1467   -0.2012   -1.4879 H   0  0  0  0  0  0  0  0  0  0  0  0
   -5.4615    1.2106   -2.5300 H   0  0  0  0  0  0  0  0  0  0  0  0
   -1.1104   -0.0102   -4.6192 H   0  0  0  0  0  0  0  0  0  0  0  0
    0.9555   -1.3841   -4.4138 H   0  0  0  0  0  0  0  0  0  0  0  0
    2.3066   -2.5362   -1.7061 H   0  0  0  0  0  0  0  0  0  0  0  0
    3.0530   -1.7844   -3.1288 H   0  0  0  0  0  0  0  0  0  0  0  0
    3.8701    0.1117   -1.7792 H   0  0  0  0  0  0  0  0  0  0  0  0
    4.4304   -1.4260   -1.0984 H   0  0  0  0  0  0  0  0  0  0  0  0
  1  2  2  0
  2  3  1  0
  3  4  2  0
  4  5  1  0
  5  6  2  0
  6  7  1  0
  7  8  2  0
  8  9  1  0
  9 10  1  0
  8 11  1  0
 11 12  2  0
 12 13  1  0
 13 14  2  0
  2 15  1  0
 15 16  1  0
 16 17  1  0
 17 18  2  0
 18 19  1  0
 19 20  1  0
 20 21  2  0
 20 22  1  0
 22 23  1  0
 23 24  1  0
 24 25  2  0
 25 26  1  0
 26 27  2  0
 27 28  1  0
 28 29  1  0
 29 30  1  0
 30 31  1  0
 31 32  1  0
 32 33  1  0
 27 34  1  0
 34 35  2  0
 19 36  2  0
 36 37  1  0
 37 38  2  0
 38 39  1  0
 39 40  1  0
 40 15  1  0
 38 17  1  0
 14  3  1  0
 13  6  1  0
 35 24  1  0
 33 28  1  0
  4 41  1  0
  5 42  1  0
  7 43  1  0
 10 44  1  0
 10 45  1  0
 10 46  1  0
 11 47  1  0
 12 48  1  0
 14 49  1  0
 16 50  1  0
 16 51  1  0
 22 52  1  0
 23 53  1  0
 23 54  1  0
 25 55  1  0
 26 56  1  0
 29 57  1  0
 29 58  1  0
 30 59  1  0
 30 60  1  0
 31 61  1  0
 32 62  1  0
 32 63  1  0
 33 64  1  0
 33 65  1  0
 34 66  1  0
 35 67  1  0
 36 68  1  0
 37 69  1  0
 39 70  1  0
 39 71  1  0
 40 72  1  0
 40 73  1  0
M  END
>  <type>  (3) 
designed

$$$$
E03
     RDKit          3D

 62 66  0  0  0  0  0  0  0  0999 V2000
    1.5626   -1.1796   -1.8905 O   0  0  0  0  0  0  0  0  0  0  0  0
    2.0350   -0.6102   -0.9101 C   0  0  0  0  0  0  0  0  0  0  0  0
    3.4972   -0.6949   -0.6985 C   0  0  0  0  0  0  0  0  0  0  0  0
    4.0138   -1.1428    0.5196 C   0  0  0  0  0  0  0  0  0  0  0  0
    5.3961   -1.2355    0.6909 C   0  0  0  0  0  0  0  0  0  0  0  0
    6.2745   -0.8973   -0.3533 C   0  0  0  0  0  0  0  0  0  0  0  0
    7.6700   -0.9852   -0.1918 C   0  0  0  0  0  0  0  0  0  0  0  0
    8.5339   -0.6547   -1.2379 C   0  0  0  0  0  0  0  0  0  0  0  0
    9.9004   -0.6989   -1.1994 O   0  0  0  0  0  0  0  0  0  0  0  0
   10.4988   -1.1546    0.0071 C   0  0  0  0  0  0  0  0  0  0  0  0
    8.0011   -0.2337   -2.4562 C   0  0  0  0  0  0  0  0  0  0  0  0
    6.6197   -0.1419   -2.6365 C   0  0  0  0  0  0  0  0  0  0  0  0
    5.7434   -0.4683   -1.5934 C   0  0  0  0  0  0  0  0  0  0  0  0
    4.3528   -0.3799   -1.7576 C   0  0  0  0  0  0  0  0  0  0  0  0
    1.2596    0.0832    0.0191 N   0  0  0  0  0  0  0  0  0  0  0  0
   -0.1841    0.0742   -0.2160 C   0  0  0  0  0  0  0  0  0  0  0  0
   -1.0136    0.5778    0.9493 C   0  0  0  0  0  0  0  0  0  0  0  0
   -2.3591    0.4301    0.8458 N   0  0  0  0  0  0  0  0  0  0  0  0
   -3.1175    0.8869    1.8829 C   0  0  0  0  0  0  0  0  0  0  0  0
   -4.5996    0.7082    1.7451 C   0  0  0  0  0  0  0  0  0  0  0  0
   -5.3813    1.1329    2.5880 O   0  0  0  0  0  0  0  0  0  0  0  0
   -4.9854    0.0459    0.5967 N   0  0  0  0  0  0  0  0  0  0  0  0
   -6.3714   -0.0800    0.1942 C   0  0  0  0  0  0  0  0  0  0  0  0
   -6.8576    1.2066   -0.4886 C   0  0  0  0  0  0  0  0  0  0  0  0
   -8.2977    1.0747   -0.9767 C   0  0  0  0  0  0  0  0  0  0  0  0
   -8.4735   -0.1448   -1.8645 C   0  0  0  0  0  0  0  0  0  0  0  0
   -9.7791   -0.2738   -2.2049 F   0  0  0  0  0  0  0  0  0  0  0  0
   -7.7891    0.0452   -3.0224 F   0  0  0  0  0  0  0  0  0  0  0  0
   -7.9914   -1.4268   -1.2074 C   0  0  0  0  0  0  0  0  0  0  0  0
   -6.5503   -1.2957   -0.7224 C   0  0  0  0  0  0  0  0  0  0  0  0
   -2.5968    1.4931    3.0155 C   0  0  0  0  0  0  0  0  0  0  0  0
   -1.2177    1.6432    3.1000 C   0  0  0  0  0  0  0  0  0  0  0  0
   -0.4066    1.1939    2.0524 C   0  0  0  0  0  0  0  0  0  0  0  0
    1.0916    1.3130    2.1434 C   0  0  0  0  0  0  0  0  0  0  0  0
    1.7569    1.2353    0.7709 C   0  0  0  0  0  0  0  0  0  0  0  0
    3.3472   -1.4304    1.3285 H   0  0  0  0  0  0  0  0  0  0  0  0
    5.7852   -1.5847    1.6452 H   0  0  0  0  0  0  0  0  0  0  0  0
    8.0608   -1.3175    0.7647 H   0  0  0  0  0  0  0  0  0  0  0  0
   10.2022   -2.1847    0.2309 H   0  0  0  0  0  0  0  0  0  0  0  0
   11.5840   -1.1439   -0.1331 H   0  0  0  0  0  0  0  0  0  0  0  0
   10.2643   -0.4847    0.8408 H   0  0  0  0  0  0  0  0  0  0  0  0
    8.6684    0.0229   -3.2757 H   0  0  0  0  0  0  0  0  0  0  0  0
    6.2369    0.1856   -3.6007 H   0  0  0  0  0  0  0  0  0  0  0  0
    3.9274   -0.0684   -2.7098 H   0  0  0  0  0  0  0  0  0  0  0  0
   -0.4974   -0.9471   -0.4631 H   0  0  0  0  0  0  0  0  0  0  0  0
   -0.3817    0.7110   -1.0871 H   0  0  0  0  0  0  0  0  0  0  0  0
   -4.2356   -0.1416   -0.0667 H   0  0  0  0  0  0  0  0  0  0  0  0
   -6.9680   -0.2349    1.1028 H   0  0  0  0  0  0  0  0  0  0  0  0
   -6.2043    1.4445   -1.3385 H   0  0  0  0  0  0  0  0  0  0  0  0
   -6.7849    2.0549    0.2026 H   0  0  0  0  0  0  0  0  0  0  0  0
   -8.5776    1.9768   -1.5322 H   0  0  0  0  0  0  0  0  0  0  0  0
   -8.9789    1.0082   -0.1199 H   0  0  0  0  0  0  0  0  0  0  0  0
   -8.0610   -2.2545   -1.9222 H   0  0  0  0  0  0  0  0  0  0  0  0
   -8.6486   -1.6801   -0.3669 H   0  0  0  0  0  0  0  0  0  0  0  0
   -6.2572   -2.2104   -0.1928 H   0  0  0  0  0  0  0  0  0  0  0  0
   -5.8807   -1.2121   -1.5886 H   0  0  0  0  0  0  0  0  0  0  0  0
   -3.2483    1.8365    3.8127 H   0  0  0  0  0  0  0  0  0  0  0  0
   -0.7816    2.1078    3.9813 H   0  0  0  0  0  0  0  0  0  0  0  0
    1.4590    0.4952    2.7756 H   0  0  0  0  0  0  0  0  0  0  0  0
    1.3683    2.2601    2.6208 H   0  0  0  0  0  0  0  0  0  0  0  0
    1.5237    2.1289    0.1769 H   0  0  0  0  0  0  0  0  0  0  0  0
    2.8426    1.2171    0.8858 H   0  0  0  0  0  0  0  0  0  0  0  0
  1  2  2  0
  2  3  1  0
  3  4  2  0
  4  5  1  0
  5  6  2  0
  6  7  1  0
  7  8  2  0
  8  9  1  0
  9 10  1  0
  8 11  1  0
 11 12  2  0
 12 13  1  0
 13 14  2  0
  2 15  1  0
 15 16  1  0
 16 17  1  0
 17 18  2  0
 18 19  1  0
 19 20  1  0
 20 21  2  0
 20 22  1  0
 22 23  1  0
 23 24  1  0
 24 25  1  0
 25 26  1  0
 26 27  1  0
 26 28  1  0
 26 29  1  0
 29 30  1  0
 19 31  2  0
 31 32  1  0
 32 33  2  0
 33 34  1  0
 34 35  1  0
 35 15  1  0
 33 17  1  0
 14  3  1  0
 30 23  1  0
 13  6  1  0
  4 36  1  0
  5 37  1  0
  7 38  1  0
 10 39  1  0
 10 40  1  0
 10 41  1  0
 11 42  1  0
 12 43  1  0
 14 44  1  0
 16 45  1  0
 16 46  1  0
 22 47  1  0
 23 48  1  0
 24 49  1  0
 24 50  1  0
 25 51  1  0
 25 52  1  0
 29 53  1  0
 29 54  1  0
 30 55  1  0
 30 56  1  0
 31 57  1  0
 32 58  1  0
 34 59  1  0
 34 60  1  0
 35 61  1  0
 35 62  1  0
M  END
>  <type>  (4) 
designed

$$$$
F01
     RDKit          3D

 62 67  0  0  0  0  0  0  0  0999 V2000
    3.4373   -2.5585    0.7401 O   0  0  0  0  0  0  0  0  0  0  0  0
    3.8688   -1.4308    0.5183 C   0  0  0  0  0  0  0  0  0  0  0  0
    5.3242   -1.2722    0.3456 C   0  0  0  0  0  0  0  0  0  0  0  0
    6.1850   -1.9267    1.2087 C   0  0  0  0  0  0  0  0  0  0  0  0
    7.5360   -1.8505    1.1236 N   0  0  0  0  0  0  0  0  0  0  0  0
    8.0658   -1.1263    0.1203 C   0  0  0  0  0  0  0  0  0  0  0  0
    9.4452   -1.0346   -0.0014 C   0  0  0  0  0  0  0  0  0  0  0  0
   10.0455   -0.3023   -1.0304 C   0  0  0  0  0  0  0  0  0  0  0  0
    9.2546    0.3566   -1.9652 C   0  0  0  0  0  0  0  0  0  0  0  0
    7.8665    0.2830   -1.8680 C   0  0  0  0  0  0  0  0  0  0  0  0
    7.2658   -0.4514   -0.8305 C   0  0  0  0  0  0  0  0  0  0  0  0
    5.8726   -0.5409   -0.7062 C   0  0  0  0  0  0  0  0  0  0  0  0
    3.0451   -0.3127    0.3866 N   0  0  0  0  0  0  0  0  0  0  0  0
    1.6054   -0.5687    0.4409 C   0  0  0  0  0  0  0  0  0  0  0  0
    0.7464    0.6019    0.0049 C   0  0  0  0  0  0  0  0  0  0  0  0
   -0.5774    0.3537   -0.1645 N   0  0  0  0  0  0  0  0  0  0  0  0
   -1.3640    1.4023   -0.5418 C   0  0  0  0  0  0  0  0  0  0  0  0
   -2.8186    1.0991   -0.7420 C   0  0  0  0  0  0  0  0  0  0  0  0
   -3.6179    1.9749   -1.0484 O   0  0  0  0  0  0  0  0  0  0  0  0
   -3.1449   -0.2259   -0.5562 N   0  0  0  0  0  0  0  0  0  0  0  0
   -4.4995   -0.7261   -0.6251 C   0  0  0  0  0  0  0  0  0  0  0  0
   -5.2233   -0.7415    0.7081 C   0  0  0  0  0  0  0  0  0  0  0  0
   -4.4686   -0.8713    1.8955 C   0  0  0  0  0  0  0  0  0  0  0  0
   -5.0625   -0.7928    3.1564 C   0  0  0  0  0  0  0  0  0  0  0  0
   -6.4300   -0.5859    3.2650 C   0  0  0  0  0  0  0  0  0  0  0  0
   -7.2082   -0.4878    2.1130 C   0  0  0  0  0  0  0  0  0  0  0  0
   -6.6266   -0.5958    0.8330 C   0  0  0  0  0  0  0  0  0  0  0  0
   -7.5129   -0.5762   -0.2878 N   0  0  0  0  0  0  0  0  0  0  0  0
   -8.7094    0.1177   -0.3621 C   0  0  0  0  0  0  0  0  0  0  0  0
   -9.2997   -0.1200   -1.5837 C   0  0  0  0  0  0  0  0  0  0  0  0
   -8.4663   -1.0178   -2.2796 C   0  0  0  0  0  0  0  0  0  0  0  0
   -7.3939   -1.2971   -1.4604 C   0  0  0  0  0  0  0  0  0  0  0  0
   -0.8920    2.6893   -0.7483 C   0  0  0  0  0  0  0  0  0  0  0  0
    0.4655    2.9248   -0.5644 C   0  0  0  0  0  0  0  0  0  0  0  0
    1.3037    1.8759   -0.1727 C   0  0  0  0  0  0  0  0  0  0  0  0
    2.7845    2.1020   -0.0171 C   0  0  0  0  0  0  0  0  0  0  0  0
    3.4462    1.0214    0.8357 C   0  0  0  0  0  0  0  0  0  0  0  0
    5.8088   -2.5458    2.0198 H   0  0  0  0  0  0  0  0  0  0  0  0
   10.0711   -1.5512    0.7228 H   0  0  0  0  0  0  0  0  0  0  0  0
   11.1295   -0.2540   -1.0983 H   0  0  0  0  0  0  0  0  0  0  0  0
    9.7178    0.9237   -2.7693 H   0  0  0  0  0  0  0  0  0  0  0  0
    7.2575    0.7993   -2.6069 H   0  0  0  0  0  0  0  0  0  0  0  0
    5.2213   -0.0581   -1.4296 H   0  0  0  0  0  0  0  0  0  0  0  0
    1.3516   -0.8236    1.4773 H   0  0  0  0  0  0  0  0  0  0  0  0
    1.3758   -1.4361   -0.1893 H   0  0  0  0  0  0  0  0  0  0  0  0
   -2.3861   -0.8426   -0.2827 H   0  0  0  0  0  0  0  0  0  0  0  0
   -5.0325   -0.0985   -1.3452 H   0  0  0  0  0  0  0  0  0  0  0  0
   -4.4319   -1.7486   -1.0094 H   0  0  0  0  0  0  0  0  0  0  0  0
   -3.3910   -1.0106    1.8525 H   0  0  0  0  0  0  0  0  0  0  0  0
   -4.4520   -0.8822    4.0507 H   0  0  0  0  0  0  0  0  0  0  0  0
   -6.8964   -0.5186    4.2444 H   0  0  0  0  0  0  0  0  0  0  0  0
   -8.2833   -0.3795    2.2394 H   0  0  0  0  0  0  0  0  0  0  0  0
   -9.0265    0.7682    0.4412 H   0  0  0  0  0  0  0  0  0  0  0  0
  -10.2314    0.3088   -1.9297 H   0  0  0  0  0  0  0  0  0  0  0  0
   -8.6361   -1.4368   -3.2630 H   0  0  0  0  0  0  0  0  0  0  0  0
   -6.5844   -1.9941   -1.6133 H   0  0  0  0  0  0  0  0  0  0  0  0
   -1.5636    3.4861   -1.0514 H   0  0  0  0  0  0  0  0  0  0  0  0
    0.8629    3.9231   -0.7310 H   0  0  0  0  0  0  0  0  0  0  0  0
    3.2330    2.1020   -1.0185 H   0  0  0  0  0  0  0  0  0  0  0  0
    2.9731    3.0818    0.4372 H   0  0  0  0  0  0  0  0  0  0  0  0
    3.1340    1.1124    1.8845 H   0  0  0  0  0  0  0  0  0  0  0  0
    4.5306    1.1509    0.8275 H   0  0  0  0  0  0  0  0  0  0  0  0
  1  2  2  0
  2  3  1  0
  3  4  2  0
  4  5  1  0
  5  6  2  0
  6  7  1  0
  7  8  2  0
  8  9  1  0
  9 10  2  0
 10 11  1  0
 11 12  2  0
  2 13  1  0
 13 14  1  0
 14 15  1  0
 15 16  2  0
 16 17  1  0
 17 18  1  0
 18 19  2  0
 18 20  1  0
 20 21  1  0
 21 22  1  0
 22 23  2  0
 23 24  1  0
 24 25  2  0
 25 26  1  0
 26 27  2  0
 27 28  1  0
 28 29  1  0
 29 30  2  0
 30 31  1  0
 31 32  2  0
 17 33  2  0
 33 34  1  0
 34 35  2  0
 35 36  1  0
 36 37  1  0
 37 13  1  0
 35 15  1  0
 12  3  1  0
 11  6  1  0
 27 22  1  0
 32 28  1  0
  4 38  1  0
  7 39  1  0
  8 40  1  0
  9 41  1  0
 10 42  1  0
 12 43  1  0
 14 44  1  0
 14 45  1  0
 20 46  1  0
 21 47  1  0
 21 48  1  0
 23 49  1  0
 24 50  1  0
 25 51  1  0
 26 52  1  0
 29 53  1  0
 30 54  1  0
 31 55  1  0
 32 56  1  0
 33 57  1  0
 34 58  1  0
 36 59  1  0
 36 60  1  0
 37 61  1  0
 37 62  1  0
M  END
>  <type>  (5) 
designed

$$$$
F02
     RDKit          3D

 68 73  0  0  0  0  0  0  0  0999 V2000
    4.0211    0.9083   -2.1514 O   0  0  0  0  0  0  0  0  0  0  0  0
    4.5821    0.4516   -1.1584 C   0  0  0  0  0  0  0  0  0  0  0  0
    6.0501    0.3382   -1.1976 C   0  0  0  0  0  0  0  0  0  0  0  0
    6.6862   -0.8646   -0.9478 C   0  0  0  0  0  0  0  0  0  0  0  0
    8.0306   -1.0258   -0.9795 N   0  0  0  0  0  0  0  0  0  0  0  0
    8.7843    0.0393   -1.3115 C   0  0  0  0  0  0  0  0  0  0  0  0
   10.1653   -0.0899   -1.3580 C   0  0  0  0  0  0  0  0  0  0  0  0
   10.9935    0.9842   -1.6999 C   0  0  0  0  0  0  0  0  0  0  0  0
   10.4346    2.2193   -2.0093 C   0  0  0  0  0  0  0  0  0  0  0  0
    9.0505    2.3783   -1.9732 C   0  0  0  0  0  0  0  0  0  0  0  0
    8.2210    1.2989   -1.6219 C   0  0  0  0  0  0  0  0  0  0  0  0
    6.8268    1.4316   -1.5669 C   0  0  0  0  0  0  0  0  0  0  0  0
    3.8942    0.0514   -0.0158 N   0  0  0  0  0  0  0  0  0  0  0  0
    2.4283    0.0237   -0.1088 C   0  0  0  0  0  0  0  0  0  0  0  0
    1.7350   -0.6929    1.0307 C   0  0  0  0  0  0  0  0  0  0  0  0
    0.5631   -1.3218    0.7741 N   0  0  0  0  0  0  0  0  0  0  0  0
   -0.0580   -1.9186    1.8329 C   0  0  0  0  0  0  0  0  0  0  0  0
   -1.3340   -2.6449    1.5276 C   0  0  0  0  0  0  0  0  0  0  0  0
   -1.9507   -3.2510    2.3975 O   0  0  0  0  0  0  0  0  0  0  0  0
   -1.7256   -2.5634    0.2095 N   0  0  0  0  0  0  0  0  0  0  0  0
   -2.9728   -3.0975   -0.2700 C   0  0  0  0  0  0  0  0  0  0  0  0
   -4.0678   -2.0655   -0.2276 C   0  0  0  0  0  0  0  0  0  0  0  0
   -4.8769   -1.9376    0.9036 C   0  0  0  0  0  0  0  0  0  0  0  0
   -5.8969   -0.9798    0.9430 C   0  0  0  0  0  0  0  0  0  0  0  0
   -6.1469   -0.1153   -0.1355 C   0  0  0  0  0  0  0  0  0  0  0  0
   -7.1883    0.8241   -0.0448 N   0  0  0  0  0  0  0  0  0  0  0  0
   -8.5231    0.2170    0.1731 C   0  0  0  0  0  0  0  0  0  0  0  0
   -9.5758    1.3044    0.4963 C   0  0  0  0  0  0  0  0  0  0  0  0
   -9.6431    2.3875   -0.5071 N   0  0  0  0  0  0  0  0  0  0  0  0
   -8.2920    2.9724   -0.6408 C   0  0  0  0  0  0  0  0  0  0  0  0
   -7.2076    1.9359   -1.0165 C   0  0  0  0  0  0  0  0  0  0  0  0
   -5.2977   -0.2292   -1.2456 C   0  0  0  0  0  0  0  0  0  0  0  0
   -4.2763   -1.1897   -1.2962 C   0  0  0  0  0  0  0  0  0  0  0  0
    0.4271   -1.8921    3.1341 C   0  0  0  0  0  0  0  0  0  0  0  0
    1.6269   -1.2316    3.3752 C   0  0  0  0  0  0  0  0  0  0  0  0
    2.3011   -0.6355    2.3092 C   0  0  0  0  0  0  0  0  0  0  0  0
    3.6092    0.0817    2.4793 C   0  0  0  0  0  0  0  0  0  0  0  0
    4.5218   -0.2206    1.2860 C   0  0  0  0  0  0  0  0  0  0  0  0
    6.1271   -1.7664   -0.7160 H   0  0  0  0  0  0  0  0  0  0  0  0
   10.6107   -1.0540   -1.1223 H   0  0  0  0  0  0  0  0  0  0  0  0
   12.0721    0.8490   -1.7261 H   0  0  0  0  0  0  0  0  0  0  0  0
   11.0749    3.0565   -2.2781 H   0  0  0  0  0  0  0  0  0  0  0  0
    8.6229    3.3483   -2.2185 H   0  0  0  0  0  0  0  0  0  0  0  0
    6.3456    2.3755   -1.8106 H   0  0  0  0  0  0  0  0  0  0  0  0
    2.1462   -0.4389   -1.0618 H   0  0  0  0  0  0  0  0  0  0  0  0
    2.0827    1.0643   -0.1273 H   0  0  0  0  0  0  0  0  0  0  0  0
   -1.1802   -1.9429   -0.3808 H   0  0  0  0  0  0  0  0  0  0  0  0
   -2.8130   -3.4347   -1.3003 H   0  0  0  0  0  0  0  0  0  0  0  0
   -3.2547   -3.9790    0.3181 H   0  0  0  0  0  0  0  0  0  0  0  0
   -4.7103   -2.5754    1.7697 H   0  0  0  0  0  0  0  0  0  0  0  0
   -6.4840   -0.8934    1.8542 H   0  0  0  0  0  0  0  0  0  0  0  0
   -8.8257   -0.3305   -0.7289 H   0  0  0  0  0  0  0  0  0  0  0  0
   -8.5175   -0.4941    1.0065 H   0  0  0  0  0  0  0  0  0  0  0  0
  -10.5639    0.8365    0.5706 H   0  0  0  0  0  0  0  0  0  0  0  0
   -9.3607    1.7433    1.4791 H   0  0  0  0  0  0  0  0  0  0  0  0
   -9.8973    1.9705   -1.4032 H   0  0  0  0  0  0  0  0  0  0  0  0
   -8.3254    3.7523   -1.4091 H   0  0  0  0  0  0  0  0  0  0  0  0
   -8.0216    3.4683    0.3001 H   0  0  0  0  0  0  0  0  0  0  0  0
   -7.4155    1.5557   -2.0250 H   0  0  0  0  0  0  0  0  0  0  0  0
   -6.2375    2.4482   -1.0293 H   0  0  0  0  0  0  0  0  0  0  0  0
   -5.4175    0.4140   -2.1109 H   0  0  0  0  0  0  0  0  0  0  0  0
   -3.6479   -1.2467   -2.1822 H   0  0  0  0  0  0  0  0  0  0  0  0
   -0.1159   -2.3783    3.9386 H   0  0  0  0  0  0  0  0  0  0  0  0
    2.0302   -1.1958    4.3842 H   0  0  0  0  0  0  0  0  0  0  0  0
    3.4147    1.1590    2.5479 H   0  0  0  0  0  0  0  0  0  0  0  0
    4.1081   -0.2318    3.4038 H   0  0  0  0  0  0  0  0  0  0  0  0
    5.4466    0.3571    1.3812 H   0  0  0  0  0  0  0  0  0  0  0  0
    4.7875   -1.2847    1.2884 H   0  0  0  0  0  0  0  0  0  0  0  0
  1  2  2  0
  2  3  1  0
  3  4  2  0
  4  5  1  0
  5  6  2  0
  6  7  1  0
  7  8  2  0
  8  9  1  0
  9 10  2  0
 10 11  1  0
 11 12  2  0
  2 13  1  0
 13 14  1  0
 14 15  1  0
 15 16  2  0
 16 17  1  0
 17 18  1  0
 18 19  2  0
 18 20  1  0
 20 21  1  0
 21 22  1  0
 22 23  2  0
 23 24  1  0
 24 25  2  0
 25 26  1  0
 26 27  1  0
 27 28  1  0
 28 29  1  0
 29 30  1  0
 30 31  1  0
 25 32  1  0
 32 33  2  0
 17 34  2  0
 34 35  1  0
 35 36  2  0
 36 37  1  0
 37 38  1  0
 38 13  1  0
 36 15  1  0
 12  3  1  0
 11  6  1  0
 33 22  1  0
 31 26  1  0
  4 39  1  0
  7 40  1  0
  8 41  1  0
  9 42  1  0
 10 43  1  0
 12 44  1  0
 14 45  1  0
 14 46  1  0
 20 47  1  0
 21 48  1  0
 21 49  1  0
 23 50  1  0
 24 51  1  0
 27 52  1  0
 27 53  1  0
 28 54  1  0
 28 55  1  0
 29 56  1  0
 30 57  1  0
 30 58  1  0
 31 59  1  0
 31 60  1  0
 32 61  1  0
 33 62  1  0
 34 63  1  0
 35 64  1  0
 37 65  1  0
 37 66  1  0
 38 67  1  0
 38 68  1  0
M  END
>  <type>  (6) 
designed

$$$$
G01
     RDKit          3D

 57 61  0  0  0  0  0  0  0  0999 V2000
   -4.1463   -1.9640   -1.7791 O   0  0  0  0  0  0  0  0  0  0  0  0
   -4.6126   -1.1539   -0.9822 C   0  0  0  0  0  0  0  0  0  0  0  0
   -6.0152   -1.3439   -0.5452 C   0  0  0  0  0  0  0  0  0  0  0  0
   -7.0012   -1.5699   -1.5134 C   0  0  0  0  0  0  0  0  0  0  0  0
   -8.3234   -1.7782   -1.1179 C   0  0  0  0  0  0  0  0  0  0  0  0
   -8.6425   -1.7768    0.2368 C   0  0  0  0  0  0  0  0  0  0  0  0
   -9.9117   -1.9771    0.6142 F   0  0  0  0  0  0  0  0  0  0  0  0
   -7.6643   -1.5792    1.2078 C   0  0  0  0  0  0  0  0  0  0  0  0
   -6.3406   -1.3698    0.8185 C   0  0  0  0  0  0  0  0  0  0  0  0
   -3.8790   -0.0936   -0.4517 N   0  0  0  0  0  0  0  0  0  0  0  0
   -2.4771   -0.0115   -0.8606 C   0  0  0  0  0  0  0  0  0  0  0  0
   -1.6386    0.9385   -0.0276 C   0  0  0  0  0  0  0  0  0  0  0  0
   -0.2979    0.9082   -0.2367 N   0  0  0  0  0  0  0  0  0  0  0  0
    0.4664    1.7655    0.4995 C   0  0  0  0  0  0  0  0  0  0  0  0
    1.9452    1.7019    0.2620 C   0  0  0  0  0  0  0  0  0  0  0  0
    2.7250    2.4082    0.8892 O   0  0  0  0  0  0  0  0  0  0  0  0
    2.3177    0.7915   -0.7024 N   0  0  0  0  0  0  0  0  0  0  0  0
    3.6966    0.4710   -0.9957 C   0  0  0  0  0  0  0  0  0  0  0  0
    4.2531   -0.6759   -0.1719 C   0  0  0  0  0  0  0  0  0  0  0  0
    3.3687   -1.6697    0.3049 C   0  0  0  0  0  0  0  0  0  0  0  0
    3.7999   -2.6944    1.1485 C   0  0  0  0  0  0  0  0  0  0  0  0
    5.1302   -2.7575    1.5356 C   0  0  0  0  0  0  0  0  0  0  0  0
    6.0358   -1.8125    1.0563 C   0  0  0  0  0  0  0  0  0  0  0  0
    5.6201   -0.7891    0.1798 C   0  0  0  0  0  0  0  0  0  0  0  0
    6.6321    0.0793   -0.3326 N   0  0  0  0  0  0  0  0  0  0  0  0
    6.7017    0.6239   -1.6006 C   0  0  0  0  0  0  0  0  0  0  0  0
    7.8468    1.3832   -1.7087 C   0  0  0  0  0  0  0  0  0  0  0  0
    8.5321    1.2817   -0.4819 C   0  0  0  0  0  0  0  0  0  0  0  0
    7.7838    0.4620    0.3339 C   0  0  0  0  0  0  0  0  0  0  0  0
   -0.0457    2.6545    1.4317 C   0  0  0  0  0  0  0  0  0  0  0  0
   -1.4216    2.6770    1.6256 C   0  0  0  0  0  0  0  0  0  0  0  0
   -2.2397    1.8200    0.8820 C   0  0  0  0  0  0  0  0  0  0  0  0
   -3.7283    1.8016    1.1097 C   0  0  0  0  0  0  0  0  0  0  0  0
   -4.4822    1.1816   -0.0648 C   0  0  0  0  0  0  0  0  0  0  0  0
   -6.7380   -1.5884   -2.5689 H   0  0  0  0  0  0  0  0  0  0  0  0
   -9.1023   -1.9505   -1.8542 H   0  0  0  0  0  0  0  0  0  0  0  0
   -7.9388   -1.6015    2.2577 H   0  0  0  0  0  0  0  0  0  0  0  0
   -5.5681   -1.2413    1.5722 H   0  0  0  0  0  0  0  0  0  0  0  0
   -2.4560    0.3254   -1.9040 H   0  0  0  0  0  0  0  0  0  0  0  0
   -2.0329   -1.0127   -0.8169 H   0  0  0  0  0  0  0  0  0  0  0  0
    1.5689    0.2443   -1.1152 H   0  0  0  0  0  0  0  0  0  0  0  0
    3.7333    0.2025   -2.0562 H   0  0  0  0  0  0  0  0  0  0  0  0
    4.2765    1.3830   -0.8276 H   0  0  0  0  0  0  0  0  0  0  0  0
    2.3131   -1.6436    0.0422 H   0  0  0  0  0  0  0  0  0  0  0  0
    3.0908   -3.4354    1.5094 H   0  0  0  0  0  0  0  0  0  0  0  0
    5.4695   -3.5517    2.1952 H   0  0  0  0  0  0  0  0  0  0  0  0
    7.0798   -1.9268    1.3386 H   0  0  0  0  0  0  0  0  0  0  0  0
    5.9613    0.3974   -2.3523 H   0  0  0  0  0  0  0  0  0  0  0  0
    8.1614    1.9293   -2.5884 H   0  0  0  0  0  0  0  0  0  0  0  0
    9.4705    1.7506   -0.2162 H   0  0  0  0  0  0  0  0  0  0  0  0
    7.9591    0.1622    1.3577 H   0  0  0  0  0  0  0  0  0  0  0  0
    0.6113    3.3090    1.9955 H   0  0  0  0  0  0  0  0  0  0  0  0
   -1.8487    3.3592    2.3569 H   0  0  0  0  0  0  0  0  0  0  0  0
   -4.0990    2.8200    1.2742 H   0  0  0  0  0  0  0  0  0  0  0  0
   -3.9246    1.2189    2.0183 H   0  0  0  0  0  0  0  0  0  0  0  0
   -5.5405    1.0803    0.1838 H   0  0  0  0  0  0  0  0  0  0  0  0
   -4.4339    1.8372   -0.9440 H   0  0  0  0  0  0  0  0  0  0  0  0
  1  2  2  0
  2  3  1  0
  3  4  2  0
  4  5  1  0
  5  6  2  0
  6  7  1  0
  6  8  1  0
  8  9  2  0
  2 10  1  0
 10 11  1  0
 11 12  1  0
 12 13  2  0
 13 14  1  0
 14 15  1  0
 15 16  2  0
 15 17  1  0
 17 18  1  0
 18 19  1  0
 19 20  2  0
 20 21  1  0
 21 22  2  0
 22 23  1  0
 23 24  2  0
 24 25  1  0
 25 26  1  0
 26 27  2  0
 27 28  1  0
 28 29  2  0
 14 30  2  0
 30 31  1  0
 31 32  2  0
 32 33  1  0
 33 34  1  0
 34 10  1  0
 32 12  1  0
  9  3  1  0
 24 19  1  0
 29 25  1  0
  4 35  1  0
  5 36  1  0
  8 37  1  0
  9 38  1  0
 11 39  1  0
 11 40  1  0
 17 41  1  0
 18 42  1  0
 18 43  1  0
 20 44  1  0
 21 45  1  0
 22 46  1  0
 23 47  1  0
 26 48  1  0
 27 49  1  0
 28 50  1  0
 29 51  1  0
 30 52  1  0
 31 53  1  0
 33 54  1  0
 33 55  1  0
 34 56  1  0
 34 57  1  0
M  END
>  <type>  (7) 
designed

$$$$
G02
     RDKit          3D

 63 67  0  0  0  0  0  0  0  0999 V2000
   -4.7892   -2.2191   -1.3896 O   0  0  0  0  0  0  0  0  0  0  0  0
   -5.3674   -1.2183   -0.9725 C   0  0  0  0  0  0  0  0  0  0  0  0
   -6.8456   -1.2371   -0.9630 C   0  0  0  0  0  0  0  0  0  0  0  0
   -7.5242   -1.4566   -2.1675 C   0  0  0  0  0  0  0  0  0  0  0  0
   -8.9192   -1.5014   -2.1735 C   0  0  0  0  0  0  0  0  0  0  0  0
   -9.6165   -1.3477   -0.9788 C   0  0  0  0  0  0  0  0  0  0  0  0
  -10.9545   -1.3951   -0.9877 F   0  0  0  0  0  0  0  0  0  0  0  0
   -8.9471   -1.1538    0.2265 C   0  0  0  0  0  0  0  0  0  0  0  0
   -7.5528   -1.1025    0.2391 C   0  0  0  0  0  0  0  0  0  0  0  0
   -4.7031   -0.0836   -0.5151 N   0  0  0  0  0  0  0  0  0  0  0  0
   -3.2445   -0.1812   -0.3908 C   0  0  0  0  0  0  0  0  0  0  0  0
   -2.5955    0.9246    0.4153 C   0  0  0  0  0  0  0  0  0  0  0  0
   -1.4529    0.6389    1.0847 N   0  0  0  0  0  0  0  0  0  0  0  0
   -0.8720    1.6605    1.7762 C   0  0  0  0  0  0  0  0  0  0  0  0
    0.3602    1.3118    2.5571 C   0  0  0  0  0  0  0  0  0  0  0  0
    0.9408    2.1431    3.2447 O   0  0  0  0  0  0  0  0  0  0  0  0
    0.7469   -0.0037    2.4335 N   0  0  0  0  0  0  0  0  0  0  0  0
    1.9401   -0.5341    3.0397 C   0  0  0  0  0  0  0  0  0  0  0  0
    3.0918   -0.5389    2.0709 C   0  0  0  0  0  0  0  0  0  0  0  0
    3.9546    0.5549    1.9854 C   0  0  0  0  0  0  0  0  0  0  0  0
    5.0270    0.5493    1.0823 C   0  0  0  0  0  0  0  0  0  0  0  0
    5.2762   -0.5321    0.2207 C   0  0  0  0  0  0  0  0  0  0  0  0
    6.3445   -0.5320   -0.6613 N   0  0  0  0  0  0  0  0  0  0  0  0
    7.0077    0.7216   -1.0574 C   0  0  0  0  0  0  0  0  0  0  0  0
    7.7090    0.5836   -2.4299 C   0  0  0  0  0  0  0  0  0  0  0  0
    8.6917   -0.5105   -2.5379 N   0  0  0  0  0  0  0  0  0  0  0  0
    8.3204   -1.6459   -1.6718 C   0  0  0  0  0  0  0  0  0  0  0  0
    6.8173   -1.7599   -1.3219 C   0  0  0  0  0  0  0  0  0  0  0  0
    4.3840   -1.6117    0.3131 C   0  0  0  0  0  0  0  0  0  0  0  0
    3.3106   -1.6204    1.2164 C   0  0  0  0  0  0  0  0  0  0  0  0
   -1.3667    2.9573    1.8047 C   0  0  0  0  0  0  0  0  0  0  0  0
   -2.5332    3.2308    1.0994 C   0  0  0  0  0  0  0  0  0  0  0  0
   -3.1696    2.1991    0.4078 C   0  0  0  0  0  0  0  0  0  0  0  0
   -4.4402    2.4107   -0.3633 C   0  0  0  0  0  0  0  0  0  0  0  0
   -5.3560    1.1946   -0.2055 C   0  0  0  0  0  0  0  0  0  0  0  0
   -6.9679   -1.5979   -3.0913 H   0  0  0  0  0  0  0  0  0  0  0  0
   -9.4653   -1.6639   -3.0981 H   0  0  0  0  0  0  0  0  0  0  0  0
   -9.5160   -1.0542    1.1458 H   0  0  0  0  0  0  0  0  0  0  0  0
   -7.0238   -0.9782    1.1794 H   0  0  0  0  0  0  0  0  0  0  0  0
   -2.8300   -0.1656   -1.4077 H   0  0  0  0  0  0  0  0  0  0  0  0
   -2.9959   -1.1518    0.0549 H   0  0  0  0  0  0  0  0  0  0  0  0
    0.2321   -0.5608    1.7579 H   0  0  0  0  0  0  0  0  0  0  0  0
    1.7171   -1.5563    3.3666 H   0  0  0  0  0  0  0  0  0  0  0  0
    2.1966    0.0406    3.9385 H   0  0  0  0  0  0  0  0  0  0  0  0
    3.8008    1.4226    2.6244 H   0  0  0  0  0  0  0  0  0  0  0  0
    5.6826    1.4165    1.0884 H   0  0  0  0  0  0  0  0  0  0  0  0
    7.7444    0.9986   -0.2925 H   0  0  0  0  0  0  0  0  0  0  0  0
    6.2800    1.5384   -1.1454 H   0  0  0  0  0  0  0  0  0  0  0  0
    8.2052    1.5290   -2.6813 H   0  0  0  0  0  0  0  0  0  0  0  0
    6.9452    0.4222   -3.2024 H   0  0  0  0  0  0  0  0  0  0  0  0
    9.6064   -0.1726   -2.2376 H   0  0  0  0  0  0  0  0  0  0  0  0
    8.6554   -2.5705   -2.1526 H   0  0  0  0  0  0  0  0  0  0  0  0
    8.8829   -1.5549   -0.7340 H   0  0  0  0  0  0  0  0  0  0  0  0
    6.7063   -2.6296   -0.6630 H   0  0  0  0  0  0  0  0  0  0  0  0
    6.2290   -1.9404   -2.2308 H   0  0  0  0  0  0  0  0  0  0  0  0
    4.4904   -2.4748   -0.3368 H   0  0  0  0  0  0  0  0  0  0  0  0
    2.6484   -2.4826    1.2425 H   0  0  0  0  0  0  0  0  0  0  0  0
   -0.8584    3.7345    2.3670 H   0  0  0  0  0  0  0  0  0  0  0  0
   -2.9423    4.2381    1.1060 H   0  0  0  0  0  0  0  0  0  0  0  0
   -4.1895    2.5713   -1.4177 H   0  0  0  0  0  0  0  0  0  0  0  0
   -4.9678    3.2995   -0.0030 H   0  0  0  0  0  0  0  0  0  0  0  0
   -5.6974    1.1255    0.8351 H   0  0  0  0  0  0  0  0  0  0  0  0
   -6.2409    1.3220   -0.8374 H   0  0  0  0  0  0  0  0  0  0  0  0
  1  2  2  0
  2  3  1  0
  3  4  2  0
  4  5  1  0
  5  6  2  0
  6  7  1  0
  6  8  1  0
  8  9  2  0
  2 10  1  0
 10 11  1  0
 11 12  1  0
 12 13  2  0
 13 14  1  0
 14 15  1  0
 15 16  2  0
 15 17  1  0
 17 18  1  0
 18 19  1  0
 19 20  2  0
 20 21  1  0
 21 22  2  0
 22 23  1  0
 23 24  1  0
 24 25  1  0
 25 26  1  0
 26 27  1  0
 27 28  1  0
 22 29  1  0
 29 30  2  0
 14 31  2  0
 31 32  1  0
 32 33  2  0
 33 34  1  0
 34 35  1  0
 35 10  1  0
 33 12  1  0
  9  3  1  0
 30 19  1  0
 28 23  1  0
  4 36  1  0
  5 37  1  0
  8 38  1  0
  9 39  1  0
 11 40  1  0
 11 41  1  0
 17 42  1  0
 18 43  1  0
 18 44  1  0
 20 45  1  0
 21 46  1  0
 24 47  1  0
 24 48  1  0
 25 49  1  0
 25 50  1  0
 26 51  1  0
 27 52  1  0
 27 53  1  0
 28 54  1  0
 28 55  1  0
 29 56  1  0
 30 57  1  0
 31 58  1  0
 32 59  1  0
 34 60  1  0
 34 61  1  0
 35 62  1  0
 35 63  1  0
M  END
>  <type>  (8) 
designed

$$$$
G03
     RDKit          3D

 52 55  0  0  0  0  0  0  0  0999 V2000
   -3.1459   -1.3312    2.2374 O   0  0  0  0  0  0  0  0  0  0  0  0
   -3.6448   -0.4265    1.5747 C   0  0  0  0  0  0  0  0  0  0  0  0
   -5.0680   -0.1248    1.8004 C   0  0  0  0  0  0  0  0  0  0  0  0
   -5.4260    0.7583    2.8270 C   0  0  0  0  0  0  0  0  0  0  0  0
   -6.7752    1.0320    3.0496 C   0  0  0  0  0  0  0  0  0  0  0  0
   -7.7406    0.4184    2.2528 C   0  0  0  0  0  0  0  0  0  0  0  0
   -9.0349    0.6824    2.4701 F   0  0  0  0  0  0  0  0  0  0  0  0
   -7.3859   -0.4681    1.2373 C   0  0  0  0  0  0  0  0  0  0  0  0
   -6.0392   -0.7503    1.0094 C   0  0  0  0  0  0  0  0  0  0  0  0
   -2.9470    0.3279    0.6370 N   0  0  0  0  0  0  0  0  0  0  0  0
   -1.5900   -0.1234    0.3255 C   0  0  0  0  0  0  0  0  0  0  0  0
   -0.7495    0.8448   -0.4849 C   0  0  0  0  0  0  0  0  0  0  0  0
    0.5192    0.4545   -0.7686 N   0  0  0  0  0  0  0  0  0  0  0  0
    1.2843    1.3101   -1.5046 C   0  0  0  0  0  0  0  0  0  0  0  0
    2.6806    0.8550   -1.8042 C   0  0  0  0  0  0  0  0  0  0  0  0
    3.4551    1.5406   -2.4612 O   0  0  0  0  0  0  0  0  0  0  0  0
    3.0012   -0.3777   -1.2703 N   0  0  0  0  0  0  0  0  0  0  0  0
    4.3427   -0.9236   -1.3132 C   0  0  0  0  0  0  0  0  0  0  0  0
    5.2278   -0.2852   -0.2324 C   0  0  0  0  0  0  0  0  0  0  0  0
    6.6294   -0.8903   -0.2247 C   0  0  0  0  0  0  0  0  0  0  0  0
    6.5797   -2.4035   -0.1011 C   0  0  0  0  0  0  0  0  0  0  0  0
    7.8351   -2.9071   -0.1856 F   0  0  0  0  0  0  0  0  0  0  0  0
    6.1123   -2.7343    1.1308 F   0  0  0  0  0  0  0  0  0  0  0  0
    5.7007   -3.0531   -1.1564 C   0  0  0  0  0  0  0  0  0  0  0  0
    4.2994   -2.4488   -1.1613 C   0  0  0  0  0  0  0  0  0  0  0  0
    0.8454    2.5421   -1.9636 C   0  0  0  0  0  0  0  0  0  0  0  0
   -0.4562    2.9243   -1.6627 C   0  0  0  0  0  0  0  0  0  0  0  0
   -1.2772    2.0635   -0.9278 C   0  0  0  0  0  0  0  0  0  0  0  0
   -2.6809    2.4635   -0.5681 C   0  0  0  0  0  0  0  0  0  0  0  0
   -3.5684    1.2463   -0.3162 C   0  0  0  0  0  0  0  0  0  0  0  0
   -4.6628    1.2164    3.4517 H   0  0  0  0  0  0  0  0  0  0  0  0
   -7.0832    1.7076    3.8433 H   0  0  0  0  0  0  0  0  0  0  0  0
   -8.1617   -0.9403    0.6423 H   0  0  0  0  0  0  0  0  0  0  0  0
   -5.7492   -1.4543    0.2327 H   0  0  0  0  0  0  0  0  0  0  0  0
   -1.0672   -0.3479    1.2633 H   0  0  0  0  0  0  0  0  0  0  0  0
   -1.6845   -1.0585   -0.2405 H   0  0  0  0  0  0  0  0  0  0  0  0
    2.2984   -0.7767   -0.6478 H   0  0  0  0  0  0  0  0  0  0  0  0
    4.7672   -0.6795   -2.2961 H   0  0  0  0  0  0  0  0  0  0  0  0
    4.7650   -0.4216    0.7537 H   0  0  0  0  0  0  0  0  0  0  0  0
    5.3014    0.7970   -0.3908 H   0  0  0  0  0  0  0  0  0  0  0  0
    7.1628   -0.6122   -1.1426 H   0  0  0  0  0  0  0  0  0  0  0  0
    7.2022   -0.4719    0.6115 H   0  0  0  0  0  0  0  0  0  0  0  0
    5.6317   -4.1296   -0.9648 H   0  0  0  0  0  0  0  0  0  0  0  0
    6.1626   -2.9375   -2.1440 H   0  0  0  0  0  0  0  0  0  0  0  0
    3.7849   -2.7157   -0.2279 H   0  0  0  0  0  0  0  0  0  0  0  0
    3.7109   -2.8907   -1.9753 H   0  0  0  0  0  0  0  0  0  0  0  0
    1.5021    3.1897   -2.5354 H   0  0  0  0  0  0  0  0  0  0  0  0
   -0.8244    3.8894   -2.0022 H   0  0  0  0  0  0  0  0  0  0  0  0
   -2.6383    3.0835    0.3360 H   0  0  0  0  0  0  0  0  0  0  0  0
   -3.1228    3.0659   -1.3698 H   0  0  0  0  0  0  0  0  0  0  0  0
   -4.5453    1.5873    0.0352 H   0  0  0  0  0  0  0  0  0  0  0  0
   -3.7326    0.6838   -1.2436 H   0  0  0  0  0  0  0  0  0  0  0  0
  1  2  2  0
  2  3  1  0
  3  4  2  0
  4  5  1  0
  5  6  2  0
  6  7  1  0
  6  8  1  0
  8  9  2  0
  2 10  1  0
 10 11  1  0
 11 12  1  0
 12 13  2  0
 13 14  1  0
 14 15  1  0
 15 16  2  0
 15 17  1  0
 17 18  1  0
 18 19  1  0
 19 20  1  0
 20 21  1  0
 21 22  1  0
 21 23  1  0
 21 24  1  0
 24 25  1  0
 14 26  2  0
 26 27  1  0
 27 28  2  0
 28 29  1  0
 29 30  1  0
 30 10  1  0
 28 12  1  0
  9  3  1  0
 25 18  1  0
  4 31  1  0
  5 32  1  0
  8 33  1  0
  9 34  1  0
 11 35  1  0
 11 36  1  0
 17 37  1  0
 18 38  1  0
 19 39  1  0
 19 40  1  0
 20 41  1  0
 20 42  1  0
 24 43  1  0
 24 44  1  0
 25 45  1  0
 25 46  1  0
 26 47  1  0
 27 48  1  0
 29 49  1  0
 29 50  1  0
 30 51  1  0
 30 52  1  0
M  END
>  <type>  (9) 
designed

$$$$
H01
     RDKit          3D

 60 64  0  0  0  0  0  0  0  0999 V2000
   -4.4828   -0.8896    2.3268 O   0  0  0  0  0  0  0  0  0  0  0  0
   -4.6407   -0.3087    1.2531 C   0  0  0  0  0  0  0  0  0  0  0  0
   -6.0291   -0.1554    0.7742 C   0  0  0  0  0  0  0  0  0  0  0  0
   -7.0248    0.0963    1.7103 C   0  0  0  0  0  0  0  0  0  0  0  0
   -8.3455    0.1775    1.4109 N   0  0  0  0  0  0  0  0  0  0  0  0
   -8.6847   -0.0329    0.1202 C   0  0  0  0  0  0  0  0  0  0  0  0
  -10.0089    0.0489   -0.2608 O   0  0  0  0  0  0  0  0  0  0  0  0
  -10.8986   -0.1719    0.8324 C   0  0  0  0  0  0  0  0  0  0  0  0
   -7.7685   -0.2939   -0.8852 C   0  0  0  0  0  0  0  0  0  0  0  0
   -6.4187   -0.3879   -0.5468 C   0  0  0  0  0  0  0  0  0  0  0  0
   -3.5686    0.1781    0.5103 N   0  0  0  0  0  0  0  0  0  0  0  0
   -2.2381   -0.2616    0.9524 C   0  0  0  0  0  0  0  0  0  0  0  0
   -1.1051    0.0582    0.0045 C   0  0  0  0  0  0  0  0  0  0  0  0
   -0.0264   -0.7565    0.0194 N   0  0  0  0  0  0  0  0  0  0  0  0
    1.0107   -0.4476   -0.7979 C   0  0  0  0  0  0  0  0  0  0  0  0
    2.1714   -1.3964   -0.7477 C   0  0  0  0  0  0  0  0  0  0  0  0
    1.9932   -2.5994   -0.5888 O   0  0  0  0  0  0  0  0  0  0  0  0
    3.4317   -0.8307   -0.8591 N   0  0  0  0  0  0  0  0  0  0  0  0
    4.6219   -1.6056   -0.5617 C   0  0  0  0  0  0  0  0  0  0  0  0
    5.3735   -0.9745    0.5889 C   0  0  0  0  0  0  0  0  0  0  0  0
    4.8229   -1.2139    1.8712 C   0  0  0  0  0  0  0  0  0  0  0  0
    5.4453   -0.7636    3.0329 C   0  0  0  0  0  0  0  0  0  0  0  0
    6.6342   -0.0571    2.9421 C   0  0  0  0  0  0  0  0  0  0  0  0
    7.1968    0.2027    1.6909 C   0  0  0  0  0  0  0  0  0  0  0  0
    6.5732   -0.2329    0.5011 C   0  0  0  0  0  0  0  0  0  0  0  0
    7.2141    0.0999   -0.7332 N   0  0  0  0  0  0  0  0  0  0  0  0
    6.6249    0.3404   -1.9594 C   0  0  0  0  0  0  0  0  0  0  0  0
    7.6017    0.5707   -2.9032 C   0  0  0  0  0  0  0  0  0  0  0  0
    8.8420    0.5262   -2.2382 C   0  0  0  0  0  0  0  0  0  0  0  0
    8.5795    0.2735   -0.9106 C   0  0  0  0  0  0  0  0  0  0  0  0
    1.0202    0.6696   -1.6255 C   0  0  0  0  0  0  0  0  0  0  0  0
   -0.0946    1.5061   -1.6209 C   0  0  0  0  0  0  0  0  0  0  0  0
   -1.1827    1.1911   -0.8068 C   0  0  0  0  0  0  0  0  0  0  0  0
   -2.4309    2.0242   -0.7596 C   0  0  0  0  0  0  0  0  0  0  0  0
   -3.6601    1.1177   -0.6124 C   0  0  0  0  0  0  0  0  0  0  0  0
   -6.7847    0.2312    2.7626 H   0  0  0  0  0  0  0  0  0  0  0  0
  -10.8250    0.6235    1.5852 H   0  0  0  0  0  0  0  0  0  0  0  0
  -10.7314   -1.1590    1.2824 H   0  0  0  0  0  0  0  0  0  0  0  0
  -11.9186   -0.1573    0.4341 H   0  0  0  0  0  0  0  0  0  0  0  0
   -8.1046   -0.4522   -1.9033 H   0  0  0  0  0  0  0  0  0  0  0  0
   -5.6991   -0.6686   -1.3073 H   0  0  0  0  0  0  0  0  0  0  0  0
   -2.0340    0.2181    1.9166 H   0  0  0  0  0  0  0  0  0  0  0  0
   -2.2757   -1.3441    1.1206 H   0  0  0  0  0  0  0  0  0  0  0  0
    3.5208    0.1758   -0.8230 H   0  0  0  0  0  0  0  0  0  0  0  0
    5.2185   -1.6962   -1.4699 H   0  0  0  0  0  0  0  0  0  0  0  0
    4.3583   -2.6374   -0.2951 H   0  0  0  0  0  0  0  0  0  0  0  0
    3.8963   -1.7832    1.9631 H   0  0  0  0  0  0  0  0  0  0  0  0
    4.9998   -0.9700    4.0031 H   0  0  0  0  0  0  0  0  0  0  0  0
    7.1222    0.3042    3.8429 H   0  0  0  0  0  0  0  0  0  0  0  0
    8.1090    0.7945    1.6718 H   0  0  0  0  0  0  0  0  0  0  0  0
    5.5530    0.3703   -2.0747 H   0  0  0  0  0  0  0  0  0  0  0  0
    7.4323    0.7686   -3.9536 H   0  0  0  0  0  0  0  0  0  0  0  0
    9.8236    0.6746   -2.6688 H   0  0  0  0  0  0  0  0  0  0  0  0
    9.2690    0.1641   -0.0863 H   0  0  0  0  0  0  0  0  0  0  0  0
    1.8581    0.8805   -2.2799 H   0  0  0  0  0  0  0  0  0  0  0  0
   -0.1156    2.3834   -2.2628 H   0  0  0  0  0  0  0  0  0  0  0  0
   -2.5320    2.6086   -1.6845 H   0  0  0  0  0  0  0  0  0  0  0  0
   -2.3639    2.7286    0.0810 H   0  0  0  0  0  0  0  0  0  0  0  0
   -4.5608    1.7330   -0.5129 H   0  0  0  0  0  0  0  0  0  0  0  0
   -3.7643    0.5081   -1.5194 H   0  0  0  0  0  0  0  0  0  0  0  0
  1  2  2  0
  2  3  1  0
  3  4  2  0
  4  5  1  0
  5  6  2  0
  6  7  1  0
  7  8  1  0
  6  9  1  0
  9 10  2  0
  2 11  1  0
 11 12  1  0
 12 13  1  0
 13 14  2  0
 14 15  1  0
 15 16  1  0
 16 17  2  0
 16 18  1  0
 18 19  1  0
 19 20  1  0
 20 21  2  0
 21 22  1  0
 22 23  2  0
 23 24  1  0
 24 25  2  0
 25 26  1  0
 26 27  1  0
 27 28  2  0
 28 29  1  0
 29 30  2  0
 15 31  2  0
 31 32  1  0
 32 33  2  0
 33 34  1  0
 34 35  1  0
 35 11  1  0
 33 13  1  0
 10  3  1  0
 25 20  1  0
 30 26  1  0
  4 36  1  0
  8 37  1  0
  8 38  1  0
  8 39  1  0
  9 40  1  0
 10 41  1  0
 12 42  1  0
 12 43  1  0
 18 44  1  0
 19 45  1  0
 19 46  1  0
 21 47  1  0
 22 48  1  0
 23 49  1  0
 24 50  1  0
 27 51  1  0
 28 52  1  0
 29 53  1  0
 30 54  1  0
 31 55  1  0
 32 56  1  0
 34 57  1  0
 34 58  1  0
 35 59  1  0
 35 60  1  0
M  END
>  <type>  (10) 
designed

$$$$
H02
     RDKit          3D

 66 70  0  0  0  0  0  0  0  0999 V2000
    4.5224    2.0436    0.7213 O   0  0  0  0  0  0  0  0  0  0  0  0
    4.8012    1.2752   -0.1952 C   0  0  0  0  0  0  0  0  0  0  0  0
    6.2090    1.2281   -0.6223 C   0  0  0  0  0  0  0  0  0  0  0  0
    7.1964    1.0110    0.3277 C   0  0  0  0  0  0  0  0  0  0  0  0
    8.5191    0.9562    0.0355 N   0  0  0  0  0  0  0  0  0  0  0  0
    8.8636    1.1693   -1.2543 C   0  0  0  0  0  0  0  0  0  0  0  0
   10.1911    1.1354   -1.6303 O   0  0  0  0  0  0  0  0  0  0  0  0
   11.0725    0.8826   -0.5399 C   0  0  0  0  0  0  0  0  0  0  0  0
    7.9474    1.4290   -2.2649 C   0  0  0  0  0  0  0  0  0  0  0  0
    6.5926    1.4643   -1.9422 C   0  0  0  0  0  0  0  0  0  0  0  0
    3.8672    0.4709   -0.8452 N   0  0  0  0  0  0  0  0  0  0  0  0
    2.4772    0.5288   -0.3855 C   0  0  0  0  0  0  0  0  0  0  0  0
    2.0416   -0.7371    0.3342 C   0  0  0  0  0  0  0  0  0  0  0  0
    0.8885   -0.6707    1.0462 N   0  0  0  0  0  0  0  0  0  0  0  0
    0.4786   -1.8102    1.6726 C   0  0  0  0  0  0  0  0  0  0  0  0
   -0.7922   -1.7116    2.4634 C   0  0  0  0  0  0  0  0  0  0  0  0
   -1.2721   -2.6864    3.0300 O   0  0  0  0  0  0  0  0  0  0  0  0
   -1.3482   -0.4522    2.4793 N   0  0  0  0  0  0  0  0  0  0  0  0
   -2.6399   -0.1706    3.0500 C   0  0  0  0  0  0  0  0  0  0  0  0
   -3.6915   -0.0664    1.9776 C   0  0  0  0  0  0  0  0  0  0  0  0
   -4.2683   -1.2173    1.4368 C   0  0  0  0  0  0  0  0  0  0  0  0
   -5.2363   -1.1208    0.4299 C   0  0  0  0  0  0  0  0  0  0  0  0
   -5.6654    0.1179   -0.0776 C   0  0  0  0  0  0  0  0  0  0  0  0
   -6.6375    0.1619   -1.0808 N   0  0  0  0  0  0  0  0  0  0  0  0
   -7.8479   -0.6527   -0.8143 C   0  0  0  0  0  0  0  0  0  0  0  0
   -9.0759   -0.1474   -1.6078 C   0  0  0  0  0  0  0  0  0  0  0  0
   -9.3918    1.2816   -1.4111 N   0  0  0  0  0  0  0  0  0  0  0  0
   -8.1587    2.1012   -1.3745 C   0  0  0  0  0  0  0  0  0  0  0  0
   -6.8805    1.3876   -1.8625 C   0  0  0  0  0  0  0  0  0  0  0  0
   -5.0589    1.2598    0.4642 C   0  0  0  0  0  0  0  0  0  0  0  0
   -4.0881    1.1742    1.4732 C   0  0  0  0  0  0  0  0  0  0  0  0
    1.1600   -3.0166    1.6102 C   0  0  0  0  0  0  0  0  0  0  0  0
    2.3319   -3.0693    0.8642 C   0  0  0  0  0  0  0  0  0  0  0  0
    2.7817   -1.9235    0.2007 C   0  0  0  0  0  0  0  0  0  0  0  0
    4.0726   -1.9565   -0.5811 C   0  0  0  0  0  0  0  0  0  0  0  0
    4.1983   -0.7716   -1.5438 C   0  0  0  0  0  0  0  0  0  0  0  0
    6.9472    0.8665    1.3760 H   0  0  0  0  0  0  0  0  0  0  0  0
   11.0072    1.6728    0.2166 H   0  0  0  0  0  0  0  0  0  0  0  0
   12.0948    0.8812   -0.9314 H   0  0  0  0  0  0  0  0  0  0  0  0
   10.8846   -0.1027   -0.0984 H   0  0  0  0  0  0  0  0  0  0  0  0
    8.2864    1.6063   -3.2796 H   0  0  0  0  0  0  0  0  0  0  0  0
    5.8530    1.6847   -2.7065 H   0  0  0  0  0  0  0  0  0  0  0  0
    2.3068    1.3967    0.2601 H   0  0  0  0  0  0  0  0  0  0  0  0
    1.8500    0.6478   -1.2774 H   0  0  0  0  0  0  0  0  0  0  0  0
   -0.9000    0.2402    1.8865 H   0  0  0  0  0  0  0  0  0  0  0  0
   -2.5558    0.7754    3.5957 H   0  0  0  0  0  0  0  0  0  0  0  0
   -2.9178   -0.9411    3.7781 H   0  0  0  0  0  0  0  0  0  0  0  0
   -3.9592   -2.1998    1.7890 H   0  0  0  0  0  0  0  0  0  0  0  0
   -5.6378   -2.0444    0.0206 H   0  0  0  0  0  0  0  0  0  0  0  0
   -8.1006   -0.6213    0.2539 H   0  0  0  0  0  0  0  0  0  0  0  0
   -7.6580   -1.6956   -1.0905 H   0  0  0  0  0  0  0  0  0  0  0  0
   -9.9548   -0.7415   -1.3326 H   0  0  0  0  0  0  0  0  0  0  0  0
   -8.9144   -0.3206   -2.6789 H   0  0  0  0  0  0  0  0  0  0  0  0
   -9.8611    1.3906   -0.5113 H   0  0  0  0  0  0  0  0  0  0  0  0
   -8.0027    2.4375   -0.3417 H   0  0  0  0  0  0  0  0  0  0  0  0
   -8.3276    2.9986   -1.9793 H   0  0  0  0  0  0  0  0  0  0  0  0
   -6.0268    2.0732   -1.8619 H   0  0  0  0  0  0  0  0  0  0  0  0
   -7.0079    1.1011   -2.9148 H   0  0  0  0  0  0  0  0  0  0  0  0
   -5.3420    2.2543    0.1362 H   0  0  0  0  0  0  0  0  0  0  0  0
   -3.6503    2.0907    1.8619 H   0  0  0  0  0  0  0  0  0  0  0  0
    0.7890   -3.8923    2.1327 H   0  0  0  0  0  0  0  0  0  0  0  0
    2.8894   -4.0013    0.8057 H   0  0  0  0  0  0  0  0  0  0  0  0
    4.1455   -2.8895   -1.1515 H   0  0  0  0  0  0  0  0  0  0  0  0
    4.9015   -1.9339    0.1374 H   0  0  0  0  0  0  0  0  0  0  0  0
    3.4963   -0.8758   -2.3799 H   0  0  0  0  0  0  0  0  0  0  0  0
    5.2053   -0.7555   -1.9633 H   0  0  0  0  0  0  0  0  0  0  0  0
  1  2  2  0
  2  3  1  0
  3  4  2  0
  4  5  1  0
  5  6  2  0
  6  7  1  0
  7  8  1  0
  6  9  1  0
  9 10  2  0
  2 11  1  0
 11 12  1  0
 12 13  1  0
 13 14  2  0
 14 15  1  0
 15 16  1  0
 16 17  2  0
 16 18  1  0
 18 19  1  0
 19 20  1  0
 20 21  2  0
 21 22  1  0
 22 23  2  0
 23 24  1  0
 24 25  1  0
 25 26  1  0
 26 27  1  0
 27 28  1  0
 28 29  1  0
 23 30  1  0
 30 31  2  0
 15 32  2  0
 32 33  1  0
 33 34  2  0
 34 35  1  0
 35 36  1  0
 36 11  1  0
 34 13  1  0
 10  3  1  0
 31 20  1  0
 29 24  1  0
  4 37  1  0
  8 38  1  0
  8 39  1  0
  8 40  1  0
  9 41  1  0
 10 42  1  0
 12 43  1  0
 12 44  1  0
 18 45  1  0
 19 46  1  0
 19 47  1  0
 21 48  1  0
 22 49  1  0
 25 50  1  0
 25 51  1  0
 26 52  1  0
 26 53  1  0
 27 54  1  0
 28 55  1  0
 28 56  1  0
 29 57  1  0
 29 58  1  0
 30 59  1  0
 31 60  1  0
 32 61  1  0
 33 62  1  0
 35 63  1  0
 35 64  1  0
 36 65  1  0
 36 66  1  0
M  END
>  <type>  (11) 
designed

$$$$
I01
     RDKit          3D

 60 64  0  0  0  0  0  0  0  0999 V2000
    2.1622   -2.6155    0.5587 O   0  0  0  0  0  0  0  0  0  0  0  0
    2.8407   -1.6450    0.2318 C   0  0  0  0  0  0  0  0  0  0  0  0
    4.1906   -1.9012   -0.3205 C   0  0  0  0  0  0  0  0  0  0  0  0
    4.5808   -1.3462   -1.5435 C   0  0  0  0  0  0  0  0  0  0  0  0
    5.8519   -1.6205   -2.0559 C   0  0  0  0  0  0  0  0  0  0  0  0
    6.7344   -2.4671   -1.3630 C   0  0  0  0  0  0  0  0  0  0  0  0
    8.1146   -2.7406   -1.9154 C   0  0  0  0  0  0  0  0  0  0  0  0
    8.9757   -1.7136   -1.6736 F   0  0  0  0  0  0  0  0  0  0  0  0
    8.1167   -2.9212   -3.2657 F   0  0  0  0  0  0  0  0  0  0  0  0
    8.7001   -3.8521   -1.3889 F   0  0  0  0  0  0  0  0  0  0  0  0
    6.3218   -3.0324   -0.1445 C   0  0  0  0  0  0  0  0  0  0  0  0
    5.0510   -2.7603    0.3697 C   0  0  0  0  0  0  0  0  0  0  0  0
    2.3937   -0.3275    0.3378 N   0  0  0  0  0  0  0  0  0  0  0  0
    1.0315   -0.1564    0.8466 C   0  0  0  0  0  0  0  0  0  0  0  0
    0.4821    1.2504    0.7171 C   0  0  0  0  0  0  0  0  0  0  0  0
   -0.8241    1.4204    1.0360 N   0  0  0  0  0  0  0  0  0  0  0  0
   -1.3404    2.6772    0.9218 C   0  0  0  0  0  0  0  0  0  0  0  0
   -2.7987    2.8139    1.2453 C   0  0  0  0  0  0  0  0  0  0  0  0
   -3.3910    3.8797    1.1264 O   0  0  0  0  0  0  0  0  0  0  0  0
   -3.3804    1.6362    1.6600 N   0  0  0  0  0  0  0  0  0  0  0  0
   -4.8069    1.4573    1.7543 C   0  0  0  0  0  0  0  0  0  0  0  0
   -5.4231    1.0569    0.4298 C   0  0  0  0  0  0  0  0  0  0  0  0
   -6.4032    1.9257   -0.0979 C   0  0  0  0  0  0  0  0  0  0  0  0
   -6.9545    1.7283   -1.3643 C   0  0  0  0  0  0  0  0  0  0  0  0
   -6.5303    0.6614   -2.1435 C   0  0  0  0  0  0  0  0  0  0  0  0
   -5.5656   -0.2160   -1.6503 C   0  0  0  0  0  0  0  0  0  0  0  0
   -5.0234   -0.0452   -0.3607 C   0  0  0  0  0  0  0  0  0  0  0  0
   -4.0699   -1.0100    0.0750 N   0  0  0  0  0  0  0  0  0  0  0  0
   -3.9459   -1.5542    1.3387 C   0  0  0  0  0  0  0  0  0  0  0  0
   -2.8914   -2.4417    1.3492 C   0  0  0  0  0  0  0  0  0  0  0  0
   -2.3679   -2.4842    0.0406 C   0  0  0  0  0  0  0  0  0  0  0  0
   -3.1206   -1.6206   -0.7259 C   0  0  0  0  0  0  0  0  0  0  0  0
   -0.6075    3.7795    0.5134 C   0  0  0  0  0  0  0  0  0  0  0  0
    0.7357    3.5903    0.2062 C   0  0  0  0  0  0  0  0  0  0  0  0
    1.3006    2.3143    0.3175 C   0  0  0  0  0  0  0  0  0  0  0  0
    2.7416    2.0809   -0.0480 C   0  0  0  0  0  0  0  0  0  0  0  0
    3.2913    0.8020    0.5818 C   0  0  0  0  0  0  0  0  0  0  0  0
    3.8964   -0.7122   -2.1020 H   0  0  0  0  0  0  0  0  0  0  0  0
    6.1517   -1.1806   -3.0063 H   0  0  0  0  0  0  0  0  0  0  0  0
    6.9864   -3.6985    0.4053 H   0  0  0  0  0  0  0  0  0  0  0  0
    4.7306   -3.2196    1.3028 H   0  0  0  0  0  0  0  0  0  0  0  0
    1.0370   -0.4333    1.9086 H   0  0  0  0  0  0  0  0  0  0  0  0
    0.3681   -0.8509    0.3172 H   0  0  0  0  0  0  0  0  0  0  0  0
   -2.7748    0.8186    1.6125 H   0  0  0  0  0  0  0  0  0  0  0  0
   -5.2410    2.3984    2.1109 H   0  0  0  0  0  0  0  0  0  0  0  0
   -5.0217    0.7171    2.5273 H   0  0  0  0  0  0  0  0  0  0  0  0
   -6.7228    2.7978    0.4708 H   0  0  0  0  0  0  0  0  0  0  0  0
   -7.7000    2.4216   -1.7451 H   0  0  0  0  0  0  0  0  0  0  0  0
   -6.9518    0.5082   -3.1333 H   0  0  0  0  0  0  0  0  0  0  0  0
   -5.2772   -1.0590   -2.2747 H   0  0  0  0  0  0  0  0  0  0  0  0
   -4.6429   -1.3098    2.1262 H   0  0  0  0  0  0  0  0  0  0  0  0
   -2.5567   -3.0188    2.2026 H   0  0  0  0  0  0  0  0  0  0  0  0
   -1.5343   -3.0815   -0.3102 H   0  0  0  0  0  0  0  0  0  0  0  0
   -3.0229   -1.3586   -1.7706 H   0  0  0  0  0  0  0  0  0  0  0  0
   -1.0717    4.7569    0.4305 H   0  0  0  0  0  0  0  0  0  0  0  0
    1.3338    4.4368   -0.1231 H   0  0  0  0  0  0  0  0  0  0  0  0
    2.8083    2.0098   -1.1407 H   0  0  0  0  0  0  0  0  0  0  0  0
    3.3561    2.9296    0.2742 H   0  0  0  0  0  0  0  0  0  0  0  0
    3.3758    0.9119    1.6711 H   0  0  0  0  0  0  0  0  0  0  0  0
    4.3011    0.6133    0.2127 H   0  0  0  0  0  0  0  0  0  0  0  0
  1  2  2  0
  2  3  1  0
  3  4  2  0
  4  5  1  0
  5  6  2  0
  6  7  1  0
  7  8  1  0
  7  9  1  0
  7 10  1  0
  6 11  1  0
 11 12  2  0
  2 13  1  0
 13 14  1  0
 14 15  1  0
 15 16  2  0
 16 17  1  0
 17 18  1  0
 18 19  2  0
 18 20  1  0
 20 21  1  0
 21 22  1  0
 22 23  2  0
 23 24  1  0
 24 25  2  0
 25 26  1  0
 26 27  2  0
 27 28  1  0
 28 29  1  0
 29 30  2  0
 30 31  1  0
 31 32  2  0
 17 33  2  0
 33 34  1  0
 34 35  2  0
 35 36  1  0
 36 37  1  0
 37 13  1  0
 35 15  1  0
 12  3  1  0
 27 22  1  0
 32 28  1  0
  4 38  1  0
  5 39  1  0
 11 40  1  0
 12 41  1  0
 14 42  1  0
 14 43  1  0
 20 44  1  0
 21 45  1  0
 21 46  1  0
 23 47  1  0
 24 48  1  0
 25 49  1  0
 26 50  1  0
 29 51  1  0
 30 52  1  0
 31 53  1  0
 32 54  1  0
 33 55  1  0
 34 56  1  0
 36 57  1  0
 36 58  1  0
 37 59  1  0
 37 60  1  0
M  END
>  <type>  (12) 
designed

$$$$
I02
     RDKit          3D

 66 70  0  0  0  0  0  0  0  0999 V2000
   -4.1058    2.4124    0.2217 O   0  0  0  0  0  0  0  0  0  0  0  0
   -4.7031    1.3398    0.2092 C   0  0  0  0  0  0  0  0  0  0  0  0
   -6.1824    1.3710    0.1638 C   0  0  0  0  0  0  0  0  0  0  0  0
   -6.8717    2.1232    1.1192 C   0  0  0  0  0  0  0  0  0  0  0  0
   -8.2674    2.1818    1.0831 C   0  0  0  0  0  0  0  0  0  0  0  0
   -8.9841    1.5035    0.0837 C   0  0  0  0  0  0  0  0  0  0  0  0
  -10.4932    1.5520    0.0354 C   0  0  0  0  0  0  0  0  0  0  0  0
  -10.9659    1.9133   -1.1893 F   0  0  0  0  0  0  0  0  0  0  0  0
  -11.0547    0.3423    0.3113 F   0  0  0  0  0  0  0  0  0  0  0  0
  -11.0398    2.4292    0.9230 F   0  0  0  0  0  0  0  0  0  0  0  0
   -8.2760    0.7684   -0.8843 C   0  0  0  0  0  0  0  0  0  0  0  0
   -6.8803    0.7101   -0.8518 C   0  0  0  0  0  0  0  0  0  0  0  0
   -4.0555    0.1081    0.2399 N   0  0  0  0  0  0  0  0  0  0  0  0
   -2.5949    0.1288    0.0927 C   0  0  0  0  0  0  0  0  0  0  0  0
   -1.9632   -1.2277   -0.1442 C   0  0  0  0  0  0  0  0  0  0  0  0
   -0.8278   -1.2869   -0.8794 N   0  0  0  0  0  0  0  0  0  0  0  0
   -0.2577   -2.5172   -1.0323 C   0  0  0  0  0  0  0  0  0  0  0  0
    0.9895   -2.5711   -1.8631 C   0  0  0  0  0  0  0  0  0  0  0  0
    1.5778   -3.6266   -2.0670 O   0  0  0  0  0  0  0  0  0  0  0  0
    1.3933   -1.3497   -2.3532 N   0  0  0  0  0  0  0  0  0  0  0  0
    2.6268   -1.1588   -3.0711 C   0  0  0  0  0  0  0  0  0  0  0  0
    3.7046   -0.6239   -2.1671 C   0  0  0  0  0  0  0  0  0  0  0  0
    4.0276    0.7328   -2.1501 C   0  0  0  0  0  0  0  0  0  0  0  0
    5.0334    1.2160   -1.2985 C   0  0  0  0  0  0  0  0  0  0  0  0
    5.7420    0.3811   -0.4174 C   0  0  0  0  0  0  0  0  0  0  0  0
    6.7575    0.8780    0.4008 N   0  0  0  0  0  0  0  0  0  0  0  0
    7.5729   -0.0594    1.2048 C   0  0  0  0  0  0  0  0  0  0  0  0
    8.6152    0.6826    2.0833 C   0  0  0  0  0  0  0  0  0  0  0  0
    9.1347    1.9103    1.4535 N   0  0  0  0  0  0  0  0  0  0  0  0
    8.0108    2.8522    1.2448 C   0  0  0  0  0  0  0  0  0  0  0  0
    6.6146    2.2119    1.0159 C   0  0  0  0  0  0  0  0  0  0  0  0
    5.4058   -0.9821   -0.4651 C   0  0  0  0  0  0  0  0  0  0  0  0
    4.4028   -1.4774   -1.3115 C   0  0  0  0  0  0  0  0  0  0  0  0
   -0.7625   -3.6825   -0.4704 C   0  0  0  0  0  0  0  0  0  0  0  0
   -1.9241   -3.5964    0.2887 C   0  0  0  0  0  0  0  0  0  0  0  0
   -2.5425   -2.3564    0.4464 C   0  0  0  0  0  0  0  0  0  0  0  0
   -3.8016   -2.1775    1.2418 C   0  0  0  0  0  0  0  0  0  0  0  0
   -4.7166   -1.1701    0.5386 C   0  0  0  0  0  0  0  0  0  0  0  0
   -6.3222    2.6675    1.8840 H   0  0  0  0  0  0  0  0  0  0  0  0
   -8.7919    2.7715    1.8333 H   0  0  0  0  0  0  0  0  0  0  0  0
   -8.8132    0.2472   -1.6753 H   0  0  0  0  0  0  0  0  0  0  0  0
   -6.3438    0.1648   -1.6254 H   0  0  0  0  0  0  0  0  0  0  0  0
   -2.1781    0.5501    1.0151 H   0  0  0  0  0  0  0  0  0  0  0  0
   -2.3365    0.8059   -0.7292 H   0  0  0  0  0  0  0  0  0  0  0  0
    0.8717   -0.5415   -2.0280 H   0  0  0  0  0  0  0  0  0  0  0  0
    2.4230   -0.4539   -3.8845 H   0  0  0  0  0  0  0  0  0  0  0  0
    2.9527   -2.0984   -3.5309 H   0  0  0  0  0  0  0  0  0  0  0  0
    3.5149    1.4304   -2.8082 H   0  0  0  0  0  0  0  0  0  0  0  0
    5.2741    2.2719   -1.3756 H   0  0  0  0  0  0  0  0  0  0  0  0
    8.1103   -0.7311    0.5238 H   0  0  0  0  0  0  0  0  0  0  0  0
    6.9387   -0.6599    1.8683 H   0  0  0  0  0  0  0  0  0  0  0  0
    9.4502    0.0056    2.2994 H   0  0  0  0  0  0  0  0  0  0  0  0
    8.1705    0.9362    3.0557 H   0  0  0  0  0  0  0  0  0  0  0  0
    9.4459    1.6374    0.5164 H   0  0  0  0  0  0  0  0  0  0  0  0
    7.9529    3.5319    2.1014 H   0  0  0  0  0  0  0  0  0  0  0  0
    8.2618    3.4746    0.3776 H   0  0  0  0  0  0  0  0  0  0  0  0
    6.0170    2.9140    0.4284 H   0  0  0  0  0  0  0  0  0  0  0  0
    6.1010    2.0954    1.9792 H   0  0  0  0  0  0  0  0  0  0  0  0
    5.9106   -1.7080    0.1643 H   0  0  0  0  0  0  0  0  0  0  0  0
    4.1736   -2.5423   -1.2973 H   0  0  0  0  0  0  0  0  0  0  0  0
   -0.2611   -4.6335   -0.6212 H   0  0  0  0  0  0  0  0  0  0  0  0
   -2.3402   -4.4918    0.7432 H   0  0  0  0  0  0  0  0  0  0  0  0
   -4.3320   -3.1308    1.3536 H   0  0  0  0  0  0  0  0  0  0  0  0
   -3.5376   -1.8174    2.2440 H   0  0  0  0  0  0  0  0  0  0  0  0
   -5.0488   -1.5847   -0.4204 H   0  0  0  0  0  0  0  0  0  0  0  0
   -5.6024   -0.9962    1.1571 H   0  0  0  0  0  0  0  0  0  0  0  0
  1  2  2  0
  2  3  1  0
  3  4  2  0
  4  5  1  0
  5  6  2  0
  6  7  1  0
  7  8  1  0
  7  9  1  0
  7 10  1  0
  6 11  1  0
 11 12  2  0
  2 13  1  0
 13 14  1  0
 14 15  1  0
 15 16  2  0
 16 17  1  0
 17 18  1  0
 18 19  2  0
 18 20  1  0
 20 21  1  0
 21 22  1  0
 22 23  2  0
 23 24  1  0
 24 25  2  0
 25 26  1  0
 26 27  1  0
 27 28  1  0
 28 29  1  0
 29 30  1  0
 30 31  1  0
 25 32  1  0
 32 33  2  0
 17 34  2  0
 34 35  1  0
 35 36  2  0
 36 37  1  0
 37 38  1  0
 38 13  1  0
 36 15  1  0
 12  3  1  0
 33 22  1  0
 31 26  1  0
  4 39  1  0
  5 40  1  0
 11 41  1  0
 12 42  1  0
 14 43  1  0
 14 44  1  0
 20 45  1  0
 21 46  1  0
 21 47  1  0
 23 48  1  0
 24 49  1  0
 27 50  1  0
 27 51  1  0
 28 52  1  0
 28 53  1  0
 29 54  1  0
 30 55  1  0
 30 56  1  0
 31 57  1  0
 31 58  1  0
 32 59  1  0
 33 60  1  0
 34 61  1  0
 35 62  1  0
 37 63  1  0
 37 64  1  0
 38 65  1  0
 38 66  1  0
M  END
>  <type>  (13) 
designed

$$$$
J01
     RDKit          3D

 65 70  0  0  0  0  0  0  0  0999 V2000
    4.3175    1.7673    1.4743 O   0  0  0  0  0  0  0  0  0  0  0  0
    4.9149    1.1572    0.5862 C   0  0  0  0  0  0  0  0  0  0  0  0
    6.3664    1.1011    0.5474 C   0  0  0  0  0  0  0  0  0  0  0  0
    7.2618    0.0946    0.2172 C   0  0  0  0  0  0  0  0  0  0  0  0
    8.5563    0.6229    0.4000 C   0  0  0  0  0  0  0  0  0  0  0  0
    9.7717    0.0550    0.2036 N   0  0  0  0  0  0  0  0  0  0  0  0
   10.8127    0.8712    0.4976 C   0  0  0  0  0  0  0  0  0  0  0  0
   10.7152    2.1827    0.9602 C   0  0  0  0  0  0  0  0  0  0  0  0
    9.4565    2.7539    1.1549 C   0  0  0  0  0  0  0  0  0  0  0  0
    8.3863    1.9212    0.8567 C   0  0  0  0  0  0  0  0  0  0  0  0
    7.0629    2.2152    0.9574 O   0  0  0  0  0  0  0  0  0  0  0  0
    4.1907    0.4837   -0.4078 N   0  0  0  0  0  0  0  0  0  0  0  0
    2.7507    0.3305   -0.1751 C   0  0  0  0  0  0  0  0  0  0  0  0
    2.0503   -0.6227   -1.1231 C   0  0  0  0  0  0  0  0  0  0  0  0
    0.9648   -1.2919   -0.6680 N   0  0  0  0  0  0  0  0  0  0  0  0
    0.3305   -2.1131   -1.5548 C   0  0  0  0  0  0  0  0  0  0  0  0
   -0.8425   -2.8813   -1.0219 C   0  0  0  0  0  0  0  0  0  0  0  0
   -1.4751   -3.6591   -1.7271 O   0  0  0  0  0  0  0  0  0  0  0  0
   -1.1206   -2.6302    0.3024 N   0  0  0  0  0  0  0  0  0  0  0  0
   -2.2726   -3.1690    0.9781 C   0  0  0  0  0  0  0  0  0  0  0  0
   -3.4318   -2.2088    0.9338 C   0  0  0  0  0  0  0  0  0  0  0  0
   -4.3547   -2.2571   -0.1125 C   0  0  0  0  0  0  0  0  0  0  0  0
   -5.4322   -1.3628   -0.1533 C   0  0  0  0  0  0  0  0  0  0  0  0
   -5.6302   -0.3856    0.8367 C   0  0  0  0  0  0  0  0  0  0  0  0
   -6.7061    0.4902    0.7785 N   0  0  0  0  0  0  0  0  0  0  0  0
   -7.9795    0.0457    0.1823 C   0  0  0  0  0  0  0  0  0  0  0  0
   -9.1964    0.6870    0.8924 C   0  0  0  0  0  0  0  0  0  0  0  0
   -9.1937    2.1602    0.9564 N   0  0  0  0  0  0  0  0  0  0  0  0
   -7.8179    2.6872    1.0565 C   0  0  0  0  0  0  0  0  0  0  0  0
   -6.7668    1.6980    1.6177 C   0  0  0  0  0  0  0  0  0  0  0  0
   -4.6723   -0.3345    1.8604 C   0  0  0  0  0  0  0  0  0  0  0  0
   -3.5919   -1.2267    1.9140 C   0  0  0  0  0  0  0  0  0  0  0  0
    0.7198   -2.2746   -2.8776 C   0  0  0  0  0  0  0  0  0  0  0  0
    1.8327   -1.5711   -3.3260 C   0  0  0  0  0  0  0  0  0  0  0  0
    2.5193   -0.7445   -2.4356 C   0  0  0  0  0  0  0  0  0  0  0  0
    3.7403    0.0327   -2.8336 C   0  0  0  0  0  0  0  0  0  0  0  0
    4.7524    0.0250   -1.6835 C   0  0  0  0  0  0  0  0  0  0  0  0
    7.0202   -0.9081   -0.0992 H   0  0  0  0  0  0  0  0  0  0  0  0
   11.7921    0.4203    0.3449 H   0  0  0  0  0  0  0  0  0  0  0  0
   11.6153    2.7524    1.1698 H   0  0  0  0  0  0  0  0  0  0  0  0
    9.3164    3.7651    1.5129 H   0  0  0  0  0  0  0  0  0  0  0  0
    2.6027   -0.0080    0.8583 H   0  0  0  0  0  0  0  0  0  0  0  0
    2.2896    1.3219   -0.2735 H   0  0  0  0  0  0  0  0  0  0  0  0
   -0.5865   -1.8835    0.7366 H   0  0  0  0  0  0  0  0  0  0  0  0
   -2.5573   -4.1329    0.5371 H   0  0  0  0  0  0  0  0  0  0  0  0
   -1.9804   -3.3630    2.0160 H   0  0  0  0  0  0  0  0  0  0  0  0
   -4.2349   -2.9870   -0.9124 H   0  0  0  0  0  0  0  0  0  0  0  0
   -6.1081   -1.4273   -1.0007 H   0  0  0  0  0  0  0  0  0  0  0  0
   -7.9897    0.3143   -0.8811 H   0  0  0  0  0  0  0  0  0  0  0  0
   -8.0948   -1.0435    0.2600 H   0  0  0  0  0  0  0  0  0  0  0  0
   -9.2408    0.3085    1.9234 H   0  0  0  0  0  0  0  0  0  0  0  0
  -10.1216    0.3561    0.4046 H   0  0  0  0  0  0  0  0  0  0  0  0
   -9.6197    2.5385    0.1097 H   0  0  0  0  0  0  0  0  0  0  0  0
   -7.4970    2.9974    0.0520 H   0  0  0  0  0  0  0  0  0  0  0  0
   -7.8397    3.5899    1.6776 H   0  0  0  0  0  0  0  0  0  0  0  0
   -5.7971    2.2132    1.6248 H   0  0  0  0  0  0  0  0  0  0  0  0
   -7.0210    1.4279    2.6516 H   0  0  0  0  0  0  0  0  0  0  0  0
   -4.7589    0.3931    2.6618 H   0  0  0  0  0  0  0  0  0  0  0  0
   -2.8806   -1.1471    2.7325 H   0  0  0  0  0  0  0  0  0  0  0  0
    0.1723   -2.9376   -3.5397 H   0  0  0  0  0  0  0  0  0  0  0  0
    2.1631   -1.6815   -4.3560 H   0  0  0  0  0  0  0  0  0  0  0  0
    3.4410    1.0595   -3.0741 H   0  0  0  0  0  0  0  0  0  0  0  0
    4.2046   -0.4017   -3.7251 H   0  0  0  0  0  0  0  0  0  0  0  0
    5.1123   -0.9977   -1.5181 H   0  0  0  0  0  0  0  0  0  0  0  0
    5.6088    0.6487   -1.9583 H   0  0  0  0  0  0  0  0  0  0  0  0
  1  2  2  0
  2  3  1  0
  3  4  2  0
  4  5  1  0
  5  6  2  0
  6  7  1  0
  7  8  2  0
  8  9  1  0
  9 10  2  0
 10 11  1  0
  2 12  1  0
 12 13  1  0
 13 14  1  0
 14 15  2  0
 15 16  1  0
 16 17  1  0
 17 18  2  0
 17 19  1  0
 19 20  1  0
 20 21  1  0
 21 22  2  0
 22 23  1  0
 23 24  2  0
 24 25  1  0
 25 26  1  0
 26 27  1  0
 27 28  1  0
 28 29  1  0
 29 30  1  0
 24 31  1  0
 31 32  2  0
 16 33  2  0
 33 34  1  0
 34 35  2  0
 35 36  1  0
 36 37  1  0
 37 12  1  0
 35 14  1  0
 11  3  1  0
 10  5  1  0
 32 21  1  0
 30 25  1  0
  4 38  1  0
  7 39  1  0
  8 40  1  0
  9 41  1  0
 13 42  1  0
 13 43  1  0
 19 44  1  0
 20 45  1  0
 20 46  1  0
 22 47  1  0
 23 48  1  0
 26 49  1  0
 26 50  1  0
 27 51  1  0
 27 52  1  0
 28 53  1  0
 29 54  1  0
 29 55  1  0
 30 56  1  0
 30 57  1  0
 31 58  1  0
 32 59  1  0
 33 60  1  0
 34 61  1  0
 36 62  1  0
 36 63  1  0
 37 64  1  0
 37 65  1  0
M  END
>  <type>  (14) 
designed

$$$$
J02
     RDKit          3D

 59 64  0  0  0  0  0  0  0  0999 V2000
    4.0977    0.6469    2.3015 O   0  0  0  0  0  0  0  0  0  0  0  0
    4.5026    0.4196    1.1642 C   0  0  0  0  0  0  0  0  0  0  0  0
    5.9280    0.6670    0.8872 C   0  0  0  0  0  0  0  0  0  0  0  0
    6.3356    1.5427   -0.1368 C   0  0  0  0  0  0  0  0  0  0  0  0
    7.6938    1.7743   -0.3778 C   0  0  0  0  0  0  0  0  0  0  0  0
    8.6817    1.1551    0.3980 C   0  0  0  0  0  0  0  0  0  0  0  0
    8.2354    0.3211    1.4219 C   0  0  0  0  0  0  0  0  0  0  0  0
    9.0178   -0.3647    2.2995 O   0  0  0  0  0  0  0  0  0  0  0  0
    8.2115   -1.0783    3.1775 N   0  0  0  0  0  0  0  0  0  0  0  0
    6.9566   -0.7979    2.8109 C   0  0  0  0  0  0  0  0  0  0  0  0
    6.9038    0.0671    1.6985 C   0  0  0  0  0  0  0  0  0  0  0  0
    3.6819   -0.0631    0.1496 N   0  0  0  0  0  0  0  0  0  0  0  0
    2.2421   -0.0877    0.4359 C   0  0  0  0  0  0  0  0  0  0  0  0
    1.3478   -0.5300   -0.7035 C   0  0  0  0  0  0  0  0  0  0  0  0
    0.0442   -0.1597   -0.6559 N   0  0  0  0  0  0  0  0  0  0  0  0
   -0.7643   -0.6139   -1.6575 C   0  0  0  0  0  0  0  0  0  0  0  0
   -2.1998   -0.1867   -1.5931 C   0  0  0  0  0  0  0  0  0  0  0  0
   -3.0135   -0.5509   -2.4332 O   0  0  0  0  0  0  0  0  0  0  0  0
   -2.4934    0.6302   -0.5236 N   0  0  0  0  0  0  0  0  0  0  0  0
   -3.8353    1.0654   -0.2077 C   0  0  0  0  0  0  0  0  0  0  0  0
   -4.5949    0.1222    0.7076 C   0  0  0  0  0  0  0  0  0  0  0  0
   -3.8692   -0.7001    1.5987 C   0  0  0  0  0  0  0  0  0  0  0  0
   -4.4998   -1.6594    2.3930 C   0  0  0  0  0  0  0  0  0  0  0  0
   -5.8758   -1.8181    2.3245 C   0  0  0  0  0  0  0  0  0  0  0  0
   -6.6254   -1.0008    1.4799 C   0  0  0  0  0  0  0  0  0  0  0  0
   -6.0056   -0.0093    0.6913 C   0  0  0  0  0  0  0  0  0  0  0  0
   -6.8613    0.8384   -0.0783 N   0  0  0  0  0  0  0  0  0  0  0  0
   -6.6881    2.1834   -0.3438 C   0  0  0  0  0  0  0  0  0  0  0  0
   -7.7461    2.6406   -1.0990 C   0  0  0  0  0  0  0  0  0  0  0  0
   -8.6261    1.5560   -1.2832 C   0  0  0  0  0  0  0  0  0  0  0  0
   -8.0772    0.4736   -0.6315 C   0  0  0  0  0  0  0  0  0  0  0  0
   -0.3332   -1.4318   -2.6921 C   0  0  0  0  0  0  0  0  0  0  0  0
    1.0059   -1.8036   -2.7185 C   0  0  0  0  0  0  0  0  0  0  0  0
    1.8651   -1.3391   -1.7206 C   0  0  0  0  0  0  0  0  0  0  0  0
    3.3203   -1.7054   -1.6920 C   0  0  0  0  0  0  0  0  0  0  0  0
    4.1445   -0.5313   -1.1617 C   0  0  0  0  0  0  0  0  0  0  0  0
    5.5908    2.0581   -0.7399 H   0  0  0  0  0  0  0  0  0  0  0  0
    7.9902    2.4543   -1.1752 H   0  0  0  0  0  0  0  0  0  0  0  0
    9.7390    1.3252    0.2283 H   0  0  0  0  0  0  0  0  0  0  0  0
    6.1378   -1.2344    3.3669 H   0  0  0  0  0  0  0  0  0  0  0  0
    2.0850   -0.7692    1.2817 H   0  0  0  0  0  0  0  0  0  0  0  0
    1.9468    0.9186    0.7594 H   0  0  0  0  0  0  0  0  0  0  0  0
   -1.7302    0.8240    0.1175 H   0  0  0  0  0  0  0  0  0  0  0  0
   -3.7368    2.0396    0.2813 H   0  0  0  0  0  0  0  0  0  0  0  0
   -4.3613    1.1821   -1.1597 H   0  0  0  0  0  0  0  0  0  0  0  0
   -2.7859   -0.6224    1.6657 H   0  0  0  0  0  0  0  0  0  0  0  0
   -3.9104   -2.2872    3.0562 H   0  0  0  0  0  0  0  0  0  0  0  0
   -6.3705   -2.5654    2.9392 H   0  0  0  0  0  0  0  0  0  0  0  0
   -7.7063   -1.1202    1.4938 H   0  0  0  0  0  0  0  0  0  0  0  0
   -5.8526    2.7343    0.0598 H   0  0  0  0  0  0  0  0  0  0  0  0
   -7.8761    3.6537   -1.4568 H   0  0  0  0  0  0  0  0  0  0  0  0
   -9.5622    1.5582   -1.8269 H   0  0  0  0  0  0  0  0  0  0  0  0
   -8.4374   -0.5435   -0.5619 H   0  0  0  0  0  0  0  0  0  0  0  0
   -1.0249   -1.7712   -3.4567 H   0  0  0  0  0  0  0  0  0  0  0  0
    1.3697   -2.4473   -3.5157 H   0  0  0  0  0  0  0  0  0  0  0  0
    3.6727   -1.9662   -2.6963 H   0  0  0  0  0  0  0  0  0  0  0  0
    3.4495   -2.5838   -1.0486 H   0  0  0  0  0  0  0  0  0  0  0  0
    5.1949   -0.8317   -1.1088 H   0  0  0  0  0  0  0  0  0  0  0  0
    4.0705    0.3225   -1.8466 H   0  0  0  0  0  0  0  0  0  0  0  0
  1  2  2  0
  2  3  1  0
  3  4  2  0
  4  5  1  0
  5  6  2  0
  6  7  1  0
  7  8  1  0
  8  9  1  0
  9 10  2  0
 10 11  1  0
  2 12  1  0
 12 13  1  0
 13 14  1  0
 14 15  2  0
 15 16  1  0
 16 17  1  0
 17 18  2  0
 17 19  1  0
 19 20  1  0
 20 21  1  0
 21 22  2  0
 22 23  1  0
 23 24  2  0
 24 25  1  0
 25 26  2  0
 26 27  1  0
 27 28  1  0
 28 29  2  0
 29 30  1  0
 30 31  2  0
 16 32  2  0
 32 33  1  0
 33 34  2  0
 34 35  1  0
 35 36  1  0
 36 12  1  0
 34 14  1  0
 11  3  1  0
 11  7  2  0
 26 21  1  0
 31 27  1  0
  4 37  1  0
  5 38  1  0
  6 39  1  0
 10 40  1  0
 13 41  1  0
 13 42  1  0
 19 43  1  0
 20 44  1  0
 20 45  1  0
 22 46  1  0
 23 47  1  0
 24 48  1  0
 25 49  1  0
 28 50  1  0
 29 51  1  0
 30 52  1  0
 31 53  1  0
 32 54  1  0
 33 55  1  0
 35 56  1  0
 35 57  1  0
 36 58  1  0
 36 59  1  0
M  END
>  <type>  (15) 
designed

$$$$
J03
     RDKit          3D

 56 59  0  0  0  0  0  0  0  0999 V2000
   -1.9375   -0.9771    2.1950 O   0  0  0  0  0  0  0  0  0  0  0  0
   -2.3751   -0.2016    1.3492 C   0  0  0  0  0  0  0  0  0  0  0  0
   -3.8154    0.1063    1.3856 C   0  0  0  0  0  0  0  0  0  0  0  0
   -4.6039   -0.0139    0.2497 C   0  0  0  0  0  0  0  0  0  0  0  0
   -5.9333    0.2498    0.2249 N   0  0  0  0  0  0  0  0  0  0  0  0
   -6.4993    0.5982    1.3994 C   0  0  0  0  0  0  0  0  0  0  0  0
   -7.8470    0.8778    1.4495 O   0  0  0  0  0  0  0  0  0  0  0  0
   -8.5579    0.5621    0.2432 C   0  0  0  0  0  0  0  0  0  0  0  0
   -8.9525   -0.9045    0.1382 C   0  0  0  0  0  0  0  0  0  0  0  0
   -9.6945   -1.2860    1.2051 F   0  0  0  0  0  0  0  0  0  0  0  0
   -9.7190   -1.1002   -0.9641 F   0  0  0  0  0  0  0  0  0  0  0  0
   -7.9034   -1.7456    0.0476 F   0  0  0  0  0  0  0  0  0  0  0  0
   -5.7988    0.7168    2.5914 C   0  0  0  0  0  0  0  0  0  0  0  0
   -4.4302    0.4576    2.5856 C   0  0  0  0  0  0  0  0  0  0  0  0
   -1.5820    0.3727    0.3559 N   0  0  0  0  0  0  0  0  0  0  0  0
   -0.1752   -0.0348    0.3452 C   0  0  0  0  0  0  0  0  0  0  0  0
    0.5886    0.3741   -0.8992 C   0  0  0  0  0  0  0  0  0  0  0  0
    1.8446   -0.1235   -1.0312 N   0  0  0  0  0  0  0  0  0  0  0  0
    2.5457    0.2409   -2.1428 C   0  0  0  0  0  0  0  0  0  0  0  0
    3.9293   -0.3238   -2.2665 C   0  0  0  0  0  0  0  0  0  0  0  0
    4.6574   -0.0399   -3.2109 O   0  0  0  0  0  0  0  0  0  0  0  0
    4.2895   -1.1610   -1.2336 N   0  0  0  0  0  0  0  0  0  0  0  0
    5.6184   -1.6945   -1.0869 C   0  0  0  0  0  0  0  0  0  0  0  0
    6.4425   -0.8394   -0.1582 C   0  0  0  0  0  0  0  0  0  0  0  0
    7.1147    0.2899   -0.6482 C   0  0  0  0  0  0  0  0  0  0  0  0
    7.8615    1.1003    0.2075 C   0  0  0  0  0  0  0  0  0  0  0  0
    7.9402    0.7948    1.5662 C   0  0  0  0  0  0  0  0  0  0  0  0
    7.2665   -0.3210    2.0723 C   0  0  0  0  0  0  0  0  0  0  0  0
    7.3406   -0.6317    3.4698 C   0  0  0  0  0  0  0  0  0  0  0  0
    7.3993   -0.8853    4.6010 N   0  0  0  0  0  0  0  0  0  0  0  0
    6.5173   -1.1331    1.2118 C   0  0  0  0  0  0  0  0  0  0  0  0
    2.0536    1.0844   -3.1268 C   0  0  0  0  0  0  0  0  0  0  0  0
    0.7691    1.5917   -2.9696 C   0  0  0  0  0  0  0  0  0  0  0  0
    0.0228    1.2490   -1.8370 C   0  0  0  0  0  0  0  0  0  0  0  0
   -1.3827    1.7614   -1.6670 C   0  0  0  0  0  0  0  0  0  0  0  0
   -1.8428    1.6967   -0.2120 C   0  0  0  0  0  0  0  0  0  0  0  0
   -4.1831   -0.3361   -0.6986 H   0  0  0  0  0  0  0  0  0  0  0  0
   -9.4807    1.1528    0.2814 H   0  0  0  0  0  0  0  0  0  0  0  0
   -8.0315    0.9080   -0.6546 H   0  0  0  0  0  0  0  0  0  0  0  0
   -6.3095    0.9946    3.5069 H   0  0  0  0  0  0  0  0  0  0  0  0
   -3.8528    0.5212    3.5043 H   0  0  0  0  0  0  0  0  0  0  0  0
   -0.1214   -1.1243    0.4553 H   0  0  0  0  0  0  0  0  0  0  0  0
    0.3083    0.4202    1.2183 H   0  0  0  0  0  0  0  0  0  0  0  0
    3.6243   -1.2372   -0.4694 H   0  0  0  0  0  0  0  0  0  0  0  0
    5.5230   -2.7101   -0.6868 H   0  0  0  0  0  0  0  0  0  0  0  0
    6.1082   -1.7753   -2.0644 H   0  0  0  0  0  0  0  0  0  0  0  0
    7.0502    0.5445   -1.7059 H   0  0  0  0  0  0  0  0  0  0  0  0
    8.3785    1.9719   -0.1868 H   0  0  0  0  0  0  0  0  0  0  0  0
    8.5255    1.4337    2.2246 H   0  0  0  0  0  0  0  0  0  0  0  0
    5.9882   -1.9981    1.6092 H   0  0  0  0  0  0  0  0  0  0  0  0
    2.6541    1.3377   -3.9951 H   0  0  0  0  0  0  0  0  0  0  0  0
    0.3555    2.2499   -3.7305 H   0  0  0  0  0  0  0  0  0  0  0  0
   -1.4533    2.7977   -2.0174 H   0  0  0  0  0  0  0  0  0  0  0  0
   -2.0458    1.1473   -2.2891 H   0  0  0  0  0  0  0  0  0  0  0  0
   -1.2914    2.4216    0.4015 H   0  0  0  0  0  0  0  0  0  0  0  0
   -2.8968    1.9742   -0.1428 H   0  0  0  0  0  0  0  0  0  0  0  0
  1  2  2  0
  2  3  1  0
  3  4  2  0
  4  5  1  0
  5  6  2  0
  6  7  1  0
  7  8  1  0
  8  9  1  0
  9 10  1  0
  9 11  1  0
  9 12  1  0
  6 13  1  0
 13 14  2  0
  2 15  1  0
 15 16  1  0
 16 17  1  0
 17 18  2  0
 18 19  1  0
 19 20  1  0
 20 21  2  0
 20 22  1  0
 22 23  1  0
 23 24  1  0
 24 25  2  0
 25 26  1  0
 26 27  2  0
 27 28  1  0
 28 29  1  0
 29 30  3  0
 28 31  2  0
 19 32  2  0
 32 33  1  0
 33 34  2  0
 34 35  1  0
 35 36  1  0
 36 15  1  0
 34 17  1  0
 14  3  1  0
 31 24  1  0
  4 37  1  0
  8 38  1  0
  8 39  1  0
 13 40  1  0
 14 41  1  0
 16 42  1  0
 16 43  1  0
 22 44  1  0
 23 45  1  0
 23 46  1  0
 25 47  1  0
 26 48  1  0
 27 49  1  0
 31 50  1  0
 32 51  1  0
 33 52  1  0
 35 53  1  0
 35 54  1  0
 36 55  1  0
 36 56  1  0
M  END
>  <type>  (16) 
designed

$$$$
J04
     RDKit          3D

 63 66  0  0  0  0  0  0  0  0999 V2000
    2.9984   -1.6325    1.6721 O   0  0  0  0  0  0  0  0  0  0  0  0
    3.4174   -1.0987    0.6476 C   0  0  0  0  0  0  0  0  0  0  0  0
    4.8096   -0.6254    0.6545 C   0  0  0  0  0  0  0  0  0  0  0  0
    5.1070    0.7152    0.4535 C   0  0  0  0  0  0  0  0  0  0  0  0
    6.3688    1.2101    0.4585 N   0  0  0  0  0  0  0  0  0  0  0  0
    7.3589    0.3296    0.7185 C   0  0  0  0  0  0  0  0  0  0  0  0
    8.6653    0.7635    0.7424 O   0  0  0  0  0  0  0  0  0  0  0  0
    8.8082    2.1919    0.7543 C   0  0  0  0  0  0  0  0  0  0  0  0
    8.6621    2.7992    2.1425 C   0  0  0  0  0  0  0  0  0  0  0  0
    7.4421    2.6228    2.6860 F   0  0  0  0  0  0  0  0  0  0  0  0
    8.8904    4.1338    2.0926 F   0  0  0  0  0  0  0  0  0  0  0  0
    9.5706    2.2762    2.9998 F   0  0  0  0  0  0  0  0  0  0  0  0
    7.1533   -1.0239    0.9497 C   0  0  0  0  0  0  0  0  0  0  0  0
    5.8499   -1.5103    0.9263 C   0  0  0  0  0  0  0  0  0  0  0  0
    2.6449   -0.9240   -0.5013 N   0  0  0  0  0  0  0  0  0  0  0  0
    1.2902   -1.4764   -0.4342 C   0  0  0  0  0  0  0  0  0  0  0  0
    0.3955   -1.1446   -1.6103 C   0  0  0  0  0  0  0  0  0  0  0  0
   -0.8900   -1.5716   -1.5292 N   0  0  0  0  0  0  0  0  0  0  0  0
   -1.7072   -1.3038   -2.5878 C   0  0  0  0  0  0  0  0  0  0  0  0
   -3.1223   -1.7871   -2.4665 C   0  0  0  0  0  0  0  0  0  0  0  0
   -3.9391   -1.6168   -3.3653 O   0  0  0  0  0  0  0  0  0  0  0  0
   -3.3969   -2.4125   -1.2690 N   0  0  0  0  0  0  0  0  0  0  0  0
   -4.7331   -2.7665   -0.8636 C   0  0  0  0  0  0  0  0  0  0  0  0
   -5.3555   -1.6669   -0.0432 C   0  0  0  0  0  0  0  0  0  0  0  0
   -6.0466   -0.6240   -0.6632 C   0  0  0  0  0  0  0  0  0  0  0  0
   -6.6186    0.4072    0.0952 C   0  0  0  0  0  0  0  0  0  0  0  0
   -6.5037    0.4651    1.4949 C   0  0  0  0  0  0  0  0  0  0  0  0
   -7.0861    1.4891    2.2552 N   0  0  0  0  0  0  0  0  0  0  0  0
   -6.5258    1.7700    3.5749 C   0  0  0  0  0  0  0  0  0  0  0  0
   -7.6797    2.6324    1.5676 C   0  0  0  0  0  0  0  0  0  0  0  0
   -5.8005   -0.5963    2.0939 C   0  0  0  0  0  0  0  0  0  0  0  0
   -5.2298   -1.6404    1.3464 C   0  0  0  0  0  0  0  0  0  0  0  0
   -1.2986   -0.6256   -3.7254 C   0  0  0  0  0  0  0  0  0  0  0  0
    0.0235   -0.1973   -3.7916 C   0  0  0  0  0  0  0  0  0  0  0  0
    0.8936   -0.4674   -2.7299 C   0  0  0  0  0  0  0  0  0  0  0  0
    2.3187    0.0133   -2.7625 C   0  0  0  0  0  0  0  0  0  0  0  0
    3.2167   -0.8162   -1.8460 C   0  0  0  0  0  0  0  0  0  0  0  0
    4.3239    1.4489    0.2806 H   0  0  0  0  0  0  0  0  0  0  0  0
    9.8294    2.3901    0.4082 H   0  0  0  0  0  0  0  0  0  0  0  0
    8.1552    2.6845    0.0234 H   0  0  0  0  0  0  0  0  0  0  0  0
    7.9897   -1.6814    1.1582 H   0  0  0  0  0  0  0  0  0  0  0  0
    5.6453   -2.5590    1.1259 H   0  0  0  0  0  0  0  0  0  0  0  0
    0.8147   -1.1212    0.4866 H   0  0  0  0  0  0  0  0  0  0  0  0
    1.3832   -2.5673   -0.3700 H   0  0  0  0  0  0  0  0  0  0  0  0
   -2.6600   -2.3671   -0.5706 H   0  0  0  0  0  0  0  0  0  0  0  0
   -4.6647   -3.6915   -0.2743 H   0  0  0  0  0  0  0  0  0  0  0  0
   -5.3523   -2.9860   -1.7440 H   0  0  0  0  0  0  0  0  0  0  0  0
   -6.1457   -0.6059   -1.7473 H   0  0  0  0  0  0  0  0  0  0  0  0
   -7.1544    1.1729   -0.4551 H   0  0  0  0  0  0  0  0  0  0  0  0
   -7.0033    2.6434    4.0320 H   0  0  0  0  0  0  0  0  0  0  0  0
   -6.7009    0.9367    4.2639 H   0  0  0  0  0  0  0  0  0  0  0  0
   -5.4514    1.9791    3.5120 H   0  0  0  0  0  0  0  0  0  0  0  0
   -8.1382    3.3234    2.2827 H   0  0  0  0  0  0  0  0  0  0  0  0
   -8.4845    2.3180    0.8960 H   0  0  0  0  0  0  0  0  0  0  0  0
   -6.9242    3.1897    1.0026 H   0  0  0  0  0  0  0  0  0  0  0  0
   -5.6837   -0.6465    3.1728 H   0  0  0  0  0  0  0  0  0  0  0  0
   -4.6932   -2.4320    1.8688 H   0  0  0  0  0  0  0  0  0  0  0  0
   -1.9930   -0.4313   -4.5367 H   0  0  0  0  0  0  0  0  0  0  0  0
    0.3686    0.3428   -4.6704 H   0  0  0  0  0  0  0  0  0  0  0  0
    2.3336    1.0615   -2.4407 H   0  0  0  0  0  0  0  0  0  0  0  0
    2.7119   -0.0314   -3.7842 H   0  0  0  0  0  0  0  0  0  0  0  0
    4.2178   -0.3796   -1.8286 H   0  0  0  0  0  0  0  0  0  0  0  0
    3.3247   -1.8397   -2.2290 H   0  0  0  0  0  0  0  0  0  0  0  0
  1  2  2  0
  2  3  1  0
  3  4  2  0
  4  5  1  0
  5  6  2  0
  6  7  1  0
  7  8  1  0
  8  9  1  0
  9 10  1  0
  9 11  1  0
  9 12  1  0
  6 13  1  0
 13 14  2  0
  2 15  1  0
 15 16  1  0
 16 17  1  0
 17 18  2  0
 18 19  1  0
 19 20  1  0
 20 21  2  0
 20 22  1  0
 22 23  1  0
 23 24  1  0
 24 25  2  0
 25 26  1  0
 26 27  2  0
 27 28  1  0
 28 29  1  0
 28 30  1  0
 27 31  1  0
 31 32  2  0
 19 33  2  0
 33 34  1  0
 34 35  2  0
 35 36  1  0
 36 37  1  0
 37 15  1  0
 35 17  1  0
 14  3  1  0
 32 24  1  0
  4 38  1  0
  8 39  1  0
  8 40  1  0
 13 41  1  0
 14 42  1  0
 16 43  1  0
 16 44  1  0
 22 45  1  0
 23 46  1  0
 23 47  1  0
 25 48  1  0
 26 49  1  0
 29 50  1  0
 29 51  1  0
 29 52  1  0
 30 53  1  0
 30 54  1  0
 30 55  1  0
 31 56  1  0
 32 57  1  0
 33 58  1  0
 34 59  1  0
 36 60  1  0
 36 61  1  0
 37 62  1  0
 37 63  1  0
M  END
>  <type>  (17) 
designed

$$$$
J05
     RDKit          3D

 60 64  0  0  0  0  0  0  0  0999 V2000
    3.5346   -0.1974    2.4643 O   0  0  0  0  0  0  0  0  0  0  0  0
    4.0810   -0.3175    1.3724 C   0  0  0  0  0  0  0  0  0  0  0  0
    5.5422   -0.1098    1.3289 C   0  0  0  0  0  0  0  0  0  0  0  0
    6.0612    1.1105    1.7645 C   0  0  0  0  0  0  0  0  0  0  0  0
    7.4385    1.3045    1.7501 C   0  0  0  0  0  0  0  0  0  0  0  0
    8.0929    2.8121    2.2573 Cl  0  0  0  0  0  0  0  0  0  0  0  0
    8.2970    0.2883    1.3238 C   0  0  0  0  0  0  0  0  0  0  0  0
    7.7832   -0.9544    0.9168 C   0  0  0  0  0  0  0  0  0  0  0  0
    8.7036   -2.0539    0.4475 C   0  0  0  0  0  0  0  0  0  0  0  0
    9.9680   -1.9438    0.9367 F   0  0  0  0  0  0  0  0  0  0  0  0
    8.8222   -2.0710   -0.9081 F   0  0  0  0  0  0  0  0  0  0  0  0
    8.2689   -3.2937    0.8019 F   0  0  0  0  0  0  0  0  0  0  0  0
    6.3925   -1.1459    0.9221 C   0  0  0  0  0  0  0  0  0  0  0  0
    3.4147   -0.6483    0.1968 N   0  0  0  0  0  0  0  0  0  0  0  0
    1.9632   -0.8278    0.2591 C   0  0  0  0  0  0  0  0  0  0  0  0
    1.2009    0.2573   -0.4832 C   0  0  0  0  0  0  0  0  0  0  0  0
   -0.1327    0.3387   -0.2461 N   0  0  0  0  0  0  0  0  0  0  0  0
   -0.8272    1.2937   -0.9297 C   0  0  0  0  0  0  0  0  0  0  0  0
   -2.2957    1.3767   -0.6385 C   0  0  0  0  0  0  0  0  0  0  0  0
   -3.0237    2.1607   -1.2345 O   0  0  0  0  0  0  0  0  0  0  0  0
   -2.7208    0.5024    0.3372 N   0  0  0  0  0  0  0  0  0  0  0  0
   -4.1090    0.3385    0.7055 C   0  0  0  0  0  0  0  0  0  0  0  0
   -4.8441   -0.7195   -0.0972 C   0  0  0  0  0  0  0  0  0  0  0  0
   -4.1075   -1.7801   -0.6712 C   0  0  0  0  0  0  0  0  0  0  0  0
   -4.7072   -2.7272   -1.5023 C   0  0  0  0  0  0  0  0  0  0  0  0
   -6.0638   -2.6440   -1.7785 C   0  0  0  0  0  0  0  0  0  0  0  0
   -6.8264   -1.6295   -1.2020 C   0  0  0  0  0  0  0  0  0  0  0  0
   -6.2392   -0.6819   -0.3384 C   0  0  0  0  0  0  0  0  0  0  0  0
   -7.1122    0.2694    0.2735 N   0  0  0  0  0  0  0  0  0  0  0  0
   -7.0226    0.7858    1.5520 C   0  0  0  0  0  0  0  0  0  0  0  0
   -8.0688    1.6567    1.7676 C   0  0  0  0  0  0  0  0  0  0  0  0
   -8.8582    1.6557    0.6013 C   0  0  0  0  0  0  0  0  0  0  0  0
   -8.2689    0.7836   -0.2873 C   0  0  0  0  0  0  0  0  0  0  0  0
   -0.2558    2.1575   -1.8518 C   0  0  0  0  0  0  0  0  0  0  0  0
    1.1090    2.0485   -2.0923 C   0  0  0  0  0  0  0  0  0  0  0  0
    1.8566    1.0807   -1.4134 C   0  0  0  0  0  0  0  0  0  0  0  0
    3.3466    0.9797   -1.6332 C   0  0  0  0  0  0  0  0  0  0  0  0
    3.9131   -0.3581   -1.1480 C   0  0  0  0  0  0  0  0  0  0  0  0
    5.3929    1.8943    2.1136 H   0  0  0  0  0  0  0  0  0  0  0  0
    9.3732    0.4598    1.3189 H   0  0  0  0  0  0  0  0  0  0  0  0
    5.9704   -2.1045    0.6209 H   0  0  0  0  0  0  0  0  0  0  0  0
    1.6109   -0.8815    1.2940 H   0  0  0  0  0  0  0  0  0  0  0  0
    1.7396   -1.7882   -0.2202 H   0  0  0  0  0  0  0  0  0  0  0  0
   -2.0130   -0.1091    0.7318 H   0  0  0  0  0  0  0  0  0  0  0  0
   -4.5877    1.3150    0.5839 H   0  0  0  0  0  0  0  0  0  0  0  0
   -4.1140    0.0545    1.7624 H   0  0  0  0  0  0  0  0  0  0  0  0
   -3.0369   -1.8663   -0.4978 H   0  0  0  0  0  0  0  0  0  0  0  0
   -4.1088   -3.5208   -1.9416 H   0  0  0  0  0  0  0  0  0  0  0  0
   -6.5348   -3.3764   -2.4286 H   0  0  0  0  0  0  0  0  0  0  0  0
   -7.8956   -1.6280   -1.4011 H   0  0  0  0  0  0  0  0  0  0  0  0
   -6.2520    0.4662    2.2365 H   0  0  0  0  0  0  0  0  0  0  0  0
   -8.2512    2.2113    2.6790 H   0  0  0  0  0  0  0  0  0  0  0  0
   -9.7620    2.2240    0.4235 H   0  0  0  0  0  0  0  0  0  0  0  0
   -8.5584    0.5286   -1.2972 H   0  0  0  0  0  0  0  0  0  0  0  0
   -0.8584    2.8995   -2.3662 H   0  0  0  0  0  0  0  0  0  0  0  0
    1.5830    2.7203   -2.8041 H   0  0  0  0  0  0  0  0  0  0  0  0
    3.5817    1.1027   -2.6966 H   0  0  0  0  0  0  0  0  0  0  0  0
    3.8241    1.8004   -1.0833 H   0  0  0  0  0  0  0  0  0  0  0  0
    3.5879   -1.1758   -1.8028 H   0  0  0  0  0  0  0  0  0  0  0  0
    5.0032   -0.3233   -1.1859 H   0  0  0  0  0  0  0  0  0  0  0  0
  1  2  2  0
  2  3  1  0
  3  4  2  0
  4  5  1  0
  5  6  1  0
  5  7  2  0
  7  8  1  0
  8  9  1  0
  9 10  1  0
  9 11  1  0
  9 12  1  0
  8 13  2  0
  2 14  1  0
 14 15  1  0
 15 16  1  0
 16 17  2  0
 17 18  1  0
 18 19  1  0
 19 20  2  0
 19 21  1  0
 21 22  1  0
 22 23  1  0
 23 24  2  0
 24 25  1  0
 25 26  2  0
 26 27  1  0
 27 28  2  0
 28 29  1  0
 29 30  1  0
 30 31  2  0
 31 32  1  0
 32 33  2  0
 18 34  2  0
 34 35  1  0
 35 36  2  0
 36 37  1  0
 37 38  1  0
 38 14  1  0
 36 16  1  0
 13  3  1  0
 28 23  1  0
 33 29  1  0
  4 39  1  0
  7 40  1  0
 13 41  1  0
 15 42  1  0
 15 43  1  0
 21 44  1  0
 22 45  1  0
 22 46  1  0
 24 47  1  0
 25 48  1  0
 26 49  1  0
 27 50  1  0
 30 51  1  0
 31 52  1  0
 32 53  1  0
 33 54  1  0
 34 55  1  0
 35 56  1  0
 37 57  1  0
 37 58  1  0
 38 59  1  0
 38 60  1  0
M  END
>  <type>  (18) 
designed

$$$$
J06
     RDKit          3D

 70 74  0  0  0  0  0  0  0  0999 V2000
    4.1444   -1.0087   -2.3136 O   0  0  0  0  0  0  0  0  0  0  0  0
    4.6227   -0.3726   -1.3792 C   0  0  0  0  0  0  0  0  0  0  0  0
    6.0640   -0.0611   -1.4235 C   0  0  0  0  0  0  0  0  0  0  0  0
    6.8811   -0.3107   -0.3286 C   0  0  0  0  0  0  0  0  0  0  0  0
    8.2154   -0.0709   -0.3127 N   0  0  0  0  0  0  0  0  0  0  0  0
    8.7547    0.4051   -1.4570 C   0  0  0  0  0  0  0  0  0  0  0  0
   10.1071    0.6618   -1.5184 O   0  0  0  0  0  0  0  0  0  0  0  0
   10.8008    0.2979   -0.3159 C   0  0  0  0  0  0  0  0  0  0  0  0
   12.2861    0.5704   -0.4620 C   0  0  0  0  0  0  0  0  0  0  0  0
   12.9449    0.2289    0.6713 F   0  0  0  0  0  0  0  0  0  0  0  0
   12.5353    1.8789   -0.6928 F   0  0  0  0  0  0  0  0  0  0  0  0
   12.8310   -0.1420   -1.4737 F   0  0  0  0  0  0  0  0  0  0  0  0
    8.0243    0.6597   -2.6093 C   0  0  0  0  0  0  0  0  0  0  0  0
    6.6524    0.4134   -2.5942 C   0  0  0  0  0  0  0  0  0  0  0  0
    3.8837    0.0262   -0.2667 N   0  0  0  0  0  0  0  0  0  0  0  0
    2.5016   -0.4511   -0.2037 C   0  0  0  0  0  0  0  0  0  0  0  0
    1.8502   -0.2755    1.1548 C   0  0  0  0  0  0  0  0  0  0  0  0
    0.6653   -0.9094    1.3486 N   0  0  0  0  0  0  0  0  0  0  0  0
    0.0681   -0.7522    2.5648 C   0  0  0  0  0  0  0  0  0  0  0  0
   -1.2224   -1.4874    2.7673 C   0  0  0  0  0  0  0  0  0  0  0  0
   -1.8352   -1.4380    3.8274 O   0  0  0  0  0  0  0  0  0  0  0  0
   -1.6430   -2.2072    1.6701 N   0  0  0  0  0  0  0  0  0  0  0  0
   -2.8758   -2.9511    1.6508 C   0  0  0  0  0  0  0  0  0  0  0  0
   -4.0103   -2.1395    1.1262 C   0  0  0  0  0  0  0  0  0  0  0  0
   -4.4356   -2.1993   -0.1790 C   0  0  0  0  0  0  0  0  0  0  0  0
   -5.4647   -1.4799   -0.6698 N   0  0  0  0  0  0  0  0  0  0  0  0
   -6.1079   -0.6517    0.1714 C   0  0  0  0  0  0  0  0  0  0  0  0
   -7.1736    0.0691   -0.2993 N   0  0  0  0  0  0  0  0  0  0  0  0
   -7.4904    0.0800   -1.7229 C   0  0  0  0  0  0  0  0  0  0  0  0
   -8.2114    1.3917   -2.1145 C   0  0  0  0  0  0  0  0  0  0  0  0
   -9.4116    1.7369   -1.3211 N   0  0  0  0  0  0  0  0  0  0  0  0
  -10.6418    1.3418   -2.0019 C   0  0  0  0  0  0  0  0  0  0  0  0
   -9.3575    1.1431    0.0354 C   0  0  0  0  0  0  0  0  0  0  0  0
   -7.9287    0.9444    0.5909 C   0  0  0  0  0  0  0  0  0  0  0  0
   -5.7522   -0.5179    1.4596 N   0  0  0  0  0  0  0  0  0  0  0  0
   -4.7143   -1.2539    1.9075 C   0  0  0  0  0  0  0  0  0  0  0  0
    0.5906    0.0181    3.5920 C   0  0  0  0  0  0  0  0  0  0  0  0
    1.7997    0.6668    3.3713 C   0  0  0  0  0  0  0  0  0  0  0  0
    2.4433    0.5316    2.1365 C   0  0  0  0  0  0  0  0  0  0  0  0
    3.7819    1.1824    1.9044 C   0  0  0  0  0  0  0  0  0  0  0  0
    4.1207    1.2972    0.4201 C   0  0  0  0  0  0  0  0  0  0  0  0
    6.4808   -0.7291    0.5911 H   0  0  0  0  0  0  0  0  0  0  0  0
   10.4216    0.8873    0.5279 H   0  0  0  0  0  0  0  0  0  0  0  0
   10.6635   -0.7710   -0.1114 H   0  0  0  0  0  0  0  0  0  0  0  0
    8.5150    1.0311   -3.5030 H   0  0  0  0  0  0  0  0  0  0  0  0
    6.0529    0.5814   -3.4854 H   0  0  0  0  0  0  0  0  0  0  0  0
    1.9209    0.1054   -0.9492 H   0  0  0  0  0  0  0  0  0  0  0  0
    2.4799   -1.5125   -0.4777 H   0  0  0  0  0  0  0  0  0  0  0  0
   -1.0772   -2.1171    0.8301 H   0  0  0  0  0  0  0  0  0  0  0  0
   -2.7116   -3.8340    1.0230 H   0  0  0  0  0  0  0  0  0  0  0  0
   -3.1074   -3.3151    2.6587 H   0  0  0  0  0  0  0  0  0  0  0  0
   -3.9560   -2.8506   -0.9041 H   0  0  0  0  0  0  0  0  0  0  0  0
   -8.1277   -0.7802   -1.9608 H   0  0  0  0  0  0  0  0  0  0  0  0
   -6.5852    0.0067   -2.3383 H   0  0  0  0  0  0  0  0  0  0  0  0
   -7.4994    2.2165   -1.9753 H   0  0  0  0  0  0  0  0  0  0  0  0
   -8.4357    1.3814   -3.1887 H   0  0  0  0  0  0  0  0  0  0  0  0
  -10.7356    1.8667   -2.9586 H   0  0  0  0  0  0  0  0  0  0  0  0
  -10.6814    0.2641   -2.1948 H   0  0  0  0  0  0  0  0  0  0  0  0
  -11.5189    1.6191   -1.4059 H   0  0  0  0  0  0  0  0  0  0  0  0
   -9.8454    0.1585    0.0346 H   0  0  0  0  0  0  0  0  0  0  0  0
   -9.9268    1.7814    0.7203 H   0  0  0  0  0  0  0  0  0  0  0  0
   -8.0228    0.5142    1.5956 H   0  0  0  0  0  0  0  0  0  0  0  0
   -7.4196    1.9117    0.6847 H   0  0  0  0  0  0  0  0  0  0  0  0
   -4.4637   -1.1011    2.9546 H   0  0  0  0  0  0  0  0  0  0  0  0
    0.0733    0.1054    4.5423 H   0  0  0  0  0  0  0  0  0  0  0  0
    2.2380    1.2690    4.1641 H   0  0  0  0  0  0  0  0  0  0  0  0
    4.5438    0.5726    2.4051 H   0  0  0  0  0  0  0  0  0  0  0  0
    3.8014    2.1820    2.3540 H   0  0  0  0  0  0  0  0  0  0  0  0
    5.1490    1.6450    0.2961 H   0  0  0  0  0  0  0  0  0  0  0  0
    3.4812    2.0463   -0.0656 H   0  0  0  0  0  0  0  0  0  0  0  0
  1  2  2  0
  2  3  1  0
  3  4  2  0
  4  5  1  0
  5  6  2  0
  6  7  1  0
  7  8  1  0
  8  9  1  0
  9 10  1  0
  9 11  1  0
  9 12  1  0
  6 13  1  0
 13 14  2  0
  2 15  1  0
 15 16  1  0
 16 17  1  0
 17 18  2  0
 18 19  1  0
 19 20  1  0
 20 21  2  0
 20 22  1  0
 22 23  1  0
 23 24  1  0
 24 25  2  0
 25 26  1  0
 26 27  2  0
 27 28  1  0
 28 29  1  0
 29 30  1  0
 30 31  1  0
 31 32  1  0
 31 33  1  0
 33 34  1  0
 27 35  1  0
 35 36  2  0
 19 37  2  0
 37 38  1  0
 38 39  2  0
 39 40  1  0
 40 41  1  0
 41 15  1  0
 39 17  1  0
 14  3  1  0
 36 24  1  0
 34 28  1  0
  4 42  1  0
  8 43  1  0
  8 44  1  0
 13 45  1  0
 14 46  1  0
 16 47  1  0
 16 48  1  0
 22 49  1  0
 23 50  1  0
 23 51  1  0
 25 52  1  0
 29 53  1  0
 29 54  1  0
 30 55  1  0
 30 56  1  0
 32 57  1  0
 32 58  1  0
 32 59  1  0
 33 60  1  0
 33 61  1  0
 34 62  1  0
 34 63  1  0
 36 64  1  0
 37 65  1  0
 38 66  1  0
 40 67  1  0
 40 68  1  0
 41 69  1  0
 41 70  1  0
M  END
>  <type>  (19) 
designed

$$$$
