A01
     RDKit          3D

 63 67  0  0  0  0  0  0  0  0999 V2000
    2.3138   -2.2540   -0.7521 O   0  0  0  0  0  0  0  0  0  0  0  0
    2.9131   -1.1832   -0.8142 C   0  0  0  0  0  0  0  0  0  0  0  0
    4.3805   -1.2327   -0.9261 C   0  0  0  0  0  0  0  0  0  0  0  0
    5.1889   -0.4958   -0.0730 C   0  0  0  0  0  0  0  0  0  0  0  0
    6.5429   -0.5157   -0.1147 N   0  0  0  0  0  0  0  0  0  0  0  0
    7.1052   -1.3491   -1.0174 C   0  0  0  0  0  0  0  0  0  0  0  0
    8.4779   -1.4283   -1.1076 O   0  0  0  0  0  0  0  0  0  0  0  0
    9.1814   -0.6530   -0.1225 C   0  0  0  0  0  0  0  0  0  0  0  0
    9.3776   -1.3861    1.1983 C   0  0  0  0  0  0  0  0  0  0  0  0
   10.0786   -0.6059    2.0635 F   0  0  0  0  0  0  0  0  0  0  0  0
   10.0978   -2.5183    1.0206 F   0  0  0  0  0  0  0  0  0  0  0  0
    8.2247   -1.7269    1.8096 F   0  0  0  0  0  0  0  0  0  0  0  0
    6.3799   -2.1471   -1.8941 C   0  0  0  0  0  0  0  0  0  0  0  0
    4.9896   -2.0942   -1.8386 C   0  0  0  0  0  0  0  0  0  0  0  0
    2.2778    0.0567   -0.7333 N   0  0  0  0  0  0  0  0  0  0  0  0
    0.8302    0.0234   -0.5282 C   0  0  0  0  0  0  0  0  0  0  0  0
    0.2321    1.3470   -0.0991 C   0  0  0  0  0  0  0  0  0  0  0  0
   -1.0601    1.3200    0.3113 N   0  0  0  0  0  0  0  0  0  0  0  0
   -1.6169    2.5027    0.6972 C   0  0  0  0  0  0  0  0  0  0  0  0
   -3.0344    2.4303    1.1811 C   0  0  0  0  0  0  0  0  0  0  0  0
   -3.6312    3.4224    1.5800 O   0  0  0  0  0  0  0  0  0  0  0  0
   -3.5700    1.1640    1.1347 N   0  0  0  0  0  0  0  0  0  0  0  0
   -4.9078    0.8403    1.5671 C   0  0  0  0  0  0  0  0  0  0  0  0
   -5.8422    0.6236    0.3999 C   0  0  0  0  0  0  0  0  0  0  0  0
   -6.3107    1.7915   -0.2427 C   0  0  0  0  0  0  0  0  0  0  0  0
   -7.2865    1.7410   -1.2372 C   0  0  0  0  0  0  0  0  0  0  0  0
   -7.8244    0.5210   -1.6110 C   0  0  0  0  0  0  0  0  0  0  0  0
   -7.3700   -0.6493   -1.0080 C   0  0  0  0  0  0  0  0  0  0  0  0
   -6.3655   -0.6187   -0.0166 C   0  0  0  0  0  0  0  0  0  0  0  0
   -5.9285   -1.8746    0.5069 N   0  0  0  0  0  0  0  0  0  0  0  0
   -6.7091   -3.0103    0.6468 C   0  0  0  0  0  0  0  0  0  0  0  0
   -5.9449   -4.0326    1.1712 C   0  0  0  0  0  0  0  0  0  0  0  0
   -4.6419   -3.5300    1.3308 C   0  0  0  0  0  0  0  0  0  0  0  0
   -4.6512   -2.2219    0.8923 C   0  0  0  0  0  0  0  0  0  0  0  0
   -0.9481    3.7167    0.6773 C   0  0  0  0  0  0  0  0  0  0  0  0
    0.3713    3.7262    0.2380 C   0  0  0  0  0  0  0  0  0  0  0  0
    0.9776    2.5312   -0.1651 C   0  0  0  0  0  0  0  0  0  0  0  0
    2.4218    2.5121   -0.5906 C   0  0  0  0  0  0  0  0  0  0  0  0
    2.7726    1.2627   -1.3994 C   0  0  0  0  0  0  0  0  0  0  0  0
    4.7637    0.1472    0.6934 H   0  0  0  0  0  0  0  0  0  0  0  0
    8.7379    0.3392    0.0265 H   0  0  0  0  0  0  0  0  0  0  0  0
   10.1738   -0.4622   -0.5469 H   0  0  0  0  0  0  0  0  0  0  0  0
    6.8894   -2.8056   -2.5942 H   0  0  0  0  0  0  0  0  0  0  0  0
    4.3893   -2.7241   -2.4892 H   0  0  0  0  0  0  0  0  0  0  0  0
    0.3674   -0.2785   -1.4723 H   0  0  0  0  0  0  0  0  0  0  0  0
    0.5942   -0.7360    0.2220 H   0  0  0  0  0  0  0  0  0  0  0  0
   -2.9715    0.4477    0.7351 H   0  0  0  0  0  0  0  0  0  0  0  0
   -4.8543   -0.0256    2.2290 H   0  0  0  0  0  0  0  0  0  0  0  0
   -5.2996    1.6501    2.1953 H   0  0  0  0  0  0  0  0  0  0  0  0
   -5.9272    2.7662    0.0589 H   0  0  0  0  0  0  0  0  0  0  0  0
   -7.6355    2.6575   -1.6994 H   0  0  0  0  0  0  0  0  0  0  0  0
   -8.5897    0.4763   -2.3805 H   0  0  0  0  0  0  0  0  0  0  0  0
   -7.7848   -1.5894   -1.3612 H   0  0  0  0  0  0  0  0  0  0  0  0
   -7.7627   -2.9945    0.4114 H   0  0  0  0  0  0  0  0  0  0  0  0
   -6.2975   -5.0302    1.4106 H   0  0  0  0  0  0  0  0  0  0  0  0
   -3.7752   -4.0646    1.6984 H   0  0  0  0  0  0  0  0  0  0  0  0
   -3.8290   -1.5337    0.7928 H   0  0  0  0  0  0  0  0  0  0  0  0
   -1.4412    4.6286    1.0007 H   0  0  0  0  0  0  0  0  0  0  0  0
    0.9226    4.6622    0.2155 H   0  0  0  0  0  0  0  0  0  0  0  0
    2.6529    3.4024   -1.1878 H   0  0  0  0  0  0  0  0  0  0  0  0
    3.0396    2.5425    0.3142 H   0  0  0  0  0  0  0  0  0  0  0  0
    3.8496    1.2239   -1.5790 H   0  0  0  0  0  0  0  0  0  0  0  0
    2.2962    1.2955   -2.3862 H   0  0  0  0  0  0  0  0  0  0  0  0
  1  2  2  0
  2  3  1  0
  3  4  2  0
  4  5  1  0
  5  6  2  0
  6  7  1  0
  7  8  1  0
  8  9  1  0
  9 10  1  0
  9 11  1  0
  9 12  1  0
  6 13  1  0
 13 14  2  0
  2 15  1  0
 15 16  1  0
 16 17  1  0
 17 18  2  0
 18 19  1  0
 19 20  1  0
 20 21  2  0
 20 22  1  0
 22 23  1  0
 23 24  1  0
 24 25  2  0
 25 26  1  0
 26 27  2  0
 27 28  1  0
 28 29  2  0
 29 30  1  0
 30 31  1  0
 31 32  2  0
 32 33  1  0
 33 34  2  0
 19 35  2  0
 35 36  1  0
 36 37  2  0
 37 38  1  0
 38 39  1  0
 39 15  1  0
 37 17  1  0
 14  3  1  0
 29 24  1  0
 34 30  1  0
  4 40  1  0
  8 41  1  0
  8 42  1  0
 13 43  1  0
 14 44  1  0
 16 45  1  0
 16 46  1  0
 22 47  1  0
 23 48  1  0
 23 49  1  0
 25 50  1  0
 26 51  1  0
 27 52  1  0
 28 53  1  0
 31 54  1  0
 32 55  1  0
 33 56  1  0
 34 57  1  0
 35 58  1  0
 36 59  1  0
 38 60  1  0
 38 61  1  0
 39 62  1  0
 39 63  1  0
M  END
>  <type>  (1) 
designed

$$$$
A02
     RDKit          3D

 69 73  0  0  0  0  0  0  0  0999 V2000
    3.6846   -2.3299   -0.1181 O   0  0  0  0  0  0  0  0  0  0  0  0
    4.1626   -1.2040   -0.0122 C   0  0  0  0  0  0  0  0  0  0  0  0
    5.4240   -0.9276   -0.7214 C   0  0  0  0  0  0  0  0  0  0  0  0
    6.4905   -1.8051   -0.5828 C   0  0  0  0  0  0  0  0  0  0  0  0
    7.6857   -1.6388   -1.2044 N   0  0  0  0  0  0  0  0  0  0  0  0
    7.7975   -0.5699   -2.0202 C   0  0  0  0  0  0  0  0  0  0  0  0
    8.9715   -0.3580   -2.7078 O   0  0  0  0  0  0  0  0  0  0  0  0
   10.0659   -1.1736   -2.2590 C   0  0  0  0  0  0  0  0  0  0  0  0
   10.7653   -0.6068   -1.0326 C   0  0  0  0  0  0  0  0  0  0  0  0
    9.9921   -0.5810    0.0708 F   0  0  0  0  0  0  0  0  0  0  0  0
   11.8630   -1.3452   -0.7358 F   0  0  0  0  0  0  0  0  0  0  0  0
   11.1919    0.6592   -1.2592 F   0  0  0  0  0  0  0  0  0  0  0  0
    6.7733    0.3386   -2.2518 C   0  0  0  0  0  0  0  0  0  0  0  0
    5.5608    0.1571   -1.5886 C   0  0  0  0  0  0  0  0  0  0  0  0
    3.5601   -0.1775    0.7144 N   0  0  0  0  0  0  0  0  0  0  0  0
    2.2706   -0.4998    1.3293 C   0  0  0  0  0  0  0  0  0  0  0  0
    1.5198    0.6975    1.8813 C   0  0  0  0  0  0  0  0  0  0  0  0
    0.2436    0.4793    2.2917 N   0  0  0  0  0  0  0  0  0  0  0  0
   -0.4318    1.5416    2.8155 C   0  0  0  0  0  0  0  0  0  0  0  0
   -1.8402    1.2860    3.2621 C   0  0  0  0  0  0  0  0  0  0  0  0
   -2.5152    2.1705    3.7781 O   0  0  0  0  0  0  0  0  0  0  0  0
   -2.2885    0.0042    3.0338 N   0  0  0  0  0  0  0  0  0  0  0  0
   -3.6481   -0.4044    3.2860 C   0  0  0  0  0  0  0  0  0  0  0  0
   -4.4693   -0.4085    2.0234 C   0  0  0  0  0  0  0  0  0  0  0  0
   -4.8631   -1.6039    1.4193 C   0  0  0  0  0  0  0  0  0  0  0  0
   -5.6355   -1.5933    0.2475 C   0  0  0  0  0  0  0  0  0  0  0  0
   -6.0464   -0.3985   -0.3639 C   0  0  0  0  0  0  0  0  0  0  0  0
   -6.8132   -0.3639   -1.5346 N   0  0  0  0  0  0  0  0  0  0  0  0
   -7.1423   -1.6134   -2.2410 C   0  0  0  0  0  0  0  0  0  0  0  0
   -7.6353   -1.3442   -3.6873 C   0  0  0  0  0  0  0  0  0  0  0  0
   -8.4062   -0.1034   -3.9194 N   0  0  0  0  0  0  0  0  0  0  0  0
   -8.9498    0.3803   -2.6404 C   0  0  0  0  0  0  0  0  0  0  0  0
   -7.8478    0.6947   -1.6031 C   0  0  0  0  0  0  0  0  0  0  0  0
   -5.6173    0.7915    0.2490 C   0  0  0  0  0  0  0  0  0  0  0  0
   -4.8508    0.7921    1.4211 C   0  0  0  0  0  0  0  0  0  0  0  0
    0.1079    2.8126    2.9483 C   0  0  0  0  0  0  0  0  0  0  0  0
    1.4150    3.0165    2.5244 C   0  0  0  0  0  0  0  0  0  0  0  0
    2.1447    1.9472    1.9945 C   0  0  0  0  0  0  0  0  0  0  0  0
    3.5494    2.1595    1.4967 C   0  0  0  0  0  0  0  0  0  0  0  0
    4.3336    0.8533    1.4078 C   0  0  0  0  0  0  0  0  0  0  0  0
    6.4149   -2.6866    0.0500 H   0  0  0  0  0  0  0  0  0  0  0  0
   10.7876   -1.1794   -3.0832 H   0  0  0  0  0  0  0  0  0  0  0  0
    9.7805   -2.2226   -2.1166 H   0  0  0  0  0  0  0  0  0  0  0  0
    6.9148    1.1658   -2.9392 H   0  0  0  0  0  0  0  0  0  0  0  0
    4.7329    0.8403   -1.7628 H   0  0  0  0  0  0  0  0  0  0  0  0
    2.4622   -1.2001    2.1517 H   0  0  0  0  0  0  0  0  0  0  0  0
    1.6423   -1.0092    0.5894 H   0  0  0  0  0  0  0  0  0  0  0  0
   -1.6701   -0.6039    2.5052 H   0  0  0  0  0  0  0  0  0  0  0  0
   -4.1161    0.2528    4.0266 H   0  0  0  0  0  0  0  0  0  0  0  0
   -3.6057   -1.4071    3.7224 H   0  0  0  0  0  0  0  0  0  0  0  0
   -4.5837   -2.5596    1.8561 H   0  0  0  0  0  0  0  0  0  0  0  0
   -5.9222   -2.5573   -0.1617 H   0  0  0  0  0  0  0  0  0  0  0  0
   -6.2627   -2.2615   -2.3216 H   0  0  0  0  0  0  0  0  0  0  0  0
   -7.9171   -2.1538   -1.6835 H   0  0  0  0  0  0  0  0  0  0  0  0
   -8.2447   -2.1975   -4.0104 H   0  0  0  0  0  0  0  0  0  0  0  0
   -6.7666   -1.3244   -4.3587 H   0  0  0  0  0  0  0  0  0  0  0  0
   -7.7355    0.5992   -4.2395 H   0  0  0  0  0  0  0  0  0  0  0  0
   -9.5368    1.2879   -2.8244 H   0  0  0  0  0  0  0  0  0  0  0  0
   -9.6505   -0.3627   -2.2374 H   0  0  0  0  0  0  0  0  0  0  0  0
   -8.3303    0.8370   -0.6275 H   0  0  0  0  0  0  0  0  0  0  0  0
   -7.3673    1.6386   -1.8894 H   0  0  0  0  0  0  0  0  0  0  0  0
   -5.8571    1.7542   -0.1928 H   0  0  0  0  0  0  0  0  0  0  0  0
   -4.5485    1.7421    1.8590 H   0  0  0  0  0  0  0  0  0  0  0  0
   -0.4771    3.6256    3.3670 H   0  0  0  0  0  0  0  0  0  0  0  0
    1.8567    4.0069    2.6086 H   0  0  0  0  0  0  0  0  0  0  0  0
    3.4908    2.6192    0.5034 H   0  0  0  0  0  0  0  0  0  0  0  0
    4.0842    2.8508    2.1572 H   0  0  0  0  0  0  0  0  0  0  0  0
    4.5534    0.4643    2.4103 H   0  0  0  0  0  0  0  0  0  0  0  0
    5.2990    1.0346    0.9303 H   0  0  0  0  0  0  0  0  0  0  0  0
  1  2  2  0
  2  3  1  0
  3  4  2  0
  4  5  1  0
  5  6  2  0
  6  7  1  0
  7  8  1  0
  8  9  1  0
  9 10  1  0
  9 11  1  0
  9 12  1  0
  6 13  1  0
 13 14  2  0
  2 15  1  0
 15 16  1  0
 16 17  1  0
 17 18  2  0
 18 19  1  0
 19 20  1  0
 20 21  2  0
 20 22  1  0
 22 23  1  0
 23 24  1  0
 24 25  2  0
 25 26  1  0
 26 27  2  0
 27 28  1  0
 28 29  1  0
 29 30  1  0
 30 31  1  0
 31 32  1  0
 32 33  1  0
 27 34  1  0
 34 35  2  0
 19 36  2  0
 36 37  1  0
 37 38  2  0
 38 39  1  0
 39 40  1  0
 40 15  1  0
 38 17  1  0
 14  3  1  0
 35 24  1  0
 33 28  1  0
  4 41  1  0
  8 42  1  0
  8 43  1  0
 13 44  1  0
 14 45  1  0
 16 46  1  0
 16 47  1  0
 22 48  1  0
 23 49  1  0
 23 50  1  0
 25 51  1  0
 26 52  1  0
 29 53  1  0
 29 54  1  0
 30 55  1  0
 30 56  1  0
 31 57  1  0
 32 58  1  0
 32 59  1  0
 33 60  1  0
 33 61  1  0
 34 62  1  0
 35 63  1  0
 36 64  1  0
 37 65  1  0
 39 66  1  0
 39 67  1  0
 40 68  1  0
 40 69  1  0
M  END
>  <type>  (2) 
designed

$$$$
A03
     RDKit          3D

 72 76  0  0  0  0  0  0  0  0999 V2000
   -5.8911   -3.3860   -1.0646 O   0  0  0  0  0  0  0  0  0  0  0  0
   -5.0451   -2.5061   -1.2032 C   0  0  0  0  0  0  0  0  0  0  0  0
   -5.5206   -1.1215   -1.3826 C   0  0  0  0  0  0  0  0  0  0  0  0
   -6.5443   -0.6473   -0.5746 C   0  0  0  0  0  0  0  0  0  0  0  0
   -7.0548    0.6063   -0.6654 N   0  0  0  0  0  0  0  0  0  0  0  0
   -6.5471    1.3967   -1.6321 C   0  0  0  0  0  0  0  0  0  0  0  0
   -7.0205    2.6820   -1.7809 O   0  0  0  0  0  0  0  0  0  0  0  0
   -8.1356    2.9973   -0.9336 C   0  0  0  0  0  0  0  0  0  0  0  0
   -9.4753    2.5666   -1.5137 C   0  0  0  0  0  0  0  0  0  0  0  0
   -9.6087    1.2331   -1.6524 F   0  0  0  0  0  0  0  0  0  0  0  0
   -9.6785    3.1277   -2.7304 F   0  0  0  0  0  0  0  0  0  0  0  0
  -10.4856    2.9905   -0.7137 F   0  0  0  0  0  0  0  0  0  0  0  0
   -5.5431    1.0022   -2.5050 C   0  0  0  0  0  0  0  0  0  0  0  0
   -5.0235   -0.2851   -2.3824 C   0  0  0  0  0  0  0  0  0  0  0  0
   -3.6749   -2.7640   -1.2287 N   0  0  0  0  0  0  0  0  0  0  0  0
   -2.6752   -1.8131   -0.7292 C   0  0  0  0  0  0  0  0  0  0  0  0
   -2.0617   -2.2442    0.5947 C   0  0  0  0  0  0  0  0  0  0  0  0
   -1.3373   -1.3084    1.2584 N   0  0  0  0  0  0  0  0  0  0  0  0
   -0.7708   -1.6876    2.4410 C   0  0  0  0  0  0  0  0  0  0  0  0
    0.0281   -0.6413    3.1600 C   0  0  0  0  0  0  0  0  0  0  0  0
    0.5853   -0.8795    4.2254 O   0  0  0  0  0  0  0  0  0  0  0  0
    0.0811    0.5722    2.5099 N   0  0  0  0  0  0  0  0  0  0  0  0
    0.9557    1.6390    2.9261 C   0  0  0  0  0  0  0  0  0  0  0  0
    2.2469    1.6064    2.1526 C   0  0  0  0  0  0  0  0  0  0  0  0
    3.2939    0.7749    2.5553 C   0  0  0  0  0  0  0  0  0  0  0  0
    4.4873    0.7240    1.8228 C   0  0  0  0  0  0  0  0  0  0  0  0
    4.6849    1.4890    0.6625 C   0  0  0  0  0  0  0  0  0  0  0  0
    5.8654    1.4286   -0.0579 N   0  0  0  0  0  0  0  0  0  0  0  0
    7.1239    0.9806    0.5634 C   0  0  0  0  0  0  0  0  0  0  0  0
    8.3501    1.6398   -0.1129 C   0  0  0  0  0  0  0  0  0  0  0  0
    8.4552    1.4589   -1.5762 N   0  0  0  0  0  0  0  0  0  0  0  0
    9.3856    0.3891   -1.9257 C   0  0  0  0  0  0  0  0  0  0  0  0
    7.1288    1.2132   -2.1832 C   0  0  0  0  0  0  0  0  0  0  0  0
    5.9571    1.9048   -1.4479 C   0  0  0  0  0  0  0  0  0  0  0  0
    3.6143    2.3079    0.2703 C   0  0  0  0  0  0  0  0  0  0  0  0
    2.4152    2.3686    0.9950 C   0  0  0  0  0  0  0  0  0  0  0  0
   -0.8893   -2.9577    2.9857 C   0  0  0  0  0  0  0  0  0  0  0  0
   -1.6265   -3.9051    2.2848 C   0  0  0  0  0  0  0  0  0  0  0  0
   -2.2149   -3.5590    1.0642 C   0  0  0  0  0  0  0  0  0  0  0  0
   -3.0510   -4.5665    0.3111 C   0  0  0  0  0  0  0  0  0  0  0  0
   -3.2475   -4.1569   -1.1494 C   0  0  0  0  0  0  0  0  0  0  0  0
   -6.9916   -1.2744    0.1927 H   0  0  0  0  0  0  0  0  0  0  0  0
   -7.9994    2.6349    0.0927 H   0  0  0  0  0  0  0  0  0  0  0  0
   -8.1451    4.0906   -0.8524 H   0  0  0  0  0  0  0  0  0  0  0  0
   -5.1805    1.6811   -3.2696 H   0  0  0  0  0  0  0  0  0  0  0  0
   -4.2551   -0.6302   -3.0682 H   0  0  0  0  0  0  0  0  0  0  0  0
   -1.8783   -1.7542   -1.4800 H   0  0  0  0  0  0  0  0  0  0  0  0
   -3.1017   -0.8161   -0.5934 H   0  0  0  0  0  0  0  0  0  0  0  0
   -0.3197    0.5923    1.5778 H   0  0  0  0  0  0  0  0  0  0  0  0
    1.1545    1.5738    4.0020 H   0  0  0  0  0  0  0  0  0  0  0  0
    0.4281    2.5828    2.7484 H   0  0  0  0  0  0  0  0  0  0  0  0
    3.1842    0.1492    3.4399 H   0  0  0  0  0  0  0  0  0  0  0  0
    5.2570    0.0415    2.1720 H   0  0  0  0  0  0  0  0  0  0  0  0
    7.1550    1.2530    1.6251 H   0  0  0  0  0  0  0  0  0  0  0  0
    7.1983   -0.1107    0.4884 H   0  0  0  0  0  0  0  0  0  0  0  0
    8.2869    2.7215    0.0647 H   0  0  0  0  0  0  0  0  0  0  0  0
    9.2671    1.3145    0.3937 H   0  0  0  0  0  0  0  0  0  0  0  0
   10.3929    0.6238   -1.5650 H   0  0  0  0  0  0  0  0  0  0  0  0
    9.4591    0.2825   -3.0138 H   0  0  0  0  0  0  0  0  0  0  0  0
    9.0849   -0.5763   -1.5028 H   0  0  0  0  0  0  0  0  0  0  0  0
    7.1517    1.5577   -3.2238 H   0  0  0  0  0  0  0  0  0  0  0  0
    6.9141    0.1352   -2.2044 H   0  0  0  0  0  0  0  0  0  0  0  0
    6.0910    2.9927   -1.4610 H   0  0  0  0  0  0  0  0  0  0  0  0
    5.0407    1.6648   -1.9992 H   0  0  0  0  0  0  0  0  0  0  0  0
    3.6989    2.9417   -0.6080 H   0  0  0  0  0  0  0  0  0  0  0  0
    1.6200    3.0223    0.6441 H   0  0  0  0  0  0  0  0  0  0  0  0
   -0.4194   -3.2030    3.9329 H   0  0  0  0  0  0  0  0  0  0  0  0
   -1.7420   -4.9067    2.6930 H   0  0  0  0  0  0  0  0  0  0  0  0
   -4.0244   -4.6400    0.8114 H   0  0  0  0  0  0  0  0  0  0  0  0
   -2.5764   -5.5537    0.3463 H   0  0  0  0  0  0  0  0  0  0  0  0
   -2.3072   -4.2467   -1.7075 H   0  0  0  0  0  0  0  0  0  0  0  0
   -3.9790   -4.8137   -1.6326 H   0  0  0  0  0  0  0  0  0  0  0  0
  1  2  2  0
  2  3  1  0
  3  4  2  0
  4  5  1  0
  5  6  2  0
  6  7  1  0
  7  8  1  0
  8  9  1  0
  9 10  1  0
  9 11  1  0
  9 12  1  0
  6 13  1  0
 13 14  2  0
  2 15  1  0
 15 16  1  0
 16 17  1  0
 17 18  2  0
 18 19  1  0
 19 20  1  0
 20 21  2  0
 20 22  1  0
 22 23  1  0
 23 24  1  0
 24 25  2  0
 25 26  1  0
 26 27  2  0
 27 28  1  0
 28 29  1  0
 29 30  1  0
 30 31  1  0
 31 32  1  0
 31 33  1  0
 33 34  1  0
 27 35  1  0
 35 36  2  0
 19 37  2  0
 37 38  1  0
 38 39  2  0
 39 40  1  0
 40 41  1  0
 41 15  1  0
 39 17  1  0
 14  3  1  0
 36 24  1  0
 34 28  1  0
  4 42  1  0
  8 43  1  0
  8 44  1  0
 13 45  1  0
 14 46  1  0
 16 47  1  0
 16 48  1  0
 22 49  1  0
 23 50  1  0
 23 51  1  0
 25 52  1  0
 26 53  1  0
 29 54  1  0
 29 55  1  0
 30 56  1  0
 30 57  1  0
 32 58  1  0
 32 59  1  0
 32 60  1  0
 33 61  1  0
 33 62  1  0
 34 63  1  0
 34 64  1  0
 35 65  1  0
 36 66  1  0
 37 67  1  0
 38 68  1  0
 40 69  1  0
 40 70  1  0
 41 71  1  0
 41 72  1  0
M  END
>  <type>  (3) 
designed

$$$$
A04
     RDKit          3D

 68 72  0  0  0  0  0  0  0  0999 V2000
    4.5237    2.1704   -0.2294 O   0  0  0  0  0  0  0  0  0  0  0  0
    4.6529    0.9865    0.0709 C   0  0  0  0  0  0  0  0  0  0  0  0
    6.0165    0.4473    0.0880 C   0  0  0  0  0  0  0  0  0  0  0  0
    6.8282    0.6668    1.1898 C   0  0  0  0  0  0  0  0  0  0  0  0
    8.0918    0.1865    1.2919 N   0  0  0  0  0  0  0  0  0  0  0  0
    8.5653   -0.4953    0.2280 C   0  0  0  0  0  0  0  0  0  0  0  0
    9.8403   -1.0214    0.2682 O   0  0  0  0  0  0  0  0  0  0  0  0
   10.6391   -0.5229    1.3543 C   0  0  0  0  0  0  0  0  0  0  0  0
   11.2634    0.8383    1.0715 C   0  0  0  0  0  0  0  0  0  0  0  0
   12.1126    1.1777    2.0734 F   0  0  0  0  0  0  0  0  0  0  0  0
   10.3629    1.8356    0.9599 F   0  0  0  0  0  0  0  0  0  0  0  0
   11.9931    0.8094   -0.0715 F   0  0  0  0  0  0  0  0  0  0  0  0
    7.8291   -0.7451   -0.9249 C   0  0  0  0  0  0  0  0  0  0  0  0
    6.5263   -0.2581   -0.9997 C   0  0  0  0  0  0  0  0  0  0  0  0
    3.6022    0.1350    0.3805 N   0  0  0  0  0  0  0  0  0  0  0  0
    2.2290    0.6184    0.2401 C   0  0  0  0  0  0  0  0  0  0  0  0
    1.3898   -0.2721   -0.6620 C   0  0  0  0  0  0  0  0  0  0  0  0
    0.2165    0.2414   -1.1109 N   0  0  0  0  0  0  0  0  0  0  0  0
   -0.5327   -0.5489   -1.9343 C   0  0  0  0  0  0  0  0  0  0  0  0
   -1.7990    0.0572   -2.4643 C   0  0  0  0  0  0  0  0  0  0  0  0
   -2.5036   -0.5348   -3.2745 O   0  0  0  0  0  0  0  0  0  0  0  0
   -2.0660    1.3150   -1.9747 N   0  0  0  0  0  0  0  0  0  0  0  0
   -3.2386    2.0655   -2.3427 C   0  0  0  0  0  0  0  0  0  0  0  0
   -4.4464    1.6832   -1.5262 C   0  0  0  0  0  0  0  0  0  0  0  0
   -5.5238    1.0219   -2.1258 C   0  0  0  0  0  0  0  0  0  0  0  0
   -6.6688    0.6976   -1.3885 C   0  0  0  0  0  0  0  0  0  0  0  0
   -6.7675    1.0052   -0.0258 C   0  0  0  0  0  0  0  0  0  0  0  0
   -7.8878    0.7037    0.7610 N   0  0  0  0  0  0  0  0  0  0  0  0
   -9.2056    0.5319    0.1128 C   0  0  0  0  0  0  0  0  0  0  0  0
   -9.5804   -0.9557    0.0233 C   0  0  0  0  0  0  0  0  0  0  0  0
   -9.6530   -1.6153    1.3027 O   0  0  0  0  0  0  0  0  0  0  0  0
   -8.8951   -0.9502    2.3247 C   0  0  0  0  0  0  0  0  0  0  0  0
   -7.5946   -0.3185    1.7980 C   0  0  0  0  0  0  0  0  0  0  0  0
   -5.6661    1.6401    0.5706 C   0  0  0  0  0  0  0  0  0  0  0  0
   -4.5240    1.9812   -0.1633 C   0  0  0  0  0  0  0  0  0  0  0  0
   -0.1743   -1.8332   -2.3127 C   0  0  0  0  0  0  0  0  0  0  0  0
    1.0169   -2.3516   -1.8200 C   0  0  0  0  0  0  0  0  0  0  0  0
    1.8138   -1.5758   -0.9710 C   0  0  0  0  0  0  0  0  0  0  0  0
    3.1325   -2.1149   -0.4711 C   0  0  0  0  0  0  0  0  0  0  0  0
    3.7053   -1.2901    0.6850 C   0  0  0  0  0  0  0  0  0  0  0  0
    6.4791    1.2382    2.0463 H   0  0  0  0  0  0  0  0  0  0  0  0
   11.4555   -1.2439    1.4768 H   0  0  0  0  0  0  0  0  0  0  0  0
   10.0971   -0.5326    2.3096 H   0  0  0  0  0  0  0  0  0  0  0  0
    8.2695   -1.2992   -1.7469 H   0  0  0  0  0  0  0  0  0  0  0  0
    5.9256   -0.4188   -1.8907 H   0  0  0  0  0  0  0  0  0  0  0  0
    2.2066    1.6457   -0.1342 H   0  0  0  0  0  0  0  0  0  0  0  0
    1.7806    0.6128    1.2396 H   0  0  0  0  0  0  0  0  0  0  0  0
   -1.4208    1.6782   -1.2807 H   0  0  0  0  0  0  0  0  0  0  0  0
   -3.4296    1.9205   -3.4132 H   0  0  0  0  0  0  0  0  0  0  0  0
   -3.0183    3.1291   -2.1930 H   0  0  0  0  0  0  0  0  0  0  0  0
   -5.4747    0.7455   -3.1779 H   0  0  0  0  0  0  0  0  0  0  0  0
   -7.4682    0.1794   -1.9071 H   0  0  0  0  0  0  0  0  0  0  0  0
   -9.9439    1.0422    0.7449 H   0  0  0  0  0  0  0  0  0  0  0  0
   -9.2626    1.0179   -0.8682 H   0  0  0  0  0  0  0  0  0  0  0  0
   -8.8510   -1.5027   -0.5883 H   0  0  0  0  0  0  0  0  0  0  0  0
  -10.5594   -1.0674   -0.4562 H   0  0  0  0  0  0  0  0  0  0  0  0
   -8.6671   -1.6917    3.0955 H   0  0  0  0  0  0  0  0  0  0  0  0
   -9.5391   -0.1910    2.7819 H   0  0  0  0  0  0  0  0  0  0  0  0
   -7.0556    0.1430    2.6323 H   0  0  0  0  0  0  0  0  0  0  0  0
   -6.9712   -1.1175    1.3746 H   0  0  0  0  0  0  0  0  0  0  0  0
   -5.7066    1.9072    1.6251 H   0  0  0  0  0  0  0  0  0  0  0  0
   -3.7028    2.4841    0.3387 H   0  0  0  0  0  0  0  0  0  0  0  0
   -0.8044   -2.4141   -2.9798 H   0  0  0  0  0  0  0  0  0  0  0  0
    1.3229   -3.3551   -2.1072 H   0  0  0  0  0  0  0  0  0  0  0  0
    3.0095   -3.1524   -0.1383 H   0  0  0  0  0  0  0  0  0  0  0  0
    3.8409   -2.1086   -1.3095 H   0  0  0  0  0  0  0  0  0  0  0  0
    3.1284   -1.4668    1.6011 H   0  0  0  0  0  0  0  0  0  0  0  0
    4.7352   -1.5939    0.8906 H   0  0  0  0  0  0  0  0  0  0  0  0
  1  2  2  0
  2  3  1  0
  3  4  2  0
  4  5  1  0
  5  6  2  0
  6  7  1  0
  7  8  1  0
  8  9  1  0
  9 10  1  0
  9 11  1  0
  9 12  1  0
  6 13  1  0
 13 14  2  0
  2 15  1  0
 15 16  1  0
 16 17  1  0
 17 18  2  0
 18 19  1  0
 19 20  1  0
 20 21  2  0
 20 22  1  0
 22 23  1  0
 23 24  1  0
 24 25  2  0
 25 26  1  0
 26 27  2  0
 27 28  1  0
 28 29  1  0
 29 30  1  0
 30 31  1  0
 31 32  1  0
 32 33  1  0
 27 34  1  0
 34 35  2  0
 19 36  2  0
 36 37  1  0
 37 38  2  0
 38 39  1  0
 39 40  1  0
 40 15  1  0
 38 17  1  0
 14  3  1  0
 35 24  1  0
 33 28  1  0
  4 41  1  0
  8 42  1  0
  8 43  1  0
 13 44  1  0
 14 45  1  0
 16 46  1  0
 16 47  1  0
 22 48  1  0
 23 49  1  0
 23 50  1  0
 25 51  1  0
 26 52  1  0
 29 53  1  0
 29 54  1  0
 30 55  1  0
 30 56  1  0
 32 57  1  0
 32 58  1  0
 33 59  1  0
 33 60  1  0
 34 61  1  0
 35 62  1  0
 36 63  1  0
 37 64  1  0
 39 65  1  0
 39 66  1  0
 40 67  1  0
 40 68  1  0
M  END
>  <type>  (4) 
designed

$$$$
A05
     RDKit          3D

 53 56  0  0  0  0  0  0  0  0999 V2000
   -0.4438   -3.1091   -0.1746 O   0  0  0  0  0  0  0  0  0  0  0  0
   -1.1972   -2.1508   -0.3184 C   0  0  0  0  0  0  0  0  0  0  0  0
   -2.3082   -2.2949   -1.2762 C   0  0  0  0  0  0  0  0  0  0  0  0
   -3.1388   -3.4027   -1.1862 C   0  0  0  0  0  0  0  0  0  0  0  0
   -4.1888   -3.6231   -2.0180 N   0  0  0  0  0  0  0  0  0  0  0  0
   -4.3860   -2.7121   -2.9949 C   0  0  0  0  0  0  0  0  0  0  0  0
   -5.4458   -2.8597   -3.8629 O   0  0  0  0  0  0  0  0  0  0  0  0
   -6.1737   -4.0811   -3.6609 C   0  0  0  0  0  0  0  0  0  0  0  0
   -7.3220   -4.1732   -4.6504 C   0  0  0  0  0  0  0  0  0  0  0  0
   -7.9896   -5.3422   -4.5020 F   0  0  0  0  0  0  0  0  0  0  0  0
   -6.8889   -4.1161   -5.9295 F   0  0  0  0  0  0  0  0  0  0  0  0
   -8.2159   -3.1742   -4.4680 F   0  0  0  0  0  0  0  0  0  0  0  0
   -3.5874   -1.5926   -3.1827 C   0  0  0  0  0  0  0  0  0  0  0  0
   -2.5221   -1.3838   -2.3105 C   0  0  0  0  0  0  0  0  0  0  0  0
   -1.0457   -0.9565    0.3782 N   0  0  0  0  0  0  0  0  0  0  0  0
    0.1923   -0.8035    1.1547 C   0  0  0  0  0  0  0  0  0  0  0  0
    0.3774    0.5393    1.8355 C   0  0  0  0  0  0  0  0  0  0  0  0
    1.6431    0.9331    2.1325 N   0  0  0  0  0  0  0  0  0  0  0  0
    1.7748    2.1039    2.8191 C   0  0  0  0  0  0  0  0  0  0  0  0
    3.1728    2.5352    3.1405 C   0  0  0  0  0  0  0  0  0  0  0  0
    3.4007    3.5974    3.7071 O   0  0  0  0  0  0  0  0  0  0  0  0
    4.1534    1.6555    2.7355 N   0  0  0  0  0  0  0  0  0  0  0  0
    5.5636    1.9148    2.9445 C   0  0  0  0  0  0  0  0  0  0  0  0
    6.2977    2.5144    1.7701 C   0  0  0  0  0  0  0  0  0  0  0  0
    5.6442    3.0494    0.6609 C   0  0  0  0  0  0  0  0  0  0  0  0
    6.2983    3.6088   -0.3909 N   0  0  0  0  0  0  0  0  0  0  0  0
    7.6455    3.6360   -0.2842 C   0  0  0  0  0  0  0  0  0  0  0  0
    8.3105    3.1195    0.8137 C   0  0  0  0  0  0  0  0  0  0  0  0
    7.6590    2.5421    1.8518 N   0  0  0  0  0  0  0  0  0  0  0  0
    0.7073    2.8932    3.2245 C   0  0  0  0  0  0  0  0  0  0  0  0
   -0.5787    2.4708    2.9120 C   0  0  0  0  0  0  0  0  0  0  0  0
   -0.7509    1.2845    2.1986 C   0  0  0  0  0  0  0  0  0  0  0  0
   -2.1117    0.7722    1.8276 C   0  0  0  0  0  0  0  0  0  0  0  0
   -2.0543    0.1082    0.4507 C   0  0  0  0  0  0  0  0  0  0  0  0
   -2.9841   -4.1603   -0.4211 H   0  0  0  0  0  0  0  0  0  0  0  0
   -5.5099   -4.9409   -3.8131 H   0  0  0  0  0  0  0  0  0  0  0  0
   -6.5904   -4.1094   -2.6469 H   0  0  0  0  0  0  0  0  0  0  0  0
   -3.7914   -0.9013   -3.9945 H   0  0  0  0  0  0  0  0  0  0  0  0
   -1.8675   -0.5261   -2.4423 H   0  0  0  0  0  0  0  0  0  0  0  0
    0.1917   -1.5814    1.9299 H   0  0  0  0  0  0  0  0  0  0  0  0
    1.0396   -1.0003    0.4864 H   0  0  0  0  0  0  0  0  0  0  0  0
    3.8510    0.8132    2.2528 H   0  0  0  0  0  0  0  0  0  0  0  0
    5.6869    2.5815    3.8050 H   0  0  0  0  0  0  0  0  0  0  0  0
    6.0207    0.9503    3.1919 H   0  0  0  0  0  0  0  0  0  0  0  0
    4.5606    3.0531    0.5754 H   0  0  0  0  0  0  0  0  0  0  0  0
    8.1819    4.0839   -1.1114 H   0  0  0  0  0  0  0  0  0  0  0  0
    9.3927    3.1591    0.8917 H   0  0  0  0  0  0  0  0  0  0  0  0
    0.8747    3.8155    3.7727 H   0  0  0  0  0  0  0  0  0  0  0  0
   -1.4329    3.0655    3.2236 H   0  0  0  0  0  0  0  0  0  0  0  0
   -2.4391    0.0496    2.5829 H   0  0  0  0  0  0  0  0  0  0  0  0
   -2.8408    1.5904    1.8011 H   0  0  0  0  0  0  0  0  0  0  0  0
   -1.7908    0.8461   -0.3167 H   0  0  0  0  0  0  0  0  0  0  0  0
   -3.0443   -0.2910    0.2103 H   0  0  0  0  0  0  0  0  0  0  0  0
  1  2  2  0
  2  3  1  0
  3  4  2  0
  4  5  1  0
  5  6  2  0
  6  7  1  0
  7  8  1  0
  8  9  1  0
  9 10  1  0
  9 11  1  0
  9 12  1  0
  6 13  1  0
 13 14  2  0
  2 15  1  0
 15 16  1  0
 16 17  1  0
 17 18  2  0
 18 19  1  0
 19 20  1  0
 20 21  2  0
 20 22  1  0
 22 23  1  0
 23 24  1  0
 24 25  2  0
 25 26  1  0
 26 27  2  0
 27 28  1  0
 28 29  2  0
 19 30  2  0
 30 31  1  0
 31 32  2  0
 32 33  1  0
 33 34  1  0
 34 15  1  0
 32 17  1  0
 14  3  1  0
 29 24  1  0
  4 35  1  0
  8 36  1  0
  8 37  1  0
 13 38  1  0
 14 39  1  0
 16 40  1  0
 16 41  1  0
 22 42  1  0
 23 43  1  0
 23 44  1  0
 25 45  1  0
 27 46  1  0
 28 47  1  0
 30 48  1  0
 31 49  1  0
 33 50  1  0
 33 51  1  0
 34 52  1  0
 34 53  1  0
M  END
>  <type>  (5) 
designed

$$$$
A06
     RDKit          3D

 54 57  0  0  0  0  0  0  0  0999 V2000
    1.7116    2.2821   -0.4545 O   0  0  0  0  0  0  0  0  0  0  0  0
    2.0950    1.1314   -0.2605 C   0  0  0  0  0  0  0  0  0  0  0  0
    3.5494    0.8885   -0.2562 C   0  0  0  0  0  0  0  0  0  0  0  0
    4.3367    1.4746   -1.2376 C   0  0  0  0  0  0  0  0  0  0  0  0
    5.6835    1.3266   -1.3102 N   0  0  0  0  0  0  0  0  0  0  0  0
    6.2629    0.5909   -0.3374 C   0  0  0  0  0  0  0  0  0  0  0  0
    7.6278    0.4018   -0.3451 O   0  0  0  0  0  0  0  0  0  0  0  0
    8.2826    1.0871   -1.4230 C   0  0  0  0  0  0  0  0  0  0  0  0
    9.7787    0.8419   -1.3663 C   0  0  0  0  0  0  0  0  0  0  0  0
   10.0745   -0.4728   -1.4785 F   0  0  0  0  0  0  0  0  0  0  0  0
   10.4067    1.4833   -2.3803 F   0  0  0  0  0  0  0  0  0  0  0  0
   10.3175    1.2914   -0.2108 F   0  0  0  0  0  0  0  0  0  0  0  0
    5.5631   -0.0061    0.7015 C   0  0  0  0  0  0  0  0  0  0  0  0
    4.1795    0.1521    0.7476 C   0  0  0  0  0  0  0  0  0  0  0  0
    1.2261    0.0691   -0.0124 N   0  0  0  0  0  0  0  0  0  0  0  0
   -0.1952    0.4101    0.0714 C   0  0  0  0  0  0  0  0  0  0  0  0
   -1.0730   -0.6951    0.6252 C   0  0  0  0  0  0  0  0  0  0  0  0
   -2.3626   -0.3683    0.8939 N   0  0  0  0  0  0  0  0  0  0  0  0
   -3.1679   -1.3564    1.3785 C   0  0  0  0  0  0  0  0  0  0  0  0
   -4.5881   -0.9700    1.6648 C   0  0  0  0  0  0  0  0  0  0  0  0
   -5.4077   -1.7870    2.0686 O   0  0  0  0  0  0  0  0  0  0  0  0
   -4.8703    0.3560    1.4203 N   0  0  0  0  0  0  0  0  0  0  0  0
   -6.2048    0.8937    1.4749 C   0  0  0  0  0  0  0  0  0  0  0  0
   -6.8368    0.9022    0.1098 C   0  0  0  0  0  0  0  0  0  0  0  0
   -6.7838    2.0373   -0.7035 C   0  0  0  0  0  0  0  0  0  0  0  0
   -7.3633    1.9796   -1.9619 C   0  0  0  0  0  0  0  0  0  0  0  0
   -7.9759    0.8843   -2.4594 N   0  0  0  0  0  0  0  0  0  0  0  0
   -8.0061   -0.2054   -1.6626 C   0  0  0  0  0  0  0  0  0  0  0  0
   -7.4572   -0.2462   -0.3912 C   0  0  0  0  0  0  0  0  0  0  0  0
   -2.7467   -2.6578    1.6036 C   0  0  0  0  0  0  0  0  0  0  0  0
   -1.4243   -2.9752    1.3166 C   0  0  0  0  0  0  0  0  0  0  0  0
   -0.5706   -1.9909    0.8075 C   0  0  0  0  0  0  0  0  0  0  0  0
    0.8742   -2.3071    0.5245 C   0  0  0  0  0  0  0  0  0  0  0  0
    1.5021   -1.3031   -0.4402 C   0  0  0  0  0  0  0  0  0  0  0  0
    3.8968    2.0937   -2.0159 H   0  0  0  0  0  0  0  0  0  0  0  0
    8.1036    2.1665   -1.3451 H   0  0  0  0  0  0  0  0  0  0  0  0
    7.9073    0.7181   -2.3853 H   0  0  0  0  0  0  0  0  0  0  0  0
    6.0875   -0.5728    1.4634 H   0  0  0  0  0  0  0  0  0  0  0  0
    3.6085   -0.2802    1.5640 H   0  0  0  0  0  0  0  0  0  0  0  0
   -0.3089    1.3046    0.6954 H   0  0  0  0  0  0  0  0  0  0  0  0
   -0.5377    0.6555   -0.9415 H   0  0  0  0  0  0  0  0  0  0  0  0
   -4.1265    0.8946    0.9856 H   0  0  0  0  0  0  0  0  0  0  0  0
   -6.8206    0.3173    2.1747 H   0  0  0  0  0  0  0  0  0  0  0  0
   -6.1321    1.9131    1.8695 H   0  0  0  0  0  0  0  0  0  0  0  0
   -6.3020    2.9503   -0.3708 H   0  0  0  0  0  0  0  0  0  0  0  0
   -7.3472    2.8402   -2.6244 H   0  0  0  0  0  0  0  0  0  0  0  0
   -8.4969   -1.0766   -2.0866 H   0  0  0  0  0  0  0  0  0  0  0  0
   -7.5053   -1.1587    0.1962 H   0  0  0  0  0  0  0  0  0  0  0  0
   -3.4305   -3.4047    1.9940 H   0  0  0  0  0  0  0  0  0  0  0  0
   -1.0659   -3.9871    1.4908 H   0  0  0  0  0  0  0  0  0  0  0  0
    1.4180   -2.2891    1.4771 H   0  0  0  0  0  0  0  0  0  0  0  0
    0.9660   -3.3140    0.1013 H   0  0  0  0  0  0  0  0  0  0  0  0
    1.0762   -1.4154   -1.4461 H   0  0  0  0  0  0  0  0  0  0  0  0
    2.5720   -1.4979   -0.5378 H   0  0  0  0  0  0  0  0  0  0  0  0
  1  2  2  0
  2  3  1  0
  3  4  2  0
  4  5  1  0
  5  6  2  0
  6  7  1  0
  7  8  1  0
  8  9  1  0
  9 10  1  0
  9 11  1  0
  9 12  1  0
  6 13  1  0
 13 14  2  0
  2 15  1  0
 15 16  1  0
 16 17  1  0
 17 18  2  0
 18 19  1  0
 19 20  1  0
 20 21  2  0
 20 22  1  0
 22 23  1  0
 23 24  1  0
 24 25  2  0
 25 26  1  0
 26 27  2  0
 27 28  1  0
 28 29  2  0
 19 30  2  0
 30 31  1  0
 31 32  2  0
 32 33  1  0
 33 34  1  0
 34 15  1  0
 32 17  1  0
 14  3  1  0
 29 24  1  0
  4 35  1  0
  8 36  1  0
  8 37  1  0
 13 38  1  0
 14 39  1  0
 16 40  1  0
 16 41  1  0
 22 42  1  0
 23 43  1  0
 23 44  1  0
 25 45  1  0
 26 46  1  0
 28 47  1  0
 29 48  1  0
 30 49  1  0
 31 50  1  0
 33 51  1  0
 33 52  1  0
 34 53  1  0
 34 54  1  0
M  END
>  <type>  (6) 
designed

$$$$
A07
     RDKit          3D

 55 58  0  0  0  0  0  0  0  0999 V2000
   -1.8276   -0.2524    2.1917 O   0  0  0  0  0  0  0  0  0  0  0  0
   -2.2394   -0.0705    1.0487 C   0  0  0  0  0  0  0  0  0  0  0  0
   -3.6938    0.0705    0.8720 C   0  0  0  0  0  0  0  0  0  0  0  0
   -4.5317   -0.9092    1.3857 C   0  0  0  0  0  0  0  0  0  0  0  0
   -5.8842   -0.8663    1.2907 N   0  0  0  0  0  0  0  0  0  0  0  0
   -6.4125    0.2191    0.6856 C   0  0  0  0  0  0  0  0  0  0  0  0
   -7.7797    0.3312    0.5556 O   0  0  0  0  0  0  0  0  0  0  0  0
   -8.4917   -0.7465    1.1813 C   0  0  0  0  0  0  0  0  0  0  0  0
   -9.9871   -0.5527    1.0149 C   0  0  0  0  0  0  0  0  0  0  0  0
  -10.4093    0.6026    1.5757 F   0  0  0  0  0  0  0  0  0  0  0  0
  -10.6680   -1.5609    1.6096 F   0  0  0  0  0  0  0  0  0  0  0  0
  -10.3475   -0.5383   -0.2880 F   0  0  0  0  0  0  0  0  0  0  0  0
   -5.6562    1.2619    0.1695 C   0  0  0  0  0  0  0  0  0  0  0  0
   -4.2685    1.1917    0.2736 C   0  0  0  0  0  0  0  0  0  0  0  0
   -1.3979    0.0034   -0.0579 N   0  0  0  0  0  0  0  0  0  0  0  0
    0.0383    0.1033    0.2291 C   0  0  0  0  0  0  0  0  0  0  0  0
    0.9572    0.1905   -0.9716 C   0  0  0  0  0  0  0  0  0  0  0  0
    2.2264    0.6144   -0.7488 N   0  0  0  0  0  0  0  0  0  0  0  0
    3.0681    0.6460   -1.8218 C   0  0  0  0  0  0  0  0  0  0  0  0
    4.4667    1.1140   -1.5523 C   0  0  0  0  0  0  0  0  0  0  0  0
    5.3066    1.1722   -2.4432 O   0  0  0  0  0  0  0  0  0  0  0  0
    4.7046    1.4496   -0.2378 N   0  0  0  0  0  0  0  0  0  0  0  0
    6.0185    1.7605    0.2628 C   0  0  0  0  0  0  0  0  0  0  0  0
    6.6626    0.5430    0.8772 C   0  0  0  0  0  0  0  0  0  0  0  0
    6.5648    0.2995    2.2564 C   0  0  0  0  0  0  0  0  0  0  0  0
    7.1435   -0.8425    2.8127 C   0  0  0  0  0  0  0  0  0  0  0  0
    7.8110   -1.7435    1.9916 C   0  0  0  0  0  0  0  0  0  0  0  0
    8.3614   -2.8403    2.5281 F   0  0  0  0  0  0  0  0  0  0  0  0
    7.9111   -1.5264    0.6230 C   0  0  0  0  0  0  0  0  0  0  0  0
    7.3347   -0.3852    0.0647 C   0  0  0  0  0  0  0  0  0  0  0  0
    2.7024    0.2652   -3.1044 C   0  0  0  0  0  0  0  0  0  0  0  0
    1.3983   -0.1692   -3.3111 C   0  0  0  0  0  0  0  0  0  0  0  0
    0.5057   -0.1983   -2.2368 C   0  0  0  0  0  0  0  0  0  0  0  0
   -0.9094   -0.6699   -2.4020 C   0  0  0  0  0  0  0  0  0  0  0  0
   -1.8363    0.0901   -1.4535 C   0  0  0  0  0  0  0  0  0  0  0  0
   -4.1301   -1.7796    1.8992 H   0  0  0  0  0  0  0  0  0  0  0  0
   -8.2126   -1.7005    0.7180 H   0  0  0  0  0  0  0  0  0  0  0  0
   -8.2620   -0.7747    2.2534 H   0  0  0  0  0  0  0  0  0  0  0  0
   -6.1402    2.1156   -0.2922 H   0  0  0  0  0  0  0  0  0  0  0  0
   -3.6524    2.0079   -0.0916 H   0  0  0  0  0  0  0  0  0  0  0  0
    0.1867    0.9911    0.8567 H   0  0  0  0  0  0  0  0  0  0  0  0
    0.3240   -0.7752    0.8209 H   0  0  0  0  0  0  0  0  0  0  0  0
    3.9526    1.2483    0.4149 H   0  0  0  0  0  0  0  0  0  0  0  0
    5.9057    2.5519    1.0120 H   0  0  0  0  0  0  0  0  0  0  0  0
    6.6500    2.1595   -0.5391 H   0  0  0  0  0  0  0  0  0  0  0  0
    6.0357    0.9960    2.9032 H   0  0  0  0  0  0  0  0  0  0  0  0
    7.0738   -1.0373    3.8779 H   0  0  0  0  0  0  0  0  0  0  0  0
    8.4302   -2.2465   -0.0005 H   0  0  0  0  0  0  0  0  0  0  0  0
    7.4013   -0.2207   -1.0101 H   0  0  0  0  0  0  0  0  0  0  0  0
    3.4167    0.3022   -3.9208 H   0  0  0  0  0  0  0  0  0  0  0  0
    1.0864   -0.4801   -4.3052 H   0  0  0  0  0  0  0  0  0  0  0  0
   -1.2488   -0.5162   -3.4327 H   0  0  0  0  0  0  0  0  0  0  0  0
   -0.9469   -1.7452   -2.1897 H   0  0  0  0  0  0  0  0  0  0  0  0
   -1.8618    1.1552   -1.7145 H   0  0  0  0  0  0  0  0  0  0  0  0
   -2.8494   -0.3084   -1.5598 H   0  0  0  0  0  0  0  0  0  0  0  0
  1  2  2  0
  2  3  1  0
  3  4  2  0
  4  5  1  0
  5  6  2  0
  6  7  1  0
  7  8  1  0
  8  9  1  0
  9 10  1  0
  9 11  1  0
  9 12  1  0
  6 13  1  0
 13 14  2  0
  2 15  1  0
 15 16  1  0
 16 17  1  0
 17 18  2  0
 18 19  1  0
 19 20  1  0
 20 21  2  0
 20 22  1  0
 22 23  1  0
 23 24  1  0
 24 25  2  0
 25 26  1  0
 26 27  2  0
 27 28  1  0
 27 29  1  0
 29 30  2  0
 19 31  2  0
 31 32  1  0
 32 33  2  0
 33 34  1  0
 34 35  1  0
 35 15  1  0
 33 17  1  0
 14  3  1  0
 30 24  1  0
  4 36  1  0
  8 37  1  0
  8 38  1  0
 13 39  1  0
 14 40  1  0
 16 41  1  0
 16 42  1  0
 22 43  1  0
 23 44  1  0
 23 45  1  0
 25 46  1  0
 26 47  1  0
 29 48  1  0
 30 49  1  0
 31 50  1  0
 32 51  1  0
 34 52  1  0
 34 53  1  0
 35 54  1  0
 35 55  1  0
M  END
>  <type>  (7) 
designed

$$$$
A08
     RDKit          3D

 58 61  0  0  0  0  0  0  0  0999 V2000
    2.1085    1.0413   -1.9575 O   0  0  0  0  0  0  0  0  0  0  0  0
    2.6098    0.4269   -1.0196 C   0  0  0  0  0  0  0  0  0  0  0  0
    4.0696    0.5116   -0.8708 C   0  0  0  0  0  0  0  0  0  0  0  0
    4.6588    1.7550   -0.6955 C   0  0  0  0  0  0  0  0  0  0  0  0
    5.9963    1.9385   -0.5645 N   0  0  0  0  0  0  0  0  0  0  0  0
    6.7681    0.8333   -0.6506 C   0  0  0  0  0  0  0  0  0  0  0  0
    8.1365    0.9447   -0.5317 O   0  0  0  0  0  0  0  0  0  0  0  0
    8.5771    2.3020   -0.3777 C   0  0  0  0  0  0  0  0  0  0  0  0
   10.0894    2.3514   -0.2673 C   0  0  0  0  0  0  0  0  0  0  0  0
   10.5362    1.6519    0.8002 F   0  0  0  0  0  0  0  0  0  0  0  0
   10.5157    3.6280   -0.1185 F   0  0  0  0  0  0  0  0  0  0  0  0
   10.6896    1.8528   -1.3709 F   0  0  0  0  0  0  0  0  0  0  0  0
    6.2694   -0.4458   -0.8560 C   0  0  0  0  0  0  0  0  0  0  0  0
    4.8913   -0.6100   -0.9765 C   0  0  0  0  0  0  0  0  0  0  0  0
    1.8674   -0.3259   -0.1136 N   0  0  0  0  0  0  0  0  0  0  0  0
    0.4737   -0.5921   -0.4834 C   0  0  0  0  0  0  0  0  0  0  0  0
   -0.3962   -1.2086    0.5924 C   0  0  0  0  0  0  0  0  0  0  0  0
   -1.6610   -1.5442    0.2317 N   0  0  0  0  0  0  0  0  0  0  0  0
   -2.4618   -2.0846    1.1945 C   0  0  0  0  0  0  0  0  0  0  0  0
   -3.8575   -2.4363    0.7740 C   0  0  0  0  0  0  0  0  0  0  0  0
   -4.6624   -2.9198    1.5618 O   0  0  0  0  0  0  0  0  0  0  0  0
   -4.1353   -2.1546   -0.5456 N   0  0  0  0  0  0  0  0  0  0  0  0
   -5.4625   -2.2418   -1.0981 C   0  0  0  0  0  0  0  0  0  0  0  0
   -6.1456   -0.8982   -1.0703 C   0  0  0  0  0  0  0  0  0  0  0  0
   -6.8108   -0.4692    0.0863 C   0  0  0  0  0  0  0  0  0  0  0  0
   -7.4245    0.7843    0.1295 C   0  0  0  0  0  0  0  0  0  0  0  0
   -7.3738    1.6406   -0.9799 C   0  0  0  0  0  0  0  0  0  0  0  0
   -8.0543    2.9860   -0.9400 C   0  0  0  0  0  0  0  0  0  0  0  0
   -8.0627    3.5462    0.3023 F   0  0  0  0  0  0  0  0  0  0  0  0
   -9.3579    2.9194   -1.3281 F   0  0  0  0  0  0  0  0  0  0  0  0
   -7.4693    3.9076   -1.7563 F   0  0  0  0  0  0  0  0  0  0  0  0
   -6.7070    1.2105   -2.1369 C   0  0  0  0  0  0  0  0  0  0  0  0
   -6.0927   -0.0438   -2.1792 C   0  0  0  0  0  0  0  0  0  0  0  0
   -2.0587   -2.3034    2.5027 C   0  0  0  0  0  0  0  0  0  0  0  0
   -0.7594   -1.9553    2.8523 C   0  0  0  0  0  0  0  0  0  0  0  0
    0.0937   -1.4120    1.8868 C   0  0  0  0  0  0  0  0  0  0  0  0
    1.4943   -0.9998    2.2378 C   0  0  0  0  0  0  0  0  0  0  0  0
    2.4151   -1.0712    1.0206 C   0  0  0  0  0  0  0  0  0  0  0  0
    4.0589    2.6606   -0.6521 H   0  0  0  0  0  0  0  0  0  0  0  0
    8.1485    2.7343    0.5348 H   0  0  0  0  0  0  0  0  0  0  0  0
    8.2723    2.8969   -1.2475 H   0  0  0  0  0  0  0  0  0  0  0  0
    6.9428   -1.2929   -0.9312 H   0  0  0  0  0  0  0  0  0  0  0  0
    4.4717   -1.5937   -1.1646 H   0  0  0  0  0  0  0  0  0  0  0  0
    0.4978   -1.2738   -1.3424 H   0  0  0  0  0  0  0  0  0  0  0  0
    0.0110    0.3458   -0.8126 H   0  0  0  0  0  0  0  0  0  0  0  0
   -3.4145   -1.6475   -1.0506 H   0  0  0  0  0  0  0  0  0  0  0  0
   -6.0576   -2.9818   -0.5509 H   0  0  0  0  0  0  0  0  0  0  0  0
   -5.3664   -2.6001   -2.1289 H   0  0  0  0  0  0  0  0  0  0  0  0
   -6.8464   -1.1145    0.9638 H   0  0  0  0  0  0  0  0  0  0  0  0
   -7.9385    1.0926    1.0389 H   0  0  0  0  0  0  0  0  0  0  0  0
   -6.6585    1.8564   -3.0126 H   0  0  0  0  0  0  0  0  0  0  0  0
   -5.5716   -0.3496   -3.0842 H   0  0  0  0  0  0  0  0  0  0  0  0
   -2.7407   -2.7288    3.2319 H   0  0  0  0  0  0  0  0  0  0  0  0
   -0.4195   -2.1079    3.8740 H   0  0  0  0  0  0  0  0  0  0  0  0
    1.4644    0.0263    2.6243 H   0  0  0  0  0  0  0  0  0  0  0  0
    1.8968   -1.6461    3.0264 H   0  0  0  0  0  0  0  0  0  0  0  0
    2.5463   -2.1094    0.6916 H   0  0  0  0  0  0  0  0  0  0  0  0
    3.3959   -0.6820    1.3058 H   0  0  0  0  0  0  0  0  0  0  0  0
  1  2  2  0
  2  3  1  0
  3  4  2  0
  4  5  1  0
  5  6  2  0
  6  7  1  0
  7  8  1  0
  8  9  1  0
  9 10  1  0
  9 11  1  0
  9 12  1  0
  6 13  1  0
 13 14  2  0
  2 15  1  0
 15 16  1  0
 16 17  1  0
 17 18  2  0
 18 19  1  0
 19 20  1  0
 20 21  2  0
 20 22  1  0
 22 23  1  0
 23 24  1  0
 24 25  2  0
 25 26  1  0
 26 27  2  0
 27 28  1  0
 28 29  1  0
 28 30  1  0
 28 31  1  0
 27 32  1  0
 32 33  2  0
 19 34  2  0
 34 35  1  0
 35 36  2  0
 36 37  1  0
 37 38  1  0
 38 15  1  0
 36 17  1  0
 14  3  1  0
 33 24  1  0
  4 39  1  0
  8 40  1  0
  8 41  1  0
 13 42  1  0
 14 43  1  0
 16 44  1  0
 16 45  1  0
 22 46  1  0
 23 47  1  0
 23 48  1  0
 25 49  1  0
 26 50  1  0
 32 51  1  0
 33 52  1  0
 34 53  1  0
 35 54  1  0
 37 55  1  0
 37 56  1  0
 38 57  1  0
 38 58  1  0
M  END
>  <type>  (8) 
designed

$$$$
A09
     RDKit          3D

 58 61  0  0  0  0  0  0  0  0999 V2000
    1.8327    0.7371   -2.2649 O   0  0  0  0  0  0  0  0  0  0  0  0
    2.3368    0.0218   -1.4041 C   0  0  0  0  0  0  0  0  0  0  0  0
    3.7909   -0.1757   -1.4648 C   0  0  0  0  0  0  0  0  0  0  0  0
    4.6173    0.3434   -0.4784 C   0  0  0  0  0  0  0  0  0  0  0  0
    5.9652    0.2049   -0.4806 N   0  0  0  0  0  0  0  0  0  0  0  0
    6.5015   -0.4451   -1.5379 C   0  0  0  0  0  0  0  0  0  0  0  0
    7.8674   -0.6143   -1.6138 O   0  0  0  0  0  0  0  0  0  0  0  0
    8.5686   -0.0135   -0.5144 C   0  0  0  0  0  0  0  0  0  0  0  0
   10.0650   -0.2085   -0.6764 C   0  0  0  0  0  0  0  0  0  0  0  0
   10.3982   -1.5179   -0.7241 F   0  0  0  0  0  0  0  0  0  0  0  0
   10.5293    0.3804   -1.8008 F   0  0  0  0  0  0  0  0  0  0  0  0
   10.7313    0.3381    0.3692 F   0  0  0  0  0  0  0  0  0  0  0  0
    5.7555   -0.9693   -2.5854 C   0  0  0  0  0  0  0  0  0  0  0  0
    4.3702   -0.8267   -2.5509 C   0  0  0  0  0  0  0  0  0  0  0  0
    1.6037   -0.5964   -0.3939 N   0  0  0  0  0  0  0  0  0  0  0  0
    0.2212   -0.1360   -0.2298 C   0  0  0  0  0  0  0  0  0  0  0  0
   -0.6325   -0.9174    0.7480 C   0  0  0  0  0  0  0  0  0  0  0  0
   -1.8773   -0.4326    0.9890 N   0  0  0  0  0  0  0  0  0  0  0  0
   -2.6590   -1.1287    1.8644 C   0  0  0  0  0  0  0  0  0  0  0  0
   -4.0303   -0.5739    2.1083 C   0  0  0  0  0  0  0  0  0  0  0  0
   -4.8331   -1.1385    2.8419 O   0  0  0  0  0  0  0  0  0  0  0  0
   -4.2955    0.5961    1.4234 N   0  0  0  0  0  0  0  0  0  0  0  0
   -5.6171    1.1975    1.3822 C   0  0  0  0  0  0  0  0  0  0  0  0
   -5.4909    2.7053    1.0939 C   0  0  0  0  0  0  0  0  0  0  0  0
   -6.7237    3.2462    0.3815 C   0  0  0  0  0  0  0  0  0  0  0  0
   -6.9226    2.5606   -0.9638 C   0  0  0  0  0  0  0  0  0  0  0  0
   -8.2405    2.6207   -1.2851 F   0  0  0  0  0  0  0  0  0  0  0  0
   -6.2663    3.2572   -1.9273 F   0  0  0  0  0  0  0  0  0  0  0  0
   -6.4517    1.1114   -1.0084 C   0  0  0  0  0  0  0  0  0  0  0  0
   -6.5255    0.4668    0.3715 C   0  0  0  0  0  0  0  0  0  0  0  0
   -2.2595   -2.2914    2.5048 C   0  0  0  0  0  0  0  0  0  0  0  0
   -0.9820   -2.7728    2.2435 C   0  0  0  0  0  0  0  0  0  0  0  0
   -0.1465   -2.0756    1.3637 C   0  0  0  0  0  0  0  0  0  0  0  0
    1.2300   -2.5810    1.0389 C   0  0  0  0  0  0  0  0  0  0  0  0
    2.1669   -1.4331    0.6675 C   0  0  0  0  0  0  0  0  0  0  0  0
    4.2131    0.9004    0.3622 H   0  0  0  0  0  0  0  0  0  0  0  0
    8.3623    1.0637   -0.4776 H   0  0  0  0  0  0  0  0  0  0  0  0
    8.2565   -0.4821    0.4282 H   0  0  0  0  0  0  0  0  0  0  0  0
    6.2446   -1.4702   -3.4141 H   0  0  0  0  0  0  0  0  0  0  0  0
    3.7543   -1.2079   -3.3608 H   0  0  0  0  0  0  0  0  0  0  0  0
    0.2712    0.9068    0.1115 H   0  0  0  0  0  0  0  0  0  0  0  0
   -0.2696   -0.1450   -1.2110 H   0  0  0  0  0  0  0  0  0  0  0  0
   -3.5808    0.8656    0.7485 H   0  0  0  0  0  0  0  0  0  0  0  0
   -6.0616    1.0641    2.3770 H   0  0  0  0  0  0  0  0  0  0  0  0
   -5.3328    3.2439    2.0357 H   0  0  0  0  0  0  0  0  0  0  0  0
   -4.6076    2.9109    0.4747 H   0  0  0  0  0  0  0  0  0  0  0  0
   -6.6208    4.3265    0.2313 H   0  0  0  0  0  0  0  0  0  0  0  0
   -7.6070    3.0966    1.0125 H   0  0  0  0  0  0  0  0  0  0  0  0
   -7.0709    0.5452   -1.7137 H   0  0  0  0  0  0  0  0  0  0  0  0
   -5.4207    1.0642   -1.3806 H   0  0  0  0  0  0  0  0  0  0  0  0
   -7.5642    0.5134    0.7246 H   0  0  0  0  0  0  0  0  0  0  0  0
   -6.2682   -0.5965    0.3009 H   0  0  0  0  0  0  0  0  0  0  0  0
   -2.9269   -2.8103    3.1867 H   0  0  0  0  0  0  0  0  0  0  0  0
   -0.6443   -3.6872    2.7264 H   0  0  0  0  0  0  0  0  0  0  0  0
    1.6515   -3.1217    1.8942 H   0  0  0  0  0  0  0  0  0  0  0  0
    1.1491   -3.2847    0.2009 H   0  0  0  0  0  0  0  0  0  0  0  0
    3.1287   -1.8541    0.3601 H   0  0  0  0  0  0  0  0  0  0  0  0
    2.3464   -0.7806    1.5316 H   0  0  0  0  0  0  0  0  0  0  0  0
  1  2  2  0
  2  3  1  0
  3  4  2  0
  4  5  1  0
  5  6  2  0
  6  7  1  0
  7  8  1  0
  8  9  1  0
  9 10  1  0
  9 11  1  0
  9 12  1  0
  6 13  1  0
 13 14  2  0
  2 15  1  0
 15 16  1  0
 16 17  1  0
 17 18  2  0
 18 19  1  0
 19 20  1  0
 20 21  2  0
 20 22  1  0
 22 23  1  0
 23 24  1  0
 24 25  1  0
 25 26  1  0
 26 27  1  0
 26 28  1  0
 26 29  1  0
 29 30  1  0
 19 31  2  0
 31 32  1  0
 32 33  2  0
 33 34  1  0
 34 35  1  0
 35 15  1  0
 33 17  1  0
 14  3  1  0
 30 23  1  0
  4 36  1  0
  8 37  1  0
  8 38  1  0
 13 39  1  0
 14 40  1  0
 16 41  1  0
 16 42  1  0
 22 43  1  0
 23 44  1  0
 24 45  1  0
 24 46  1  0
 25 47  1  0
 25 48  1  0
 29 49  1  0
 29 50  1  0
 30 51  1  0
 30 52  1  0
 31 53  1  0
 32 54  1  0
 34 55  1  0
 34 56  1  0
 35 57  1  0
 35 58  1  0
M  END
>  <type>  (9) 
designed

$$$$
B01
     RDKit          3D

 60 65  0  0  0  0  0  0  0  0999 V2000
    3.4408    1.4937    1.3143 O   0  0  0  0  0  0  0  0  0  0  0  0
    3.9832    0.4704    0.8984 C   0  0  0  0  0  0  0  0  0  0  0  0
    5.4218    0.3895    0.7294 C   0  0  0  0  0  0  0  0  0  0  0  0
    6.3479   -0.5915    1.0424 C   0  0  0  0  0  0  0  0  0  0  0  0
    7.6229   -0.0961    0.6654 C   0  0  0  0  0  0  0  0  0  0  0  0
    8.9424   -0.5788    0.7054 C   0  0  0  0  0  0  0  0  0  0  0  0
    9.9731    0.2426    0.2251 C   0  0  0  0  0  0  0  0  0  0  0  0
    9.7029    1.5170   -0.2812 C   0  0  0  0  0  0  0  0  0  0  0  0
    8.3972    2.0151   -0.3254 C   0  0  0  0  0  0  0  0  0  0  0  0
    7.3960    1.1759    0.1571 C   0  0  0  0  0  0  0  0  0  0  0  0
    6.0705    1.4748    0.2029 O   0  0  0  0  0  0  0  0  0  0  0  0
    3.2280   -0.6763    0.6017 N   0  0  0  0  0  0  0  0  0  0  0  0
    1.7854   -0.6106    0.8353 C   0  0  0  0  0  0  0  0  0  0  0  0
    0.9848   -0.4395   -0.4448 C   0  0  0  0  0  0  0  0  0  0  0  0
   -0.3160   -0.0786   -0.3100 N   0  0  0  0  0  0  0  0  0  0  0  0
   -1.0463    0.0448   -1.4561 C   0  0  0  0  0  0  0  0  0  0  0  0
   -2.4790    0.4522   -1.2845 C   0  0  0  0  0  0  0  0  0  0  0  0
   -3.2433    0.5250   -2.2388 O   0  0  0  0  0  0  0  0  0  0  0  0
   -2.8305    0.7189    0.0203 N   0  0  0  0  0  0  0  0  0  0  0  0
   -4.1855    1.0082    0.4322 C   0  0  0  0  0  0  0  0  0  0  0  0
   -4.9920   -0.2200    0.8141 C   0  0  0  0  0  0  0  0  0  0  0  0
   -4.3128   -1.3648    1.2889 C   0  0  0  0  0  0  0  0  0  0  0  0
   -4.9837   -2.5571    1.5647 C   0  0  0  0  0  0  0  0  0  0  0  0
   -6.3556   -2.6369    1.3791 C   0  0  0  0  0  0  0  0  0  0  0  0
   -7.0607   -1.5168    0.9421 C   0  0  0  0  0  0  0  0  0  0  0  0
   -6.4004   -0.2970    0.6864 C   0  0  0  0  0  0  0  0  0  0  0  0
   -7.2159    0.8210    0.3294 N   0  0  0  0  0  0  0  0  0  0  0  0
   -8.4075    0.7617   -0.3731 C   0  0  0  0  0  0  0  0  0  0  0  0
   -8.9228    2.0320   -0.5070 C   0  0  0  0  0  0  0  0  0  0  0  0
   -8.0482    2.9072    0.1658 C   0  0  0  0  0  0  0  0  0  0  0  0
   -7.0252    2.1430    0.6837 C   0  0  0  0  0  0  0  0  0  0  0  0
   -0.5436   -0.1927   -2.7264 C   0  0  0  0  0  0  0  0  0  0  0  0
    0.7868   -0.5788   -2.8422 C   0  0  0  0  0  0  0  0  0  0  0  0
    1.5683   -0.7213   -1.6912 C   0  0  0  0  0  0  0  0  0  0  0  0
    3.0238   -1.1065   -1.8036 C   0  0  0  0  0  0  0  0  0  0  0  0
    3.5948   -1.6021   -0.4699 C   0  0  0  0  0  0  0  0  0  0  0  0
    6.1269   -1.5453    1.4997 H   0  0  0  0  0  0  0  0  0  0  0  0
    9.1656   -1.5651    1.1005 H   0  0  0  0  0  0  0  0  0  0  0  0
   10.9992   -0.1173    0.2511 H   0  0  0  0  0  0  0  0  0  0  0  0
   10.5211    2.1353   -0.6448 H   0  0  0  0  0  0  0  0  0  0  0  0
    8.1692    3.0020   -0.7092 H   0  0  0  0  0  0  0  0  0  0  0  0
    1.5292    0.1834    1.5441 H   0  0  0  0  0  0  0  0  0  0  0  0
    1.4933   -1.5647    1.2904 H   0  0  0  0  0  0  0  0  0  0  0  0
   -2.1010    0.5949    0.7155 H   0  0  0  0  0  0  0  0  0  0  0  0
   -4.1078    1.6702    1.3006 H   0  0  0  0  0  0  0  0  0  0  0  0
   -4.6628    1.5412   -0.3959 H   0  0  0  0  0  0  0  0  0  0  0  0
   -3.2337   -1.3493    1.4268 H   0  0  0  0  0  0  0  0  0  0  0  0
   -4.4293   -3.4238    1.9144 H   0  0  0  0  0  0  0  0  0  0  0  0
   -6.8823   -3.5639    1.5898 H   0  0  0  0  0  0  0  0  0  0  0  0
   -8.1417   -1.6038    0.8590 H   0  0  0  0  0  0  0  0  0  0  0  0
   -8.7733   -0.1752   -0.7694 H   0  0  0  0  0  0  0  0  0  0  0  0
   -9.8329    2.2926   -1.0319 H   0  0  0  0  0  0  0  0  0  0  0  0
   -8.1575    3.9779    0.2816 H   0  0  0  0  0  0  0  0  0  0  0  0
   -6.2050    2.4445    1.3167 H   0  0  0  0  0  0  0  0  0  0  0  0
   -1.1723   -0.0770   -3.6034 H   0  0  0  0  0  0  0  0  0  0  0  0
    1.2079   -0.7636   -3.8276 H   0  0  0  0  0  0  0  0  0  0  0  0
    3.5823   -0.2226   -2.1362 H   0  0  0  0  0  0  0  0  0  0  0  0
    3.1500   -1.8906   -2.5591 H   0  0  0  0  0  0  0  0  0  0  0  0
    4.6743   -1.7230   -0.5660 H   0  0  0  0  0  0  0  0  0  0  0  0
    3.1789   -2.5845   -0.2135 H   0  0  0  0  0  0  0  0  0  0  0  0
  1  2  2  0
  2  3  1  0
  3  4  2  0
  4  5  1  0
  5  6  2  0
  6  7  1  0
  7  8  2  0
  8  9  1  0
  9 10  2  0
 10 11  1  0
  2 12  1  0
 12 13  1  0
 13 14  1  0
 14 15  2  0
 15 16  1  0
 16 17  1  0
 17 18  2  0
 17 19  1  0
 19 20  1  0
 20 21  1  0
 21 22  2  0
 22 23  1  0
 23 24  2  0
 24 25  1  0
 25 26  2  0
 26 27  1  0
 27 28  1  0
 28 29  2  0
 29 30  1  0
 30 31  2  0
 16 32  2  0
 32 33  1  0
 33 34  2  0
 34 35  1  0
 35 36  1  0
 36 12  1  0
 34 14  1  0
 11  3  1  0
 10  5  1  0
 26 21  1  0
 31 27  1  0
  4 37  1  0
  6 38  1  0
  7 39  1  0
  8 40  1  0
  9 41  1  0
 13 42  1  0
 13 43  1  0
 19 44  1  0
 20 45  1  0
 20 46  1  0
 22 47  1  0
 23 48  1  0
 24 49  1  0
 25 50  1  0
 28 51  1  0
 29 52  1  0
 30 53  1  0
 31 54  1  0
 32 55  1  0
 33 56  1  0
 35 57  1  0
 35 58  1  0
 36 59  1  0
 36 60  1  0
M  END
>  <type>  (10) 
designed

$$$$
B02
     RDKit          3D

 66 71  0  0  0  0  0  0  0  0999 V2000
    3.2642   -0.0083    2.5582 O   0  0  0  0  0  0  0  0  0  0  0  0
    4.0912   -0.2062    1.6647 C   0  0  0  0  0  0  0  0  0  0  0  0
    5.4933   -0.4030    1.9926 C   0  0  0  0  0  0  0  0  0  0  0  0
    6.0704   -0.8410    3.1732 C   0  0  0  0  0  0  0  0  0  0  0  0
    7.4760   -0.7979    2.9946 C   0  0  0  0  0  0  0  0  0  0  0  0
    8.6005   -1.1131    3.7773 C   0  0  0  0  0  0  0  0  0  0  0  0
    9.8764   -0.9145    3.2296 C   0  0  0  0  0  0  0  0  0  0  0  0
   10.0355   -0.4128    1.9347 C   0  0  0  0  0  0  0  0  0  0  0  0
    8.9285   -0.0932    1.1417 C   0  0  0  0  0  0  0  0  0  0  0  0
    7.6755   -0.3031    1.7128 C   0  0  0  0  0  0  0  0  0  0  0  0
    6.4817   -0.0520    1.1104 O   0  0  0  0  0  0  0  0  0  0  0  0
    3.6703   -0.2457    0.3269 N   0  0  0  0  0  0  0  0  0  0  0  0
    2.3586    0.3479    0.0583 C   0  0  0  0  0  0  0  0  0  0  0  0
    1.8675    0.2878   -1.3726 C   0  0  0  0  0  0  0  0  0  0  0  0
    0.7463    0.9951   -1.6633 N   0  0  0  0  0  0  0  0  0  0  0  0
    0.2703    0.9130   -2.9391 C   0  0  0  0  0  0  0  0  0  0  0  0
   -0.9770    1.6932   -3.2315 C   0  0  0  0  0  0  0  0  0  0  0  0
   -1.5177    1.6504   -4.3309 O   0  0  0  0  0  0  0  0  0  0  0  0
   -1.4407    2.4290   -2.1637 N   0  0  0  0  0  0  0  0  0  0  0  0
   -2.7230    3.0851   -2.1649 C   0  0  0  0  0  0  0  0  0  0  0  0
   -3.7505    2.2454   -1.4540 C   0  0  0  0  0  0  0  0  0  0  0  0
   -4.4414    1.2399   -2.1363 C   0  0  0  0  0  0  0  0  0  0  0  0
   -5.3797    0.4384   -1.4724 C   0  0  0  0  0  0  0  0  0  0  0  0
   -5.6455    0.5979   -0.1053 C   0  0  0  0  0  0  0  0  0  0  0  0
   -6.5813   -0.1762    0.5993 N   0  0  0  0  0  0  0  0  0  0  0  0
   -7.5528   -0.9699   -0.1790 C   0  0  0  0  0  0  0  0  0  0  0  0
   -8.6361   -1.5663    0.7495 C   0  0  0  0  0  0  0  0  0  0  0  0
   -8.0815   -2.3810    1.8518 N   0  0  0  0  0  0  0  0  0  0  0  0
   -7.1329   -1.5406    2.6128 C   0  0  0  0  0  0  0  0  0  0  0  0
   -6.0104   -0.9178    1.7486 C   0  0  0  0  0  0  0  0  0  0  0  0
   -4.9445    1.6163    0.5622 C   0  0  0  0  0  0  0  0  0  0  0  0
   -4.0073    2.4237   -0.0933 C   0  0  0  0  0  0  0  0  0  0  0  0
    0.8614    0.1552   -3.9381 C   0  0  0  0  0  0  0  0  0  0  0  0
    2.0115   -0.5582   -3.6217 C   0  0  0  0  0  0  0  0  0  0  0  0
    2.5331   -0.4864   -2.3264 C   0  0  0  0  0  0  0  0  0  0  0  0
    3.7536   -1.2650   -1.9351 C   0  0  0  0  0  0  0  0  0  0  0  0
    4.5244   -0.5641   -0.8165 C   0  0  0  0  0  0  0  0  0  0  0  0
    5.5268   -1.1491    4.0556 H   0  0  0  0  0  0  0  0  0  0  0  0
    8.4889   -1.5006    4.7861 H   0  0  0  0  0  0  0  0  0  0  0  0
   10.7556   -1.1523    3.8248 H   0  0  0  0  0  0  0  0  0  0  0  0
   11.0378   -0.2643    1.5370 H   0  0  0  0  0  0  0  0  0  0  0  0
    9.0350    0.3016    0.1387 H   0  0  0  0  0  0  0  0  0  0  0  0
    2.4112    1.4006    0.3639 H   0  0  0  0  0  0  0  0  0  0  0  0
    1.6183   -0.1491    0.6977 H   0  0  0  0  0  0  0  0  0  0  0  0
   -0.9644    2.2714   -1.2804 H   0  0  0  0  0  0  0  0  0  0  0  0
   -3.0475    3.2967   -3.1901 H   0  0  0  0  0  0  0  0  0  0  0  0
   -2.5990    4.0482   -1.6575 H   0  0  0  0  0  0  0  0  0  0  0  0
   -4.2473    1.0684   -3.1940 H   0  0  0  0  0  0  0  0  0  0  0  0
   -5.8797   -0.3279   -2.0562 H   0  0  0  0  0  0  0  0  0  0  0  0
   -7.0429   -1.7892   -0.7021 H   0  0  0  0  0  0  0  0  0  0  0  0
   -8.0526   -0.3382   -0.9240 H   0  0  0  0  0  0  0  0  0  0  0  0
   -9.3087   -2.1964    0.1579 H   0  0  0  0  0  0  0  0  0  0  0  0
   -9.2482   -0.7601    1.1729 H   0  0  0  0  0  0  0  0  0  0  0  0
   -7.5562   -3.1527    1.4398 H   0  0  0  0  0  0  0  0  0  0  0  0
   -7.6914   -0.7424    3.1182 H   0  0  0  0  0  0  0  0  0  0  0  0
   -6.6807   -2.1535    3.4008 H   0  0  0  0  0  0  0  0  0  0  0  0
   -5.3500   -1.7135    1.3784 H   0  0  0  0  0  0  0  0  0  0  0  0
   -5.4158   -0.2682    2.4000 H   0  0  0  0  0  0  0  0  0  0  0  0
   -5.1457    1.8119    1.6126 H   0  0  0  0  0  0  0  0  0  0  0  0
   -3.4883    3.1952    0.4702 H   0  0  0  0  0  0  0  0  0  0  0  0
    0.4348    0.1184   -4.9354 H   0  0  0  0  0  0  0  0  0  0  0  0
    2.4929   -1.1666   -4.3839 H   0  0  0  0  0  0  0  0  0  0  0  0
    4.4180   -1.3947   -2.7971 H   0  0  0  0  0  0  0  0  0  0  0  0
    3.4348   -2.2604   -1.6020 H   0  0  0  0  0  0  0  0  0  0  0  0
    5.3383   -1.2288   -0.5143 H   0  0  0  0  0  0  0  0  0  0  0  0
    4.9579    0.3787   -1.1727 H   0  0  0  0  0  0  0  0  0  0  0  0
  1  2  2  0
  2  3  1  0
  3  4  2  0
  4  5  1  0
  5  6  2  0
  6  7  1  0
  7  8  2  0
  8  9  1  0
  9 10  2  0
 10 11  1  0
  2 12  1  0
 12 13  1  0
 13 14  1  0
 14 15  2  0
 15 16  1  0
 16 17  1  0
 17 18  2  0
 17 19  1  0
 19 20  1  0
 20 21  1  0
 21 22  2  0
 22 23  1  0
 23 24  2  0
 24 25  1  0
 25 26  1  0
 26 27  1  0
 27 28  1  0
 28 29  1  0
 29 30  1  0
 24 31  1  0
 31 32  2  0
 16 33  2  0
 33 34  1  0
 34 35  2  0
 35 36  1  0
 36 37  1  0
 37 12  1  0
 35 14  1  0
 11  3  1  0
 10  5  1  0
 32 21  1  0
 30 25  1  0
  4 38  1  0
  6 39  1  0
  7 40  1  0
  8 41  1  0
  9 42  1  0
 13 43  1  0
 13 44  1  0
 19 45  1  0
 20 46  1  0
 20 47  1  0
 22 48  1  0
 23 49  1  0
 26 50  1  0
 26 51  1  0
 27 52  1  0
 27 53  1  0
 28 54  1  0
 29 55  1  0
 29 56  1  0
 30 57  1  0
 30 58  1  0
 31 59  1  0
 32 60  1  0
 33 61  1  0
 34 62  1  0
 36 63  1  0
 36 64  1  0
 37 65  1  0
 37 66  1  0
M  END
>  <type>  (11) 
designed

$$$$
B03
     RDKit          3D

 65 70  0  0  0  0  0  0  0  0999 V2000
    4.8911   -1.6067   -1.6556 O   0  0  0  0  0  0  0  0  0  0  0  0
    5.0926   -0.9640   -0.6234 C   0  0  0  0  0  0  0  0  0  0  0  0
    6.3111   -1.1395    0.1406 C   0  0  0  0  0  0  0  0  0  0  0  0
    6.5533   -1.4527    1.4675 C   0  0  0  0  0  0  0  0  0  0  0  0
    7.9622   -1.5248    1.6280 C   0  0  0  0  0  0  0  0  0  0  0  0
    8.8431   -1.7943    2.6904 C   0  0  0  0  0  0  0  0  0  0  0  0
   10.2221   -1.7899    2.4372 C   0  0  0  0  0  0  0  0  0  0  0  0
   10.7180   -1.5274    1.1578 C   0  0  0  0  0  0  0  0  0  0  0  0
    9.8578   -1.2581    0.0886 C   0  0  0  0  0  0  0  0  0  0  0  0
    8.4959   -1.2680    0.3721 C   0  0  0  0  0  0  0  0  0  0  0  0
    7.5035   -1.0391   -0.5276 O   0  0  0  0  0  0  0  0  0  0  0  0
    4.1354   -0.0492   -0.1629 N   0  0  0  0  0  0  0  0  0  0  0  0
    2.8322   -0.0664   -0.8335 C   0  0  0  0  0  0  0  0  0  0  0  0
    1.9804    1.1727   -0.6453 C   0  0  0  0  0  0  0  0  0  0  0  0
    0.7708    1.1732   -1.2603 N   0  0  0  0  0  0  0  0  0  0  0  0
    0.0087    2.2997   -1.1379 C   0  0  0  0  0  0  0  0  0  0  0  0
   -1.3033    2.2961   -1.8636 C   0  0  0  0  0  0  0  0  0  0  0  0
   -2.0183    3.2914   -1.8994 O   0  0  0  0  0  0  0  0  0  0  0  0
   -1.6130    1.0946   -2.4617 N   0  0  0  0  0  0  0  0  0  0  0  0
   -2.8702    0.8567   -3.1212 C   0  0  0  0  0  0  0  0  0  0  0  0
   -3.9358    0.3900   -2.1652 C   0  0  0  0  0  0  0  0  0  0  0  0
   -3.8667   -0.8637   -1.5549 C   0  0  0  0  0  0  0  0  0  0  0  0
   -4.8824   -1.2906   -0.6862 C   0  0  0  0  0  0  0  0  0  0  0  0
   -6.0096   -0.5010   -0.4016 C   0  0  0  0  0  0  0  0  0  0  0  0
   -7.0191   -0.9487    0.4376 N   0  0  0  0  0  0  0  0  0  0  0  0
   -8.0988   -0.0575    0.8982 C   0  0  0  0  0  0  0  0  0  0  0  0
   -8.8825   -0.7252    2.0410 C   0  0  0  0  0  0  0  0  0  0  0  0
   -9.4896   -1.9744    1.6814 O   0  0  0  0  0  0  0  0  0  0  0  0
   -8.7938   -2.6600    0.6333 C   0  0  0  0  0  0  0  0  0  0  0  0
   -7.2816   -2.3910    0.6092 C   0  0  0  0  0  0  0  0  0  0  0  0
   -6.0376    0.7691   -0.9985 C   0  0  0  0  0  0  0  0  0  0  0  0
   -5.0244    1.2105   -1.8627 C   0  0  0  0  0  0  0  0  0  0  0  0
    0.3892    3.4160   -0.4065 C   0  0  0  0  0  0  0  0  0  0  0  0
    1.6256    3.3896    0.2285 C   0  0  0  0  0  0  0  0  0  0  0  0
    2.4355    2.2543    0.1185 C   0  0  0  0  0  0  0  0  0  0  0  0
    3.7984    2.2191    0.7485 C   0  0  0  0  0  0  0  0  0  0  0  0
    4.2534    0.7882    1.0284 C   0  0  0  0  0  0  0  0  0  0  0  0
    5.7994   -1.6299    2.2228 H   0  0  0  0  0  0  0  0  0  0  0  0
    8.4697   -2.0080    3.6872 H   0  0  0  0  0  0  0  0  0  0  0  0
   10.9148   -2.0025    3.2488 H   0  0  0  0  0  0  0  0  0  0  0  0
   11.7911   -1.5389    0.9846 H   0  0  0  0  0  0  0  0  0  0  0  0
   10.2236   -1.0619   -0.9112 H   0  0  0  0  0  0  0  0  0  0  0  0
    2.9752   -0.2225   -1.9103 H   0  0  0  0  0  0  0  0  0  0  0  0
    2.2822   -0.9314   -0.4394 H   0  0  0  0  0  0  0  0  0  0  0  0
   -1.0044    0.3163   -2.2407 H   0  0  0  0  0  0  0  0  0  0  0  0
   -3.1838    1.7724   -3.6353 H   0  0  0  0  0  0  0  0  0  0  0  0
   -2.7042    0.0935   -3.8888 H   0  0  0  0  0  0  0  0  0  0  0  0
   -3.0216   -1.5214   -1.7442 H   0  0  0  0  0  0  0  0  0  0  0  0
   -4.7598   -2.2625   -0.2163 H   0  0  0  0  0  0  0  0  0  0  0  0
   -7.6915    0.8866    1.2756 H   0  0  0  0  0  0  0  0  0  0  0  0
   -8.7779    0.1529    0.0631 H   0  0  0  0  0  0  0  0  0  0  0  0
   -9.6822   -0.0642    2.3863 H   0  0  0  0  0  0  0  0  0  0  0  0
   -8.2227   -0.9152    2.8961 H   0  0  0  0  0  0  0  0  0  0  0  0
   -8.9827   -3.7309    0.7589 H   0  0  0  0  0  0  0  0  0  0  0  0
   -9.2473   -2.3601   -0.3193 H   0  0  0  0  0  0  0  0  0  0  0  0
   -6.8568   -2.9885   -0.2049 H   0  0  0  0  0  0  0  0  0  0  0  0
   -6.8290   -2.7145    1.5539 H   0  0  0  0  0  0  0  0  0  0  0  0
   -6.8646    1.4491   -0.8198 H   0  0  0  0  0  0  0  0  0  0  0  0
   -5.0963    2.2066   -2.2982 H   0  0  0  0  0  0  0  0  0  0  0  0
   -0.2581    4.2855   -0.3395 H   0  0  0  0  0  0  0  0  0  0  0  0
    1.9534    4.2561    0.7980 H   0  0  0  0  0  0  0  0  0  0  0  0
    3.7985    2.7806    1.6897 H   0  0  0  0  0  0  0  0  0  0  0  0
    4.5054    2.7054    0.0642 H   0  0  0  0  0  0  0  0  0  0  0  0
    5.2818    0.8272    1.3919 H   0  0  0  0  0  0  0  0  0  0  0  0
    3.6342    0.3285    1.8079 H   0  0  0  0  0  0  0  0  0  0  0  0
  1  2  2  0
  2  3  1  0
  3  4  2  0
  4  5  1  0
  5  6  2  0
  6  7  1  0
  7  8  2  0
  8  9  1  0
  9 10  2  0
 10 11  1  0
  2 12  1  0
 12 13  1  0
 13 14  1  0
 14 15  2  0
 15 16  1  0
 16 17  1  0
 17 18  2  0
 17 19  1  0
 19 20  1  0
 20 21  1  0
 21 22  2  0
 22 23  1  0
 23 24  2  0
 24 25  1  0
 25 26  1  0
 26 27  1  0
 27 28  1  0
 28 29  1  0
 29 30  1  0
 24 31  1  0
 31 32  2  0
 16 33  2  0
 33 34  1  0
 34 35  2  0
 35 36  1  0
 36 37  1  0
 37 12  1  0
 35 14  1  0
 11  3  1  0
 10  5  1  0
 32 21  1  0
 30 25  1  0
  4 38  1  0
  6 39  1  0
  7 40  1  0
  8 41  1  0
  9 42  1  0
 13 43  1  0
 13 44  1  0
 19 45  1  0
 20 46  1  0
 20 47  1  0
 22 48  1  0
 23 49  1  0
 26 50  1  0
 26 51  1  0
 27 52  1  0
 27 53  1  0
 29 54  1  0
 29 55  1  0
 30 56  1  0
 30 57  1  0
 31 58  1  0
 32 59  1  0
 33 60  1  0
 34 61  1  0
 36 62  1  0
 36 63  1  0
 37 64  1  0
 37 65  1  0
M  END
>  <type>  (12) 
designed

$$$$
B04
     RDKit          3D

 50 54  0  0  0  0  0  0  0  0999 V2000
   -1.4526    1.3581    1.2951 O   0  0  0  0  0  0  0  0  0  0  0  0
   -2.1894    0.3975    1.0763 C   0  0  0  0  0  0  0  0  0  0  0  0
   -3.6000    0.5745    0.7862 C   0  0  0  0  0  0  0  0  0  0  0  0
   -4.7359   -0.0947    1.2110 C   0  0  0  0  0  0  0  0  0  0  0  0
   -5.8483    0.5499    0.6109 C   0  0  0  0  0  0  0  0  0  0  0  0
   -7.2428    0.3716    0.6237 C   0  0  0  0  0  0  0  0  0  0  0  0
   -8.0396    1.2527   -0.1224 C   0  0  0  0  0  0  0  0  0  0  0  0
   -7.4675    2.2907   -0.8631 C   0  0  0  0  0  0  0  0  0  0  0  0
   -6.0826    2.4855   -0.8848 C   0  0  0  0  0  0  0  0  0  0  0  0
   -5.3188    1.5940   -0.1358 C   0  0  0  0  0  0  0  0  0  0  0  0
   -3.9640    1.6165   -0.0249 O   0  0  0  0  0  0  0  0  0  0  0  0
   -1.6969   -0.9169    1.1331 N   0  0  0  0  0  0  0  0  0  0  0  0
   -0.2920   -1.0935    1.5026 C   0  0  0  0  0  0  0  0  0  0  0  0
    0.5983   -1.4141    0.3136 C   0  0  0  0  0  0  0  0  0  0  0  0
    1.9370   -1.3065    0.5042 N   0  0  0  0  0  0  0  0  0  0  0  0
    2.7409   -1.6229   -0.5498 C   0  0  0  0  0  0  0  0  0  0  0  0
    4.2154   -1.4741   -0.3241 C   0  0  0  0  0  0  0  0  0  0  0  0
    5.0343   -1.7212   -1.2024 O   0  0  0  0  0  0  0  0  0  0  0  0
    4.5569   -1.0238    0.9315 N   0  0  0  0  0  0  0  0  0  0  0  0
    5.9063   -0.6376    1.2730 C   0  0  0  0  0  0  0  0  0  0  0  0
    6.1680    0.8162    0.9814 C   0  0  0  0  0  0  0  0  0  0  0  0
    6.5744    1.2232   -0.2866 C   0  0  0  0  0  0  0  0  0  0  0  0
    6.8027    2.5208   -0.6054 N   0  0  0  0  0  0  0  0  0  0  0  0
    6.5892    3.4046    0.3936 C   0  0  0  0  0  0  0  0  0  0  0  0
    6.1731    3.0131    1.6542 C   0  0  0  0  0  0  0  0  0  0  0  0
    5.9543    1.7181    1.9781 N   0  0  0  0  0  0  0  0  0  0  0  0
    2.2718   -2.0563   -1.7808 C   0  0  0  0  0  0  0  0  0  0  0  0
    0.8975   -2.1782   -1.9514 C   0  0  0  0  0  0  0  0  0  0  0  0
    0.0388   -1.8690   -0.8918 C   0  0  0  0  0  0  0  0  0  0  0  0
   -1.4570   -1.9604   -1.0734 C   0  0  0  0  0  0  0  0  0  0  0  0
   -2.2020   -1.9817    0.2665 C   0  0  0  0  0  0  0  0  0  0  0  0
   -4.7560   -0.9395    1.8847 H   0  0  0  0  0  0  0  0  0  0  0  0
   -7.6995   -0.4279    1.1991 H   0  0  0  0  0  0  0  0  0  0  0  0
   -9.1206    1.1275   -0.1209 H   0  0  0  0  0  0  0  0  0  0  0  0
   -8.1088    2.9624   -1.4305 H   0  0  0  0  0  0  0  0  0  0  0  0
   -5.6214    3.2874   -1.4486 H   0  0  0  0  0  0  0  0  0  0  0  0
   -0.2500   -1.9442    2.1936 H   0  0  0  0  0  0  0  0  0  0  0  0
    0.0962   -0.2188    2.0343 H   0  0  0  0  0  0  0  0  0  0  0  0
    3.7899   -0.7022    1.5170 H   0  0  0  0  0  0  0  0  0  0  0  0
    6.6259   -1.2697    0.7407 H   0  0  0  0  0  0  0  0  0  0  0  0
    6.0318   -0.8243    2.3451 H   0  0  0  0  0  0  0  0  0  0  0  0
    6.7229    0.5094   -1.0915 H   0  0  0  0  0  0  0  0  0  0  0  0
    6.7606    4.4470    0.1514 H   0  0  0  0  0  0  0  0  0  0  0  0
    6.0024    3.7362    2.4434 H   0  0  0  0  0  0  0  0  0  0  0  0
    2.9587   -2.2882   -2.5883 H   0  0  0  0  0  0  0  0  0  0  0  0
    0.5026   -2.5078   -2.9096 H   0  0  0  0  0  0  0  0  0  0  0  0
   -1.7147   -2.8629   -1.6394 H   0  0  0  0  0  0  0  0  0  0  0  0
   -1.7796   -1.0901   -1.6585 H   0  0  0  0  0  0  0  0  0  0  0  0
   -2.0369   -2.9345    0.7847 H   0  0  0  0  0  0  0  0  0  0  0  0
   -3.2730   -1.8959    0.0803 H   0  0  0  0  0  0  0  0  0  0  0  0
  1  2  2  0
  2  3  1  0
  3  4  2  0
  4  5  1  0
  5  6  2  0
  6  7  1  0
  7  8  2  0
  8  9  1  0
  9 10  2  0
 10 11  1  0
  2 12  1  0
 12 13  1  0
 13 14  1  0
 14 15  2  0
 15 16  1  0
 16 17  1  0
 17 18  2  0
 17 19  1  0
 19 20  1  0
 20 21  1  0
 21 22  2  0
 22 23  1  0
 23 24  2  0
 24 25  1  0
 25 26  2  0
 16 27  2  0
 27 28  1  0
 28 29  2  0
 29 30  1  0
 30 31  1  0
 31 12  1  0
 29 14  1  0
 11  3  1  0
 10  5  1  0
 26 21  1  0
  4 32  1  0
  6 33  1  0
  7 34  1  0
  8 35  1  0
  9 36  1  0
 13 37  1  0
 13 38  1  0
 19 39  1  0
 20 40  1  0
 20 41  1  0
 22 42  1  0
 24 43  1  0
 25 44  1  0
 27 45  1  0
 28 46  1  0
 30 47  1  0
 30 48  1  0
 31 49  1  0
 31 50  1  0
M  END
>  <type>  (13) 
designed

$$$$
B05
     RDKit          3D

 55 59  0  0  0  0  0  0  0  0999 V2000
    2.6638   -2.3721    0.6328 O   0  0  0  0  0  0  0  0  0  0  0  0
    3.1670   -1.3800    0.1015 C   0  0  0  0  0  0  0  0  0  0  0  0
    4.6005   -1.1571    0.1478 C   0  0  0  0  0  0  0  0  0  0  0  0
    5.6365   -2.0599    0.3185 C   0  0  0  0  0  0  0  0  0  0  0  0
    6.8413   -1.3129    0.3435 C   0  0  0  0  0  0  0  0  0  0  0  0
    8.2088   -1.6134    0.4677 C   0  0  0  0  0  0  0  0  0  0  0  0
    9.1319   -0.5577    0.4611 C   0  0  0  0  0  0  0  0  0  0  0  0
    8.7090    0.7691    0.3366 C   0  0  0  0  0  0  0  0  0  0  0  0
    7.3524    1.0874    0.2099 C   0  0  0  0  0  0  0  0  0  0  0  0
    6.4611    0.0171    0.2171 C   0  0  0  0  0  0  0  0  0  0  0  0
    5.1083    0.1160    0.1070 O   0  0  0  0  0  0  0  0  0  0  0  0
    2.3568   -0.4350   -0.5394 N   0  0  0  0  0  0  0  0  0  0  0  0
    0.9136   -0.6352   -0.4338 C   0  0  0  0  0  0  0  0  0  0  0  0
    0.0823    0.5606   -0.8565 C   0  0  0  0  0  0  0  0  0  0  0  0
   -1.2545    0.4795   -0.6344 N   0  0  0  0  0  0  0  0  0  0  0  0
   -2.0162    1.5391   -1.0308 C   0  0  0  0  0  0  0  0  0  0  0  0
   -3.4911    1.4198   -0.7854 C   0  0  0  0  0  0  0  0  0  0  0  0
   -4.2717    2.3071   -1.1098 O   0  0  0  0  0  0  0  0  0  0  0  0
   -3.8673    0.2461   -0.1645 N   0  0  0  0  0  0  0  0  0  0  0  0
   -5.2293   -0.0250    0.2531 C   0  0  0  0  0  0  0  0  0  0  0  0
   -5.4366   -1.5375    0.4471 C   0  0  0  0  0  0  0  0  0  0  0  0
   -6.5972   -1.8891    1.3826 C   0  0  0  0  0  0  0  0  0  0  0  0
   -7.6274   -0.7782    1.4520 C   0  0  0  0  0  0  0  0  0  0  0  0
   -8.6564   -1.1505    2.2513 F   0  0  0  0  0  0  0  0  0  0  0  0
   -8.1527   -0.5935    0.2118 F   0  0  0  0  0  0  0  0  0  0  0  0
   -7.0427    0.5346    1.9538 C   0  0  0  0  0  0  0  0  0  0  0  0
   -5.5866    0.7490    1.5277 C   0  0  0  0  0  0  0  0  0  0  0  0
   -1.5051    2.6809   -1.6279 C   0  0  0  0  0  0  0  0  0  0  0  0
   -0.1343    2.7453   -1.8488 C   0  0  0  0  0  0  0  0  0  0  0  0
    0.6772    1.6686   -1.4776 C   0  0  0  0  0  0  0  0  0  0  0  0
    2.1674    1.7263   -1.6905 C   0  0  0  0  0  0  0  0  0  0  0  0
    2.7868    0.3307   -1.7085 C   0  0  0  0  0  0  0  0  0  0  0  0
    5.5215   -3.1314    0.4109 H   0  0  0  0  0  0  0  0  0  0  0  0
    8.5483   -2.6404    0.5714 H   0  0  0  0  0  0  0  0  0  0  0  0
   10.1938   -0.7759    0.5583 H   0  0  0  0  0  0  0  0  0  0  0  0
    9.4469    1.5693    0.3393 H   0  0  0  0  0  0  0  0  0  0  0  0
    7.0076    2.1102    0.1158 H   0  0  0  0  0  0  0  0  0  0  0  0
    0.6633   -0.8935    0.6022 H   0  0  0  0  0  0  0  0  0  0  0  0
    0.6495   -1.4879   -1.0714 H   0  0  0  0  0  0  0  0  0  0  0  0
   -3.0984   -0.3489    0.1390 H   0  0  0  0  0  0  0  0  0  0  0  0
   -5.8875    0.3233   -0.5551 H   0  0  0  0  0  0  0  0  0  0  0  0
   -5.6051   -1.9944   -0.5369 H   0  0  0  0  0  0  0  0  0  0  0  0
   -4.5264   -2.0103    0.8385 H   0  0  0  0  0  0  0  0  0  0  0  0
   -6.2141   -2.0860    2.3925 H   0  0  0  0  0  0  0  0  0  0  0  0
   -7.0669   -2.8220    1.0483 H   0  0  0  0  0  0  0  0  0  0  0  0
   -7.1082    0.5881    3.0473 H   0  0  0  0  0  0  0  0  0  0  0  0
   -7.6549    1.3589    1.5665 H   0  0  0  0  0  0  0  0  0  0  0  0
   -5.4017    1.8232    1.4051 H   0  0  0  0  0  0  0  0  0  0  0  0
   -4.9234    0.4241    2.3425 H   0  0  0  0  0  0  0  0  0  0  0  0
   -2.1574    3.5005   -1.9114 H   0  0  0  0  0  0  0  0  0  0  0  0
    0.2944    3.6313   -2.3111 H   0  0  0  0  0  0  0  0  0  0  0  0
    2.6075    2.3170   -0.8773 H   0  0  0  0  0  0  0  0  0  0  0  0
    2.3949    2.2289   -2.6377 H   0  0  0  0  0  0  0  0  0  0  0  0
    3.8710    0.4020   -1.7987 H   0  0  0  0  0  0  0  0  0  0  0  0
    2.4498   -0.2274   -2.5929 H   0  0  0  0  0  0  0  0  0  0  0  0
  1  2  2  0
  2  3  1  0
  3  4  2  0
  4  5  1  0
  5  6  2  0
  6  7  1  0
  7  8  2  0
  8  9  1  0
  9 10  2  0
 10 11  1  0
  2 12  1  0
 12 13  1  0
 13 14  1  0
 14 15  2  0
 15 16  1  0
 16 17  1  0
 17 18  2  0
 17 19  1  0
 19 20  1  0
 20 21  1  0
 21 22  1  0
 22 23  1  0
 23 24  1  0
 23 25  1  0
 23 26  1  0
 26 27  1  0
 16 28  2  0
 28 29  1  0
 29 30  2  0
 30 31  1  0
 31 32  1  0
 32 12  1  0
 30 14  1  0
 11  3  1  0
 27 20  1  0
 10  5  1  0
  4 33  1  0
  6 34  1  0
  7 35  1  0
  8 36  1  0
  9 37  1  0
 13 38  1  0
 13 39  1  0
 19 40  1  0
 20 41  1  0
 21 42  1  0
 21 43  1  0
 22 44  1  0
 22 45  1  0
 26 46  1  0
 26 47  1  0
 27 48  1  0
 27 49  1  0
 28 50  1  0
 29 51  1  0
 31 52  1  0
 31 53  1  0
 32 54  1  0
 32 55  1  0
M  END
>  <type>  (14) 
designed

$$$$
C01
     RDKit          3D

 60 65  0  0  0  0  0  0  0  0999 V2000
   -5.6319   -0.5515   -2.5041 O   0  0  0  0  0  0  0  0  0  0  0  0
   -4.8230    0.0935   -1.8351 C   0  0  0  0  0  0  0  0  0  0  0  0
   -4.9615    0.1909   -0.3901 C   0  0  0  0  0  0  0  0  0  0  0  0
   -5.2926   -0.8271    0.4809 C   0  0  0  0  0  0  0  0  0  0  0  0
   -5.4001   -0.3940    1.8442 C   0  0  0  0  0  0  0  0  0  0  0  0
   -5.6829   -1.1243    3.0242 C   0  0  0  0  0  0  0  0  0  0  0  0
   -5.7344   -0.4754    4.2618 C   0  0  0  0  0  0  0  0  0  0  0  0
   -5.5153    0.8923    4.3460 C   0  0  0  0  0  0  0  0  0  0  0  0
   -5.2435    1.6396    3.1976 C   0  0  0  0  0  0  0  0  0  0  0  0
   -5.1901    0.9817    1.9535 C   0  0  0  0  0  0  0  0  0  0  0  0
   -4.8928    1.6947    0.4153 S   0  0  0  0  0  0  0  0  0  0  0  0
   -3.7566    0.7440   -2.4586 N   0  0  0  0  0  0  0  0  0  0  0  0
   -2.4843    1.0418   -1.7980 C   0  0  0  0  0  0  0  0  0  0  0  0
   -1.2731    0.4710   -2.5208 C   0  0  0  0  0  0  0  0  0  0  0  0
   -0.0836    0.5719   -1.8754 N   0  0  0  0  0  0  0  0  0  0  0  0
    1.0152    0.0750   -2.5151 C   0  0  0  0  0  0  0  0  0  0  0  0
    2.3154    0.1875   -1.7763 C   0  0  0  0  0  0  0  0  0  0  0  0
    3.3613   -0.2349   -2.2510 O   0  0  0  0  0  0  0  0  0  0  0  0
    2.2058    0.7891   -0.5419 N   0  0  0  0  0  0  0  0  0  0  0  0
    3.3053    0.8852    0.3906 C   0  0  0  0  0  0  0  0  0  0  0  0
    3.4587   -0.3183    1.3029 C   0  0  0  0  0  0  0  0  0  0  0  0
    2.3350   -1.1332    1.5640 C   0  0  0  0  0  0  0  0  0  0  0  0
    2.4367   -2.3080    2.3094 C   0  0  0  0  0  0  0  0  0  0  0  0
    3.6660   -2.7002    2.8179 C   0  0  0  0  0  0  0  0  0  0  0  0
    4.7901   -1.9031    2.6053 C   0  0  0  0  0  0  0  0  0  0  0  0
    4.6952   -0.6989    1.8796 C   0  0  0  0  0  0  0  0  0  0  0  0
    5.8765    0.0965    1.7803 N   0  0  0  0  0  0  0  0  0  0  0  0
    5.9586    1.4753    1.8007 C   0  0  0  0  0  0  0  0  0  0  0  0
    7.2784    1.8555    1.6880 C   0  0  0  0  0  0  0  0  0  0  0  0
    8.0476    0.6766    1.6284 C   0  0  0  0  0  0  0  0  0  0  0  0
    7.1732   -0.3844    1.7151 C   0  0  0  0  0  0  0  0  0  0  0  0
    0.9807   -0.5179   -3.7673 C   0  0  0  0  0  0  0  0  0  0  0  0
   -0.2463   -0.6091   -4.4136 C   0  0  0  0  0  0  0  0  0  0  0  0
   -1.3933   -0.0994   -3.7969 C   0  0  0  0  0  0  0  0  0  0  0  0
   -2.7389   -0.2193   -4.4675 C   0  0  0  0  0  0  0  0  0  0  0  0
   -3.7217    0.8107   -3.9146 C   0  0  0  0  0  0  0  0  0  0  0  0
   -5.4417   -1.8500    0.1548 H   0  0  0  0  0  0  0  0  0  0  0  0
   -5.8569   -2.1956    2.9711 H   0  0  0  0  0  0  0  0  0  0  0  0
   -5.9473   -1.0480    5.1611 H   0  0  0  0  0  0  0  0  0  0  0  0
   -5.5576    1.3891    5.3126 H   0  0  0  0  0  0  0  0  0  0  0  0
   -5.0796    2.7113    3.2646 H   0  0  0  0  0  0  0  0  0  0  0  0
   -2.4677    0.6526   -0.7777 H   0  0  0  0  0  0  0  0  0  0  0  0
   -2.3840    2.1320   -1.7669 H   0  0  0  0  0  0  0  0  0  0  0  0
    1.2694    1.0509   -0.2527 H   0  0  0  0  0  0  0  0  0  0  0  0
    3.1106    1.7741    0.9986 H   0  0  0  0  0  0  0  0  0  0  0  0
    4.2134    1.0331   -0.2019 H   0  0  0  0  0  0  0  0  0  0  0  0
    1.3577   -0.8751    1.1609 H   0  0  0  0  0  0  0  0  0  0  0  0
    1.5557   -2.9213    2.4792 H   0  0  0  0  0  0  0  0  0  0  0  0
    3.7512   -3.6181    3.3931 H   0  0  0  0  0  0  0  0  0  0  0  0
    5.7260   -2.2167    3.0611 H   0  0  0  0  0  0  0  0  0  0  0  0
    5.0836    2.0892    1.9427 H   0  0  0  0  0  0  0  0  0  0  0  0
    7.6431    2.8744    1.6719 H   0  0  0  0  0  0  0  0  0  0  0  0
    9.1241    0.6035    1.5358 H   0  0  0  0  0  0  0  0  0  0  0  0
    7.3721   -1.4463    1.6827 H   0  0  0  0  0  0  0  0  0  0  0  0
    1.8857   -0.9043   -4.2247 H   0  0  0  0  0  0  0  0  0  0  0  0
   -0.3035   -1.0783   -5.3930 H   0  0  0  0  0  0  0  0  0  0  0  0
   -3.1193   -1.2324   -4.2911 H   0  0  0  0  0  0  0  0  0  0  0  0
   -2.6392   -0.0759   -5.5492 H   0  0  0  0  0  0  0  0  0  0  0  0
   -4.7168    0.6510   -4.3423 H   0  0  0  0  0  0  0  0  0  0  0  0
   -3.4126    1.8270   -4.1883 H   0  0  0  0  0  0  0  0  0  0  0  0
  1  2  2  0
  2  3  1  0
  3  4  2  0
  4  5  1  0
  5  6  2  0
  6  7  1  0
  7  8  2  0
  8  9  1  0
  9 10  2  0
 10 11  1  0
  2 12  1  0
 12 13  1  0
 13 14  1  0
 14 15  2  0
 15 16  1  0
 16 17  1  0
 17 18  2  0
 17 19  1  0
 19 20  1  0
 20 21  1  0
 21 22  2  0
 22 23  1  0
 23 24  2  0
 24 25  1  0
 25 26  2  0
 26 27  1  0
 27 28  1  0
 28 29  2  0
 29 30  1  0
 30 31  2  0
 16 32  2  0
 32 33  1  0
 33 34  2  0
 34 35  1  0
 35 36  1  0
 36 12  1  0
 34 14  1  0
 11  3  1  0
 10  5  1  0
 26 21  1  0
 31 27  1  0
  4 37  1  0
  6 38  1  0
  7 39  1  0
  8 40  1  0
  9 41  1  0
 13 42  1  0
 13 43  1  0
 19 44  1  0
 20 45  1  0
 20 46  1  0
 22 47  1  0
 23 48  1  0
 24 49  1  0
 25 50  1  0
 28 51  1  0
 29 52  1  0
 30 53  1  0
 31 54  1  0
 32 55  1  0
 33 56  1  0
 35 57  1  0
 35 58  1  0
 36 59  1  0
 36 60  1  0
M  END
>  <type>  (15) 
designed

$$$$
C02
     RDKit          3D

 66 71  0  0  0  0  0  0  0  0999 V2000
    3.7753    2.2598    1.6546 O   0  0  0  0  0  0  0  0  0  0  0  0
    4.4060    1.3431    1.1271 C   0  0  0  0  0  0  0  0  0  0  0  0
    5.5966    0.7719    1.7363 C   0  0  0  0  0  0  0  0  0  0  0  0
    5.9424   -0.5543    1.9018 C   0  0  0  0  0  0  0  0  0  0  0  0
    7.2041   -0.7309    2.5615 C   0  0  0  0  0  0  0  0  0  0  0  0
    7.9088   -1.9108    2.9005 C   0  0  0  0  0  0  0  0  0  0  0  0
    9.1429   -1.8345    3.5532 C   0  0  0  0  0  0  0  0  0  0  0  0
    9.6881   -0.6004    3.8794 C   0  0  0  0  0  0  0  0  0  0  0  0
    9.0131    0.5801    3.5614 C   0  0  0  0  0  0  0  0  0  0  0  0
    7.7709    0.4990    2.9027 C   0  0  0  0  0  0  0  0  0  0  0  0
    6.7628    1.8095    2.4242 S   0  0  0  0  0  0  0  0  0  0  0  0
    3.9639    0.7782   -0.0788 N   0  0  0  0  0  0  0  0  0  0  0  0
    2.7019    1.3008   -0.6010 C   0  0  0  0  0  0  0  0  0  0  0  0
    2.1253    0.5081   -1.7574 C   0  0  0  0  0  0  0  0  0  0  0  0
    0.8768    0.8503   -2.1636 N   0  0  0  0  0  0  0  0  0  0  0  0
    0.3476    0.1534   -3.2098 C   0  0  0  0  0  0  0  0  0  0  0  0
   -1.0303    0.5571   -3.6432 C   0  0  0  0  0  0  0  0  0  0  0  0
   -1.6053   -0.0103   -4.5645 O   0  0  0  0  0  0  0  0  0  0  0  0
   -1.5627    1.5992   -2.9178 N   0  0  0  0  0  0  0  0  0  0  0  0
   -2.9242    2.0430   -3.0666 C   0  0  0  0  0  0  0  0  0  0  0  0
   -3.8168    1.4061   -2.0358 C   0  0  0  0  0  0  0  0  0  0  0  0
   -4.4475    0.1875   -2.2984 C   0  0  0  0  0  0  0  0  0  0  0  0
   -5.2647   -0.4191   -1.3346 C   0  0  0  0  0  0  0  0  0  0  0  0
   -5.4841    0.1668   -0.0795 C   0  0  0  0  0  0  0  0  0  0  0  0
   -6.2893   -0.4121    0.9166 N   0  0  0  0  0  0  0  0  0  0  0  0
   -7.3582    0.4776    1.4305 C   0  0  0  0  0  0  0  0  0  0  0  0
   -8.0436   -0.1401    2.6722 C   0  0  0  0  0  0  0  0  0  0  0  0
   -8.5538   -1.5094    2.4538 N   0  0  0  0  0  0  0  0  0  0  0  0
   -7.4258   -2.3481    1.9972 C   0  0  0  0  0  0  0  0  0  0  0  0
   -6.7337   -1.8081    0.7247 C   0  0  0  0  0  0  0  0  0  0  0  0
   -4.8116    1.3738    0.1772 C   0  0  0  0  0  0  0  0  0  0  0  0
   -3.9941    1.9882   -0.7794 C   0  0  0  0  0  0  0  0  0  0  0  0
    1.0080   -0.8712   -3.8698 C   0  0  0  0  0  0  0  0  0  0  0  0
    2.2902   -1.2009   -3.4458 C   0  0  0  0  0  0  0  0  0  0  0  0
    2.8724   -0.4967   -2.3861 C   0  0  0  0  0  0  0  0  0  0  0  0
    4.2498   -0.8568   -1.8955 C   0  0  0  0  0  0  0  0  0  0  0  0
    4.8877    0.2770   -1.0962 C   0  0  0  0  0  0  0  0  0  0  0  0
    5.3169   -1.3734    1.5674 H   0  0  0  0  0  0  0  0  0  0  0  0
    7.4914   -2.8838    2.6543 H   0  0  0  0  0  0  0  0  0  0  0  0
    9.6759   -2.7473    3.8083 H   0  0  0  0  0  0  0  0  0  0  0  0
   10.6477   -0.5490    4.3898 H   0  0  0  0  0  0  0  0  0  0  0  0
    9.4395    1.5448    3.8223 H   0  0  0  0  0  0  0  0  0  0  0  0
    2.8808    2.3297   -0.9376 H   0  0  0  0  0  0  0  0  0  0  0  0
    1.9665    1.3306    0.2123 H   0  0  0  0  0  0  0  0  0  0  0  0
   -1.0270    1.8934   -2.1068 H   0  0  0  0  0  0  0  0  0  0  0  0
   -3.2881    1.8241   -4.0766 H   0  0  0  0  0  0  0  0  0  0  0  0
   -2.9297    3.1321   -2.9493 H   0  0  0  0  0  0  0  0  0  0  0  0
   -4.3000   -0.3051   -3.2583 H   0  0  0  0  0  0  0  0  0  0  0  0
   -5.7307   -1.3607   -1.6054 H   0  0  0  0  0  0  0  0  0  0  0  0
   -6.9697    1.4575    1.7273 H   0  0  0  0  0  0  0  0  0  0  0  0
   -8.1062    0.6410    0.6438 H   0  0  0  0  0  0  0  0  0  0  0  0
   -8.8803    0.4989    2.9755 H   0  0  0  0  0  0  0  0  0  0  0  0
   -7.3382   -0.1528    3.5124 H   0  0  0  0  0  0  0  0  0  0  0  0
   -9.2423   -1.4726    1.7022 H   0  0  0  0  0  0  0  0  0  0  0  0
   -7.8015   -3.3583    1.8001 H   0  0  0  0  0  0  0  0  0  0  0  0
   -6.6941   -2.4368    2.8099 H   0  0  0  0  0  0  0  0  0  0  0  0
   -7.4378   -1.8697   -0.1152 H   0  0  0  0  0  0  0  0  0  0  0  0
   -5.8751   -2.4556    0.5092 H   0  0  0  0  0  0  0  0  0  0  0  0
   -4.8896    1.8406    1.1553 H   0  0  0  0  0  0  0  0  0  0  0  0
   -3.4905    2.9176   -0.5257 H   0  0  0  0  0  0  0  0  0  0  0  0
    0.5364   -1.3980   -4.6933 H   0  0  0  0  0  0  0  0  0  0  0  0
    2.8293   -2.0035   -3.9434 H   0  0  0  0  0  0  0  0  0  0  0  0
    4.8995   -1.1044   -2.7423 H   0  0  0  0  0  0  0  0  0  0  0  0
    4.1631   -1.7486   -1.2632 H   0  0  0  0  0  0  0  0  0  0  0  0
    5.8364   -0.0566   -0.6719 H   0  0  0  0  0  0  0  0  0  0  0  0
    5.1285    1.1240   -1.7520 H   0  0  0  0  0  0  0  0  0  0  0  0
  1  2  2  0
  2  3  1  0
  3  4  2  0
  4  5  1  0
  5  6  2  0
  6  7  1  0
  7  8  2  0
  8  9  1  0
  9 10  2  0
 10 11  1  0
  2 12  1  0
 12 13  1  0
 13 14  1  0
 14 15  2  0
 15 16  1  0
 16 17  1  0
 17 18  2  0
 17 19  1  0
 19 20  1  0
 20 21  1  0
 21 22  2  0
 22 23  1  0
 23 24  2  0
 24 25  1  0
 25 26  1  0
 26 27  1  0
 27 28  1  0
 28 29  1  0
 29 30  1  0
 24 31  1  0
 31 32  2  0
 16 33  2  0
 33 34  1  0
 34 35  2  0
 35 36  1  0
 36 37  1  0
 37 12  1  0
 35 14  1  0
 11  3  1  0
 10  5  1  0
 32 21  1  0
 30 25  1  0
  4 38  1  0
  6 39  1  0
  7 40  1  0
  8 41  1  0
  9 42  1  0
 13 43  1  0
 13 44  1  0
 19 45  1  0
 20 46  1  0
 20 47  1  0
 22 48  1  0
 23 49  1  0
 26 50  1  0
 26 51  1  0
 27 52  1  0
 27 53  1  0
 28 54  1  0
 29 55  1  0
 29 56  1  0
 30 57  1  0
 30 58  1  0
 31 59  1  0
 32 60  1  0
 33 61  1  0
 34 62  1  0
 36 63  1  0
 36 64  1  0
 37 65  1  0
 37 66  1  0
M  END
>  <type>  (16) 
designed

$$$$
C03
     RDKit          3D

 55 59  0  0  0  0  0  0  0  0999 V2000
   -2.5881   -0.5184   -2.1760 O   0  0  0  0  0  0  0  0  0  0  0  0
   -3.0877   -0.3784   -1.0593 C   0  0  0  0  0  0  0  0  0  0  0  0
   -4.5030   -0.0855   -0.9040 C   0  0  0  0  0  0  0  0  0  0  0  0
   -5.5519   -0.6743   -1.5785 C   0  0  0  0  0  0  0  0  0  0  0  0
   -6.8288   -0.1214   -1.2313 C   0  0  0  0  0  0  0  0  0  0  0  0
   -8.1303   -0.4636   -1.6698 C   0  0  0  0  0  0  0  0  0  0  0  0
   -9.2445    0.2299   -1.1880 C   0  0  0  0  0  0  0  0  0  0  0  0
   -9.0853    1.2650   -0.2770 C   0  0  0  0  0  0  0  0  0  0  0  0
   -7.8130    1.6283    0.1698 C   0  0  0  0  0  0  0  0  0  0  0  0
   -6.6934    0.9260   -0.3171 C   0  0  0  0  0  0  0  0  0  0  0  0
   -5.0403    1.2072    0.0751 S   0  0  0  0  0  0  0  0  0  0  0  0
   -2.3001   -0.5035    0.0915 N   0  0  0  0  0  0  0  0  0  0  0  0
   -0.8632   -0.6607   -0.1205 C   0  0  0  0  0  0  0  0  0  0  0  0
   -0.0256   -0.4880    1.1321 C   0  0  0  0  0  0  0  0  0  0  0  0
    1.3200   -0.4402    0.9609 N   0  0  0  0  0  0  0  0  0  0  0  0
    2.0851   -0.3014    2.0812 C   0  0  0  0  0  0  0  0  0  0  0  0
    3.5674   -0.2374    1.8642 C   0  0  0  0  0  0  0  0  0  0  0  0
    4.3489   -0.0768    2.7944 O   0  0  0  0  0  0  0  0  0  0  0  0
    3.9522   -0.3605    0.5436 N   0  0  0  0  0  0  0  0  0  0  0  0
    5.3163   -0.1461    0.1049 C   0  0  0  0  0  0  0  0  0  0  0  0
    5.6119    1.3542   -0.0359 C   0  0  0  0  0  0  0  0  0  0  0  0
    7.0247    1.6031   -0.5570 C   0  0  0  0  0  0  0  0  0  0  0  0
    7.2822    0.8456   -1.8478 C   0  0  0  0  0  0  0  0  0  0  0  0
    6.5118    1.3722   -2.8347 F   0  0  0  0  0  0  0  0  0  0  0  0
    8.5709    1.0228   -2.2285 F   0  0  0  0  0  0  0  0  0  0  0  0
    6.9884   -0.6399   -1.7281 C   0  0  0  0  0  0  0  0  0  0  0  0
    5.5737   -0.8874   -1.2119 C   0  0  0  0  0  0  0  0  0  0  0  0
    1.5704   -0.2088    3.3650 C   0  0  0  0  0  0  0  0  0  0  0  0
    0.1904   -0.2660    3.5210 C   0  0  0  0  0  0  0  0  0  0  0  0
   -0.6274   -0.4207    2.3968 C   0  0  0  0  0  0  0  0  0  0  0  0
   -2.1266   -0.4478    2.5426 C   0  0  0  0  0  0  0  0  0  0  0  0
   -2.8042   -1.0882    1.3332 C   0  0  0  0  0  0  0  0  0  0  0  0
   -5.4115   -1.4792   -2.2910 H   0  0  0  0  0  0  0  0  0  0  0  0
   -8.2672   -1.2704   -2.3860 H   0  0  0  0  0  0  0  0  0  0  0  0
  -10.2393   -0.0429   -1.5325 H   0  0  0  0  0  0  0  0  0  0  0  0
   -9.9570    1.8019    0.0901 H   0  0  0  0  0  0  0  0  0  0  0  0
   -7.6912    2.4440    0.8769 H   0  0  0  0  0  0  0  0  0  0  0  0
   -0.5329    0.0648   -0.8735 H   0  0  0  0  0  0  0  0  0  0  0  0
   -0.6930   -1.6684   -0.5191 H   0  0  0  0  0  0  0  0  0  0  0  0
    3.1881   -0.3606   -0.1297 H   0  0  0  0  0  0  0  0  0  0  0  0
    5.9815   -0.5580    0.8752 H   0  0  0  0  0  0  0  0  0  0  0  0
    4.8847    1.8125   -0.7191 H   0  0  0  0  0  0  0  0  0  0  0  0
    5.4873    1.8587    0.9298 H   0  0  0  0  0  0  0  0  0  0  0  0
    7.1661    2.6765   -0.7266 H   0  0  0  0  0  0  0  0  0  0  0  0
    7.7606    1.3040    0.1989 H   0  0  0  0  0  0  0  0  0  0  0  0
    7.7196   -1.1078   -1.0580 H   0  0  0  0  0  0  0  0  0  0  0  0
    7.1076   -1.1180   -2.7070 H   0  0  0  0  0  0  0  0  0  0  0  0
    5.4173   -1.9640   -1.0726 H   0  0  0  0  0  0  0  0  0  0  0  0
    4.8477   -0.5651   -1.9699 H   0  0  0  0  0  0  0  0  0  0  0  0
    2.2269   -0.0909    4.2211 H   0  0  0  0  0  0  0  0  0  0  0  0
   -0.2412   -0.1873    4.5161 H   0  0  0  0  0  0  0  0  0  0  0  0
   -2.4092   -1.0020    3.4451 H   0  0  0  0  0  0  0  0  0  0  0  0
   -2.4758    0.5860    2.6560 H   0  0  0  0  0  0  0  0  0  0  0  0
   -2.5806   -2.1628    1.2920 H   0  0  0  0  0  0  0  0  0  0  0  0
   -3.8892   -1.0105    1.4234 H   0  0  0  0  0  0  0  0  0  0  0  0
  1  2  2  0
  2  3  1  0
  3  4  2  0
  4  5  1  0
  5  6  2  0
  6  7  1  0
  7  8  2  0
  8  9  1  0
  9 10  2  0
 10 11  1  0
  2 12  1  0
 12 13  1  0
 13 14  1  0
 14 15  2  0
 15 16  1  0
 16 17  1  0
 17 18  2  0
 17 19  1  0
 19 20  1  0
 20 21  1  0
 21 22  1  0
 22 23  1  0
 23 24  1  0
 23 25  1  0
 23 26  1  0
 26 27  1  0
 16 28  2  0
 28 29  1  0
 29 30  2  0
 30 31  1  0
 31 32  1  0
 32 12  1  0
 30 14  1  0
 11  3  1  0
 27 20  1  0
 10  5  1  0
  4 33  1  0
  6 34  1  0
  7 35  1  0
  8 36  1  0
  9 37  1  0
 13 38  1  0
 13 39  1  0
 19 40  1  0
 20 41  1  0
 21 42  1  0
 21 43  1  0
 22 44  1  0
 22 45  1  0
 26 46  1  0
 26 47  1  0
 27 48  1  0
 27 49  1  0
 28 50  1  0
 29 51  1  0
 31 52  1  0
 31 53  1  0
 32 54  1  0
 32 55  1  0
M  END
>  <type>  (17) 
designed

$$$$
D01
     RDKit          3D

 59 63  0  0  0  0  0  0  0  0999 V2000
    4.1363    1.1924    1.7402 O   0  0  0  0  0  0  0  0  0  0  0  0
    4.4472    0.4806    0.7890 C   0  0  0  0  0  0  0  0  0  0  0  0
    5.8848    0.2901    0.5244 C   0  0  0  0  0  0  0  0  0  0  0  0
    6.4097    0.4624   -0.7479 C   0  0  0  0  0  0  0  0  0  0  0  0
    7.7242    0.3176   -1.0398 N   0  0  0  0  0  0  0  0  0  0  0  0
    8.5522    0.0276   -0.0072 C   0  0  0  0  0  0  0  0  0  0  0  0
    8.1298   -0.1346    1.3074 C   0  0  0  0  0  0  0  0  0  0  0  0
    9.1299   -0.4161    2.3855 C   0  0  0  0  0  0  0  0  0  0  0  0
   10.1316   -1.2413    1.9722 F   0  0  0  0  0  0  0  0  0  0  0  0
    9.7369    0.7131    2.8398 F   0  0  0  0  0  0  0  0  0  0  0  0
    8.5833   -1.0175    3.4781 F   0  0  0  0  0  0  0  0  0  0  0  0
    6.7630    0.0136    1.5734 C   0  0  0  0  0  0  0  0  0  0  0  0
    3.5123   -0.1238   -0.0513 N   0  0  0  0  0  0  0  0  0  0  0  0
    2.1074    0.1922    0.2146 C   0  0  0  0  0  0  0  0  0  0  0  0
    1.1535   -0.2176   -0.8906 C   0  0  0  0  0  0  0  0  0  0  0  0
   -0.1297    0.2095   -0.7741 N   0  0  0  0  0  0  0  0  0  0  0  0
   -1.0000   -0.1589   -1.7584 C   0  0  0  0  0  0  0  0  0  0  0  0
   -2.4111    0.3273   -1.6095 C   0  0  0  0  0  0  0  0  0  0  0  0
   -3.2719    0.0467   -2.4333 O   0  0  0  0  0  0  0  0  0  0  0  0
   -2.6215    1.0930   -0.4865 N   0  0  0  0  0  0  0  0  0  0  0  0
   -3.9191    1.5762   -0.0679 C   0  0  0  0  0  0  0  0  0  0  0  0
   -4.5890    0.6624    0.9424 C   0  0  0  0  0  0  0  0  0  0  0  0
   -3.8109    0.2561    2.0534 C   0  0  0  0  0  0  0  0  0  0  0  0
   -4.3620   -0.4409    3.1303 C   0  0  0  0  0  0  0  0  0  0  0  0
   -5.7172   -0.7339    3.1403 C   0  0  0  0  0  0  0  0  0  0  0  0
   -6.5156   -0.3416    2.0678 C   0  0  0  0  0  0  0  0  0  0  0  0
   -5.9657    0.3389    0.9594 C   0  0  0  0  0  0  0  0  0  0  0  0
   -6.8633    0.6507   -0.1034 N   0  0  0  0  0  0  0  0  0  0  0  0
   -6.6220    0.5509   -1.4570 C   0  0  0  0  0  0  0  0  0  0  0  0
   -7.7556    0.9139   -2.1514 C   0  0  0  0  0  0  0  0  0  0  0  0
   -8.7499    1.2116   -1.1984 C   0  0  0  0  0  0  0  0  0  0  0  0
   -8.1899    1.0200    0.0453 C   0  0  0  0  0  0  0  0  0  0  0  0
   -0.6503   -0.9395   -2.8496 C   0  0  0  0  0  0  0  0  0  0  0  0
    0.6660   -1.3747   -2.9464 C   0  0  0  0  0  0  0  0  0  0  0  0
    1.5858   -1.0252   -1.9520 C   0  0  0  0  0  0  0  0  0  0  0  0
    3.0244   -1.4571   -2.0603 C   0  0  0  0  0  0  0  0  0  0  0  0
    3.7371   -1.4118   -0.7104 C   0  0  0  0  0  0  0  0  0  0  0  0
    5.7804    0.7339   -1.5915 H   0  0  0  0  0  0  0  0  0  0  0  0
    9.6020   -0.0665   -0.2811 H   0  0  0  0  0  0  0  0  0  0  0  0
    6.3823   -0.0789    2.5901 H   0  0  0  0  0  0  0  0  0  0  0  0
    1.8201   -0.3272    1.1370 H   0  0  0  0  0  0  0  0  0  0  0  0
    2.0126    1.2709    0.3875 H   0  0  0  0  0  0  0  0  0  0  0  0
   -1.8153    1.2204    0.1171 H   0  0  0  0  0  0  0  0  0  0  0  0
   -3.7518    2.5467    0.4157 H   0  0  0  0  0  0  0  0  0  0  0  0
   -4.5163    1.7767   -0.9553 H   0  0  0  0  0  0  0  0  0  0  0  0
   -2.7528    0.5073    2.1017 H   0  0  0  0  0  0  0  0  0  0  0  0
   -3.7327   -0.7386    3.9647 H   0  0  0  0  0  0  0  0  0  0  0  0
   -6.1545   -1.2748    3.9755 H   0  0  0  0  0  0  0  0  0  0  0  0
   -7.5677   -0.6194    2.0906 H   0  0  0  0  0  0  0  0  0  0  0  0
   -5.6770    0.1816   -1.8302 H   0  0  0  0  0  0  0  0  0  0  0  0
   -7.8540    0.9312   -3.2295 H   0  0  0  0  0  0  0  0  0  0  0  0
   -9.7681    1.5226   -1.3931 H   0  0  0  0  0  0  0  0  0  0  0  0
   -8.6202    1.1582    1.0274 H   0  0  0  0  0  0  0  0  0  0  0  0
   -1.3844   -1.2005   -3.6056 H   0  0  0  0  0  0  0  0  0  0  0  0
    0.9685   -1.9825   -3.7963 H   0  0  0  0  0  0  0  0  0  0  0  0
    3.5286   -0.7831   -2.7635 H   0  0  0  0  0  0  0  0  0  0  0  0
    3.0860   -2.4744   -2.4632 H   0  0  0  0  0  0  0  0  0  0  0  0
    3.3441   -2.1868   -0.0391 H   0  0  0  0  0  0  0  0  0  0  0  0
    4.7994   -1.6292   -0.8403 H   0  0  0  0  0  0  0  0  0  0  0  0
  1  2  2  0
  2  3  1  0
  3  4  2  0
  4  5  1  0
  5  6  2  0
  6  7  1  0
  7  8  1  0
  8  9  1  0
  8 10  1  0
  8 11  1  0
  7 12  2  0
  2 13  1  0
 13 14  1  0
 14 15  1  0
 15 16  2  0
 16 17  1  0
 17 18  1  0
 18 19  2  0
 18 20  1  0
 20 21  1  0
 21 22  1  0
 22 23  2  0
 23 24  1  0
 24 25  2  0
 25 26  1  0
 26 27  2  0
 27 28  1  0
 28 29  1  0
 29 30  2  0
 30 31  1  0
 31 32  2  0
 17 33  2  0
 33 34  1  0
 34 35  2  0
 35 36  1  0
 36 37  1  0
 37 13  1  0
 35 15  1  0
 12  3  1  0
 27 22  1  0
 32 28  1  0
  4 38  1  0
  6 39  1  0
 12 40  1  0
 14 41  1  0
 14 42  1  0
 20 43  1  0
 21 44  1  0
 21 45  1  0
 23 46  1  0
 24 47  1  0
 25 48  1  0
 26 49  1  0
 29 50  1  0
 30 51  1  0
 31 52  1  0
 32 53  1  0
 33 54  1  0
 34 55  1  0
 36 56  1  0
 36 57  1  0
 37 58  1  0
 37 59  1  0
M  END
>  <type>  (18) 
designed

$$$$
D02
     RDKit          3D

 65 69  0  0  0  0  0  0  0  0999 V2000
    7.2340   -0.7983    1.7208 O   0  0  0  0  0  0  0  0  0  0  0  0
    6.1001   -0.4367    1.4124 C   0  0  0  0  0  0  0  0  0  0  0  0
    5.9397    0.9510    0.9555 C   0  0  0  0  0  0  0  0  0  0  0  0
    5.1820    1.8587    1.6757 C   0  0  0  0  0  0  0  0  0  0  0  0
    5.0122    3.1484    1.2950 N   0  0  0  0  0  0  0  0  0  0  0  0
    5.6508    3.5476    0.1672 C   0  0  0  0  0  0  0  0  0  0  0  0
    6.4484    2.7169   -0.6104 C   0  0  0  0  0  0  0  0  0  0  0  0
    7.1312    3.2365   -1.8366 C   0  0  0  0  0  0  0  0  0  0  0  0
    6.6778    4.4589   -2.2330 F   0  0  0  0  0  0  0  0  0  0  0  0
    6.9658    2.4121   -2.9089 F   0  0  0  0  0  0  0  0  0  0  0  0
    8.4751    3.3697   -1.6684 F   0  0  0  0  0  0  0  0  0  0  0  0
    6.6013    1.3887   -0.1926 C   0  0  0  0  0  0  0  0  0  0  0  0
    4.9847   -1.2762    1.4462 N   0  0  0  0  0  0  0  0  0  0  0  0
    3.7300   -0.9368    0.7569 C   0  0  0  0  0  0  0  0  0  0  0  0
    2.7271   -2.0593    0.5949 C   0  0  0  0  0  0  0  0  0  0  0  0
    1.7026   -1.8385   -0.2650 N   0  0  0  0  0  0  0  0  0  0  0  0
    0.7908   -2.8425   -0.4150 C   0  0  0  0  0  0  0  0  0  0  0  0
   -0.3133   -2.5882   -1.3986 C   0  0  0  0  0  0  0  0  0  0  0  0
   -1.1004   -3.4697   -1.7194 O   0  0  0  0  0  0  0  0  0  0  0  0
   -0.3349   -1.3025   -1.8924 N   0  0  0  0  0  0  0  0  0  0  0  0
   -1.3386   -0.8315   -2.8119 C   0  0  0  0  0  0  0  0  0  0  0  0
   -2.5623   -0.2981   -2.1139 C   0  0  0  0  0  0  0  0  0  0  0  0
   -2.4804    0.7517   -1.1919 C   0  0  0  0  0  0  0  0  0  0  0  0
   -3.6373    1.2698   -0.5889 C   0  0  0  0  0  0  0  0  0  0  0  0
   -4.9096    0.7599   -0.8791 C   0  0  0  0  0  0  0  0  0  0  0  0
   -6.0951    1.2663   -0.3283 N   0  0  0  0  0  0  0  0  0  0  0  0
   -6.8723    0.2687    0.4459 C   0  0  0  0  0  0  0  0  0  0  0  0
   -8.2870    0.8134    0.7569 C   0  0  0  0  0  0  0  0  0  0  0  0
   -8.2921    2.1282    1.4290 N   0  0  0  0  0  0  0  0  0  0  0  0
   -7.4917    3.0776    0.6317 C   0  0  0  0  0  0  0  0  0  0  0  0
   -6.0542    2.5805    0.3455 C   0  0  0  0  0  0  0  0  0  0  0  0
   -4.9732   -0.2902   -1.8108 C   0  0  0  0  0  0  0  0  0  0  0  0
   -3.8251   -0.8155   -2.4155 C   0  0  0  0  0  0  0  0  0  0  0  0
    0.8450   -4.0453    0.2712 C   0  0  0  0  0  0  0  0  0  0  0  0
    1.8935   -4.2426    1.1631 C   0  0  0  0  0  0  0  0  0  0  0  0
    2.8542   -3.2437    1.3259 C   0  0  0  0  0  0  0  0  0  0  0  0
    3.9975   -3.4022    2.2843 C   0  0  0  0  0  0  0  0  0  0  0  0
    5.2346   -2.6841    1.7534 C   0  0  0  0  0  0  0  0  0  0  0  0
    4.6785    1.5786    2.5982 H   0  0  0  0  0  0  0  0  0  0  0  0
    5.4933    4.5936   -0.0931 H   0  0  0  0  0  0  0  0  0  0  0  0
    7.2309    0.7006   -0.7547 H   0  0  0  0  0  0  0  0  0  0  0  0
    3.9787   -0.5429   -0.2352 H   0  0  0  0  0  0  0  0  0  0  0  0
    3.2446   -0.1466    1.3347 H   0  0  0  0  0  0  0  0  0  0  0  0
    0.3304   -0.6535   -1.4882 H   0  0  0  0  0  0  0  0  0  0  0  0
   -0.8900   -0.0327   -3.4141 H   0  0  0  0  0  0  0  0  0  0  0  0
   -1.6006   -1.6482   -3.4944 H   0  0  0  0  0  0  0  0  0  0  0  0
   -1.5155    1.1812   -0.9338 H   0  0  0  0  0  0  0  0  0  0  0  0
   -3.5117    2.0767    0.1269 H   0  0  0  0  0  0  0  0  0  0  0  0
   -6.9970   -0.6720   -0.1012 H   0  0  0  0  0  0  0  0  0  0  0  0
   -6.3490    0.0406    1.3848 H   0  0  0  0  0  0  0  0  0  0  0  0
   -8.8122    0.0942    1.3947 H   0  0  0  0  0  0  0  0  0  0  0  0
   -8.8588    0.8890   -0.1768 H   0  0  0  0  0  0  0  0  0  0  0  0
   -9.2554    2.4651    1.4747 H   0  0  0  0  0  0  0  0  0  0  0  0
   -8.0065    3.2729   -0.3171 H   0  0  0  0  0  0  0  0  0  0  0  0
   -7.4410    4.0288    1.1725 H   0  0  0  0  0  0  0  0  0  0  0  0
   -5.5622    3.3232   -0.2936 H   0  0  0  0  0  0  0  0  0  0  0  0
   -5.5007    2.5107    1.2916 H   0  0  0  0  0  0  0  0  0  0  0  0
   -5.9382   -0.6950   -2.1042 H   0  0  0  0  0  0  0  0  0  0  0  0
   -3.9314   -1.6276   -3.1329 H   0  0  0  0  0  0  0  0  0  0  0  0
    0.0796   -4.8022    0.1252 H   0  0  0  0  0  0  0  0  0  0  0  0
    1.9536   -5.1716    1.7251 H   0  0  0  0  0  0  0  0  0  0  0  0
    3.7025   -2.9841    3.2544 H   0  0  0  0  0  0  0  0  0  0  0  0
    4.2352   -4.4611    2.4303 H   0  0  0  0  0  0  0  0  0  0  0  0
    6.0420   -2.7649    2.4900 H   0  0  0  0  0  0  0  0  0  0  0  0
    5.5896   -3.1549    0.8281 H   0  0  0  0  0  0  0  0  0  0  0  0
  1  2  2  0
  2  3  1  0
  3  4  2  0
  4  5  1  0
  5  6  2  0
  6  7  1  0
  7  8  1  0
  8  9  1  0
  8 10  1  0
  8 11  1  0
  7 12  2  0
  2 13  1  0
 13 14  1  0
 14 15  1  0
 15 16  2  0
 16 17  1  0
 17 18  1  0
 18 19  2  0
 18 20  1  0
 20 21  1  0
 21 22  1  0
 22 23  2  0
 23 24  1  0
 24 25  2  0
 25 26  1  0
 26 27  1  0
 27 28  1  0
 28 29  1  0
 29 30  1  0
 30 31  1  0
 25 32  1  0
 32 33  2  0
 17 34  2  0
 34 35  1  0
 35 36  2  0
 36 37  1  0
 37 38  1  0
 38 13  1  0
 36 15  1  0
 12  3  1  0
 33 22  1  0
 31 26  1  0
  4 39  1  0
  6 40  1  0
 12 41  1  0
 14 42  1  0
 14 43  1  0
 20 44  1  0
 21 45  1  0
 21 46  1  0
 23 47  1  0
 24 48  1  0
 27 49  1  0
 27 50  1  0
 28 51  1  0
 28 52  1  0
 29 53  1  0
 30 54  1  0
 30 55  1  0
 31 56  1  0
 31 57  1  0
 32 58  1  0
 33 59  1  0
 34 60  1  0
 35 61  1  0
 37 62  1  0
 37 63  1  0
 38 64  1  0
 38 65  1  0
M  END
>  <type>  (19) 
designed

$$$$
