EDS00495858
     RDKit          3D

 63 67  0  0  0  0  0  0  0  0999 V2000
   -4.1631   -1.7390   -3.0856 O   0  0  0  0  0  0  0  0  0  0  0  0
   -3.4340   -1.1681   -2.2834 C   0  0  0  0  0  0  0  0  0  0  0  0
   -2.0199   -1.6070   -2.0513 C   0  0  0  0  0  0  0  0  0  0  0  0
   -1.5261   -2.7223   -2.7122 C   0  0  0  0  0  0  0  0  0  0  0  0
   -0.2092   -3.0962   -2.4710 C   0  0  0  0  0  0  0  0  0  0  0  0
    0.5677   -2.3394   -1.5912 C   0  0  0  0  0  0  0  0  0  0  0  0
    1.9930   -2.6954   -1.2853 C   0  0  0  0  0  0  0  0  0  0  0  0
    2.8164   -1.4248   -1.0700 C   0  0  0  0  0  0  0  0  0  0  0  0
    2.2468   -0.5496   -0.0404 N   0  0  0  0  0  0  0  0  0  0  0  0
    0.7855   -0.4472    0.0637 C   0  0  0  0  0  0  0  0  0  0  0  0
    2.9820    0.2302    0.8480 C   0  0  0  0  0  0  0  0  0  0  0  0
    4.4381    0.3602    0.6736 C   0  0  0  0  0  0  0  0  0  0  0  0
    5.0117    0.8070   -0.5164 C   0  0  0  0  0  0  0  0  0  0  0  0
    6.3975    0.9312   -0.5909 C   0  0  0  0  0  0  0  0  0  0  0  0
    5.2702    0.1023    1.7538 C   0  0  0  0  0  0  0  0  0  0  0  0
    6.6220    0.2057    1.7031 N   0  0  0  0  0  0  0  0  0  0  0  0
    7.1514    0.6192    0.5318 C   0  0  0  0  0  0  0  0  0  0  0  0
    8.5175    0.7507    0.4083 O   0  0  0  0  0  0  0  0  0  0  0  0
    9.2204    0.4685    1.6275 C   0  0  0  0  0  0  0  0  0  0  0  0
   10.7137    0.6410    1.4224 C   0  0  0  0  0  0  0  0  0  0  0  0
   11.1889   -0.2007    0.4766 F   0  0  0  0  0  0  0  0  0  0  0  0
   11.0269    1.9026    1.0505 F   0  0  0  0  0  0  0  0  0  0  0  0
   11.3867    0.3796    2.5682 F   0  0  0  0  0  0  0  0  0  0  0  0
    2.4730    0.8292    1.7921 O   0  0  0  0  0  0  0  0  0  0  0  0
   -0.0096   -1.2350   -0.9565 C   0  0  0  0  0  0  0  0  0  0  0  0
   -1.2931   -0.8563   -1.1748 N   0  0  0  0  0  0  0  0  0  0  0  0
   -3.8207   -0.0842   -1.5291 N   0  0  0  0  0  0  0  0  0  0  0  0
   -5.1234    0.5153   -1.6605 C   0  0  0  0  0  0  0  0  0  0  0  0
   -5.3212    1.6289   -0.6617 C   0  0  0  0  0  0  0  0  0  0  0  0
   -4.7523    2.8773   -1.0036 C   0  0  0  0  0  0  0  0  0  0  0  0
   -4.9472    4.0110   -0.2169 C   0  0  0  0  0  0  0  0  0  0  0  0
   -5.7200    3.9250    0.9319 C   0  0  0  0  0  0  0  0  0  0  0  0
   -6.2811    2.7023    1.3027 C   0  0  0  0  0  0  0  0  0  0  0  0
   -6.0732    1.5402    0.5308 C   0  0  0  0  0  0  0  0  0  0  0  0
   -6.6380    0.3216    1.0193 N   0  0  0  0  0  0  0  0  0  0  0  0
   -6.1197   -0.9525    0.9043 C   0  0  0  0  0  0  0  0  0  0  0  0
   -6.9633   -1.8498    1.5223 C   0  0  0  0  0  0  0  0  0  0  0  0
   -8.0286   -1.1098    2.0698 C   0  0  0  0  0  0  0  0  0  0  0  0
   -7.7987    0.2145    1.7687 C   0  0  0  0  0  0  0  0  0  0  0  0
   -2.1530   -3.2869   -3.3952 H   0  0  0  0  0  0  0  0  0  0  0  0
    0.2023   -3.9696   -2.9709 H   0  0  0  0  0  0  0  0  0  0  0  0
    2.4319   -3.2712   -2.1080 H   0  0  0  0  0  0  0  0  0  0  0  0
    2.0140   -3.3209   -0.3849 H   0  0  0  0  0  0  0  0  0  0  0  0
    3.8389   -1.7078   -0.8031 H   0  0  0  0  0  0  0  0  0  0  0  0
    2.8578   -0.8389   -1.9965 H   0  0  0  0  0  0  0  0  0  0  0  0
    0.5192    0.6143   -0.0129 H   0  0  0  0  0  0  0  0  0  0  0  0
    0.4994   -0.7911    1.0653 H   0  0  0  0  0  0  0  0  0  0  0  0
    4.3944    1.0745   -1.3686 H   0  0  0  0  0  0  0  0  0  0  0  0
    6.8807    1.2747   -1.4993 H   0  0  0  0  0  0  0  0  0  0  0  0
    4.8646   -0.2053    2.7146 H   0  0  0  0  0  0  0  0  0  0  0  0
    9.0310   -0.5658    1.9395 H   0  0  0  0  0  0  0  0  0  0  0  0
    8.8952    1.1584    2.4158 H   0  0  0  0  0  0  0  0  0  0  0  0
   -3.1117    0.3402   -0.9365 H   0  0  0  0  0  0  0  0  0  0  0  0
   -5.9010   -0.2522   -1.6064 H   0  0  0  0  0  0  0  0  0  0  0  0
   -5.1995    0.9165   -2.6799 H   0  0  0  0  0  0  0  0  0  0  0  0
   -4.1613    2.9723   -1.9144 H   0  0  0  0  0  0  0  0  0  0  0  0
   -4.5028    4.9595   -0.5071 H   0  0  0  0  0  0  0  0  0  0  0  0
   -5.8767    4.8048    1.5508 H   0  0  0  0  0  0  0  0  0  0  0  0
   -6.8406    2.6702    2.2351 H   0  0  0  0  0  0  0  0  0  0  0  0
   -5.1667   -1.1326    0.4312 H   0  0  0  0  0  0  0  0  0  0  0  0
   -6.8093   -2.9192    1.5853 H   0  0  0  0  0  0  0  0  0  0  0  0
   -8.8730   -1.4944    2.6273 H   0  0  0  0  0  0  0  0  0  0  0  0
   -8.4007    1.0842    1.9924 H   0  0  0  0  0  0  0  0  0  0  0  0
  1  2  2  0
  2  3  1  0
  3  4  2  0
  4  5  1  0
  5  6  2  0
  6  7  1  0
  7  8  1  0
  8  9  1  0
  9 10  1  0
  9 11  1  0
 11 12  1  0
 12 13  2  0
 13 14  1  0
 12 15  1  0
 15 16  2  0
 16 17  1  0
 17 18  1  0
 18 19  1  0
 19 20  1  0
 20 21  1  0
 20 22  1  0
 20 23  1  0
 11 24  2  0
  6 25  1  0
 25 26  2  0
  2 27  1  0
 27 28  1  0
 28 29  1  0
 29 30  2  0
 30 31  1  0
 31 32  2  0
 32 33  1  0
 29 34  1  0
 34 35  1  0
 35 36  1  0
 36 37  2  0
 37 38  1  0
 38 39  2  0
 26  3  1  0
 34 33  2  0
 39 35  1  0
 25 10  1  0
 17 14  2  0
  4 40  1  0
  5 41  1  0
  7 42  1  0
  7 43  1  0
  8 44  1  0
  8 45  1  0
 10 46  1  0
 10 47  1  0
 13 48  1  0
 14 49  1  0
 15 50  1  0
 19 51  1  0
 19 52  1  0
 27 53  1  0
 28 54  1  0
 28 55  1  0
 30 56  1  0
 31 57  1  0
 32 58  1  0
 33 59  1  0
 36 60  1  0
 37 61  1  0
 38 62  1  0
 39 63  1  0
M  END
>  <AS_ratio>  (1) 
0.171957

>  <type>  (1) 
active

$$$$
EDS00480994
     RDKit          3D

 72 77  0  0  0  0  0  0  0  0999 V2000
   -7.6100    1.4959    0.5845 C   0  0  0  0  0  0  0  0  0  0  0  0
   -6.1545    1.5518    0.2897 C   0  0  0  0  0  0  0  0  0  0  0  0
   -5.1871    0.6462    0.7201 C   0  0  0  0  0  0  0  0  0  0  0  0
   -5.3153   -0.5313    1.5730 C   0  0  0  0  0  0  0  0  0  0  0  0
   -4.3419   -1.5388    1.5266 N   0  0  0  0  0  0  0  0  0  0  0  0
   -4.3402   -2.5646    2.5652 C   0  0  0  0  0  0  0  0  0  0  0  0
   -4.2123   -3.9590    1.9579 C   0  0  0  0  0  0  0  0  0  0  0  0
   -3.2012   -1.5463    0.6059 C   0  0  0  0  0  0  0  0  0  0  0  0
   -2.5336   -2.8958    0.4080 C   0  0  0  0  0  0  0  0  0  0  0  0
   -3.0144   -4.0421    1.0528 C   0  0  0  0  0  0  0  0  0  0  0  0
   -2.3858   -5.2664    0.8059 C   0  0  0  0  0  0  0  0  0  0  0  0
   -1.2858   -5.3145   -0.0428 C   0  0  0  0  0  0  0  0  0  0  0  0
   -0.8596   -4.1305   -0.6253 C   0  0  0  0  0  0  0  0  0  0  0  0
    0.3356   -4.1321   -1.5316 C   0  0  0  0  0  0  0  0  0  0  0  0
    0.6585   -2.8948   -2.0403 N   0  0  0  0  0  0  0  0  0  0  0  0
    1.8240   -2.6498   -2.8506 C   0  0  0  0  0  0  0  0  0  0  0  0
    2.7341   -1.6512   -2.1864 C   0  0  0  0  0  0  0  0  0  0  0  0
    2.8530   -0.3461   -2.6721 C   0  0  0  0  0  0  0  0  0  0  0  0
    3.7014    0.5763   -2.0435 C   0  0  0  0  0  0  0  0  0  0  0  0
    3.4741   -2.0119   -1.0572 C   0  0  0  0  0  0  0  0  0  0  0  0
    4.3131   -1.0828   -0.4327 C   0  0  0  0  0  0  0  0  0  0  0  0
    4.4433    0.2332   -0.9057 C   0  0  0  0  0  0  0  0  0  0  0  0
    5.3141    1.1160   -0.2469 N   0  0  0  0  0  0  0  0  0  0  0  0
    4.9060    1.4171    1.1468 C   0  0  0  0  0  0  0  0  0  0  0  0
    6.0340    2.1723    1.8926 C   0  0  0  0  0  0  0  0  0  0  0  0
    6.4710    3.3998    1.1898 N   0  0  0  0  0  0  0  0  0  0  0  0
    7.5695    4.0434    1.9051 C   0  0  0  0  0  0  0  0  0  0  0  0
    6.8792    3.0440   -0.1876 C   0  0  0  0  0  0  0  0  0  0  0  0
    5.7503    2.3296   -0.9683 C   0  0  0  0  0  0  0  0  0  0  0  0
    0.9558   -5.1620   -1.7714 O   0  0  0  0  0  0  0  0  0  0  0  0
   -1.4607   -2.9231   -0.4229 N   0  0  0  0  0  0  0  0  0  0  0  0
   -6.2843   -0.6534    2.3266 O   0  0  0  0  0  0  0  0  0  0  0  0
   -3.9568    1.0497    0.2756 O   0  0  0  0  0  0  0  0  0  0  0  0
   -4.1284    2.1779   -0.4586 C   0  0  0  0  0  0  0  0  0  0  0  0
   -5.4682    2.5369   -0.4850 C   0  0  0  0  0  0  0  0  0  0  0  0
   -5.8326    3.6941   -1.1999 C   0  0  0  0  0  0  0  0  0  0  0  0
   -4.8339    4.4289   -1.8559 C   0  0  0  0  0  0  0  0  0  0  0  0
   -3.4965    4.0290   -1.8045 C   0  0  0  0  0  0  0  0  0  0  0  0
   -3.1120    2.8856   -1.0968 C   0  0  0  0  0  0  0  0  0  0  0  0
   -7.7932    1.7164    1.6409 H   0  0  0  0  0  0  0  0  0  0  0  0
   -8.0122    0.5027    0.3598 H   0  0  0  0  0  0  0  0  0  0  0  0
   -8.1692    2.2218   -0.0136 H   0  0  0  0  0  0  0  0  0  0  0  0
   -5.2427   -2.5193    3.1819 H   0  0  0  0  0  0  0  0  0  0  0  0
   -3.4899   -2.3498    3.2250 H   0  0  0  0  0  0  0  0  0  0  0  0
   -5.1071   -4.1977    1.3709 H   0  0  0  0  0  0  0  0  0  0  0  0
   -4.1291   -4.6933    2.7672 H   0  0  0  0  0  0  0  0  0  0  0  0
   -3.5349   -1.2018   -0.3779 H   0  0  0  0  0  0  0  0  0  0  0  0
   -2.4541   -0.8511    1.0048 H   0  0  0  0  0  0  0  0  0  0  0  0
   -2.7442   -6.1807    1.2738 H   0  0  0  0  0  0  0  0  0  0  0  0
   -0.7724   -6.2500   -0.2421 H   0  0  0  0  0  0  0  0  0  0  0  0
    0.0926   -2.1124   -1.7249 H   0  0  0  0  0  0  0  0  0  0  0  0
    1.4687   -2.2683   -3.8145 H   0  0  0  0  0  0  0  0  0  0  0  0
    2.3705   -3.5788   -3.0497 H   0  0  0  0  0  0  0  0  0  0  0  0
    2.2895   -0.0302   -3.5467 H   0  0  0  0  0  0  0  0  0  0  0  0
    3.7512    1.5769   -2.4613 H   0  0  0  0  0  0  0  0  0  0  0  0
    3.4066   -3.0227   -0.6600 H   0  0  0  0  0  0  0  0  0  0  0  0
    4.8969   -1.4074    0.4246 H   0  0  0  0  0  0  0  0  0  0  0  0
    3.9953    2.0313    1.1404 H   0  0  0  0  0  0  0  0  0  0  0  0
    4.6852    0.5036    1.7119 H   0  0  0  0  0  0  0  0  0  0  0  0
    6.8841    1.4897    2.0272 H   0  0  0  0  0  0  0  0  0  0  0  0
    5.6650    2.4376    2.8911 H   0  0  0  0  0  0  0  0  0  0  0  0
    7.8682    4.9673    1.3966 H   0  0  0  0  0  0  0  0  0  0  0  0
    7.2536    4.3280    2.9146 H   0  0  0  0  0  0  0  0  0  0  0  0
    8.4508    3.3982    1.9893 H   0  0  0  0  0  0  0  0  0  0  0  0
    7.7653    2.3947   -0.1676 H   0  0  0  0  0  0  0  0  0  0  0  0
    7.1512    3.9549   -0.7351 H   0  0  0  0  0  0  0  0  0  0  0  0
    4.9102    3.0252   -1.0976 H   0  0  0  0  0  0  0  0  0  0  0  0
    6.1371    2.0627   -1.9596 H   0  0  0  0  0  0  0  0  0  0  0  0
   -6.8680    4.0181   -1.2472 H   0  0  0  0  0  0  0  0  0  0  0  0
   -5.1069    5.3236   -2.4120 H   0  0  0  0  0  0  0  0  0  0  0  0
   -2.7407    4.6169   -2.3214 H   0  0  0  0  0  0  0  0  0  0  0  0
   -2.0791    2.5627   -1.0441 H   0  0  0  0  0  0  0  0  0  0  0  0
  1  2  1  0
  2  3  2  0
  3  4  1  0
  4  5  1  0
  5  6  1  0
  6  7  1  0
  5  8  1  0
  8  9  1  0
  9 10  2  0
 10 11  1  0
 11 12  2  0
 12 13  1  0
 13 14  1  0
 14 15  1  0
 15 16  1  0
 16 17  1  0
 17 18  2  0
 18 19  1  0
 17 20  1  0
 20 21  2  0
 21 22  1  0
 22 23  1  0
 23 24  1  0
 24 25  1  0
 25 26  1  0
 26 27  1  0
 26 28  1  0
 28 29  1  0
 14 30  2  0
 13 31  2  0
  4 32  2  0
  3 33  1  0
 33 34  1  0
 34 35  2  0
 35 36  1  0
 36 37  2  0
 37 38  1  0
 38 39  2  0
 35  2  1  0
 10  7  1  0
 22 19  2  0
 29 23  1  0
 39 34  1  0
 31  9  1  0
  1 40  1  0
  1 41  1  0
  1 42  1  0
  6 43  1  0
  6 44  1  0
  7 45  1  0
  7 46  1  0
  8 47  1  0
  8 48  1  0
 11 49  1  0
 12 50  1  0
 15 51  1  0
 16 52  1  0
 16 53  1  0
 18 54  1  0
 19 55  1  0
 20 56  1  0
 21 57  1  0
 24 58  1  0
 24 59  1  0
 25 60  1  0
 25 61  1  0
 27 62  1  0
 27 63  1  0
 27 64  1  0
 28 65  1  0
 28 66  1  0
 29 67  1  0
 29 68  1  0
 36 69  1  0
 37 70  1  0
 38 71  1  0
 39 72  1  0
M  END
>  <AS_ratio>  (2) 
0.0890564

>  <type>  (2) 
active

$$$$
EDS00469766
     RDKit          3D

 51 54  0  0  0  0  0  0  0  0999 V2000
   -3.5344   -1.2076    2.8638 O   0  0  0  0  0  0  0  0  0  0  0  0
   -2.8214   -0.6293    2.0531 C   0  0  0  0  0  0  0  0  0  0  0  0
   -1.3462   -0.8834    1.9759 C   0  0  0  0  0  0  0  0  0  0  0  0
   -0.7484   -1.7671    2.8601 C   0  0  0  0  0  0  0  0  0  0  0  0
    0.6204   -1.9767    2.7450 C   0  0  0  0  0  0  0  0  0  0  0  0
    1.3428   -1.3052    1.7524 C   0  0  0  0  0  0  0  0  0  0  0  0
    2.8293   -1.4847    1.6313 C   0  0  0  0  0  0  0  0  0  0  0  0
    3.3311   -1.1727    0.2221 C   0  0  0  0  0  0  0  0  0  0  0  0
    2.8428    0.1231   -0.2454 N   0  0  0  0  0  0  0  0  0  0  0  0
    1.4014    0.3585   -0.1620 C   0  0  0  0  0  0  0  0  0  0  0  0
    3.5484    0.9645   -1.1172 C   0  0  0  0  0  0  0  0  0  0  0  0
    4.9288    0.5939   -1.5399 C   0  0  0  0  0  0  0  0  0  0  0  0
    5.0435   -0.6302   -2.1428 N   0  0  0  0  0  0  0  0  0  0  0  0
    6.2646   -0.9675   -2.6071 C   0  0  0  0  0  0  0  0  0  0  0  0
    7.3801   -0.1544   -2.4909 C   0  0  0  0  0  0  0  0  0  0  0  0
    7.2406    1.0807   -1.8596 C   0  0  0  0  0  0  0  0  0  0  0  0
    5.9936    1.4744   -1.3729 C   0  0  0  0  0  0  0  0  0  0  0  0
    5.8767    2.9868   -0.5568 Cl  0  0  0  0  0  0  0  0  0  0  0  0
    3.0572    1.9963   -1.5746 O   0  0  0  0  0  0  0  0  0  0  0  0
    0.6651   -0.4161    0.9115 C   0  0  0  0  0  0  0  0  0  0  0  0
   -0.6738   -0.2053    1.0024 N   0  0  0  0  0  0  0  0  0  0  0  0
   -3.2809    0.2915    1.1324 N   0  0  0  0  0  0  0  0  0  0  0  0
   -4.6865    0.6265    0.9810 C   0  0  0  0  0  0  0  0  0  0  0  0
   -4.8459    1.9857    0.2870 C   0  0  0  0  0  0  0  0  0  0  0  0
   -4.4829    1.9353   -1.1980 C   0  0  0  0  0  0  0  0  0  0  0  0
   -5.4432   -0.4761    0.2231 C   0  0  0  0  0  0  0  0  0  0  0  0
   -5.0634   -0.5303   -1.2561 C   0  0  0  0  0  0  0  0  0  0  0  0
   -5.2309    0.8259   -1.9172 C   0  0  0  0  0  0  0  0  0  0  0  0
   -6.5528    1.1394   -1.9587 F   0  0  0  0  0  0  0  0  0  0  0  0
   -4.8114    0.7577   -3.2048 F   0  0  0  0  0  0  0  0  0  0  0  0
   -1.3332   -2.2774    3.6196 H   0  0  0  0  0  0  0  0  0  0  0  0
    1.1183   -2.6592    3.4298 H   0  0  0  0  0  0  0  0  0  0  0  0
    3.1118   -2.5121    1.8891 H   0  0  0  0  0  0  0  0  0  0  0  0
    3.3125   -0.8124    2.3513 H   0  0  0  0  0  0  0  0  0  0  0  0
    4.4239   -1.1945    0.2392 H   0  0  0  0  0  0  0  0  0  0  0  0
    2.9864   -1.9296   -0.4931 H   0  0  0  0  0  0  0  0  0  0  0  0
    0.9745    0.0892   -1.1360 H   0  0  0  0  0  0  0  0  0  0  0  0
    1.2273    1.4293   -0.0034 H   0  0  0  0  0  0  0  0  0  0  0  0
    6.3265   -1.9381   -3.0937 H   0  0  0  0  0  0  0  0  0  0  0  0
    8.3388   -0.4742   -2.8851 H   0  0  0  0  0  0  0  0  0  0  0  0
    8.1050    1.7327   -1.7540 H   0  0  0  0  0  0  0  0  0  0  0  0
   -2.5738    0.6494    0.4927 H   0  0  0  0  0  0  0  0  0  0  0  0
   -5.1066    0.6980    1.9923 H   0  0  0  0  0  0  0  0  0  0  0  0
   -4.2290    2.7432    0.7863 H   0  0  0  0  0  0  0  0  0  0  0  0
   -5.8895    2.3124    0.3837 H   0  0  0  0  0  0  0  0  0  0  0  0
   -4.7252    2.8987   -1.6611 H   0  0  0  0  0  0  0  0  0  0  0  0
   -3.4028    1.7942   -1.3240 H   0  0  0  0  0  0  0  0  0  0  0  0
   -5.2622   -1.4567    0.6782 H   0  0  0  0  0  0  0  0  0  0  0  0
   -6.5214   -0.2858    0.3055 H   0  0  0  0  0  0  0  0  0  0  0  0
   -5.6968   -1.2660   -1.7657 H   0  0  0  0  0  0  0  0  0  0  0  0
   -4.0286   -0.8746   -1.3722 H   0  0  0  0  0  0  0  0  0  0  0  0
  1  2  2  0
  2  3  1  0
  3  4  2  0
  4  5  1  0
  5  6  2  0
  6  7  1  0
  7  8  1  0
  8  9  1  0
  9 10  1  0
  9 11  1  0
 11 12  1  0
 12 13  2  0
 13 14  1  0
 14 15  2  0
 15 16  1  0
 12 17  1  0
 17 18  1  0
 11 19  2  0
  6 20  1  0
 20 21  2  0
  2 22  1  0
 22 23  1  0
 23 24  1  0
 24 25  1  0
 23 26  1  0
 26 27  1  0
 27 28  1  0
 28 29  1  0
 28 30  1  0
 21  3  1  0
 28 25  1  0
 20 10  1  0
 17 16  2  0
  4 31  1  0
  5 32  1  0
  7 33  1  0
  7 34  1  0
  8 35  1  0
  8 36  1  0
 10 37  1  0
 10 38  1  0
 14 39  1  0
 15 40  1  0
 16 41  1  0
 22 42  1  0
 23 43  1  0
 24 44  1  0
 24 45  1  0
 25 46  1  0
 25 47  1  0
 26 48  1  0
 26 49  1  0
 27 50  1  0
 27 51  1  0
M  END
>  <AS_ratio>  (3) 
0.0333112

>  <type>  (3) 
active

$$$$
EDS00490594
     RDKit          3D

 76 81  0  0  0  0  0  0  0  0999 V2000
   10.2273    1.6729    1.7130 C   0  0  0  0  0  0  0  0  0  0  0  0
    8.9149    2.2069    1.3665 N   0  0  0  0  0  0  0  0  0  0  0  0
    7.8395    1.4285    2.0113 C   0  0  0  0  0  0  0  0  0  0  0  0
    6.4425    1.6860    1.3872 C   0  0  0  0  0  0  0  0  0  0  0  0
    8.7153    2.2946   -0.0986 C   0  0  0  0  0  0  0  0  0  0  0  0
    7.7351    1.2638   -0.7152 C   0  0  0  0  0  0  0  0  0  0  0  0
    6.4319    1.3067   -0.0359 N   0  0  0  0  0  0  0  0  0  0  0  0
    5.2680    0.8923   -0.6580 C   0  0  0  0  0  0  0  0  0  0  0  0
    4.0055    1.3488   -0.2472 C   0  0  0  0  0  0  0  0  0  0  0  0
    2.8232    0.9555   -0.8953 C   0  0  0  0  0  0  0  0  0  0  0  0
    2.8641    0.0646   -1.9718 C   0  0  0  0  0  0  0  0  0  0  0  0
    1.6088   -0.3501   -2.6980 C   0  0  0  0  0  0  0  0  0  0  0  0
    0.6778   -1.0485   -1.8495 N   0  0  0  0  0  0  0  0  0  0  0  0
    0.7719   -2.3963   -1.5866 C   0  0  0  0  0  0  0  0  0  0  0  0
   -0.3357   -2.9362   -0.7301 C   0  0  0  0  0  0  0  0  0  0  0  0
   -0.2265   -4.2113   -0.1955 C   0  0  0  0  0  0  0  0  0  0  0  0
   -1.2656   -4.6764    0.6005 C   0  0  0  0  0  0  0  0  0  0  0  0
   -2.3889   -3.8696    0.8134 C   0  0  0  0  0  0  0  0  0  0  0  0
   -3.5034   -4.3372    1.7082 C   0  0  0  0  0  0  0  0  0  0  0  0
   -4.8305   -3.6724    1.3550 C   0  0  0  0  0  0  0  0  0  0  0  0
   -4.6962   -2.2222    1.2709 N   0  0  0  0  0  0  0  0  0  0  0  0
   -3.6605   -1.7170    0.3596 C   0  0  0  0  0  0  0  0  0  0  0  0
   -5.7640   -1.4444    1.7127 C   0  0  0  0  0  0  0  0  0  0  0  0
   -5.7760   -0.0057    1.3995 C   0  0  0  0  0  0  0  0  0  0  0  0
   -5.3851    0.8850    2.3974 C   0  0  0  0  0  0  0  0  0  0  0  0
   -5.3888    2.2560    2.1354 C   0  0  0  0  0  0  0  0  0  0  0  0
   -5.7765    2.7477    0.8756 C   0  0  0  0  0  0  0  0  0  0  0  0
   -6.1829    1.8465   -0.1411 C   0  0  0  0  0  0  0  0  0  0  0  0
   -6.5419    2.3730   -1.4029 C   0  0  0  0  0  0  0  0  0  0  0  0
   -6.5152    3.7458   -1.6512 C   0  0  0  0  0  0  0  0  0  0  0  0
   -6.1250    4.6226   -0.6432 C   0  0  0  0  0  0  0  0  0  0  0  0
   -5.7603    4.1269    0.6113 C   0  0  0  0  0  0  0  0  0  0  0  0
   -6.2112    0.4639    0.1533 C   0  0  0  0  0  0  0  0  0  0  0  0
   -6.6162   -0.4337   -0.8119 O   0  0  0  0  0  0  0  0  0  0  0  0
   -8.0272   -0.6598   -0.7079 C   0  0  0  0  0  0  0  0  0  0  0  0
   -6.6994   -1.8766    2.3817 O   0  0  0  0  0  0  0  0  0  0  0  0
   -2.4285   -2.5974    0.2271 C   0  0  0  0  0  0  0  0  0  0  0  0
   -1.4082   -2.1142   -0.5318 N   0  0  0  0  0  0  0  0  0  0  0  0
    1.6662   -3.1221   -2.0063 O   0  0  0  0  0  0  0  0  0  0  0  0
    4.1103   -0.4197   -2.3772 C   0  0  0  0  0  0  0  0  0  0  0  0
    5.2867   -0.0032   -1.7364 C   0  0  0  0  0  0  0  0  0  0  0  0
   11.0143    2.3264    1.3281 H   0  0  0  0  0  0  0  0  0  0  0  0
   10.3565    1.6390    2.8020 H   0  0  0  0  0  0  0  0  0  0  0  0
   10.3907    0.6657    1.3121 H   0  0  0  0  0  0  0  0  0  0  0  0
    8.0547    0.3531    1.9418 H   0  0  0  0  0  0  0  0  0  0  0  0
    7.8082    1.6874    3.0781 H   0  0  0  0  0  0  0  0  0  0  0  0
    6.1783    2.7485    1.4861 H   0  0  0  0  0  0  0  0  0  0  0  0
    5.7095    1.0969    1.9527 H   0  0  0  0  0  0  0  0  0  0  0  0
    9.6719    2.2425   -0.6342 H   0  0  0  0  0  0  0  0  0  0  0  0
    8.3212    3.3003   -0.2980 H   0  0  0  0  0  0  0  0  0  0  0  0
    7.6202    1.5043   -1.7806 H   0  0  0  0  0  0  0  0  0  0  0  0
    8.1584    0.2529   -0.6362 H   0  0  0  0  0  0  0  0  0  0  0  0
    3.9230    2.0546    0.5742 H   0  0  0  0  0  0  0  0  0  0  0  0
    1.8728    1.3547   -0.5523 H   0  0  0  0  0  0  0  0  0  0  0  0
    1.8488   -0.9907   -3.5557 H   0  0  0  0  0  0  0  0  0  0  0  0
    1.1006    0.5399   -3.0885 H   0  0  0  0  0  0  0  0  0  0  0  0
   -0.1303   -0.5650   -1.4685 H   0  0  0  0  0  0  0  0  0  0  0  0
    0.6533   -4.8217   -0.3831 H   0  0  0  0  0  0  0  0  0  0  0  0
   -1.1951   -5.6659    1.0492 H   0  0  0  0  0  0  0  0  0  0  0  0
   -3.6179   -5.4255    1.6356 H   0  0  0  0  0  0  0  0  0  0  0  0
   -3.2305   -4.0924    2.7438 H   0  0  0  0  0  0  0  0  0  0  0  0
   -5.1939   -4.0196    0.3798 H   0  0  0  0  0  0  0  0  0  0  0  0
   -5.5819   -3.9517    2.0992 H   0  0  0  0  0  0  0  0  0  0  0  0
   -4.1198   -1.6312   -0.6335 H   0  0  0  0  0  0  0  0  0  0  0  0
   -3.3502   -0.7185    0.6836 H   0  0  0  0  0  0  0  0  0  0  0  0
   -5.0837    0.5176    3.3760 H   0  0  0  0  0  0  0  0  0  0  0  0
   -5.0794    2.9432    2.9228 H   0  0  0  0  0  0  0  0  0  0  0  0
   -6.8414    1.7034   -2.2078 H   0  0  0  0  0  0  0  0  0  0  0  0
   -6.8022    4.1260   -2.6297 H   0  0  0  0  0  0  0  0  0  0  0  0
   -6.0978    5.6946   -0.8295 H   0  0  0  0  0  0  0  0  0  0  0  0
   -5.4564    4.8312    1.3828 H   0  0  0  0  0  0  0  0  0  0  0  0
   -8.3071   -1.3586   -1.5053 H   0  0  0  0  0  0  0  0  0  0  0  0
   -8.5909    0.2652   -0.8546 H   0  0  0  0  0  0  0  0  0  0  0  0
   -8.2897   -1.1156    0.2515 H   0  0  0  0  0  0  0  0  0  0  0  0
    4.1853   -1.1406   -3.1894 H   0  0  0  0  0  0  0  0  0  0  0  0
    6.2251   -0.4250   -2.0853 H   0  0  0  0  0  0  0  0  0  0  0  0
  1  2  1  0
  2  3  1  0
  3  4  1  0
  2  5  1  0
  5  6  1  0
  6  7  1  0
  7  8  1  0
  8  9  2  0
  9 10  1  0
 10 11  2  0
 11 12  1  0
 12 13  1  0
 13 14  1  0
 14 15  1  0
 15 16  2  0
 16 17  1  0
 17 18  2  0
 18 19  1  0
 19 20  1  0
 20 21  1  0
 21 22  1  0
 21 23  1  0
 23 24  1  0
 24 25  2  0
 25 26  1  0
 26 27  2  0
 27 28  1  0
 28 29  1  0
 29 30  2  0
 30 31  1  0
 31 32  2  0
 24 33  1  0
 33 34  1  0
 34 35  1  0
 23 36  2  0
 18 37  1  0
 37 38  2  0
 14 39  2  0
 11 40  1  0
 40 41  2  0
  7  4  1  0
 41  8  1  0
 38 15  1  0
 37 22  1  0
 32 27  1  0
 33 28  2  0
  1 42  1  0
  1 43  1  0
  1 44  1  0
  3 45  1  0
  3 46  1  0
  4 47  1  0
  4 48  1  0
  5 49  1  0
  5 50  1  0
  6 51  1  0
  6 52  1  0
  9 53  1  0
 10 54  1  0
 12 55  1  0
 12 56  1  0
 13 57  1  0
 16 58  1  0
 17 59  1  0
 19 60  1  0
 19 61  1  0
 20 62  1  0
 20 63  1  0
 22 64  1  0
 22 65  1  0
 25 66  1  0
 26 67  1  0
 29 68  1  0
 30 69  1  0
 31 70  1  0
 32 71  1  0
 35 72  1  0
 35 73  1  0
 35 74  1  0
 40 75  1  0
 41 76  1  0
M  END
>  <AS_ratio>  (4) 
0.0301407

>  <type>  (4) 
active

$$$$
EDS00459346
     RDKit          3D

 64 68  0  0  0  0  0  0  0  0999 V2000
    8.1293   -0.6044    3.2386 C   0  0  0  0  0  0  0  0  0  0  0  0
    7.0016   -0.9051    2.3267 C   0  0  0  0  0  0  0  0  0  0  0  0
    5.6974   -0.4613    2.3329 C   0  0  0  0  0  0  0  0  0  0  0  0
    5.0681   -1.0531    1.2014 C   0  0  0  0  0  0  0  0  0  0  0  0
    3.6452   -0.8670    0.8348 C   0  0  0  0  0  0  0  0  0  0  0  0
    3.1976   -1.1440   -0.4691 N   0  0  0  0  0  0  0  0  0  0  0  0
    4.0433   -1.1497   -1.6622 C   0  0  0  0  0  0  0  0  0  0  0  0
    4.1157    0.2653   -2.2459 C   0  0  0  0  0  0  0  0  0  0  0  0
    1.8007   -0.8409   -0.7741 C   0  0  0  0  0  0  0  0  0  0  0  0
    1.6568    0.4193   -1.6145 C   0  0  0  0  0  0  0  0  0  0  0  0
    2.7521    0.9100   -2.3472 C   0  0  0  0  0  0  0  0  0  0  0  0
    2.5724    2.0549   -3.1302 C   0  0  0  0  0  0  0  0  0  0  0  0
    1.3237    2.6644   -3.1802 C   0  0  0  0  0  0  0  0  0  0  0  0
    0.2933    2.1067   -2.4373 C   0  0  0  0  0  0  0  0  0  0  0  0
   -1.0638    2.7441   -2.4526 C   0  0  0  0  0  0  0  0  0  0  0  0
   -1.9778    2.1466   -1.6164 N   0  0  0  0  0  0  0  0  0  0  0  0
   -3.3800    2.5025   -1.6307 C   0  0  0  0  0  0  0  0  0  0  0  0
   -4.0706    2.1058   -0.3474 C   0  0  0  0  0  0  0  0  0  0  0  0
   -4.9868    1.1030   -0.4114 N   0  0  0  0  0  0  0  0  0  0  0  0
   -5.5933    0.6929    0.7232 C   0  0  0  0  0  0  0  0  0  0  0  0
   -6.5511   -0.3417    0.6722 N   0  0  0  0  0  0  0  0  0  0  0  0
   -6.1419   -1.5315    1.4528 C   0  0  0  0  0  0  0  0  0  0  0  0
   -7.2458   -2.6006    1.3936 C   0  0  0  0  0  0  0  0  0  0  0  0
   -7.5698   -2.9561    0.0397 O   0  0  0  0  0  0  0  0  0  0  0  0
   -8.0137   -1.7939   -0.6810 C   0  0  0  0  0  0  0  0  0  0  0  0
   -6.9294   -0.7054   -0.7119 C   0  0  0  0  0  0  0  0  0  0  0  0
   -5.3089    1.3069    1.9451 C   0  0  0  0  0  0  0  0  0  0  0  0
   -4.3710    2.3342    2.0088 C   0  0  0  0  0  0  0  0  0  0  0  0
   -3.7376    2.7402    0.8450 C   0  0  0  0  0  0  0  0  0  0  0  0
   -1.3130    3.7150   -3.1584 O   0  0  0  0  0  0  0  0  0  0  0  0
    0.4269    0.9911   -1.6641 N   0  0  0  0  0  0  0  0  0  0  0  0
    2.8596   -0.4558    1.6931 O   0  0  0  0  0  0  0  0  0  0  0  0
    5.9389   -1.8508    0.5564 N   0  0  0  0  0  0  0  0  0  0  0  0
    7.0875   -1.7466    1.2516 N   0  0  0  0  0  0  0  0  0  0  0  0
    8.2438   -2.4899    0.8039 C   0  0  0  0  0  0  0  0  0  0  0  0
    7.8361    0.1341    3.9927 H   0  0  0  0  0  0  0  0  0  0  0  0
    8.9774   -0.1960    2.6777 H   0  0  0  0  0  0  0  0  0  0  0  0
    8.4585   -1.5076    3.7627 H   0  0  0  0  0  0  0  0  0  0  0  0
    5.2378    0.2077    3.0479 H   0  0  0  0  0  0  0  0  0  0  0  0
    3.5821   -1.8358   -2.3846 H   0  0  0  0  0  0  0  0  0  0  0  0
    5.0492   -1.5205   -1.4885 H   0  0  0  0  0  0  0  0  0  0  0  0
    4.7412    0.8961   -1.6013 H   0  0  0  0  0  0  0  0  0  0  0  0
    4.5844    0.2215   -3.2354 H   0  0  0  0  0  0  0  0  0  0  0  0
    1.1946   -0.7512    0.1328 H   0  0  0  0  0  0  0  0  0  0  0  0
    1.4035   -1.6836   -1.3531 H   0  0  0  0  0  0  0  0  0  0  0  0
    3.4009    2.4773   -3.6947 H   0  0  0  0  0  0  0  0  0  0  0  0
    1.1594    3.5559   -3.7766 H   0  0  0  0  0  0  0  0  0  0  0  0
   -1.6939    1.2630   -1.1999 H   0  0  0  0  0  0  0  0  0  0  0  0
   -3.4937    3.5801   -1.8028 H   0  0  0  0  0  0  0  0  0  0  0  0
   -3.8374    1.9835   -2.4827 H   0  0  0  0  0  0  0  0  0  0  0  0
   -5.9616   -1.2845    2.5043 H   0  0  0  0  0  0  0  0  0  0  0  0
   -5.2158   -1.9462    1.0318 H   0  0  0  0  0  0  0  0  0  0  0  0
   -6.9085   -3.5099    1.9017 H   0  0  0  0  0  0  0  0  0  0  0  0
   -8.1566   -2.2542    1.8974 H   0  0  0  0  0  0  0  0  0  0  0  0
   -8.9361   -1.4219   -0.2192 H   0  0  0  0  0  0  0  0  0  0  0  0
   -8.2528   -2.1092   -1.7012 H   0  0  0  0  0  0  0  0  0  0  0  0
   -6.0577   -1.0951   -1.2547 H   0  0  0  0  0  0  0  0  0  0  0  0
   -7.3244    0.1670   -1.2458 H   0  0  0  0  0  0  0  0  0  0  0  0
   -5.8253    0.9997    2.8464 H   0  0  0  0  0  0  0  0  0  0  0  0
   -4.1414    2.8115    2.9581 H   0  0  0  0  0  0  0  0  0  0  0  0
   -2.9926    3.5302    0.8649 H   0  0  0  0  0  0  0  0  0  0  0  0
    7.9104   -3.3655    0.2400 H   0  0  0  0  0  0  0  0  0  0  0  0
    8.8223   -2.8181    1.6700 H   0  0  0  0  0  0  0  0  0  0  0  0
    8.8409   -1.8337    0.1653 H   0  0  0  0  0  0  0  0  0  0  0  0
  1  2  1  0
  2  3  2  0
  3  4  1  0
  4  5  1  0
  5  6  1  0
  6  7  1  0
  7  8  1  0
  6  9  1  0
  9 10  1  0
 10 11  2  0
 11 12  1  0
 12 13  2  0
 13 14  1  0
 14 15  1  0
 15 16  1  0
 16 17  1  0
 17 18  1  0
 18 19  2  0
 19 20  1  0
 20 21  1  0
 21 22  1  0
 22 23  1  0
 23 24  1  0
 24 25  1  0
 25 26  1  0
 20 27  2  0
 27 28  1  0
 28 29  2  0
 15 30  2  0
 14 31  2  0
  5 32  2  0
  4 33  2  0
 33 34  1  0
 34 35  1  0
 34  2  1  0
 11  8  1  0
 29 18  1  0
 31 10  1  0
 26 21  1  0
  1 36  1  0
  1 37  1  0
  1 38  1  0
  3 39  1  0
  7 40  1  0
  7 41  1  0
  8 42  1  0
  8 43  1  0
  9 44  1  0
  9 45  1  0
 12 46  1  0
 13 47  1  0
 16 48  1  0
 17 49  1  0
 17 50  1  0
 22 51  1  0
 22 52  1  0
 23 53  1  0
 23 54  1  0
 25 55  1  0
 25 56  1  0
 26 57  1  0
 26 58  1  0
 27 59  1  0
 28 60  1  0
 29 61  1  0
 35 62  1  0
 35 63  1  0
 35 64  1  0
M  END
>  <AS_ratio>  (5) 
0.0207765

>  <type>  (5) 
active

$$$$
EDS00481762
     RDKit          3D

 69 74  0  0  0  0  0  0  0  0999 V2000
   -9.7478   -1.6215    1.7745 C   0  0  0  0  0  0  0  0  0  0  0  0
   -8.8268   -0.6616    2.3769 N   0  0  0  0  0  0  0  0  0  0  0  0
   -7.4885   -1.2762    2.5640 C   0  0  0  0  0  0  0  0  0  0  0  0
   -6.3276   -0.2621    2.4906 C   0  0  0  0  0  0  0  0  0  0  0  0
   -8.7414    0.5885    1.5893 C   0  0  0  0  0  0  0  0  0  0  0  0
   -7.5981    0.6443    0.5471 C   0  0  0  0  0  0  0  0  0  0  0  0
   -6.2706    0.3724    1.1577 N   0  0  0  0  0  0  0  0  0  0  0  0
   -5.3051   -0.0247    0.2226 C   0  0  0  0  0  0  0  0  0  0  0  0
   -4.6168   -1.2429    0.2847 C   0  0  0  0  0  0  0  0  0  0  0  0
   -3.6766   -1.6059   -0.6903 C   0  0  0  0  0  0  0  0  0  0  0  0
   -3.3971   -0.7558   -1.7641 C   0  0  0  0  0  0  0  0  0  0  0  0
   -2.3873   -1.1354   -2.8144 C   0  0  0  0  0  0  0  0  0  0  0  0
   -1.0992   -0.5558   -2.5328 N   0  0  0  0  0  0  0  0  0  0  0  0
   -0.6738    0.6264   -3.0978 C   0  0  0  0  0  0  0  0  0  0  0  0
    0.6119    1.1515   -2.5302 C   0  0  0  0  0  0  0  0  0  0  0  0
    1.1133    2.3676   -2.9740 C   0  0  0  0  0  0  0  0  0  0  0  0
    2.2984    2.8324   -2.4155 C   0  0  0  0  0  0  0  0  0  0  0  0
    2.9461    2.0602   -1.4502 C   0  0  0  0  0  0  0  0  0  0  0  0
    4.2240    2.4993   -0.7985 C   0  0  0  0  0  0  0  0  0  0  0  0
    5.1337    1.2910   -0.5683 C   0  0  0  0  0  0  0  0  0  0  0  0
    4.4806    0.2092    0.1757 N   0  0  0  0  0  0  0  0  0  0  0  0
    3.0299    0.0366    0.0421 C   0  0  0  0  0  0  0  0  0  0  0  0
    5.1335   -0.6639    1.0519 C   0  0  0  0  0  0  0  0  0  0  0  0
    6.5861   -0.6679    1.0882 C   0  0  0  0  0  0  0  0  0  0  0  0
    7.3900   -0.5126    2.1980 C   0  0  0  0  0  0  0  0  0  0  0  0
    8.7891   -0.6290    1.9024 C   0  0  0  0  0  0  0  0  0  0  0  0
    9.9222   -0.5092    2.7430 C   0  0  0  0  0  0  0  0  0  0  0  0
   11.2098   -0.6712    2.2222 C   0  0  0  0  0  0  0  0  0  0  0  0
   11.3916   -0.9546    0.8756 C   0  0  0  0  0  0  0  0  0  0  0  0
   10.2922   -1.0831    0.0234 C   0  0  0  0  0  0  0  0  0  0  0  0
    8.9968   -0.9186    0.5518 C   0  0  0  0  0  0  0  0  0  0  0  0
    7.5051   -1.0493   -0.2986 S   0  0  0  0  0  0  0  0  0  0  0  0
    4.4815   -1.3934    1.8013 O   0  0  0  0  0  0  0  0  0  0  0  0
    2.3735    0.8467   -1.0561 C   0  0  0  0  0  0  0  0  0  0  0  0
    1.2110    0.3823   -1.5761 N   0  0  0  0  0  0  0  0  0  0  0  0
   -1.2757    1.2267   -3.9810 O   0  0  0  0  0  0  0  0  0  0  0  0
   -4.0561    0.4740   -1.8274 C   0  0  0  0  0  0  0  0  0  0  0  0
   -4.9937    0.8270   -0.8506 C   0  0  0  0  0  0  0  0  0  0  0  0
   -9.8166   -2.5260    2.3900 H   0  0  0  0  0  0  0  0  0  0  0  0
  -10.7595   -1.2021    1.7193 H   0  0  0  0  0  0  0  0  0  0  0  0
   -9.4468   -1.9134    0.7626 H   0  0  0  0  0  0  0  0  0  0  0  0
   -7.4733   -1.7738    3.5408 H   0  0  0  0  0  0  0  0  0  0  0  0
   -7.3113   -2.0488    1.8040 H   0  0  0  0  0  0  0  0  0  0  0  0
   -6.4884    0.5278    3.2369 H   0  0  0  0  0  0  0  0  0  0  0  0
   -5.3801   -0.7331    2.7763 H   0  0  0  0  0  0  0  0  0  0  0  0
   -8.5909    1.4084    2.3046 H   0  0  0  0  0  0  0  0  0  0  0  0
   -9.6978    0.8085    1.0978 H   0  0  0  0  0  0  0  0  0  0  0  0
   -7.5935    1.6411    0.0904 H   0  0  0  0  0  0  0  0  0  0  0  0
   -7.8140   -0.0895   -0.2421 H   0  0  0  0  0  0  0  0  0  0  0  0
   -4.8136   -1.9580    1.0759 H   0  0  0  0  0  0  0  0  0  0  0  0
   -3.1734   -2.5655   -0.6054 H   0  0  0  0  0  0  0  0  0  0  0  0
   -2.2573   -2.2226   -2.8440 H   0  0  0  0  0  0  0  0  0  0  0  0
   -2.7397   -0.8252   -3.8047 H   0  0  0  0  0  0  0  0  0  0  0  0
   -0.5642   -0.8845   -1.7344 H   0  0  0  0  0  0  0  0  0  0  0  0
    0.5881    2.9414   -3.7307 H   0  0  0  0  0  0  0  0  0  0  0  0
    2.7076    3.7867   -2.7366 H   0  0  0  0  0  0  0  0  0  0  0  0
    3.9831    2.9833    0.1549 H   0  0  0  0  0  0  0  0  0  0  0  0
    4.7473    3.2303   -1.4251 H   0  0  0  0  0  0  0  0  0  0  0  0
    6.0319    1.6210   -0.0387 H   0  0  0  0  0  0  0  0  0  0  0  0
    5.4425    0.8705   -1.5324 H   0  0  0  0  0  0  0  0  0  0  0  0
    2.5757    0.3234    0.9984 H   0  0  0  0  0  0  0  0  0  0  0  0
    2.8237   -1.0291   -0.1187 H   0  0  0  0  0  0  0  0  0  0  0  0
    6.9918   -0.3172    3.1875 H   0  0  0  0  0  0  0  0  0  0  0  0
    9.7934   -0.2912    3.8005 H   0  0  0  0  0  0  0  0  0  0  0  0
   12.0720   -0.5779    2.8786 H   0  0  0  0  0  0  0  0  0  0  0  0
   12.3963   -1.0839    0.4790 H   0  0  0  0  0  0  0  0  0  0  0  0
   10.4376   -1.3139   -1.0282 H   0  0  0  0  0  0  0  0  0  0  0  0
   -3.8384    1.1707   -2.6349 H   0  0  0  0  0  0  0  0  0  0  0  0
   -5.4701    1.8012   -0.9219 H   0  0  0  0  0  0  0  0  0  0  0  0
  1  2  1  0
  2  3  1  0
  3  4  1  0
  2  5  1  0
  5  6  1  0
  6  7  1  0
  7  8  1  0
  8  9  2  0
  9 10  1  0
 10 11  2  0
 11 12  1  0
 12 13  1  0
 13 14  1  0
 14 15  1  0
 15 16  2  0
 16 17  1  0
 17 18  2  0
 18 19  1  0
 19 20  1  0
 20 21  1  0
 21 22  1  0
 21 23  1  0
 23 24  1  0
 24 25  2  0
 25 26  1  0
 26 27  2  0
 27 28  1  0
 28 29  2  0
 29 30  1  0
 26 31  1  0
 31 32  1  0
 23 33  2  0
 18 34  1  0
 34 35  2  0
 14 36  2  0
 11 37  1  0
 37 38  2  0
  7  4  1  0
 38  8  1  0
 35 15  1  0
 34 22  1  0
 32 24  1  0
 31 30  2  0
  1 39  1  0
  1 40  1  0
  1 41  1  0
  3 42  1  0
  3 43  1  0
  4 44  1  0
  4 45  1  0
  5 46  1  0
  5 47  1  0
  6 48  1  0
  6 49  1  0
  9 50  1  0
 10 51  1  0
 12 52  1  0
 12 53  1  0
 13 54  1  0
 16 55  1  0
 17 56  1  0
 19 57  1  0
 19 58  1  0
 20 59  1  0
 20 60  1  0
 22 61  1  0
 22 62  1  0
 25 63  1  0
 27 64  1  0
 28 65  1  0
 29 66  1  0
 30 67  1  0
 37 68  1  0
 38 69  1  0
M  END
>  <AS_ratio>  (6) 
0.0181035

>  <type>  (6) 
active

$$$$
EDS00444974
     RDKit          3D

 49 51  0  0  0  0  0  0  0  0999 V2000
    5.2653    1.8605   -1.2318 C   0  0  0  0  0  0  0  0  0  0  0  0
    5.4192    0.3992   -0.8120 C   0  0  0  0  0  0  0  0  0  0  0  0
    6.3130   -0.3324   -1.8171 C   0  0  0  0  0  0  0  0  0  0  0  0
    4.0459   -0.2727   -0.7131 C   0  0  0  0  0  0  0  0  0  0  0  0
    3.1939    0.1156    0.3176 N   0  0  0  0  0  0  0  0  0  0  0  0
    3.6356    0.7304    1.5682 C   0  0  0  0  0  0  0  0  0  0  0  0
    2.5937    1.7157    2.0955 C   0  0  0  0  0  0  0  0  0  0  0  0
    1.9042   -0.5798    0.3793 C   0  0  0  0  0  0  0  0  0  0  0  0
    0.8838    0.0309    1.3196 C   0  0  0  0  0  0  0  0  0  0  0  0
    1.2216    1.1042    2.1526 C   0  0  0  0  0  0  0  0  0  0  0  0
    0.2399    1.6354    2.9956 C   0  0  0  0  0  0  0  0  0  0  0  0
   -1.0318    1.0751    3.0087 C   0  0  0  0  0  0  0  0  0  0  0  0
   -1.2785    0.0017    2.1672 C   0  0  0  0  0  0  0  0  0  0  0  0
   -2.6369   -0.6312    2.1432 C   0  0  0  0  0  0  0  0  0  0  0  0
   -2.7556   -1.6929    1.2751 N   0  0  0  0  0  0  0  0  0  0  0  0
   -4.0264   -2.3126    0.9790 C   0  0  0  0  0  0  0  0  0  0  0  0
   -4.7206   -1.6509   -0.1818 C   0  0  0  0  0  0  0  0  0  0  0  0
   -4.5145   -2.1588   -1.4258 N   0  0  0  0  0  0  0  0  0  0  0  0
   -5.1412   -1.5104   -2.4358 C   0  0  0  0  0  0  0  0  0  0  0  0
   -5.9459   -0.3942   -2.2365 C   0  0  0  0  0  0  0  0  0  0  0  0
   -6.6141    0.2806   -3.3918 C   0  0  0  0  0  0  0  0  0  0  0  0
   -6.1464    0.1167   -0.9984 N   0  0  0  0  0  0  0  0  0  0  0  0
   -5.5156   -0.5266    0.0147 C   0  0  0  0  0  0  0  0  0  0  0  0
   -3.5590   -0.2123    2.8339 O   0  0  0  0  0  0  0  0  0  0  0  0
   -0.3508   -0.5335    1.3247 N   0  0  0  0  0  0  0  0  0  0  0  0
    3.6918   -1.1055   -1.5506 O   0  0  0  0  0  0  0  0  0  0  0  0
    6.2419    2.3524   -1.2919 H   0  0  0  0  0  0  0  0  0  0  0  0
    4.6495    2.4278   -0.5279 H   0  0  0  0  0  0  0  0  0  0  0  0
    4.7848    1.9380   -2.2138 H   0  0  0  0  0  0  0  0  0  0  0  0
    5.9196    0.3316    0.1592 H   0  0  0  0  0  0  0  0  0  0  0  0
    7.3113    0.1168   -1.8481 H   0  0  0  0  0  0  0  0  0  0  0  0
    6.4266   -1.3865   -1.5408 H   0  0  0  0  0  0  0  0  0  0  0  0
    5.8942   -0.2974   -2.8291 H   0  0  0  0  0  0  0  0  0  0  0  0
    4.5877    1.2507    1.4565 H   0  0  0  0  0  0  0  0  0  0  0  0
    3.8001   -0.0841    2.2852 H   0  0  0  0  0  0  0  0  0  0  0  0
    2.8990    2.0570    3.0914 H   0  0  0  0  0  0  0  0  0  0  0  0
    2.5490    2.5920    1.4370 H   0  0  0  0  0  0  0  0  0  0  0  0
    1.4727   -0.6207   -0.6278 H   0  0  0  0  0  0  0  0  0  0  0  0
    2.1042   -1.6080    0.7058 H   0  0  0  0  0  0  0  0  0  0  0  0
    0.4592    2.4838    3.6397 H   0  0  0  0  0  0  0  0  0  0  0  0
   -1.8106    1.4677    3.6545 H   0  0  0  0  0  0  0  0  0  0  0  0
   -1.9705   -1.8544    0.6489 H   0  0  0  0  0  0  0  0  0  0  0  0
   -4.6692   -2.2981    1.8664 H   0  0  0  0  0  0  0  0  0  0  0  0
   -3.8231   -3.3610    0.7352 H   0  0  0  0  0  0  0  0  0  0  0  0
   -4.9747   -1.9205   -3.4262 H   0  0  0  0  0  0  0  0  0  0  0  0
   -7.2086    1.1352   -3.0531 H   0  0  0  0  0  0  0  0  0  0  0  0
   -7.2833   -0.4181   -3.9034 H   0  0  0  0  0  0  0  0  0  0  0  0
   -5.8655    0.6463   -4.1015 H   0  0  0  0  0  0  0  0  0  0  0  0
   -5.6650   -0.1027    1.0033 H   0  0  0  0  0  0  0  0  0  0  0  0
  1  2  1  0
  2  3  1  0
  2  4  1  0
  4  5  1  0
  5  6  1  0
  6  7  1  0
  5  8  1  0
  8  9  1  0
  9 10  2  0
 10 11  1  0
 11 12  2  0
 12 13  1  0
 13 14  1  0
 14 15  1  0
 15 16  1  0
 16 17  1  0
 17 18  2  0
 18 19  1  0
 19 20  2  0
 20 21  1  0
 20 22  1  0
 22 23  2  0
 14 24  2  0
 13 25  2  0
  4 26  2  0
 10  7  1  0
 23 17  1  0
 25  9  1  0
  1 27  1  0
  1 28  1  0
  1 29  1  0
  2 30  1  0
  3 31  1  0
  3 32  1  0
  3 33  1  0
  6 34  1  0
  6 35  1  0
  7 36  1  0
  7 37  1  0
  8 38  1  0
  8 39  1  0
 11 40  1  0
 12 41  1  0
 15 42  1  0
 16 43  1  0
 16 44  1  0
 19 45  1  0
 21 46  1  0
 21 47  1  0
 21 48  1  0
 23 49  1  0
M  END
>  <AS_ratio>  (7) 
0.0163117

>  <type>  (7) 
active

$$$$
EDS00492874
     RDKit          3D

 70 73  0  0  0  0  0  0  0  0999 V2000
   -5.9110   -0.4590    0.8627 C   0  0  0  0  0  0  0  0  0  0  0  0
   -5.4597    0.6760   -0.0852 C   0  0  0  0  0  0  0  0  0  0  0  0
   -4.4401    1.5378    0.7032 C   0  0  0  0  0  0  0  0  0  0  0  0
   -4.7573    0.0966   -1.3527 C   0  0  0  0  0  0  0  0  0  0  0  0
   -3.5503   -0.6545   -1.0698 N   0  0  0  0  0  0  0  0  0  0  0  0
   -3.5087   -2.0271   -0.9419 C   0  0  0  0  0  0  0  0  0  0  0  0
   -2.1846   -2.5475   -0.4624 C   0  0  0  0  0  0  0  0  0  0  0  0
   -1.2738   -1.6003   -0.0959 N   0  0  0  0  0  0  0  0  0  0  0  0
   -0.0714   -2.0365    0.3593 C   0  0  0  0  0  0  0  0  0  0  0  0
    0.9025   -0.9682    0.8078 C   0  0  0  0  0  0  0  0  0  0  0  0
    2.1735   -1.4557    1.3428 N   0  0  0  0  0  0  0  0  0  0  0  0
    2.6476   -2.7251    0.8016 C   0  0  0  0  0  0  0  0  0  0  0  0
    1.5990   -3.8241    0.9625 C   0  0  0  0  0  0  0  0  0  0  0  0
    3.1074   -0.6038    1.9284 C   0  0  0  0  0  0  0  0  0  0  0  0
    2.6105    0.7646    2.3884 C   0  0  0  0  0  0  0  0  0  0  0  0
    3.7317    1.7831    2.6082 C   0  0  0  0  0  0  0  0  0  0  0  0
    4.0466    2.6103    1.3625 C   0  0  0  0  0  0  0  0  0  0  0  0
    4.5860    1.7867    0.2025 C   0  0  0  0  0  0  0  0  0  0  0  0
    5.9614    1.8933    0.0716 N   0  0  0  0  0  0  0  0  0  0  0  0
    6.7841    1.3128   -0.9155 C   0  0  0  0  0  0  0  0  0  0  0  0
    8.1508    1.6445   -0.8782 C   0  0  0  0  0  0  0  0  0  0  0  0
    9.0369    1.1283   -1.8262 C   0  0  0  0  0  0  0  0  0  0  0  0
    8.5709    0.2635   -2.8160 C   0  0  0  0  0  0  0  0  0  0  0  0
    7.2168   -0.0812   -2.8553 C   0  0  0  0  0  0  0  0  0  0  0  0
    6.3262    0.4420   -1.9090 C   0  0  0  0  0  0  0  0  0  0  0  0
    3.8153    1.1512   -0.5126 O   0  0  0  0  0  0  0  0  0  0  0  0
    4.2682   -0.9528    2.1450 O   0  0  0  0  0  0  0  0  0  0  0  0
    0.2577   -3.3923    0.4329 C   0  0  0  0  0  0  0  0  0  0  0  0
   -0.7075   -4.3369    0.0647 C   0  0  0  0  0  0  0  0  0  0  0  0
   -1.9524   -3.9110   -0.3911 C   0  0  0  0  0  0  0  0  0  0  0  0
   -4.4519   -2.7701   -1.1767 O   0  0  0  0  0  0  0  0  0  0  0  0
   -6.7029    1.4761   -0.5269 C   0  0  0  0  0  0  0  0  0  0  0  0
   -7.7725    0.8259   -1.1652 C   0  0  0  0  0  0  0  0  0  0  0  0
   -8.8994    1.5507   -1.5306 C   0  0  0  0  0  0  0  0  0  0  0  0
   -9.0452    2.8669   -1.3113 N   0  0  0  0  0  0  0  0  0  0  0  0
   -8.0081    3.4913   -0.7155 C   0  0  0  0  0  0  0  0  0  0  0  0
   -6.8407    2.8537   -0.3148 C   0  0  0  0  0  0  0  0  0  0  0  0
   -6.5210   -1.2153    0.3512 H   0  0  0  0  0  0  0  0  0  0  0  0
   -5.0542   -0.9804    1.3038 H   0  0  0  0  0  0  0  0  0  0  0  0
   -6.5091   -0.0613    1.6951 H   0  0  0  0  0  0  0  0  0  0  0  0
   -3.6000    0.9361    1.0712 H   0  0  0  0  0  0  0  0  0  0  0  0
   -4.9003    2.0015    1.5861 H   0  0  0  0  0  0  0  0  0  0  0  0
   -4.0189    2.3365    0.0794 H   0  0  0  0  0  0  0  0  0  0  0  0
   -4.4588    0.9116   -2.0236 H   0  0  0  0  0  0  0  0  0  0  0  0
   -5.4397   -0.5532   -1.9155 H   0  0  0  0  0  0  0  0  0  0  0  0
   -2.6915   -0.1644   -0.8225 H   0  0  0  0  0  0  0  0  0  0  0  0
    0.4043   -0.3752    1.5807 H   0  0  0  0  0  0  0  0  0  0  0  0
    1.1321   -0.3200   -0.0454 H   0  0  0  0  0  0  0  0  0  0  0  0
    2.8791   -2.5588   -0.2583 H   0  0  0  0  0  0  0  0  0  0  0  0
    3.5763   -3.0377    1.2916 H   0  0  0  0  0  0  0  0  0  0  0  0
    1.9411   -4.7229    0.4388 H   0  0  0  0  0  0  0  0  0  0  0  0
    1.4817   -4.0764    2.0228 H   0  0  0  0  0  0  0  0  0  0  0  0
    1.8772    1.1815    1.6955 H   0  0  0  0  0  0  0  0  0  0  0  0
    2.1107    0.5922    3.3466 H   0  0  0  0  0  0  0  0  0  0  0  0
    4.6460    1.3063    2.9857 H   0  0  0  0  0  0  0  0  0  0  0  0
    3.3978    2.4818    3.3858 H   0  0  0  0  0  0  0  0  0  0  0  0
    3.1486    3.1392    1.0092 H   0  0  0  0  0  0  0  0  0  0  0  0
    4.7670    3.3936    1.6283 H   0  0  0  0  0  0  0  0  0  0  0  0
    6.4494    2.4393    0.7679 H   0  0  0  0  0  0  0  0  0  0  0  0
    8.5429    2.3126   -0.1117 H   0  0  0  0  0  0  0  0  0  0  0  0
   10.0967    1.3918   -1.7839 H   0  0  0  0  0  0  0  0  0  0  0  0
    9.2592   -0.1487   -3.5529 H   0  0  0  0  0  0  0  0  0  0  0  0
    6.8505   -0.7685   -3.6188 H   0  0  0  0  0  0  0  0  0  0  0  0
    5.2858    0.1300   -1.9628 H   0  0  0  0  0  0  0  0  0  0  0  0
   -0.4947   -5.4014    0.1333 H   0  0  0  0  0  0  0  0  0  0  0  0
   -2.7152   -4.6244   -0.6853 H   0  0  0  0  0  0  0  0  0  0  0  0
   -7.7425   -0.2346   -1.3828 H   0  0  0  0  0  0  0  0  0  0  0  0
   -9.7450    1.0684   -2.0124 H   0  0  0  0  0  0  0  0  0  0  0  0
   -8.1435    4.5529   -0.5448 H   0  0  0  0  0  0  0  0  0  0  0  0
   -6.0684    3.4551    0.1562 H   0  0  0  0  0  0  0  0  0  0  0  0
  1  2  1  0
  2  3  1  0
  2  4  1  0
  4  5  1  0
  5  6  1  0
  6  7  1  0
  7  8  2  0
  8  9  1  0
  9 10  1  0
 10 11  1  0
 11 12  1  0
 12 13  1  0
 11 14  1  0
 14 15  1  0
 15 16  1  0
 16 17  1  0
 17 18  1  0
 18 19  1  0
 19 20  1  0
 20 21  2  0
 21 22  1  0
 22 23  2  0
 23 24  1  0
 24 25  2  0
 18 26  2  0
 14 27  2  0
  9 28  2  0
 28 29  1  0
 29 30  2  0
  6 31  2  0
  2 32  1  0
 32 33  2  0
 33 34  1  0
 34 35  2  0
 35 36  1  0
 36 37  2  0
 30  7  1  0
 37 32  1  0
 28 13  1  0
 25 20  1  0
  1 38  1  0
  1 39  1  0
  1 40  1  0
  3 41  1  0
  3 42  1  0
  3 43  1  0
  4 44  1  0
  4 45  1  0
  5 46  1  0
 10 47  1  0
 10 48  1  0
 12 49  1  0
 12 50  1  0
 13 51  1  0
 13 52  1  0
 15 53  1  0
 15 54  1  0
 16 55  1  0
 16 56  1  0
 17 57  1  0
 17 58  1  0
 19 59  1  0
 21 60  1  0
 22 61  1  0
 23 62  1  0
 24 63  1  0
 25 64  1  0
 29 65  1  0
 30 66  1  0
 33 67  1  0
 34 68  1  0
 36 69  1  0
 37 70  1  0
M  END
>  <AS_ratio>  (8) 
0.0105749

>  <type>  (8) 
active

$$$$
EDS00492986
     RDKit          3D

 73 76  0  0  0  0  0  0  0  0999 V2000
  -10.9958    0.7584    2.3717 C   0  0  0  0  0  0  0  0  0  0  0  0
  -10.1975   -0.5023    2.6493 C   0  0  0  0  0  0  0  0  0  0  0  0
   -9.0241   -0.5424    1.8228 O   0  0  0  0  0  0  0  0  0  0  0  0
   -7.9255    0.0973    2.3102 C   0  0  0  0  0  0  0  0  0  0  0  0
   -6.8581    0.0336    1.4308 N   0  0  0  0  0  0  0  0  0  0  0  0
   -6.9153   -0.7647    0.2106 C   0  0  0  0  0  0  0  0  0  0  0  0
   -5.5939   -0.7821   -0.5482 C   0  0  0  0  0  0  0  0  0  0  0  0
   -5.5830    0.6280    1.7959 C   0  0  0  0  0  0  0  0  0  0  0  0
   -4.9530    1.3863    0.6294 C   0  0  0  0  0  0  0  0  0  0  0  0
   -5.0646    0.6447   -0.7123 C   0  0  0  0  0  0  0  0  0  0  0  0
   -3.7952    0.6513   -1.4208 N   0  0  0  0  0  0  0  0  0  0  0  0
   -3.7102    0.5267   -2.7945 C   0  0  0  0  0  0  0  0  0  0  0  0
   -2.3111    0.4039   -3.3184 C   0  0  0  0  0  0  0  0  0  0  0  0
   -1.3150    0.3914   -2.3862 N   0  0  0  0  0  0  0  0  0  0  0  0
   -0.0405    0.2784   -2.8421 C   0  0  0  0  0  0  0  0  0  0  0  0
    1.0570    0.2573   -1.7947 C   0  0  0  0  0  0  0  0  0  0  0  0
    2.4071    0.0278   -2.3161 N   0  0  0  0  0  0  0  0  0  0  0  0
    2.6810    0.5914   -3.6365 C   0  0  0  0  0  0  0  0  0  0  0  0
    1.6897    0.0615   -4.6714 C   0  0  0  0  0  0  0  0  0  0  0  0
    3.3811   -0.3600   -1.4020 C   0  0  0  0  0  0  0  0  0  0  0  0
    4.7978   -0.5210   -1.9359 C   0  0  0  0  0  0  0  0  0  0  0  0
    5.7791   -1.1437   -0.9416 C   0  0  0  0  0  0  0  0  0  0  0  0
    6.1742   -0.1984    0.1957 C   0  0  0  0  0  0  0  0  0  0  0  0
    7.3053   -0.7646    1.0453 C   0  0  0  0  0  0  0  0  0  0  0  0
    7.5018   -0.0118    2.1930 N   0  0  0  0  0  0  0  0  0  0  0  0
    8.4676   -0.2158    3.2012 C   0  0  0  0  0  0  0  0  0  0  0  0
    9.3972   -1.2574    3.1973 C   0  0  0  0  0  0  0  0  0  0  0  0
   10.3229   -1.3877    4.2392 C   0  0  0  0  0  0  0  0  0  0  0  0
   10.3273   -0.4781    5.2935 C   0  0  0  0  0  0  0  0  0  0  0  0
    9.4055    0.5645    5.3080 C   0  0  0  0  0  0  0  0  0  0  0  0
    8.4811    0.6940    4.2672 C   0  0  0  0  0  0  0  0  0  0  0  0
    7.9569   -1.7420    0.6924 O   0  0  0  0  0  0  0  0  0  0  0  0
    3.1125   -0.5632   -0.2188 O   0  0  0  0  0  0  0  0  0  0  0  0
    0.2652    0.2014   -4.2071 C   0  0  0  0  0  0  0  0  0  0  0  0
   -0.7844    0.1972   -5.1317 C   0  0  0  0  0  0  0  0  0  0  0  0
   -2.0956    0.3026   -4.6834 C   0  0  0  0  0  0  0  0  0  0  0  0
   -4.6798    0.5007   -3.5433 O   0  0  0  0  0  0  0  0  0  0  0  0
   -7.8906    0.6662    3.3940 O   0  0  0  0  0  0  0  0  0  0  0  0
  -10.4200    1.6534    2.6276 H   0  0  0  0  0  0  0  0  0  0  0  0
  -11.9187    0.7576    2.9567 H   0  0  0  0  0  0  0  0  0  0  0  0
  -11.2469    0.8315    1.3097 H   0  0  0  0  0  0  0  0  0  0  0  0
   -9.9457   -0.5899    3.7139 H   0  0  0  0  0  0  0  0  0  0  0  0
  -10.7992   -1.3807    2.3925 H   0  0  0  0  0  0  0  0  0  0  0  0
   -7.7088   -0.3464   -0.4204 H   0  0  0  0  0  0  0  0  0  0  0  0
   -7.2089   -1.7877    0.4749 H   0  0  0  0  0  0  0  0  0  0  0  0
   -5.7357   -1.2635   -1.5234 H   0  0  0  0  0  0  0  0  0  0  0  0
   -4.8588   -1.3930   -0.0069 H   0  0  0  0  0  0  0  0  0  0  0  0
   -4.9270   -0.1894    2.1214 H   0  0  0  0  0  0  0  0  0  0  0  0
   -5.6985    1.3019    2.6528 H   0  0  0  0  0  0  0  0  0  0  0  0
   -3.9102    1.6179    0.8787 H   0  0  0  0  0  0  0  0  0  0  0  0
   -5.4580    2.3562    0.5241 H   0  0  0  0  0  0  0  0  0  0  0  0
   -5.7799    1.1942   -1.3399 H   0  0  0  0  0  0  0  0  0  0  0  0
   -2.9195    0.5089   -0.9185 H   0  0  0  0  0  0  0  0  0  0  0  0
    0.8203   -0.5160   -1.0543 H   0  0  0  0  0  0  0  0  0  0  0  0
    1.0698    1.2269   -1.2815 H   0  0  0  0  0  0  0  0  0  0  0  0
    3.6981    0.3781   -3.9721 H   0  0  0  0  0  0  0  0  0  0  0  0
    2.5997    1.6819   -3.5404 H   0  0  0  0  0  0  0  0  0  0  0  0
    1.8845   -1.0026   -4.8599 H   0  0  0  0  0  0  0  0  0  0  0  0
    1.8370    0.6037   -5.6135 H   0  0  0  0  0  0  0  0  0  0  0  0
    5.1695    0.4595   -2.2540 H   0  0  0  0  0  0  0  0  0  0  0  0
    4.7518   -1.1826   -2.8093 H   0  0  0  0  0  0  0  0  0  0  0  0
    6.6795   -1.4338   -1.4983 H   0  0  0  0  0  0  0  0  0  0  0  0
    5.3629   -2.0675   -0.5223 H   0  0  0  0  0  0  0  0  0  0  0  0
    6.5192    0.7580   -0.2152 H   0  0  0  0  0  0  0  0  0  0  0  0
    5.3152   -0.0017    0.8467 H   0  0  0  0  0  0  0  0  0  0  0  0
    6.8741    0.7699    2.3337 H   0  0  0  0  0  0  0  0  0  0  0  0
    9.4292   -1.9914    2.3985 H   0  0  0  0  0  0  0  0  0  0  0  0
   11.0387   -2.2051    4.2221 H   0  0  0  0  0  0  0  0  0  0  0  0
   11.0473   -0.5834    6.1005 H   0  0  0  0  0  0  0  0  0  0  0  0
    9.4026    1.2771    6.1289 H   0  0  0  0  0  0  0  0  0  0  0  0
    7.7737    1.5177    4.3042 H   0  0  0  0  0  0  0  0  0  0  0  0
   -0.5865    0.1073   -6.1969 H   0  0  0  0  0  0  0  0  0  0  0  0
   -2.9275    0.3033   -5.3797 H   0  0  0  0  0  0  0  0  0  0  0  0
  1  2  1  0
  2  3  1  0
  3  4  1  0
  4  5  1  0
  5  6  1  0
  6  7  1  0
  5  8  1  0
  8  9  1  0
  9 10  1  0
 10 11  1  0
 11 12  1  0
 12 13  1  0
 13 14  2  0
 14 15  1  0
 15 16  1  0
 16 17  1  0
 17 18  1  0
 18 19  1  0
 17 20  1  0
 20 21  1  0
 21 22  1  0
 22 23  1  0
 23 24  1  0
 24 25  1  0
 25 26  1  0
 26 27  2  0
 27 28  1  0
 28 29  2  0
 29 30  1  0
 30 31  2  0
 24 32  2  0
 20 33  2  0
 15 34  2  0
 34 35  1  0
 35 36  2  0
 12 37  2  0
  4 38  2  0
 10  7  1  0
 36 13  1  0
 34 19  1  0
 31 26  1  0
  1 39  1  0
  1 40  1  0
  1 41  1  0
  2 42  1  0
  2 43  1  0
  6 44  1  0
  6 45  1  0
  7 46  1  0
  7 47  1  0
  8 48  1  0
  8 49  1  0
  9 50  1  0
  9 51  1  0
 10 52  1  0
 11 53  1  0
 16 54  1  0
 16 55  1  0
 18 56  1  0
 18 57  1  0
 19 58  1  0
 19 59  1  0
 21 60  1  0
 21 61  1  0
 22 62  1  0
 22 63  1  0
 23 64  1  0
 23 65  1  0
 25 66  1  0
 27 67  1  0
 28 68  1  0
 29 69  1  0
 30 70  1  0
 31 71  1  0
 35 72  1  0
 36 73  1  0
M  END
>  <AS_ratio>  (9) 
0.0096993

>  <type>  (9) 
active

$$$$
EDS00459442
     RDKit          3D

 55 58  0  0  0  0  0  0  0  0999 V2000
   -8.2854    1.5271   -1.5597 C   0  0  0  0  0  0  0  0  0  0  0  0
   -6.9141    1.2035   -1.1025 C   0  0  0  0  0  0  0  0  0  0  0  0
   -5.7051    1.2628   -1.7598 C   0  0  0  0  0  0  0  0  0  0  0  0
   -4.7229    0.8346   -0.8243 C   0  0  0  0  0  0  0  0  0  0  0  0
   -3.2790    0.6899   -1.1110 C   0  0  0  0  0  0  0  0  0  0  0  0
   -2.3734    0.5713   -0.0506 N   0  0  0  0  0  0  0  0  0  0  0  0
   -2.5330    1.2404    1.2386 C   0  0  0  0  0  0  0  0  0  0  0  0
   -2.0336    0.3412    2.3667 C   0  0  0  0  0  0  0  0  0  0  0  0
   -0.9980    0.2324   -0.3962 C   0  0  0  0  0  0  0  0  0  0  0  0
   -0.1762   -0.2895    0.7662 C   0  0  0  0  0  0  0  0  0  0  0  0
   -0.6524   -0.1947    2.0820 C   0  0  0  0  0  0  0  0  0  0  0  0
    0.1567   -0.6620    3.1226 C   0  0  0  0  0  0  0  0  0  0  0  0
    1.4104   -1.1892    2.8354 C   0  0  0  0  0  0  0  0  0  0  0  0
    1.8050   -1.2444    1.5077 C   0  0  0  0  0  0  0  0  0  0  0  0
    3.1325   -1.8401    1.1457 C   0  0  0  0  0  0  0  0  0  0  0  0
    3.3607   -1.9158   -0.2095 N   0  0  0  0  0  0  0  0  0  0  0  0
    4.5850   -2.4153   -0.7750 C   0  0  0  0  0  0  0  0  0  0  0  0
    5.4775   -1.2591   -1.0634 C   0  0  0  0  0  0  0  0  0  0  0  0
    6.6429   -0.8954   -0.3991 C   0  0  0  0  0  0  0  0  0  0  0  0
    7.4090   -1.4614    0.7473 C   0  0  0  0  0  0  0  0  0  0  0  0
    6.9318   -2.6644    1.1593 F   0  0  0  0  0  0  0  0  0  0  0  0
    7.4082   -0.6365    1.8317 F   0  0  0  0  0  0  0  0  0  0  0  0
    8.7183   -1.6724    0.4166 F   0  0  0  0  0  0  0  0  0  0  0  0
    7.1721    0.2285   -0.9784 O   0  0  0  0  0  0  0  0  0  0  0  0
    6.3566    0.5882   -2.0026 C   0  0  0  0  0  0  0  0  0  0  0  0
    6.7507    1.7882   -2.7632 C   0  0  0  0  0  0  0  0  0  0  0  0
    5.3034   -0.2912   -2.1003 C   0  0  0  0  0  0  0  0  0  0  0  0
    3.9242   -2.2221    1.9980 O   0  0  0  0  0  0  0  0  0  0  0  0
    1.0439   -0.8027    0.4658 N   0  0  0  0  0  0  0  0  0  0  0  0
   -2.8858    0.6418   -2.2795 O   0  0  0  0  0  0  0  0  0  0  0  0
   -5.3088    0.4986    0.3419 N   0  0  0  0  0  0  0  0  0  0  0  0
   -6.6182    0.7419    0.1511 N   0  0  0  0  0  0  0  0  0  0  0  0
   -7.5477    0.4907    1.2287 C   0  0  0  0  0  0  0  0  0  0  0  0
   -8.9549    0.6745   -1.4143 H   0  0  0  0  0  0  0  0  0  0  0  0
   -8.6847    2.3827   -1.0064 H   0  0  0  0  0  0  0  0  0  0  0  0
   -8.2948    1.7785   -2.6255 H   0  0  0  0  0  0  0  0  0  0  0  0
   -5.5319    1.5631   -2.7844 H   0  0  0  0  0  0  0  0  0  0  0  0
   -1.9318    2.1592    1.1926 H   0  0  0  0  0  0  0  0  0  0  0  0
   -3.5522    1.5702    1.4372 H   0  0  0  0  0  0  0  0  0  0  0  0
   -2.7115   -0.5123    2.4858 H   0  0  0  0  0  0  0  0  0  0  0  0
   -2.0336    0.9087    3.3043 H   0  0  0  0  0  0  0  0  0  0  0  0
   -0.9952   -0.5115   -1.2003 H   0  0  0  0  0  0  0  0  0  0  0  0
   -0.5209    1.1443   -0.7762 H   0  0  0  0  0  0  0  0  0  0  0  0
   -0.1859   -0.6202    4.1535 H   0  0  0  0  0  0  0  0  0  0  0  0
    2.0585   -1.5558    3.6241 H   0  0  0  0  0  0  0  0  0  0  0  0
    2.6633   -1.4798   -0.8046 H   0  0  0  0  0  0  0  0  0  0  0  0
    5.0433   -3.1414   -0.0988 H   0  0  0  0  0  0  0  0  0  0  0  0
    4.3298   -2.9349   -1.7050 H   0  0  0  0  0  0  0  0  0  0  0  0
    7.0337    2.5983   -2.0846 H   0  0  0  0  0  0  0  0  0  0  0  0
    5.9274    2.1424   -3.3954 H   0  0  0  0  0  0  0  0  0  0  0  0
    7.6076    1.5634   -3.4093 H   0  0  0  0  0  0  0  0  0  0  0  0
    4.5020   -0.2474   -2.8259 H   0  0  0  0  0  0  0  0  0  0  0  0
   -7.0024    0.1168    2.1022 H   0  0  0  0  0  0  0  0  0  0  0  0
   -8.0484    1.4357    1.4798 H   0  0  0  0  0  0  0  0  0  0  0  0
   -8.2728   -0.2592    0.8920 H   0  0  0  0  0  0  0  0  0  0  0  0
  1  2  1  0
  2  3  2  0
  3  4  1  0
  4  5  1  0
  5  6  1  0
  6  7  1  0
  7  8  1  0
  6  9  1  0
  9 10  1  0
 10 11  2  0
 11 12  1  0
 12 13  2  0
 13 14  1  0
 14 15  1  0
 15 16  1  0
 16 17  1  0
 17 18  1  0
 18 19  2  0
 19 20  1  0
 20 21  1  0
 20 22  1  0
 20 23  1  0
 19 24  1  0
 24 25  1  0
 25 26  1  0
 25 27  2  0
 15 28  2  0
 14 29  2  0
  5 30  2  0
  4 31  2  0
 31 32  1  0
 32 33  1  0
 32  2  1  0
 11  8  1  0
 27 18  1  0
 29 10  1  0
  1 34  1  0
  1 35  1  0
  1 36  1  0
  3 37  1  0
  7 38  1  0
  7 39  1  0
  8 40  1  0
  8 41  1  0
  9 42  1  0
  9 43  1  0
 12 44  1  0
 13 45  1  0
 16 46  1  0
 17 47  1  0
 17 48  1  0
 26 49  1  0
 26 50  1  0
 26 51  1  0
 27 52  1  0
 33 53  1  0
 33 54  1  0
 33 55  1  0
M  END
>  <AS_ratio>  (10) 
0.00833583

>  <type>  (10) 
active

$$$$
EDS00459274
     RDKit          3D

 52 55  0  0  0  0  0  0  0  0999 V2000
   -7.1626    1.1451   -2.8140 C   0  0  0  0  0  0  0  0  0  0  0  0
   -5.9377    0.8904   -2.0202 C   0  0  0  0  0  0  0  0  0  0  0  0
   -4.7320    1.5543   -1.9831 C   0  0  0  0  0  0  0  0  0  0  0  0
   -3.9253    0.8659   -1.0328 C   0  0  0  0  0  0  0  0  0  0  0  0
   -2.5245    1.2175   -0.7008 C   0  0  0  0  0  0  0  0  0  0  0  0
   -1.9009    0.6676    0.4280 N   0  0  0  0  0  0  0  0  0  0  0  0
   -2.5906   -0.0869    1.4783 C   0  0  0  0  0  0  0  0  0  0  0  0
   -1.8643   -0.0733    2.8263 C   0  0  0  0  0  0  0  0  0  0  0  0
   -0.4521    0.8560    0.5261 C   0  0  0  0  0  0  0  0  0  0  0  0
    0.2540   -0.0473    1.5154 C   0  0  0  0  0  0  0  0  0  0  0  0
   -0.4315   -0.4810    2.6535 C   0  0  0  0  0  0  0  0  0  0  0  0
    0.2478   -1.2462    3.6027 C   0  0  0  0  0  0  0  0  0  0  0  0
    1.5810   -1.5740    3.3840 C   0  0  0  0  0  0  0  0  0  0  0  0
    2.1863   -1.1100    2.2245 C   0  0  0  0  0  0  0  0  0  0  0  0
    3.6202   -1.4455    1.9439 C   0  0  0  0  0  0  0  0  0  0  0  0
    4.1104   -0.8933    0.7794 N   0  0  0  0  0  0  0  0  0  0  0  0
    5.3866   -1.2899    0.2406 C   0  0  0  0  0  0  0  0  0  0  0  0
    5.8362   -0.3724   -0.8602 C   0  0  0  0  0  0  0  0  0  0  0  0
    5.2792   -0.3955   -2.1491 C   0  0  0  0  0  0  0  0  0  0  0  0
    4.0211   -1.5058   -2.5676 Cl  0  0  0  0  0  0  0  0  0  0  0  0
    5.7350    0.4948   -3.1289 C   0  0  0  0  0  0  0  0  0  0  0  0
    6.7385    1.4178   -2.8507 C   0  0  0  0  0  0  0  0  0  0  0  0
    7.2954    1.4545   -1.5768 C   0  0  0  0  0  0  0  0  0  0  0  0
    5.2112    0.4780   -4.3637 F   0  0  0  0  0  0  0  0  0  0  0  0
    6.8426    0.5677   -0.6005 C   0  0  0  0  0  0  0  0  0  0  0  0
    7.4026    0.6296    0.6158 F   0  0  0  0  0  0  0  0  0  0  0  0
    4.2734   -2.1649    2.6904 O   0  0  0  0  0  0  0  0  0  0  0  0
    1.5554   -0.3483    1.2852 N   0  0  0  0  0  0  0  0  0  0  0  0
   -1.9055    1.9999   -1.4278 O   0  0  0  0  0  0  0  0  0  0  0  0
   -4.6040   -0.1818   -0.5262 N   0  0  0  0  0  0  0  0  0  0  0  0
   -5.8030   -0.1437   -1.1345 N   0  0  0  0  0  0  0  0  0  0  0  0
   -6.7894   -1.1506   -0.8167 C   0  0  0  0  0  0  0  0  0  0  0  0
   -7.3736    0.3034   -3.4812 H   0  0  0  0  0  0  0  0  0  0  0  0
   -7.0487    2.0426   -3.4307 H   0  0  0  0  0  0  0  0  0  0  0  0
   -8.0259    1.2962   -2.1582 H   0  0  0  0  0  0  0  0  0  0  0  0
   -4.4454    2.4227   -2.5617 H   0  0  0  0  0  0  0  0  0  0  0  0
   -2.6857   -1.1190    1.1193 H   0  0  0  0  0  0  0  0  0  0  0  0
   -3.5914    0.3268    1.6331 H   0  0  0  0  0  0  0  0  0  0  0  0
   -1.8896    0.9341    3.2595 H   0  0  0  0  0  0  0  0  0  0  0  0
   -2.3801   -0.7483    3.5188 H   0  0  0  0  0  0  0  0  0  0  0  0
   -0.0081    0.7157   -0.4669 H   0  0  0  0  0  0  0  0  0  0  0  0
   -0.2796    1.8974    0.8244 H   0  0  0  0  0  0  0  0  0  0  0  0
   -0.2518   -1.5901    4.5047 H   0  0  0  0  0  0  0  0  0  0  0  0
    2.1351   -2.1740    4.0986 H   0  0  0  0  0  0  0  0  0  0  0  0
    3.4064   -0.4733    0.1763 H   0  0  0  0  0  0  0  0  0  0  0  0
    6.1183   -1.3206    1.0569 H   0  0  0  0  0  0  0  0  0  0  0  0
    5.3042   -2.3212   -0.1223 H   0  0  0  0  0  0  0  0  0  0  0  0
    7.0743    2.0989   -3.6266 H   0  0  0  0  0  0  0  0  0  0  0  0
    8.0783    2.1666   -1.3323 H   0  0  0  0  0  0  0  0  0  0  0  0
   -7.6516   -0.6556   -0.3633 H   0  0  0  0  0  0  0  0  0  0  0  0
   -6.3628   -1.8718   -0.1144 H   0  0  0  0  0  0  0  0  0  0  0  0
   -7.0755   -1.6593   -1.7405 H   0  0  0  0  0  0  0  0  0  0  0  0
  1  2  1  0
  2  3  2  0
  3  4  1  0
  4  5  1  0
  5  6  1  0
  6  7  1  0
  7  8  1  0
  6  9  1  0
  9 10  1  0
 10 11  2  0
 11 12  1  0
 12 13  2  0
 13 14  1  0
 14 15  1  0
 15 16  1  0
 16 17  1  0
 17 18  1  0
 18 19  2  0
 19 20  1  0
 19 21  1  0
 21 22  2  0
 22 23  1  0
 21 24  1  0
 18 25  1  0
 25 26  1  0
 15 27  2  0
 14 28  2  0
  5 29  2  0
  4 30  2  0
 30 31  1  0
 31 32  1  0
 31  2  1  0
 11  8  1  0
 25 23  2  0
 28 10  1  0
  1 33  1  0
  1 34  1  0
  1 35  1  0
  3 36  1  0
  7 37  1  0
  7 38  1  0
  8 39  1  0
  8 40  1  0
  9 41  1  0
  9 42  1  0
 12 43  1  0
 13 44  1  0
 16 45  1  0
 17 46  1  0
 17 47  1  0
 22 48  1  0
 23 49  1  0
 32 50  1  0
 32 51  1  0
 32 52  1  0
M  END
>  <AS_ratio>  (11) 
0.00739068

>  <type>  (11) 
active

$$$$
EDS00474254
     RDKit          3D

 53 56  0  0  0  0  0  0  0  0999 V2000
   -3.6500    1.1623   -3.6980 C   0  0  0  0  0  0  0  0  0  0  0  0
   -3.5346    1.2360   -2.2045 C   0  0  0  0  0  0  0  0  0  0  0  0
   -3.4351    2.4725   -1.5572 C   0  0  0  0  0  0  0  0  0  0  0  0
   -3.3100    2.5473   -0.1635 C   0  0  0  0  0  0  0  0  0  0  0  0
   -3.4718    0.0681   -1.4396 C   0  0  0  0  0  0  0  0  0  0  0  0
   -3.3274    0.1459   -0.0472 C   0  0  0  0  0  0  0  0  0  0  0  0
   -3.2880   -1.1282    0.6995 C   0  0  0  0  0  0  0  0  0  0  0  0
   -2.0696   -1.5714    1.2068 N   0  0  0  0  0  0  0  0  0  0  0  0
   -2.0579   -2.7318    2.0876 C   0  0  0  0  0  0  0  0  0  0  0  0
   -0.9372   -3.6937    1.7007 C   0  0  0  0  0  0  0  0  0  0  0  0
   -0.8310   -0.7908    1.1591 C   0  0  0  0  0  0  0  0  0  0  0  0
    0.4376   -1.6149    1.2745 C   0  0  0  0  0  0  0  0  0  0  0  0
    0.3847   -2.9862    1.5581 C   0  0  0  0  0  0  0  0  0  0  0  0
    1.5845   -3.6998    1.6444 C   0  0  0  0  0  0  0  0  0  0  0  0
    2.7936   -3.0363    1.4730 C   0  0  0  0  0  0  0  0  0  0  0  0
    2.7581   -1.6751    1.2124 C   0  0  0  0  0  0  0  0  0  0  0  0
    4.0377   -0.9193    1.0128 C   0  0  0  0  0  0  0  0  0  0  0  0
    3.8639    0.4251    0.7690 N   0  0  0  0  0  0  0  0  0  0  0  0
    4.9430    1.2901    0.3724 C   0  0  0  0  0  0  0  0  0  0  0  0
    4.8843    1.4601   -1.1130 C   0  0  0  0  0  0  0  0  0  0  0  0
    5.4234    0.5704   -2.0261 C   0  0  0  0  0  0  0  0  0  0  0  0
    5.1837    1.0541   -3.6476 S   0  0  0  0  0  0  0  0  0  0  0  0
    4.3538    2.4653   -3.1597 C   0  0  0  0  0  0  0  0  0  0  0  0
    4.2616    2.5626   -1.7889 C   0  0  0  0  0  0  0  0  0  0  0  0
    5.1282   -1.4766    1.0581 O   0  0  0  0  0  0  0  0  0  0  0  0
    1.6089   -0.9474    1.1106 N   0  0  0  0  0  0  0  0  0  0  0  0
   -4.3352   -1.7658    0.7858 O   0  0  0  0  0  0  0  0  0  0  0  0
   -3.2682    1.3838    0.6096 C   0  0  0  0  0  0  0  0  0  0  0  0
   -3.1469    1.3612    1.9731 O   0  0  0  0  0  0  0  0  0  0  0  0
   -3.3804    2.5815    2.6653 C   0  0  0  0  0  0  0  0  0  0  0  0
   -2.6535    1.1206   -4.1484 H   0  0  0  0  0  0  0  0  0  0  0  0
   -4.2141    0.2746   -4.0029 H   0  0  0  0  0  0  0  0  0  0  0  0
   -4.1807    2.0352   -4.0923 H   0  0  0  0  0  0  0  0  0  0  0  0
   -3.4618    3.3945   -2.1357 H   0  0  0  0  0  0  0  0  0  0  0  0
   -3.2423    3.5335    0.2844 H   0  0  0  0  0  0  0  0  0  0  0  0
   -3.5398   -0.9080   -1.9160 H   0  0  0  0  0  0  0  0  0  0  0  0
   -1.9152   -2.3601    3.1102 H   0  0  0  0  0  0  0  0  0  0  0  0
   -3.0167   -3.2597    2.0664 H   0  0  0  0  0  0  0  0  0  0  0  0
   -1.1735   -4.1680    0.7401 H   0  0  0  0  0  0  0  0  0  0  0  0
   -0.8660   -4.4822    2.4588 H   0  0  0  0  0  0  0  0  0  0  0  0
   -0.8571   -0.0873    1.9990 H   0  0  0  0  0  0  0  0  0  0  0  0
   -0.7870   -0.2190    0.2271 H   0  0  0  0  0  0  0  0  0  0  0  0
    1.5813   -4.7695    1.8410 H   0  0  0  0  0  0  0  0  0  0  0  0
    3.7378   -3.5674    1.5359 H   0  0  0  0  0  0  0  0  0  0  0  0
    2.9035    0.7320    0.6467 H   0  0  0  0  0  0  0  0  0  0  0  0
    4.8000    2.2499    0.8793 H   0  0  0  0  0  0  0  0  0  0  0  0
    5.9082    0.8760    0.6821 H   0  0  0  0  0  0  0  0  0  0  0  0
    5.9458   -0.3529   -1.8096 H   0  0  0  0  0  0  0  0  0  0  0  0
    3.9732    3.1548   -3.9005 H   0  0  0  0  0  0  0  0  0  0  0  0
    3.7689    3.3882   -1.2895 H   0  0  0  0  0  0  0  0  0  0  0  0
   -2.5722    3.2959    2.4786 H   0  0  0  0  0  0  0  0  0  0  0  0
   -4.3549    3.0089    2.4060 H   0  0  0  0  0  0  0  0  0  0  0  0
   -3.3877    2.3610    3.7370 H   0  0  0  0  0  0  0  0  0  0  0  0
  1  2  1  0
  2  3  2  0
  3  4  1  0
  2  5  1  0
  5  6  2  0
  6  7  1  0
  7  8  1  0
  8  9  1  0
  9 10  1  0
  8 11  1  0
 11 12  1  0
 12 13  2  0
 13 14  1  0
 14 15  2  0
 15 16  1  0
 16 17  1  0
 17 18  1  0
 18 19  1  0
 19 20  1  0
 20 21  2  0
 21 22  1  0
 22 23  1  0
 23 24  2  0
 17 25  2  0
 16 26  2  0
  7 27  2  0
  6 28  1  0
 28 29  1  0
 29 30  1  0
 28  4  2  0
 13 10  1  0
 24 20  1  0
 26 12  1  0
  1 31  1  0
  1 32  1  0
  1 33  1  0
  3 34  1  0
  4 35  1  0
  5 36  1  0
  9 37  1  0
  9 38  1  0
 10 39  1  0
 10 40  1  0
 11 41  1  0
 11 42  1  0
 14 43  1  0
 15 44  1  0
 18 45  1  0
 19 46  1  0
 19 47  1  0
 21 48  1  0
 23 49  1  0
 24 50  1  0
 30 51  1  0
 30 52  1  0
 30 53  1  0
M  END
>  <AS_ratio>  (12) 
0.00371267

>  <type>  (12) 
active

$$$$
EDS00474362
     RDKit          3D

 62 65  0  0  0  0  0  0  0  0999 V2000
   -4.2379   -2.2276   -4.1733 C   0  0  0  0  0  0  0  0  0  0  0  0
   -3.7854   -2.1417   -2.7459 C   0  0  0  0  0  0  0  0  0  0  0  0
   -2.9732   -3.1394   -2.1958 C   0  0  0  0  0  0  0  0  0  0  0  0
   -2.5866   -3.0921   -0.8498 C   0  0  0  0  0  0  0  0  0  0  0  0
   -4.2199   -1.0977   -1.9248 C   0  0  0  0  0  0  0  0  0  0  0  0
   -3.8132   -1.0404   -0.5842 C   0  0  0  0  0  0  0  0  0  0  0  0
   -4.3131    0.0906    0.2266 C   0  0  0  0  0  0  0  0  0  0  0  0
   -3.4111    1.0710    0.6447 N   0  0  0  0  0  0  0  0  0  0  0  0
   -3.9499    2.2427    1.3240 C   0  0  0  0  0  0  0  0  0  0  0  0
   -2.9803    2.7630    2.3822 C   0  0  0  0  0  0  0  0  0  0  0  0
   -2.0911    1.2293    0.0283 C   0  0  0  0  0  0  0  0  0  0  0  0
   -1.1660    2.2106    0.7198 C   0  0  0  0  0  0  0  0  0  0  0  0
   -1.5971    2.9562    1.8230 C   0  0  0  0  0  0  0  0  0  0  0  0
   -0.6977    3.8391    2.4297 C   0  0  0  0  0  0  0  0  0  0  0  0
    0.5858    3.9766    1.9139 C   0  0  0  0  0  0  0  0  0  0  0  0
    0.9269    3.2139    0.8081 C   0  0  0  0  0  0  0  0  0  0  0  0
    2.3025    3.3180    0.2198 C   0  0  0  0  0  0  0  0  0  0  0  0
    2.4967    2.5200   -0.8865 N   0  0  0  0  0  0  0  0  0  0  0  0
    3.7892    2.3253   -1.4894 C   0  0  0  0  0  0  0  0  0  0  0  0
    4.4953    1.1451   -0.8717 C   0  0  0  0  0  0  0  0  0  0  0  0
    5.4599    1.3405    0.1287 C   0  0  0  0  0  0  0  0  0  0  0  0
    6.1136    0.2536    0.7138 C   0  0  0  0  0  0  0  0  0  0  0  0
    5.7956   -1.0453    0.3225 C   0  0  0  0  0  0  0  0  0  0  0  0
    4.8099   -1.2459   -0.6468 C   0  0  0  0  0  0  0  0  0  0  0  0
    4.3820   -2.9033   -1.1189 S   0  0  0  0  0  6  0  0  0  0  0  0
    3.2770   -3.4180    0.1701 C   0  0  0  0  0  0  0  0  0  0  0  0
    5.5864   -3.7069   -1.0327 O   0  0  0  0  0  0  0  0  0  0  0  0
    3.6208   -2.8317   -2.3524 O   0  0  0  0  0  0  0  0  0  0  0  0
    4.1684   -0.1630   -1.2556 C   0  0  0  0  0  0  0  0  0  0  0  0
    3.1602    4.0445    0.7073 O   0  0  0  0  0  0  0  0  0  0  0  0
    0.0822    2.3324    0.1990 N   0  0  0  0  0  0  0  0  0  0  0  0
   -5.5202    0.1341    0.4550 O   0  0  0  0  0  0  0  0  0  0  0  0
   -3.0096   -2.0460   -0.0254 C   0  0  0  0  0  0  0  0  0  0  0  0
   -2.6819   -1.9170    1.2977 O   0  0  0  0  0  0  0  0  0  0  0  0
   -2.0847   -3.0394    1.9340 C   0  0  0  0  0  0  0  0  0  0  0  0
   -3.4800   -2.7174   -4.7939 H   0  0  0  0  0  0  0  0  0  0  0  0
   -4.4039   -1.2288   -4.5911 H   0  0  0  0  0  0  0  0  0  0  0  0
   -5.1703   -2.7972   -4.2365 H   0  0  0  0  0  0  0  0  0  0  0  0
   -2.6379   -3.9715   -2.8131 H   0  0  0  0  0  0  0  0  0  0  0  0
   -1.9544   -3.8927   -0.4796 H   0  0  0  0  0  0  0  0  0  0  0  0
   -4.8798   -0.3261   -2.3169 H   0  0  0  0  0  0  0  0  0  0  0  0
   -4.1395    3.0050    0.5577 H   0  0  0  0  0  0  0  0  0  0  0  0
   -4.9099    2.0109    1.7977 H   0  0  0  0  0  0  0  0  0  0  0  0
   -3.3639    3.7081    2.7834 H   0  0  0  0  0  0  0  0  0  0  0  0
   -2.9157    2.0458    3.2098 H   0  0  0  0  0  0  0  0  0  0  0  0
   -2.2563    1.5749   -0.9995 H   0  0  0  0  0  0  0  0  0  0  0  0
   -1.5842    0.2622   -0.0197 H   0  0  0  0  0  0  0  0  0  0  0  0
   -0.9917    4.4187    3.3017 H   0  0  0  0  0  0  0  0  0  0  0  0
    1.3014    4.6569    2.3643 H   0  0  0  0  0  0  0  0  0  0  0  0
    1.7299    1.8968   -1.1212 H   0  0  0  0  0  0  0  0  0  0  0  0
    3.6359    2.1525   -2.5604 H   0  0  0  0  0  0  0  0  0  0  0  0
    4.3913    3.2353   -1.3879 H   0  0  0  0  0  0  0  0  0  0  0  0
    5.7047    2.3504    0.4577 H   0  0  0  0  0  0  0  0  0  0  0  0
    6.8704    0.4250    1.4759 H   0  0  0  0  0  0  0  0  0  0  0  0
    6.3162   -1.8865    0.7745 H   0  0  0  0  0  0  0  0  0  0  0  0
    2.4141   -2.7491    0.1882 H   0  0  0  0  0  0  0  0  0  0  0  0
    2.9513   -4.4370   -0.0502 H   0  0  0  0  0  0  0  0  0  0  0  0
    3.8052   -3.3971    1.1251 H   0  0  0  0  0  0  0  0  0  0  0  0
    3.4154   -0.3300   -2.0235 H   0  0  0  0  0  0  0  0  0  0  0  0
   -1.0735   -3.2121    1.5514 H   0  0  0  0  0  0  0  0  0  0  0  0
   -2.7062   -3.9351    1.8306 H   0  0  0  0  0  0  0  0  0  0  0  0
   -2.0018   -2.8130    3.0014 H   0  0  0  0  0  0  0  0  0  0  0  0
  1  2  1  0
  2  3  2  0
  3  4  1  0
  2  5  1  0
  5  6  2  0
  6  7  1  0
  7  8  1  0
  8  9  1  0
  9 10  1  0
  8 11  1  0
 11 12  1  0
 12 13  2  0
 13 14  1  0
 14 15  2  0
 15 16  1  0
 16 17  1  0
 17 18  1  0
 18 19  1  0
 19 20  1  0
 20 21  2  0
 21 22  1  0
 22 23  2  0
 23 24  1  0
 24 25  1  0
 25 26  1  0
 25 27  2  0
 25 28  2  0
 24 29  2  0
 17 30  2  0
 16 31  2  0
  7 32  2  0
  6 33  1  0
 33 34  1  0
 34 35  1  0
 33  4  2  0
 13 10  1  0
 29 20  1  0
 31 12  1  0
  1 36  1  0
  1 37  1  0
  1 38  1  0
  3 39  1  0
  4 40  1  0
  5 41  1  0
  9 42  1  0
  9 43  1  0
 10 44  1  0
 10 45  1  0
 11 46  1  0
 11 47  1  0
 14 48  1  0
 15 49  1  0
 18 50  1  0
 19 51  1  0
 19 52  1  0
 21 53  1  0
 22 54  1  0
 23 55  1  0
 26 56  1  0
 26 57  1  0
 26 58  1  0
 29 59  1  0
 35 60  1  0
 35 61  1  0
 35 62  1  0
M  END
>  <AS_ratio>  (13) 
0.00258407

>  <type>  (13) 
active

$$$$
EDS00470458
     RDKit          3D

 64 68  0  0  0  0  0  0  0  0999 V2000
    7.4374    0.7801    1.0532 C   0  0  0  0  0  0  0  0  0  0  0  0
    6.3134   -0.0535    0.7988 O   0  0  0  0  0  0  0  0  0  0  0  0
    6.5469   -1.3921    0.8628 C   0  0  0  0  0  0  0  0  0  0  0  0
    7.7861   -1.9977    0.8268 C   0  0  0  0  0  0  0  0  0  0  0  0
    7.6817   -3.6993    0.9623 S   0  0  0  0  0  0  0  0  0  0  0  0
    5.9798   -3.6357    1.0694 C   0  0  0  0  0  0  0  0  0  0  0  0
    5.4774   -2.3501    0.9565 C   0  0  0  0  0  0  0  0  0  0  0  0
    4.0395   -2.0907    1.0348 C   0  0  0  0  0  0  0  0  0  0  0  0
    3.4795   -1.1598    0.1596 N   0  0  0  0  0  0  0  0  0  0  0  0
    2.0610   -0.8659    0.3446 C   0  0  0  0  0  0  0  0  0  0  0  0
    1.5790    0.3730   -0.3851 C   0  0  0  0  0  0  0  0  0  0  0  0
    0.3153    0.7836   -0.1126 N   0  0  0  0  0  0  0  0  0  0  0  0
   -0.1370    1.8910   -0.7655 C   0  0  0  0  0  0  0  0  0  0  0  0
   -1.5374    2.3194   -0.4432 C   0  0  0  0  0  0  0  0  0  0  0  0
   -2.1587    1.5382    0.5045 N   0  0  0  0  0  0  0  0  0  0  0  0
   -3.5438    1.6888    0.9055 C   0  0  0  0  0  0  0  0  0  0  0  0
   -4.5140    0.6810    0.2057 C   0  0  0  0  0  0  0  0  0  0  0  0
   -5.9428    0.8435    0.8053 C   0  0  0  0  0  0  0  0  0  0  0  0
   -6.6195    2.1482    0.3966 C   0  0  0  0  0  0  0  0  0  0  0  0
   -6.6660    2.2775   -1.0188 O   0  0  0  0  0  0  0  0  0  0  0  0
   -5.3632    2.3055   -1.5961 C   0  0  0  0  0  0  0  0  0  0  0  0
   -4.6325    0.9982   -1.3135 C   0  0  0  0  0  0  0  0  0  0  0  0
   -4.0015   -0.7567    0.4870 C   0  0  0  0  0  0  0  0  0  0  0  0
   -3.4505   -1.5707   -0.5184 C   0  0  0  0  0  0  0  0  0  0  0  0
   -2.9627   -2.8505   -0.2333 C   0  0  0  0  0  0  0  0  0  0  0  0
   -3.0051   -3.3433    1.0659 C   0  0  0  0  0  0  0  0  0  0  0  0
   -3.5351   -2.5561    2.0814 C   0  0  0  0  0  0  0  0  0  0  0  0
   -4.0252   -1.2784    1.7960 C   0  0  0  0  0  0  0  0  0  0  0  0
   -2.0659    3.2735   -1.0021 O   0  0  0  0  0  0  0  0  0  0  0  0
    0.6122    2.6060   -1.6863 C   0  0  0  0  0  0  0  0  0  0  0  0
    1.9024    2.1664   -1.9598 C   0  0  0  0  0  0  0  0  0  0  0  0
    2.3975    1.0276   -1.3155 C   0  0  0  0  0  0  0  0  0  0  0  0
    3.8050    0.5559   -1.5708 C   0  0  0  0  0  0  0  0  0  0  0  0
    3.9924   -0.9099   -1.1851 C   0  0  0  0  0  0  0  0  0  0  0  0
    3.3501   -2.6945    1.8559 O   0  0  0  0  0  0  0  0  0  0  0  0
    7.0826    1.8146    1.0941 H   0  0  0  0  0  0  0  0  0  0  0  0
    7.8991    0.5468    2.0189 H   0  0  0  0  0  0  0  0  0  0  0  0
    8.1679    0.7116    0.2402 H   0  0  0  0  0  0  0  0  0  0  0  0
    8.7630   -1.5454    0.7375 H   0  0  0  0  0  0  0  0  0  0  0  0
    5.4124   -4.5484    1.2001 H   0  0  0  0  0  0  0  0  0  0  0  0
    1.4929   -1.7308   -0.0205 H   0  0  0  0  0  0  0  0  0  0  0  0
    1.8556   -0.7509    1.4158 H   0  0  0  0  0  0  0  0  0  0  0  0
   -1.6334    0.7261    0.8261 H   0  0  0  0  0  0  0  0  0  0  0  0
   -3.5554    1.5405    1.9920 H   0  0  0  0  0  0  0  0  0  0  0  0
   -3.8444    2.7259    0.7317 H   0  0  0  0  0  0  0  0  0  0  0  0
   -6.5678    0.0116    0.4513 H   0  0  0  0  0  0  0  0  0  0  0  0
   -5.9304    0.7879    1.8997 H   0  0  0  0  0  0  0  0  0  0  0  0
   -6.1223    3.0224    0.8308 H   0  0  0  0  0  0  0  0  0  0  0  0
   -7.6518    2.1533    0.7624 H   0  0  0  0  0  0  0  0  0  0  0  0
   -5.4864    2.4280   -2.6772 H   0  0  0  0  0  0  0  0  0  0  0  0
   -4.8178    3.1824   -1.2345 H   0  0  0  0  0  0  0  0  0  0  0  0
   -3.6525    1.0200   -1.8016 H   0  0  0  0  0  0  0  0  0  0  0  0
   -5.2108    0.1972   -1.7953 H   0  0  0  0  0  0  0  0  0  0  0  0
   -3.3772   -1.2292   -1.5468 H   0  0  0  0  0  0  0  0  0  0  0  0
   -2.5444   -3.4593   -1.0311 H   0  0  0  0  0  0  0  0  0  0  0  0
   -2.6227   -4.3361    1.2874 H   0  0  0  0  0  0  0  0  0  0  0  0
   -3.5635   -2.9325    3.1006 H   0  0  0  0  0  0  0  0  0  0  0  0
   -4.4168   -0.6927    2.6237 H   0  0  0  0  0  0  0  0  0  0  0  0
    0.2030    3.4840   -2.1749 H   0  0  0  0  0  0  0  0  0  0  0  0
    2.5167    2.7130   -2.6711 H   0  0  0  0  0  0  0  0  0  0  0  0
    4.0591    0.6808   -2.6295 H   0  0  0  0  0  0  0  0  0  0  0  0
    4.4851    1.1841   -0.9833 H   0  0  0  0  0  0  0  0  0  0  0  0
    5.0390   -1.1981   -1.2967 H   0  0  0  0  0  0  0  0  0  0  0  0
    3.4254   -1.5593   -1.8654 H   0  0  0  0  0  0  0  0  0  0  0  0
  1  2  1  0
  2  3  1  0
  3  4  2  0
  4  5  1  0
  5  6  1  0
  6  7  2  0
  7  8  1  0
  8  9  1  0
  9 10  1  0
 10 11  1  0
 11 12  2  0
 12 13  1  0
 13 14  1  0
 14 15  1  0
 15 16  1  0
 16 17  1  0
 17 18  1  0
 18 19  1  0
 19 20  1  0
 20 21  1  0
 21 22  1  0
 17 23  1  0
 23 24  2  0
 24 25  1  0
 25 26  2  0
 26 27  1  0
 27 28  2  0
 14 29  2  0
 13 30  2  0
 30 31  1  0
 31 32  2  0
 32 33  1  0
 33 34  1  0
  8 35  2  0
  7  3  1  0
 34  9  1  0
 32 11  1  0
 22 17  1  0
 28 23  1  0
  1 36  1  0
  1 37  1  0
  1 38  1  0
  4 39  1  0
  6 40  1  0
 10 41  1  0
 10 42  1  0
 15 43  1  0
 16 44  1  0
 16 45  1  0
 18 46  1  0
 18 47  1  0
 19 48  1  0
 19 49  1  0
 21 50  1  0
 21 51  1  0
 22 52  1  0
 22 53  1  0
 24 54  1  0
 25 55  1  0
 26 56  1  0
 27 57  1  0
 28 58  1  0
 30 59  1  0
 31 60  1  0
 33 61  1  0
 33 62  1  0
 34 63  1  0
 34 64  1  0
M  END
>  <AS_ratio>  (14) 
0.00145151

>  <type>  (14) 
active

$$$$
EDS00490706
     RDKit          3D

 59 63  0  0  0  0  0  0  0  0999 V2000
   -3.1487    2.2629   -1.8247 C   0  0  0  0  0  0  0  0  0  0  0  0
   -3.2633    1.7986   -0.4759 O   0  0  0  0  0  0  0  0  0  0  0  0
   -4.1660    0.7615   -0.4072 C   0  0  0  0  0  0  0  0  0  0  0  0
   -5.5042    1.0309   -0.0368 C   0  0  0  0  0  0  0  0  0  0  0  0
   -5.9725    2.3278    0.2648 C   0  0  0  0  0  0  0  0  0  0  0  0
   -7.3040    2.5554    0.6154 C   0  0  0  0  0  0  0  0  0  0  0  0
   -8.1962    1.4915    0.6735 C   0  0  0  0  0  0  0  0  0  0  0  0
   -7.7571    0.1985    0.3870 C   0  0  0  0  0  0  0  0  0  0  0  0
   -6.4201   -0.0488    0.0362 C   0  0  0  0  0  0  0  0  0  0  0  0
   -5.9844   -1.3554   -0.2411 C   0  0  0  0  0  0  0  0  0  0  0  0
   -4.6531   -1.6112   -0.5683 C   0  0  0  0  0  0  0  0  0  0  0  0
   -3.7422   -0.5560   -0.6260 C   0  0  0  0  0  0  0  0  0  0  0  0
   -2.3444   -0.8771   -0.9646 C   0  0  0  0  0  0  0  0  0  0  0  0
   -1.3753   -0.8405    0.0355 N   0  0  0  0  0  0  0  0  0  0  0  0
    0.0140   -0.9479   -0.4091 C   0  0  0  0  0  0  0  0  0  0  0  0
    1.0351   -1.1801    0.6857 C   0  0  0  0  0  0  0  0  0  0  0  0
    2.3249   -1.3309    0.2890 N   0  0  0  0  0  0  0  0  0  0  0  0
    3.2573   -1.5372    1.2623 C   0  0  0  0  0  0  0  0  0  0  0  0
    4.6733   -1.7040    0.7975 C   0  0  0  0  0  0  0  0  0  0  0  0
    4.8243   -1.6588   -0.5704 N   0  0  0  0  0  0  0  0  0  0  0  0
    6.1108   -1.6361   -1.2171 C   0  0  0  0  0  0  0  0  0  0  0  0
    6.4978   -0.2308   -1.5968 C   0  0  0  0  0  0  0  0  0  0  0  0
    7.0948    0.6163   -0.6518 C   0  0  0  0  0  0  0  0  0  0  0  0
    7.4407    1.9249   -0.9911 C   0  0  0  0  0  0  0  0  0  0  0  0
    7.1869    2.4024   -2.2756 C   0  0  0  0  0  0  0  0  0  0  0  0
    6.5833    1.5737   -3.2200 C   0  0  0  0  0  0  0  0  0  0  0  0
    6.2364    0.2640   -2.8822 C   0  0  0  0  0  0  0  0  0  0  0  0
    5.5949   -1.8590    1.5907 O   0  0  0  0  0  0  0  0  0  0  0  0
    2.9626   -1.5979    2.6155 C   0  0  0  0  0  0  0  0  0  0  0  0
    1.6373   -1.4388    3.0025 C   0  0  0  0  0  0  0  0  0  0  0  0
    0.6551   -1.2141    2.0324 C   0  0  0  0  0  0  0  0  0  0  0  0
   -0.7901   -1.0762    2.4221 C   0  0  0  0  0  0  0  0  0  0  0  0
   -1.5915   -0.3014    1.3777 C   0  0  0  0  0  0  0  0  0  0  0  0
   -2.1092   -1.1980   -2.1275 O   0  0  0  0  0  0  0  0  0  0  0  0
   -2.6654    1.5174   -2.4629 H   0  0  0  0  0  0  0  0  0  0  0  0
   -2.5181    3.1566   -1.8141 H   0  0  0  0  0  0  0  0  0  0  0  0
   -4.1240    2.5420   -2.2391 H   0  0  0  0  0  0  0  0  0  0  0  0
   -5.2917    3.1762    0.2297 H   0  0  0  0  0  0  0  0  0  0  0  0
   -7.6413    3.5637    0.8418 H   0  0  0  0  0  0  0  0  0  0  0  0
   -9.2344    1.6654    0.9442 H   0  0  0  0  0  0  0  0  0  0  0  0
   -8.4726   -0.6196    0.4418 H   0  0  0  0  0  0  0  0  0  0  0  0
   -6.6827   -2.1892   -0.1989 H   0  0  0  0  0  0  0  0  0  0  0  0
   -4.3279   -2.6277   -0.7777 H   0  0  0  0  0  0  0  0  0  0  0  0
    0.0922   -1.7594   -1.1420 H   0  0  0  0  0  0  0  0  0  0  0  0
    0.2614   -0.0087   -0.9192 H   0  0  0  0  0  0  0  0  0  0  0  0
    3.9929   -1.4158   -1.1008 H   0  0  0  0  0  0  0  0  0  0  0  0
    6.8762   -2.0775   -0.5689 H   0  0  0  0  0  0  0  0  0  0  0  0
    6.0390   -2.2666   -2.1101 H   0  0  0  0  0  0  0  0  0  0  0  0
    7.2873    0.2551    0.3573 H   0  0  0  0  0  0  0  0  0  0  0  0
    7.9057    2.5708   -0.2509 H   0  0  0  0  0  0  0  0  0  0  0  0
    7.4562    3.4217   -2.5391 H   0  0  0  0  0  0  0  0  0  0  0  0
    6.3806    1.9480   -4.2201 H   0  0  0  0  0  0  0  0  0  0  0  0
    5.7604   -0.3681   -3.6284 H   0  0  0  0  0  0  0  0  0  0  0  0
    3.7443   -1.7689    3.3484 H   0  0  0  0  0  0  0  0  0  0  0  0
    1.3758   -1.4912    4.0567 H   0  0  0  0  0  0  0  0  0  0  0  0
   -0.8772   -0.5651    3.3878 H   0  0  0  0  0  0  0  0  0  0  0  0
   -1.2093   -2.0838    2.5350 H   0  0  0  0  0  0  0  0  0  0  0  0
   -2.6483   -0.3361    1.6543 H   0  0  0  0  0  0  0  0  0  0  0  0
   -1.2864    0.7523    1.3570 H   0  0  0  0  0  0  0  0  0  0  0  0
  1  2  1  0
  2  3  1  0
  3  4  2  0
  4  5  1  0
  5  6  2  0
  6  7  1  0
  7  8  2  0
  4  9  1  0
  9 10  2  0
 10 11  1  0
  3 12  1  0
 12 13  1  0
 13 14  1  0
 14 15  1  0
 15 16  1  0
 16 17  2  0
 17 18  1  0
 18 19  1  0
 19 20  1  0
 20 21  1  0
 21 22  1  0
 22 23  2  0
 23 24  1  0
 24 25  2  0
 25 26  1  0
 26 27  2  0
 19 28  2  0
 18 29  2  0
 29 30  1  0
 30 31  2  0
 31 32  1  0
 32 33  1  0
 13 34  2  0
  9  8  1  0
 12 11  2  0
 33 14  1  0
 31 16  1  0
 27 22  1  0
  1 35  1  0
  1 36  1  0
  1 37  1  0
  5 38  1  0
  6 39  1  0
  7 40  1  0
  8 41  1  0
 10 42  1  0
 11 43  1  0
 15 44  1  0
 15 45  1  0
 20 46  1  0
 21 47  1  0
 21 48  1  0
 23 49  1  0
 24 50  1  0
 25 51  1  0
 26 52  1  0
 27 53  1  0
 29 54  1  0
 30 55  1  0
 32 56  1  0
 32 57  1  0
 33 58  1  0
 33 59  1  0
M  END
>  <AS_ratio>  (15) 
0.00121192

>  <type>  (15) 
active

$$$$
A01
     RDKit          3D

 63 67  0  0  0  0  0  0  0  0999 V2000
    2.3138   -2.2540   -0.7521 O   0  0  0  0  0  0  0  0  0  0  0  0
    2.9131   -1.1832   -0.8142 C   0  0  0  0  0  0  0  0  0  0  0  0
    4.3805   -1.2327   -0.9261 C   0  0  0  0  0  0  0  0  0  0  0  0
    5.1889   -0.4958   -0.0730 C   0  0  0  0  0  0  0  0  0  0  0  0
    6.5429   -0.5157   -0.1147 N   0  0  0  0  0  0  0  0  0  0  0  0
    7.1052   -1.3491   -1.0174 C   0  0  0  0  0  0  0  0  0  0  0  0
    8.4779   -1.4283   -1.1076 O   0  0  0  0  0  0  0  0  0  0  0  0
    9.1814   -0.6530   -0.1225 C   0  0  0  0  0  0  0  0  0  0  0  0
    9.3776   -1.3861    1.1983 C   0  0  0  0  0  0  0  0  0  0  0  0
   10.0786   -0.6059    2.0635 F   0  0  0  0  0  0  0  0  0  0  0  0
   10.0978   -2.5183    1.0206 F   0  0  0  0  0  0  0  0  0  0  0  0
    8.2247   -1.7269    1.8096 F   0  0  0  0  0  0  0  0  0  0  0  0
    6.3799   -2.1471   -1.8941 C   0  0  0  0  0  0  0  0  0  0  0  0
    4.9896   -2.0942   -1.8386 C   0  0  0  0  0  0  0  0  0  0  0  0
    2.2778    0.0567   -0.7333 N   0  0  0  0  0  0  0  0  0  0  0  0
    0.8302    0.0234   -0.5282 C   0  0  0  0  0  0  0  0  0  0  0  0
    0.2321    1.3470   -0.0991 C   0  0  0  0  0  0  0  0  0  0  0  0
   -1.0601    1.3200    0.3113 N   0  0  0  0  0  0  0  0  0  0  0  0
   -1.6169    2.5027    0.6972 C   0  0  0  0  0  0  0  0  0  0  0  0
   -3.0344    2.4303    1.1811 C   0  0  0  0  0  0  0  0  0  0  0  0
   -3.6312    3.4224    1.5800 O   0  0  0  0  0  0  0  0  0  0  0  0
   -3.5700    1.1640    1.1347 N   0  0  0  0  0  0  0  0  0  0  0  0
   -4.9078    0.8403    1.5671 C   0  0  0  0  0  0  0  0  0  0  0  0
   -5.8422    0.6236    0.3999 C   0  0  0  0  0  0  0  0  0  0  0  0
   -6.3107    1.7915   -0.2427 C   0  0  0  0  0  0  0  0  0  0  0  0
   -7.2865    1.7410   -1.2372 C   0  0  0  0  0  0  0  0  0  0  0  0
   -7.8244    0.5210   -1.6110 C   0  0  0  0  0  0  0  0  0  0  0  0
   -7.3700   -0.6493   -1.0080 C   0  0  0  0  0  0  0  0  0  0  0  0
   -6.3655   -0.6187   -0.0166 C   0  0  0  0  0  0  0  0  0  0  0  0
   -5.9285   -1.8746    0.5069 N   0  0  0  0  0  0  0  0  0  0  0  0
   -6.7091   -3.0103    0.6468 C   0  0  0  0  0  0  0  0  0  0  0  0
   -5.9449   -4.0326    1.1712 C   0  0  0  0  0  0  0  0  0  0  0  0
   -4.6419   -3.5300    1.3308 C   0  0  0  0  0  0  0  0  0  0  0  0
   -4.6512   -2.2219    0.8923 C   0  0  0  0  0  0  0  0  0  0  0  0
   -0.9481    3.7167    0.6773 C   0  0  0  0  0  0  0  0  0  0  0  0
    0.3713    3.7262    0.2380 C   0  0  0  0  0  0  0  0  0  0  0  0
    0.9776    2.5312   -0.1651 C   0  0  0  0  0  0  0  0  0  0  0  0
    2.4218    2.5121   -0.5906 C   0  0  0  0  0  0  0  0  0  0  0  0
    2.7726    1.2627   -1.3994 C   0  0  0  0  0  0  0  0  0  0  0  0
    4.7637    0.1472    0.6934 H   0  0  0  0  0  0  0  0  0  0  0  0
    8.7379    0.3392    0.0265 H   0  0  0  0  0  0  0  0  0  0  0  0
   10.1738   -0.4622   -0.5469 H   0  0  0  0  0  0  0  0  0  0  0  0
    6.8894   -2.8056   -2.5942 H   0  0  0  0  0  0  0  0  0  0  0  0
    4.3893   -2.7241   -2.4892 H   0  0  0  0  0  0  0  0  0  0  0  0
    0.3674   -0.2785   -1.4723 H   0  0  0  0  0  0  0  0  0  0  0  0
    0.5942   -0.7360    0.2220 H   0  0  0  0  0  0  0  0  0  0  0  0
   -2.9715    0.4477    0.7351 H   0  0  0  0  0  0  0  0  0  0  0  0
   -4.8543   -0.0256    2.2290 H   0  0  0  0  0  0  0  0  0  0  0  0
   -5.2996    1.6501    2.1953 H   0  0  0  0  0  0  0  0  0  0  0  0
   -5.9272    2.7662    0.0589 H   0  0  0  0  0  0  0  0  0  0  0  0
   -7.6355    2.6575   -1.6994 H   0  0  0  0  0  0  0  0  0  0  0  0
   -8.5897    0.4763   -2.3805 H   0  0  0  0  0  0  0  0  0  0  0  0
   -7.7848   -1.5894   -1.3612 H   0  0  0  0  0  0  0  0  0  0  0  0
   -7.7627   -2.9945    0.4114 H   0  0  0  0  0  0  0  0  0  0  0  0
   -6.2975   -5.0302    1.4106 H   0  0  0  0  0  0  0  0  0  0  0  0
   -3.7752   -4.0646    1.6984 H   0  0  0  0  0  0  0  0  0  0  0  0
   -3.8290   -1.5337    0.7928 H   0  0  0  0  0  0  0  0  0  0  0  0
   -1.4412    4.6286    1.0007 H   0  0  0  0  0  0  0  0  0  0  0  0
    0.9226    4.6622    0.2155 H   0  0  0  0  0  0  0  0  0  0  0  0
    2.6529    3.4024   -1.1878 H   0  0  0  0  0  0  0  0  0  0  0  0
    3.0396    2.5425    0.3142 H   0  0  0  0  0  0  0  0  0  0  0  0
    3.8496    1.2239   -1.5790 H   0  0  0  0  0  0  0  0  0  0  0  0
    2.2962    1.2955   -2.3862 H   0  0  0  0  0  0  0  0  0  0  0  0
  1  2  2  0
  2  3  1  0
  3  4  2  0
  4  5  1  0
  5  6  2  0
  6  7  1  0
  7  8  1  0
  8  9  1  0
  9 10  1  0
  9 11  1  0
  9 12  1  0
  6 13  1  0
 13 14  2  0
  2 15  1  0
 15 16  1  0
 16 17  1  0
 17 18  2  0
 18 19  1  0
 19 20  1  0
 20 21  2  0
 20 22  1  0
 22 23  1  0
 23 24  1  0
 24 25  2  0
 25 26  1  0
 26 27  2  0
 27 28  1  0
 28 29  2  0
 29 30  1  0
 30 31  1  0
 31 32  2  0
 32 33  1  0
 33 34  2  0
 19 35  2  0
 35 36  1  0
 36 37  2  0
 37 38  1  0
 38 39  1  0
 39 15  1  0
 37 17  1  0
 14  3  1  0
 29 24  1  0
 34 30  1  0
  4 40  1  0
  8 41  1  0
  8 42  1  0
 13 43  1  0
 14 44  1  0
 16 45  1  0
 16 46  1  0
 22 47  1  0
 23 48  1  0
 23 49  1  0
 25 50  1  0
 26 51  1  0
 27 52  1  0
 28 53  1  0
 31 54  1  0
 32 55  1  0
 33 56  1  0
 34 57  1  0
 35 58  1  0
 36 59  1  0
 38 60  1  0
 38 61  1  0
 39 62  1  0
 39 63  1  0
M  END
>  <type>  (16) 
designed

$$$$
A02
     RDKit          3D

 69 73  0  0  0  0  0  0  0  0999 V2000
    3.6846   -2.3299   -0.1181 O   0  0  0  0  0  0  0  0  0  0  0  0
    4.1626   -1.2040   -0.0122 C   0  0  0  0  0  0  0  0  0  0  0  0
    5.4240   -0.9276   -0.7214 C   0  0  0  0  0  0  0  0  0  0  0  0
    6.4905   -1.8051   -0.5828 C   0  0  0  0  0  0  0  0  0  0  0  0
    7.6857   -1.6388   -1.2044 N   0  0  0  0  0  0  0  0  0  0  0  0
    7.7975   -0.5699   -2.0202 C   0  0  0  0  0  0  0  0  0  0  0  0
    8.9715   -0.3580   -2.7078 O   0  0  0  0  0  0  0  0  0  0  0  0
   10.0659   -1.1736   -2.2590 C   0  0  0  0  0  0  0  0  0  0  0  0
   10.7653   -0.6068   -1.0326 C   0  0  0  0  0  0  0  0  0  0  0  0
    9.9921   -0.5810    0.0708 F   0  0  0  0  0  0  0  0  0  0  0  0
   11.8630   -1.3452   -0.7358 F   0  0  0  0  0  0  0  0  0  0  0  0
   11.1919    0.6592   -1.2592 F   0  0  0  0  0  0  0  0  0  0  0  0
    6.7733    0.3386   -2.2518 C   0  0  0  0  0  0  0  0  0  0  0  0
    5.5608    0.1571   -1.5886 C   0  0  0  0  0  0  0  0  0  0  0  0
    3.5601   -0.1775    0.7144 N   0  0  0  0  0  0  0  0  0  0  0  0
    2.2706   -0.4998    1.3293 C   0  0  0  0  0  0  0  0  0  0  0  0
    1.5198    0.6975    1.8813 C   0  0  0  0  0  0  0  0  0  0  0  0
    0.2436    0.4793    2.2917 N   0  0  0  0  0  0  0  0  0  0  0  0
   -0.4318    1.5416    2.8155 C   0  0  0  0  0  0  0  0  0  0  0  0
   -1.8402    1.2860    3.2621 C   0  0  0  0  0  0  0  0  0  0  0  0
   -2.5152    2.1705    3.7781 O   0  0  0  0  0  0  0  0  0  0  0  0
   -2.2885    0.0042    3.0338 N   0  0  0  0  0  0  0  0  0  0  0  0
   -3.6481   -0.4044    3.2860 C   0  0  0  0  0  0  0  0  0  0  0  0
   -4.4693   -0.4085    2.0234 C   0  0  0  0  0  0  0  0  0  0  0  0
   -4.8631   -1.6039    1.4193 C   0  0  0  0  0  0  0  0  0  0  0  0
   -5.6355   -1.5933    0.2475 C   0  0  0  0  0  0  0  0  0  0  0  0
   -6.0464   -0.3985   -0.3639 C   0  0  0  0  0  0  0  0  0  0  0  0
   -6.8132   -0.3639   -1.5346 N   0  0  0  0  0  0  0  0  0  0  0  0
   -7.1423   -1.6134   -2.2410 C   0  0  0  0  0  0  0  0  0  0  0  0
   -7.6353   -1.3442   -3.6873 C   0  0  0  0  0  0  0  0  0  0  0  0
   -8.4062   -0.1034   -3.9194 N   0  0  0  0  0  0  0  0  0  0  0  0
   -8.9498    0.3803   -2.6404 C   0  0  0  0  0  0  0  0  0  0  0  0
   -7.8478    0.6947   -1.6031 C   0  0  0  0  0  0  0  0  0  0  0  0
   -5.6173    0.7915    0.2490 C   0  0  0  0  0  0  0  0  0  0  0  0
   -4.8508    0.7921    1.4211 C   0  0  0  0  0  0  0  0  0  0  0  0
    0.1079    2.8126    2.9483 C   0  0  0  0  0  0  0  0  0  0  0  0
    1.4150    3.0165    2.5244 C   0  0  0  0  0  0  0  0  0  0  0  0
    2.1447    1.9472    1.9945 C   0  0  0  0  0  0  0  0  0  0  0  0
    3.5494    2.1595    1.4967 C   0  0  0  0  0  0  0  0  0  0  0  0
    4.3336    0.8533    1.4078 C   0  0  0  0  0  0  0  0  0  0  0  0
    6.4149   -2.6866    0.0500 H   0  0  0  0  0  0  0  0  0  0  0  0
   10.7876   -1.1794   -3.0832 H   0  0  0  0  0  0  0  0  0  0  0  0
    9.7805   -2.2226   -2.1166 H   0  0  0  0  0  0  0  0  0  0  0  0
    6.9148    1.1658   -2.9392 H   0  0  0  0  0  0  0  0  0  0  0  0
    4.7329    0.8403   -1.7628 H   0  0  0  0  0  0  0  0  0  0  0  0
    2.4622   -1.2001    2.1517 H   0  0  0  0  0  0  0  0  0  0  0  0
    1.6423   -1.0092    0.5894 H   0  0  0  0  0  0  0  0  0  0  0  0
   -1.6701   -0.6039    2.5052 H   0  0  0  0  0  0  0  0  0  0  0  0
   -4.1161    0.2528    4.0266 H   0  0  0  0  0  0  0  0  0  0  0  0
   -3.6057   -1.4071    3.7224 H   0  0  0  0  0  0  0  0  0  0  0  0
   -4.5837   -2.5596    1.8561 H   0  0  0  0  0  0  0  0  0  0  0  0
   -5.9222   -2.5573   -0.1617 H   0  0  0  0  0  0  0  0  0  0  0  0
   -6.2627   -2.2615   -2.3216 H   0  0  0  0  0  0  0  0  0  0  0  0
   -7.9171   -2.1538   -1.6835 H   0  0  0  0  0  0  0  0  0  0  0  0
   -8.2447   -2.1975   -4.0104 H   0  0  0  0  0  0  0  0  0  0  0  0
   -6.7666   -1.3244   -4.3587 H   0  0  0  0  0  0  0  0  0  0  0  0
   -7.7355    0.5992   -4.2395 H   0  0  0  0  0  0  0  0  0  0  0  0
   -9.5368    1.2879   -2.8244 H   0  0  0  0  0  0  0  0  0  0  0  0
   -9.6505   -0.3627   -2.2374 H   0  0  0  0  0  0  0  0  0  0  0  0
   -8.3303    0.8370   -0.6275 H   0  0  0  0  0  0  0  0  0  0  0  0
   -7.3673    1.6386   -1.8894 H   0  0  0  0  0  0  0  0  0  0  0  0
   -5.8571    1.7542   -0.1928 H   0  0  0  0  0  0  0  0  0  0  0  0
   -4.5485    1.7421    1.8590 H   0  0  0  0  0  0  0  0  0  0  0  0
   -0.4771    3.6256    3.3670 H   0  0  0  0  0  0  0  0  0  0  0  0
    1.8567    4.0069    2.6086 H   0  0  0  0  0  0  0  0  0  0  0  0
    3.4908    2.6192    0.5034 H   0  0  0  0  0  0  0  0  0  0  0  0
    4.0842    2.8508    2.1572 H   0  0  0  0  0  0  0  0  0  0  0  0
    4.5534    0.4643    2.4103 H   0  0  0  0  0  0  0  0  0  0  0  0
    5.2990    1.0346    0.9303 H   0  0  0  0  0  0  0  0  0  0  0  0
  1  2  2  0
  2  3  1  0
  3  4  2  0
  4  5  1  0
  5  6  2  0
  6  7  1  0
  7  8  1  0
  8  9  1  0
  9 10  1  0
  9 11  1  0
  9 12  1  0
  6 13  1  0
 13 14  2  0
  2 15  1  0
 15 16  1  0
 16 17  1  0
 17 18  2  0
 18 19  1  0
 19 20  1  0
 20 21  2  0
 20 22  1  0
 22 23  1  0
 23 24  1  0
 24 25  2  0
 25 26  1  0
 26 27  2  0
 27 28  1  0
 28 29  1  0
 29 30  1  0
 30 31  1  0
 31 32  1  0
 32 33  1  0
 27 34  1  0
 34 35  2  0
 19 36  2  0
 36 37  1  0
 37 38  2  0
 38 39  1  0
 39 40  1  0
 40 15  1  0
 38 17  1  0
 14  3  1  0
 35 24  1  0
 33 28  1  0
  4 41  1  0
  8 42  1  0
  8 43  1  0
 13 44  1  0
 14 45  1  0
 16 46  1  0
 16 47  1  0
 22 48  1  0
 23 49  1  0
 23 50  1  0
 25 51  1  0
 26 52  1  0
 29 53  1  0
 29 54  1  0
 30 55  1  0
 30 56  1  0
 31 57  1  0
 32 58  1  0
 32 59  1  0
 33 60  1  0
 33 61  1  0
 34 62  1  0
 35 63  1  0
 36 64  1  0
 37 65  1  0
 39 66  1  0
 39 67  1  0
 40 68  1  0
 40 69  1  0
M  END
>  <type>  (17) 
designed

$$$$
A03
     RDKit          3D

 72 76  0  0  0  0  0  0  0  0999 V2000
   -5.8911   -3.3860   -1.0646 O   0  0  0  0  0  0  0  0  0  0  0  0
   -5.0451   -2.5061   -1.2032 C   0  0  0  0  0  0  0  0  0  0  0  0
   -5.5206   -1.1215   -1.3826 C   0  0  0  0  0  0  0  0  0  0  0  0
   -6.5443   -0.6473   -0.5746 C   0  0  0  0  0  0  0  0  0  0  0  0
   -7.0548    0.6063   -0.6654 N   0  0  0  0  0  0  0  0  0  0  0  0
   -6.5471    1.3967   -1.6321 C   0  0  0  0  0  0  0  0  0  0  0  0
   -7.0205    2.6820   -1.7809 O   0  0  0  0  0  0  0  0  0  0  0  0
   -8.1356    2.9973   -0.9336 C   0  0  0  0  0  0  0  0  0  0  0  0
   -9.4753    2.5666   -1.5137 C   0  0  0  0  0  0  0  0  0  0  0  0
   -9.6087    1.2331   -1.6524 F   0  0  0  0  0  0  0  0  0  0  0  0
   -9.6785    3.1277   -2.7304 F   0  0  0  0  0  0  0  0  0  0  0  0
  -10.4856    2.9905   -0.7137 F   0  0  0  0  0  0  0  0  0  0  0  0
   -5.5431    1.0022   -2.5050 C   0  0  0  0  0  0  0  0  0  0  0  0
   -5.0235   -0.2851   -2.3824 C   0  0  0  0  0  0  0  0  0  0  0  0
   -3.6749   -2.7640   -1.2287 N   0  0  0  0  0  0  0  0  0  0  0  0
   -2.6752   -1.8131   -0.7292 C   0  0  0  0  0  0  0  0  0  0  0  0
   -2.0617   -2.2442    0.5947 C   0  0  0  0  0  0  0  0  0  0  0  0
   -1.3373   -1.3084    1.2584 N   0  0  0  0  0  0  0  0  0  0  0  0
   -0.7708   -1.6876    2.4410 C   0  0  0  0  0  0  0  0  0  0  0  0
    0.0281   -0.6413    3.1600 C   0  0  0  0  0  0  0  0  0  0  0  0
    0.5853   -0.8795    4.2254 O   0  0  0  0  0  0  0  0  0  0  0  0
    0.0811    0.5722    2.5099 N   0  0  0  0  0  0  0  0  0  0  0  0
    0.9557    1.6390    2.9261 C   0  0  0  0  0  0  0  0  0  0  0  0
    2.2469    1.6064    2.1526 C   0  0  0  0  0  0  0  0  0  0  0  0
    3.2939    0.7749    2.5553 C   0  0  0  0  0  0  0  0  0  0  0  0
    4.4873    0.7240    1.8228 C   0  0  0  0  0  0  0  0  0  0  0  0
    4.6849    1.4890    0.6625 C   0  0  0  0  0  0  0  0  0  0  0  0
    5.8654    1.4286   -0.0579 N   0  0  0  0  0  0  0  0  0  0  0  0
    7.1239    0.9806    0.5634 C   0  0  0  0  0  0  0  0  0  0  0  0
    8.3501    1.6398   -0.1129 C   0  0  0  0  0  0  0  0  0  0  0  0
    8.4552    1.4589   -1.5762 N   0  0  0  0  0  0  0  0  0  0  0  0
    9.3856    0.3891   -1.9257 C   0  0  0  0  0  0  0  0  0  0  0  0
    7.1288    1.2132   -2.1832 C   0  0  0  0  0  0  0  0  0  0  0  0
    5.9571    1.9048   -1.4479 C   0  0  0  0  0  0  0  0  0  0  0  0
    3.6143    2.3079    0.2703 C   0  0  0  0  0  0  0  0  0  0  0  0
    2.4152    2.3686    0.9950 C   0  0  0  0  0  0  0  0  0  0  0  0
   -0.8893   -2.9577    2.9857 C   0  0  0  0  0  0  0  0  0  0  0  0
   -1.6265   -3.9051    2.2848 C   0  0  0  0  0  0  0  0  0  0  0  0
   -2.2149   -3.5590    1.0642 C   0  0  0  0  0  0  0  0  0  0  0  0
   -3.0510   -4.5665    0.3111 C   0  0  0  0  0  0  0  0  0  0  0  0
   -3.2475   -4.1569   -1.1494 C   0  0  0  0  0  0  0  0  0  0  0  0
   -6.9916   -1.2744    0.1927 H   0  0  0  0  0  0  0  0  0  0  0  0
   -7.9994    2.6349    0.0927 H   0  0  0  0  0  0  0  0  0  0  0  0
   -8.1451    4.0906   -0.8524 H   0  0  0  0  0  0  0  0  0  0  0  0
   -5.1805    1.6811   -3.2696 H   0  0  0  0  0  0  0  0  0  0  0  0
   -4.2551   -0.6302   -3.0682 H   0  0  0  0  0  0  0  0  0  0  0  0
   -1.8783   -1.7542   -1.4800 H   0  0  0  0  0  0  0  0  0  0  0  0
   -3.1017   -0.8161   -0.5934 H   0  0  0  0  0  0  0  0  0  0  0  0
   -0.3197    0.5923    1.5778 H   0  0  0  0  0  0  0  0  0  0  0  0
    1.1545    1.5738    4.0020 H   0  0  0  0  0  0  0  0  0  0  0  0
    0.4281    2.5828    2.7484 H   0  0  0  0  0  0  0  0  0  0  0  0
    3.1842    0.1492    3.4399 H   0  0  0  0  0  0  0  0  0  0  0  0
    5.2570    0.0415    2.1720 H   0  0  0  0  0  0  0  0  0  0  0  0
    7.1550    1.2530    1.6251 H   0  0  0  0  0  0  0  0  0  0  0  0
    7.1983   -0.1107    0.4884 H   0  0  0  0  0  0  0  0  0  0  0  0
    8.2869    2.7215    0.0647 H   0  0  0  0  0  0  0  0  0  0  0  0
    9.2671    1.3145    0.3937 H   0  0  0  0  0  0  0  0  0  0  0  0
   10.3929    0.6238   -1.5650 H   0  0  0  0  0  0  0  0  0  0  0  0
    9.4591    0.2825   -3.0138 H   0  0  0  0  0  0  0  0  0  0  0  0
    9.0849   -0.5763   -1.5028 H   0  0  0  0  0  0  0  0  0  0  0  0
    7.1517    1.5577   -3.2238 H   0  0  0  0  0  0  0  0  0  0  0  0
    6.9141    0.1352   -2.2044 H   0  0  0  0  0  0  0  0  0  0  0  0
    6.0910    2.9927   -1.4610 H   0  0  0  0  0  0  0  0  0  0  0  0
    5.0407    1.6648   -1.9992 H   0  0  0  0  0  0  0  0  0  0  0  0
    3.6989    2.9417   -0.6080 H   0  0  0  0  0  0  0  0  0  0  0  0
    1.6200    3.0223    0.6441 H   0  0  0  0  0  0  0  0  0  0  0  0
   -0.4194   -3.2030    3.9329 H   0  0  0  0  0  0  0  0  0  0  0  0
   -1.7420   -4.9067    2.6930 H   0  0  0  0  0  0  0  0  0  0  0  0
   -4.0244   -4.6400    0.8114 H   0  0  0  0  0  0  0  0  0  0  0  0
   -2.5764   -5.5537    0.3463 H   0  0  0  0  0  0  0  0  0  0  0  0
   -2.3072   -4.2467   -1.7075 H   0  0  0  0  0  0  0  0  0  0  0  0
   -3.9790   -4.8137   -1.6326 H   0  0  0  0  0  0  0  0  0  0  0  0
  1  2  2  0
  2  3  1  0
  3  4  2  0
  4  5  1  0
  5  6  2  0
  6  7  1  0
  7  8  1  0
  8  9  1  0
  9 10  1  0
  9 11  1  0
  9 12  1  0
  6 13  1  0
 13 14  2  0
  2 15  1  0
 15 16  1  0
 16 17  1  0
 17 18  2  0
 18 19  1  0
 19 20  1  0
 20 21  2  0
 20 22  1  0
 22 23  1  0
 23 24  1  0
 24 25  2  0
 25 26  1  0
 26 27  2  0
 27 28  1  0
 28 29  1  0
 29 30  1  0
 30 31  1  0
 31 32  1  0
 31 33  1  0
 33 34  1  0
 27 35  1  0
 35 36  2  0
 19 37  2  0
 37 38  1  0
 38 39  2  0
 39 40  1  0
 40 41  1  0
 41 15  1  0
 39 17  1  0
 14  3  1  0
 36 24  1  0
 34 28  1  0
  4 42  1  0
  8 43  1  0
  8 44  1  0
 13 45  1  0
 14 46  1  0
 16 47  1  0
 16 48  1  0
 22 49  1  0
 23 50  1  0
 23 51  1  0
 25 52  1  0
 26 53  1  0
 29 54  1  0
 29 55  1  0
 30 56  1  0
 30 57  1  0
 32 58  1  0
 32 59  1  0
 32 60  1  0
 33 61  1  0
 33 62  1  0
 34 63  1  0
 34 64  1  0
 35 65  1  0
 36 66  1  0
 37 67  1  0
 38 68  1  0
 40 69  1  0
 40 70  1  0
 41 71  1  0
 41 72  1  0
M  END
>  <type>  (18) 
designed

$$$$
A04
     RDKit          3D

 68 72  0  0  0  0  0  0  0  0999 V2000
    4.5237    2.1704   -0.2294 O   0  0  0  0  0  0  0  0  0  0  0  0
    4.6529    0.9865    0.0709 C   0  0  0  0  0  0  0  0  0  0  0  0
    6.0165    0.4473    0.0880 C   0  0  0  0  0  0  0  0  0  0  0  0
    6.8282    0.6668    1.1898 C   0  0  0  0  0  0  0  0  0  0  0  0
    8.0918    0.1865    1.2919 N   0  0  0  0  0  0  0  0  0  0  0  0
    8.5653   -0.4953    0.2280 C   0  0  0  0  0  0  0  0  0  0  0  0
    9.8403   -1.0214    0.2682 O   0  0  0  0  0  0  0  0  0  0  0  0
   10.6391   -0.5229    1.3543 C   0  0  0  0  0  0  0  0  0  0  0  0
   11.2634    0.8383    1.0715 C   0  0  0  0  0  0  0  0  0  0  0  0
   12.1126    1.1777    2.0734 F   0  0  0  0  0  0  0  0  0  0  0  0
   10.3629    1.8356    0.9599 F   0  0  0  0  0  0  0  0  0  0  0  0
   11.9931    0.8094   -0.0715 F   0  0  0  0  0  0  0  0  0  0  0  0
    7.8291   -0.7451   -0.9249 C   0  0  0  0  0  0  0  0  0  0  0  0
    6.5263   -0.2581   -0.9997 C   0  0  0  0  0  0  0  0  0  0  0  0
    3.6022    0.1350    0.3805 N   0  0  0  0  0  0  0  0  0  0  0  0
    2.2290    0.6184    0.2401 C   0  0  0  0  0  0  0  0  0  0  0  0
    1.3898   -0.2721   -0.6620 C   0  0  0  0  0  0  0  0  0  0  0  0
    0.2165    0.2414   -1.1109 N   0  0  0  0  0  0  0  0  0  0  0  0
   -0.5327   -0.5489   -1.9343 C   0  0  0  0  0  0  0  0  0  0  0  0
   -1.7990    0.0572   -2.4643 C   0  0  0  0  0  0  0  0  0  0  0  0
   -2.5036   -0.5348   -3.2745 O   0  0  0  0  0  0  0  0  0  0  0  0
   -2.0660    1.3150   -1.9747 N   0  0  0  0  0  0  0  0  0  0  0  0
   -3.2386    2.0655   -2.3427 C   0  0  0  0  0  0  0  0  0  0  0  0
   -4.4464    1.6832   -1.5262 C   0  0  0  0  0  0  0  0  0  0  0  0
   -5.5238    1.0219   -2.1258 C   0  0  0  0  0  0  0  0  0  0  0  0
   -6.6688    0.6976   -1.3885 C   0  0  0  0  0  0  0  0  0  0  0  0
   -6.7675    1.0052   -0.0258 C   0  0  0  0  0  0  0  0  0  0  0  0
   -7.8878    0.7037    0.7610 N   0  0  0  0  0  0  0  0  0  0  0  0
   -9.2056    0.5319    0.1128 C   0  0  0  0  0  0  0  0  0  0  0  0
   -9.5804   -0.9557    0.0233 C   0  0  0  0  0  0  0  0  0  0  0  0
   -9.6530   -1.6153    1.3027 O   0  0  0  0  0  0  0  0  0  0  0  0
   -8.8951   -0.9502    2.3247 C   0  0  0  0  0  0  0  0  0  0  0  0
   -7.5946   -0.3185    1.7980 C   0  0  0  0  0  0  0  0  0  0  0  0
   -5.6661    1.6401    0.5706 C   0  0  0  0  0  0  0  0  0  0  0  0
   -4.5240    1.9812   -0.1633 C   0  0  0  0  0  0  0  0  0  0  0  0
   -0.1743   -1.8332   -2.3127 C   0  0  0  0  0  0  0  0  0  0  0  0
    1.0169   -2.3516   -1.8200 C   0  0  0  0  0  0  0  0  0  0  0  0
    1.8138   -1.5758   -0.9710 C   0  0  0  0  0  0  0  0  0  0  0  0
    3.1325   -2.1149   -0.4711 C   0  0  0  0  0  0  0  0  0  0  0  0
    3.7053   -1.2901    0.6850 C   0  0  0  0  0  0  0  0  0  0  0  0
    6.4791    1.2382    2.0463 H   0  0  0  0  0  0  0  0  0  0  0  0
   11.4555   -1.2439    1.4768 H   0  0  0  0  0  0  0  0  0  0  0  0
   10.0971   -0.5326    2.3096 H   0  0  0  0  0  0  0  0  0  0  0  0
    8.2695   -1.2992   -1.7469 H   0  0  0  0  0  0  0  0  0  0  0  0
    5.9256   -0.4188   -1.8907 H   0  0  0  0  0  0  0  0  0  0  0  0
    2.2066    1.6457   -0.1342 H   0  0  0  0  0  0  0  0  0  0  0  0
    1.7806    0.6128    1.2396 H   0  0  0  0  0  0  0  0  0  0  0  0
   -1.4208    1.6782   -1.2807 H   0  0  0  0  0  0  0  0  0  0  0  0
   -3.4296    1.9205   -3.4132 H   0  0  0  0  0  0  0  0  0  0  0  0
   -3.0183    3.1291   -2.1930 H   0  0  0  0  0  0  0  0  0  0  0  0
   -5.4747    0.7455   -3.1779 H   0  0  0  0  0  0  0  0  0  0  0  0
   -7.4682    0.1794   -1.9071 H   0  0  0  0  0  0  0  0  0  0  0  0
   -9.9439    1.0422    0.7449 H   0  0  0  0  0  0  0  0  0  0  0  0
   -9.2626    1.0179   -0.8682 H   0  0  0  0  0  0  0  0  0  0  0  0
   -8.8510   -1.5027   -0.5883 H   0  0  0  0  0  0  0  0  0  0  0  0
  -10.5594   -1.0674   -0.4562 H   0  0  0  0  0  0  0  0  0  0  0  0
   -8.6671   -1.6917    3.0955 H   0  0  0  0  0  0  0  0  0  0  0  0
   -9.5391   -0.1910    2.7819 H   0  0  0  0  0  0  0  0  0  0  0  0
   -7.0556    0.1430    2.6323 H   0  0  0  0  0  0  0  0  0  0  0  0
   -6.9712   -1.1175    1.3746 H   0  0  0  0  0  0  0  0  0  0  0  0
   -5.7066    1.9072    1.6251 H   0  0  0  0  0  0  0  0  0  0  0  0
   -3.7028    2.4841    0.3387 H   0  0  0  0  0  0  0  0  0  0  0  0
   -0.8044   -2.4141   -2.9798 H   0  0  0  0  0  0  0  0  0  0  0  0
    1.3229   -3.3551   -2.1072 H   0  0  0  0  0  0  0  0  0  0  0  0
    3.0095   -3.1524   -0.1383 H   0  0  0  0  0  0  0  0  0  0  0  0
    3.8409   -2.1086   -1.3095 H   0  0  0  0  0  0  0  0  0  0  0  0
    3.1284   -1.4668    1.6011 H   0  0  0  0  0  0  0  0  0  0  0  0
    4.7352   -1.5939    0.8906 H   0  0  0  0  0  0  0  0  0  0  0  0
  1  2  2  0
  2  3  1  0
  3  4  2  0
  4  5  1  0
  5  6  2  0
  6  7  1  0
  7  8  1  0
  8  9  1  0
  9 10  1  0
  9 11  1  0
  9 12  1  0
  6 13  1  0
 13 14  2  0
  2 15  1  0
 15 16  1  0
 16 17  1  0
 17 18  2  0
 18 19  1  0
 19 20  1  0
 20 21  2  0
 20 22  1  0
 22 23  1  0
 23 24  1  0
 24 25  2  0
 25 26  1  0
 26 27  2  0
 27 28  1  0
 28 29  1  0
 29 30  1  0
 30 31  1  0
 31 32  1  0
 32 33  1  0
 27 34  1  0
 34 35  2  0
 19 36  2  0
 36 37  1  0
 37 38  2  0
 38 39  1  0
 39 40  1  0
 40 15  1  0
 38 17  1  0
 14  3  1  0
 35 24  1  0
 33 28  1  0
  4 41  1  0
  8 42  1  0
  8 43  1  0
 13 44  1  0
 14 45  1  0
 16 46  1  0
 16 47  1  0
 22 48  1  0
 23 49  1  0
 23 50  1  0
 25 51  1  0
 26 52  1  0
 29 53  1  0
 29 54  1  0
 30 55  1  0
 30 56  1  0
 32 57  1  0
 32 58  1  0
 33 59  1  0
 33 60  1  0
 34 61  1  0
 35 62  1  0
 36 63  1  0
 37 64  1  0
 39 65  1  0
 39 66  1  0
 40 67  1  0
 40 68  1  0
M  END
>  <type>  (19) 
designed

$$$$
A05
     RDKit          3D

 53 56  0  0  0  0  0  0  0  0999 V2000
   -0.4438   -3.1091   -0.1746 O   0  0  0  0  0  0  0  0  0  0  0  0
   -1.1972   -2.1508   -0.3184 C   0  0  0  0  0  0  0  0  0  0  0  0
   -2.3082   -2.2949   -1.2762 C   0  0  0  0  0  0  0  0  0  0  0  0
   -3.1388   -3.4027   -1.1862 C   0  0  0  0  0  0  0  0  0  0  0  0
   -4.1888   -3.6231   -2.0180 N   0  0  0  0  0  0  0  0  0  0  0  0
   -4.3860   -2.7121   -2.9949 C   0  0  0  0  0  0  0  0  0  0  0  0
   -5.4458   -2.8597   -3.8629 O   0  0  0  0  0  0  0  0  0  0  0  0
   -6.1737   -4.0811   -3.6609 C   0  0  0  0  0  0  0  0  0  0  0  0
   -7.3220   -4.1732   -4.6504 C   0  0  0  0  0  0  0  0  0  0  0  0
   -7.9896   -5.3422   -4.5020 F   0  0  0  0  0  0  0  0  0  0  0  0
   -6.8889   -4.1161   -5.9295 F   0  0  0  0  0  0  0  0  0  0  0  0
   -8.2159   -3.1742   -4.4680 F   0  0  0  0  0  0  0  0  0  0  0  0
   -3.5874   -1.5926   -3.1827 C   0  0  0  0  0  0  0  0  0  0  0  0
   -2.5221   -1.3838   -2.3105 C   0  0  0  0  0  0  0  0  0  0  0  0
   -1.0457   -0.9565    0.3782 N   0  0  0  0  0  0  0  0  0  0  0  0
    0.1923   -0.8035    1.1547 C   0  0  0  0  0  0  0  0  0  0  0  0
    0.3774    0.5393    1.8355 C   0  0  0  0  0  0  0  0  0  0  0  0
    1.6431    0.9331    2.1325 N   0  0  0  0  0  0  0  0  0  0  0  0
    1.7748    2.1039    2.8191 C   0  0  0  0  0  0  0  0  0  0  0  0
    3.1728    2.5352    3.1405 C   0  0  0  0  0  0  0  0  0  0  0  0
    3.4007    3.5974    3.7071 O   0  0  0  0  0  0  0  0  0  0  0  0
    4.1534    1.6555    2.7355 N   0  0  0  0  0  0  0  0  0  0  0  0
    5.5636    1.9148    2.9445 C   0  0  0  0  0  0  0  0  0  0  0  0
    6.2977    2.5144    1.7701 C   0  0  0  0  0  0  0  0  0  0  0  0
    5.6442    3.0494    0.6609 C   0  0  0  0  0  0  0  0  0  0  0  0
    6.2983    3.6088   -0.3909 N   0  0  0  0  0  0  0  0  0  0  0  0
    7.6455    3.6360   -0.2842 C   0  0  0  0  0  0  0  0  0  0  0  0
    8.3105    3.1195    0.8137 C   0  0  0  0  0  0  0  0  0  0  0  0
    7.6590    2.5421    1.8518 N   0  0  0  0  0  0  0  0  0  0  0  0
    0.7073    2.8932    3.2245 C   0  0  0  0  0  0  0  0  0  0  0  0
   -0.5787    2.4708    2.9120 C   0  0  0  0  0  0  0  0  0  0  0  0
   -0.7509    1.2845    2.1986 C   0  0  0  0  0  0  0  0  0  0  0  0
   -2.1117    0.7722    1.8276 C   0  0  0  0  0  0  0  0  0  0  0  0
   -2.0543    0.1082    0.4507 C   0  0  0  0  0  0  0  0  0  0  0  0
   -2.9841   -4.1603   -0.4211 H   0  0  0  0  0  0  0  0  0  0  0  0
   -5.5099   -4.9409   -3.8131 H   0  0  0  0  0  0  0  0  0  0  0  0
   -6.5904   -4.1094   -2.6469 H   0  0  0  0  0  0  0  0  0  0  0  0
   -3.7914   -0.9013   -3.9945 H   0  0  0  0  0  0  0  0  0  0  0  0
   -1.8675   -0.5261   -2.4423 H   0  0  0  0  0  0  0  0  0  0  0  0
    0.1917   -1.5814    1.9299 H   0  0  0  0  0  0  0  0  0  0  0  0
    1.0396   -1.0003    0.4864 H   0  0  0  0  0  0  0  0  0  0  0  0
    3.8510    0.8132    2.2528 H   0  0  0  0  0  0  0  0  0  0  0  0
    5.6869    2.5815    3.8050 H   0  0  0  0  0  0  0  0  0  0  0  0
    6.0207    0.9503    3.1919 H   0  0  0  0  0  0  0  0  0  0  0  0
    4.5606    3.0531    0.5754 H   0  0  0  0  0  0  0  0  0  0  0  0
    8.1819    4.0839   -1.1114 H   0  0  0  0  0  0  0  0  0  0  0  0
    9.3927    3.1591    0.8917 H   0  0  0  0  0  0  0  0  0  0  0  0
    0.8747    3.8155    3.7727 H   0  0  0  0  0  0  0  0  0  0  0  0
   -1.4329    3.0655    3.2236 H   0  0  0  0  0  0  0  0  0  0  0  0
   -2.4391    0.0496    2.5829 H   0  0  0  0  0  0  0  0  0  0  0  0
   -2.8408    1.5904    1.8011 H   0  0  0  0  0  0  0  0  0  0  0  0
   -1.7908    0.8461   -0.3167 H   0  0  0  0  0  0  0  0  0  0  0  0
   -3.0443   -0.2910    0.2103 H   0  0  0  0  0  0  0  0  0  0  0  0
  1  2  2  0
  2  3  1  0
  3  4  2  0
  4  5  1  0
  5  6  2  0
  6  7  1  0
  7  8  1  0
  8  9  1  0
  9 10  1  0
  9 11  1  0
  9 12  1  0
  6 13  1  0
 13 14  2  0
  2 15  1  0
 15 16  1  0
 16 17  1  0
 17 18  2  0
 18 19  1  0
 19 20  1  0
 20 21  2  0
 20 22  1  0
 22 23  1  0
 23 24  1  0
 24 25  2  0
 25 26  1  0
 26 27  2  0
 27 28  1  0
 28 29  2  0
 19 30  2  0
 30 31  1  0
 31 32  2  0
 32 33  1  0
 33 34  1  0
 34 15  1  0
 32 17  1  0
 14  3  1  0
 29 24  1  0
  4 35  1  0
  8 36  1  0
  8 37  1  0
 13 38  1  0
 14 39  1  0
 16 40  1  0
 16 41  1  0
 22 42  1  0
 23 43  1  0
 23 44  1  0
 25 45  1  0
 27 46  1  0
 28 47  1  0
 30 48  1  0
 31 49  1  0
 33 50  1  0
 33 51  1  0
 34 52  1  0
 34 53  1  0
M  END
>  <type>  (20) 
designed

$$$$
A06
     RDKit          3D

 54 57  0  0  0  0  0  0  0  0999 V2000
    1.7116    2.2821   -0.4545 O   0  0  0  0  0  0  0  0  0  0  0  0
    2.0950    1.1314   -0.2605 C   0  0  0  0  0  0  0  0  0  0  0  0
    3.5494    0.8885   -0.2562 C   0  0  0  0  0  0  0  0  0  0  0  0
    4.3367    1.4746   -1.2376 C   0  0  0  0  0  0  0  0  0  0  0  0
    5.6835    1.3266   -1.3102 N   0  0  0  0  0  0  0  0  0  0  0  0
    6.2629    0.5909   -0.3374 C   0  0  0  0  0  0  0  0  0  0  0  0
    7.6278    0.4018   -0.3451 O   0  0  0  0  0  0  0  0  0  0  0  0
    8.2826    1.0871   -1.4230 C   0  0  0  0  0  0  0  0  0  0  0  0
    9.7787    0.8419   -1.3663 C   0  0  0  0  0  0  0  0  0  0  0  0
   10.0745   -0.4728   -1.4785 F   0  0  0  0  0  0  0  0  0  0  0  0
   10.4067    1.4833   -2.3803 F   0  0  0  0  0  0  0  0  0  0  0  0
   10.3175    1.2914   -0.2108 F   0  0  0  0  0  0  0  0  0  0  0  0
    5.5631   -0.0061    0.7015 C   0  0  0  0  0  0  0  0  0  0  0  0
    4.1795    0.1521    0.7476 C   0  0  0  0  0  0  0  0  0  0  0  0
    1.2261    0.0691   -0.0124 N   0  0  0  0  0  0  0  0  0  0  0  0
   -0.1952    0.4101    0.0714 C   0  0  0  0  0  0  0  0  0  0  0  0
   -1.0730   -0.6951    0.6252 C   0  0  0  0  0  0  0  0  0  0  0  0
   -2.3626   -0.3683    0.8939 N   0  0  0  0  0  0  0  0  0  0  0  0
   -3.1679   -1.3564    1.3785 C   0  0  0  0  0  0  0  0  0  0  0  0
   -4.5881   -0.9700    1.6648 C   0  0  0  0  0  0  0  0  0  0  0  0
   -5.4077   -1.7870    2.0686 O   0  0  0  0  0  0  0  0  0  0  0  0
   -4.8703    0.3560    1.4203 N   0  0  0  0  0  0  0  0  0  0  0  0
   -6.2048    0.8937    1.4749 C   0  0  0  0  0  0  0  0  0  0  0  0
   -6.8368    0.9022    0.1098 C   0  0  0  0  0  0  0  0  0  0  0  0
   -6.7838    2.0373   -0.7035 C   0  0  0  0  0  0  0  0  0  0  0  0
   -7.3633    1.9796   -1.9619 C   0  0  0  0  0  0  0  0  0  0  0  0
   -7.9759    0.8843   -2.4594 N   0  0  0  0  0  0  0  0  0  0  0  0
   -8.0061   -0.2054   -1.6626 C   0  0  0  0  0  0  0  0  0  0  0  0
   -7.4572   -0.2462   -0.3912 C   0  0  0  0  0  0  0  0  0  0  0  0
   -2.7467   -2.6578    1.6036 C   0  0  0  0  0  0  0  0  0  0  0  0
   -1.4243   -2.9752    1.3166 C   0  0  0  0  0  0  0  0  0  0  0  0
   -0.5706   -1.9909    0.8075 C   0  0  0  0  0  0  0  0  0  0  0  0
    0.8742   -2.3071    0.5245 C   0  0  0  0  0  0  0  0  0  0  0  0
    1.5021   -1.3031   -0.4402 C   0  0  0  0  0  0  0  0  0  0  0  0
    3.8968    2.0937   -2.0159 H   0  0  0  0  0  0  0  0  0  0  0  0
    8.1036    2.1665   -1.3451 H   0  0  0  0  0  0  0  0  0  0  0  0
    7.9073    0.7181   -2.3853 H   0  0  0  0  0  0  0  0  0  0  0  0
    6.0875   -0.5728    1.4634 H   0  0  0  0  0  0  0  0  0  0  0  0
    3.6085   -0.2802    1.5640 H   0  0  0  0  0  0  0  0  0  0  0  0
   -0.3089    1.3046    0.6954 H   0  0  0  0  0  0  0  0  0  0  0  0
   -0.5377    0.6555   -0.9415 H   0  0  0  0  0  0  0  0  0  0  0  0
   -4.1265    0.8946    0.9856 H   0  0  0  0  0  0  0  0  0  0  0  0
   -6.8206    0.3173    2.1747 H   0  0  0  0  0  0  0  0  0  0  0  0
   -6.1321    1.9131    1.8695 H   0  0  0  0  0  0  0  0  0  0  0  0
   -6.3020    2.9503   -0.3708 H   0  0  0  0  0  0  0  0  0  0  0  0
   -7.3472    2.8402   -2.6244 H   0  0  0  0  0  0  0  0  0  0  0  0
   -8.4969   -1.0766   -2.0866 H   0  0  0  0  0  0  0  0  0  0  0  0
   -7.5053   -1.1587    0.1962 H   0  0  0  0  0  0  0  0  0  0  0  0
   -3.4305   -3.4047    1.9940 H   0  0  0  0  0  0  0  0  0  0  0  0
   -1.0659   -3.9871    1.4908 H   0  0  0  0  0  0  0  0  0  0  0  0
    1.4180   -2.2891    1.4771 H   0  0  0  0  0  0  0  0  0  0  0  0
    0.9660   -3.3140    0.1013 H   0  0  0  0  0  0  0  0  0  0  0  0
    1.0762   -1.4154   -1.4461 H   0  0  0  0  0  0  0  0  0  0  0  0
    2.5720   -1.4979   -0.5378 H   0  0  0  0  0  0  0  0  0  0  0  0
  1  2  2  0
  2  3  1  0
  3  4  2  0
  4  5  1  0
  5  6  2  0
  6  7  1  0
  7  8  1  0
  8  9  1  0
  9 10  1  0
  9 11  1  0
  9 12  1  0
  6 13  1  0
 13 14  2  0
  2 15  1  0
 15 16  1  0
 16 17  1  0
 17 18  2  0
 18 19  1  0
 19 20  1  0
 20 21  2  0
 20 22  1  0
 22 23  1  0
 23 24  1  0
 24 25  2  0
 25 26  1  0
 26 27  2  0
 27 28  1  0
 28 29  2  0
 19 30  2  0
 30 31  1  0
 31 32  2  0
 32 33  1  0
 33 34  1  0
 34 15  1  0
 32 17  1  0
 14  3  1  0
 29 24  1  0
  4 35  1  0
  8 36  1  0
  8 37  1  0
 13 38  1  0
 14 39  1  0
 16 40  1  0
 16 41  1  0
 22 42  1  0
 23 43  1  0
 23 44  1  0
 25 45  1  0
 26 46  1  0
 28 47  1  0
 29 48  1  0
 30 49  1  0
 31 50  1  0
 33 51  1  0
 33 52  1  0
 34 53  1  0
 34 54  1  0
M  END
>  <type>  (21) 
designed

$$$$
A07
     RDKit          3D

 55 58  0  0  0  0  0  0  0  0999 V2000
   -1.8276   -0.2524    2.1917 O   0  0  0  0  0  0  0  0  0  0  0  0
   -2.2394   -0.0705    1.0487 C   0  0  0  0  0  0  0  0  0  0  0  0
   -3.6938    0.0705    0.8720 C   0  0  0  0  0  0  0  0  0  0  0  0
   -4.5317   -0.9092    1.3857 C   0  0  0  0  0  0  0  0  0  0  0  0
   -5.8842   -0.8663    1.2907 N   0  0  0  0  0  0  0  0  0  0  0  0
   -6.4125    0.2191    0.6856 C   0  0  0  0  0  0  0  0  0  0  0  0
   -7.7797    0.3312    0.5556 O   0  0  0  0  0  0  0  0  0  0  0  0
   -8.4917   -0.7465    1.1813 C   0  0  0  0  0  0  0  0  0  0  0  0
   -9.9871   -0.5527    1.0149 C   0  0  0  0  0  0  0  0  0  0  0  0
  -10.4093    0.6026    1.5757 F   0  0  0  0  0  0  0  0  0  0  0  0
  -10.6680   -1.5609    1.6096 F   0  0  0  0  0  0  0  0  0  0  0  0
  -10.3475   -0.5383   -0.2880 F   0  0  0  0  0  0  0  0  0  0  0  0
   -5.6562    1.2619    0.1695 C   0  0  0  0  0  0  0  0  0  0  0  0
   -4.2685    1.1917    0.2736 C   0  0  0  0  0  0  0  0  0  0  0  0
   -1.3979    0.0034   -0.0579 N   0  0  0  0  0  0  0  0  0  0  0  0
    0.0383    0.1033    0.2291 C   0  0  0  0  0  0  0  0  0  0  0  0
    0.9572    0.1905   -0.9716 C   0  0  0  0  0  0  0  0  0  0  0  0
    2.2264    0.6144   -0.7488 N   0  0  0  0  0  0  0  0  0  0  0  0
    3.0681    0.6460   -1.8218 C   0  0  0  0  0  0  0  0  0  0  0  0
    4.4667    1.1140   -1.5523 C   0  0  0  0  0  0  0  0  0  0  0  0
    5.3066    1.1722   -2.4432 O   0  0  0  0  0  0  0  0  0  0  0  0
    4.7046    1.4496   -0.2378 N   0  0  0  0  0  0  0  0  0  0  0  0
    6.0185    1.7605    0.2628 C   0  0  0  0  0  0  0  0  0  0  0  0
    6.6626    0.5430    0.8772 C   0  0  0  0  0  0  0  0  0  0  0  0
    6.5648    0.2995    2.2564 C   0  0  0  0  0  0  0  0  0  0  0  0
    7.1435   -0.8425    2.8127 C   0  0  0  0  0  0  0  0  0  0  0  0
    7.8110   -1.7435    1.9916 C   0  0  0  0  0  0  0  0  0  0  0  0
    8.3614   -2.8403    2.5281 F   0  0  0  0  0  0  0  0  0  0  0  0
    7.9111   -1.5264    0.6230 C   0  0  0  0  0  0  0  0  0  0  0  0
    7.3347   -0.3852    0.0647 C   0  0  0  0  0  0  0  0  0  0  0  0
    2.7024    0.2652   -3.1044 C   0  0  0  0  0  0  0  0  0  0  0  0
    1.3983   -0.1692   -3.3111 C   0  0  0  0  0  0  0  0  0  0  0  0
    0.5057   -0.1983   -2.2368 C   0  0  0  0  0  0  0  0  0  0  0  0
   -0.9094   -0.6699   -2.4020 C   0  0  0  0  0  0  0  0  0  0  0  0
   -1.8363    0.0901   -1.4535 C   0  0  0  0  0  0  0  0  0  0  0  0
   -4.1301   -1.7796    1.8992 H   0  0  0  0  0  0  0  0  0  0  0  0
   -8.2126   -1.7005    0.7180 H   0  0  0  0  0  0  0  0  0  0  0  0
   -8.2620   -0.7747    2.2534 H   0  0  0  0  0  0  0  0  0  0  0  0
   -6.1402    2.1156   -0.2922 H   0  0  0  0  0  0  0  0  0  0  0  0
   -3.6524    2.0079   -0.0916 H   0  0  0  0  0  0  0  0  0  0  0  0
    0.1867    0.9911    0.8567 H   0  0  0  0  0  0  0  0  0  0  0  0
    0.3240   -0.7752    0.8209 H   0  0  0  0  0  0  0  0  0  0  0  0
    3.9526    1.2483    0.4149 H   0  0  0  0  0  0  0  0  0  0  0  0
    5.9057    2.5519    1.0120 H   0  0  0  0  0  0  0  0  0  0  0  0
    6.6500    2.1595   -0.5391 H   0  0  0  0  0  0  0  0  0  0  0  0
    6.0357    0.9960    2.9032 H   0  0  0  0  0  0  0  0  0  0  0  0
    7.0738   -1.0373    3.8779 H   0  0  0  0  0  0  0  0  0  0  0  0
    8.4302   -2.2465   -0.0005 H   0  0  0  0  0  0  0  0  0  0  0  0
    7.4013   -0.2207   -1.0101 H   0  0  0  0  0  0  0  0  0  0  0  0
    3.4167    0.3022   -3.9208 H   0  0  0  0  0  0  0  0  0  0  0  0
    1.0864   -0.4801   -4.3052 H   0  0  0  0  0  0  0  0  0  0  0  0
   -1.2488   -0.5162   -3.4327 H   0  0  0  0  0  0  0  0  0  0  0  0
   -0.9469   -1.7452   -2.1897 H   0  0  0  0  0  0  0  0  0  0  0  0
   -1.8618    1.1552   -1.7145 H   0  0  0  0  0  0  0  0  0  0  0  0
   -2.8494   -0.3084   -1.5598 H   0  0  0  0  0  0  0  0  0  0  0  0
  1  2  2  0
  2  3  1  0
  3  4  2  0
  4  5  1  0
  5  6  2  0
  6  7  1  0
  7  8  1  0
  8  9  1  0
  9 10  1  0
  9 11  1  0
  9 12  1  0
  6 13  1  0
 13 14  2  0
  2 15  1  0
 15 16  1  0
 16 17  1  0
 17 18  2  0
 18 19  1  0
 19 20  1  0
 20 21  2  0
 20 22  1  0
 22 23  1  0
 23 24  1  0
 24 25  2  0
 25 26  1  0
 26 27  2  0
 27 28  1  0
 27 29  1  0
 29 30  2  0
 19 31  2  0
 31 32  1  0
 32 33  2  0
 33 34  1  0
 34 35  1  0
 35 15  1  0
 33 17  1  0
 14  3  1  0
 30 24  1  0
  4 36  1  0
  8 37  1  0
  8 38  1  0
 13 39  1  0
 14 40  1  0
 16 41  1  0
 16 42  1  0
 22 43  1  0
 23 44  1  0
 23 45  1  0
 25 46  1  0
 26 47  1  0
 29 48  1  0
 30 49  1  0
 31 50  1  0
 32 51  1  0
 34 52  1  0
 34 53  1  0
 35 54  1  0
 35 55  1  0
M  END
>  <type>  (22) 
designed

$$$$
A08
     RDKit          3D

 58 61  0  0  0  0  0  0  0  0999 V2000
    2.1085    1.0413   -1.9575 O   0  0  0  0  0  0  0  0  0  0  0  0
    2.6098    0.4269   -1.0196 C   0  0  0  0  0  0  0  0  0  0  0  0
    4.0696    0.5116   -0.8708 C   0  0  0  0  0  0  0  0  0  0  0  0
    4.6588    1.7550   -0.6955 C   0  0  0  0  0  0  0  0  0  0  0  0
    5.9963    1.9385   -0.5645 N   0  0  0  0  0  0  0  0  0  0  0  0
    6.7681    0.8333   -0.6506 C   0  0  0  0  0  0  0  0  0  0  0  0
    8.1365    0.9447   -0.5317 O   0  0  0  0  0  0  0  0  0  0  0  0
    8.5771    2.3020   -0.3777 C   0  0  0  0  0  0  0  0  0  0  0  0
   10.0894    2.3514   -0.2673 C   0  0  0  0  0  0  0  0  0  0  0  0
   10.5362    1.6519    0.8002 F   0  0  0  0  0  0  0  0  0  0  0  0
   10.5157    3.6280   -0.1185 F   0  0  0  0  0  0  0  0  0  0  0  0
   10.6896    1.8528   -1.3709 F   0  0  0  0  0  0  0  0  0  0  0  0
    6.2694   -0.4458   -0.8560 C   0  0  0  0  0  0  0  0  0  0  0  0
    4.8913   -0.6100   -0.9765 C   0  0  0  0  0  0  0  0  0  0  0  0
    1.8674   -0.3259   -0.1136 N   0  0  0  0  0  0  0  0  0  0  0  0
    0.4737   -0.5921   -0.4834 C   0  0  0  0  0  0  0  0  0  0  0  0
   -0.3962   -1.2086    0.5924 C   0  0  0  0  0  0  0  0  0  0  0  0
   -1.6610   -1.5442    0.2317 N   0  0  0  0  0  0  0  0  0  0  0  0
   -2.4618   -2.0846    1.1945 C   0  0  0  0  0  0  0  0  0  0  0  0
   -3.8575   -2.4363    0.7740 C   0  0  0  0  0  0  0  0  0  0  0  0
   -4.6624   -2.9198    1.5618 O   0  0  0  0  0  0  0  0  0  0  0  0
   -4.1353   -2.1546   -0.5456 N   0  0  0  0  0  0  0  0  0  0  0  0
   -5.4625   -2.2418   -1.0981 C   0  0  0  0  0  0  0  0  0  0  0  0
   -6.1456   -0.8982   -1.0703 C   0  0  0  0  0  0  0  0  0  0  0  0
   -6.8108   -0.4692    0.0863 C   0  0  0  0  0  0  0  0  0  0  0  0
   -7.4245    0.7843    0.1295 C   0  0  0  0  0  0  0  0  0  0  0  0
   -7.3738    1.6406   -0.9799 C   0  0  0  0  0  0  0  0  0  0  0  0
   -8.0543    2.9860   -0.9400 C   0  0  0  0  0  0  0  0  0  0  0  0
   -8.0627    3.5462    0.3023 F   0  0  0  0  0  0  0  0  0  0  0  0
   -9.3579    2.9194   -1.3281 F   0  0  0  0  0  0  0  0  0  0  0  0
   -7.4693    3.9076   -1.7563 F   0  0  0  0  0  0  0  0  0  0  0  0
   -6.7070    1.2105   -2.1369 C   0  0  0  0  0  0  0  0  0  0  0  0
   -6.0927   -0.0438   -2.1792 C   0  0  0  0  0  0  0  0  0  0  0  0
   -2.0587   -2.3034    2.5027 C   0  0  0  0  0  0  0  0  0  0  0  0
   -0.7594   -1.9553    2.8523 C   0  0  0  0  0  0  0  0  0  0  0  0
    0.0937   -1.4120    1.8868 C   0  0  0  0  0  0  0  0  0  0  0  0
    1.4943   -0.9998    2.2378 C   0  0  0  0  0  0  0  0  0  0  0  0
    2.4151   -1.0712    1.0206 C   0  0  0  0  0  0  0  0  0  0  0  0
    4.0589    2.6606   -0.6521 H   0  0  0  0  0  0  0  0  0  0  0  0
    8.1485    2.7343    0.5348 H   0  0  0  0  0  0  0  0  0  0  0  0
    8.2723    2.8969   -1.2475 H   0  0  0  0  0  0  0  0  0  0  0  0
    6.9428   -1.2929   -0.9312 H   0  0  0  0  0  0  0  0  0  0  0  0
    4.4717   -1.5937   -1.1646 H   0  0  0  0  0  0  0  0  0  0  0  0
    0.4978   -1.2738   -1.3424 H   0  0  0  0  0  0  0  0  0  0  0  0
    0.0110    0.3458   -0.8126 H   0  0  0  0  0  0  0  0  0  0  0  0
   -3.4145   -1.6475   -1.0506 H   0  0  0  0  0  0  0  0  0  0  0  0
   -6.0576   -2.9818   -0.5509 H   0  0  0  0  0  0  0  0  0  0  0  0
   -5.3664   -2.6001   -2.1289 H   0  0  0  0  0  0  0  0  0  0  0  0
   -6.8464   -1.1145    0.9638 H   0  0  0  0  0  0  0  0  0  0  0  0
   -7.9385    1.0926    1.0389 H   0  0  0  0  0  0  0  0  0  0  0  0
   -6.6585    1.8564   -3.0126 H   0  0  0  0  0  0  0  0  0  0  0  0
   -5.5716   -0.3496   -3.0842 H   0  0  0  0  0  0  0  0  0  0  0  0
   -2.7407   -2.7288    3.2319 H   0  0  0  0  0  0  0  0  0  0  0  0
   -0.4195   -2.1079    3.8740 H   0  0  0  0  0  0  0  0  0  0  0  0
    1.4644    0.0263    2.6243 H   0  0  0  0  0  0  0  0  0  0  0  0
    1.8968   -1.6461    3.0264 H   0  0  0  0  0  0  0  0  0  0  0  0
    2.5463   -2.1094    0.6916 H   0  0  0  0  0  0  0  0  0  0  0  0
    3.3959   -0.6820    1.3058 H   0  0  0  0  0  0  0  0  0  0  0  0
  1  2  2  0
  2  3  1  0
  3  4  2  0
  4  5  1  0
  5  6  2  0
  6  7  1  0
  7  8  1  0
  8  9  1  0
  9 10  1  0
  9 11  1  0
  9 12  1  0
  6 13  1  0
 13 14  2  0
  2 15  1  0
 15 16  1  0
 16 17  1  0
 17 18  2  0
 18 19  1  0
 19 20  1  0
 20 21  2  0
 20 22  1  0
 22 23  1  0
 23 24  1  0
 24 25  2  0
 25 26  1  0
 26 27  2  0
 27 28  1  0
 28 29  1  0
 28 30  1  0
 28 31  1  0
 27 32  1  0
 32 33  2  0
 19 34  2  0
 34 35  1  0
 35 36  2  0
 36 37  1  0
 37 38  1  0
 38 15  1  0
 36 17  1  0
 14  3  1  0
 33 24  1  0
  4 39  1  0
  8 40  1  0
  8 41  1  0
 13 42  1  0
 14 43  1  0
 16 44  1  0
 16 45  1  0
 22 46  1  0
 23 47  1  0
 23 48  1  0
 25 49  1  0
 26 50  1  0
 32 51  1  0
 33 52  1  0
 34 53  1  0
 35 54  1  0
 37 55  1  0
 37 56  1  0
 38 57  1  0
 38 58  1  0
M  END
>  <type>  (23) 
designed

$$$$
A09
     RDKit          3D

 58 61  0  0  0  0  0  0  0  0999 V2000
    1.8327    0.7371   -2.2649 O   0  0  0  0  0  0  0  0  0  0  0  0
    2.3368    0.0218   -1.4041 C   0  0  0  0  0  0  0  0  0  0  0  0
    3.7909   -0.1757   -1.4648 C   0  0  0  0  0  0  0  0  0  0  0  0
    4.6173    0.3434   -0.4784 C   0  0  0  0  0  0  0  0  0  0  0  0
    5.9652    0.2049   -0.4806 N   0  0  0  0  0  0  0  0  0  0  0  0
    6.5015   -0.4451   -1.5379 C   0  0  0  0  0  0  0  0  0  0  0  0
    7.8674   -0.6143   -1.6138 O   0  0  0  0  0  0  0  0  0  0  0  0
    8.5686   -0.0135   -0.5144 C   0  0  0  0  0  0  0  0  0  0  0  0
   10.0650   -0.2085   -0.6764 C   0  0  0  0  0  0  0  0  0  0  0  0
   10.3982   -1.5179   -0.7241 F   0  0  0  0  0  0  0  0  0  0  0  0
   10.5293    0.3804   -1.8008 F   0  0  0  0  0  0  0  0  0  0  0  0
   10.7313    0.3381    0.3692 F   0  0  0  0  0  0  0  0  0  0  0  0
    5.7555   -0.9693   -2.5854 C   0  0  0  0  0  0  0  0  0  0  0  0
    4.3702   -0.8267   -2.5509 C   0  0  0  0  0  0  0  0  0  0  0  0
    1.6037   -0.5964   -0.3939 N   0  0  0  0  0  0  0  0  0  0  0  0
    0.2212   -0.1360   -0.2298 C   0  0  0  0  0  0  0  0  0  0  0  0
   -0.6325   -0.9174    0.7480 C   0  0  0  0  0  0  0  0  0  0  0  0
   -1.8773   -0.4326    0.9890 N   0  0  0  0  0  0  0  0  0  0  0  0
   -2.6590   -1.1287    1.8644 C   0  0  0  0  0  0  0  0  0  0  0  0
   -4.0303   -0.5739    2.1083 C   0  0  0  0  0  0  0  0  0  0  0  0
   -4.8331   -1.1385    2.8419 O   0  0  0  0  0  0  0  0  0  0  0  0
   -4.2955    0.5961    1.4234 N   0  0  0  0  0  0  0  0  0  0  0  0
   -5.6171    1.1975    1.3822 C   0  0  0  0  0  0  0  0  0  0  0  0
   -5.4909    2.7053    1.0939 C   0  0  0  0  0  0  0  0  0  0  0  0
   -6.7237    3.2462    0.3815 C   0  0  0  0  0  0  0  0  0  0  0  0
   -6.9226    2.5606   -0.9638 C   0  0  0  0  0  0  0  0  0  0  0  0
   -8.2405    2.6207   -1.2851 F   0  0  0  0  0  0  0  0  0  0  0  0
   -6.2663    3.2572   -1.9273 F   0  0  0  0  0  0  0  0  0  0  0  0
   -6.4517    1.1114   -1.0084 C   0  0  0  0  0  0  0  0  0  0  0  0
   -6.5255    0.4668    0.3715 C   0  0  0  0  0  0  0  0  0  0  0  0
   -2.2595   -2.2914    2.5048 C   0  0  0  0  0  0  0  0  0  0  0  0
   -0.9820   -2.7728    2.2435 C   0  0  0  0  0  0  0  0  0  0  0  0
   -0.1465   -2.0756    1.3637 C   0  0  0  0  0  0  0  0  0  0  0  0
    1.2300   -2.5810    1.0389 C   0  0  0  0  0  0  0  0  0  0  0  0
    2.1669   -1.4331    0.6675 C   0  0  0  0  0  0  0  0  0  0  0  0
    4.2131    0.9004    0.3622 H   0  0  0  0  0  0  0  0  0  0  0  0
    8.3623    1.0637   -0.4776 H   0  0  0  0  0  0  0  0  0  0  0  0
    8.2565   -0.4821    0.4282 H   0  0  0  0  0  0  0  0  0  0  0  0
    6.2446   -1.4702   -3.4141 H   0  0  0  0  0  0  0  0  0  0  0  0
    3.7543   -1.2079   -3.3608 H   0  0  0  0  0  0  0  0  0  0  0  0
    0.2712    0.9068    0.1115 H   0  0  0  0  0  0  0  0  0  0  0  0
   -0.2696   -0.1450   -1.2110 H   0  0  0  0  0  0  0  0  0  0  0  0
   -3.5808    0.8656    0.7485 H   0  0  0  0  0  0  0  0  0  0  0  0
   -6.0616    1.0641    2.3770 H   0  0  0  0  0  0  0  0  0  0  0  0
   -5.3328    3.2439    2.0357 H   0  0  0  0  0  0  0  0  0  0  0  0
   -4.6076    2.9109    0.4747 H   0  0  0  0  0  0  0  0  0  0  0  0
   -6.6208    4.3265    0.2313 H   0  0  0  0  0  0  0  0  0  0  0  0
   -7.6070    3.0966    1.0125 H   0  0  0  0  0  0  0  0  0  0  0  0
   -7.0709    0.5452   -1.7137 H   0  0  0  0  0  0  0  0  0  0  0  0
   -5.4207    1.0642   -1.3806 H   0  0  0  0  0  0  0  0  0  0  0  0
   -7.5642    0.5134    0.7246 H   0  0  0  0  0  0  0  0  0  0  0  0
   -6.2682   -0.5965    0.3009 H   0  0  0  0  0  0  0  0  0  0  0  0
   -2.9269   -2.8103    3.1867 H   0  0  0  0  0  0  0  0  0  0  0  0
   -0.6443   -3.6872    2.7264 H   0  0  0  0  0  0  0  0  0  0  0  0
    1.6515   -3.1217    1.8942 H   0  0  0  0  0  0  0  0  0  0  0  0
    1.1491   -3.2847    0.2009 H   0  0  0  0  0  0  0  0  0  0  0  0
    3.1287   -1.8541    0.3601 H   0  0  0  0  0  0  0  0  0  0  0  0
    2.3464   -0.7806    1.5316 H   0  0  0  0  0  0  0  0  0  0  0  0
  1  2  2  0
  2  3  1  0
  3  4  2  0
  4  5  1  0
  5  6  2  0
  6  7  1  0
  7  8  1  0
  8  9  1  0
  9 10  1  0
  9 11  1  0
  9 12  1  0
  6 13  1  0
 13 14  2  0
  2 15  1  0
 15 16  1  0
 16 17  1  0
 17 18  2  0
 18 19  1  0
 19 20  1  0
 20 21  2  0
 20 22  1  0
 22 23  1  0
 23 24  1  0
 24 25  1  0
 25 26  1  0
 26 27  1  0
 26 28  1  0
 26 29  1  0
 29 30  1  0
 19 31  2  0
 31 32  1  0
 32 33  2  0
 33 34  1  0
 34 35  1  0
 35 15  1  0
 33 17  1  0
 14  3  1  0
 30 23  1  0
  4 36  1  0
  8 37  1  0
  8 38  1  0
 13 39  1  0
 14 40  1  0
 16 41  1  0
 16 42  1  0
 22 43  1  0
 23 44  1  0
 24 45  1  0
 24 46  1  0
 25 47  1  0
 25 48  1  0
 29 49  1  0
 29 50  1  0
 30 51  1  0
 30 52  1  0
 31 53  1  0
 32 54  1  0
 34 55  1  0
 34 56  1  0
 35 57  1  0
 35 58  1  0
M  END
>  <type>  (24) 
designed

$$$$
B01
     RDKit          3D

 60 65  0  0  0  0  0  0  0  0999 V2000
    3.4408    1.4937    1.3143 O   0  0  0  0  0  0  0  0  0  0  0  0
    3.9832    0.4704    0.8984 C   0  0  0  0  0  0  0  0  0  0  0  0
    5.4218    0.3895    0.7294 C   0  0  0  0  0  0  0  0  0  0  0  0
    6.3479   -0.5915    1.0424 C   0  0  0  0  0  0  0  0  0  0  0  0
    7.6229   -0.0961    0.6654 C   0  0  0  0  0  0  0  0  0  0  0  0
    8.9424   -0.5788    0.7054 C   0  0  0  0  0  0  0  0  0  0  0  0
    9.9731    0.2426    0.2251 C   0  0  0  0  0  0  0  0  0  0  0  0
    9.7029    1.5170   -0.2812 C   0  0  0  0  0  0  0  0  0  0  0  0
    8.3972    2.0151   -0.3254 C   0  0  0  0  0  0  0  0  0  0  0  0
    7.3960    1.1759    0.1571 C   0  0  0  0  0  0  0  0  0  0  0  0
    6.0705    1.4748    0.2029 O   0  0  0  0  0  0  0  0  0  0  0  0
    3.2280   -0.6763    0.6017 N   0  0  0  0  0  0  0  0  0  0  0  0
    1.7854   -0.6106    0.8353 C   0  0  0  0  0  0  0  0  0  0  0  0
    0.9848   -0.4395   -0.4448 C   0  0  0  0  0  0  0  0  0  0  0  0
   -0.3160   -0.0786   -0.3100 N   0  0  0  0  0  0  0  0  0  0  0  0
   -1.0463    0.0448   -1.4561 C   0  0  0  0  0  0  0  0  0  0  0  0
   -2.4790    0.4522   -1.2845 C   0  0  0  0  0  0  0  0  0  0  0  0
   -3.2433    0.5250   -2.2388 O   0  0  0  0  0  0  0  0  0  0  0  0
   -2.8305    0.7189    0.0203 N   0  0  0  0  0  0  0  0  0  0  0  0
   -4.1855    1.0082    0.4322 C   0  0  0  0  0  0  0  0  0  0  0  0
   -4.9920   -0.2200    0.8141 C   0  0  0  0  0  0  0  0  0  0  0  0
   -4.3128   -1.3648    1.2889 C   0  0  0  0  0  0  0  0  0  0  0  0
   -4.9837   -2.5571    1.5647 C   0  0  0  0  0  0  0  0  0  0  0  0
   -6.3556   -2.6369    1.3791 C   0  0  0  0  0  0  0  0  0  0  0  0
   -7.0607   -1.5168    0.9421 C   0  0  0  0  0  0  0  0  0  0  0  0
   -6.4004   -0.2970    0.6864 C   0  0  0  0  0  0  0  0  0  0  0  0
   -7.2159    0.8210    0.3294 N   0  0  0  0  0  0  0  0  0  0  0  0
   -8.4075    0.7617   -0.3731 C   0  0  0  0  0  0  0  0  0  0  0  0
   -8.9228    2.0320   -0.5070 C   0  0  0  0  0  0  0  0  0  0  0  0
   -8.0482    2.9072    0.1658 C   0  0  0  0  0  0  0  0  0  0  0  0
   -7.0252    2.1430    0.6837 C   0  0  0  0  0  0  0  0  0  0  0  0
   -0.5436   -0.1927   -2.7264 C   0  0  0  0  0  0  0  0  0  0  0  0
    0.7868   -0.5788   -2.8422 C   0  0  0  0  0  0  0  0  0  0  0  0
    1.5683   -0.7213   -1.6912 C   0  0  0  0  0  0  0  0  0  0  0  0
    3.0238   -1.1065   -1.8036 C   0  0  0  0  0  0  0  0  0  0  0  0
    3.5948   -1.6021   -0.4699 C   0  0  0  0  0  0  0  0  0  0  0  0
    6.1269   -1.5453    1.4997 H   0  0  0  0  0  0  0  0  0  0  0  0
    9.1656   -1.5651    1.1005 H   0  0  0  0  0  0  0  0  0  0  0  0
   10.9992   -0.1173    0.2511 H   0  0  0  0  0  0  0  0  0  0  0  0
   10.5211    2.1353   -0.6448 H   0  0  0  0  0  0  0  0  0  0  0  0
    8.1692    3.0020   -0.7092 H   0  0  0  0  0  0  0  0  0  0  0  0
    1.5292    0.1834    1.5441 H   0  0  0  0  0  0  0  0  0  0  0  0
    1.4933   -1.5647    1.2904 H   0  0  0  0  0  0  0  0  0  0  0  0
   -2.1010    0.5949    0.7155 H   0  0  0  0  0  0  0  0  0  0  0  0
   -4.1078    1.6702    1.3006 H   0  0  0  0  0  0  0  0  0  0  0  0
   -4.6628    1.5412   -0.3959 H   0  0  0  0  0  0  0  0  0  0  0  0
   -3.2337   -1.3493    1.4268 H   0  0  0  0  0  0  0  0  0  0  0  0
   -4.4293   -3.4238    1.9144 H   0  0  0  0  0  0  0  0  0  0  0  0
   -6.8823   -3.5639    1.5898 H   0  0  0  0  0  0  0  0  0  0  0  0
   -8.1417   -1.6038    0.8590 H   0  0  0  0  0  0  0  0  0  0  0  0
   -8.7733   -0.1752   -0.7694 H   0  0  0  0  0  0  0  0  0  0  0  0
   -9.8329    2.2926   -1.0319 H   0  0  0  0  0  0  0  0  0  0  0  0
   -8.1575    3.9779    0.2816 H   0  0  0  0  0  0  0  0  0  0  0  0
   -6.2050    2.4445    1.3167 H   0  0  0  0  0  0  0  0  0  0  0  0
   -1.1723   -0.0770   -3.6034 H   0  0  0  0  0  0  0  0  0  0  0  0
    1.2079   -0.7636   -3.8276 H   0  0  0  0  0  0  0  0  0  0  0  0
    3.5823   -0.2226   -2.1362 H   0  0  0  0  0  0  0  0  0  0  0  0
    3.1500   -1.8906   -2.5591 H   0  0  0  0  0  0  0  0  0  0  0  0
    4.6743   -1.7230   -0.5660 H   0  0  0  0  0  0  0  0  0  0  0  0
    3.1789   -2.5845   -0.2135 H   0  0  0  0  0  0  0  0  0  0  0  0
  1  2  2  0
  2  3  1  0
  3  4  2  0
  4  5  1  0
  5  6  2  0
  6  7  1  0
  7  8  2  0
  8  9  1  0
  9 10  2  0
 10 11  1  0
  2 12  1  0
 12 13  1  0
 13 14  1  0
 14 15  2  0
 15 16  1  0
 16 17  1  0
 17 18  2  0
 17 19  1  0
 19 20  1  0
 20 21  1  0
 21 22  2  0
 22 23  1  0
 23 24  2  0
 24 25  1  0
 25 26  2  0
 26 27  1  0
 27 28  1  0
 28 29  2  0
 29 30  1  0
 30 31  2  0
 16 32  2  0
 32 33  1  0
 33 34  2  0
 34 35  1  0
 35 36  1  0
 36 12  1  0
 34 14  1  0
 11  3  1  0
 10  5  1  0
 26 21  1  0
 31 27  1  0
  4 37  1  0
  6 38  1  0
  7 39  1  0
  8 40  1  0
  9 41  1  0
 13 42  1  0
 13 43  1  0
 19 44  1  0
 20 45  1  0
 20 46  1  0
 22 47  1  0
 23 48  1  0
 24 49  1  0
 25 50  1  0
 28 51  1  0
 29 52  1  0
 30 53  1  0
 31 54  1  0
 32 55  1  0
 33 56  1  0
 35 57  1  0
 35 58  1  0
 36 59  1  0
 36 60  1  0
M  END
>  <type>  (25) 
designed

$$$$
B02
     RDKit          3D

 66 71  0  0  0  0  0  0  0  0999 V2000
    3.2642   -0.0083    2.5582 O   0  0  0  0  0  0  0  0  0  0  0  0
    4.0912   -0.2062    1.6647 C   0  0  0  0  0  0  0  0  0  0  0  0
    5.4933   -0.4030    1.9926 C   0  0  0  0  0  0  0  0  0  0  0  0
    6.0704   -0.8410    3.1732 C   0  0  0  0  0  0  0  0  0  0  0  0
    7.4760   -0.7979    2.9946 C   0  0  0  0  0  0  0  0  0  0  0  0
    8.6005   -1.1131    3.7773 C   0  0  0  0  0  0  0  0  0  0  0  0
    9.8764   -0.9145    3.2296 C   0  0  0  0  0  0  0  0  0  0  0  0
   10.0355   -0.4128    1.9347 C   0  0  0  0  0  0  0  0  0  0  0  0
    8.9285   -0.0932    1.1417 C   0  0  0  0  0  0  0  0  0  0  0  0
    7.6755   -0.3031    1.7128 C   0  0  0  0  0  0  0  0  0  0  0  0
    6.4817   -0.0520    1.1104 O   0  0  0  0  0  0  0  0  0  0  0  0
    3.6703   -0.2457    0.3269 N   0  0  0  0  0  0  0  0  0  0  0  0
    2.3586    0.3479    0.0583 C   0  0  0  0  0  0  0  0  0  0  0  0
    1.8675    0.2878   -1.3726 C   0  0  0  0  0  0  0  0  0  0  0  0
    0.7463    0.9951   -1.6633 N   0  0  0  0  0  0  0  0  0  0  0  0
    0.2703    0.9130   -2.9391 C   0  0  0  0  0  0  0  0  0  0  0  0
   -0.9770    1.6932   -3.2315 C   0  0  0  0  0  0  0  0  0  0  0  0
   -1.5177    1.6504   -4.3309 O   0  0  0  0  0  0  0  0  0  0  0  0
   -1.4407    2.4290   -2.1637 N   0  0  0  0  0  0  0  0  0  0  0  0
   -2.7230    3.0851   -2.1649 C   0  0  0  0  0  0  0  0  0  0  0  0
   -3.7505    2.2454   -1.4540 C   0  0  0  0  0  0  0  0  0  0  0  0
   -4.4414    1.2399   -2.1363 C   0  0  0  0  0  0  0  0  0  0  0  0
   -5.3797    0.4384   -1.4724 C   0  0  0  0  0  0  0  0  0  0  0  0
   -5.6455    0.5979   -0.1053 C   0  0  0  0  0  0  0  0  0  0  0  0
   -6.5813   -0.1762    0.5993 N   0  0  0  0  0  0  0  0  0  0  0  0
   -7.5528   -0.9699   -0.1790 C   0  0  0  0  0  0  0  0  0  0  0  0
   -8.6361   -1.5663    0.7495 C   0  0  0  0  0  0  0  0  0  0  0  0
   -8.0815   -2.3810    1.8518 N   0  0  0  0  0  0  0  0  0  0  0  0
   -7.1329   -1.5406    2.6128 C   0  0  0  0  0  0  0  0  0  0  0  0
   -6.0104   -0.9178    1.7486 C   0  0  0  0  0  0  0  0  0  0  0  0
   -4.9445    1.6163    0.5622 C   0  0  0  0  0  0  0  0  0  0  0  0
   -4.0073    2.4237   -0.0933 C   0  0  0  0  0  0  0  0  0  0  0  0
    0.8614    0.1552   -3.9381 C   0  0  0  0  0  0  0  0  0  0  0  0
    2.0115   -0.5582   -3.6217 C   0  0  0  0  0  0  0  0  0  0  0  0
    2.5331   -0.4864   -2.3264 C   0  0  0  0  0  0  0  0  0  0  0  0
    3.7536   -1.2650   -1.9351 C   0  0  0  0  0  0  0  0  0  0  0  0
    4.5244   -0.5641   -0.8165 C   0  0  0  0  0  0  0  0  0  0  0  0
    5.5268   -1.1491    4.0556 H   0  0  0  0  0  0  0  0  0  0  0  0
    8.4889   -1.5006    4.7861 H   0  0  0  0  0  0  0  0  0  0  0  0
   10.7556   -1.1523    3.8248 H   0  0  0  0  0  0  0  0  0  0  0  0
   11.0378   -0.2643    1.5370 H   0  0  0  0  0  0  0  0  0  0  0  0
    9.0350    0.3016    0.1387 H   0  0  0  0  0  0  0  0  0  0  0  0
    2.4112    1.4006    0.3639 H   0  0  0  0  0  0  0  0  0  0  0  0
    1.6183   -0.1491    0.6977 H   0  0  0  0  0  0  0  0  0  0  0  0
   -0.9644    2.2714   -1.2804 H   0  0  0  0  0  0  0  0  0  0  0  0
   -3.0475    3.2967   -3.1901 H   0  0  0  0  0  0  0  0  0  0  0  0
   -2.5990    4.0482   -1.6575 H   0  0  0  0  0  0  0  0  0  0  0  0
   -4.2473    1.0684   -3.1940 H   0  0  0  0  0  0  0  0  0  0  0  0
   -5.8797   -0.3279   -2.0562 H   0  0  0  0  0  0  0  0  0  0  0  0
   -7.0429   -1.7892   -0.7021 H   0  0  0  0  0  0  0  0  0  0  0  0
   -8.0526   -0.3382   -0.9240 H   0  0  0  0  0  0  0  0  0  0  0  0
   -9.3087   -2.1964    0.1579 H   0  0  0  0  0  0  0  0  0  0  0  0
   -9.2482   -0.7601    1.1729 H   0  0  0  0  0  0  0  0  0  0  0  0
   -7.5562   -3.1527    1.4398 H   0  0  0  0  0  0  0  0  0  0  0  0
   -7.6914   -0.7424    3.1182 H   0  0  0  0  0  0  0  0  0  0  0  0
   -6.6807   -2.1535    3.4008 H   0  0  0  0  0  0  0  0  0  0  0  0
   -5.3500   -1.7135    1.3784 H   0  0  0  0  0  0  0  0  0  0  0  0
   -5.4158   -0.2682    2.4000 H   0  0  0  0  0  0  0  0  0  0  0  0
   -5.1457    1.8119    1.6126 H   0  0  0  0  0  0  0  0  0  0  0  0
   -3.4883    3.1952    0.4702 H   0  0  0  0  0  0  0  0  0  0  0  0
    0.4348    0.1184   -4.9354 H   0  0  0  0  0  0  0  0  0  0  0  0
    2.4929   -1.1666   -4.3839 H   0  0  0  0  0  0  0  0  0  0  0  0
    4.4180   -1.3947   -2.7971 H   0  0  0  0  0  0  0  0  0  0  0  0
    3.4348   -2.2604   -1.6020 H   0  0  0  0  0  0  0  0  0  0  0  0
    5.3383   -1.2288   -0.5143 H   0  0  0  0  0  0  0  0  0  0  0  0
    4.9579    0.3787   -1.1727 H   0  0  0  0  0  0  0  0  0  0  0  0
  1  2  2  0
  2  3  1  0
  3  4  2  0
  4  5  1  0
  5  6  2  0
  6  7  1  0
  7  8  2  0
  8  9  1  0
  9 10  2  0
 10 11  1  0
  2 12  1  0
 12 13  1  0
 13 14  1  0
 14 15  2  0
 15 16  1  0
 16 17  1  0
 17 18  2  0
 17 19  1  0
 19 20  1  0
 20 21  1  0
 21 22  2  0
 22 23  1  0
 23 24  2  0
 24 25  1  0
 25 26  1  0
 26 27  1  0
 27 28  1  0
 28 29  1  0
 29 30  1  0
 24 31  1  0
 31 32  2  0
 16 33  2  0
 33 34  1  0
 34 35  2  0
 35 36  1  0
 36 37  1  0
 37 12  1  0
 35 14  1  0
 11  3  1  0
 10  5  1  0
 32 21  1  0
 30 25  1  0
  4 38  1  0
  6 39  1  0
  7 40  1  0
  8 41  1  0
  9 42  1  0
 13 43  1  0
 13 44  1  0
 19 45  1  0
 20 46  1  0
 20 47  1  0
 22 48  1  0
 23 49  1  0
 26 50  1  0
 26 51  1  0
 27 52  1  0
 27 53  1  0
 28 54  1  0
 29 55  1  0
 29 56  1  0
 30 57  1  0
 30 58  1  0
 31 59  1  0
 32 60  1  0
 33 61  1  0
 34 62  1  0
 36 63  1  0
 36 64  1  0
 37 65  1  0
 37 66  1  0
M  END
>  <type>  (26) 
designed

$$$$
B03
     RDKit          3D

 65 70  0  0  0  0  0  0  0  0999 V2000
    4.8911   -1.6067   -1.6556 O   0  0  0  0  0  0  0  0  0  0  0  0
    5.0926   -0.9640   -0.6234 C   0  0  0  0  0  0  0  0  0  0  0  0
    6.3111   -1.1395    0.1406 C   0  0  0  0  0  0  0  0  0  0  0  0
    6.5533   -1.4527    1.4675 C   0  0  0  0  0  0  0  0  0  0  0  0
    7.9622   -1.5248    1.6280 C   0  0  0  0  0  0  0  0  0  0  0  0
    8.8431   -1.7943    2.6904 C   0  0  0  0  0  0  0  0  0  0  0  0
   10.2221   -1.7899    2.4372 C   0  0  0  0  0  0  0  0  0  0  0  0
   10.7180   -1.5274    1.1578 C   0  0  0  0  0  0  0  0  0  0  0  0
    9.8578   -1.2581    0.0886 C   0  0  0  0  0  0  0  0  0  0  0  0
    8.4959   -1.2680    0.3721 C   0  0  0  0  0  0  0  0  0  0  0  0
    7.5035   -1.0391   -0.5276 O   0  0  0  0  0  0  0  0  0  0  0  0
    4.1354   -0.0492   -0.1629 N   0  0  0  0  0  0  0  0  0  0  0  0
    2.8322   -0.0664   -0.8335 C   0  0  0  0  0  0  0  0  0  0  0  0
    1.9804    1.1727   -0.6453 C   0  0  0  0  0  0  0  0  0  0  0  0
    0.7708    1.1732   -1.2603 N   0  0  0  0  0  0  0  0  0  0  0  0
    0.0087    2.2997   -1.1379 C   0  0  0  0  0  0  0  0  0  0  0  0
   -1.3033    2.2961   -1.8636 C   0  0  0  0  0  0  0  0  0  0  0  0
   -2.0183    3.2914   -1.8994 O   0  0  0  0  0  0  0  0  0  0  0  0
   -1.6130    1.0946   -2.4617 N   0  0  0  0  0  0  0  0  0  0  0  0
   -2.8702    0.8567   -3.1212 C   0  0  0  0  0  0  0  0  0  0  0  0
   -3.9358    0.3900   -2.1652 C   0  0  0  0  0  0  0  0  0  0  0  0
   -3.8667   -0.8637   -1.5549 C   0  0  0  0  0  0  0  0  0  0  0  0
   -4.8824   -1.2906   -0.6862 C   0  0  0  0  0  0  0  0  0  0  0  0
   -6.0096   -0.5010   -0.4016 C   0  0  0  0  0  0  0  0  0  0  0  0
   -7.0191   -0.9487    0.4376 N   0  0  0  0  0  0  0  0  0  0  0  0
   -8.0988   -0.0575    0.8982 C   0  0  0  0  0  0  0  0  0  0  0  0
   -8.8825   -0.7252    2.0410 C   0  0  0  0  0  0  0  0  0  0  0  0
   -9.4896   -1.9744    1.6814 O   0  0  0  0  0  0  0  0  0  0  0  0
   -8.7938   -2.6600    0.6333 C   0  0  0  0  0  0  0  0  0  0  0  0
   -7.2816   -2.3910    0.6092 C   0  0  0  0  0  0  0  0  0  0  0  0
   -6.0376    0.7691   -0.9985 C   0  0  0  0  0  0  0  0  0  0  0  0
   -5.0244    1.2105   -1.8627 C   0  0  0  0  0  0  0  0  0  0  0  0
    0.3892    3.4160   -0.4065 C   0  0  0  0  0  0  0  0  0  0  0  0
    1.6256    3.3896    0.2285 C   0  0  0  0  0  0  0  0  0  0  0  0
    2.4355    2.2543    0.1185 C   0  0  0  0  0  0  0  0  0  0  0  0
    3.7984    2.2191    0.7485 C   0  0  0  0  0  0  0  0  0  0  0  0
    4.2534    0.7882    1.0284 C   0  0  0  0  0  0  0  0  0  0  0  0
    5.7994   -1.6299    2.2228 H   0  0  0  0  0  0  0  0  0  0  0  0
    8.4697   -2.0080    3.6872 H   0  0  0  0  0  0  0  0  0  0  0  0
   10.9148   -2.0025    3.2488 H   0  0  0  0  0  0  0  0  0  0  0  0
   11.7911   -1.5389    0.9846 H   0  0  0  0  0  0  0  0  0  0  0  0
   10.2236   -1.0619   -0.9112 H   0  0  0  0  0  0  0  0  0  0  0  0
    2.9752   -0.2225   -1.9103 H   0  0  0  0  0  0  0  0  0  0  0  0
    2.2822   -0.9314   -0.4394 H   0  0  0  0  0  0  0  0  0  0  0  0
   -1.0044    0.3163   -2.2407 H   0  0  0  0  0  0  0  0  0  0  0  0
   -3.1838    1.7724   -3.6353 H   0  0  0  0  0  0  0  0  0  0  0  0
   -2.7042    0.0935   -3.8888 H   0  0  0  0  0  0  0  0  0  0  0  0
   -3.0216   -1.5214   -1.7442 H   0  0  0  0  0  0  0  0  0  0  0  0
   -4.7598   -2.2625   -0.2163 H   0  0  0  0  0  0  0  0  0  0  0  0
   -7.6915    0.8866    1.2756 H   0  0  0  0  0  0  0  0  0  0  0  0
   -8.7779    0.1529    0.0631 H   0  0  0  0  0  0  0  0  0  0  0  0
   -9.6822   -0.0642    2.3863 H   0  0  0  0  0  0  0  0  0  0  0  0
   -8.2227   -0.9152    2.8961 H   0  0  0  0  0  0  0  0  0  0  0  0
   -8.9827   -3.7309    0.7589 H   0  0  0  0  0  0  0  0  0  0  0  0
   -9.2473   -2.3601   -0.3193 H   0  0  0  0  0  0  0  0  0  0  0  0
   -6.8568   -2.9885   -0.2049 H   0  0  0  0  0  0  0  0  0  0  0  0
   -6.8290   -2.7145    1.5539 H   0  0  0  0  0  0  0  0  0  0  0  0
   -6.8646    1.4491   -0.8198 H   0  0  0  0  0  0  0  0  0  0  0  0
   -5.0963    2.2066   -2.2982 H   0  0  0  0  0  0  0  0  0  0  0  0
   -0.2581    4.2855   -0.3395 H   0  0  0  0  0  0  0  0  0  0  0  0
    1.9534    4.2561    0.7980 H   0  0  0  0  0  0  0  0  0  0  0  0
    3.7985    2.7806    1.6897 H   0  0  0  0  0  0  0  0  0  0  0  0
    4.5054    2.7054    0.0642 H   0  0  0  0  0  0  0  0  0  0  0  0
    5.2818    0.8272    1.3919 H   0  0  0  0  0  0  0  0  0  0  0  0
    3.6342    0.3285    1.8079 H   0  0  0  0  0  0  0  0  0  0  0  0
  1  2  2  0
  2  3  1  0
  3  4  2  0
  4  5  1  0
  5  6  2  0
  6  7  1  0
  7  8  2  0
  8  9  1  0
  9 10  2  0
 10 11  1  0
  2 12  1  0
 12 13  1  0
 13 14  1  0
 14 15  2  0
 15 16  1  0
 16 17  1  0
 17 18  2  0
 17 19  1  0
 19 20  1  0
 20 21  1  0
 21 22  2  0
 22 23  1  0
 23 24  2  0
 24 25  1  0
 25 26  1  0
 26 27  1  0
 27 28  1  0
 28 29  1  0
 29 30  1  0
 24 31  1  0
 31 32  2  0
 16 33  2  0
 33 34  1  0
 34 35  2  0
 35 36  1  0
 36 37  1  0
 37 12  1  0
 35 14  1  0
 11  3  1  0
 10  5  1  0
 32 21  1  0
 30 25  1  0
  4 38  1  0
  6 39  1  0
  7 40  1  0
  8 41  1  0
  9 42  1  0
 13 43  1  0
 13 44  1  0
 19 45  1  0
 20 46  1  0
 20 47  1  0
 22 48  1  0
 23 49  1  0
 26 50  1  0
 26 51  1  0
 27 52  1  0
 27 53  1  0
 29 54  1  0
 29 55  1  0
 30 56  1  0
 30 57  1  0
 31 58  1  0
 32 59  1  0
 33 60  1  0
 34 61  1  0
 36 62  1  0
 36 63  1  0
 37 64  1  0
 37 65  1  0
M  END
>  <type>  (27) 
designed

$$$$
B04
     RDKit          3D

 50 54  0  0  0  0  0  0  0  0999 V2000
   -1.4526    1.3581    1.2951 O   0  0  0  0  0  0  0  0  0  0  0  0
   -2.1894    0.3975    1.0763 C   0  0  0  0  0  0  0  0  0  0  0  0
   -3.6000    0.5745    0.7862 C   0  0  0  0  0  0  0  0  0  0  0  0
   -4.7359   -0.0947    1.2110 C   0  0  0  0  0  0  0  0  0  0  0  0
   -5.8483    0.5499    0.6109 C   0  0  0  0  0  0  0  0  0  0  0  0
   -7.2428    0.3716    0.6237 C   0  0  0  0  0  0  0  0  0  0  0  0
   -8.0396    1.2527   -0.1224 C   0  0  0  0  0  0  0  0  0  0  0  0
   -7.4675    2.2907   -0.8631 C   0  0  0  0  0  0  0  0  0  0  0  0
   -6.0826    2.4855   -0.8848 C   0  0  0  0  0  0  0  0  0  0  0  0
   -5.3188    1.5940   -0.1358 C   0  0  0  0  0  0  0  0  0  0  0  0
   -3.9640    1.6165   -0.0249 O   0  0  0  0  0  0  0  0  0  0  0  0
   -1.6969   -0.9169    1.1331 N   0  0  0  0  0  0  0  0  0  0  0  0
   -0.2920   -1.0935    1.5026 C   0  0  0  0  0  0  0  0  0  0  0  0
    0.5983   -1.4141    0.3136 C   0  0  0  0  0  0  0  0  0  0  0  0
    1.9370   -1.3065    0.5042 N   0  0  0  0  0  0  0  0  0  0  0  0
    2.7409   -1.6229   -0.5498 C   0  0  0  0  0  0  0  0  0  0  0  0
    4.2154   -1.4741   -0.3241 C   0  0  0  0  0  0  0  0  0  0  0  0
    5.0343   -1.7212   -1.2024 O   0  0  0  0  0  0  0  0  0  0  0  0
    4.5569   -1.0238    0.9315 N   0  0  0  0  0  0  0  0  0  0  0  0
    5.9063   -0.6376    1.2730 C   0  0  0  0  0  0  0  0  0  0  0  0
    6.1680    0.8162    0.9814 C   0  0  0  0  0  0  0  0  0  0  0  0
    6.5744    1.2232   -0.2866 C   0  0  0  0  0  0  0  0  0  0  0  0
    6.8027    2.5208   -0.6054 N   0  0  0  0  0  0  0  0  0  0  0  0
    6.5892    3.4046    0.3936 C   0  0  0  0  0  0  0  0  0  0  0  0
    6.1731    3.0131    1.6542 C   0  0  0  0  0  0  0  0  0  0  0  0
    5.9543    1.7181    1.9781 N   0  0  0  0  0  0  0  0  0  0  0  0
    2.2718   -2.0563   -1.7808 C   0  0  0  0  0  0  0  0  0  0  0  0
    0.8975   -2.1782   -1.9514 C   0  0  0  0  0  0  0  0  0  0  0  0
    0.0388   -1.8690   -0.8918 C   0  0  0  0  0  0  0  0  0  0  0  0
   -1.4570   -1.9604   -1.0734 C   0  0  0  0  0  0  0  0  0  0  0  0
   -2.2020   -1.9817    0.2665 C   0  0  0  0  0  0  0  0  0  0  0  0
   -4.7560   -0.9395    1.8847 H   0  0  0  0  0  0  0  0  0  0  0  0
   -7.6995   -0.4279    1.1991 H   0  0  0  0  0  0  0  0  0  0  0  0
   -9.1206    1.1275   -0.1209 H   0  0  0  0  0  0  0  0  0  0  0  0
   -8.1088    2.9624   -1.4305 H   0  0  0  0  0  0  0  0  0  0  0  0
   -5.6214    3.2874   -1.4486 H   0  0  0  0  0  0  0  0  0  0  0  0
   -0.2500   -1.9442    2.1936 H   0  0  0  0  0  0  0  0  0  0  0  0
    0.0962   -0.2188    2.0343 H   0  0  0  0  0  0  0  0  0  0  0  0
    3.7899   -0.7022    1.5170 H   0  0  0  0  0  0  0  0  0  0  0  0
    6.6259   -1.2697    0.7407 H   0  0  0  0  0  0  0  0  0  0  0  0
    6.0318   -0.8243    2.3451 H   0  0  0  0  0  0  0  0  0  0  0  0
    6.7229    0.5094   -1.0915 H   0  0  0  0  0  0  0  0  0  0  0  0
    6.7606    4.4470    0.1514 H   0  0  0  0  0  0  0  0  0  0  0  0
    6.0024    3.7362    2.4434 H   0  0  0  0  0  0  0  0  0  0  0  0
    2.9587   -2.2882   -2.5883 H   0  0  0  0  0  0  0  0  0  0  0  0
    0.5026   -2.5078   -2.9096 H   0  0  0  0  0  0  0  0  0  0  0  0
   -1.7147   -2.8629   -1.6394 H   0  0  0  0  0  0  0  0  0  0  0  0
   -1.7796   -1.0901   -1.6585 H   0  0  0  0  0  0  0  0  0  0  0  0
   -2.0369   -2.9345    0.7847 H   0  0  0  0  0  0  0  0  0  0  0  0
   -3.2730   -1.8959    0.0803 H   0  0  0  0  0  0  0  0  0  0  0  0
  1  2  2  0
  2  3  1  0
  3  4  2  0
  4  5  1  0
  5  6  2  0
  6  7  1  0
  7  8  2  0
  8  9  1  0
  9 10  2  0
 10 11  1  0
  2 12  1  0
 12 13  1  0
 13 14  1  0
 14 15  2  0
 15 16  1  0
 16 17  1  0
 17 18  2  0
 17 19  1  0
 19 20  1  0
 20 21  1  0
 21 22  2  0
 22 23  1  0
 23 24  2  0
 24 25  1  0
 25 26  2  0
 16 27  2  0
 27 28  1  0
 28 29  2  0
 29 30  1  0
 30 31  1  0
 31 12  1  0
 29 14  1  0
 11  3  1  0
 10  5  1  0
 26 21  1  0
  4 32  1  0
  6 33  1  0
  7 34  1  0
  8 35  1  0
  9 36  1  0
 13 37  1  0
 13 38  1  0
 19 39  1  0
 20 40  1  0
 20 41  1  0
 22 42  1  0
 24 43  1  0
 25 44  1  0
 27 45  1  0
 28 46  1  0
 30 47  1  0
 30 48  1  0
 31 49  1  0
 31 50  1  0
M  END
>  <type>  (28) 
designed

$$$$
B05
     RDKit          3D

 55 59  0  0  0  0  0  0  0  0999 V2000
    2.6638   -2.3721    0.6328 O   0  0  0  0  0  0  0  0  0  0  0  0
    3.1670   -1.3800    0.1015 C   0  0  0  0  0  0  0  0  0  0  0  0
    4.6005   -1.1571    0.1478 C   0  0  0  0  0  0  0  0  0  0  0  0
    5.6365   -2.0599    0.3185 C   0  0  0  0  0  0  0  0  0  0  0  0
    6.8413   -1.3129    0.3435 C   0  0  0  0  0  0  0  0  0  0  0  0
    8.2088   -1.6134    0.4677 C   0  0  0  0  0  0  0  0  0  0  0  0
    9.1319   -0.5577    0.4611 C   0  0  0  0  0  0  0  0  0  0  0  0
    8.7090    0.7691    0.3366 C   0  0  0  0  0  0  0  0  0  0  0  0
    7.3524    1.0874    0.2099 C   0  0  0  0  0  0  0  0  0  0  0  0
    6.4611    0.0171    0.2171 C   0  0  0  0  0  0  0  0  0  0  0  0
    5.1083    0.1160    0.1070 O   0  0  0  0  0  0  0  0  0  0  0  0
    2.3568   -0.4350   -0.5394 N   0  0  0  0  0  0  0  0  0  0  0  0
    0.9136   -0.6352   -0.4338 C   0  0  0  0  0  0  0  0  0  0  0  0
    0.0823    0.5606   -0.8565 C   0  0  0  0  0  0  0  0  0  0  0  0
   -1.2545    0.4795   -0.6344 N   0  0  0  0  0  0  0  0  0  0  0  0
   -2.0162    1.5391   -1.0308 C   0  0  0  0  0  0  0  0  0  0  0  0
   -3.4911    1.4198   -0.7854 C   0  0  0  0  0  0  0  0  0  0  0  0
   -4.2717    2.3071   -1.1098 O   0  0  0  0  0  0  0  0  0  0  0  0
   -3.8673    0.2461   -0.1645 N   0  0  0  0  0  0  0  0  0  0  0  0
   -5.2293   -0.0250    0.2531 C   0  0  0  0  0  0  0  0  0  0  0  0
   -5.4366   -1.5375    0.4471 C   0  0  0  0  0  0  0  0  0  0  0  0
   -6.5972   -1.8891    1.3826 C   0  0  0  0  0  0  0  0  0  0  0  0
   -7.6274   -0.7782    1.4520 C   0  0  0  0  0  0  0  0  0  0  0  0
   -8.6564   -1.1505    2.2513 F   0  0  0  0  0  0  0  0  0  0  0  0
   -8.1527   -0.5935    0.2118 F   0  0  0  0  0  0  0  0  0  0  0  0
   -7.0427    0.5346    1.9538 C   0  0  0  0  0  0  0  0  0  0  0  0
   -5.5866    0.7490    1.5277 C   0  0  0  0  0  0  0  0  0  0  0  0
   -1.5051    2.6809   -1.6279 C   0  0  0  0  0  0  0  0  0  0  0  0
   -0.1343    2.7453   -1.8488 C   0  0  0  0  0  0  0  0  0  0  0  0
    0.6772    1.6686   -1.4776 C   0  0  0  0  0  0  0  0  0  0  0  0
    2.1674    1.7263   -1.6905 C   0  0  0  0  0  0  0  0  0  0  0  0
    2.7868    0.3307   -1.7085 C   0  0  0  0  0  0  0  0  0  0  0  0
    5.5215   -3.1314    0.4109 H   0  0  0  0  0  0  0  0  0  0  0  0
    8.5483   -2.6404    0.5714 H   0  0  0  0  0  0  0  0  0  0  0  0
   10.1938   -0.7759    0.5583 H   0  0  0  0  0  0  0  0  0  0  0  0
    9.4469    1.5693    0.3393 H   0  0  0  0  0  0  0  0  0  0  0  0
    7.0076    2.1102    0.1158 H   0  0  0  0  0  0  0  0  0  0  0  0
    0.6633   -0.8935    0.6022 H   0  0  0  0  0  0  0  0  0  0  0  0
    0.6495   -1.4879   -1.0714 H   0  0  0  0  0  0  0  0  0  0  0  0
   -3.0984   -0.3489    0.1390 H   0  0  0  0  0  0  0  0  0  0  0  0
   -5.8875    0.3233   -0.5551 H   0  0  0  0  0  0  0  0  0  0  0  0
   -5.6051   -1.9944   -0.5369 H   0  0  0  0  0  0  0  0  0  0  0  0
   -4.5264   -2.0103    0.8385 H   0  0  0  0  0  0  0  0  0  0  0  0
   -6.2141   -2.0860    2.3925 H   0  0  0  0  0  0  0  0  0  0  0  0
   -7.0669   -2.8220    1.0483 H   0  0  0  0  0  0  0  0  0  0  0  0
   -7.1082    0.5881    3.0473 H   0  0  0  0  0  0  0  0  0  0  0  0
   -7.6549    1.3589    1.5665 H   0  0  0  0  0  0  0  0  0  0  0  0
   -5.4017    1.8232    1.4051 H   0  0  0  0  0  0  0  0  0  0  0  0
   -4.9234    0.4241    2.3425 H   0  0  0  0  0  0  0  0  0  0  0  0
   -2.1574    3.5005   -1.9114 H   0  0  0  0  0  0  0  0  0  0  0  0
    0.2944    3.6313   -2.3111 H   0  0  0  0  0  0  0  0  0  0  0  0
    2.6075    2.3170   -0.8773 H   0  0  0  0  0  0  0  0  0  0  0  0
    2.3949    2.2289   -2.6377 H   0  0  0  0  0  0  0  0  0  0  0  0
    3.8710    0.4020   -1.7987 H   0  0  0  0  0  0  0  0  0  0  0  0
    2.4498   -0.2274   -2.5929 H   0  0  0  0  0  0  0  0  0  0  0  0
  1  2  2  0
  2  3  1  0
  3  4  2  0
  4  5  1  0
  5  6  2  0
  6  7  1  0
  7  8  2  0
  8  9  1  0
  9 10  2  0
 10 11  1  0
  2 12  1  0
 12 13  1  0
 13 14  1  0
 14 15  2  0
 15 16  1  0
 16 17  1  0
 17 18  2  0
 17 19  1  0
 19 20  1  0
 20 21  1  0
 21 22  1  0
 22 23  1  0
 23 24  1  0
 23 25  1  0
 23 26  1  0
 26 27  1  0
 16 28  2  0
 28 29  1  0
 29 30  2  0
 30 31  1  0
 31 32  1  0
 32 12  1  0
 30 14  1  0
 11  3  1  0
 27 20  1  0
 10  5  1  0
  4 33  1  0
  6 34  1  0
  7 35  1  0
  8 36  1  0
  9 37  1  0
 13 38  1  0
 13 39  1  0
 19 40  1  0
 20 41  1  0
 21 42  1  0
 21 43  1  0
 22 44  1  0
 22 45  1  0
 26 46  1  0
 26 47  1  0
 27 48  1  0
 27 49  1  0
 28 50  1  0
 29 51  1  0
 31 52  1  0
 31 53  1  0
 32 54  1  0
 32 55  1  0
M  END
>  <type>  (29) 
designed

$$$$
C01
     RDKit          3D

 60 65  0  0  0  0  0  0  0  0999 V2000
   -5.6319   -0.5515   -2.5041 O   0  0  0  0  0  0  0  0  0  0  0  0
   -4.8230    0.0935   -1.8351 C   0  0  0  0  0  0  0  0  0  0  0  0
   -4.9615    0.1909   -0.3901 C   0  0  0  0  0  0  0  0  0  0  0  0
   -5.2926   -0.8271    0.4809 C   0  0  0  0  0  0  0  0  0  0  0  0
   -5.4001   -0.3940    1.8442 C   0  0  0  0  0  0  0  0  0  0  0  0
   -5.6829   -1.1243    3.0242 C   0  0  0  0  0  0  0  0  0  0  0  0
   -5.7344   -0.4754    4.2618 C   0  0  0  0  0  0  0  0  0  0  0  0
   -5.5153    0.8923    4.3460 C   0  0  0  0  0  0  0  0  0  0  0  0
   -5.2435    1.6396    3.1976 C   0  0  0  0  0  0  0  0  0  0  0  0
   -5.1901    0.9817    1.9535 C   0  0  0  0  0  0  0  0  0  0  0  0
   -4.8928    1.6947    0.4153 S   0  0  0  0  0  0  0  0  0  0  0  0
   -3.7566    0.7440   -2.4586 N   0  0  0  0  0  0  0  0  0  0  0  0
   -2.4843    1.0418   -1.7980 C   0  0  0  0  0  0  0  0  0  0  0  0
   -1.2731    0.4710   -2.5208 C   0  0  0  0  0  0  0  0  0  0  0  0
   -0.0836    0.5719   -1.8754 N   0  0  0  0  0  0  0  0  0  0  0  0
    1.0152    0.0750   -2.5151 C   0  0  0  0  0  0  0  0  0  0  0  0
    2.3154    0.1875   -1.7763 C   0  0  0  0  0  0  0  0  0  0  0  0
    3.3613   -0.2349   -2.2510 O   0  0  0  0  0  0  0  0  0  0  0  0
    2.2058    0.7891   -0.5419 N   0  0  0  0  0  0  0  0  0  0  0  0
    3.3053    0.8852    0.3906 C   0  0  0  0  0  0  0  0  0  0  0  0
    3.4587   -0.3183    1.3029 C   0  0  0  0  0  0  0  0  0  0  0  0
    2.3350   -1.1332    1.5640 C   0  0  0  0  0  0  0  0  0  0  0  0
    2.4367   -2.3080    2.3094 C   0  0  0  0  0  0  0  0  0  0  0  0
    3.6660   -2.7002    2.8179 C   0  0  0  0  0  0  0  0  0  0  0  0
    4.7901   -1.9031    2.6053 C   0  0  0  0  0  0  0  0  0  0  0  0
    4.6952   -0.6989    1.8796 C   0  0  0  0  0  0  0  0  0  0  0  0
    5.8765    0.0965    1.7803 N   0  0  0  0  0  0  0  0  0  0  0  0
    5.9586    1.4753    1.8007 C   0  0  0  0  0  0  0  0  0  0  0  0
    7.2784    1.8555    1.6880 C   0  0  0  0  0  0  0  0  0  0  0  0
    8.0476    0.6766    1.6284 C   0  0  0  0  0  0  0  0  0  0  0  0
    7.1732   -0.3844    1.7151 C   0  0  0  0  0  0  0  0  0  0  0  0
    0.9807   -0.5179   -3.7673 C   0  0  0  0  0  0  0  0  0  0  0  0
   -0.2463   -0.6091   -4.4136 C   0  0  0  0  0  0  0  0  0  0  0  0
   -1.3933   -0.0994   -3.7969 C   0  0  0  0  0  0  0  0  0  0  0  0
   -2.7389   -0.2193   -4.4675 C   0  0  0  0  0  0  0  0  0  0  0  0
   -3.7217    0.8107   -3.9146 C   0  0  0  0  0  0  0  0  0  0  0  0
   -5.4417   -1.8500    0.1548 H   0  0  0  0  0  0  0  0  0  0  0  0
   -5.8569   -2.1956    2.9711 H   0  0  0  0  0  0  0  0  0  0  0  0
   -5.9473   -1.0480    5.1611 H   0  0  0  0  0  0  0  0  0  0  0  0
   -5.5576    1.3891    5.3126 H   0  0  0  0  0  0  0  0  0  0  0  0
   -5.0796    2.7113    3.2646 H   0  0  0  0  0  0  0  0  0  0  0  0
   -2.4677    0.6526   -0.7777 H   0  0  0  0  0  0  0  0  0  0  0  0
   -2.3840    2.1320   -1.7669 H   0  0  0  0  0  0  0  0  0  0  0  0
    1.2694    1.0509   -0.2527 H   0  0  0  0  0  0  0  0  0  0  0  0
    3.1106    1.7741    0.9986 H   0  0  0  0  0  0  0  0  0  0  0  0
    4.2134    1.0331   -0.2019 H   0  0  0  0  0  0  0  0  0  0  0  0
    1.3577   -0.8751    1.1609 H   0  0  0  0  0  0  0  0  0  0  0  0
    1.5557   -2.9213    2.4792 H   0  0  0  0  0  0  0  0  0  0  0  0
    3.7512   -3.6181    3.3931 H   0  0  0  0  0  0  0  0  0  0  0  0
    5.7260   -2.2167    3.0611 H   0  0  0  0  0  0  0  0  0  0  0  0
    5.0836    2.0892    1.9427 H   0  0  0  0  0  0  0  0  0  0  0  0
    7.6431    2.8744    1.6719 H   0  0  0  0  0  0  0  0  0  0  0  0
    9.1241    0.6035    1.5358 H   0  0  0  0  0  0  0  0  0  0  0  0
    7.3721   -1.4463    1.6827 H   0  0  0  0  0  0  0  0  0  0  0  0
    1.8857   -0.9043   -4.2247 H   0  0  0  0  0  0  0  0  0  0  0  0
   -0.3035   -1.0783   -5.3930 H   0  0  0  0  0  0  0  0  0  0  0  0
   -3.1193   -1.2324   -4.2911 H   0  0  0  0  0  0  0  0  0  0  0  0
   -2.6392   -0.0759   -5.5492 H   0  0  0  0  0  0  0  0  0  0  0  0
   -4.7168    0.6510   -4.3423 H   0  0  0  0  0  0  0  0  0  0  0  0
   -3.4126    1.8270   -4.1883 H   0  0  0  0  0  0  0  0  0  0  0  0
  1  2  2  0
  2  3  1  0
  3  4  2  0
  4  5  1  0
  5  6  2  0
  6  7  1  0
  7  8  2  0
  8  9  1  0
  9 10  2  0
 10 11  1  0
  2 12  1  0
 12 13  1  0
 13 14  1  0
 14 15  2  0
 15 16  1  0
 16 17  1  0
 17 18  2  0
 17 19  1  0
 19 20  1  0
 20 21  1  0
 21 22  2  0
 22 23  1  0
 23 24  2  0
 24 25  1  0
 25 26  2  0
 26 27  1  0
 27 28  1  0
 28 29  2  0
 29 30  1  0
 30 31  2  0
 16 32  2  0
 32 33  1  0
 33 34  2  0
 34 35  1  0
 35 36  1  0
 36 12  1  0
 34 14  1  0
 11  3  1  0
 10  5  1  0
 26 21  1  0
 31 27  1  0
  4 37  1  0
  6 38  1  0
  7 39  1  0
  8 40  1  0
  9 41  1  0
 13 42  1  0
 13 43  1  0
 19 44  1  0
 20 45  1  0
 20 46  1  0
 22 47  1  0
 23 48  1  0
 24 49  1  0
 25 50  1  0
 28 51  1  0
 29 52  1  0
 30 53  1  0
 31 54  1  0
 32 55  1  0
 33 56  1  0
 35 57  1  0
 35 58  1  0
 36 59  1  0
 36 60  1  0
M  END
>  <type>  (30) 
designed

$$$$
C02
     RDKit          3D

 66 71  0  0  0  0  0  0  0  0999 V2000
    3.7753    2.2598    1.6546 O   0  0  0  0  0  0  0  0  0  0  0  0
    4.4060    1.3431    1.1271 C   0  0  0  0  0  0  0  0  0  0  0  0
    5.5966    0.7719    1.7363 C   0  0  0  0  0  0  0  0  0  0  0  0
    5.9424   -0.5543    1.9018 C   0  0  0  0  0  0  0  0  0  0  0  0
    7.2041   -0.7309    2.5615 C   0  0  0  0  0  0  0  0  0  0  0  0
    7.9088   -1.9108    2.9005 C   0  0  0  0  0  0  0  0  0  0  0  0
    9.1429   -1.8345    3.5532 C   0  0  0  0  0  0  0  0  0  0  0  0
    9.6881   -0.6004    3.8794 C   0  0  0  0  0  0  0  0  0  0  0  0
    9.0131    0.5801    3.5614 C   0  0  0  0  0  0  0  0  0  0  0  0
    7.7709    0.4990    2.9027 C   0  0  0  0  0  0  0  0  0  0  0  0
    6.7628    1.8095    2.4242 S   0  0  0  0  0  0  0  0  0  0  0  0
    3.9639    0.7782   -0.0788 N   0  0  0  0  0  0  0  0  0  0  0  0
    2.7019    1.3008   -0.6010 C   0  0  0  0  0  0  0  0  0  0  0  0
    2.1253    0.5081   -1.7574 C   0  0  0  0  0  0  0  0  0  0  0  0
    0.8768    0.8503   -2.1636 N   0  0  0  0  0  0  0  0  0  0  0  0
    0.3476    0.1534   -3.2098 C   0  0  0  0  0  0  0  0  0  0  0  0
   -1.0303    0.5571   -3.6432 C   0  0  0  0  0  0  0  0  0  0  0  0
   -1.6053   -0.0103   -4.5645 O   0  0  0  0  0  0  0  0  0  0  0  0
   -1.5627    1.5992   -2.9178 N   0  0  0  0  0  0  0  0  0  0  0  0
   -2.9242    2.0430   -3.0666 C   0  0  0  0  0  0  0  0  0  0  0  0
   -3.8168    1.4061   -2.0358 C   0  0  0  0  0  0  0  0  0  0  0  0
   -4.4475    0.1875   -2.2984 C   0  0  0  0  0  0  0  0  0  0  0  0
   -5.2647   -0.4191   -1.3346 C   0  0  0  0  0  0  0  0  0  0  0  0
   -5.4841    0.1668   -0.0795 C   0  0  0  0  0  0  0  0  0  0  0  0
   -6.2893   -0.4121    0.9166 N   0  0  0  0  0  0  0  0  0  0  0  0
   -7.3582    0.4776    1.4305 C   0  0  0  0  0  0  0  0  0  0  0  0
   -8.0436   -0.1401    2.6722 C   0  0  0  0  0  0  0  0  0  0  0  0
   -8.5538   -1.5094    2.4538 N   0  0  0  0  0  0  0  0  0  0  0  0
   -7.4258   -2.3481    1.9972 C   0  0  0  0  0  0  0  0  0  0  0  0
   -6.7337   -1.8081    0.7247 C   0  0  0  0  0  0  0  0  0  0  0  0
   -4.8116    1.3738    0.1772 C   0  0  0  0  0  0  0  0  0  0  0  0
   -3.9941    1.9882   -0.7794 C   0  0  0  0  0  0  0  0  0  0  0  0
    1.0080   -0.8712   -3.8698 C   0  0  0  0  0  0  0  0  0  0  0  0
    2.2902   -1.2009   -3.4458 C   0  0  0  0  0  0  0  0  0  0  0  0
    2.8724   -0.4967   -2.3861 C   0  0  0  0  0  0  0  0  0  0  0  0
    4.2498   -0.8568   -1.8955 C   0  0  0  0  0  0  0  0  0  0  0  0
    4.8877    0.2770   -1.0962 C   0  0  0  0  0  0  0  0  0  0  0  0
    5.3169   -1.3734    1.5674 H   0  0  0  0  0  0  0  0  0  0  0  0
    7.4914   -2.8838    2.6543 H   0  0  0  0  0  0  0  0  0  0  0  0
    9.6759   -2.7473    3.8083 H   0  0  0  0  0  0  0  0  0  0  0  0
   10.6477   -0.5490    4.3898 H   0  0  0  0  0  0  0  0  0  0  0  0
    9.4395    1.5448    3.8223 H   0  0  0  0  0  0  0  0  0  0  0  0
    2.8808    2.3297   -0.9376 H   0  0  0  0  0  0  0  0  0  0  0  0
    1.9665    1.3306    0.2123 H   0  0  0  0  0  0  0  0  0  0  0  0
   -1.0270    1.8934   -2.1068 H   0  0  0  0  0  0  0  0  0  0  0  0
   -3.2881    1.8241   -4.0766 H   0  0  0  0  0  0  0  0  0  0  0  0
   -2.9297    3.1321   -2.9493 H   0  0  0  0  0  0  0  0  0  0  0  0
   -4.3000   -0.3051   -3.2583 H   0  0  0  0  0  0  0  0  0  0  0  0
   -5.7307   -1.3607   -1.6054 H   0  0  0  0  0  0  0  0  0  0  0  0
   -6.9697    1.4575    1.7273 H   0  0  0  0  0  0  0  0  0  0  0  0
   -8.1062    0.6410    0.6438 H   0  0  0  0  0  0  0  0  0  0  0  0
   -8.8803    0.4989    2.9755 H   0  0  0  0  0  0  0  0  0  0  0  0
   -7.3382   -0.1528    3.5124 H   0  0  0  0  0  0  0  0  0  0  0  0
   -9.2423   -1.4726    1.7022 H   0  0  0  0  0  0  0  0  0  0  0  0
   -7.8015   -3.3583    1.8001 H   0  0  0  0  0  0  0  0  0  0  0  0
   -6.6941   -2.4368    2.8099 H   0  0  0  0  0  0  0  0  0  0  0  0
   -7.4378   -1.8697   -0.1152 H   0  0  0  0  0  0  0  0  0  0  0  0
   -5.8751   -2.4556    0.5092 H   0  0  0  0  0  0  0  0  0  0  0  0
   -4.8896    1.8406    1.1553 H   0  0  0  0  0  0  0  0  0  0  0  0
   -3.4905    2.9176   -0.5257 H   0  0  0  0  0  0  0  0  0  0  0  0
    0.5364   -1.3980   -4.6933 H   0  0  0  0  0  0  0  0  0  0  0  0
    2.8293   -2.0035   -3.9434 H   0  0  0  0  0  0  0  0  0  0  0  0
    4.8995   -1.1044   -2.7423 H   0  0  0  0  0  0  0  0  0  0  0  0
    4.1631   -1.7486   -1.2632 H   0  0  0  0  0  0  0  0  0  0  0  0
    5.8364   -0.0566   -0.6719 H   0  0  0  0  0  0  0  0  0  0  0  0
    5.1285    1.1240   -1.7520 H   0  0  0  0  0  0  0  0  0  0  0  0
  1  2  2  0
  2  3  1  0
  3  4  2  0
  4  5  1  0
  5  6  2  0
  6  7  1  0
  7  8  2  0
  8  9  1  0
  9 10  2  0
 10 11  1  0
  2 12  1  0
 12 13  1  0
 13 14  1  0
 14 15  2  0
 15 16  1  0
 16 17  1  0
 17 18  2  0
 17 19  1  0
 19 20  1  0
 20 21  1  0
 21 22  2  0
 22 23  1  0
 23 24  2  0
 24 25  1  0
 25 26  1  0
 26 27  1  0
 27 28  1  0
 28 29  1  0
 29 30  1  0
 24 31  1  0
 31 32  2  0
 16 33  2  0
 33 34  1  0
 34 35  2  0
 35 36  1  0
 36 37  1  0
 37 12  1  0
 35 14  1  0
 11  3  1  0
 10  5  1  0
 32 21  1  0
 30 25  1  0
  4 38  1  0
  6 39  1  0
  7 40  1  0
  8 41  1  0
  9 42  1  0
 13 43  1  0
 13 44  1  0
 19 45  1  0
 20 46  1  0
 20 47  1  0
 22 48  1  0
 23 49  1  0
 26 50  1  0
 26 51  1  0
 27 52  1  0
 27 53  1  0
 28 54  1  0
 29 55  1  0
 29 56  1  0
 30 57  1  0
 30 58  1  0
 31 59  1  0
 32 60  1  0
 33 61  1  0
 34 62  1  0
 36 63  1  0
 36 64  1  0
 37 65  1  0
 37 66  1  0
M  END
>  <type>  (31) 
designed

$$$$
C03
     RDKit          3D

 55 59  0  0  0  0  0  0  0  0999 V2000
   -2.5881   -0.5184   -2.1760 O   0  0  0  0  0  0  0  0  0  0  0  0
   -3.0877   -0.3784   -1.0593 C   0  0  0  0  0  0  0  0  0  0  0  0
   -4.5030   -0.0855   -0.9040 C   0  0  0  0  0  0  0  0  0  0  0  0
   -5.5519   -0.6743   -1.5785 C   0  0  0  0  0  0  0  0  0  0  0  0
   -6.8288   -0.1214   -1.2313 C   0  0  0  0  0  0  0  0  0  0  0  0
   -8.1303   -0.4636   -1.6698 C   0  0  0  0  0  0  0  0  0  0  0  0
   -9.2445    0.2299   -1.1880 C   0  0  0  0  0  0  0  0  0  0  0  0
   -9.0853    1.2650   -0.2770 C   0  0  0  0  0  0  0  0  0  0  0  0
   -7.8130    1.6283    0.1698 C   0  0  0  0  0  0  0  0  0  0  0  0
   -6.6934    0.9260   -0.3171 C   0  0  0  0  0  0  0  0  0  0  0  0
   -5.0403    1.2072    0.0751 S   0  0  0  0  0  0  0  0  0  0  0  0
   -2.3001   -0.5035    0.0915 N   0  0  0  0  0  0  0  0  0  0  0  0
   -0.8632   -0.6607   -0.1205 C   0  0  0  0  0  0  0  0  0  0  0  0
   -0.0256   -0.4880    1.1321 C   0  0  0  0  0  0  0  0  0  0  0  0
    1.3200   -0.4402    0.9609 N   0  0  0  0  0  0  0  0  0  0  0  0
    2.0851   -0.3014    2.0812 C   0  0  0  0  0  0  0  0  0  0  0  0
    3.5674   -0.2374    1.8642 C   0  0  0  0  0  0  0  0  0  0  0  0
    4.3489   -0.0768    2.7944 O   0  0  0  0  0  0  0  0  0  0  0  0
    3.9522   -0.3605    0.5436 N   0  0  0  0  0  0  0  0  0  0  0  0
    5.3163   -0.1461    0.1049 C   0  0  0  0  0  0  0  0  0  0  0  0
    5.6119    1.3542   -0.0359 C   0  0  0  0  0  0  0  0  0  0  0  0
    7.0247    1.6031   -0.5570 C   0  0  0  0  0  0  0  0  0  0  0  0
    7.2822    0.8456   -1.8478 C   0  0  0  0  0  0  0  0  0  0  0  0
    6.5118    1.3722   -2.8347 F   0  0  0  0  0  0  0  0  0  0  0  0
    8.5709    1.0228   -2.2285 F   0  0  0  0  0  0  0  0  0  0  0  0
    6.9884   -0.6399   -1.7281 C   0  0  0  0  0  0  0  0  0  0  0  0
    5.5737   -0.8874   -1.2119 C   0  0  0  0  0  0  0  0  0  0  0  0
    1.5704   -0.2088    3.3650 C   0  0  0  0  0  0  0  0  0  0  0  0
    0.1904   -0.2660    3.5210 C   0  0  0  0  0  0  0  0  0  0  0  0
   -0.6274   -0.4207    2.3968 C   0  0  0  0  0  0  0  0  0  0  0  0
   -2.1266   -0.4478    2.5426 C   0  0  0  0  0  0  0  0  0  0  0  0
   -2.8042   -1.0882    1.3332 C   0  0  0  0  0  0  0  0  0  0  0  0
   -5.4115   -1.4792   -2.2910 H   0  0  0  0  0  0  0  0  0  0  0  0
   -8.2672   -1.2704   -2.3860 H   0  0  0  0  0  0  0  0  0  0  0  0
  -10.2393   -0.0429   -1.5325 H   0  0  0  0  0  0  0  0  0  0  0  0
   -9.9570    1.8019    0.0901 H   0  0  0  0  0  0  0  0  0  0  0  0
   -7.6912    2.4440    0.8769 H   0  0  0  0  0  0  0  0  0  0  0  0
   -0.5329    0.0648   -0.8735 H   0  0  0  0  0  0  0  0  0  0  0  0
   -0.6930   -1.6684   -0.5191 H   0  0  0  0  0  0  0  0  0  0  0  0
    3.1881   -0.3606   -0.1297 H   0  0  0  0  0  0  0  0  0  0  0  0
    5.9815   -0.5580    0.8752 H   0  0  0  0  0  0  0  0  0  0  0  0
    4.8847    1.8125   -0.7191 H   0  0  0  0  0  0  0  0  0  0  0  0
    5.4873    1.8587    0.9298 H   0  0  0  0  0  0  0  0  0  0  0  0
    7.1661    2.6765   -0.7266 H   0  0  0  0  0  0  0  0  0  0  0  0
    7.7606    1.3040    0.1989 H   0  0  0  0  0  0  0  0  0  0  0  0
    7.7196   -1.1078   -1.0580 H   0  0  0  0  0  0  0  0  0  0  0  0
    7.1076   -1.1180   -2.7070 H   0  0  0  0  0  0  0  0  0  0  0  0
    5.4173   -1.9640   -1.0726 H   0  0  0  0  0  0  0  0  0  0  0  0
    4.8477   -0.5651   -1.9699 H   0  0  0  0  0  0  0  0  0  0  0  0
    2.2269   -0.0909    4.2211 H   0  0  0  0  0  0  0  0  0  0  0  0
   -0.2412   -0.1873    4.5161 H   0  0  0  0  0  0  0  0  0  0  0  0
   -2.4092   -1.0020    3.4451 H   0  0  0  0  0  0  0  0  0  0  0  0
   -2.4758    0.5860    2.6560 H   0  0  0  0  0  0  0  0  0  0  0  0
   -2.5806   -2.1628    1.2920 H   0  0  0  0  0  0  0  0  0  0  0  0
   -3.8892   -1.0105    1.4234 H   0  0  0  0  0  0  0  0  0  0  0  0
  1  2  2  0
  2  3  1  0
  3  4  2  0
  4  5  1  0
  5  6  2  0
  6  7  1  0
  7  8  2  0
  8  9  1  0
  9 10  2  0
 10 11  1  0
  2 12  1  0
 12 13  1  0
 13 14  1  0
 14 15  2  0
 15 16  1  0
 16 17  1  0
 17 18  2  0
 17 19  1  0
 19 20  1  0
 20 21  1  0
 21 22  1  0
 22 23  1  0
 23 24  1  0
 23 25  1  0
 23 26  1  0
 26 27  1  0
 16 28  2  0
 28 29  1  0
 29 30  2  0
 30 31  1  0
 31 32  1  0
 32 12  1  0
 30 14  1  0
 11  3  1  0
 27 20  1  0
 10  5  1  0
  4 33  1  0
  6 34  1  0
  7 35  1  0
  8 36  1  0
  9 37  1  0
 13 38  1  0
 13 39  1  0
 19 40  1  0
 20 41  1  0
 21 42  1  0
 21 43  1  0
 22 44  1  0
 22 45  1  0
 26 46  1  0
 26 47  1  0
 27 48  1  0
 27 49  1  0
 28 50  1  0
 29 51  1  0
 31 52  1  0
 31 53  1  0
 32 54  1  0
 32 55  1  0
M  END
>  <type>  (32) 
designed

$$$$
D01
     RDKit          3D

 59 63  0  0  0  0  0  0  0  0999 V2000
    4.1363    1.1924    1.7402 O   0  0  0  0  0  0  0  0  0  0  0  0
    4.4472    0.4806    0.7890 C   0  0  0  0  0  0  0  0  0  0  0  0
    5.8848    0.2901    0.5244 C   0  0  0  0  0  0  0  0  0  0  0  0
    6.4097    0.4624   -0.7479 C   0  0  0  0  0  0  0  0  0  0  0  0
    7.7242    0.3176   -1.0398 N   0  0  0  0  0  0  0  0  0  0  0  0
    8.5522    0.0276   -0.0072 C   0  0  0  0  0  0  0  0  0  0  0  0
    8.1298   -0.1346    1.3074 C   0  0  0  0  0  0  0  0  0  0  0  0
    9.1299   -0.4161    2.3855 C   0  0  0  0  0  0  0  0  0  0  0  0
   10.1316   -1.2413    1.9722 F   0  0  0  0  0  0  0  0  0  0  0  0
    9.7369    0.7131    2.8398 F   0  0  0  0  0  0  0  0  0  0  0  0
    8.5833   -1.0175    3.4781 F   0  0  0  0  0  0  0  0  0  0  0  0
    6.7630    0.0136    1.5734 C   0  0  0  0  0  0  0  0  0  0  0  0
    3.5123   -0.1238   -0.0513 N   0  0  0  0  0  0  0  0  0  0  0  0
    2.1074    0.1922    0.2146 C   0  0  0  0  0  0  0  0  0  0  0  0
    1.1535   -0.2176   -0.8906 C   0  0  0  0  0  0  0  0  0  0  0  0
   -0.1297    0.2095   -0.7741 N   0  0  0  0  0  0  0  0  0  0  0  0
   -1.0000   -0.1589   -1.7584 C   0  0  0  0  0  0  0  0  0  0  0  0
   -2.4111    0.3273   -1.6095 C   0  0  0  0  0  0  0  0  0  0  0  0
   -3.2719    0.0467   -2.4333 O   0  0  0  0  0  0  0  0  0  0  0  0
   -2.6215    1.0930   -0.4865 N   0  0  0  0  0  0  0  0  0  0  0  0
   -3.9191    1.5762   -0.0679 C   0  0  0  0  0  0  0  0  0  0  0  0
   -4.5890    0.6624    0.9424 C   0  0  0  0  0  0  0  0  0  0  0  0
   -3.8109    0.2561    2.0534 C   0  0  0  0  0  0  0  0  0  0  0  0
   -4.3620   -0.4409    3.1303 C   0  0  0  0  0  0  0  0  0  0  0  0
   -5.7172   -0.7339    3.1403 C   0  0  0  0  0  0  0  0  0  0  0  0
   -6.5156   -0.3416    2.0678 C   0  0  0  0  0  0  0  0  0  0  0  0
   -5.9657    0.3389    0.9594 C   0  0  0  0  0  0  0  0  0  0  0  0
   -6.8633    0.6507   -0.1034 N   0  0  0  0  0  0  0  0  0  0  0  0
   -6.6220    0.5509   -1.4570 C   0  0  0  0  0  0  0  0  0  0  0  0
   -7.7556    0.9139   -2.1514 C   0  0  0  0  0  0  0  0  0  0  0  0
   -8.7499    1.2116   -1.1984 C   0  0  0  0  0  0  0  0  0  0  0  0
   -8.1899    1.0200    0.0453 C   0  0  0  0  0  0  0  0  0  0  0  0
   -0.6503   -0.9395   -2.8496 C   0  0  0  0  0  0  0  0  0  0  0  0
    0.6660   -1.3747   -2.9464 C   0  0  0  0  0  0  0  0  0  0  0  0
    1.5858   -1.0252   -1.9520 C   0  0  0  0  0  0  0  0  0  0  0  0
    3.0244   -1.4571   -2.0603 C   0  0  0  0  0  0  0  0  0  0  0  0
    3.7371   -1.4118   -0.7104 C   0  0  0  0  0  0  0  0  0  0  0  0
    5.7804    0.7339   -1.5915 H   0  0  0  0  0  0  0  0  0  0  0  0
    9.6020   -0.0665   -0.2811 H   0  0  0  0  0  0  0  0  0  0  0  0
    6.3823   -0.0789    2.5901 H   0  0  0  0  0  0  0  0  0  0  0  0
    1.8201   -0.3272    1.1370 H   0  0  0  0  0  0  0  0  0  0  0  0
    2.0126    1.2709    0.3875 H   0  0  0  0  0  0  0  0  0  0  0  0
   -1.8153    1.2204    0.1171 H   0  0  0  0  0  0  0  0  0  0  0  0
   -3.7518    2.5467    0.4157 H   0  0  0  0  0  0  0  0  0  0  0  0
   -4.5163    1.7767   -0.9553 H   0  0  0  0  0  0  0  0  0  0  0  0
   -2.7528    0.5073    2.1017 H   0  0  0  0  0  0  0  0  0  0  0  0
   -3.7327   -0.7386    3.9647 H   0  0  0  0  0  0  0  0  0  0  0  0
   -6.1545   -1.2748    3.9755 H   0  0  0  0  0  0  0  0  0  0  0  0
   -7.5677   -0.6194    2.0906 H   0  0  0  0  0  0  0  0  0  0  0  0
   -5.6770    0.1816   -1.8302 H   0  0  0  0  0  0  0  0  0  0  0  0
   -7.8540    0.9312   -3.2295 H   0  0  0  0  0  0  0  0  0  0  0  0
   -9.7681    1.5226   -1.3931 H   0  0  0  0  0  0  0  0  0  0  0  0
   -8.6202    1.1582    1.0274 H   0  0  0  0  0  0  0  0  0  0  0  0
   -1.3844   -1.2005   -3.6056 H   0  0  0  0  0  0  0  0  0  0  0  0
    0.9685   -1.9825   -3.7963 H   0  0  0  0  0  0  0  0  0  0  0  0
    3.5286   -0.7831   -2.7635 H   0  0  0  0  0  0  0  0  0  0  0  0
    3.0860   -2.4744   -2.4632 H   0  0  0  0  0  0  0  0  0  0  0  0
    3.3441   -2.1868   -0.0391 H   0  0  0  0  0  0  0  0  0  0  0  0
    4.7994   -1.6292   -0.8403 H   0  0  0  0  0  0  0  0  0  0  0  0
  1  2  2  0
  2  3  1  0
  3  4  2  0
  4  5  1  0
  5  6  2  0
  6  7  1  0
  7  8  1  0
  8  9  1  0
  8 10  1  0
  8 11  1  0
  7 12  2  0
  2 13  1  0
 13 14  1  0
 14 15  1  0
 15 16  2  0
 16 17  1  0
 17 18  1  0
 18 19  2  0
 18 20  1  0
 20 21  1  0
 21 22  1  0
 22 23  2  0
 23 24  1  0
 24 25  2  0
 25 26  1  0
 26 27  2  0
 27 28  1  0
 28 29  1  0
 29 30  2  0
 30 31  1  0
 31 32  2  0
 17 33  2  0
 33 34  1  0
 34 35  2  0
 35 36  1  0
 36 37  1  0
 37 13  1  0
 35 15  1  0
 12  3  1  0
 27 22  1  0
 32 28  1  0
  4 38  1  0
  6 39  1  0
 12 40  1  0
 14 41  1  0
 14 42  1  0
 20 43  1  0
 21 44  1  0
 21 45  1  0
 23 46  1  0
 24 47  1  0
 25 48  1  0
 26 49  1  0
 29 50  1  0
 30 51  1  0
 31 52  1  0
 32 53  1  0
 33 54  1  0
 34 55  1  0
 36 56  1  0
 36 57  1  0
 37 58  1  0
 37 59  1  0
M  END
>  <type>  (33) 
designed

$$$$
D02
     RDKit          3D

 65 69  0  0  0  0  0  0  0  0999 V2000
    7.2340   -0.7983    1.7208 O   0  0  0  0  0  0  0  0  0  0  0  0
    6.1001   -0.4367    1.4124 C   0  0  0  0  0  0  0  0  0  0  0  0
    5.9397    0.9510    0.9555 C   0  0  0  0  0  0  0  0  0  0  0  0
    5.1820    1.8587    1.6757 C   0  0  0  0  0  0  0  0  0  0  0  0
    5.0122    3.1484    1.2950 N   0  0  0  0  0  0  0  0  0  0  0  0
    5.6508    3.5476    0.1672 C   0  0  0  0  0  0  0  0  0  0  0  0
    6.4484    2.7169   -0.6104 C   0  0  0  0  0  0  0  0  0  0  0  0
    7.1312    3.2365   -1.8366 C   0  0  0  0  0  0  0  0  0  0  0  0
    6.6778    4.4589   -2.2330 F   0  0  0  0  0  0  0  0  0  0  0  0
    6.9658    2.4121   -2.9089 F   0  0  0  0  0  0  0  0  0  0  0  0
    8.4751    3.3697   -1.6684 F   0  0  0  0  0  0  0  0  0  0  0  0
    6.6013    1.3887   -0.1926 C   0  0  0  0  0  0  0  0  0  0  0  0
    4.9847   -1.2762    1.4462 N   0  0  0  0  0  0  0  0  0  0  0  0
    3.7300   -0.9368    0.7569 C   0  0  0  0  0  0  0  0  0  0  0  0
    2.7271   -2.0593    0.5949 C   0  0  0  0  0  0  0  0  0  0  0  0
    1.7026   -1.8385   -0.2650 N   0  0  0  0  0  0  0  0  0  0  0  0
    0.7908   -2.8425   -0.4150 C   0  0  0  0  0  0  0  0  0  0  0  0
   -0.3133   -2.5882   -1.3986 C   0  0  0  0  0  0  0  0  0  0  0  0
   -1.1004   -3.4697   -1.7194 O   0  0  0  0  0  0  0  0  0  0  0  0
   -0.3349   -1.3025   -1.8924 N   0  0  0  0  0  0  0  0  0  0  0  0
   -1.3386   -0.8315   -2.8119 C   0  0  0  0  0  0  0  0  0  0  0  0
   -2.5623   -0.2981   -2.1139 C   0  0  0  0  0  0  0  0  0  0  0  0
   -2.4804    0.7517   -1.1919 C   0  0  0  0  0  0  0  0  0  0  0  0
   -3.6373    1.2698   -0.5889 C   0  0  0  0  0  0  0  0  0  0  0  0
   -4.9096    0.7599   -0.8791 C   0  0  0  0  0  0  0  0  0  0  0  0
   -6.0951    1.2663   -0.3283 N   0  0  0  0  0  0  0  0  0  0  0  0
   -6.8723    0.2687    0.4459 C   0  0  0  0  0  0  0  0  0  0  0  0
   -8.2870    0.8134    0.7569 C   0  0  0  0  0  0  0  0  0  0  0  0
   -8.2921    2.1282    1.4290 N   0  0  0  0  0  0  0  0  0  0  0  0
   -7.4917    3.0776    0.6317 C   0  0  0  0  0  0  0  0  0  0  0  0
   -6.0542    2.5805    0.3455 C   0  0  0  0  0  0  0  0  0  0  0  0
   -4.9732   -0.2902   -1.8108 C   0  0  0  0  0  0  0  0  0  0  0  0
   -3.8251   -0.8155   -2.4155 C   0  0  0  0  0  0  0  0  0  0  0  0
    0.8450   -4.0453    0.2712 C   0  0  0  0  0  0  0  0  0  0  0  0
    1.8935   -4.2426    1.1631 C   0  0  0  0  0  0  0  0  0  0  0  0
    2.8542   -3.2437    1.3259 C   0  0  0  0  0  0  0  0  0  0  0  0
    3.9975   -3.4022    2.2843 C   0  0  0  0  0  0  0  0  0  0  0  0
    5.2346   -2.6841    1.7534 C   0  0  0  0  0  0  0  0  0  0  0  0
    4.6785    1.5786    2.5982 H   0  0  0  0  0  0  0  0  0  0  0  0
    5.4933    4.5936   -0.0931 H   0  0  0  0  0  0  0  0  0  0  0  0
    7.2309    0.7006   -0.7547 H   0  0  0  0  0  0  0  0  0  0  0  0
    3.9787   -0.5429   -0.2352 H   0  0  0  0  0  0  0  0  0  0  0  0
    3.2446   -0.1466    1.3347 H   0  0  0  0  0  0  0  0  0  0  0  0
    0.3304   -0.6535   -1.4882 H   0  0  0  0  0  0  0  0  0  0  0  0
   -0.8900   -0.0327   -3.4141 H   0  0  0  0  0  0  0  0  0  0  0  0
   -1.6006   -1.6482   -3.4944 H   0  0  0  0  0  0  0  0  0  0  0  0
   -1.5155    1.1812   -0.9338 H   0  0  0  0  0  0  0  0  0  0  0  0
   -3.5117    2.0767    0.1269 H   0  0  0  0  0  0  0  0  0  0  0  0
   -6.9970   -0.6720   -0.1012 H   0  0  0  0  0  0  0  0  0  0  0  0
   -6.3490    0.0406    1.3848 H   0  0  0  0  0  0  0  0  0  0  0  0
   -8.8122    0.0942    1.3947 H   0  0  0  0  0  0  0  0  0  0  0  0
   -8.8588    0.8890   -0.1768 H   0  0  0  0  0  0  0  0  0  0  0  0
   -9.2554    2.4651    1.4747 H   0  0  0  0  0  0  0  0  0  0  0  0
   -8.0065    3.2729   -0.3171 H   0  0  0  0  0  0  0  0  0  0  0  0
   -7.4410    4.0288    1.1725 H   0  0  0  0  0  0  0  0  0  0  0  0
   -5.5622    3.3232   -0.2936 H   0  0  0  0  0  0  0  0  0  0  0  0
   -5.5007    2.5107    1.2916 H   0  0  0  0  0  0  0  0  0  0  0  0
   -5.9382   -0.6950   -2.1042 H   0  0  0  0  0  0  0  0  0  0  0  0
   -3.9314   -1.6276   -3.1329 H   0  0  0  0  0  0  0  0  0  0  0  0
    0.0796   -4.8022    0.1252 H   0  0  0  0  0  0  0  0  0  0  0  0
    1.9536   -5.1716    1.7251 H   0  0  0  0  0  0  0  0  0  0  0  0
    3.7025   -2.9841    3.2544 H   0  0  0  0  0  0  0  0  0  0  0  0
    4.2352   -4.4611    2.4303 H   0  0  0  0  0  0  0  0  0  0  0  0
    6.0420   -2.7649    2.4900 H   0  0  0  0  0  0  0  0  0  0  0  0
    5.5896   -3.1549    0.8281 H   0  0  0  0  0  0  0  0  0  0  0  0
  1  2  2  0
  2  3  1  0
  3  4  2  0
  4  5  1  0
  5  6  2  0
  6  7  1  0
  7  8  1  0
  8  9  1  0
  8 10  1  0
  8 11  1  0
  7 12  2  0
  2 13  1  0
 13 14  1  0
 14 15  1  0
 15 16  2  0
 16 17  1  0
 17 18  1  0
 18 19  2  0
 18 20  1  0
 20 21  1  0
 21 22  1  0
 22 23  2  0
 23 24  1  0
 24 25  2  0
 25 26  1  0
 26 27  1  0
 27 28  1  0
 28 29  1  0
 29 30  1  0
 30 31  1  0
 25 32  1  0
 32 33  2  0
 17 34  2  0
 34 35  1  0
 35 36  2  0
 36 37  1  0
 37 38  1  0
 38 13  1  0
 36 15  1  0
 12  3  1  0
 33 22  1  0
 31 26  1  0
  4 39  1  0
  6 40  1  0
 12 41  1  0
 14 42  1  0
 14 43  1  0
 20 44  1  0
 21 45  1  0
 21 46  1  0
 23 47  1  0
 24 48  1  0
 27 49  1  0
 27 50  1  0
 28 51  1  0
 28 52  1  0
 29 53  1  0
 30 54  1  0
 30 55  1  0
 31 56  1  0
 31 57  1  0
 32 58  1  0
 33 59  1  0
 34 60  1  0
 35 61  1  0
 37 62  1  0
 37 63  1  0
 38 64  1  0
 38 65  1  0
M  END
>  <type>  (34) 
designed

$$$$
D03
     RDKit          3D

 54 57  0  0  0  0  0  0  0  0999 V2000
    2.8174   -2.7275   -0.2883 O   0  0  0  0  0  0  0  0  0  0  0  0
    3.3893   -1.6534   -0.1246 C   0  0  0  0  0  0  0  0  0  0  0  0
    4.8526   -1.6496   -0.2563 C   0  0  0  0  0  0  0  0  0  0  0  0
    5.6111   -2.4157    0.6133 C   0  0  0  0  0  0  0  0  0  0  0  0
    6.9636   -2.4786    0.5592 N   0  0  0  0  0  0  0  0  0  0  0  0
    7.5727   -1.7796   -0.4283 C   0  0  0  0  0  0  0  0  0  0  0  0
    6.8955   -1.0171   -1.3729 C   0  0  0  0  0  0  0  0  0  0  0  0
    7.6601   -0.2708   -2.4212 C   0  0  0  0  0  0  0  0  0  0  0  0
    8.7764   -0.9250   -2.8401 F   0  0  0  0  0  0  0  0  0  0  0  0
    8.0791    0.9457   -1.9778 F   0  0  0  0  0  0  0  0  0  0  0  0
    6.9260   -0.0258   -3.5414 F   0  0  0  0  0  0  0  0  0  0  0  0
    5.4995   -0.9524   -1.2777 C   0  0  0  0  0  0  0  0  0  0  0  0
    2.7243   -0.4667    0.1703 N   0  0  0  0  0  0  0  0  0  0  0  0
    1.2665   -0.4862    0.0167 C   0  0  0  0  0  0  0  0  0  0  0  0
    0.5218    0.7053    0.5822 C   0  0  0  0  0  0  0  0  0  0  0  0
   -0.8213    0.7291    0.3862 N   0  0  0  0  0  0  0  0  0  0  0  0
   -1.5072    1.7908    0.8989 C   0  0  0  0  0  0  0  0  0  0  0  0
   -2.9897    1.7895    0.6747 C   0  0  0  0  0  0  0  0  0  0  0  0
   -3.7085    2.6750    1.1222 O   0  0  0  0  0  0  0  0  0  0  0  0
   -3.4494    0.7107   -0.0541 N   0  0  0  0  0  0  0  0  0  0  0  0
   -4.8605    0.4375   -0.2470 C   0  0  0  0  0  0  0  0  0  0  0  0
   -5.4772   -0.1711    1.0263 C   0  0  0  0  0  0  0  0  0  0  0  0
   -6.7434   -0.9924    0.7705 C   0  0  0  0  0  0  0  0  0  0  0  0
   -7.4329   -0.5919   -0.5185 C   0  0  0  0  0  0  0  0  0  0  0  0
   -8.5664   -1.3162   -0.6822 F   0  0  0  0  0  0  0  0  0  0  0  0
   -7.8186    0.7072   -0.4265 F   0  0  0  0  0  0  0  0  0  0  0  0
   -6.5417   -0.7641   -1.7398 C   0  0  0  0  0  0  0  0  0  0  0  0
   -5.0649   -0.4768   -1.4564 C   0  0  0  0  0  0  0  0  0  0  0  0
   -0.9154    2.8274    1.6036 C   0  0  0  0  0  0  0  0  0  0  0  0
    0.4608    2.7855    1.7926 C   0  0  0  0  0  0  0  0  0  0  0  0
    1.1987    1.7207    1.2663 C   0  0  0  0  0  0  0  0  0  0  0  0
    2.6833    1.6330    1.4763 C   0  0  0  0  0  0  0  0  0  0  0  0
    3.3583    0.8386    0.3593 C   0  0  0  0  0  0  0  0  0  0  0  0
    5.1479   -3.0099    1.3968 H   0  0  0  0  0  0  0  0  0  0  0  0
    8.6585   -1.8630   -0.4374 H   0  0  0  0  0  0  0  0  0  0  0  0
    4.9222   -0.3785   -1.9999 H   0  0  0  0  0  0  0  0  0  0  0  0
    0.8730   -1.3978    0.4818 H   0  0  0  0  0  0  0  0  0  0  0  0
    1.0618   -0.5432   -1.0596 H   0  0  0  0  0  0  0  0  0  0  0  0
   -2.7515   -0.0031   -0.2541 H   0  0  0  0  0  0  0  0  0  0  0  0
   -5.3521    1.3989   -0.4473 H   0  0  0  0  0  0  0  0  0  0  0  0
   -4.7488   -0.8092    1.5445 H   0  0  0  0  0  0  0  0  0  0  0  0
   -5.7069    0.6422    1.7275 H   0  0  0  0  0  0  0  0  0  0  0  0
   -6.4904   -2.0590    0.7267 H   0  0  0  0  0  0  0  0  0  0  0  0
   -7.4300   -0.8782    1.6171 H   0  0  0  0  0  0  0  0  0  0  0  0
   -6.8946   -0.0877   -2.5278 H   0  0  0  0  0  0  0  0  0  0  0  0
   -6.6386   -1.7802   -2.1402 H   0  0  0  0  0  0  0  0  0  0  0  0
   -4.5466   -1.4292   -1.2788 H   0  0  0  0  0  0  0  0  0  0  0  0
   -4.5975   -0.0462   -2.3509 H   0  0  0  0  0  0  0  0  0  0  0  0
   -1.5115    3.6441    1.9979 H   0  0  0  0  0  0  0  0  0  0  0  0
    0.9501    3.5821    2.3483 H   0  0  0  0  0  0  0  0  0  0  0  0
    2.8654    1.1464    2.4425 H   0  0  0  0  0  0  0  0  0  0  0  0
    3.1236    2.6361    1.5151 H   0  0  0  0  0  0  0  0  0  0  0  0
    3.2884    1.3728   -0.5963 H   0  0  0  0  0  0  0  0  0  0  0  0
    4.4177    0.7272    0.6044 H   0  0  0  0  0  0  0  0  0  0  0  0
  1  2  2  0
  2  3  1  0
  3  4  2  0
  4  5  1  0
  5  6  2  0
  6  7  1  0
  7  8  1  0
  8  9  1  0
  8 10  1  0
  8 11  1  0
  7 12  2  0
  2 13  1  0
 13 14  1  0
 14 15  1  0
 15 16  2  0
 16 17  1  0
 17 18  1  0
 18 19  2  0
 18 20  1  0
 20 21  1  0
 21 22  1  0
 22 23  1  0
 23 24  1  0
 24 25  1  0
 24 26  1  0
 24 27  1  0
 27 28  1  0
 17 29  2  0
 29 30  1  0
 30 31  2  0
 31 32  1  0
 32 33  1  0
 33 13  1  0
 31 15  1  0
 12  3  1  0
 28 21  1  0
  4 34  1  0
  6 35  1  0
 12 36  1  0
 14 37  1  0
 14 38  1  0
 20 39  1  0
 21 40  1  0
 22 41  1  0
 22 42  1  0
 23 43  1  0
 23 44  1  0
 27 45  1  0
 27 46  1  0
 28 47  1  0
 28 48  1  0
 29 49  1  0
 30 50  1  0
 32 51  1  0
 32 52  1  0
 33 53  1  0
 33 54  1  0
M  END
>  <type>  (35) 
designed

$$$$
E01
     RDKit          3D

 67 72  0  0  0  0  0  0  0  0999 V2000
    2.0260    0.5954   -3.1935 O   0  0  0  0  0  0  0  0  0  0  0  0
    2.6037   -0.0064   -2.2921 C   0  0  0  0  0  0  0  0  0  0  0  0
    4.0733    0.1380   -2.1897 C   0  0  0  0  0  0  0  0  0  0  0  0
    4.8560   -0.0609   -3.3268 C   0  0  0  0  0  0  0  0  0  0  0  0
    6.2418    0.0846   -3.2446 C   0  0  0  0  0  0  0  0  0  0  0  0
    6.8550    0.4473   -2.0329 C   0  0  0  0  0  0  0  0  0  0  0  0
    8.2475    0.5971   -1.9337 C   0  0  0  0  0  0  0  0  0  0  0  0
    8.8547    0.9724   -0.7312 C   0  0  0  0  0  0  0  0  0  0  0  0
   10.2172    1.0782   -0.7886 O   0  0  0  0  0  0  0  0  0  0  0  0
   10.8779    1.5342    0.3855 C   0  0  0  0  0  0  0  0  0  0  0  0
    8.0625    1.2004    0.3914 C   0  0  0  0  0  0  0  0  0  0  0  0
    6.6732    1.0544    0.3123 C   0  0  0  0  0  0  0  0  0  0  0  0
    6.0559    0.6771   -0.8896 C   0  0  0  0  0  0  0  0  0  0  0  0
    4.6637    0.5278   -0.9815 C   0  0  0  0  0  0  0  0  0  0  0  0
    1.9410   -0.7829   -1.3437 N   0  0  0  0  0  0  0  0  0  0  0  0
    0.4816   -0.8090   -1.4232 C   0  0  0  0  0  0  0  0  0  0  0  0
   -0.1953   -1.3392   -0.1736 C   0  0  0  0  0  0  0  0  0  0  0  0
   -1.5424   -1.1865   -0.1000 N   0  0  0  0  0  0  0  0  0  0  0  0
   -2.1598   -1.6505    1.0248 C   0  0  0  0  0  0  0  0  0  0  0  0
   -3.6417   -1.4409    1.1008 C   0  0  0  0  0  0  0  0  0  0  0  0
   -4.2822   -1.7639    2.0947 O   0  0  0  0  0  0  0  0  0  0  0  0
   -4.1851   -0.8571   -0.0226 N   0  0  0  0  0  0  0  0  0  0  0  0
   -5.5613   -0.4186   -0.0917 C   0  0  0  0  0  0  0  0  0  0  0  0
   -5.7682    1.0202    0.3455 C   0  0  0  0  0  0  0  0  0  0  0  0
   -4.7301    1.9547    0.1286 C   0  0  0  0  0  0  0  0  0  0  0  0
   -4.8118    3.2662    0.5986 C   0  0  0  0  0  0  0  0  0  0  0  0
   -5.9380    3.6827    1.2933 C   0  0  0  0  0  0  0  0  0  0  0  0
   -6.9961    2.7968    1.4919 C   0  0  0  0  0  0  0  0  0  0  0  0
   -6.9401    1.4781    0.9956 C   0  0  0  0  0  0  0  0  0  0  0  0
   -8.1082    0.6721    1.1569 N   0  0  0  0  0  0  0  0  0  0  0  0
   -8.6083   -0.2586    0.2658 C   0  0  0  0  0  0  0  0  0  0  0  0
   -9.7610   -0.8105    0.7829 C   0  0  0  0  0  0  0  0  0  0  0  0
  -10.0115   -0.1750    2.0151 C   0  0  0  0  0  0  0  0  0  0  0  0
   -9.0059    0.7471    2.2079 C   0  0  0  0  0  0  0  0  0  0  0  0
   -1.4971   -2.2702    2.0735 C   0  0  0  0  0  0  0  0  0  0  0  0
   -0.1205   -2.4313    1.9729 C   0  0  0  0  0  0  0  0  0  0  0  0
    0.5485   -1.9723    0.8334 C   0  0  0  0  0  0  0  0  0  0  0  0
    2.0470   -2.0912    0.7347 C   0  0  0  0  0  0  0  0  0  0  0  0
    2.5429   -1.9521   -0.7024 C   0  0  0  0  0  0  0  0  0  0  0  0
    4.3912   -0.3247   -4.2738 H   0  0  0  0  0  0  0  0  0  0  0  0
    6.8421   -0.0776   -4.1381 H   0  0  0  0  0  0  0  0  0  0  0  0
    8.8780    0.4262   -2.8042 H   0  0  0  0  0  0  0  0  0  0  0  0
   10.7478    0.8272    1.2115 H   0  0  0  0  0  0  0  0  0  0  0  0
   11.9481    1.5942    0.1644 H   0  0  0  0  0  0  0  0  0  0  0  0
   10.5388    2.5376    0.6655 H   0  0  0  0  0  0  0  0  0  0  0  0
    8.4913    1.4930    1.3437 H   0  0  0  0  0  0  0  0  0  0  0  0
    6.0766    1.2427    1.2024 H   0  0  0  0  0  0  0  0  0  0  0  0
    4.0335    0.7230   -0.1173 H   0  0  0  0  0  0  0  0  0  0  0  0
    0.1138    0.2038   -1.6258 H   0  0  0  0  0  0  0  0  0  0  0  0
    0.2070   -1.4466   -2.2722 H   0  0  0  0  0  0  0  0  0  0  0  0
   -3.5274   -0.5918   -0.7489 H   0  0  0  0  0  0  0  0  0  0  0  0
   -6.1396   -1.1014    0.5358 H   0  0  0  0  0  0  0  0  0  0  0  0
   -5.8767   -0.5261   -1.1344 H   0  0  0  0  0  0  0  0  0  0  0  0
   -3.8212    1.6620   -0.3949 H   0  0  0  0  0  0  0  0  0  0  0  0
   -3.9898    3.9573    0.4254 H   0  0  0  0  0  0  0  0  0  0  0  0
   -6.0042    4.7019    1.6649 H   0  0  0  0  0  0  0  0  0  0  0  0
   -7.8839    3.1769    1.9919 H   0  0  0  0  0  0  0  0  0  0  0  0
   -8.1349   -0.4350   -0.6885 H   0  0  0  0  0  0  0  0  0  0  0  0
  -10.3653   -1.5719    0.3071 H   0  0  0  0  0  0  0  0  0  0  0  0
  -10.8359   -0.3626    2.6921 H   0  0  0  0  0  0  0  0  0  0  0  0
   -8.8322    1.4128    3.0418 H   0  0  0  0  0  0  0  0  0  0  0  0
   -2.0394   -2.6109    2.9505 H   0  0  0  0  0  0  0  0  0  0  0  0
    0.4245   -2.9047    2.7867 H   0  0  0  0  0  0  0  0  0  0  0  0
    2.4896   -1.2995    1.3517 H   0  0  0  0  0  0  0  0  0  0  0  0
    2.3774   -3.0566    1.1355 H   0  0  0  0  0  0  0  0  0  0  0  0
    3.6341   -1.9197   -0.7195 H   0  0  0  0  0  0  0  0  0  0  0  0
    2.2517   -2.8271   -1.2979 H   0  0  0  0  0  0  0  0  0  0  0  0
  1  2  2  0
  2  3  1  0
  3  4  2  0
  4  5  1  0
  5  6  2  0
  6  7  1  0
  7  8  2  0
  8  9  1  0
  9 10  1  0
  8 11  1  0
 11 12  2  0
 12 13  1  0
 13 14  2  0
  2 15  1  0
 15 16  1  0
 16 17  1  0
 17 18  2  0
 18 19  1  0
 19 20  1  0
 20 21  2  0
 20 22  1  0
 22 23  1  0
 23 24  1  0
 24 25  2  0
 25 26  1  0
 26 27  2  0
 27 28  1  0
 28 29  2  0
 29 30  1  0
 30 31  1  0
 31 32  2  0
 32 33  1  0
 33 34  2  0
 19 35  2  0
 35 36  1  0
 36 37  2  0
 37 38  1  0
 38 39  1  0
 39 15  1  0
 37 17  1  0
 14  3  1  0
 13  6  1  0
 29 24  1  0
 34 30  1  0
  4 40  1  0
  5 41  1  0
  7 42  1  0
 10 43  1  0
 10 44  1  0
 10 45  1  0
 11 46  1  0
 12 47  1  0
 14 48  1  0
 16 49  1  0
 16 50  1  0
 22 51  1  0
 23 52  1  0
 23 53  1  0
 25 54  1  0
 26 55  1  0
 27 56  1  0
 28 57  1  0
 31 58  1  0
 32 59  1  0
 33 60  1  0
 34 61  1  0
 35 62  1  0
 36 63  1  0
 38 64  1  0
 38 65  1  0
 39 66  1  0
 39 67  1  0
M  END
>  <type>  (36) 
designed

$$$$
E02
     RDKit          3D

 73 78  0  0  0  0  0  0  0  0999 V2000
    3.0887   -0.0880    2.2839 O   0  0  0  0  0  0  0  0  0  0  0  0
    3.6430   -0.2897    1.2055 C   0  0  0  0  0  0  0  0  0  0  0  0
    5.1156   -0.4177    1.2044 C   0  0  0  0  0  0  0  0  0  0  0  0
    5.7074   -1.3869    2.0136 C   0  0  0  0  0  0  0  0  0  0  0  0
    7.0977   -1.5072    2.0421 C   0  0  0  0  0  0  0  0  0  0  0  0
    7.9096   -0.6533    1.2752 C   0  0  0  0  0  0  0  0  0  0  0  0
    9.3123   -0.7664    1.2950 C   0  0  0  0  0  0  0  0  0  0  0  0
   10.1105    0.0926    0.5366 C   0  0  0  0  0  0  0  0  0  0  0  0
   11.4769    0.0769    0.4727 O   0  0  0  0  0  0  0  0  0  0  0  0
   12.1500   -0.8872    1.2721 C   0  0  0  0  0  0  0  0  0  0  0  0
    9.5045    1.0748   -0.2467 C   0  0  0  0  0  0  0  0  0  0  0  0
    8.1147    1.2043   -0.2778 C   0  0  0  0  0  0  0  0  0  0  0  0
    7.3035    0.3453    0.4757 C   0  0  0  0  0  0  0  0  0  0  0  0
    5.9055    0.4609    0.4558 C   0  0  0  0  0  0  0  0  0  0  0  0
    2.9504   -0.4000    0.0024 N   0  0  0  0  0  0  0  0  0  0  0  0
    1.5254   -0.0528    0.0390 C   0  0  0  0  0  0  0  0  0  0  0  0
    0.8235   -0.0140   -1.3018 C   0  0  0  0  0  0  0  0  0  0  0  0
   -0.3038    0.7323   -1.3983 N   0  0  0  0  0  0  0  0  0  0  0  0
   -0.9576    0.7148   -2.5951 C   0  0  0  0  0  0  0  0  0  0  0  0
   -2.1955    1.5563   -2.6844 C   0  0  0  0  0  0  0  0  0  0  0  0
   -2.8618    1.6089   -3.7127 O   0  0  0  0  0  0  0  0  0  0  0  0
   -2.4995    2.2339   -1.5244 N   0  0  0  0  0  0  0  0  0  0  0  0
   -3.7328    2.9547   -1.3414 C   0  0  0  0  0  0  0  0  0  0  0  0
   -4.7733    2.0893   -0.6814 C   0  0  0  0  0  0  0  0  0  0  0  0
   -4.9336    2.0864    0.7064 C   0  0  0  0  0  0  0  0  0  0  0  0
   -5.8930    1.2617    1.3057 C   0  0  0  0  0  0  0  0  0  0  0  0
   -6.7128    0.4081    0.5494 C   0  0  0  0  0  0  0  0  0  0  0  0
   -7.6602   -0.3894    1.2080 N   0  0  0  0  0  0  0  0  0  0  0  0
   -8.1455   -1.6268    0.5641 C   0  0  0  0  0  0  0  0  0  0  0  0
   -9.5993   -1.4745    0.0688 C   0  0  0  0  0  0  0  0  0  0  0  0
  -10.5792   -1.1523    1.1264 N   0  0  0  0  0  0  0  0  0  0  0  0
   -9.9328   -0.4542    2.2572 C   0  0  0  0  0  0  0  0  0  0  0  0
   -8.7160    0.4174    1.8721 C   0  0  0  0  0  0  0  0  0  0  0  0
   -6.5325    0.4148   -0.8391 C   0  0  0  0  0  0  0  0  0  0  0  0
   -5.5765    1.2384   -1.4474 C   0  0  0  0  0  0  0  0  0  0  0  0
   -0.5449   -0.0270   -3.6929 C   0  0  0  0  0  0  0  0  0  0  0  0
    0.6107   -0.7906   -3.5709 C   0  0  0  0  0  0  0  0  0  0  0  0
    1.3156   -0.7770   -2.3656 C   0  0  0  0  0  0  0  0  0  0  0  0
    2.5704   -1.5768   -2.1669 C   0  0  0  0  0  0  0  0  0  0  0  0
    3.5452   -0.8069   -1.2748 C   0  0  0  0  0  0  0  0  0  0  0  0
    5.0895   -2.0410    2.6246 H   0  0  0  0  0  0  0  0  0  0  0  0
    7.5441   -2.2696    2.6776 H   0  0  0  0  0  0  0  0  0  0  0  0
    9.7601   -1.5365    1.9151 H   0  0  0  0  0  0  0  0  0  0  0  0
   13.2253   -0.7622    1.1115 H   0  0  0  0  0  0  0  0  0  0  0  0
   11.9517   -0.7256    2.3371 H   0  0  0  0  0  0  0  0  0  0  0  0
   11.8849   -1.9054    0.9685 H   0  0  0  0  0  0  0  0  0  0  0  0
   10.1213    1.7485   -0.8372 H   0  0  0  0  0  0  0  0  0  0  0  0
    7.6754    1.9847   -0.8949 H   0  0  0  0  0  0  0  0  0  0  0  0
    5.4282    1.2433   -0.1287 H   0  0  0  0  0  0  0  0  0  0  0  0
    1.4264    0.9243    0.5276 H   0  0  0  0  0  0  0  0  0  0  0  0
    1.0228   -0.7934    0.6729 H   0  0  0  0  0  0  0  0  0  0  0  0
   -1.9301    2.0035   -0.7145 H   0  0  0  0  0  0  0  0  0  0  0  0
   -4.1023    3.3268   -2.3041 H   0  0  0  0  0  0  0  0  0  0  0  0
   -3.5130    3.8292   -0.7188 H   0  0  0  0  0  0  0  0  0  0  0  0
   -4.3124    2.7183    1.3361 H   0  0  0  0  0  0  0  0  0  0  0  0
   -5.9818    1.2686    2.3893 H   0  0  0  0  0  0  0  0  0  0  0  0
   -7.4945   -1.9697   -0.2476 H   0  0  0  0  0  0  0  0  0  0  0  0
   -8.1100   -2.4272    1.3150 H   0  0  0  0  0  0  0  0  0  0  0  0
   -9.6437   -0.6797   -0.6858 H   0  0  0  0  0  0  0  0  0  0  0  0
   -9.9152   -2.3976   -0.4307 H   0  0  0  0  0  0  0  0  0  0  0  0
  -10.9898   -2.0146    1.4812 H   0  0  0  0  0  0  0  0  0  0  0  0
   -9.6082   -1.2050    2.9891 H   0  0  0  0  0  0  0  0  0  0  0  0
  -10.6853    0.1678    2.7538 H   0  0  0  0  0  0  0  0  0  0  0  0
   -8.3137    0.8736    2.7844 H   0  0  0  0  0  0  0  0  0  0  0  0
   -9.0571    1.2259    1.2103 H   0  0  0  0  0  0  0  0  0  0  0  0
   -7.1467   -0.2012   -1.4879 H   0  0  0  0  0  0  0  0  0  0  0  0
   -5.4615    1.2106   -2.5300 H   0  0  0  0  0  0  0  0  0  0  0  0
   -1.1104   -0.0102   -4.6192 H   0  0  0  0  0  0  0  0  0  0  0  0
    0.9555   -1.3841   -4.4138 H   0  0  0  0  0  0  0  0  0  0  0  0
    2.3066   -2.5362   -1.7061 H   0  0  0  0  0  0  0  0  0  0  0  0
    3.0530   -1.7844   -3.1288 H   0  0  0  0  0  0  0  0  0  0  0  0
    3.8701    0.1117   -1.7792 H   0  0  0  0  0  0  0  0  0  0  0  0
    4.4304   -1.4260   -1.0984 H   0  0  0  0  0  0  0  0  0  0  0  0
  1  2  2  0
  2  3  1  0
  3  4  2  0
  4  5  1  0
  5  6  2  0
  6  7  1  0
  7  8  2  0
  8  9  1  0
  9 10  1  0
  8 11  1  0
 11 12  2  0
 12 13  1  0
 13 14  2  0
  2 15  1  0
 15 16  1  0
 16 17  1  0
 17 18  2  0
 18 19  1  0
 19 20  1  0
 20 21  2  0
 20 22  1  0
 22 23  1  0
 23 24  1  0
 24 25  2  0
 25 26  1  0
 26 27  2  0
 27 28  1  0
 28 29  1  0
 29 30  1  0
 30 31  1  0
 31 32  1  0
 32 33  1  0
 27 34  1  0
 34 35  2  0
 19 36  2  0
 36 37  1  0
 37 38  2  0
 38 39  1  0
 39 40  1  0
 40 15  1  0
 38 17  1  0
 14  3  1  0
 13  6  1  0
 35 24  1  0
 33 28  1  0
  4 41  1  0
  5 42  1  0
  7 43  1  0
 10 44  1  0
 10 45  1  0
 10 46  1  0
 11 47  1  0
 12 48  1  0
 14 49  1  0
 16 50  1  0
 16 51  1  0
 22 52  1  0
 23 53  1  0
 23 54  1  0
 25 55  1  0
 26 56  1  0
 29 57  1  0
 29 58  1  0
 30 59  1  0
 30 60  1  0
 31 61  1  0
 32 62  1  0
 32 63  1  0
 33 64  1  0
 33 65  1  0
 34 66  1  0
 35 67  1  0
 36 68  1  0
 37 69  1  0
 39 70  1  0
 39 71  1  0
 40 72  1  0
 40 73  1  0
M  END
>  <type>  (37) 
designed

$$$$
E03
     RDKit          3D

 62 66  0  0  0  0  0  0  0  0999 V2000
    1.5626   -1.1796   -1.8905 O   0  0  0  0  0  0  0  0  0  0  0  0
    2.0350   -0.6102   -0.9101 C   0  0  0  0  0  0  0  0  0  0  0  0
    3.4972   -0.6949   -0.6985 C   0  0  0  0  0  0  0  0  0  0  0  0
    4.0138   -1.1428    0.5196 C   0  0  0  0  0  0  0  0  0  0  0  0
    5.3961   -1.2355    0.6909 C   0  0  0  0  0  0  0  0  0  0  0  0
    6.2745   -0.8973   -0.3533 C   0  0  0  0  0  0  0  0  0  0  0  0
    7.6700   -0.9852   -0.1918 C   0  0  0  0  0  0  0  0  0  0  0  0
    8.5339   -0.6547   -1.2379 C   0  0  0  0  0  0  0  0  0  0  0  0
    9.9004   -0.6989   -1.1994 O   0  0  0  0  0  0  0  0  0  0  0  0
   10.4988   -1.1546    0.0071 C   0  0  0  0  0  0  0  0  0  0  0  0
    8.0011   -0.2337   -2.4562 C   0  0  0  0  0  0  0  0  0  0  0  0
    6.6197   -0.1419   -2.6365 C   0  0  0  0  0  0  0  0  0  0  0  0
    5.7434   -0.4683   -1.5934 C   0  0  0  0  0  0  0  0  0  0  0  0
    4.3528   -0.3799   -1.7576 C   0  0  0  0  0  0  0  0  0  0  0  0
    1.2596    0.0832    0.0191 N   0  0  0  0  0  0  0  0  0  0  0  0
   -0.1841    0.0742   -0.2160 C   0  0  0  0  0  0  0  0  0  0  0  0
   -1.0136    0.5778    0.9493 C   0  0  0  0  0  0  0  0  0  0  0  0
   -2.3591    0.4301    0.8458 N   0  0  0  0  0  0  0  0  0  0  0  0
   -3.1175    0.8869    1.8829 C   0  0  0  0  0  0  0  0  0  0  0  0
   -4.5996    0.7082    1.7451 C   0  0  0  0  0  0  0  0  0  0  0  0
   -5.3813    1.1329    2.5880 O   0  0  0  0  0  0  0  0  0  0  0  0
   -4.9854    0.0459    0.5967 N   0  0  0  0  0  0  0  0  0  0  0  0
   -6.3714   -0.0800    0.1942 C   0  0  0  0  0  0  0  0  0  0  0  0
   -6.8576    1.2066   -0.4886 C   0  0  0  0  0  0  0  0  0  0  0  0
   -8.2977    1.0747   -0.9767 C   0  0  0  0  0  0  0  0  0  0  0  0
   -8.4735   -0.1448   -1.8645 C   0  0  0  0  0  0  0  0  0  0  0  0
   -9.7791   -0.2738   -2.2049 F   0  0  0  0  0  0  0  0  0  0  0  0
   -7.7891    0.0452   -3.0224 F   0  0  0  0  0  0  0  0  0  0  0  0
   -7.9914   -1.4268   -1.2074 C   0  0  0  0  0  0  0  0  0  0  0  0
   -6.5503   -1.2957   -0.7224 C   0  0  0  0  0  0  0  0  0  0  0  0
   -2.5968    1.4931    3.0155 C   0  0  0  0  0  0  0  0  0  0  0  0
   -1.2177    1.6432    3.1000 C   0  0  0  0  0  0  0  0  0  0  0  0
   -0.4066    1.1939    2.0524 C   0  0  0  0  0  0  0  0  0  0  0  0
    1.0916    1.3130    2.1434 C   0  0  0  0  0  0  0  0  0  0  0  0
    1.7569    1.2353    0.7709 C   0  0  0  0  0  0  0  0  0  0  0  0
    3.3472   -1.4304    1.3285 H   0  0  0  0  0  0  0  0  0  0  0  0
    5.7852   -1.5847    1.6452 H   0  0  0  0  0  0  0  0  0  0  0  0
    8.0608   -1.3175    0.7647 H   0  0  0  0  0  0  0  0  0  0  0  0
   10.2022   -2.1847    0.2309 H   0  0  0  0  0  0  0  0  0  0  0  0
   11.5840   -1.1439   -0.1331 H   0  0  0  0  0  0  0  0  0  0  0  0
   10.2643   -0.4847    0.8408 H   0  0  0  0  0  0  0  0  0  0  0  0
    8.6684    0.0229   -3.2757 H   0  0  0  0  0  0  0  0  0  0  0  0
    6.2369    0.1856   -3.6007 H   0  0  0  0  0  0  0  0  0  0  0  0
    3.9274   -0.0684   -2.7098 H   0  0  0  0  0  0  0  0  0  0  0  0
   -0.4974   -0.9471   -0.4631 H   0  0  0  0  0  0  0  0  0  0  0  0
   -0.3817    0.7110   -1.0871 H   0  0  0  0  0  0  0  0  0  0  0  0
   -4.2356   -0.1416   -0.0667 H   0  0  0  0  0  0  0  0  0  0  0  0
   -6.9680   -0.2349    1.1028 H   0  0  0  0  0  0  0  0  0  0  0  0
   -6.2043    1.4445   -1.3385 H   0  0  0  0  0  0  0  0  0  0  0  0
   -6.7849    2.0549    0.2026 H   0  0  0  0  0  0  0  0  0  0  0  0
   -8.5776    1.9768   -1.5322 H   0  0  0  0  0  0  0  0  0  0  0  0
   -8.9789    1.0082   -0.1199 H   0  0  0  0  0  0  0  0  0  0  0  0
   -8.0610   -2.2545   -1.9222 H   0  0  0  0  0  0  0  0  0  0  0  0
   -8.6486   -1.6801   -0.3669 H   0  0  0  0  0  0  0  0  0  0  0  0
   -6.2572   -2.2104   -0.1928 H   0  0  0  0  0  0  0  0  0  0  0  0
   -5.8807   -1.2121   -1.5886 H   0  0  0  0  0  0  0  0  0  0  0  0
   -3.2483    1.8365    3.8127 H   0  0  0  0  0  0  0  0  0  0  0  0
   -0.7816    2.1078    3.9813 H   0  0  0  0  0  0  0  0  0  0  0  0
    1.4590    0.4952    2.7756 H   0  0  0  0  0  0  0  0  0  0  0  0
    1.3683    2.2601    2.6208 H   0  0  0  0  0  0  0  0  0  0  0  0
    1.5237    2.1289    0.1769 H   0  0  0  0  0  0  0  0  0  0  0  0
    2.8426    1.2171    0.8858 H   0  0  0  0  0  0  0  0  0  0  0  0
  1  2  2  0
  2  3  1  0
  3  4  2  0
  4  5  1  0
  5  6  2  0
  6  7  1  0
  7  8  2  0
  8  9  1  0
  9 10  1  0
  8 11  1  0
 11 12  2  0
 12 13  1  0
 13 14  2  0
  2 15  1  0
 15 16  1  0
 16 17  1  0
 17 18  2  0
 18 19  1  0
 19 20  1  0
 20 21  2  0
 20 22  1  0
 22 23  1  0
 23 24  1  0
 24 25  1  0
 25 26  1  0
 26 27  1  0
 26 28  1  0
 26 29  1  0
 29 30  1  0
 19 31  2  0
 31 32  1  0
 32 33  2  0
 33 34  1  0
 34 35  1  0
 35 15  1  0
 33 17  1  0
 14  3  1  0
 30 23  1  0
 13  6  1  0
  4 36  1  0
  5 37  1  0
  7 38  1  0
 10 39  1  0
 10 40  1  0
 10 41  1  0
 11 42  1  0
 12 43  1  0
 14 44  1  0
 16 45  1  0
 16 46  1  0
 22 47  1  0
 23 48  1  0
 24 49  1  0
 24 50  1  0
 25 51  1  0
 25 52  1  0
 29 53  1  0
 29 54  1  0
 30 55  1  0
 30 56  1  0
 31 57  1  0
 32 58  1  0
 34 59  1  0
 34 60  1  0
 35 61  1  0
 35 62  1  0
M  END
>  <type>  (38) 
designed

$$$$
F01
     RDKit          3D

 62 67  0  0  0  0  0  0  0  0999 V2000
    3.4373   -2.5585    0.7401 O   0  0  0  0  0  0  0  0  0  0  0  0
    3.8688   -1.4308    0.5183 C   0  0  0  0  0  0  0  0  0  0  0  0
    5.3242   -1.2722    0.3456 C   0  0  0  0  0  0  0  0  0  0  0  0
    6.1850   -1.9267    1.2087 C   0  0  0  0  0  0  0  0  0  0  0  0
    7.5360   -1.8505    1.1236 N   0  0  0  0  0  0  0  0  0  0  0  0
    8.0658   -1.1263    0.1203 C   0  0  0  0  0  0  0  0  0  0  0  0
    9.4452   -1.0346   -0.0014 C   0  0  0  0  0  0  0  0  0  0  0  0
   10.0455   -0.3023   -1.0304 C   0  0  0  0  0  0  0  0  0  0  0  0
    9.2546    0.3566   -1.9652 C   0  0  0  0  0  0  0  0  0  0  0  0
    7.8665    0.2830   -1.8680 C   0  0  0  0  0  0  0  0  0  0  0  0
    7.2658   -0.4514   -0.8305 C   0  0  0  0  0  0  0  0  0  0  0  0
    5.8726   -0.5409   -0.7062 C   0  0  0  0  0  0  0  0  0  0  0  0
    3.0451   -0.3127    0.3866 N   0  0  0  0  0  0  0  0  0  0  0  0
    1.6054   -0.5687    0.4409 C   0  0  0  0  0  0  0  0  0  0  0  0
    0.7464    0.6019    0.0049 C   0  0  0  0  0  0  0  0  0  0  0  0
   -0.5774    0.3537   -0.1645 N   0  0  0  0  0  0  0  0  0  0  0  0
   -1.3640    1.4023   -0.5418 C   0  0  0  0  0  0  0  0  0  0  0  0
   -2.8186    1.0991   -0.7420 C   0  0  0  0  0  0  0  0  0  0  0  0
   -3.6179    1.9749   -1.0484 O   0  0  0  0  0  0  0  0  0  0  0  0
   -3.1449   -0.2259   -0.5562 N   0  0  0  0  0  0  0  0  0  0  0  0
   -4.4995   -0.7261   -0.6251 C   0  0  0  0  0  0  0  0  0  0  0  0
   -5.2233   -0.7415    0.7081 C   0  0  0  0  0  0  0  0  0  0  0  0
   -4.4686   -0.8713    1.8955 C   0  0  0  0  0  0  0  0  0  0  0  0
   -5.0625   -0.7928    3.1564 C   0  0  0  0  0  0  0  0  0  0  0  0
   -6.4300   -0.5859    3.2650 C   0  0  0  0  0  0  0  0  0  0  0  0
   -7.2082   -0.4878    2.1130 C   0  0  0  0  0  0  0  0  0  0  0  0
   -6.6266   -0.5958    0.8330 C   0  0  0  0  0  0  0  0  0  0  0  0
   -7.5129   -0.5762   -0.2878 N   0  0  0  0  0  0  0  0  0  0  0  0
   -8.7094    0.1177   -0.3621 C   0  0  0  0  0  0  0  0  0  0  0  0
   -9.2997   -0.1200   -1.5837 C   0  0  0  0  0  0  0  0  0  0  0  0
   -8.4663   -1.0178   -2.2796 C   0  0  0  0  0  0  0  0  0  0  0  0
   -7.3939   -1.2971   -1.4604 C   0  0  0  0  0  0  0  0  0  0  0  0
   -0.8920    2.6893   -0.7483 C   0  0  0  0  0  0  0  0  0  0  0  0
    0.4655    2.9248   -0.5644 C   0  0  0  0  0  0  0  0  0  0  0  0
    1.3037    1.8759   -0.1727 C   0  0  0  0  0  0  0  0  0  0  0  0
    2.7845    2.1020   -0.0171 C   0  0  0  0  0  0  0  0  0  0  0  0
    3.4462    1.0214    0.8357 C   0  0  0  0  0  0  0  0  0  0  0  0
    5.8088   -2.5458    2.0198 H   0  0  0  0  0  0  0  0  0  0  0  0
   10.0711   -1.5512    0.7228 H   0  0  0  0  0  0  0  0  0  0  0  0
   11.1295   -0.2540   -1.0983 H   0  0  0  0  0  0  0  0  0  0  0  0
    9.7178    0.9237   -2.7693 H   0  0  0  0  0  0  0  0  0  0  0  0
    7.2575    0.7993   -2.6069 H   0  0  0  0  0  0  0  0  0  0  0  0
    5.2213   -0.0581   -1.4296 H   0  0  0  0  0  0  0  0  0  0  0  0
    1.3516   -0.8236    1.4773 H   0  0  0  0  0  0  0  0  0  0  0  0
    1.3758   -1.4361   -0.1893 H   0  0  0  0  0  0  0  0  0  0  0  0
   -2.3861   -0.8426   -0.2827 H   0  0  0  0  0  0  0  0  0  0  0  0
   -5.0325   -0.0985   -1.3452 H   0  0  0  0  0  0  0  0  0  0  0  0
   -4.4319   -1.7486   -1.0094 H   0  0  0  0  0  0  0  0  0  0  0  0
   -3.3910   -1.0106    1.8525 H   0  0  0  0  0  0  0  0  0  0  0  0
   -4.4520   -0.8822    4.0507 H   0  0  0  0  0  0  0  0  0  0  0  0
   -6.8964   -0.5186    4.2444 H   0  0  0  0  0  0  0  0  0  0  0  0
   -8.2833   -0.3795    2.2394 H   0  0  0  0  0  0  0  0  0  0  0  0
   -9.0265    0.7682    0.4412 H   0  0  0  0  0  0  0  0  0  0  0  0
  -10.2314    0.3088   -1.9297 H   0  0  0  0  0  0  0  0  0  0  0  0
   -8.6361   -1.4368   -3.2630 H   0  0  0  0  0  0  0  0  0  0  0  0
   -6.5844   -1.9941   -1.6133 H   0  0  0  0  0  0  0  0  0  0  0  0
   -1.5636    3.4861   -1.0514 H   0  0  0  0  0  0  0  0  0  0  0  0
    0.8629    3.9231   -0.7310 H   0  0  0  0  0  0  0  0  0  0  0  0
    3.2330    2.1020   -1.0185 H   0  0  0  0  0  0  0  0  0  0  0  0
    2.9731    3.0818    0.4372 H   0  0  0  0  0  0  0  0  0  0  0  0
    3.1340    1.1124    1.8845 H   0  0  0  0  0  0  0  0  0  0  0  0
    4.5306    1.1509    0.8275 H   0  0  0  0  0  0  0  0  0  0  0  0
  1  2  2  0
  2  3  1  0
  3  4  2  0
  4  5  1  0
  5  6  2  0
  6  7  1  0
  7  8  2  0
  8  9  1  0
  9 10  2  0
 10 11  1  0
 11 12  2  0
  2 13  1  0
 13 14  1  0
 14 15  1  0
 15 16  2  0
 16 17  1  0
 17 18  1  0
 18 19  2  0
 18 20  1  0
 20 21  1  0
 21 22  1  0
 22 23  2  0
 23 24  1  0
 24 25  2  0
 25 26  1  0
 26 27  2  0
 27 28  1  0
 28 29  1  0
 29 30  2  0
 30 31  1  0
 31 32  2  0
 17 33  2  0
 33 34  1  0
 34 35  2  0
 35 36  1  0
 36 37  1  0
 37 13  1  0
 35 15  1  0
 12  3  1  0
 11  6  1  0
 27 22  1  0
 32 28  1  0
  4 38  1  0
  7 39  1  0
  8 40  1  0
  9 41  1  0
 10 42  1  0
 12 43  1  0
 14 44  1  0
 14 45  1  0
 20 46  1  0
 21 47  1  0
 21 48  1  0
 23 49  1  0
 24 50  1  0
 25 51  1  0
 26 52  1  0
 29 53  1  0
 30 54  1  0
 31 55  1  0
 32 56  1  0
 33 57  1  0
 34 58  1  0
 36 59  1  0
 36 60  1  0
 37 61  1  0
 37 62  1  0
M  END
>  <type>  (39) 
designed

$$$$
F02
     RDKit          3D

 68 73  0  0  0  0  0  0  0  0999 V2000
    4.0211    0.9083   -2.1514 O   0  0  0  0  0  0  0  0  0  0  0  0
    4.5821    0.4516   -1.1584 C   0  0  0  0  0  0  0  0  0  0  0  0
    6.0501    0.3382   -1.1976 C   0  0  0  0  0  0  0  0  0  0  0  0
    6.6862   -0.8646   -0.9478 C   0  0  0  0  0  0  0  0  0  0  0  0
    8.0306   -1.0258   -0.9795 N   0  0  0  0  0  0  0  0  0  0  0  0
    8.7843    0.0393   -1.3115 C   0  0  0  0  0  0  0  0  0  0  0  0
   10.1653   -0.0899   -1.3580 C   0  0  0  0  0  0  0  0  0  0  0  0
   10.9935    0.9842   -1.6999 C   0  0  0  0  0  0  0  0  0  0  0  0
   10.4346    2.2193   -2.0093 C   0  0  0  0  0  0  0  0  0  0  0  0
    9.0505    2.3783   -1.9732 C   0  0  0  0  0  0  0  0  0  0  0  0
    8.2210    1.2989   -1.6219 C   0  0  0  0  0  0  0  0  0  0  0  0
    6.8268    1.4316   -1.5669 C   0  0  0  0  0  0  0  0  0  0  0  0
    3.8942    0.0514   -0.0158 N   0  0  0  0  0  0  0  0  0  0  0  0
    2.4283    0.0237   -0.1088 C   0  0  0  0  0  0  0  0  0  0  0  0
    1.7350   -0.6929    1.0307 C   0  0  0  0  0  0  0  0  0  0  0  0
    0.5631   -1.3218    0.7741 N   0  0  0  0  0  0  0  0  0  0  0  0
   -0.0580   -1.9186    1.8329 C   0  0  0  0  0  0  0  0  0  0  0  0
   -1.3340   -2.6449    1.5276 C   0  0  0  0  0  0  0  0  0  0  0  0
   -1.9507   -3.2510    2.3975 O   0  0  0  0  0  0  0  0  0  0  0  0
   -1.7256   -2.5634    0.2095 N   0  0  0  0  0  0  0  0  0  0  0  0
   -2.9728   -3.0975   -0.2700 C   0  0  0  0  0  0  0  0  0  0  0  0
   -4.0678   -2.0655   -0.2276 C   0  0  0  0  0  0  0  0  0  0  0  0
   -4.8769   -1.9376    0.9036 C   0  0  0  0  0  0  0  0  0  0  0  0
   -5.8969   -0.9798    0.9430 C   0  0  0  0  0  0  0  0  0  0  0  0
   -6.1469   -0.1153   -0.1355 C   0  0  0  0  0  0  0  0  0  0  0  0
   -7.1883    0.8241   -0.0448 N   0  0  0  0  0  0  0  0  0  0  0  0
   -8.5231    0.2170    0.1731 C   0  0  0  0  0  0  0  0  0  0  0  0
   -9.5758    1.3044    0.4963 C   0  0  0  0  0  0  0  0  0  0  0  0
   -9.6431    2.3875   -0.5071 N   0  0  0  0  0  0  0  0  0  0  0  0
   -8.2920    2.9724   -0.6408 C   0  0  0  0  0  0  0  0  0  0  0  0
   -7.2076    1.9359   -1.0165 C   0  0  0  0  0  0  0  0  0  0  0  0
   -5.2977   -0.2292   -1.2456 C   0  0  0  0  0  0  0  0  0  0  0  0
   -4.2763   -1.1897   -1.2962 C   0  0  0  0  0  0  0  0  0  0  0  0
    0.4271   -1.8921    3.1341 C   0  0  0  0  0  0  0  0  0  0  0  0
    1.6269   -1.2316    3.3752 C   0  0  0  0  0  0  0  0  0  0  0  0
    2.3011   -0.6355    2.3092 C   0  0  0  0  0  0  0  0  0  0  0  0
    3.6092    0.0817    2.4793 C   0  0  0  0  0  0  0  0  0  0  0  0
    4.5218   -0.2206    1.2860 C   0  0  0  0  0  0  0  0  0  0  0  0
    6.1271   -1.7664   -0.7160 H   0  0  0  0  0  0  0  0  0  0  0  0
   10.6107   -1.0540   -1.1223 H   0  0  0  0  0  0  0  0  0  0  0  0
   12.0721    0.8490   -1.7261 H   0  0  0  0  0  0  0  0  0  0  0  0
   11.0749    3.0565   -2.2781 H   0  0  0  0  0  0  0  0  0  0  0  0
    8.6229    3.3483   -2.2185 H   0  0  0  0  0  0  0  0  0  0  0  0
    6.3456    2.3755   -1.8106 H   0  0  0  0  0  0  0  0  0  0  0  0
    2.1462   -0.4389   -1.0618 H   0  0  0  0  0  0  0  0  0  0  0  0
    2.0827    1.0643   -0.1273 H   0  0  0  0  0  0  0  0  0  0  0  0
   -1.1802   -1.9429   -0.3808 H   0  0  0  0  0  0  0  0  0  0  0  0
   -2.8130   -3.4347   -1.3003 H   0  0  0  0  0  0  0  0  0  0  0  0
   -3.2547   -3.9790    0.3181 H   0  0  0  0  0  0  0  0  0  0  0  0
   -4.7103   -2.5754    1.7697 H   0  0  0  0  0  0  0  0  0  0  0  0
   -6.4840   -0.8934    1.8542 H   0  0  0  0  0  0  0  0  0  0  0  0
   -8.8257   -0.3305   -0.7289 H   0  0  0  0  0  0  0  0  0  0  0  0
   -8.5175   -0.4941    1.0065 H   0  0  0  0  0  0  0  0  0  0  0  0
  -10.5639    0.8365    0.5706 H   0  0  0  0  0  0  0  0  0  0  0  0
   -9.3607    1.7433    1.4791 H   0  0  0  0  0  0  0  0  0  0  0  0
   -9.8973    1.9705   -1.4032 H   0  0  0  0  0  0  0  0  0  0  0  0
   -8.3254    3.7523   -1.4091 H   0  0  0  0  0  0  0  0  0  0  0  0
   -8.0216    3.4683    0.3001 H   0  0  0  0  0  0  0  0  0  0  0  0
   -7.4155    1.5557   -2.0250 H   0  0  0  0  0  0  0  0  0  0  0  0
   -6.2375    2.4482   -1.0293 H   0  0  0  0  0  0  0  0  0  0  0  0
   -5.4175    0.4140   -2.1109 H   0  0  0  0  0  0  0  0  0  0  0  0
   -3.6479   -1.2467   -2.1822 H   0  0  0  0  0  0  0  0  0  0  0  0
   -0.1159   -2.3783    3.9386 H   0  0  0  0  0  0  0  0  0  0  0  0
    2.0302   -1.1958    4.3842 H   0  0  0  0  0  0  0  0  0  0  0  0
    3.4147    1.1590    2.5479 H   0  0  0  0  0  0  0  0  0  0  0  0
    4.1081   -0.2318    3.4038 H   0  0  0  0  0  0  0  0  0  0  0  0
    5.4466    0.3571    1.3812 H   0  0  0  0  0  0  0  0  0  0  0  0
    4.7875   -1.2847    1.2884 H   0  0  0  0  0  0  0  0  0  0  0  0
  1  2  2  0
  2  3  1  0
  3  4  2  0
  4  5  1  0
  5  6  2  0
  6  7  1  0
  7  8  2  0
  8  9  1  0
  9 10  2  0
 10 11  1  0
 11 12  2  0
  2 13  1  0
 13 14  1  0
 14 15  1  0
 15 16  2  0
 16 17  1  0
 17 18  1  0
 18 19  2  0
 18 20  1  0
 20 21  1  0
 21 22  1  0
 22 23  2  0
 23 24  1  0
 24 25  2  0
 25 26  1  0
 26 27  1  0
 27 28  1  0
 28 29  1  0
 29 30  1  0
 30 31  1  0
 25 32  1  0
 32 33  2  0
 17 34  2  0
 34 35  1  0
 35 36  2  0
 36 37  1  0
 37 38  1  0
 38 13  1  0
 36 15  1  0
 12  3  1  0
 11  6  1  0
 33 22  1  0
 31 26  1  0
  4 39  1  0
  7 40  1  0
  8 41  1  0
  9 42  1  0
 10 43  1  0
 12 44  1  0
 14 45  1  0
 14 46  1  0
 20 47  1  0
 21 48  1  0
 21 49  1  0
 23 50  1  0
 24 51  1  0
 27 52  1  0
 27 53  1  0
 28 54  1  0
 28 55  1  0
 29 56  1  0
 30 57  1  0
 30 58  1  0
 31 59  1  0
 31 60  1  0
 32 61  1  0
 33 62  1  0
 34 63  1  0
 35 64  1  0
 37 65  1  0
 37 66  1  0
 38 67  1  0
 38 68  1  0
M  END
>  <type>  (40) 
designed

$$$$
G01
     RDKit          3D

 57 61  0  0  0  0  0  0  0  0999 V2000
   -4.1463   -1.9640   -1.7791 O   0  0  0  0  0  0  0  0  0  0  0  0
   -4.6126   -1.1539   -0.9822 C   0  0  0  0  0  0  0  0  0  0  0  0
   -6.0152   -1.3439   -0.5452 C   0  0  0  0  0  0  0  0  0  0  0  0
   -7.0012   -1.5699   -1.5134 C   0  0  0  0  0  0  0  0  0  0  0  0
   -8.3234   -1.7782   -1.1179 C   0  0  0  0  0  0  0  0  0  0  0  0
   -8.6425   -1.7768    0.2368 C   0  0  0  0  0  0  0  0  0  0  0  0
   -9.9117   -1.9771    0.6142 F   0  0  0  0  0  0  0  0  0  0  0  0
   -7.6643   -1.5792    1.2078 C   0  0  0  0  0  0  0  0  0  0  0  0
   -6.3406   -1.3698    0.8185 C   0  0  0  0  0  0  0  0  0  0  0  0
   -3.8790   -0.0936   -0.4517 N   0  0  0  0  0  0  0  0  0  0  0  0
   -2.4771   -0.0115   -0.8606 C   0  0  0  0  0  0  0  0  0  0  0  0
   -1.6386    0.9385   -0.0276 C   0  0  0  0  0  0  0  0  0  0  0  0
   -0.2979    0.9082   -0.2367 N   0  0  0  0  0  0  0  0  0  0  0  0
    0.4664    1.7655    0.4995 C   0  0  0  0  0  0  0  0  0  0  0  0
    1.9452    1.7019    0.2620 C   0  0  0  0  0  0  0  0  0  0  0  0
    2.7250    2.4082    0.8892 O   0  0  0  0  0  0  0  0  0  0  0  0
    2.3177    0.7915   -0.7024 N   0  0  0  0  0  0  0  0  0  0  0  0
    3.6966    0.4710   -0.9957 C   0  0  0  0  0  0  0  0  0  0  0  0
    4.2531   -0.6759   -0.1719 C   0  0  0  0  0  0  0  0  0  0  0  0
    3.3687   -1.6697    0.3049 C   0  0  0  0  0  0  0  0  0  0  0  0
    3.7999   -2.6944    1.1485 C   0  0  0  0  0  0  0  0  0  0  0  0
    5.1302   -2.7575    1.5356 C   0  0  0  0  0  0  0  0  0  0  0  0
    6.0358   -1.8125    1.0563 C   0  0  0  0  0  0  0  0  0  0  0  0
    5.6201   -0.7891    0.1798 C   0  0  0  0  0  0  0  0  0  0  0  0
    6.6321    0.0793   -0.3326 N   0  0  0  0  0  0  0  0  0  0  0  0
    6.7017    0.6239   -1.6006 C   0  0  0  0  0  0  0  0  0  0  0  0
    7.8468    1.3832   -1.7087 C   0  0  0  0  0  0  0  0  0  0  0  0
    8.5321    1.2817   -0.4819 C   0  0  0  0  0  0  0  0  0  0  0  0
    7.7838    0.4620    0.3339 C   0  0  0  0  0  0  0  0  0  0  0  0
   -0.0457    2.6545    1.4317 C   0  0  0  0  0  0  0  0  0  0  0  0
   -1.4216    2.6770    1.6256 C   0  0  0  0  0  0  0  0  0  0  0  0
   -2.2397    1.8200    0.8820 C   0  0  0  0  0  0  0  0  0  0  0  0
   -3.7283    1.8016    1.1097 C   0  0  0  0  0  0  0  0  0  0  0  0
   -4.4822    1.1816   -0.0648 C   0  0  0  0  0  0  0  0  0  0  0  0
   -6.7380   -1.5884   -2.5689 H   0  0  0  0  0  0  0  0  0  0  0  0
   -9.1023   -1.9505   -1.8542 H   0  0  0  0  0  0  0  0  0  0  0  0
   -7.9388   -1.6015    2.2577 H   0  0  0  0  0  0  0  0  0  0  0  0
   -5.5681   -1.2413    1.5722 H   0  0  0  0  0  0  0  0  0  0  0  0
   -2.4560    0.3254   -1.9040 H   0  0  0  0  0  0  0  0  0  0  0  0
   -2.0329   -1.0127   -0.8169 H   0  0  0  0  0  0  0  0  0  0  0  0
    1.5689    0.2443   -1.1152 H   0  0  0  0  0  0  0  0  0  0  0  0
    3.7333    0.2025   -2.0562 H   0  0  0  0  0  0  0  0  0  0  0  0
    4.2765    1.3830   -0.8276 H   0  0  0  0  0  0  0  0  0  0  0  0
    2.3131   -1.6436    0.0422 H   0  0  0  0  0  0  0  0  0  0  0  0
    3.0908   -3.4354    1.5094 H   0  0  0  0  0  0  0  0  0  0  0  0
    5.4695   -3.5517    2.1952 H   0  0  0  0  0  0  0  0  0  0  0  0
    7.0798   -1.9268    1.3386 H   0  0  0  0  0  0  0  0  0  0  0  0
    5.9613    0.3974   -2.3523 H   0  0  0  0  0  0  0  0  0  0  0  0
    8.1614    1.9293   -2.5884 H   0  0  0  0  0  0  0  0  0  0  0  0
    9.4705    1.7506   -0.2162 H   0  0  0  0  0  0  0  0  0  0  0  0
    7.9591    0.1622    1.3577 H   0  0  0  0  0  0  0  0  0  0  0  0
    0.6113    3.3090    1.9955 H   0  0  0  0  0  0  0  0  0  0  0  0
   -1.8487    3.3592    2.3569 H   0  0  0  0  0  0  0  0  0  0  0  0
   -4.0990    2.8200    1.2742 H   0  0  0  0  0  0  0  0  0  0  0  0
   -3.9246    1.2189    2.0183 H   0  0  0  0  0  0  0  0  0  0  0  0
   -5.5405    1.0803    0.1838 H   0  0  0  0  0  0  0  0  0  0  0  0
   -4.4339    1.8372   -0.9440 H   0  0  0  0  0  0  0  0  0  0  0  0
  1  2  2  0
  2  3  1  0
  3  4  2  0
  4  5  1  0
  5  6  2  0
  6  7  1  0
  6  8  1  0
  8  9  2  0
  2 10  1  0
 10 11  1  0
 11 12  1  0
 12 13  2  0
 13 14  1  0
 14 15  1  0
 15 16  2  0
 15 17  1  0
 17 18  1  0
 18 19  1  0
 19 20  2  0
 20 21  1  0
 21 22  2  0
 22 23  1  0
 23 24  2  0
 24 25  1  0
 25 26  1  0
 26 27  2  0
 27 28  1  0
 28 29  2  0
 14 30  2  0
 30 31  1  0
 31 32  2  0
 32 33  1  0
 33 34  1  0
 34 10  1  0
 32 12  1  0
  9  3  1  0
 24 19  1  0
 29 25  1  0
  4 35  1  0
  5 36  1  0
  8 37  1  0
  9 38  1  0
 11 39  1  0
 11 40  1  0
 17 41  1  0
 18 42  1  0
 18 43  1  0
 20 44  1  0
 21 45  1  0
 22 46  1  0
 23 47  1  0
 26 48  1  0
 27 49  1  0
 28 50  1  0
 29 51  1  0
 30 52  1  0
 31 53  1  0
 33 54  1  0
 33 55  1  0
 34 56  1  0
 34 57  1  0
M  END
>  <type>  (41) 
designed

$$$$
G02
     RDKit          3D

 63 67  0  0  0  0  0  0  0  0999 V2000
   -4.7892   -2.2191   -1.3896 O   0  0  0  0  0  0  0  0  0  0  0  0
   -5.3674   -1.2183   -0.9725 C   0  0  0  0  0  0  0  0  0  0  0  0
   -6.8456   -1.2371   -0.9630 C   0  0  0  0  0  0  0  0  0  0  0  0
   -7.5242   -1.4566   -2.1675 C   0  0  0  0  0  0  0  0  0  0  0  0
   -8.9192   -1.5014   -2.1735 C   0  0  0  0  0  0  0  0  0  0  0  0
   -9.6165   -1.3477   -0.9788 C   0  0  0  0  0  0  0  0  0  0  0  0
  -10.9545   -1.3951   -0.9877 F   0  0  0  0  0  0  0  0  0  0  0  0
   -8.9471   -1.1538    0.2265 C   0  0  0  0  0  0  0  0  0  0  0  0
   -7.5528   -1.1025    0.2391 C   0  0  0  0  0  0  0  0  0  0  0  0
   -4.7031   -0.0836   -0.5151 N   0  0  0  0  0  0  0  0  0  0  0  0
   -3.2445   -0.1812   -0.3908 C   0  0  0  0  0  0  0  0  0  0  0  0
   -2.5955    0.9246    0.4153 C   0  0  0  0  0  0  0  0  0  0  0  0
   -1.4529    0.6389    1.0847 N   0  0  0  0  0  0  0  0  0  0  0  0
   -0.8720    1.6605    1.7762 C   0  0  0  0  0  0  0  0  0  0  0  0
    0.3602    1.3118    2.5571 C   0  0  0  0  0  0  0  0  0  0  0  0
    0.9408    2.1431    3.2447 O   0  0  0  0  0  0  0  0  0  0  0  0
    0.7469   -0.0037    2.4335 N   0  0  0  0  0  0  0  0  0  0  0  0
    1.9401   -0.5341    3.0397 C   0  0  0  0  0  0  0  0  0  0  0  0
    3.0918   -0.5389    2.0709 C   0  0  0  0  0  0  0  0  0  0  0  0
    3.9546    0.5549    1.9854 C   0  0  0  0  0  0  0  0  0  0  0  0
    5.0270    0.5493    1.0823 C   0  0  0  0  0  0  0  0  0  0  0  0
    5.2762   -0.5321    0.2207 C   0  0  0  0  0  0  0  0  0  0  0  0
    6.3445   -0.5320   -0.6613 N   0  0  0  0  0  0  0  0  0  0  0  0
    7.0077    0.7216   -1.0574 C   0  0  0  0  0  0  0  0  0  0  0  0
    7.7090    0.5836   -2.4299 C   0  0  0  0  0  0  0  0  0  0  0  0
    8.6917   -0.5105   -2.5379 N   0  0  0  0  0  0  0  0  0  0  0  0
    8.3204   -1.6459   -1.6718 C   0  0  0  0  0  0  0  0  0  0  0  0
    6.8173   -1.7599   -1.3219 C   0  0  0  0  0  0  0  0  0  0  0  0
    4.3840   -1.6117    0.3131 C   0  0  0  0  0  0  0  0  0  0  0  0
    3.3106   -1.6204    1.2164 C   0  0  0  0  0  0  0  0  0  0  0  0
   -1.3667    2.9573    1.8047 C   0  0  0  0  0  0  0  0  0  0  0  0
   -2.5332    3.2308    1.0994 C   0  0  0  0  0  0  0  0  0  0  0  0
   -3.1696    2.1991    0.4078 C   0  0  0  0  0  0  0  0  0  0  0  0
   -4.4402    2.4107   -0.3633 C   0  0  0  0  0  0  0  0  0  0  0  0
   -5.3560    1.1946   -0.2055 C   0  0  0  0  0  0  0  0  0  0  0  0
   -6.9679   -1.5979   -3.0913 H   0  0  0  0  0  0  0  0  0  0  0  0
   -9.4653   -1.6639   -3.0981 H   0  0  0  0  0  0  0  0  0  0  0  0
   -9.5160   -1.0542    1.1458 H   0  0  0  0  0  0  0  0  0  0  0  0
   -7.0238   -0.9782    1.1794 H   0  0  0  0  0  0  0  0  0  0  0  0
   -2.8300   -0.1656   -1.4077 H   0  0  0  0  0  0  0  0  0  0  0  0
   -2.9959   -1.1518    0.0549 H   0  0  0  0  0  0  0  0  0  0  0  0
    0.2321   -0.5608    1.7579 H   0  0  0  0  0  0  0  0  0  0  0  0
    1.7171   -1.5563    3.3666 H   0  0  0  0  0  0  0  0  0  0  0  0
    2.1966    0.0406    3.9385 H   0  0  0  0  0  0  0  0  0  0  0  0
    3.8008    1.4226    2.6244 H   0  0  0  0  0  0  0  0  0  0  0  0
    5.6826    1.4165    1.0884 H   0  0  0  0  0  0  0  0  0  0  0  0
    7.7444    0.9986   -0.2925 H   0  0  0  0  0  0  0  0  0  0  0  0
    6.2800    1.5384   -1.1454 H   0  0  0  0  0  0  0  0  0  0  0  0
    8.2052    1.5290   -2.6813 H   0  0  0  0  0  0  0  0  0  0  0  0
    6.9452    0.4222   -3.2024 H   0  0  0  0  0  0  0  0  0  0  0  0
    9.6064   -0.1726   -2.2376 H   0  0  0  0  0  0  0  0  0  0  0  0
    8.6554   -2.5705   -2.1526 H   0  0  0  0  0  0  0  0  0  0  0  0
    8.8829   -1.5549   -0.7340 H   0  0  0  0  0  0  0  0  0  0  0  0
    6.7063   -2.6296   -0.6630 H   0  0  0  0  0  0  0  0  0  0  0  0
    6.2290   -1.9404   -2.2308 H   0  0  0  0  0  0  0  0  0  0  0  0
    4.4904   -2.4748   -0.3368 H   0  0  0  0  0  0  0  0  0  0  0  0
    2.6484   -2.4826    1.2425 H   0  0  0  0  0  0  0  0  0  0  0  0
   -0.8584    3.7345    2.3670 H   0  0  0  0  0  0  0  0  0  0  0  0
   -2.9423    4.2381    1.1060 H   0  0  0  0  0  0  0  0  0  0  0  0
   -4.1895    2.5713   -1.4177 H   0  0  0  0  0  0  0  0  0  0  0  0
   -4.9678    3.2995   -0.0030 H   0  0  0  0  0  0  0  0  0  0  0  0
   -5.6974    1.1255    0.8351 H   0  0  0  0  0  0  0  0  0  0  0  0
   -6.2409    1.3220   -0.8374 H   0  0  0  0  0  0  0  0  0  0  0  0
  1  2  2  0
  2  3  1  0
  3  4  2  0
  4  5  1  0
  5  6  2  0
  6  7  1  0
  6  8  1  0
  8  9  2  0
  2 10  1  0
 10 11  1  0
 11 12  1  0
 12 13  2  0
 13 14  1  0
 14 15  1  0
 15 16  2  0
 15 17  1  0
 17 18  1  0
 18 19  1  0
 19 20  2  0
 20 21  1  0
 21 22  2  0
 22 23  1  0
 23 24  1  0
 24 25  1  0
 25 26  1  0
 26 27  1  0
 27 28  1  0
 22 29  1  0
 29 30  2  0
 14 31  2  0
 31 32  1  0
 32 33  2  0
 33 34  1  0
 34 35  1  0
 35 10  1  0
 33 12  1  0
  9  3  1  0
 30 19  1  0
 28 23  1  0
  4 36  1  0
  5 37  1  0
  8 38  1  0
  9 39  1  0
 11 40  1  0
 11 41  1  0
 17 42  1  0
 18 43  1  0
 18 44  1  0
 20 45  1  0
 21 46  1  0
 24 47  1  0
 24 48  1  0
 25 49  1  0
 25 50  1  0
 26 51  1  0
 27 52  1  0
 27 53  1  0
 28 54  1  0
 28 55  1  0
 29 56  1  0
 30 57  1  0
 31 58  1  0
 32 59  1  0
 34 60  1  0
 34 61  1  0
 35 62  1  0
 35 63  1  0
M  END
>  <type>  (42) 
designed

$$$$
G03
     RDKit          3D

 52 55  0  0  0  0  0  0  0  0999 V2000
   -3.1459   -1.3312    2.2374 O   0  0  0  0  0  0  0  0  0  0  0  0
   -3.6448   -0.4265    1.5747 C   0  0  0  0  0  0  0  0  0  0  0  0
   -5.0680   -0.1248    1.8004 C   0  0  0  0  0  0  0  0  0  0  0  0
   -5.4260    0.7583    2.8270 C   0  0  0  0  0  0  0  0  0  0  0  0
   -6.7752    1.0320    3.0496 C   0  0  0  0  0  0  0  0  0  0  0  0
   -7.7406    0.4184    2.2528 C   0  0  0  0  0  0  0  0  0  0  0  0
   -9.0349    0.6824    2.4701 F   0  0  0  0  0  0  0  0  0  0  0  0
   -7.3859   -0.4681    1.2373 C   0  0  0  0  0  0  0  0  0  0  0  0
   -6.0392   -0.7503    1.0094 C   0  0  0  0  0  0  0  0  0  0  0  0
   -2.9470    0.3279    0.6370 N   0  0  0  0  0  0  0  0  0  0  0  0
   -1.5900   -0.1234    0.3255 C   0  0  0  0  0  0  0  0  0  0  0  0
   -0.7495    0.8448   -0.4849 C   0  0  0  0  0  0  0  0  0  0  0  0
    0.5192    0.4545   -0.7686 N   0  0  0  0  0  0  0  0  0  0  0  0
    1.2843    1.3101   -1.5046 C   0  0  0  0  0  0  0  0  0  0  0  0
    2.6806    0.8550   -1.8042 C   0  0  0  0  0  0  0  0  0  0  0  0
    3.4551    1.5406   -2.4612 O   0  0  0  0  0  0  0  0  0  0  0  0
    3.0012   -0.3777   -1.2703 N   0  0  0  0  0  0  0  0  0  0  0  0
    4.3427   -0.9236   -1.3132 C   0  0  0  0  0  0  0  0  0  0  0  0
    5.2278   -0.2852   -0.2324 C   0  0  0  0  0  0  0  0  0  0  0  0
    6.6294   -0.8903   -0.2247 C   0  0  0  0  0  0  0  0  0  0  0  0
    6.5797   -2.4035   -0.1011 C   0  0  0  0  0  0  0  0  0  0  0  0
    7.8351   -2.9071   -0.1856 F   0  0  0  0  0  0  0  0  0  0  0  0
    6.1123   -2.7343    1.1308 F   0  0  0  0  0  0  0  0  0  0  0  0
    5.7007   -3.0531   -1.1564 C   0  0  0  0  0  0  0  0  0  0  0  0
    4.2994   -2.4488   -1.1613 C   0  0  0  0  0  0  0  0  0  0  0  0
    0.8454    2.5421   -1.9636 C   0  0  0  0  0  0  0  0  0  0  0  0
   -0.4562    2.9243   -1.6627 C   0  0  0  0  0  0  0  0  0  0  0  0
   -1.2772    2.0635   -0.9278 C   0  0  0  0  0  0  0  0  0  0  0  0
   -2.6809    2.4635   -0.5681 C   0  0  0  0  0  0  0  0  0  0  0  0
   -3.5684    1.2463   -0.3162 C   0  0  0  0  0  0  0  0  0  0  0  0
   -4.6628    1.2164    3.4517 H   0  0  0  0  0  0  0  0  0  0  0  0
   -7.0832    1.7076    3.8433 H   0  0  0  0  0  0  0  0  0  0  0  0
   -8.1617   -0.9403    0.6423 H   0  0  0  0  0  0  0  0  0  0  0  0
   -5.7492   -1.4543    0.2327 H   0  0  0  0  0  0  0  0  0  0  0  0
   -1.0672   -0.3479    1.2633 H   0  0  0  0  0  0  0  0  0  0  0  0
   -1.6845   -1.0585   -0.2405 H   0  0  0  0  0  0  0  0  0  0  0  0
    2.2984   -0.7767   -0.6478 H   0  0  0  0  0  0  0  0  0  0  0  0
    4.7672   -0.6795   -2.2961 H   0  0  0  0  0  0  0  0  0  0  0  0
    4.7650   -0.4216    0.7537 H   0  0  0  0  0  0  0  0  0  0  0  0
    5.3014    0.7970   -0.3908 H   0  0  0  0  0  0  0  0  0  0  0  0
    7.1628   -0.6122   -1.1426 H   0  0  0  0  0  0  0  0  0  0  0  0
    7.2022   -0.4719    0.6115 H   0  0  0  0  0  0  0  0  0  0  0  0
    5.6317   -4.1296   -0.9648 H   0  0  0  0  0  0  0  0  0  0  0  0
    6.1626   -2.9375   -2.1440 H   0  0  0  0  0  0  0  0  0  0  0  0
    3.7849   -2.7157   -0.2279 H   0  0  0  0  0  0  0  0  0  0  0  0
    3.7109   -2.8907   -1.9753 H   0  0  0  0  0  0  0  0  0  0  0  0
    1.5021    3.1897   -2.5354 H   0  0  0  0  0  0  0  0  0  0  0  0
   -0.8244    3.8894   -2.0022 H   0  0  0  0  0  0  0  0  0  0  0  0
   -2.6383    3.0835    0.3360 H   0  0  0  0  0  0  0  0  0  0  0  0
   -3.1228    3.0659   -1.3698 H   0  0  0  0  0  0  0  0  0  0  0  0
   -4.5453    1.5873    0.0352 H   0  0  0  0  0  0  0  0  0  0  0  0
   -3.7326    0.6838   -1.2436 H   0  0  0  0  0  0  0  0  0  0  0  0
  1  2  2  0
  2  3  1  0
  3  4  2  0
  4  5  1  0
  5  6  2  0
  6  7  1  0
  6  8  1  0
  8  9  2  0
  2 10  1  0
 10 11  1  0
 11 12  1  0
 12 13  2  0
 13 14  1  0
 14 15  1  0
 15 16  2  0
 15 17  1  0
 17 18  1  0
 18 19  1  0
 19 20  1  0
 20 21  1  0
 21 22  1  0
 21 23  1  0
 21 24  1  0
 24 25  1  0
 14 26  2  0
 26 27  1  0
 27 28  2  0
 28 29  1  0
 29 30  1  0
 30 10  1  0
 28 12  1  0
  9  3  1  0
 25 18  1  0
  4 31  1  0
  5 32  1  0
  8 33  1  0
  9 34  1  0
 11 35  1  0
 11 36  1  0
 17 37  1  0
 18 38  1  0
 19 39  1  0
 19 40  1  0
 20 41  1  0
 20 42  1  0
 24 43  1  0
 24 44  1  0
 25 45  1  0
 25 46  1  0
 26 47  1  0
 27 48  1  0
 29 49  1  0
 29 50  1  0
 30 51  1  0
 30 52  1  0
M  END
>  <type>  (43) 
designed

$$$$
H01
     RDKit          3D

 60 64  0  0  0  0  0  0  0  0999 V2000
   -4.4828   -0.8896    2.3268 O   0  0  0  0  0  0  0  0  0  0  0  0
   -4.6407   -0.3087    1.2531 C   0  0  0  0  0  0  0  0  0  0  0  0
   -6.0291   -0.1554    0.7742 C   0  0  0  0  0  0  0  0  0  0  0  0
   -7.0248    0.0963    1.7103 C   0  0  0  0  0  0  0  0  0  0  0  0
   -8.3455    0.1775    1.4109 N   0  0  0  0  0  0  0  0  0  0  0  0
   -8.6847   -0.0329    0.1202 C   0  0  0  0  0  0  0  0  0  0  0  0
  -10.0089    0.0489   -0.2608 O   0  0  0  0  0  0  0  0  0  0  0  0
  -10.8986   -0.1719    0.8324 C   0  0  0  0  0  0  0  0  0  0  0  0
   -7.7685   -0.2939   -0.8852 C   0  0  0  0  0  0  0  0  0  0  0  0
   -6.4187   -0.3879   -0.5468 C   0  0  0  0  0  0  0  0  0  0  0  0
   -3.5686    0.1781    0.5103 N   0  0  0  0  0  0  0  0  0  0  0  0
   -2.2381   -0.2616    0.9524 C   0  0  0  0  0  0  0  0  0  0  0  0
   -1.1051    0.0582    0.0045 C   0  0  0  0  0  0  0  0  0  0  0  0
   -0.0264   -0.7565    0.0194 N   0  0  0  0  0  0  0  0  0  0  0  0
    1.0107   -0.4476   -0.7979 C   0  0  0  0  0  0  0  0  0  0  0  0
    2.1714   -1.3964   -0.7477 C   0  0  0  0  0  0  0  0  0  0  0  0
    1.9932   -2.5994   -0.5888 O   0  0  0  0  0  0  0  0  0  0  0  0
    3.4317   -0.8307   -0.8591 N   0  0  0  0  0  0  0  0  0  0  0  0
    4.6219   -1.6056   -0.5617 C   0  0  0  0  0  0  0  0  0  0  0  0
    5.3735   -0.9745    0.5889 C   0  0  0  0  0  0  0  0  0  0  0  0
    4.8229   -1.2139    1.8712 C   0  0  0  0  0  0  0  0  0  0  0  0
    5.4453   -0.7636    3.0329 C   0  0  0  0  0  0  0  0  0  0  0  0
    6.6342   -0.0571    2.9421 C   0  0  0  0  0  0  0  0  0  0  0  0
    7.1968    0.2027    1.6909 C   0  0  0  0  0  0  0  0  0  0  0  0
    6.5732   -0.2329    0.5011 C   0  0  0  0  0  0  0  0  0  0  0  0
    7.2141    0.0999   -0.7332 N   0  0  0  0  0  0  0  0  0  0  0  0
    6.6249    0.3404   -1.9594 C   0  0  0  0  0  0  0  0  0  0  0  0
    7.6017    0.5707   -2.9032 C   0  0  0  0  0  0  0  0  0  0  0  0
    8.8420    0.5262   -2.2382 C   0  0  0  0  0  0  0  0  0  0  0  0
    8.5795    0.2735   -0.9106 C   0  0  0  0  0  0  0  0  0  0  0  0
    1.0202    0.6696   -1.6255 C   0  0  0  0  0  0  0  0  0  0  0  0
   -0.0946    1.5061   -1.6209 C   0  0  0  0  0  0  0  0  0  0  0  0
   -1.1827    1.1911   -0.8068 C   0  0  0  0  0  0  0  0  0  0  0  0
   -2.4309    2.0242   -0.7596 C   0  0  0  0  0  0  0  0  0  0  0  0
   -3.6601    1.1177   -0.6124 C   0  0  0  0  0  0  0  0  0  0  0  0
   -6.7847    0.2312    2.7626 H   0  0  0  0  0  0  0  0  0  0  0  0
  -10.8250    0.6235    1.5852 H   0  0  0  0  0  0  0  0  0  0  0  0
  -10.7314   -1.1590    1.2824 H   0  0  0  0  0  0  0  0  0  0  0  0
  -11.9186   -0.1573    0.4341 H   0  0  0  0  0  0  0  0  0  0  0  0
   -8.1046   -0.4522   -1.9033 H   0  0  0  0  0  0  0  0  0  0  0  0
   -5.6991   -0.6686   -1.3073 H   0  0  0  0  0  0  0  0  0  0  0  0
   -2.0340    0.2181    1.9166 H   0  0  0  0  0  0  0  0  0  0  0  0
   -2.2757   -1.3441    1.1206 H   0  0  0  0  0  0  0  0  0  0  0  0
    3.5208    0.1758   -0.8230 H   0  0  0  0  0  0  0  0  0  0  0  0
    5.2185   -1.6962   -1.4699 H   0  0  0  0  0  0  0  0  0  0  0  0
    4.3583   -2.6374   -0.2951 H   0  0  0  0  0  0  0  0  0  0  0  0
    3.8963   -1.7832    1.9631 H   0  0  0  0  0  0  0  0  0  0  0  0
    4.9998   -0.9700    4.0031 H   0  0  0  0  0  0  0  0  0  0  0  0
    7.1222    0.3042    3.8429 H   0  0  0  0  0  0  0  0  0  0  0  0
    8.1090    0.7945    1.6718 H   0  0  0  0  0  0  0  0  0  0  0  0
    5.5530    0.3703   -2.0747 H   0  0  0  0  0  0  0  0  0  0  0  0
    7.4323    0.7686   -3.9536 H   0  0  0  0  0  0  0  0  0  0  0  0
    9.8236    0.6746   -2.6688 H   0  0  0  0  0  0  0  0  0  0  0  0
    9.2690    0.1641   -0.0863 H   0  0  0  0  0  0  0  0  0  0  0  0
    1.8581    0.8805   -2.2799 H   0  0  0  0  0  0  0  0  0  0  0  0
   -0.1156    2.3834   -2.2628 H   0  0  0  0  0  0  0  0  0  0  0  0
   -2.5320    2.6086   -1.6845 H   0  0  0  0  0  0  0  0  0  0  0  0
   -2.3639    2.7286    0.0810 H   0  0  0  0  0  0  0  0  0  0  0  0
   -4.5608    1.7330   -0.5129 H   0  0  0  0  0  0  0  0  0  0  0  0
   -3.7643    0.5081   -1.5194 H   0  0  0  0  0  0  0  0  0  0  0  0
  1  2  2  0
  2  3  1  0
  3  4  2  0
  4  5  1  0
  5  6  2  0
  6  7  1  0
  7  8  1  0
  6  9  1  0
  9 10  2  0
  2 11  1  0
 11 12  1  0
 12 13  1  0
 13 14  2  0
 14 15  1  0
 15 16  1  0
 16 17  2  0
 16 18  1  0
 18 19  1  0
 19 20  1  0
 20 21  2  0
 21 22  1  0
 22 23  2  0
 23 24  1  0
 24 25  2  0
 25 26  1  0
 26 27  1  0
 27 28  2  0
 28 29  1  0
 29 30  2  0
 15 31  2  0
 31 32  1  0
 32 33  2  0
 33 34  1  0
 34 35  1  0
 35 11  1  0
 33 13  1  0
 10  3  1  0
 25 20  1  0
 30 26  1  0
  4 36  1  0
  8 37  1  0
  8 38  1  0
  8 39  1  0
  9 40  1  0
 10 41  1  0
 12 42  1  0
 12 43  1  0
 18 44  1  0
 19 45  1  0
 19 46  1  0
 21 47  1  0
 22 48  1  0
 23 49  1  0
 24 50  1  0
 27 51  1  0
 28 52  1  0
 29 53  1  0
 30 54  1  0
 31 55  1  0
 32 56  1  0
 34 57  1  0
 34 58  1  0
 35 59  1  0
 35 60  1  0
M  END
>  <type>  (44) 
designed

$$$$
H02
     RDKit          3D

 66 70  0  0  0  0  0  0  0  0999 V2000
    4.5224    2.0436    0.7213 O   0  0  0  0  0  0  0  0  0  0  0  0
    4.8012    1.2752   -0.1952 C   0  0  0  0  0  0  0  0  0  0  0  0
    6.2090    1.2281   -0.6223 C   0  0  0  0  0  0  0  0  0  0  0  0
    7.1964    1.0110    0.3277 C   0  0  0  0  0  0  0  0  0  0  0  0
    8.5191    0.9562    0.0355 N   0  0  0  0  0  0  0  0  0  0  0  0
    8.8636    1.1693   -1.2543 C   0  0  0  0  0  0  0  0  0  0  0  0
   10.1911    1.1354   -1.6303 O   0  0  0  0  0  0  0  0  0  0  0  0
   11.0725    0.8826   -0.5399 C   0  0  0  0  0  0  0  0  0  0  0  0
    7.9474    1.4290   -2.2649 C   0  0  0  0  0  0  0  0  0  0  0  0
    6.5926    1.4643   -1.9422 C   0  0  0  0  0  0  0  0  0  0  0  0
    3.8672    0.4709   -0.8452 N   0  0  0  0  0  0  0  0  0  0  0  0
    2.4772    0.5288   -0.3855 C   0  0  0  0  0  0  0  0  0  0  0  0
    2.0416   -0.7371    0.3342 C   0  0  0  0  0  0  0  0  0  0  0  0
    0.8885   -0.6707    1.0462 N   0  0  0  0  0  0  0  0  0  0  0  0
    0.4786   -1.8102    1.6726 C   0  0  0  0  0  0  0  0  0  0  0  0
   -0.7922   -1.7116    2.4634 C   0  0  0  0  0  0  0  0  0  0  0  0
   -1.2721   -2.6864    3.0300 O   0  0  0  0  0  0  0  0  0  0  0  0
   -1.3482   -0.4522    2.4793 N   0  0  0  0  0  0  0  0  0  0  0  0
   -2.6399   -0.1706    3.0500 C   0  0  0  0  0  0  0  0  0  0  0  0
   -3.6915   -0.0664    1.9776 C   0  0  0  0  0  0  0  0  0  0  0  0
   -4.2683   -1.2173    1.4368 C   0  0  0  0  0  0  0  0  0  0  0  0
   -5.2363   -1.1208    0.4299 C   0  0  0  0  0  0  0  0  0  0  0  0
   -5.6654    0.1179   -0.0776 C   0  0  0  0  0  0  0  0  0  0  0  0
   -6.6375    0.1619   -1.0808 N   0  0  0  0  0  0  0  0  0  0  0  0
   -7.8479   -0.6527   -0.8143 C   0  0  0  0  0  0  0  0  0  0  0  0
   -9.0759   -0.1474   -1.6078 C   0  0  0  0  0  0  0  0  0  0  0  0
   -9.3918    1.2816   -1.4111 N   0  0  0  0  0  0  0  0  0  0  0  0
   -8.1587    2.1012   -1.3745 C   0  0  0  0  0  0  0  0  0  0  0  0
   -6.8805    1.3876   -1.8625 C   0  0  0  0  0  0  0  0  0  0  0  0
   -5.0589    1.2598    0.4642 C   0  0  0  0  0  0  0  0  0  0  0  0
   -4.0881    1.1742    1.4732 C   0  0  0  0  0  0  0  0  0  0  0  0
    1.1600   -3.0166    1.6102 C   0  0  0  0  0  0  0  0  0  0  0  0
    2.3319   -3.0693    0.8642 C   0  0  0  0  0  0  0  0  0  0  0  0
    2.7817   -1.9235    0.2007 C   0  0  0  0  0  0  0  0  0  0  0  0
    4.0726   -1.9565   -0.5811 C   0  0  0  0  0  0  0  0  0  0  0  0
    4.1983   -0.7716   -1.5438 C   0  0  0  0  0  0  0  0  0  0  0  0
    6.9472    0.8665    1.3760 H   0  0  0  0  0  0  0  0  0  0  0  0
   11.0072    1.6728    0.2166 H   0  0  0  0  0  0  0  0  0  0  0  0
   12.0948    0.8812   -0.9314 H   0  0  0  0  0  0  0  0  0  0  0  0
   10.8846   -0.1027   -0.0984 H   0  0  0  0  0  0  0  0  0  0  0  0
    8.2864    1.6063   -3.2796 H   0  0  0  0  0  0  0  0  0  0  0  0
    5.8530    1.6847   -2.7065 H   0  0  0  0  0  0  0  0  0  0  0  0
    2.3068    1.3967    0.2601 H   0  0  0  0  0  0  0  0  0  0  0  0
    1.8500    0.6478   -1.2774 H   0  0  0  0  0  0  0  0  0  0  0  0
   -0.9000    0.2402    1.8865 H   0  0  0  0  0  0  0  0  0  0  0  0
   -2.5558    0.7754    3.5957 H   0  0  0  0  0  0  0  0  0  0  0  0
   -2.9178   -0.9411    3.7781 H   0  0  0  0  0  0  0  0  0  0  0  0
   -3.9592   -2.1998    1.7890 H   0  0  0  0  0  0  0  0  0  0  0  0
   -5.6378   -2.0444    0.0206 H   0  0  0  0  0  0  0  0  0  0  0  0
   -8.1006   -0.6213    0.2539 H   0  0  0  0  0  0  0  0  0  0  0  0
   -7.6580   -1.6956   -1.0905 H   0  0  0  0  0  0  0  0  0  0  0  0
   -9.9548   -0.7415   -1.3326 H   0  0  0  0  0  0  0  0  0  0  0  0
   -8.9144   -0.3206   -2.6789 H   0  0  0  0  0  0  0  0  0  0  0  0
   -9.8611    1.3906   -0.5113 H   0  0  0  0  0  0  0  0  0  0  0  0
   -8.0027    2.4375   -0.3417 H   0  0  0  0  0  0  0  0  0  0  0  0
   -8.3276    2.9986   -1.9793 H   0  0  0  0  0  0  0  0  0  0  0  0
   -6.0268    2.0732   -1.8619 H   0  0  0  0  0  0  0  0  0  0  0  0
   -7.0079    1.1011   -2.9148 H   0  0  0  0  0  0  0  0  0  0  0  0
   -5.3420    2.2543    0.1362 H   0  0  0  0  0  0  0  0  0  0  0  0
   -3.6503    2.0907    1.8619 H   0  0  0  0  0  0  0  0  0  0  0  0
    0.7890   -3.8923    2.1327 H   0  0  0  0  0  0  0  0  0  0  0  0
    2.8894   -4.0013    0.8057 H   0  0  0  0  0  0  0  0  0  0  0  0
    4.1455   -2.8895   -1.1515 H   0  0  0  0  0  0  0  0  0  0  0  0
    4.9015   -1.9339    0.1374 H   0  0  0  0  0  0  0  0  0  0  0  0
    3.4963   -0.8758   -2.3799 H   0  0  0  0  0  0  0  0  0  0  0  0
    5.2053   -0.7555   -1.9633 H   0  0  0  0  0  0  0  0  0  0  0  0
  1  2  2  0
  2  3  1  0
  3  4  2  0
  4  5  1  0
  5  6  2  0
  6  7  1  0
  7  8  1  0
  6  9  1  0
  9 10  2  0
  2 11  1  0
 11 12  1  0
 12 13  1  0
 13 14  2  0
 14 15  1  0
 15 16  1  0
 16 17  2  0
 16 18  1  0
 18 19  1  0
 19 20  1  0
 20 21  2  0
 21 22  1  0
 22 23  2  0
 23 24  1  0
 24 25  1  0
 25 26  1  0
 26 27  1  0
 27 28  1  0
 28 29  1  0
 23 30  1  0
 30 31  2  0
 15 32  2  0
 32 33  1  0
 33 34  2  0
 34 35  1  0
 35 36  1  0
 36 11  1  0
 34 13  1  0
 10  3  1  0
 31 20  1  0
 29 24  1  0
  4 37  1  0
  8 38  1  0
  8 39  1  0
  8 40  1  0
  9 41  1  0
 10 42  1  0
 12 43  1  0
 12 44  1  0
 18 45  1  0
 19 46  1  0
 19 47  1  0
 21 48  1  0
 22 49  1  0
 25 50  1  0
 25 51  1  0
 26 52  1  0
 26 53  1  0
 27 54  1  0
 28 55  1  0
 28 56  1  0
 29 57  1  0
 29 58  1  0
 30 59  1  0
 31 60  1  0
 32 61  1  0
 33 62  1  0
 35 63  1  0
 35 64  1  0
 36 65  1  0
 36 66  1  0
M  END
>  <type>  (45) 
designed

$$$$
I01
     RDKit          3D

 60 64  0  0  0  0  0  0  0  0999 V2000
    2.1622   -2.6155    0.5587 O   0  0  0  0  0  0  0  0  0  0  0  0
    2.8407   -1.6450    0.2318 C   0  0  0  0  0  0  0  0  0  0  0  0
    4.1906   -1.9012   -0.3205 C   0  0  0  0  0  0  0  0  0  0  0  0
    4.5808   -1.3462   -1.5435 C   0  0  0  0  0  0  0  0  0  0  0  0
    5.8519   -1.6205   -2.0559 C   0  0  0  0  0  0  0  0  0  0  0  0
    6.7344   -2.4671   -1.3630 C   0  0  0  0  0  0  0  0  0  0  0  0
    8.1146   -2.7406   -1.9154 C   0  0  0  0  0  0  0  0  0  0  0  0
    8.9757   -1.7136   -1.6736 F   0  0  0  0  0  0  0  0  0  0  0  0
    8.1167   -2.9212   -3.2657 F   0  0  0  0  0  0  0  0  0  0  0  0
    8.7001   -3.8521   -1.3889 F   0  0  0  0  0  0  0  0  0  0  0  0
    6.3218   -3.0324   -0.1445 C   0  0  0  0  0  0  0  0  0  0  0  0
    5.0510   -2.7603    0.3697 C   0  0  0  0  0  0  0  0  0  0  0  0
    2.3937   -0.3275    0.3378 N   0  0  0  0  0  0  0  0  0  0  0  0
    1.0315   -0.1564    0.8466 C   0  0  0  0  0  0  0  0  0  0  0  0
    0.4821    1.2504    0.7171 C   0  0  0  0  0  0  0  0  0  0  0  0
   -0.8241    1.4204    1.0360 N   0  0  0  0  0  0  0  0  0  0  0  0
   -1.3404    2.6772    0.9218 C   0  0  0  0  0  0  0  0  0  0  0  0
   -2.7987    2.8139    1.2453 C   0  0  0  0  0  0  0  0  0  0  0  0
   -3.3910    3.8797    1.1264 O   0  0  0  0  0  0  0  0  0  0  0  0
   -3.3804    1.6362    1.6600 N   0  0  0  0  0  0  0  0  0  0  0  0
   -4.8069    1.4573    1.7543 C   0  0  0  0  0  0  0  0  0  0  0  0
   -5.4231    1.0569    0.4298 C   0  0  0  0  0  0  0  0  0  0  0  0
   -6.4032    1.9257   -0.0979 C   0  0  0  0  0  0  0  0  0  0  0  0
   -6.9545    1.7283   -1.3643 C   0  0  0  0  0  0  0  0  0  0  0  0
   -6.5303    0.6614   -2.1435 C   0  0  0  0  0  0  0  0  0  0  0  0
   -5.5656   -0.2160   -1.6503 C   0  0  0  0  0  0  0  0  0  0  0  0
   -5.0234   -0.0452   -0.3607 C   0  0  0  0  0  0  0  0  0  0  0  0
   -4.0699   -1.0100    0.0750 N   0  0  0  0  0  0  0  0  0  0  0  0
   -3.9459   -1.5542    1.3387 C   0  0  0  0  0  0  0  0  0  0  0  0
   -2.8914   -2.4417    1.3492 C   0  0  0  0  0  0  0  0  0  0  0  0
   -2.3679   -2.4842    0.0406 C   0  0  0  0  0  0  0  0  0  0  0  0
   -3.1206   -1.6206   -0.7259 C   0  0  0  0  0  0  0  0  0  0  0  0
   -0.6075    3.7795    0.5134 C   0  0  0  0  0  0  0  0  0  0  0  0
    0.7357    3.5903    0.2062 C   0  0  0  0  0  0  0  0  0  0  0  0
    1.3006    2.3143    0.3175 C   0  0  0  0  0  0  0  0  0  0  0  0
    2.7416    2.0809   -0.0480 C   0  0  0  0  0  0  0  0  0  0  0  0
    3.2913    0.8020    0.5818 C   0  0  0  0  0  0  0  0  0  0  0  0
    3.8964   -0.7122   -2.1020 H   0  0  0  0  0  0  0  0  0  0  0  0
    6.1517   -1.1806   -3.0063 H   0  0  0  0  0  0  0  0  0  0  0  0
    6.9864   -3.6985    0.4053 H   0  0  0  0  0  0  0  0  0  0  0  0
    4.7306   -3.2196    1.3028 H   0  0  0  0  0  0  0  0  0  0  0  0
    1.0370   -0.4333    1.9086 H   0  0  0  0  0  0  0  0  0  0  0  0
    0.3681   -0.8509    0.3172 H   0  0  0  0  0  0  0  0  0  0  0  0
   -2.7748    0.8186    1.6125 H   0  0  0  0  0  0  0  0  0  0  0  0
   -5.2410    2.3984    2.1109 H   0  0  0  0  0  0  0  0  0  0  0  0
   -5.0217    0.7171    2.5273 H   0  0  0  0  0  0  0  0  0  0  0  0
   -6.7228    2.7978    0.4708 H   0  0  0  0  0  0  0  0  0  0  0  0
   -7.7000    2.4216   -1.7451 H   0  0  0  0  0  0  0  0  0  0  0  0
   -6.9518    0.5082   -3.1333 H   0  0  0  0  0  0  0  0  0  0  0  0
   -5.2772   -1.0590   -2.2747 H   0  0  0  0  0  0  0  0  0  0  0  0
   -4.6429   -1.3098    2.1262 H   0  0  0  0  0  0  0  0  0  0  0  0
   -2.5567   -3.0188    2.2026 H   0  0  0  0  0  0  0  0  0  0  0  0
   -1.5343   -3.0815   -0.3102 H   0  0  0  0  0  0  0  0  0  0  0  0
   -3.0229   -1.3586   -1.7706 H   0  0  0  0  0  0  0  0  0  0  0  0
   -1.0717    4.7569    0.4305 H   0  0  0  0  0  0  0  0  0  0  0  0
    1.3338    4.4368   -0.1231 H   0  0  0  0  0  0  0  0  0  0  0  0
    2.8083    2.0098   -1.1407 H   0  0  0  0  0  0  0  0  0  0  0  0
    3.3561    2.9296    0.2742 H   0  0  0  0  0  0  0  0  0  0  0  0
    3.3758    0.9119    1.6711 H   0  0  0  0  0  0  0  0  0  0  0  0
    4.3011    0.6133    0.2127 H   0  0  0  0  0  0  0  0  0  0  0  0
  1  2  2  0
  2  3  1  0
  3  4  2  0
  4  5  1  0
  5  6  2  0
  6  7  1  0
  7  8  1  0
  7  9  1  0
  7 10  1  0
  6 11  1  0
 11 12  2  0
  2 13  1  0
 13 14  1  0
 14 15  1  0
 15 16  2  0
 16 17  1  0
 17 18  1  0
 18 19  2  0
 18 20  1  0
 20 21  1  0
 21 22  1  0
 22 23  2  0
 23 24  1  0
 24 25  2  0
 25 26  1  0
 26 27  2  0
 27 28  1  0
 28 29  1  0
 29 30  2  0
 30 31  1  0
 31 32  2  0
 17 33  2  0
 33 34  1  0
 34 35  2  0
 35 36  1  0
 36 37  1  0
 37 13  1  0
 35 15  1  0
 12  3  1  0
 27 22  1  0
 32 28  1  0
  4 38  1  0
  5 39  1  0
 11 40  1  0
 12 41  1  0
 14 42  1  0
 14 43  1  0
 20 44  1  0
 21 45  1  0
 21 46  1  0
 23 47  1  0
 24 48  1  0
 25 49  1  0
 26 50  1  0
 29 51  1  0
 30 52  1  0
 31 53  1  0
 32 54  1  0
 33 55  1  0
 34 56  1  0
 36 57  1  0
 36 58  1  0
 37 59  1  0
 37 60  1  0
M  END
>  <type>  (46) 
designed

$$$$
I02
     RDKit          3D

 66 70  0  0  0  0  0  0  0  0999 V2000
   -4.1058    2.4124    0.2217 O   0  0  0  0  0  0  0  0  0  0  0  0
   -4.7031    1.3398    0.2092 C   0  0  0  0  0  0  0  0  0  0  0  0
   -6.1824    1.3710    0.1638 C   0  0  0  0  0  0  0  0  0  0  0  0
   -6.8717    2.1232    1.1192 C   0  0  0  0  0  0  0  0  0  0  0  0
   -8.2674    2.1818    1.0831 C   0  0  0  0  0  0  0  0  0  0  0  0
   -8.9841    1.5035    0.0837 C   0  0  0  0  0  0  0  0  0  0  0  0
  -10.4932    1.5520    0.0354 C   0  0  0  0  0  0  0  0  0  0  0  0
  -10.9659    1.9133   -1.1893 F   0  0  0  0  0  0  0  0  0  0  0  0
  -11.0547    0.3423    0.3113 F   0  0  0  0  0  0  0  0  0  0  0  0
  -11.0398    2.4292    0.9230 F   0  0  0  0  0  0  0  0  0  0  0  0
   -8.2760    0.7684   -0.8843 C   0  0  0  0  0  0  0  0  0  0  0  0
   -6.8803    0.7101   -0.8518 C   0  0  0  0  0  0  0  0  0  0  0  0
   -4.0555    0.1081    0.2399 N   0  0  0  0  0  0  0  0  0  0  0  0
   -2.5949    0.1288    0.0927 C   0  0  0  0  0  0  0  0  0  0  0  0
   -1.9632   -1.2277   -0.1442 C   0  0  0  0  0  0  0  0  0  0  0  0
   -0.8278   -1.2869   -0.8794 N   0  0  0  0  0  0  0  0  0  0  0  0
   -0.2577   -2.5172   -1.0323 C   0  0  0  0  0  0  0  0  0  0  0  0
    0.9895   -2.5711   -1.8631 C   0  0  0  0  0  0  0  0  0  0  0  0
    1.5778   -3.6266   -2.0670 O   0  0  0  0  0  0  0  0  0  0  0  0
    1.3933   -1.3497   -2.3532 N   0  0  0  0  0  0  0  0  0  0  0  0
    2.6268   -1.1588   -3.0711 C   0  0  0  0  0  0  0  0  0  0  0  0
    3.7046   -0.6239   -2.1671 C   0  0  0  0  0  0  0  0  0  0  0  0
    4.0276    0.7328   -2.1501 C   0  0  0  0  0  0  0  0  0  0  0  0
    5.0334    1.2160   -1.2985 C   0  0  0  0  0  0  0  0  0  0  0  0
    5.7420    0.3811   -0.4174 C   0  0  0  0  0  0  0  0  0  0  0  0
    6.7575    0.8780    0.4008 N   0  0  0  0  0  0  0  0  0  0  0  0
    7.5729   -0.0594    1.2048 C   0  0  0  0  0  0  0  0  0  0  0  0
    8.6152    0.6826    2.0833 C   0  0  0  0  0  0  0  0  0  0  0  0
    9.1347    1.9103    1.4535 N   0  0  0  0  0  0  0  0  0  0  0  0
    8.0108    2.8522    1.2448 C   0  0  0  0  0  0  0  0  0  0  0  0
    6.6146    2.2119    1.0159 C   0  0  0  0  0  0  0  0  0  0  0  0
    5.4058   -0.9821   -0.4651 C   0  0  0  0  0  0  0  0  0  0  0  0
    4.4028   -1.4774   -1.3115 C   0  0  0  0  0  0  0  0  0  0  0  0
   -0.7625   -3.6825   -0.4704 C   0  0  0  0  0  0  0  0  0  0  0  0
   -1.9241   -3.5964    0.2887 C   0  0  0  0  0  0  0  0  0  0  0  0
   -2.5425   -2.3564    0.4464 C   0  0  0  0  0  0  0  0  0  0  0  0
   -3.8016   -2.1775    1.2418 C   0  0  0  0  0  0  0  0  0  0  0  0
   -4.7166   -1.1701    0.5386 C   0  0  0  0  0  0  0  0  0  0  0  0
   -6.3222    2.6675    1.8840 H   0  0  0  0  0  0  0  0  0  0  0  0
   -8.7919    2.7715    1.8333 H   0  0  0  0  0  0  0  0  0  0  0  0
   -8.8132    0.2472   -1.6753 H   0  0  0  0  0  0  0  0  0  0  0  0
   -6.3438    0.1648   -1.6254 H   0  0  0  0  0  0  0  0  0  0  0  0
   -2.1781    0.5501    1.0151 H   0  0  0  0  0  0  0  0  0  0  0  0
   -2.3365    0.8059   -0.7292 H   0  0  0  0  0  0  0  0  0  0  0  0
    0.8717   -0.5415   -2.0280 H   0  0  0  0  0  0  0  0  0  0  0  0
    2.4230   -0.4539   -3.8845 H   0  0  0  0  0  0  0  0  0  0  0  0
    2.9527   -2.0984   -3.5309 H   0  0  0  0  0  0  0  0  0  0  0  0
    3.5149    1.4304   -2.8082 H   0  0  0  0  0  0  0  0  0  0  0  0
    5.2741    2.2719   -1.3756 H   0  0  0  0  0  0  0  0  0  0  0  0
    8.1103   -0.7311    0.5238 H   0  0  0  0  0  0  0  0  0  0  0  0
    6.9387   -0.6599    1.8683 H   0  0  0  0  0  0  0  0  0  0  0  0
    9.4502    0.0056    2.2994 H   0  0  0  0  0  0  0  0  0  0  0  0
    8.1705    0.9362    3.0557 H   0  0  0  0  0  0  0  0  0  0  0  0
    9.4459    1.6374    0.5164 H   0  0  0  0  0  0  0  0  0  0  0  0
    7.9529    3.5319    2.1014 H   0  0  0  0  0  0  0  0  0  0  0  0
    8.2618    3.4746    0.3776 H   0  0  0  0  0  0  0  0  0  0  0  0
    6.0170    2.9140    0.4284 H   0  0  0  0  0  0  0  0  0  0  0  0
    6.1010    2.0954    1.9792 H   0  0  0  0  0  0  0  0  0  0  0  0
    5.9106   -1.7080    0.1643 H   0  0  0  0  0  0  0  0  0  0  0  0
    4.1736   -2.5423   -1.2973 H   0  0  0  0  0  0  0  0  0  0  0  0
   -0.2611   -4.6335   -0.6212 H   0  0  0  0  0  0  0  0  0  0  0  0
   -2.3402   -4.4918    0.7432 H   0  0  0  0  0  0  0  0  0  0  0  0
   -4.3320   -3.1308    1.3536 H   0  0  0  0  0  0  0  0  0  0  0  0
   -3.5376   -1.8174    2.2440 H   0  0  0  0  0  0  0  0  0  0  0  0
   -5.0488   -1.5847   -0.4204 H   0  0  0  0  0  0  0  0  0  0  0  0
   -5.6024   -0.9962    1.1571 H   0  0  0  0  0  0  0  0  0  0  0  0
  1  2  2  0
  2  3  1  0
  3  4  2  0
  4  5  1  0
  5  6  2  0
  6  7  1  0
  7  8  1  0
  7  9  1  0
  7 10  1  0
  6 11  1  0
 11 12  2  0
  2 13  1  0
 13 14  1  0
 14 15  1  0
 15 16  2  0
 16 17  1  0
 17 18  1  0
 18 19  2  0
 18 20  1  0
 20 21  1  0
 21 22  1  0
 22 23  2  0
 23 24  1  0
 24 25  2  0
 25 26  1  0
 26 27  1  0
 27 28  1  0
 28 29  1  0
 29 30  1  0
 30 31  1  0
 25 32  1  0
 32 33  2  0
 17 34  2  0
 34 35  1  0
 35 36  2  0
 36 37  1  0
 37 38  1  0
 38 13  1  0
 36 15  1  0
 12  3  1  0
 33 22  1  0
 31 26  1  0
  4 39  1  0
  5 40  1  0
 11 41  1  0
 12 42  1  0
 14 43  1  0
 14 44  1  0
 20 45  1  0
 21 46  1  0
 21 47  1  0
 23 48  1  0
 24 49  1  0
 27 50  1  0
 27 51  1  0
 28 52  1  0
 28 53  1  0
 29 54  1  0
 30 55  1  0
 30 56  1  0
 31 57  1  0
 31 58  1  0
 32 59  1  0
 33 60  1  0
 34 61  1  0
 35 62  1  0
 37 63  1  0
 37 64  1  0
 38 65  1  0
 38 66  1  0
M  END
>  <type>  (47) 
designed

$$$$
J01
     RDKit          3D

 65 70  0  0  0  0  0  0  0  0999 V2000
    4.3175    1.7673    1.4743 O   0  0  0  0  0  0  0  0  0  0  0  0
    4.9149    1.1572    0.5862 C   0  0  0  0  0  0  0  0  0  0  0  0
    6.3664    1.1011    0.5474 C   0  0  0  0  0  0  0  0  0  0  0  0
    7.2618    0.0946    0.2172 C   0  0  0  0  0  0  0  0  0  0  0  0
    8.5563    0.6229    0.4000 C   0  0  0  0  0  0  0  0  0  0  0  0
    9.7717    0.0550    0.2036 N   0  0  0  0  0  0  0  0  0  0  0  0
   10.8127    0.8712    0.4976 C   0  0  0  0  0  0  0  0  0  0  0  0
   10.7152    2.1827    0.9602 C   0  0  0  0  0  0  0  0  0  0  0  0
    9.4565    2.7539    1.1549 C   0  0  0  0  0  0  0  0  0  0  0  0
    8.3863    1.9212    0.8567 C   0  0  0  0  0  0  0  0  0  0  0  0
    7.0629    2.2152    0.9574 O   0  0  0  0  0  0  0  0  0  0  0  0
    4.1907    0.4837   -0.4078 N   0  0  0  0  0  0  0  0  0  0  0  0
    2.7507    0.3305   -0.1751 C   0  0  0  0  0  0  0  0  0  0  0  0
    2.0503   -0.6227   -1.1231 C   0  0  0  0  0  0  0  0  0  0  0  0
    0.9648   -1.2919   -0.6680 N   0  0  0  0  0  0  0  0  0  0  0  0
    0.3305   -2.1131   -1.5548 C   0  0  0  0  0  0  0  0  0  0  0  0
   -0.8425   -2.8813   -1.0219 C   0  0  0  0  0  0  0  0  0  0  0  0
   -1.4751   -3.6591   -1.7271 O   0  0  0  0  0  0  0  0  0  0  0  0
   -1.1206   -2.6302    0.3024 N   0  0  0  0  0  0  0  0  0  0  0  0
   -2.2726   -3.1690    0.9781 C   0  0  0  0  0  0  0  0  0  0  0  0
   -3.4318   -2.2088    0.9338 C   0  0  0  0  0  0  0  0  0  0  0  0
   -4.3547   -2.2571   -0.1125 C   0  0  0  0  0  0  0  0  0  0  0  0
   -5.4322   -1.3628   -0.1533 C   0  0  0  0  0  0  0  0  0  0  0  0
   -5.6302   -0.3856    0.8367 C   0  0  0  0  0  0  0  0  0  0  0  0
   -6.7061    0.4902    0.7785 N   0  0  0  0  0  0  0  0  0  0  0  0
   -7.9795    0.0457    0.1823 C   0  0  0  0  0  0  0  0  0  0  0  0
   -9.1964    0.6870    0.8924 C   0  0  0  0  0  0  0  0  0  0  0  0
   -9.1937    2.1602    0.9564 N   0  0  0  0  0  0  0  0  0  0  0  0
   -7.8179    2.6872    1.0565 C   0  0  0  0  0  0  0  0  0  0  0  0
   -6.7668    1.6980    1.6177 C   0  0  0  0  0  0  0  0  0  0  0  0
   -4.6723   -0.3345    1.8604 C   0  0  0  0  0  0  0  0  0  0  0  0
   -3.5919   -1.2267    1.9140 C   0  0  0  0  0  0  0  0  0  0  0  0
    0.7198   -2.2746   -2.8776 C   0  0  0  0  0  0  0  0  0  0  0  0
    1.8327   -1.5711   -3.3260 C   0  0  0  0  0  0  0  0  0  0  0  0
    2.5193   -0.7445   -2.4356 C   0  0  0  0  0  0  0  0  0  0  0  0
    3.7403    0.0327   -2.8336 C   0  0  0  0  0  0  0  0  0  0  0  0
    4.7524    0.0250   -1.6835 C   0  0  0  0  0  0  0  0  0  0  0  0
    7.0202   -0.9081   -0.0992 H   0  0  0  0  0  0  0  0  0  0  0  0
   11.7921    0.4203    0.3449 H   0  0  0  0  0  0  0  0  0  0  0  0
   11.6153    2.7524    1.1698 H   0  0  0  0  0  0  0  0  0  0  0  0
    9.3164    3.7651    1.5129 H   0  0  0  0  0  0  0  0  0  0  0  0
    2.6027   -0.0080    0.8583 H   0  0  0  0  0  0  0  0  0  0  0  0
    2.2896    1.3219   -0.2735 H   0  0  0  0  0  0  0  0  0  0  0  0
   -0.5865   -1.8835    0.7366 H   0  0  0  0  0  0  0  0  0  0  0  0
   -2.5573   -4.1329    0.5371 H   0  0  0  0  0  0  0  0  0  0  0  0
   -1.9804   -3.3630    2.0160 H   0  0  0  0  0  0  0  0  0  0  0  0
   -4.2349   -2.9870   -0.9124 H   0  0  0  0  0  0  0  0  0  0  0  0
   -6.1081   -1.4273   -1.0007 H   0  0  0  0  0  0  0  0  0  0  0  0
   -7.9897    0.3143   -0.8811 H   0  0  0  0  0  0  0  0  0  0  0  0
   -8.0948   -1.0435    0.2600 H   0  0  0  0  0  0  0  0  0  0  0  0
   -9.2408    0.3085    1.9234 H   0  0  0  0  0  0  0  0  0  0  0  0
  -10.1216    0.3561    0.4046 H   0  0  0  0  0  0  0  0  0  0  0  0
   -9.6197    2.5385    0.1097 H   0  0  0  0  0  0  0  0  0  0  0  0
   -7.4970    2.9974    0.0520 H   0  0  0  0  0  0  0  0  0  0  0  0
   -7.8397    3.5899    1.6776 H   0  0  0  0  0  0  0  0  0  0  0  0
   -5.7971    2.2132    1.6248 H   0  0  0  0  0  0  0  0  0  0  0  0
   -7.0210    1.4279    2.6516 H   0  0  0  0  0  0  0  0  0  0  0  0
   -4.7589    0.3931    2.6618 H   0  0  0  0  0  0  0  0  0  0  0  0
   -2.8806   -1.1471    2.7325 H   0  0  0  0  0  0  0  0  0  0  0  0
    0.1723   -2.9376   -3.5397 H   0  0  0  0  0  0  0  0  0  0  0  0
    2.1631   -1.6815   -4.3560 H   0  0  0  0  0  0  0  0  0  0  0  0
    3.4410    1.0595   -3.0741 H   0  0  0  0  0  0  0  0  0  0  0  0
    4.2046   -0.4017   -3.7251 H   0  0  0  0  0  0  0  0  0  0  0  0
    5.1123   -0.9977   -1.5181 H   0  0  0  0  0  0  0  0  0  0  0  0
    5.6088    0.6487   -1.9583 H   0  0  0  0  0  0  0  0  0  0  0  0
  1  2  2  0
  2  3  1  0
  3  4  2  0
  4  5  1  0
  5  6  2  0
  6  7  1  0
  7  8  2  0
  8  9  1  0
  9 10  2  0
 10 11  1  0
  2 12  1  0
 12 13  1  0
 13 14  1  0
 14 15  2  0
 15 16  1  0
 16 17  1  0
 17 18  2  0
 17 19  1  0
 19 20  1  0
 20 21  1  0
 21 22  2  0
 22 23  1  0
 23 24  2  0
 24 25  1  0
 25 26  1  0
 26 27  1  0
 27 28  1  0
 28 29  1  0
 29 30  1  0
 24 31  1  0
 31 32  2  0
 16 33  2  0
 33 34  1  0
 34 35  2  0
 35 36  1  0
 36 37  1  0
 37 12  1  0
 35 14  1  0
 11  3  1  0
 10  5  1  0
 32 21  1  0
 30 25  1  0
  4 38  1  0
  7 39  1  0
  8 40  1  0
  9 41  1  0
 13 42  1  0
 13 43  1  0
 19 44  1  0
 20 45  1  0
 20 46  1  0
 22 47  1  0
 23 48  1  0
 26 49  1  0
 26 50  1  0
 27 51  1  0
 27 52  1  0
 28 53  1  0
 29 54  1  0
 29 55  1  0
 30 56  1  0
 30 57  1  0
 31 58  1  0
 32 59  1  0
 33 60  1  0
 34 61  1  0
 36 62  1  0
 36 63  1  0
 37 64  1  0
 37 65  1  0
M  END
>  <type>  (48) 
designed

$$$$
J02
     RDKit          3D

 59 64  0  0  0  0  0  0  0  0999 V2000
    4.0977    0.6469    2.3015 O   0  0  0  0  0  0  0  0  0  0  0  0
    4.5026    0.4196    1.1642 C   0  0  0  0  0  0  0  0  0  0  0  0
    5.9280    0.6670    0.8872 C   0  0  0  0  0  0  0  0  0  0  0  0
    6.3356    1.5427   -0.1368 C   0  0  0  0  0  0  0  0  0  0  0  0
    7.6938    1.7743   -0.3778 C   0  0  0  0  0  0  0  0  0  0  0  0
    8.6817    1.1551    0.3980 C   0  0  0  0  0  0  0  0  0  0  0  0
    8.2354    0.3211    1.4219 C   0  0  0  0  0  0  0  0  0  0  0  0
    9.0178   -0.3647    2.2995 O   0  0  0  0  0  0  0  0  0  0  0  0
    8.2115   -1.0783    3.1775 N   0  0  0  0  0  0  0  0  0  0  0  0
    6.9566   -0.7979    2.8109 C   0  0  0  0  0  0  0  0  0  0  0  0
    6.9038    0.0671    1.6985 C   0  0  0  0  0  0  0  0  0  0  0  0
    3.6819   -0.0631    0.1496 N   0  0  0  0  0  0  0  0  0  0  0  0
    2.2421   -0.0877    0.4359 C   0  0  0  0  0  0  0  0  0  0  0  0
    1.3478   -0.5300   -0.7035 C   0  0  0  0  0  0  0  0  0  0  0  0
    0.0442   -0.1597   -0.6559 N   0  0  0  0  0  0  0  0  0  0  0  0
   -0.7643   -0.6139   -1.6575 C   0  0  0  0  0  0  0  0  0  0  0  0
   -2.1998   -0.1867   -1.5931 C   0  0  0  0  0  0  0  0  0  0  0  0
   -3.0135   -0.5509   -2.4332 O   0  0  0  0  0  0  0  0  0  0  0  0
   -2.4934    0.6302   -0.5236 N   0  0  0  0  0  0  0  0  0  0  0  0
   -3.8353    1.0654   -0.2077 C   0  0  0  0  0  0  0  0  0  0  0  0
   -4.5949    0.1222    0.7076 C   0  0  0  0  0  0  0  0  0  0  0  0
   -3.8692   -0.7001    1.5987 C   0  0  0  0  0  0  0  0  0  0  0  0
   -4.4998   -1.6594    2.3930 C   0  0  0  0  0  0  0  0  0  0  0  0
   -5.8758   -1.8181    2.3245 C   0  0  0  0  0  0  0  0  0  0  0  0
   -6.6254   -1.0008    1.4799 C   0  0  0  0  0  0  0  0  0  0  0  0
   -6.0056   -0.0093    0.6913 C   0  0  0  0  0  0  0  0  0  0  0  0
   -6.8613    0.8384   -0.0783 N   0  0  0  0  0  0  0  0  0  0  0  0
   -6.6881    2.1834   -0.3438 C   0  0  0  0  0  0  0  0  0  0  0  0
   -7.7461    2.6406   -1.0990 C   0  0  0  0  0  0  0  0  0  0  0  0
   -8.6261    1.5560   -1.2832 C   0  0  0  0  0  0  0  0  0  0  0  0
   -8.0772    0.4736   -0.6315 C   0  0  0  0  0  0  0  0  0  0  0  0
   -0.3332   -1.4318   -2.6921 C   0  0  0  0  0  0  0  0  0  0  0  0
    1.0059   -1.8036   -2.7185 C   0  0  0  0  0  0  0  0  0  0  0  0
    1.8651   -1.3391   -1.7206 C   0  0  0  0  0  0  0  0  0  0  0  0
    3.3203   -1.7054   -1.6920 C   0  0  0  0  0  0  0  0  0  0  0  0
    4.1445   -0.5313   -1.1617 C   0  0  0  0  0  0  0  0  0  0  0  0
    5.5908    2.0581   -0.7399 H   0  0  0  0  0  0  0  0  0  0  0  0
    7.9902    2.4543   -1.1752 H   0  0  0  0  0  0  0  0  0  0  0  0
    9.7390    1.3252    0.2283 H   0  0  0  0  0  0  0  0  0  0  0  0
    6.1378   -1.2344    3.3669 H   0  0  0  0  0  0  0  0  0  0  0  0
    2.0850   -0.7692    1.2817 H   0  0  0  0  0  0  0  0  0  0  0  0
    1.9468    0.9186    0.7594 H   0  0  0  0  0  0  0  0  0  0  0  0
   -1.7302    0.8240    0.1175 H   0  0  0  0  0  0  0  0  0  0  0  0
   -3.7368    2.0396    0.2813 H   0  0  0  0  0  0  0  0  0  0  0  0
   -4.3613    1.1821   -1.1597 H   0  0  0  0  0  0  0  0  0  0  0  0
   -2.7859   -0.6224    1.6657 H   0  0  0  0  0  0  0  0  0  0  0  0
   -3.9104   -2.2872    3.0562 H   0  0  0  0  0  0  0  0  0  0  0  0
   -6.3705   -2.5654    2.9392 H   0  0  0  0  0  0  0  0  0  0  0  0
   -7.7063   -1.1202    1.4938 H   0  0  0  0  0  0  0  0  0  0  0  0
   -5.8526    2.7343    0.0598 H   0  0  0  0  0  0  0  0  0  0  0  0
   -7.8761    3.6537   -1.4568 H   0  0  0  0  0  0  0  0  0  0  0  0
   -9.5622    1.5582   -1.8269 H   0  0  0  0  0  0  0  0  0  0  0  0
   -8.4374   -0.5435   -0.5619 H   0  0  0  0  0  0  0  0  0  0  0  0
   -1.0249   -1.7712   -3.4567 H   0  0  0  0  0  0  0  0  0  0  0  0
    1.3697   -2.4473   -3.5157 H   0  0  0  0  0  0  0  0  0  0  0  0
    3.6727   -1.9662   -2.6963 H   0  0  0  0  0  0  0  0  0  0  0  0
    3.4495   -2.5838   -1.0486 H   0  0  0  0  0  0  0  0  0  0  0  0
    5.1949   -0.8317   -1.1088 H   0  0  0  0  0  0  0  0  0  0  0  0
    4.0705    0.3225   -1.8466 H   0  0  0  0  0  0  0  0  0  0  0  0
  1  2  2  0
  2  3  1  0
  3  4  2  0
  4  5  1  0
  5  6  2  0
  6  7  1  0
  7  8  1  0
  8  9  1  0
  9 10  2  0
 10 11  1  0
  2 12  1  0
 12 13  1  0
 13 14  1  0
 14 15  2  0
 15 16  1  0
 16 17  1  0
 17 18  2  0
 17 19  1  0
 19 20  1  0
 20 21  1  0
 21 22  2  0
 22 23  1  0
 23 24  2  0
 24 25  1  0
 25 26  2  0
 26 27  1  0
 27 28  1  0
 28 29  2  0
 29 30  1  0
 30 31  2  0
 16 32  2  0
 32 33  1  0
 33 34  2  0
 34 35  1  0
 35 36  1  0
 36 12  1  0
 34 14  1  0
 11  3  1  0
 11  7  2  0
 26 21  1  0
 31 27  1  0
  4 37  1  0
  5 38  1  0
  6 39  1  0
 10 40  1  0
 13 41  1  0
 13 42  1  0
 19 43  1  0
 20 44  1  0
 20 45  1  0
 22 46  1  0
 23 47  1  0
 24 48  1  0
 25 49  1  0
 28 50  1  0
 29 51  1  0
 30 52  1  0
 31 53  1  0
 32 54  1  0
 33 55  1  0
 35 56  1  0
 35 57  1  0
 36 58  1  0
 36 59  1  0
M  END
>  <type>  (49) 
designed

$$$$
J03
     RDKit          3D

 56 59  0  0  0  0  0  0  0  0999 V2000
   -1.9375   -0.9771    2.1950 O   0  0  0  0  0  0  0  0  0  0  0  0
   -2.3751   -0.2016    1.3492 C   0  0  0  0  0  0  0  0  0  0  0  0
   -3.8154    0.1063    1.3856 C   0  0  0  0  0  0  0  0  0  0  0  0
   -4.6039   -0.0139    0.2497 C   0  0  0  0  0  0  0  0  0  0  0  0
   -5.9333    0.2498    0.2249 N   0  0  0  0  0  0  0  0  0  0  0  0
   -6.4993    0.5982    1.3994 C   0  0  0  0  0  0  0  0  0  0  0  0
   -7.8470    0.8778    1.4495 O   0  0  0  0  0  0  0  0  0  0  0  0
   -8.5579    0.5621    0.2432 C   0  0  0  0  0  0  0  0  0  0  0  0
   -8.9525   -0.9045    0.1382 C   0  0  0  0  0  0  0  0  0  0  0  0
   -9.6945   -1.2860    1.2051 F   0  0  0  0  0  0  0  0  0  0  0  0
   -9.7190   -1.1002   -0.9641 F   0  0  0  0  0  0  0  0  0  0  0  0
   -7.9034   -1.7456    0.0476 F   0  0  0  0  0  0  0  0  0  0  0  0
   -5.7988    0.7168    2.5914 C   0  0  0  0  0  0  0  0  0  0  0  0
   -4.4302    0.4576    2.5856 C   0  0  0  0  0  0  0  0  0  0  0  0
   -1.5820    0.3727    0.3559 N   0  0  0  0  0  0  0  0  0  0  0  0
   -0.1752   -0.0348    0.3452 C   0  0  0  0  0  0  0  0  0  0  0  0
    0.5886    0.3741   -0.8992 C   0  0  0  0  0  0  0  0  0  0  0  0
    1.8446   -0.1235   -1.0312 N   0  0  0  0  0  0  0  0  0  0  0  0
    2.5457    0.2409   -2.1428 C   0  0  0  0  0  0  0  0  0  0  0  0
    3.9293   -0.3238   -2.2665 C   0  0  0  0  0  0  0  0  0  0  0  0
    4.6574   -0.0399   -3.2109 O   0  0  0  0  0  0  0  0  0  0  0  0
    4.2895   -1.1610   -1.2336 N   0  0  0  0  0  0  0  0  0  0  0  0
    5.6184   -1.6945   -1.0869 C   0  0  0  0  0  0  0  0  0  0  0  0
    6.4425   -0.8394   -0.1582 C   0  0  0  0  0  0  0  0  0  0  0  0
    7.1147    0.2899   -0.6482 C   0  0  0  0  0  0  0  0  0  0  0  0
    7.8615    1.1003    0.2075 C   0  0  0  0  0  0  0  0  0  0  0  0
    7.9402    0.7948    1.5662 C   0  0  0  0  0  0  0  0  0  0  0  0
    7.2665   -0.3210    2.0723 C   0  0  0  0  0  0  0  0  0  0  0  0
    7.3406   -0.6317    3.4698 C   0  0  0  0  0  0  0  0  0  0  0  0
    7.3993   -0.8853    4.6010 N   0  0  0  0  0  0  0  0  0  0  0  0
    6.5173   -1.1331    1.2118 C   0  0  0  0  0  0  0  0  0  0  0  0
    2.0536    1.0844   -3.1268 C   0  0  0  0  0  0  0  0  0  0  0  0
    0.7691    1.5917   -2.9696 C   0  0  0  0  0  0  0  0  0  0  0  0
    0.0228    1.2490   -1.8370 C   0  0  0  0  0  0  0  0  0  0  0  0
   -1.3827    1.7614   -1.6670 C   0  0  0  0  0  0  0  0  0  0  0  0
   -1.8428    1.6967   -0.2120 C   0  0  0  0  0  0  0  0  0  0  0  0
   -4.1831   -0.3361   -0.6986 H   0  0  0  0  0  0  0  0  0  0  0  0
   -9.4807    1.1528    0.2814 H   0  0  0  0  0  0  0  0  0  0  0  0
   -8.0315    0.9080   -0.6546 H   0  0  0  0  0  0  0  0  0  0  0  0
   -6.3095    0.9946    3.5069 H   0  0  0  0  0  0  0  0  0  0  0  0
   -3.8528    0.5212    3.5043 H   0  0  0  0  0  0  0  0  0  0  0  0
   -0.1214   -1.1243    0.4553 H   0  0  0  0  0  0  0  0  0  0  0  0
    0.3083    0.4202    1.2183 H   0  0  0  0  0  0  0  0  0  0  0  0
    3.6243   -1.2372   -0.4694 H   0  0  0  0  0  0  0  0  0  0  0  0
    5.5230   -2.7101   -0.6868 H   0  0  0  0  0  0  0  0  0  0  0  0
    6.1082   -1.7753   -2.0644 H   0  0  0  0  0  0  0  0  0  0  0  0
    7.0502    0.5445   -1.7059 H   0  0  0  0  0  0  0  0  0  0  0  0
    8.3785    1.9719   -0.1868 H   0  0  0  0  0  0  0  0  0  0  0  0
    8.5255    1.4337    2.2246 H   0  0  0  0  0  0  0  0  0  0  0  0
    5.9882   -1.9981    1.6092 H   0  0  0  0  0  0  0  0  0  0  0  0
    2.6541    1.3377   -3.9951 H   0  0  0  0  0  0  0  0  0  0  0  0
    0.3555    2.2499   -3.7305 H   0  0  0  0  0  0  0  0  0  0  0  0
   -1.4533    2.7977   -2.0174 H   0  0  0  0  0  0  0  0  0  0  0  0
   -2.0458    1.1473   -2.2891 H   0  0  0  0  0  0  0  0  0  0  0  0
   -1.2914    2.4216    0.4015 H   0  0  0  0  0  0  0  0  0  0  0  0
   -2.8968    1.9742   -0.1428 H   0  0  0  0  0  0  0  0  0  0  0  0
  1  2  2  0
  2  3  1  0
  3  4  2  0
  4  5  1  0
  5  6  2  0
  6  7  1  0
  7  8  1  0
  8  9  1  0
  9 10  1  0
  9 11  1  0
  9 12  1  0
  6 13  1  0
 13 14  2  0
  2 15  1  0
 15 16  1  0
 16 17  1  0
 17 18  2  0
 18 19  1  0
 19 20  1  0
 20 21  2  0
 20 22  1  0
 22 23  1  0
 23 24  1  0
 24 25  2  0
 25 26  1  0
 26 27  2  0
 27 28  1  0
 28 29  1  0
 29 30  3  0
 28 31  2  0
 19 32  2  0
 32 33  1  0
 33 34  2  0
 34 35  1  0
 35 36  1  0
 36 15  1  0
 34 17  1  0
 14  3  1  0
 31 24  1  0
  4 37  1  0
  8 38  1  0
  8 39  1  0
 13 40  1  0
 14 41  1  0
 16 42  1  0
 16 43  1  0
 22 44  1  0
 23 45  1  0
 23 46  1  0
 25 47  1  0
 26 48  1  0
 27 49  1  0
 31 50  1  0
 32 51  1  0
 33 52  1  0
 35 53  1  0
 35 54  1  0
 36 55  1  0
 36 56  1  0
M  END
>  <type>  (50) 
designed

$$$$
J04
     RDKit          3D

 63 66  0  0  0  0  0  0  0  0999 V2000
    2.9984   -1.6325    1.6721 O   0  0  0  0  0  0  0  0  0  0  0  0
    3.4174   -1.0987    0.6476 C   0  0  0  0  0  0  0  0  0  0  0  0
    4.8096   -0.6254    0.6545 C   0  0  0  0  0  0  0  0  0  0  0  0
    5.1070    0.7152    0.4535 C   0  0  0  0  0  0  0  0  0  0  0  0
    6.3688    1.2101    0.4585 N   0  0  0  0  0  0  0  0  0  0  0  0
    7.3589    0.3296    0.7185 C   0  0  0  0  0  0  0  0  0  0  0  0
    8.6653    0.7635    0.7424 O   0  0  0  0  0  0  0  0  0  0  0  0
    8.8082    2.1919    0.7543 C   0  0  0  0  0  0  0  0  0  0  0  0
    8.6621    2.7992    2.1425 C   0  0  0  0  0  0  0  0  0  0  0  0
    7.4421    2.6228    2.6860 F   0  0  0  0  0  0  0  0  0  0  0  0
    8.8904    4.1338    2.0926 F   0  0  0  0  0  0  0  0  0  0  0  0
    9.5706    2.2762    2.9998 F   0  0  0  0  0  0  0  0  0  0  0  0
    7.1533   -1.0239    0.9497 C   0  0  0  0  0  0  0  0  0  0  0  0
    5.8499   -1.5103    0.9263 C   0  0  0  0  0  0  0  0  0  0  0  0
    2.6449   -0.9240   -0.5013 N   0  0  0  0  0  0  0  0  0  0  0  0
    1.2902   -1.4764   -0.4342 C   0  0  0  0  0  0  0  0  0  0  0  0
    0.3955   -1.1446   -1.6103 C   0  0  0  0  0  0  0  0  0  0  0  0
   -0.8900   -1.5716   -1.5292 N   0  0  0  0  0  0  0  0  0  0  0  0
   -1.7072   -1.3038   -2.5878 C   0  0  0  0  0  0  0  0  0  0  0  0
   -3.1223   -1.7871   -2.4665 C   0  0  0  0  0  0  0  0  0  0  0  0
   -3.9391   -1.6168   -3.3653 O   0  0  0  0  0  0  0  0  0  0  0  0
   -3.3969   -2.4125   -1.2690 N   0  0  0  0  0  0  0  0  0  0  0  0
   -4.7331   -2.7665   -0.8636 C   0  0  0  0  0  0  0  0  0  0  0  0
   -5.3555   -1.6669   -0.0432 C   0  0  0  0  0  0  0  0  0  0  0  0
   -6.0466   -0.6240   -0.6632 C   0  0  0  0  0  0  0  0  0  0  0  0
   -6.6186    0.4072    0.0952 C   0  0  0  0  0  0  0  0  0  0  0  0
   -6.5037    0.4651    1.4949 C   0  0  0  0  0  0  0  0  0  0  0  0
   -7.0861    1.4891    2.2552 N   0  0  0  0  0  0  0  0  0  0  0  0
   -6.5258    1.7700    3.5749 C   0  0  0  0  0  0  0  0  0  0  0  0
   -7.6797    2.6324    1.5676 C   0  0  0  0  0  0  0  0  0  0  0  0
   -5.8005   -0.5963    2.0939 C   0  0  0  0  0  0  0  0  0  0  0  0
   -5.2298   -1.6404    1.3464 C   0  0  0  0  0  0  0  0  0  0  0  0
   -1.2986   -0.6256   -3.7254 C   0  0  0  0  0  0  0  0  0  0  0  0
    0.0235   -0.1973   -3.7916 C   0  0  0  0  0  0  0  0  0  0  0  0
    0.8936   -0.4674   -2.7299 C   0  0  0  0  0  0  0  0  0  0  0  0
    2.3187    0.0133   -2.7625 C   0  0  0  0  0  0  0  0  0  0  0  0
    3.2167   -0.8162   -1.8460 C   0  0  0  0  0  0  0  0  0  0  0  0
    4.3239    1.4489    0.2806 H   0  0  0  0  0  0  0  0  0  0  0  0
    9.8294    2.3901    0.4082 H   0  0  0  0  0  0  0  0  0  0  0  0
    8.1552    2.6845    0.0234 H   0  0  0  0  0  0  0  0  0  0  0  0
    7.9897   -1.6814    1.1582 H   0  0  0  0  0  0  0  0  0  0  0  0
    5.6453   -2.5590    1.1259 H   0  0  0  0  0  0  0  0  0  0  0  0
    0.8147   -1.1212    0.4866 H   0  0  0  0  0  0  0  0  0  0  0  0
    1.3832   -2.5673   -0.3700 H   0  0  0  0  0  0  0  0  0  0  0  0
   -2.6600   -2.3671   -0.5706 H   0  0  0  0  0  0  0  0  0  0  0  0
   -4.6647   -3.6915   -0.2743 H   0  0  0  0  0  0  0  0  0  0  0  0
   -5.3523   -2.9860   -1.7440 H   0  0  0  0  0  0  0  0  0  0  0  0
   -6.1457   -0.6059   -1.7473 H   0  0  0  0  0  0  0  0  0  0  0  0
   -7.1544    1.1729   -0.4551 H   0  0  0  0  0  0  0  0  0  0  0  0
   -7.0033    2.6434    4.0320 H   0  0  0  0  0  0  0  0  0  0  0  0
   -6.7009    0.9367    4.2639 H   0  0  0  0  0  0  0  0  0  0  0  0
   -5.4514    1.9791    3.5120 H   0  0  0  0  0  0  0  0  0  0  0  0
   -8.1382    3.3234    2.2827 H   0  0  0  0  0  0  0  0  0  0  0  0
   -8.4845    2.3180    0.8960 H   0  0  0  0  0  0  0  0  0  0  0  0
   -6.9242    3.1897    1.0026 H   0  0  0  0  0  0  0  0  0  0  0  0
   -5.6837   -0.6465    3.1728 H   0  0  0  0  0  0  0  0  0  0  0  0
   -4.6932   -2.4320    1.8688 H   0  0  0  0  0  0  0  0  0  0  0  0
   -1.9930   -0.4313   -4.5367 H   0  0  0  0  0  0  0  0  0  0  0  0
    0.3686    0.3428   -4.6704 H   0  0  0  0  0  0  0  0  0  0  0  0
    2.3336    1.0615   -2.4407 H   0  0  0  0  0  0  0  0  0  0  0  0
    2.7119   -0.0314   -3.7842 H   0  0  0  0  0  0  0  0  0  0  0  0
    4.2178   -0.3796   -1.8286 H   0  0  0  0  0  0  0  0  0  0  0  0
    3.3247   -1.8397   -2.2290 H   0  0  0  0  0  0  0  0  0  0  0  0
  1  2  2  0
  2  3  1  0
  3  4  2  0
  4  5  1  0
  5  6  2  0
  6  7  1  0
  7  8  1  0
  8  9  1  0
  9 10  1  0
  9 11  1  0
  9 12  1  0
  6 13  1  0
 13 14  2  0
  2 15  1  0
 15 16  1  0
 16 17  1  0
 17 18  2  0
 18 19  1  0
 19 20  1  0
 20 21  2  0
 20 22  1  0
 22 23  1  0
 23 24  1  0
 24 25  2  0
 25 26  1  0
 26 27  2  0
 27 28  1  0
 28 29  1  0
 28 30  1  0
 27 31  1  0
 31 32  2  0
 19 33  2  0
 33 34  1  0
 34 35  2  0
 35 36  1  0
 36 37  1  0
 37 15  1  0
 35 17  1  0
 14  3  1  0
 32 24  1  0
  4 38  1  0
  8 39  1  0
  8 40  1  0
 13 41  1  0
 14 42  1  0
 16 43  1  0
 16 44  1  0
 22 45  1  0
 23 46  1  0
 23 47  1  0
 25 48  1  0
 26 49  1  0
 29 50  1  0
 29 51  1  0
 29 52  1  0
 30 53  1  0
 30 54  1  0
 30 55  1  0
 31 56  1  0
 32 57  1  0
 33 58  1  0
 34 59  1  0
 36 60  1  0
 36 61  1  0
 37 62  1  0
 37 63  1  0
M  END
>  <type>  (51) 
designed

$$$$
J05
     RDKit          3D

 60 64  0  0  0  0  0  0  0  0999 V2000
    3.5346   -0.1974    2.4643 O   0  0  0  0  0  0  0  0  0  0  0  0
    4.0810   -0.3175    1.3724 C   0  0  0  0  0  0  0  0  0  0  0  0
    5.5422   -0.1098    1.3289 C   0  0  0  0  0  0  0  0  0  0  0  0
    6.0612    1.1105    1.7645 C   0  0  0  0  0  0  0  0  0  0  0  0
    7.4385    1.3045    1.7501 C   0  0  0  0  0  0  0  0  0  0  0  0
    8.0929    2.8121    2.2573 Cl  0  0  0  0  0  0  0  0  0  0  0  0
    8.2970    0.2883    1.3238 C   0  0  0  0  0  0  0  0  0  0  0  0
    7.7832   -0.9544    0.9168 C   0  0  0  0  0  0  0  0  0  0  0  0
    8.7036   -2.0539    0.4475 C   0  0  0  0  0  0  0  0  0  0  0  0
    9.9680   -1.9438    0.9367 F   0  0  0  0  0  0  0  0  0  0  0  0
    8.8222   -2.0710   -0.9081 F   0  0  0  0  0  0  0  0  0  0  0  0
    8.2689   -3.2937    0.8019 F   0  0  0  0  0  0  0  0  0  0  0  0
    6.3925   -1.1459    0.9221 C   0  0  0  0  0  0  0  0  0  0  0  0
    3.4147   -0.6483    0.1968 N   0  0  0  0  0  0  0  0  0  0  0  0
    1.9632   -0.8278    0.2591 C   0  0  0  0  0  0  0  0  0  0  0  0
    1.2009    0.2573   -0.4832 C   0  0  0  0  0  0  0  0  0  0  0  0
   -0.1327    0.3387   -0.2461 N   0  0  0  0  0  0  0  0  0  0  0  0
   -0.8272    1.2937   -0.9297 C   0  0  0  0  0  0  0  0  0  0  0  0
   -2.2957    1.3767   -0.6385 C   0  0  0  0  0  0  0  0  0  0  0  0
   -3.0237    2.1607   -1.2345 O   0  0  0  0  0  0  0  0  0  0  0  0
   -2.7208    0.5024    0.3372 N   0  0  0  0  0  0  0  0  0  0  0  0
   -4.1090    0.3385    0.7055 C   0  0  0  0  0  0  0  0  0  0  0  0
   -4.8441   -0.7195   -0.0972 C   0  0  0  0  0  0  0  0  0  0  0  0
   -4.1075   -1.7801   -0.6712 C   0  0  0  0  0  0  0  0  0  0  0  0
   -4.7072   -2.7272   -1.5023 C   0  0  0  0  0  0  0  0  0  0  0  0
   -6.0638   -2.6440   -1.7785 C   0  0  0  0  0  0  0  0  0  0  0  0
   -6.8264   -1.6295   -1.2020 C   0  0  0  0  0  0  0  0  0  0  0  0
   -6.2392   -0.6819   -0.3384 C   0  0  0  0  0  0  0  0  0  0  0  0
   -7.1122    0.2694    0.2735 N   0  0  0  0  0  0  0  0  0  0  0  0
   -7.0226    0.7858    1.5520 C   0  0  0  0  0  0  0  0  0  0  0  0
   -8.0688    1.6567    1.7676 C   0  0  0  0  0  0  0  0  0  0  0  0
   -8.8582    1.6557    0.6013 C   0  0  0  0  0  0  0  0  0  0  0  0
   -8.2689    0.7836   -0.2873 C   0  0  0  0  0  0  0  0  0  0  0  0
   -0.2558    2.1575   -1.8518 C   0  0  0  0  0  0  0  0  0  0  0  0
    1.1090    2.0485   -2.0923 C   0  0  0  0  0  0  0  0  0  0  0  0
    1.8566    1.0807   -1.4134 C   0  0  0  0  0  0  0  0  0  0  0  0
    3.3466    0.9797   -1.6332 C   0  0  0  0  0  0  0  0  0  0  0  0
    3.9131   -0.3581   -1.1480 C   0  0  0  0  0  0  0  0  0  0  0  0
    5.3929    1.8943    2.1136 H   0  0  0  0  0  0  0  0  0  0  0  0
    9.3732    0.4598    1.3189 H   0  0  0  0  0  0  0  0  0  0  0  0
    5.9704   -2.1045    0.6209 H   0  0  0  0  0  0  0  0  0  0  0  0
    1.6109   -0.8815    1.2940 H   0  0  0  0  0  0  0  0  0  0  0  0
    1.7396   -1.7882   -0.2202 H   0  0  0  0  0  0  0  0  0  0  0  0
   -2.0130   -0.1091    0.7318 H   0  0  0  0  0  0  0  0  0  0  0  0
   -4.5877    1.3150    0.5839 H   0  0  0  0  0  0  0  0  0  0  0  0
   -4.1140    0.0545    1.7624 H   0  0  0  0  0  0  0  0  0  0  0  0
   -3.0369   -1.8663   -0.4978 H   0  0  0  0  0  0  0  0  0  0  0  0
   -4.1088   -3.5208   -1.9416 H   0  0  0  0  0  0  0  0  0  0  0  0
   -6.5348   -3.3764   -2.4286 H   0  0  0  0  0  0  0  0  0  0  0  0
   -7.8956   -1.6280   -1.4011 H   0  0  0  0  0  0  0  0  0  0  0  0
   -6.2520    0.4662    2.2365 H   0  0  0  0  0  0  0  0  0  0  0  0
   -8.2512    2.2113    2.6790 H   0  0  0  0  0  0  0  0  0  0  0  0
   -9.7620    2.2240    0.4235 H   0  0  0  0  0  0  0  0  0  0  0  0
   -8.5584    0.5286   -1.2972 H   0  0  0  0  0  0  0  0  0  0  0  0
   -0.8584    2.8995   -2.3662 H   0  0  0  0  0  0  0  0  0  0  0  0
    1.5830    2.7203   -2.8041 H   0  0  0  0  0  0  0  0  0  0  0  0
    3.5817    1.1027   -2.6966 H   0  0  0  0  0  0  0  0  0  0  0  0
    3.8241    1.8004   -1.0833 H   0  0  0  0  0  0  0  0  0  0  0  0
    3.5879   -1.1758   -1.8028 H   0  0  0  0  0  0  0  0  0  0  0  0
    5.0032   -0.3233   -1.1859 H   0  0  0  0  0  0  0  0  0  0  0  0
  1  2  2  0
  2  3  1  0
  3  4  2  0
  4  5  1  0
  5  6  1  0
  5  7  2  0
  7  8  1  0
  8  9  1  0
  9 10  1  0
  9 11  1  0
  9 12  1  0
  8 13  2  0
  2 14  1  0
 14 15  1  0
 15 16  1  0
 16 17  2  0
 17 18  1  0
 18 19  1  0
 19 20  2  0
 19 21  1  0
 21 22  1  0
 22 23  1  0
 23 24  2  0
 24 25  1  0
 25 26  2  0
 26 27  1  0
 27 28  2  0
 28 29  1  0
 29 30  1  0
 30 31  2  0
 31 32  1  0
 32 33  2  0
 18 34  2  0
 34 35  1  0
 35 36  2  0
 36 37  1  0
 37 38  1  0
 38 14  1  0
 36 16  1  0
 13  3  1  0
 28 23  1  0
 33 29  1  0
  4 39  1  0
  7 40  1  0
 13 41  1  0
 15 42  1  0
 15 43  1  0
 21 44  1  0
 22 45  1  0
 22 46  1  0
 24 47  1  0
 25 48  1  0
 26 49  1  0
 27 50  1  0
 30 51  1  0
 31 52  1  0
 32 53  1  0
 33 54  1  0
 34 55  1  0
 35 56  1  0
 37 57  1  0
 37 58  1  0
 38 59  1  0
 38 60  1  0
M  END
>  <type>  (52) 
designed

$$$$
J06
     RDKit          3D

 70 74  0  0  0  0  0  0  0  0999 V2000
    4.1444   -1.0087   -2.3136 O   0  0  0  0  0  0  0  0  0  0  0  0
    4.6227   -0.3726   -1.3792 C   0  0  0  0  0  0  0  0  0  0  0  0
    6.0640   -0.0611   -1.4235 C   0  0  0  0  0  0  0  0  0  0  0  0
    6.8811   -0.3107   -0.3286 C   0  0  0  0  0  0  0  0  0  0  0  0
    8.2154   -0.0709   -0.3127 N   0  0  0  0  0  0  0  0  0  0  0  0
    8.7547    0.4051   -1.4570 C   0  0  0  0  0  0  0  0  0  0  0  0
   10.1071    0.6618   -1.5184 O   0  0  0  0  0  0  0  0  0  0  0  0
   10.8008    0.2979   -0.3159 C   0  0  0  0  0  0  0  0  0  0  0  0
   12.2861    0.5704   -0.4620 C   0  0  0  0  0  0  0  0  0  0  0  0
   12.9449    0.2289    0.6713 F   0  0  0  0  0  0  0  0  0  0  0  0
   12.5353    1.8789   -0.6928 F   0  0  0  0  0  0  0  0  0  0  0  0
   12.8310   -0.1420   -1.4737 F   0  0  0  0  0  0  0  0  0  0  0  0
    8.0243    0.6597   -2.6093 C   0  0  0  0  0  0  0  0  0  0  0  0
    6.6524    0.4134   -2.5942 C   0  0  0  0  0  0  0  0  0  0  0  0
    3.8837    0.0262   -0.2667 N   0  0  0  0  0  0  0  0  0  0  0  0
    2.5016   -0.4511   -0.2037 C   0  0  0  0  0  0  0  0  0  0  0  0
    1.8502   -0.2755    1.1548 C   0  0  0  0  0  0  0  0  0  0  0  0
    0.6653   -0.9094    1.3486 N   0  0  0  0  0  0  0  0  0  0  0  0
    0.0681   -0.7522    2.5648 C   0  0  0  0  0  0  0  0  0  0  0  0
   -1.2224   -1.4874    2.7673 C   0  0  0  0  0  0  0  0  0  0  0  0
   -1.8352   -1.4380    3.8274 O   0  0  0  0  0  0  0  0  0  0  0  0
   -1.6430   -2.2072    1.6701 N   0  0  0  0  0  0  0  0  0  0  0  0
   -2.8758   -2.9511    1.6508 C   0  0  0  0  0  0  0  0  0  0  0  0
   -4.0103   -2.1395    1.1262 C   0  0  0  0  0  0  0  0  0  0  0  0
   -4.4356   -2.1993   -0.1790 C   0  0  0  0  0  0  0  0  0  0  0  0
   -5.4647   -1.4799   -0.6698 N   0  0  0  0  0  0  0  0  0  0  0  0
   -6.1079   -0.6517    0.1714 C   0  0  0  0  0  0  0  0  0  0  0  0
   -7.1736    0.0691   -0.2993 N   0  0  0  0  0  0  0  0  0  0  0  0
   -7.4904    0.0800   -1.7229 C   0  0  0  0  0  0  0  0  0  0  0  0
   -8.2114    1.3917   -2.1145 C   0  0  0  0  0  0  0  0  0  0  0  0
   -9.4116    1.7369   -1.3211 N   0  0  0  0  0  0  0  0  0  0  0  0
  -10.6418    1.3418   -2.0019 C   0  0  0  0  0  0  0  0  0  0  0  0
   -9.3575    1.1431    0.0354 C   0  0  0  0  0  0  0  0  0  0  0  0
   -7.9287    0.9444    0.5909 C   0  0  0  0  0  0  0  0  0  0  0  0
   -5.7522   -0.5179    1.4596 N   0  0  0  0  0  0  0  0  0  0  0  0
   -4.7143   -1.2539    1.9075 C   0  0  0  0  0  0  0  0  0  0  0  0
    0.5906    0.0181    3.5920 C   0  0  0  0  0  0  0  0  0  0  0  0
    1.7997    0.6668    3.3713 C   0  0  0  0  0  0  0  0  0  0  0  0
    2.4433    0.5316    2.1365 C   0  0  0  0  0  0  0  0  0  0  0  0
    3.7819    1.1824    1.9044 C   0  0  0  0  0  0  0  0  0  0  0  0
    4.1207    1.2972    0.4201 C   0  0  0  0  0  0  0  0  0  0  0  0
    6.4808   -0.7291    0.5911 H   0  0  0  0  0  0  0  0  0  0  0  0
   10.4216    0.8873    0.5279 H   0  0  0  0  0  0  0  0  0  0  0  0
   10.6635   -0.7710   -0.1114 H   0  0  0  0  0  0  0  0  0  0  0  0
    8.5150    1.0311   -3.5030 H   0  0  0  0  0  0  0  0  0  0  0  0
    6.0529    0.5814   -3.4854 H   0  0  0  0  0  0  0  0  0  0  0  0
    1.9209    0.1054   -0.9492 H   0  0  0  0  0  0  0  0  0  0  0  0
    2.4799   -1.5125   -0.4777 H   0  0  0  0  0  0  0  0  0  0  0  0
   -1.0772   -2.1171    0.8301 H   0  0  0  0  0  0  0  0  0  0  0  0
   -2.7116   -3.8340    1.0230 H   0  0  0  0  0  0  0  0  0  0  0  0
   -3.1074   -3.3151    2.6587 H   0  0  0  0  0  0  0  0  0  0  0  0
   -3.9560   -2.8506   -0.9041 H   0  0  0  0  0  0  0  0  0  0  0  0
   -8.1277   -0.7802   -1.9608 H   0  0  0  0  0  0  0  0  0  0  0  0
   -6.5852    0.0067   -2.3383 H   0  0  0  0  0  0  0  0  0  0  0  0
   -7.4994    2.2165   -1.9753 H   0  0  0  0  0  0  0  0  0  0  0  0
   -8.4357    1.3814   -3.1887 H   0  0  0  0  0  0  0  0  0  0  0  0
  -10.7356    1.8667   -2.9586 H   0  0  0  0  0  0  0  0  0  0  0  0
  -10.6814    0.2641   -2.1948 H   0  0  0  0  0  0  0  0  0  0  0  0
  -11.5189    1.6191   -1.4059 H   0  0  0  0  0  0  0  0  0  0  0  0
   -9.8454    0.1585    0.0346 H   0  0  0  0  0  0  0  0  0  0  0  0
   -9.9268    1.7814    0.7203 H   0  0  0  0  0  0  0  0  0  0  0  0
   -8.0228    0.5142    1.5956 H   0  0  0  0  0  0  0  0  0  0  0  0
   -7.4196    1.9117    0.6847 H   0  0  0  0  0  0  0  0  0  0  0  0
   -4.4637   -1.1011    2.9546 H   0  0  0  0  0  0  0  0  0  0  0  0
    0.0733    0.1054    4.5423 H   0  0  0  0  0  0  0  0  0  0  0  0
    2.2380    1.2690    4.1641 H   0  0  0  0  0  0  0  0  0  0  0  0
    4.5438    0.5726    2.4051 H   0  0  0  0  0  0  0  0  0  0  0  0
    3.8014    2.1820    2.3540 H   0  0  0  0  0  0  0  0  0  0  0  0
    5.1490    1.6450    0.2961 H   0  0  0  0  0  0  0  0  0  0  0  0
    3.4812    2.0463   -0.0656 H   0  0  0  0  0  0  0  0  0  0  0  0
  1  2  2  0
  2  3  1  0
  3  4  2  0
  4  5  1  0
  5  6  2  0
  6  7  1  0
  7  8  1  0
  8  9  1  0
  9 10  1  0
  9 11  1  0
  9 12  1  0
  6 13  1  0
 13 14  2  0
  2 15  1  0
 15 16  1  0
 16 17  1  0
 17 18  2  0
 18 19  1  0
 19 20  1  0
 20 21  2  0
 20 22  1  0
 22 23  1  0
 23 24  1  0
 24 25  2  0
 25 26  1  0
 26 27  2  0
 27 28  1  0
 28 29  1  0
 29 30  1  0
 30 31  1  0
 31 32  1  0
 31 33  1  0
 33 34  1  0
 27 35  1  0
 35 36  2  0
 19 37  2  0
 37 38  1  0
 38 39  2  0
 39 40  1  0
 40 41  1  0
 41 15  1  0
 39 17  1  0
 14  3  1  0
 36 24  1  0
 34 28  1  0
  4 42  1  0
  8 43  1  0
  8 44  1  0
 13 45  1  0
 14 46  1  0
 16 47  1  0
 16 48  1  0
 22 49  1  0
 23 50  1  0
 23 51  1  0
 25 52  1  0
 29 53  1  0
 29 54  1  0
 30 55  1  0
 30 56  1  0
 32 57  1  0
 32 58  1  0
 32 59  1  0
 33 60  1  0
 33 61  1  0
 34 62  1  0
 34 63  1  0
 36 64  1  0
 37 65  1  0
 38 66  1  0
 40 67  1  0
 40 68  1  0
 41 69  1  0
 41 70  1  0
M  END
>  <type>  (53) 
designed

$$$$
