CDK2-CCNE_ligand
     RDKit          3D

 72 77  0  0  0  0  0  0  0  0999 V2000
    0.4562    3.2156   -1.9880 O   0  0  0  0  0  0  0  0  0  0  0  0
   -0.1539    2.3232   -1.4114 C   0  0  0  0  0  0  0  0  0  0  0  0
   -0.0520    2.0572   -0.0635 N   0  0  0  0  0  0  0  0  0  0  0  0
   -1.0912    1.4074   -2.1438 C   0  0  0  0  0  0  0  0  0  0  0  0
    0.8889    2.7250    0.7968 C   0  0  0  0  0  0  0  0  0  0  0  0
   -1.7752    0.5099   -1.3766 N   0  0  0  0  0  0  0  0  0  0  0  0
   -1.2201    1.5074   -3.5214 C   0  0  0  0  0  0  0  0  0  0  0  0
    2.2005    1.9885    0.8553 C   0  0  0  0  0  0  0  0  0  0  0  0
   -2.6456   -0.3090   -2.0179 C   0  0  0  0  0  0  0  0  0  0  0  0
   -2.0966    0.6380   -4.1621 C   0  0  0  0  0  0  0  0  0  0  0  0
    2.3854    0.9042    1.7159 C   0  0  0  0  0  0  0  0  0  0  0  0
    3.2560    2.3535    0.0180 C   0  0  0  0  0  0  0  0  0  0  0  0
   -2.8169   -0.2963   -3.4123 C   0  0  0  0  0  0  0  0  0  0  0  0
   -3.4192   -1.2899   -1.1503 C   0  0  0  0  0  0  0  0  0  0  0  0
    3.6117    0.2218    1.7517 C   0  0  0  0  0  0  0  0  0  0  0  0
    4.4769    1.6669    0.0662 C   0  0  0  0  0  0  0  0  0  0  0  0
   -3.8109   -1.2125   -4.0889 C   0  0  0  0  0  0  0  0  0  0  0  0
   -4.5707   -1.8628   -1.8499 N   0  0  0  0  0  0  0  0  0  0  0  0
    4.6960    0.5863    0.9364 C   0  0  0  0  0  0  0  0  0  0  0  0
   -4.2424   -2.3672   -3.1774 C   0  0  0  0  0  0  0  0  0  0  0  0
   -5.8816   -1.4045   -1.6379 C   0  0  0  0  0  0  0  0  0  0  0  0
    5.9068   -0.0883    0.9793 N   0  0  0  0  0  0  0  0  0  0  0  0
   -6.7278   -1.4884   -2.5298 O   0  0  0  0  0  0  0  0  0  0  0  0
   -6.1956   -0.8536   -0.3352 C   0  0  0  0  0  0  0  0  0  0  0  0
    6.2922   -0.9168    2.1351 C   0  0  0  0  0  0  0  0  0  0  0  0
    6.9212    0.0786   -0.0749 C   0  0  0  0  0  0  0  0  0  0  0  0
   -6.7051    0.4142   -0.2933 O   0  0  0  0  0  0  0  0  0  0  0  0
   -6.0911   -1.3707    0.9521 C   0  0  0  0  0  0  0  0  0  0  0  0
    7.8288   -0.9418    2.3138 C   0  0  0  0  0  0  0  0  0  0  0  0
    7.8953   -1.1237   -0.1216 C   0  0  0  0  0  0  0  0  0  0  0  0
   -6.8957    0.7333    1.0127 C   0  0  0  0  0  0  0  0  0  0  0  0
   -6.5322   -0.3304    1.8289 C   0  0  0  0  0  0  0  0  0  0  0  0
   -5.6203   -2.7246    1.3396 C   0  0  0  0  0  0  0  0  0  0  0  0
    8.5687   -1.4660    1.1462 N   0  0  0  0  0  0  0  0  0  0  0  0
   -7.3851    1.9510    1.4810 C   0  0  0  0  0  0  0  0  0  0  0  0
   -6.6665   -0.1769    3.2217 C   0  0  0  0  0  0  0  0  0  0  0  0
    9.9622   -1.0347    1.1687 C   0  0  0  0  0  0  0  0  0  0  0  0
   -7.5078    2.0847    2.8671 C   0  0  0  0  0  0  0  0  0  0  0  0
   -7.1555    1.0389    3.7243 C   0  0  0  0  0  0  0  0  0  0  0  0
   -0.5328    1.2250    0.2619 H   0  0  0  0  0  0  0  0  0  0  0  0
    1.0400    3.7549    0.4545 H   0  0  0  0  0  0  0  0  0  0  0  0
    0.4434    2.7813    1.7960 H   0  0  0  0  0  0  0  0  0  0  0  0
   -0.6535    2.2450   -4.0811 H   0  0  0  0  0  0  0  0  0  0  0  0
   -2.2235    0.6994   -5.2402 H   0  0  0  0  0  0  0  0  0  0  0  0
    1.5784    0.5752    2.3657 H   0  0  0  0  0  0  0  0  0  0  0  0
    3.1369    3.1773   -0.6840 H   0  0  0  0  0  0  0  0  0  0  0  0
   -2.7525   -2.1206   -0.8846 H   0  0  0  0  0  0  0  0  0  0  0  0
   -3.7073   -0.7796   -0.2285 H   0  0  0  0  0  0  0  0  0  0  0  0
    3.6909   -0.6277    2.4248 H   0  0  0  0  0  0  0  0  0  0  0  0
    5.2643    2.0161   -0.5949 H   0  0  0  0  0  0  0  0  0  0  0  0
   -3.3797   -1.6248   -5.0084 H   0  0  0  0  0  0  0  0  0  0  0  0
   -4.6884   -0.6143   -4.3642 H   0  0  0  0  0  0  0  0  0  0  0  0
   -3.4283   -3.0943   -3.0637 H   0  0  0  0  0  0  0  0  0  0  0  0
   -5.0942   -2.8994   -3.6144 H   0  0  0  0  0  0  0  0  0  0  0  0
    5.9114   -1.9365    1.9985 H   0  0  0  0  0  0  0  0  0  0  0  0
    5.8682   -0.5161    3.0641 H   0  0  0  0  0  0  0  0  0  0  0  0
    7.4830    1.0048    0.0985 H   0  0  0  0  0  0  0  0  0  0  0  0
    6.4437    0.1364   -1.0634 H   0  0  0  0  0  0  0  0  0  0  0  0
    8.0751   -1.5605    3.1870 H   0  0  0  0  0  0  0  0  0  0  0  0
    8.1539    0.0845    2.5418 H   0  0  0  0  0  0  0  0  0  0  0  0
    7.3190   -2.0122   -0.4161 H   0  0  0  0  0  0  0  0  0  0  0  0
    8.6230   -0.9641   -0.9296 H   0  0  0  0  0  0  0  0  0  0  0  0
   -5.8097   -3.4547    0.5463 H   0  0  0  0  0  0  0  0  0  0  0  0
   -4.5450   -2.7074    1.5441 H   0  0  0  0  0  0  0  0  0  0  0  0
   -6.1372   -3.0758    2.2384 H   0  0  0  0  0  0  0  0  0  0  0  0
   -7.6554    2.7478    0.7988 H   0  0  0  0  0  0  0  0  0  0  0  0
   -6.3994   -0.9800    3.9013 H   0  0  0  0  0  0  0  0  0  0  0  0
   10.4449   -1.3558    2.0980 H   0  0  0  0  0  0  0  0  0  0  0  0
   10.5202   -1.5082    0.3519 H   0  0  0  0  0  0  0  0  0  0  0  0
   10.0728    0.0515    1.0750 H   0  0  0  0  0  0  0  0  0  0  0  0
   -7.8861    3.0169    3.2822 H   0  0  0  0  0  0  0  0  0  0  0  0
   -7.2643    1.1686    4.7990 H   0  0  0  0  0  0  0  0  0  0  0  0
  1  2  2  0
  2  3  1  0
  2  4  1  0
  3  5  1  0
  4  6  2  0
  4  7  1  0
  5  8  1  0
  6  9  1  0
  7 10  2  0
  8 11  2  0
  8 12  1  0
  9 13  2  0
  9 14  1  0
 11 15  1  0
 12 16  2  0
 13 17  1  0
 14 18  1  0
 15 19  2  0
 17 20  1  0
 18 21  1  0
 19 22  1  0
 21 23  2  0
 21 24  1  0
 22 25  1  0
 22 26  1  0
 24 27  1  0
 24 28  2  0
 25 29  1  0
 26 30  1  0
 27 31  1  0
 28 32  1  0
 28 33  1  0
 29 34  1  0
 31 35  2  0
 32 36  2  0
 34 37  1  0
 35 38  1  0
 36 39  1  0
 10 13  1  0
 16 19  1  0
 18 20  1  0
 30 34  1  0
 31 32  1  0
 38 39  2  0
  3 40  1  0
  5 41  1  0
  5 42  1  0
  7 43  1  0
 10 44  1  0
 11 45  1  0
 12 46  1  0
 14 47  1  0
 14 48  1  0
 15 49  1  0
 16 50  1  0
 17 51  1  0
 17 52  1  0
 20 53  1  0
 20 54  1  0
 25 55  1  0
 25 56  1  0
 26 57  1  0
 26 58  1  0
 29 59  1  0
 29 60  1  0
 30 61  1  0
 30 62  1  0
 33 63  1  0
 33 64  1  0
 33 65  1  0
 35 66  1  0
 36 67  1  0
 37 68  1  0
 37 69  1  0
 37 70  1  0
 38 71  1  0
 39 72  1  0
M  END
$$$$
