EL2003A_MD_final
     RDKit          3D

 37 41  0  0  0  0  0  0  0  0999 V2000
   -6.5137   39.9594   45.6551 C   0  0  0  0  0  0  0  0  0  0  0  0
   -5.5344   40.9653   45.5171 N   0  0  0  0  0  0  0  0  0  0  0  0
   -7.8016   40.1315   45.2682 N   0  0  0  0  0  0  0  0  0  0  0  0
   -5.8803   42.1183   44.9000 C   0  0  0  0  0  0  0  0  0  0  0  0
   -8.1323   41.3402   44.8145 C   0  0  0  0  0  0  0  0  0  0  0  0
   -7.2495   42.3080   44.5576 C   0  0  0  0  0  0  0  0  0  0  0  0
   -9.2875   41.8004   44.0585 N   0  0  0  0  0  0  0  0  0  0  0  0
   -8.1356   43.1301   43.8870 N   0  0  0  0  0  0  0  0  0  0  0  0
   -9.3057   43.1322   43.5472 C   0  0  0  0  0  0  0  0  0  0  0  0
  -10.0246   41.1369   43.8576 H   0  0  0  0  0  0  0  0  0  0  0  0
   -6.2215   38.7819   46.3884 N   0  0  0  0  0  0  0  0  0  0  0  0
   -6.9803   38.1400   46.5691 H   0  0  0  0  0  0  0  0  0  0  0  0
   -2.6190   37.5755   46.1859 C   0  0  0  0  0  0  0  0  0  0  0  0
   -3.8145   38.2595   45.7983 C   0  0  0  0  0  0  0  0  0  0  0  0
   -2.6144   37.3839   47.6324 C   0  0  0  0  0  0  0  0  0  0  0  0
   -4.9516   38.1279   46.6412 C   0  0  0  0  0  0  0  0  0  0  0  0
   -3.6478   37.1175   48.3340 C   0  0  0  0  0  0  0  0  0  0  0  0
   -4.7332   37.5022   47.9023 C   0  0  0  0  0  0  0  0  0  0  0  0
   -0.9969   39.5576   44.8148 O   0  0  0  0  0  0  0  0  0  0  0  0
   -1.4794   39.8064   45.8968 C   0  0  0  0  0  0  0  0  0  0  0  0
   -1.3356   41.0653   46.6114 N   0  0  0  0  0  0  0  0  0  0  0  0
   -2.3055   38.8648   46.5914 N   0  0  0  0  0  0  0  0  0  0  0  0
   -1.5112   42.1917   45.9814 C   0  0  0  0  0  0  0  0  0  0  0  0
   -0.2915   41.8656   46.2888 C   0  0  0  0  0  0  0  0  0  0  0  0
   -1.0517   43.2119   45.5073 C   0  0  0  0  0  0  0  0  0  0  0  0
    0.0982   42.8986   45.8058 C   0  0  0  0  0  0  0  0  0  0  0  0
   -2.8182   39.2341   47.3742 H   0  0  0  0  0  0  0  0  0  0  0  0
   -4.8689   43.0042   44.6750 N   0  0  0  0  0  0  0  0  0  0  0  0
   -3.9117   42.6780   44.7337 H   0  0  0  0  0  0  0  0  0  0  0  0
   -4.9435   44.2665   44.3604 C   0  0  0  0  0  0  0  0  0  0  0  0
   -4.9975   45.4741   44.0196 C   0  0  0  0  0  0  0  0  0  0  0  0
   -6.1844   46.2358   43.6868 C   0  0  0  0  0  0  0  0  0  0  0  0
   -6.2048   47.5786   44.2227 N   0  0  0  0  0  0  0  0  0  0  0  0
   -6.0843   46.8870   42.4853 C   0  0  0  0  0  0  0  0  0  0  0  0
   -6.1364   48.7315   43.4728 C   0  0  0  0  0  0  0  0  0  0  0  0
   -6.1173   48.0719   42.4308 N   0  0  0  0  0  0  0  0  0  0  0  0
   -6.2056   47.6326   45.2307 H   0  0  0  0  0  0  0  0  0  0  0  0
 19 20  2  0
 20 21  1  0
 20 22  1  0
 21 23  1  0
 21 24  1  0
 22 13  1  0
 23 25  1  0
 24 26  1  0
 13 14  2  0
 13 15  1  0
 14 16  1  0
 15 17  2  0
 16 11  1  0
 16 18  2  0
 11  1  1  0
  1  2  2  0
  1  3  1  0
  2  4  1  0
  3  5  2  0
  4 28  1  0
  4  6  2  0
  5  7  1  0
 28 30  1  0
  6  8  1  0
  7  9  1  0
 30 31  1  0
 31 32  1  0
 32 33  1  0
 32 34  2  0
 33 35  1  0
 34 36  1  0
 25 26  1  0
 17 18  1  0
  5  6  1  0
  8  9  2  0
 35 36  2  0
 22 27  1  0
 11 12  1  0
 28 29  1  0
  7 10  1  0
 33 37  1  0
M  END
>  <Source>  (1) 
EL2003A pose2, GROMACS 1 ns MD, last frame t=1000 ps

>  <Aligned_to>  (1) 
receptor_pH74_noH.pdb

>  <Ca_RMSD_A>  (1) 
4.438

>  <MD_time_ps>  (1) 
1000

>  <pIC50_PDK>  (1) 
7.9

>  <dG_bind_kcalmol>  (1) 
-44.51

>  <method>  (1) 
MM-GBSA OBC2 1-traj 1 ns GROMACS AMBER03+GAFF2

$$$$
