
  ACCLDraw09082614422D

  0  0  0     0  0            999 V3000
M  V30 BEGIN CTAB
M  V30 COUNTS 13 13 0 0 0
M  V30 BEGIN ATOM
M  V30 1 O 7.0123 -3.9904 0 0 
M  V30 2 C 4.9356 -4.5899 0 0 
M  V30 3 C 5.4548 -4.8896 0 0 
M  V30 4 C 4.9356 -3.9904 0 0 
M  V30 5 C 5.4548 -4.2901 0 0 CFG=3 
M  V30 6 O 5.9739 -3.9904 0 0 
M  V30 7 C 6.4931 -4.2901 0 0 
M  V30 8 C 7.0127 -5.1896 0 0 
M  V30 9 N 6.4931 -4.8896 0 0 CFG=3 
M  V30 10 C 5.9735 -5.1896 0 0 
M  V30 11 C 5.9735 -5.7896 0 0 
M  V30 12 N 6.4931 -6.0896 0 0 CFG=3 
M  V30 13 C 7.0127 -5.7896 0 0 
M  V30 END ATOM
M  V30 BEGIN BOND
M  V30 1 2 7 1 
M  V30 2 1 5 2 
M  V30 3 1 5 3 
M  V30 4 1 5 4 
M  V30 5 1 6 5 
M  V30 6 1 7 6 
M  V30 7 1 9 7 
M  V30 8 1 13 8 
M  V30 9 1 8 9 
M  V30 10 1 9 10 
M  V30 11 1 10 11 
M  V30 12 1 11 12 
M  V30 13 1 13 12 
M  V30 END BOND
M  V30 END CTAB
M  END
