
  ACCLDraw09082614422D

  0  0  0     0  0            999 V3000
M  V30 BEGIN CTAB
M  V30 COUNTS 19 21 0 0 0
M  V30 BEGIN ATOM
M  V30 1 O 13.7902 -9.353 0 0 
M  V30 2 O 15.5886 -10.3914 0 0 
M  V30 3 C 14.0899 -10.9105 0 0 
M  V30 4 C 14.6894 -10.9105 0 0 
M  V30 5 C 14.9891 -10.3914 0 0 
M  V30 6 N 14.6894 -9.8722 0 0 CFG=3 
M  V30 7 C 14.0899 -9.8722 0 0 
M  V30 8 C 13.7902 -10.3913 0 0 CFG=3 
M  V30 9 O 12.9931 -9.3267 0 0 
M  V30 10 C 12.838 -9.9058 0 0 
M  V30 11 N 13.1907 -10.3913 0 0 CFG=3 
M  V30 12 C 12.838 -10.8768 0 0 
M  V30 13 Br 10.7105 -10.9938 0 0 
M  V30 14 C 11.2297 -10.6941 0 0 
M  V30 15 C 11.7508 -10.9909 0 0 
M  V30 16 C 12.2672 -10.6914 0 0 
M  V30 17 C 12.2672 -10.0912 0 0 
M  V30 18 C 11.7494 -9.7916 0 0 
M  V30 19 C 11.2297 -10.0915 0 0 
M  V30 END ATOM
M  V30 BEGIN BOND
M  V30 1 2 7 1 
M  V30 2 2 5 2 
M  V30 3 1 8 3 
M  V30 4 1 3 4 
M  V30 5 1 4 5 
M  V30 6 1 5 6 
M  V30 7 1 6 7 
M  V30 8 1 7 8 
M  V30 9 1 11 8 
M  V30 10 2 10 9 
M  V30 11 1 17 10 
M  V30 12 1 10 11 
M  V30 13 1 11 12 
M  V30 14 1 16 12 
M  V30 15 1 14 13 
M  V30 16 1 19 14 
M  V30 17 2 14 15 
M  V30 18 1 15 16 
M  V30 19 2 16 17 
M  V30 20 1 17 18 
M  V30 21 2 18 19 
M  V30 END BOND
M  V30 END CTAB
M  END
