1445085-82-4
OCL MolfileCreator  2D

  0  0  0  0  0  0              0 V3000
M  V30 BEGIN CTAB
M  V30 COUNTS 48 54 0 0 0
M  V30 BEGIN ATOM
M  V30 1 Pd 0.0 0.0 0.0 0
M  V30 2 P -0.0199 2.5384 0.0 0
M  V30 3 O 2.0188 -0.6596 0.0 0
M  V30 4 N -1.559 0.0199 0.0 0
M  V30 5 C 0.3397 -1.7389 0.0 0
M  V30 6 C -1.9388 3.318 0.0 0
M  V30 7 C 1.2392 2.3186 0.0 0
M  V30 8 C 0.3397 4.5572 0.0 0
M  V30 9 S 3.5378 0.0999 0.0 0
M  V30 10 C -2.4785 -1.3591 0.0 0
M  V30 11 C -0.7195 -2.7583 0.0 0
M  V30 12 C 1.619 -2.1986 0.0 0
M  V30 13 C -3.4979 2.8583 0.0 0
M  V30 14 C -1.679 4.6572 0.0 0
M  V30 15 C 1.579 1.0193 0.0 0
M  V30 16 C 2.3386 3.338 0.0 0
M  V30 17 C 1.1992 4.7371 0.0 0
M  V30 18 C -1.2192 5.7965 0.0 0
M  V30 19 O 5.0569 -0.8794 0.0 0
M  V30 20 O 3.9976 -1.3392 0.0 0
M  V30 21 C 5.0769 0.5596 0.0 0
M  V30 22 C -1.9388 -2.5584 0.0 0
M  V30 23 C -3.9176 -1.2992 0.0 0
M  V30 24 C -0.3997 -3.9776 0.0 0
M  V30 25 C 1.8389 -3.4779 0.0 0
M  V30 26 C -4.4973 1.519 0.0 0
M  V30 27 C -4.5572 3.9576 0.0 0
M  V30 28 C -2.6983 5.6966 0.0 0
M  V30 29 C 2.9582 0.6596 0.0 0
M  V30 30 C 3.6778 2.9582 0.0 0
M  V30 31 C 1.579 5.7765 0.0 0
M  V30 32 C -0.9194 6.9758 0.0 0
M  V30 33 C -2.7583 -3.7377 0.0 0
M  V30 34 C -4.7171 -2.4785 0.0 0
M  V30 35 C 0.8395 -4.3374 0.0 0
M  V30 36 C -4.1175 0.1798 0.0 0
M  V30 37 C -5.8765 1.8588 0.0 0
M  V30 38 C -4.1175 5.3967 0.0 0
M  V30 39 C 4.0376 1.6989 0.0 0
M  V30 40 C 0.5596 7.0757 0.0 0
M  V30 41 C -4.1175 -3.6578 0.0 0
M  V30 42 O -3.0781 0.0399 0.0 0
M  V30 43 C -5.0969 -0.8395 0.0 0
M  V30 44 O -6.4961 3.5378 0.0 0
M  V30 45 C -6.8759 0.8195 0.0 0
M  V30 46 C -2.3386 1.2992 0.0 0
M  V30 47 C -6.4761 -0.5196 0.0 0
M  V30 48 C -5.5567 4.8571 0.0 0
M  V30 END ATOM
M  V30 BEGIN BOND
M  V30 1 1 1 2
M  V30 2 1 1 3
M  V30 3 1 1 4
M  V30 4 1 1 5
M  V30 5 1 2 6
M  V30 6 1 2 7
M  V30 7 1 2 8
M  V30 8 1 3 9
M  V30 9 1 4 10
M  V30 10 2 5 11
M  V30 11 1 5 12
M  V30 12 2 6 13
M  V30 13 1 6 14
M  V30 14 1 7 15
M  V30 15 1 7 16
M  V30 16 1 8 17
M  V30 17 1 8 18
M  V30 18 2 9 19
M  V30 19 2 9 20
M  V30 20 1 9 21
M  V30 21 2 10 22
M  V30 22 1 10 23
M  V30 23 1 11 24
M  V30 24 2 12 25
M  V30 25 1 13 26
M  V30 26 1 13 27
M  V30 27 2 14 28
M  V30 28 1 15 29
M  V30 29 1 16 30
M  V30 30 1 17 31
M  V30 31 1 18 32
M  V30 32 1 22 33
M  V30 33 2 23 34
M  V30 34 2 24 35
M  V30 35 2 26 36
M  V30 36 1 26 37
M  V30 37 2 27 38
M  V30 38 1 29 39
M  V30 39 1 31 40
M  V30 40 2 33 41
M  V30 41 1 36 42
M  V30 42 1 36 43
M  V30 43 1 37 44
M  V30 44 2 37 45
M  V30 45 1 42 46
M  V30 46 2 43 47
M  V30 47 1 44 48
M  V30 48 1 11 22
M  V30 49 1 25 35
M  V30 50 1 28 38
M  V30 51 1 30 39
M  V30 52 1 32 40
M  V30 53 1 34 41
M  V30 54 1 45 47
M  V30 END BOND
M  V30 END CTAB
M  END
>  <CAS_NUMBER>
1445085-82-4

>  <MOL_NAME>
SPhos Pd G3

>  <Role>
Pd catalyst

$$$$
1134-35-6
OCL MolfileCreator  2D

  0  0  0  0  0  0              0 V3000
M  V30 BEGIN CTAB
M  V30 COUNTS 14 15 0 0 0
M  V30 BEGIN ATOM
M  V30 1 N 0.0 0.0 0.0 0
M  V30 2 C -1.3022 0.7576 0.0 0
M  V30 3 C 1.2904 0.7576 0.0 0
M  V30 4 C -2.6045 0.0118 0.0 0
M  V30 5 C -1.3022 2.2611 0.0 0
M  V30 6 C 1.2904 2.2493 0.0 0
M  V30 7 N -2.6045 -1.4916 0.0 0
M  V30 8 C -3.9067 0.7576 0.0 0
M  V30 9 C 0.0 3.007 0.0 0
M  V30 10 C -3.8949 -2.2375 0.0 0
M  V30 11 C -5.209 0.0118 0.0 0
M  V30 12 C 0.0 4.5105 0.0 0
M  V30 13 C -5.1971 -1.4916 0.0 0
M  V30 14 C -6.5112 0.7576 0.0 0
M  V30 END ATOM
M  V30 BEGIN BOND
M  V30 1 2 1 2
M  V30 2 1 1 3
M  V30 3 1 2 4
M  V30 4 1 2 5
M  V30 5 2 3 6
M  V30 6 2 4 7
M  V30 7 1 4 8
M  V30 8 2 5 9
M  V30 9 1 7 10
M  V30 10 2 8 11
M  V30 11 1 9 12
M  V30 12 2 10 13
M  V30 13 1 11 14
M  V30 14 1 6 9
M  V30 15 1 11 13
M  V30 END BOND
M  V30 END CTAB
M  END
>  <CAS_NUMBER>
1134-35-6

>  <MOL_NAME>
4,4′-Dimethyl-2,2′-dipyridyl

>  <Role>
Ligand

$$$$
1375325-68-0
OCL MolfileCreator  2D

  0  0  0  0  0  0              0 V3000
M  V30 BEGIN CTAB
M  V30 COUNTS 48 52 0 0 0
M  V30 BEGIN ATOM
M  V30 1 Pd 0.0 0.0 0.0 0
M  V30 2 Cl -1.2959 -0.7609 0.0 0
M  V30 3 C 0.0 1.498 0.0 0
M  V30 4 C -1.3078 2.2471 0.0 0
M  V30 5 C 1.2959 2.2589 0.0 0
M  V30 6 C -2.6037 1.498 0.0 0
M  V30 7 C -1.3078 3.7451 0.0 0
M  V30 8 C 1.2959 3.757 0.0 0
M  V30 9 C -3.8997 2.2471 0.0 0
M  V30 10 C -2.6037 0.0 0.0 0
M  V30 11 C -0.0118 4.4942 0.0 0
M  V30 12 N -3.8997 3.7451 0.0 0
M  V30 13 C -5.2075 1.498 0.0 0
M  V30 14 C -3.8997 -0.749 0.0 0
M  V30 15 C -5.2075 -0.0118 0.0 0
M  V30 16 P 5.1362 -6.8483 0.0 0
M  V30 17 C 5.1362 -8.3463 0.0 0
M  V30 18 C 3.8402 -6.0992 0.0 0
M  V30 19 C 6.4321 -6.0992 0.0 0
M  V30 20 C 6.4321 -9.0954 0.0 0
M  V30 21 C 3.8283 -9.0954 0.0 0
M  V30 22 C 3.8402 -4.6012 0.0 0
M  V30 23 C 2.5443 -6.8483 0.0 0
M  V30 24 C 7.7281 -6.8483 0.0 0
M  V30 25 C 6.4321 -4.6012 0.0 0
M  V30 26 C 7.8826 -9.4877 0.0 0
M  V30 27 C 6.4321 -10.5934 0.0 0
M  V30 28 C 3.8283 -10.6053 0.0 0
M  V30 29 C 2.5443 -3.8521 0.0 0
M  V30 30 C 1.2483 -6.0992 0.0 0
M  V30 31 C 9.024 -6.0992 0.0 0
M  V30 32 C 7.7281 -3.8521 0.0 0
M  V30 33 C 8.9408 -8.4296 0.0 0
M  V30 34 C 8.275 -10.9501 0.0 0
M  V30 35 C 5.1362 -11.3425 0.0 0
M  V30 36 C 1.2483 -4.6012 0.0 0
M  V30 37 C 9.024 -4.6012 0.0 0
M  V30 38 O 8.5485 -6.979 0.0 0
M  V30 39 C 10.3913 -8.8219 0.0 0
M  V30 40 O 7.2168 -12.0202 0.0 0
M  V30 41 C 9.7255 -11.3306 0.0 0
M  V30 42 C 9.8444 -6.23 0.0 0
M  V30 43 C 10.7837 -10.2724 0.0 0
M  V30 44 C 7.6092 -13.4707 0.0 0
M  V30 45 C 9.8444 -4.7319 0.0 0
M  V30 46 C 11.1404 -6.979 0.0 0
M  V30 47 C 6.551 -14.5407 0.0 0
M  V30 48 C 9.0597 -13.8511 0.0 0
M  V30 END ATOM
M  V30 BEGIN BOND
M  V30 1 1 1 2
M  V30 2 1 1 3
M  V30 3 2 3 4
M  V30 4 1 3 5
M  V30 5 1 4 6
M  V30 6 1 4 7
M  V30 7 2 5 8
M  V30 8 2 6 9
M  V30 9 1 6 10
M  V30 10 2 7 11
M  V30 11 1 9 12
M  V30 12 1 9 13
M  V30 13 2 10 14
M  V30 14 2 13 15
M  V30 15 1 16 17
M  V30 16 1 16 18
M  V30 17 1 16 19
M  V30 18 2 17 20
M  V30 19 1 17 21
M  V30 20 1 18 22
M  V30 21 1 18 23
M  V30 22 1 19 24
M  V30 23 1 19 25
M  V30 24 1 20 26
M  V30 25 1 20 27
M  V30 26 2 21 28
M  V30 27 1 22 29
M  V30 28 1 23 30
M  V30 29 1 24 31
M  V30 30 1 25 32
M  V30 31 2 26 33
M  V30 32 1 26 34
M  V30 33 2 27 35
M  V30 34 1 29 36
M  V30 35 1 31 37
M  V30 36 1 33 38
M  V30 37 1 33 39
M  V30 38 1 34 40
M  V30 39 2 34 41
M  V30 40 1 38 42
M  V30 41 2 39 43
M  V30 42 1 40 44
M  V30 43 1 42 45
M  V30 44 1 42 46
M  V30 45 1 44 47
M  V30 46 1 44 48
M  V30 47 1 8 11
M  V30 48 1 14 15
M  V30 49 1 28 35
M  V30 50 1 30 36
M  V30 51 1 32 37
M  V30 52 1 41 43
M  V30 END BOND
M  V30 END CTAB
M  END
>  <CAS_NUMBER>
1375325-68-0

>  <MOL_NAME>
Chloro(2-dicyclohexylphosphino-2',6'-diisopropoxy-1,1'-biphenyl)[2-(2'-amino-1,1'-biphenyl)]palladium(II) (RuPhos Pd-G2)

>  <Role>
Pd catalyst

$$$$
1447963-75-8
OCL MolfileCreator  2D

  0  0  0  0  0  0              0 V3000
M  V30 BEGIN CTAB
M  V30 COUNTS 49 51 0 0 0
M  V30 BEGIN ATOM
M  V30 1 Pd 0.0 0.0 0.0 0
M  V30 2 O 0.0 -1.5411 0.0 0
M  V30 3 C -1.3348 0.7645 0.0 0
M  V30 4 S 1.3348 -2.3056 0.0 0
M  V30 5 C -2.6696 0.0 0.0 0
M  V30 6 C -1.3348 2.3056 0.0 0
M  V30 7 O 2.6696 -3.0701 0.0 0
M  V30 8 O 1.3348 -3.8467 0.0 0
M  V30 9 C 2.6696 -1.529 0.0 0
M  V30 10 C -2.6696 -1.5411 0.0 0
M  V30 11 C -4.0045 0.7645 0.0 0
M  V30 12 C -2.6696 3.0701 0.0 0
M  V30 13 C -4.0045 -2.3177 0.0 0
M  V30 14 C -1.3348 -2.3056 0.0 0
M  V30 15 C -4.0045 2.3056 0.0 0
M  V30 16 N -5.3393 -1.5532 0.0 0
M  V30 17 C -4.0045 -3.8589 0.0 0
M  V30 18 C -1.3348 -3.8467 0.0 0
M  V30 19 C -2.6696 -4.6234 0.0 0
M  V30 20 P 10.5816 1.1649 0.0 0
M  V30 21 C 9.2468 0.3883 0.0 0
M  V30 22 C 11.9165 0.4004 0.0 0
M  V30 23 C 10.5816 2.706 0.0 0
M  V30 24 C 9.2468 -1.1528 0.0 0
M  V30 25 C 7.9119 1.1528 0.0 0
M  V30 26 C 12.8023 0.9101 0.0 0
M  V30 27 C 13.2513 -0.364 0.0 0
M  V30 28 C 11.9165 -0.631 0.0 0
M  V30 29 C 10.5816 4.2472 0.0 0
M  V30 30 C 9.2468 3.4705 0.0 0
M  V30 31 C 11.9165 3.4827 0.0 0
M  V30 32 C 10.5816 -1.9173 0.0 0
M  V30 33 C 7.9119 -1.9294 0.0 0
M  V30 34 C 6.5771 0.3761 0.0 0
M  V30 35 C 10.5816 -3.4584 0.0 0
M  V30 36 C 11.9165 -1.1528 0.0 0
M  V30 37 C 6.5771 -1.1649 0.0 0
M  V30 38 C 11.9165 -4.2229 0.0 0
M  V30 39 C 9.2468 -4.235 0.0 0
M  V30 40 C 13.2513 -1.9173 0.0 0
M  V30 41 C 12.4504 0.2912 0.0 0
M  V30 42 C 13.2513 -3.4584 0.0 0
M  V30 43 C 7.9119 -3.4705 0.0 0
M  V30 44 C 9.2468 -5.7762 0.0 0
M  V30 45 C 11.7951 1.08 0.0 0
M  V30 46 C 13.4576 0.4732 0.0 0
M  V30 47 C 14.5861 -4.235 0.0 0
M  V30 48 C 15.921 -3.4705 0.0 0
M  V30 49 C 14.5861 -5.7762 0.0 0
M  V30 END ATOM
M  V30 BEGIN BOND
M  V30 1 1 1 2
M  V30 2 1 1 3
M  V30 3 1 2 4
M  V30 4 2 3 5
M  V30 5 1 3 6
M  V30 6 2 4 7
M  V30 7 2 4 8
M  V30 8 1 4 9
M  V30 9 1 5 10
M  V30 10 1 5 11
M  V30 11 2 6 12
M  V30 12 2 10 13
M  V30 13 1 10 14
M  V30 14 2 11 15
M  V30 15 1 13 16
M  V30 16 1 13 17
M  V30 17 2 14 18
M  V30 18 2 17 19
M  V30 19 1 20 21
M  V30 20 1 20 22
M  V30 21 1 20 23
M  V30 22 2 21 24
M  V30 23 1 21 25
M  V30 24 1 22 26
M  V30 25 1 22 27
M  V30 26 1 22 28
M  V30 27 1 23 29
M  V30 28 1 23 30
M  V30 29 1 23 31
M  V30 30 1 24 32
M  V30 31 1 24 33
M  V30 32 2 25 34
M  V30 33 2 32 35
M  V30 34 1 32 36
M  V30 35 2 33 37
M  V30 36 1 35 38
M  V30 37 1 35 39
M  V30 38 2 36 40
M  V30 39 1 36 41
M  V30 40 2 38 42
M  V30 41 1 39 43
M  V30 42 1 39 44
M  V30 43 1 41 45
M  V30 44 1 41 46
M  V30 45 1 42 47
M  V30 46 1 47 48
M  V30 47 1 47 49
M  V30 48 1 12 15
M  V30 49 1 18 19
M  V30 50 1 34 37
M  V30 51 1 40 42
M  V30 END BOND
M  V30 END CTAB
M  END
>  <CAS_NUMBER>
1447963-75-8

>  <MOL_NAME>
tBuXPhos Pd G3

>  <Role>
Pd catalyst

$$$$
1762-34-1
OCL MolfileCreator  2D

  0  0  0  0  0  0              0 V3000
M  V30 BEGIN CTAB
M  V30 COUNTS 14 15 0 0 0
M  V30 BEGIN ATOM
M  V30 1 N 0.0 0.0 0.0 0
M  V30 2 C -1.3017 0.7573 0.0 0
M  V30 3 C 1.2899 0.7573 0.0 0
M  V30 4 C -2.6034 0.0118 0.0 0
M  V30 5 C -1.3017 2.2602 0.0 0
M  V30 6 C 1.2899 2.2484 0.0 0
M  V30 7 N -2.6034 -1.491 0.0 0
M  V30 8 C -3.9052 0.7573 0.0 0
M  V30 9 C 0.0 3.0058 0.0 0
M  V30 10 C 2.5916 3.0058 0.0 0
M  V30 11 C -3.8933 -2.2366 0.0 0
M  V30 12 C -5.2069 0.0118 0.0 0
M  V30 13 C -5.1951 -1.491 0.0 0
M  V30 14 C -6.4968 -2.2484 0.0 0
M  V30 END ATOM
M  V30 BEGIN BOND
M  V30 1 2 1 2
M  V30 2 1 1 3
M  V30 3 1 2 4
M  V30 4 1 2 5
M  V30 5 2 3 6
M  V30 6 2 4 7
M  V30 7 1 4 8
M  V30 8 2 5 9
M  V30 9 1 6 10
M  V30 10 1 7 11
M  V30 11 2 8 12
M  V30 12 2 11 13
M  V30 13 1 13 14
M  V30 14 1 6 9
M  V30 15 1 12 13
M  V30 END BOND
M  V30 END CTAB
M  END
>  <CAS_NUMBER>
1762-34-1

>  <MOL_NAME>
5,5'-Dimethyl-2,2'-bipyridine

>  <Role>
Ligand

$$$$
2260543-73-3
OCL MolfileCreator  2D

  0  0  0  0  0  0              0 V3000
M  V30 BEGIN CTAB
M  V30 COUNTS 50 56 0 0 0
M  V30 BEGIN ATOM
M  V30 1 F 0.0 0.0 0.0 0
M  V30 2 C -1.2991 0.744 0.0 0
M  V30 3 C -2.5983 0.0 0.0 0
M  V30 4 C -1.2991 2.244 0.0 0
M  V30 5 N -2.5983 -1.4999 0.0 0
M  V30 6 C -3.8975 0.744 0.0 0
M  V30 7 N 0.0 2.9999 0.0 0
M  V30 8 C -2.5983 2.988 0.0 0
M  V30 9 C -1.2991 -2.244 0.0 0
M  V30 10 C -3.8975 -2.2558 0.0 0
M  V30 11 C -5.1966 -0.0118 0.0 0
M  V30 12 C -3.8975 2.244 0.0 0
M  V30 13 C 0.0 4.4998 0.0 0
M  V30 14 C 1.2991 2.2558 0.0 0
M  V30 15 C -2.5983 4.488 0.0 0
M  V30 16 C -1.2991 -3.7439 0.0 0
M  V30 17 C 0.0 -1.4881 0.0 0
M  V30 18 C -3.8975 -3.7557 0.0 0
M  V30 19 C -5.1966 -1.5117 0.0 0
M  V30 20 N -6.4958 -0.7558 0.0 0
M  V30 21 N -5.1966 2.988 0.0 0
M  V30 22 C 1.2991 5.2557 0.0 0
M  V30 23 C -1.3109 5.2439 0.0 0
M  V30 24 C 2.5983 2.9999 0.0 0
M  V30 25 C 1.2991 0.7558 0.0 0
M  V30 26 N -2.5983 5.9879 0.0 0
M  V30 27 C 0.0118 -4.488 0.0 0
M  V30 28 C 1.3109 -2.2322 0.0 0
M  V30 29 C -5.1966 -4.4998 0.0 0
M  V30 30 C -6.4958 -2.2676 0.0 0
M  V30 31 C -6.4958 2.2322 0.0 0
M  V30 32 C -5.1966 4.488 0.0 0
M  V30 33 C 1.2991 6.7556 0.0 0
M  V30 34 C -1.3109 6.7438 0.0 0
M  V30 35 C 3.8975 2.2558 0.0 0
M  V30 36 C 2.5983 0.0118 0.0 0
M  V30 37 C 1.3109 -3.7321 0.0 0
M  V30 38 C -6.4958 -3.7557 0.0 0
M  V30 39 C -7.795 2.9762 0.0 0
M  V30 40 C -6.4958 0.7322 0.0 0
M  V30 41 C -6.4958 5.2321 0.0 0
M  V30 42 C -3.8975 5.2321 0.0 0
M  V30 43 C -0.0118 7.4997 0.0 0
M  V30 44 C 3.8975 0.7558 0.0 0
M  V30 45 C -9.0941 2.2204 0.0 0
M  V30 46 C -7.7832 -0.0236 0.0 0
M  V30 47 C -6.4958 6.732 0.0 0
M  V30 48 C -3.8975 6.732 0.0 0
M  V30 49 C -9.0941 0.7204 0.0 0
M  V30 50 C -5.1966 7.4879 0.0 0
M  V30 END ATOM
M  V30 BEGIN BOND
M  V30 1 1 1 2
M  V30 2 2 2 3
M  V30 3 1 2 4
M  V30 4 1 3 5
M  V30 5 1 3 6
M  V30 6 1 4 7
M  V30 7 2 4 8
M  V30 8 1 5 9
M  V30 9 1 5 10
M  V30 10 1 6 11
M  V30 11 2 6 12
M  V30 12 1 7 13
M  V30 13 1 7 14
M  V30 14 1 8 15
M  V30 15 2 9 16
M  V30 16 1 9 17
M  V30 17 2 10 18
M  V30 18 1 10 19
M  V30 19 3 11 20
M  V30 20 1 12 21
M  V30 21 2 13 22
M  V30 22 1 13 23
M  V30 23 2 14 24
M  V30 24 1 14 25
M  V30 25 3 15 26
M  V30 26 1 16 27
M  V30 27 2 17 28
M  V30 28 1 18 29
M  V30 29 2 19 30
M  V30 30 1 21 31
M  V30 31 1 21 32
M  V30 32 1 22 33
M  V30 33 2 23 34
M  V30 34 1 24 35
M  V30 35 2 25 36
M  V30 36 2 27 37
M  V30 37 2 29 38
M  V30 38 2 31 39
M  V30 39 1 31 40
M  V30 40 2 32 41
M  V30 41 1 32 42
M  V30 42 2 33 43
M  V30 43 2 35 44
M  V30 44 1 39 45
M  V30 45 2 40 46
M  V30 46 1 41 47
M  V30 47 2 42 48
M  V30 48 2 45 49
M  V30 49 2 47 50
M  V30 50 1 8 12
M  V30 51 1 28 37
M  V30 52 1 30 38
M  V30 53 1 34 43
M  V30 54 1 36 44
M  V30 55 1 46 49
M  V30 56 1 48 50
M  V30 END BOND
M  V30 END CTAB
M  END
>  <CAS_NUMBER>
2260543-73-3

>  <MOL_NAME>
2,4,6-Tris(diphenylamino)-5-fluoroisophthalonitrile (3DPAFIPN)

>  <Role>
Photocatalyst

$$$$
1403850-00-9
OCL MolfileCreator  2D

  0  0  0  0  0  0              0 V3000
M  V30 BEGIN CTAB
M  V30 COUNTS 49 55 0 0 0
M  V30 BEGIN ATOM
M  V30 1 F 0.0 0.0 0.0 0
M  V30 2 C -1.2989 0.7439 0.0 0
M  V30 3 C -1.2989 2.2436 0.0 0
M  V30 4 C -2.5979 0.0 0.0 0
M  V30 5 N 0.0 2.9994 0.0 0
M  V30 6 C -2.5979 2.9876 0.0 0
M  V30 7 N -2.5979 -1.4997 0.0 0
M  V30 8 C -3.8969 0.7439 0.0 0
M  V30 9 C 0.0 4.4992 0.0 0
M  V30 10 C 1.2989 2.2555 0.0 0
M  V30 11 F -2.5979 4.4873 0.0 0
M  V30 12 C -3.8969 2.2436 0.0 0
M  V30 13 C -1.2989 -2.2436 0.0 0
M  V30 14 C -3.8969 -2.2555 0.0 0
M  V30 15 C -5.1959 -0.0118 0.0 0
M  V30 16 C 1.2989 5.2549 0.0 0
M  V30 17 C -1.3107 5.2431 0.0 0
M  V30 18 C 2.5979 3.0112 0.0 0
M  V30 19 C 1.2989 0.7557 0.0 0
M  V30 20 N -5.1959 2.9876 0.0 0
M  V30 21 C -1.2989 -3.7434 0.0 0
M  V30 22 C 0.0 -1.4879 0.0 0
M  V30 23 C -3.8969 -3.7552 0.0 0
M  V30 24 C -5.1959 -1.5115 0.0 0
M  V30 25 N -6.4949 -0.7557 0.0 0
M  V30 26 C 1.2989 6.7547 0.0 0
M  V30 27 C -1.3107 6.7429 0.0 0
M  V30 28 C 3.8969 2.2673 0.0 0
M  V30 29 C 2.5979 0.0118 0.0 0
M  V30 30 C -6.4949 2.2318 0.0 0
M  V30 31 C -5.1959 4.4873 0.0 0
M  V30 32 C 0.0118 -4.4873 0.0 0
M  V30 33 C 1.3107 -2.2318 0.0 0
M  V30 34 C -5.1959 -4.4992 0.0 0
M  V30 35 C -6.4949 -2.2673 0.0 0
M  V30 36 C -0.0118 7.4986 0.0 0
M  V30 37 C 3.8969 0.7675 0.0 0
M  V30 38 C -7.7939 2.9758 0.0 0
M  V30 39 C -6.4949 0.7321 0.0 0
M  V30 40 C -6.4949 5.2313 0.0 0
M  V30 41 C -3.8969 5.2431 0.0 0
M  V30 42 C 1.3107 -3.7316 0.0 0
M  V30 43 C -6.4949 -3.7552 0.0 0
M  V30 44 C -9.0928 2.22 0.0 0
M  V30 45 C -7.782 -0.0236 0.0 0
M  V30 46 C -6.4949 6.731 0.0 0
M  V30 47 C -3.8969 6.7429 0.0 0
M  V30 48 C -9.0928 0.7203 0.0 0
M  V30 49 C -5.1959 7.4868 0.0 0
M  V30 END ATOM
M  V30 BEGIN BOND
M  V30 1 1 1 2
M  V30 2 2 2 3
M  V30 3 1 2 4
M  V30 4 1 3 5
M  V30 5 1 3 6
M  V30 6 1 4 7
M  V30 7 2 4 8
M  V30 8 1 5 9
M  V30 9 1 5 10
M  V30 10 1 6 11
M  V30 11 2 6 12
M  V30 12 1 7 13
M  V30 13 1 7 14
M  V30 14 1 8 15
M  V30 15 2 9 16
M  V30 16 1 9 17
M  V30 17 2 10 18
M  V30 18 1 10 19
M  V30 19 1 12 20
M  V30 20 2 13 21
M  V30 21 1 13 22
M  V30 22 2 14 23
M  V30 23 1 14 24
M  V30 24 3 15 25
M  V30 25 1 16 26
M  V30 26 2 17 27
M  V30 27 1 18 28
M  V30 28 2 19 29
M  V30 29 1 20 30
M  V30 30 1 20 31
M  V30 31 1 21 32
M  V30 32 2 22 33
M  V30 33 1 23 34
M  V30 34 2 24 35
M  V30 35 2 26 36
M  V30 36 2 28 37
M  V30 37 2 30 38
M  V30 38 1 30 39
M  V30 39 2 31 40
M  V30 40 1 31 41
M  V30 41 2 32 42
M  V30 42 2 34 43
M  V30 43 1 38 44
M  V30 44 2 39 45
M  V30 45 1 40 46
M  V30 46 2 41 47
M  V30 47 2 44 48
M  V30 48 2 46 49
M  V30 49 1 8 12
M  V30 50 1 27 36
M  V30 51 1 29 37
M  V30 52 1 33 42
M  V30 53 1 35 43
M  V30 54 1 45 48
M  V30 55 1 47 49
M  V30 END BOND
M  V30 END CTAB
M  END
>  <CAS_NUMBER>
1403850-00-9

>  <MOL_NAME>
2,4,6-Tris(diphenylamino)-3,5-difluorobenzonitrile (3DPA2FBN)

>  <Role>
Photocatalyst

$$$$
23570-43-6
OCL MolfileCreator  2D

  0  0  0  0  0  0              0 V3000
M  V30 BEGIN CTAB
M  V30 COUNTS 45 54 0 0 0
M  V30 BEGIN ATOM
M  V30 1 Ru 0.0 0.0 0.0 0 CHG=2
M  V30 2 N -1.4104 -0.4574 0.0 0 VAL=5
M  V30 3 N 0.8767 -1.1944 0.0 0 VAL=5
M  V30 4 N -1.296 0.6734 0.0 0 VAL=5
M  V30 5 N -0.2287 -1.4739 0.0 0 VAL=5
M  V30 6 N -1.3849 0.6353 0.0 0 VAL=5
M  V30 7 N 0.9529 1.1944 0.0 0 VAL=5
M  V30 8 C -1.4104 -1.944 0.0 0
M  V30 9 C -2.6937 0.2795 0.0 0
M  V30 10 C 0.0 -2.3888 0.0 0
M  V30 11 C 2.3506 -1.3468 0.0 0
M  V30 12 C -2.3633 -0.3557 0.0 0
M  V30 13 C -1.8932 2.0838 0.0 0
M  V30 14 C -1.6899 -1.6899 0.0 0
M  V30 15 C 0.5209 -2.8081 0.0 0
M  V30 16 C -1.2706 2.1092 0.0 0
M  V30 17 C -2.8462 0.1905 0.0 0
M  V30 18 C 0.1778 2.4523 0.0 0
M  V30 19 C 2.465 1.4612 0.0 0
M  V30 20 C -2.6937 -2.681 0.0 0
M  V30 21 C -3.9771 -0.4574 0.0 0
M  V30 22 C 0.5972 -3.7483 0.0 0
M  V30 23 C 2.9478 -2.7064 0.0 0
M  V30 24 C -3.8373 -0.2541 0.0 0
M  V30 25 C -3.3544 2.3379 0.0 0
M  V30 26 C -2.5158 -2.9224 0.0 0
M  V30 27 C -0.1651 -4.1804 0.0 0
M  V30 28 C -2.2871 3.1893 0.0 0
M  V30 29 C -3.9771 1.1562 0.0 0
M  V30 30 C 0.5972 3.8754 0.0 0
M  V30 31 C 3.0368 2.8335 0.0 0
M  V30 32 C -2.1727 -4.2947 0.0 0
M  V30 33 C -3.9771 -1.944 0.0 0
M  V30 34 C -0.775 -4.7521 0.0 0
M  V30 35 C 2.0711 -3.9008 0.0 0
M  V30 36 C -4.6632 -1.4866 0.0 0
M  V30 37 C -4.2947 1.2071 0.0 0
M  V30 38 C -3.9898 -2.8208 0.0 0
M  V30 39 C -1.6391 -4.1804 0.0 0
M  V30 40 C -1.8678 4.6124 0.0 0
M  V30 41 C -3.7102 2.6175 0.0 0
M  V30 42 C -0.4193 4.9554 0.0 0
M  V30 43 C 2.1219 4.0025 0.0 0
M  V30 44 Cl 5.4891 0.1016 0.0 0 CHG=-1
M  V30 45 Cl 7.9287 0.1016 0.0 0 CHG=-1
M  V30 END ATOM
M  V30 BEGIN BOND
M  V30 1 1 1 2
M  V30 2 1 1 3
M  V30 3 1 1 4
M  V30 4 1 1 5
M  V30 5 1 1 6
M  V30 6 1 1 7
M  V30 7 1 2 8
M  V30 8 2 2 9
M  V30 9 1 3 10
M  V30 10 2 3 11
M  V30 11 1 4 12
M  V30 12 2 4 13
M  V30 13 1 5 14
M  V30 14 2 5 15
M  V30 15 1 6 16
M  V30 16 2 6 17
M  V30 17 1 7 18
M  V30 18 2 7 19
M  V30 19 2 8 20
M  V30 20 1 9 21
M  V30 21 2 10 22
M  V30 22 1 11 23
M  V30 23 2 12 24
M  V30 24 1 13 25
M  V30 25 2 14 26
M  V30 26 1 15 27
M  V30 27 2 16 28
M  V30 28 1 17 29
M  V30 29 2 18 30
M  V30 30 1 19 31
M  V30 31 1 20 32
M  V30 32 1 20 33
M  V30 33 1 22 34
M  V30 34 1 22 35
M  V30 35 1 24 36
M  V30 36 1 24 37
M  V30 37 1 26 38
M  V30 38 1 26 39
M  V30 39 1 28 40
M  V30 40 1 28 41
M  V30 41 1 30 42
M  V30 42 1 30 43
M  V30 43 1 8 10
M  V30 44 1 12 14
M  V30 45 1 16 18
M  V30 46 2 21 33
M  V30 47 2 23 35
M  V30 48 2 25 37
M  V30 49 2 27 39
M  V30 50 2 29 41
M  V30 51 2 31 43
M  V30 52 2 32 34
M  V30 53 2 36 38
M  V30 54 2 40 42
M  V30 END BOND
M  V30 END CTAB
M  END
>  <CAS_NUMBER>
23570-43-6

>  <MOL_NAME>
Dichlorotris(1,10-phenanthroline)ruthenium(ii)

>  <Role>
Photocatalyst

$$$$
2151915-22-7
OCL MolfileCreator  2D

  0  0  0  0  0  0              0 V3000
M  V30 BEGIN CTAB
M  V30 COUNTS 65 75 0 0 0
M  V30 BEGIN ATOM
M  V30 1 Pd 0.0 0.0 0.0 0 CHG=-2
M  V30 2 P 1.3289 0.6398 0.0 0 CHG=1
M  V30 3 O -0.6768 -1.3166 0.0 0
M  V30 4 N 0.6521 1.3536 0.0 0 CHG=1
M  V30 5 C -1.5012 -0.1107 0.0 0
M  V30 6 C 2.5964 -0.1722 0.0 0
M  V30 7 C 1.3289 2.1411 0.0 0
M  V30 8 C 2.6702 1.3289 0.0 0
M  V30 9 S -0.3691 -2.7933 0.0 0
M  V30 10 C -0.1968 2.5964 0.0 0
M  V30 11 C -2.3503 1.1321 0.0 0
M  V30 12 C -2.1534 -1.4643 0.0 0
M  V30 13 C 2.5964 -1.6735 0.0 0
M  V30 14 C 3.9254 0.5168 0.0 0
M  V30 15 C 2.7318 2.8302 0.0 0
M  V30 16 C 0.2091 2.9533 0.0 0
M  V30 17 C 2.2272 2.7687 0.0 0
M  V30 18 C 4.1346 0.9967 0.0 0
M  V30 19 O -1.4889 -3.79 0.0 0
M  V30 20 O -0.0615 -4.2576 0.0 0
M  V30 21 C 1.0582 -3.2732 0.0 0
M  V30 22 C -1.6981 2.4857 0.0 0
M  V30 23 C 0.4553 3.95 0.0 0
M  V30 24 C -3.8516 1.0213 0.0 0
M  V30 25 C -3.6547 -1.5751 0.0 0
M  V30 26 C 1.0336 -1.8581 0.0 0
M  V30 27 C 3.79 -2.4857 0.0 0
M  V30 28 C 5.119 -0.2953 0.0 0
M  V30 29 C 2.7318 4.3315 0.0 0
M  V30 30 C 0.2091 4.4545 0.0 0
M  V30 31 C 3.2486 3.8639 0.0 0
M  V30 32 C 5.1559 2.0919 0.0 0
M  V30 33 C -2.5472 3.7285 0.0 0
M  V30 34 C -0.3937 5.1929 0.0 0
M  V30 35 C -4.5038 -0.3322 0.0 0
M  V30 36 C 0.4553 -3.2486 0.0 0
M  V30 37 C 0.123 -0.6644 0.0 0
M  V30 38 C 5.119 -1.7966 0.0 0
M  V30 39 C 3.79 -3.9869 0.0 0
M  V30 40 C 1.5381 5.1436 0.0 0
M  V30 41 C 4.713 3.5316 0.0 0
M  V30 42 C -1.895 5.0821 0.0 0
M  V30 43 P 1.7227 -4.0608 0.0 0
M  V30 44 C -1.0336 -3.4455 0.0 0
M  V30 45 C -1.3659 -0.8613 0.0 0
M  V30 46 C 0.7014 0.726 0.0 0
M  V30 47 C 6.3127 -2.6087 0.0 0
M  V30 48 C 4.9837 -4.7991 0.0 0
M  V30 49 C 3.064 -3.3717 0.0 0
M  V30 50 C 1.7227 -5.562 0.0 0
M  V30 51 C -1.9442 -2.2519 0.0 0
M  V30 52 C -2.2765 0.3322 0.0 0
M  V30 53 C -0.2091 1.9196 0.0 0
M  V30 54 C 6.3127 -4.11 0.0 0
M  V30 55 C 4.3315 -4.1838 0.0 0
M  V30 56 C 3.064 -1.8704 0.0 0
M  V30 57 C 2.904 -6.3742 0.0 0
M  V30 58 C 0.2338 -6.2511 0.0 0
M  V30 59 C -1.6981 1.7227 0.0 0
M  V30 60 C 5.6605 -3.4947 0.0 0
M  V30 61 C 4.4668 -1.1813 0.0 0
M  V30 62 C 2.904 -7.8755 0.0 0
M  V30 63 C 0.2338 -7.7524 0.0 0
M  V30 64 C 5.6605 -1.9934 0.0 0
M  V30 65 C 1.4889 -8.5646 0.0 0
M  V30 END ATOM
M  V30 BEGIN BOND
M  V30 1 1 1 2
M  V30 2 1 1 3
M  V30 3 1 1 4
M  V30 4 1 1 5
M  V30 5 1 2 6
M  V30 6 1 2 7
M  V30 7 1 2 8
M  V30 8 1 3 9
M  V30 9 1 4 10
M  V30 10 2 5 11
M  V30 11 1 5 12
M  V30 12 2 6 13
M  V30 13 1 6 14
M  V30 14 2 7 15
M  V30 15 1 7 16
M  V30 16 2 8 17
M  V30 17 1 8 18
M  V30 18 2 9 19
M  V30 19 2 9 20
M  V30 20 1 9 21
M  V30 21 2 10 22
M  V30 22 1 10 23
M  V30 23 1 11 24
M  V30 24 2 12 25
M  V30 25 1 13 26
M  V30 26 1 13 27
M  V30 27 2 14 28
M  V30 28 1 15 29
M  V30 29 2 16 30
M  V30 30 1 17 31
M  V30 31 2 18 32
M  V30 32 1 22 33
M  V30 33 2 23 34
M  V30 34 2 24 35
M  V30 35 2 26 36
M  V30 36 1 26 37
M  V30 37 2 27 38
M  V30 38 1 27 39
M  V30 39 2 29 40
M  V30 40 2 31 41
M  V30 41 2 33 42
M  V30 42 1 36 43
M  V30 43 1 36 44
M  V30 44 2 37 45
M  V30 45 1 37 46
M  V30 46 1 38 47
M  V30 47 2 39 48
M  V30 48 1 43 49
M  V30 49 1 43 50
M  V30 50 2 44 51
M  V30 51 1 45 52
M  V30 52 2 46 53
M  V30 53 2 47 54
M  V30 54 2 49 55
M  V30 55 1 49 56
M  V30 56 2 50 57
M  V30 57 1 50 58
M  V30 58 2 52 59
M  V30 59 1 55 60
M  V30 60 2 56 61
M  V30 61 1 57 62
M  V30 62 2 58 63
M  V30 63 2 60 64
M  V30 64 2 62 65
M  V30 65 1 11 22
M  V30 66 1 25 35
M  V30 67 1 28 38
M  V30 68 1 30 40
M  V30 69 1 32 41
M  V30 70 1 34 42
M  V30 71 1 45 51
M  V30 72 1 48 54
M  V30 73 1 53 59
M  V30 74 1 61 64
M  V30 75 1 63 65
M  V30 END BOND
M  V30 END CTAB
M  END
>  <CAS_NUMBER>
2151915-22-7

>  <MOL_NAME>
[2′-(amino-κN)[1,1′-biphenyl]-2-yl-κC][[2′-(diphenylphosphino)[1,1′-binaphthalen]-2-yl]diphenylphosphine-κP](methanesulfonato-κO)- palladium (rac-BINAP-Pd-G3)

>  <Role>
Pd catalyst

$$$$
1445085-77-7
OCL MolfileCreator  2D

  0  0  0  0  0  0              0 V3000
M  V30 BEGIN CTAB
M  V30 COUNTS 52 56 0 0 0
M  V30 BEGIN ATOM
M  V30 1 Pd 0.0 0.0 0.0 0
M  V30 2 O 1.3005 0.7566 0.0 0
M  V30 3 C -1.3005 0.7448 0.0 0
M  V30 4 S 2.601 0.0118 0.0 0
M  V30 5 C -2.601 0.0 0.0 0
M  V30 6 C -1.3005 2.2463 0.0 0
M  V30 7 O 3.9015 0.7684 0.0 0
M  V30 8 O 3.9015 -0.733 0.0 0
M  V30 9 C 2.601 -1.4897 0.0 0
M  V30 10 C -2.601 -1.5015 0.0 0
M  V30 11 C -3.9015 0.7448 0.0 0
M  V30 12 C -2.601 2.9912 0.0 0
M  V30 13 C -3.9015 -2.2581 0.0 0
M  V30 14 C -1.3005 -2.2463 0.0 0
M  V30 15 C -3.9015 2.2463 0.0 0
M  V30 16 N -5.2021 -1.5133 0.0 0
M  V30 17 C -3.9015 -3.7597 0.0 0
M  V30 18 C -1.3005 -3.7478 0.0 0
M  V30 19 C -2.601 -4.5045 0.0 0
M  V30 20 P 9.9313 -0.5675 0.0 0
M  V30 21 C 10.9008 -1.7143 0.0 0
M  V30 22 C 8.4534 -0.8276 0.0 0
M  V30 23 C 10.4397 0.8394 0.0 0
M  V30 24 C 12.3787 -1.4542 0.0 0
M  V30 25 C 10.3924 -3.1212 0.0 0
M  V30 26 C 7.4839 0.3192 0.0 0
M  V30 27 C 7.945 -2.2345 0.0 0
M  V30 28 C 9.4702 1.9862 0.0 0
M  V30 29 C 11.9176 1.0995 0.0 0
M  V30 30 C 12.887 -0.0472 0.0 0
M  V30 31 C 13.3481 -2.601 0.0 0
M  V30 32 C 11.3619 -4.2681 0.0 0
M  V30 33 C 6.006 0.0472 0.0 0
M  V30 34 C 6.4671 -2.5064 0.0 0
M  V30 35 C 9.9786 3.3932 0.0 0
M  V30 36 C 12.4259 2.5064 0.0 0
M  V30 37 C 11.5865 0.6975 0.0 0
M  V30 38 C 14.1876 0.6975 0.0 0
M  V30 39 C 12.8398 -4.008 0.0 0
M  V30 40 C 5.4977 -1.3596 0.0 0
M  V30 41 C 11.4565 3.6533 0.0 0
M  V30 42 O 10.1086 0.4374 0.0 0
M  V30 43 C 11.5865 2.199 0.0 0
M  V30 44 O 15.4881 -0.0472 0.0 0
M  V30 45 C 14.1876 2.199 0.0 0
M  V30 46 C 9.151 1.5842 0.0 0
M  V30 47 C 12.887 2.9439 0.0 0
M  V30 48 C 16.7886 0.7093 0.0 0
M  V30 49 C 7.6731 1.3241 0.0 0
M  V30 50 C 9.6712 2.9912 0.0 0
M  V30 51 C 18.0892 -0.0354 0.0 0
M  V30 52 C 16.7886 2.2109 0.0 0
M  V30 END ATOM
M  V30 BEGIN BOND
M  V30 1 1 1 2
M  V30 2 1 1 3
M  V30 3 1 2 4
M  V30 4 2 3 5
M  V30 5 1 3 6
M  V30 6 2 4 7
M  V30 7 2 4 8
M  V30 8 1 4 9
M  V30 9 1 5 10
M  V30 10 1 5 11
M  V30 11 2 6 12
M  V30 12 2 10 13
M  V30 13 1 10 14
M  V30 14 2 11 15
M  V30 15 1 13 16
M  V30 16 1 13 17
M  V30 17 2 14 18
M  V30 18 2 17 19
M  V30 19 1 20 21
M  V30 20 1 20 22
M  V30 21 1 20 23
M  V30 22 2 21 24
M  V30 23 1 21 25
M  V30 24 1 22 26
M  V30 25 1 22 27
M  V30 26 1 23 28
M  V30 27 1 23 29
M  V30 28 1 24 30
M  V30 29 1 24 31
M  V30 30 2 25 32
M  V30 31 1 26 33
M  V30 32 1 27 34
M  V30 33 1 28 35
M  V30 34 1 29 36
M  V30 35 2 30 37
M  V30 36 1 30 38
M  V30 37 2 31 39
M  V30 38 1 33 40
M  V30 39 1 35 41
M  V30 40 1 37 42
M  V30 41 1 37 43
M  V30 42 1 38 44
M  V30 43 2 38 45
M  V30 44 1 42 46
M  V30 45 2 43 47
M  V30 46 1 44 48
M  V30 47 1 46 49
M  V30 48 1 46 50
M  V30 49 1 48 51
M  V30 50 1 48 52
M  V30 51 1 12 15
M  V30 52 1 18 19
M  V30 53 1 32 39
M  V30 54 1 34 40
M  V30 55 1 36 41
M  V30 56 1 45 47
M  V30 END BOND
M  V30 END CTAB
M  END
>  <CAS_NUMBER>
1445085-77-7

>  <MOL_NAME>
(2-Dicyclohexylphosphino-2′,6′-diisopropoxy-1,1′-biphenyl)[2-(2′-amino-1,1′-biphenyl)]palladium(II) methanesulfonate (RuPhos-Pd-G3)

>  <Role>
Pd catalyst

$$$$
1445086-12-3
OCL MolfileCreator  2D

  0  0  0  0  0  0              0 V3000
M  V30 BEGIN CTAB
M  V30 COUNTS 38 43 0 0 0
M  V30 BEGIN ATOM
M  V30 1 Pd 0.0 0.0 0.0 0 CHG=2
M  V30 2 P -0.9775 -1.1056 0.0 0 VAL=4
M  V30 3 O 1.4547 0.2909 0.0 0 CHG=-1
M  V30 4 N -1.478 0.256 0.0 0 VAL=4
M  V30 5 C 0.9659 1.1521 0.0 0 CHG=-1
M  V30 6 C -2.4556 -0.8495 0.0 0
M  V30 7 C -1.9435 -2.2577 0.0 0
M  V30 8 C -0.4655 -2.5138 0.0 0
M  V30 9 S 2.4788 -0.8146 0.0 0
M  V30 10 C -1.99 1.6642 0.0 0
M  V30 11 C 0.4538 2.5603 0.0 0
M  V30 12 C 2.4439 0.8961 0.0 0
M  V30 13 C -2.9676 -2.2577 0.0 0
M  V30 14 C -3.4215 0.3025 0.0 0
M  V30 15 C -3.4215 -2.5138 0.0 0
M  V30 16 C -0.9775 -3.4099 0.0 0
M  V30 17 C -1.4314 -3.6659 0.0 0
M  V30 18 C 1.0125 -2.7698 0.0 0
M  V30 19 O 3.9452 -0.4771 0.0 0
M  V30 20 O 2.0366 -2.2461 0.0 0
M  V30 21 C 3.503 -1.9202 0.0 0
M  V30 22 C -1.0241 2.8163 0.0 0
M  V30 23 C -3.4681 1.9202 0.0 0
M  V30 24 C 1.4198 3.7125 0.0 0
M  V30 25 C 3.4099 2.0482 0.0 0
M  V30 26 C -4.4457 -2.5138 0.0 0
M  V30 27 C -4.8995 0.0465 0.0 0
M  V30 28 C -3.9336 -3.922 0.0 0
M  V30 29 C -1.4896 -4.8181 0.0 0
M  V30 30 C -0.9194 -5.0741 0.0 0
M  V30 31 C 1.5245 -4.178 0.0 0
M  V30 32 C -1.5362 4.2245 0.0 0
M  V30 33 C -3.9801 3.3284 0.0 0
M  V30 34 C 2.8978 3.4564 0.0 0 RAD=2
M  V30 35 C -5.4116 -1.3616 0.0 0
M  V30 36 C -2.9676 -5.0741 0.0 0
M  V30 37 C 0.5586 -5.3302 0.0 0
M  V30 38 C -3.0142 4.4806 0.0 0
M  V30 END ATOM
M  V30 BEGIN BOND
M  V30 1 1 1 2
M  V30 2 1 1 3
M  V30 3 1 1 4
M  V30 4 1 1 5
M  V30 5 1 2 6
M  V30 6 1 2 7
M  V30 7 1 2 8
M  V30 8 1 3 9
M  V30 9 1 4 10
M  V30 10 1 5 11
M  V30 11 1 5 12
M  V30 12 1 6 13
M  V30 13 1 6 14
M  V30 14 1 7 15
M  V30 15 1 7 16
M  V30 16 1 8 17
M  V30 17 1 8 18
M  V30 18 2 9 19
M  V30 19 2 9 20
M  V30 20 1 9 21
M  V30 21 2 10 22
M  V30 22 1 10 23
M  V30 23 2 11 24
M  V30 24 2 12 25
M  V30 25 1 13 26
M  V30 26 1 14 27
M  V30 27 1 15 28
M  V30 28 1 16 29
M  V30 29 1 17 30
M  V30 30 1 18 31
M  V30 31 1 22 32
M  V30 32 2 23 33
M  V30 33 1 24 34
M  V30 34 1 26 35
M  V30 35 1 28 36
M  V30 36 1 30 37
M  V30 37 2 32 38
M  V30 38 1 11 22
M  V30 39 1 25 34
M  V30 40 1 27 35
M  V30 41 1 29 36
M  V30 42 1 31 37
M  V30 43 1 33 38
M  V30 END BOND
M  V30 END CTAB
M  END
>  <CAS_NUMBER>
1445086-12-3

>  <MOL_NAME>
Methanesulfonato(tricyclohexylphosphine)(2'-amino-1,1'-biphenyl-2-yl)palladium(II) (PCy3-Pd-G3)

>  <Role>
Pd catalyst

$$$$
1295-35-8
OCL MolfileCreator  2D

  0  0  0  0  0  0              0 V3000
M  V30 BEGIN CTAB
M  V30 COUNTS 17 16 0 0 0
M  V30 BEGIN ATOM
M  V30 1 Ni 0.0 0.0 0.0 0
M  V30 2 C -3.0519 -1.3951 0.0 0
M  V30 3 C -4.4362 -1.9728 0.0 0
M  V30 4 C -2.4742 -0.0108 0.0 0
M  V30 5 C -5.8205 -1.3951 0.0 0
M  V30 6 C -3.0519 1.3733 0.0 0
M  V30 7 C -6.3982 -0.0108 0.0 0
M  V30 8 C -4.4362 1.951 0.0 0
M  V30 9 C -5.8205 1.3733 0.0 0
M  V30 10 C -9.5047 -1.3951 0.0 0
M  V30 11 C -10.889 -1.9728 0.0 0
M  V30 12 C -8.927 -0.0108 0.0 0
M  V30 13 C -12.2733 -1.3951 0.0 0
M  V30 14 C -9.5047 1.3733 0.0 0
M  V30 15 C -12.851 -0.0108 0.0 0
M  V30 16 C -10.889 1.951 0.0 0
M  V30 17 C -12.2733 1.3733 0.0 0
M  V30 END ATOM
M  V30 BEGIN BOND
M  V30 1 2 2 3 CFG=2
M  V30 2 1 2 4
M  V30 3 1 3 5
M  V30 4 1 4 6
M  V30 5 1 5 7
M  V30 6 1 6 8
M  V30 7 1 7 9
M  V30 8 2 10 11 CFG=2
M  V30 9 1 10 12
M  V30 10 1 11 13
M  V30 11 1 12 14
M  V30 12 1 13 15
M  V30 13 1 14 16
M  V30 14 1 15 17
M  V30 15 2 8 9 CFG=2
M  V30 16 2 16 17 CFG=2
M  V30 END BOND
M  V30 END CTAB
M  END
>  <CAS_NUMBER>
1295-35-8

>  <MOL_NAME>
Bis(1,5-cyclooctadiene)nickel (0)

>  <Role>
Nickel catalyst

$$$$
142946-79-0
OCL MolfileCreator  2D

  0  0  0  0  0  0              0 V3000
M  V30 BEGIN CTAB
M  V30 COUNTS 20 21 0 0 0
M  V30 BEGIN ATOM
M  V30 1 F 0.0 0.0 0.0 0
M  V30 2 C 0.0 -1.4979 0.0 0
M  V30 3 F -1.2958 -2.2469 0.0 0
M  V30 4 F 0.0 -2.9958 0.0 0
M  V30 5 C 1.2958 -2.2469 0.0 0
M  V30 6 C 2.6035 -1.4979 0.0 0
M  V30 7 C 1.2958 -3.7567 0.0 0
M  V30 8 C 3.8994 -2.2469 0.0 0
M  V30 9 C 2.6035 -4.5057 0.0 0
M  V30 10 N 3.8994 -3.7448 0.0 0
M  V30 11 C 5.1952 -1.4979 0.0 0
M  V30 12 N 6.5029 -2.2469 0.0 0
M  V30 13 C 5.1952 0.0 0.0 0
M  V30 14 C 7.7988 -1.486 0.0 0
M  V30 15 C 6.491 0.7489 0.0 0
M  V30 16 C 7.7988 0.0118 0.0 0
M  V30 17 C 6.491 2.2469 0.0 0
M  V30 18 F 7.7869 2.9958 0.0 0
M  V30 19 F 5.1952 2.9958 0.0 0
M  V30 20 F 6.491 3.7448 0.0 0
M  V30 END ATOM
M  V30 BEGIN BOND
M  V30 1 1 1 2
M  V30 2 1 2 3
M  V30 3 1 2 4
M  V30 4 1 2 5
M  V30 5 2 5 6
M  V30 6 1 5 7
M  V30 7 1 6 8
M  V30 8 2 7 9
M  V30 9 2 8 10
M  V30 10 1 8 11
M  V30 11 2 11 12
M  V30 12 1 11 13
M  V30 13 1 12 14
M  V30 14 2 13 15
M  V30 15 2 14 16
M  V30 16 1 15 17
M  V30 17 1 17 18
M  V30 18 1 17 19
M  V30 19 1 17 20
M  V30 20 1 9 10
M  V30 21 1 15 16
M  V30 END BOND
M  V30 END CTAB
M  END
>  <CAS_NUMBER>
142946-79-0

>  <MOL_NAME>
4,4'-Bis(trifluoromethyl)-2,2'-bipyridine

>  <Role>
Ligand

$$$$
1311386-93-2
OCL MolfileCreator  2D

  0  0  0  0  0  0              0 V3000
M  V30 BEGIN CTAB
M  V30 COUNTS 52 57 0 0 0
M  V30 BEGIN ATOM
M  V30 1 Ir 0.0 0.0 0.0 0
M  V30 2 C 1.5055 0.2607 0.0 0
M  V30 3 C -0.9839 1.1735 0.0 0
M  V30 4 C -0.5215 -1.4343 0.0 0
M  V30 5 C 0.9957 1.6951 0.0 0
M  V30 6 C 3.011 -0.0118 0.0 0
M  V30 7 C -2.4894 1.4462 0.0 0
M  V30 8 C 0.0 2.3353 0.0 0
M  V30 9 C 0.4504 -2.6079 0.0 0
M  V30 10 C -2.0271 -1.6951 0.0 0
M  V30 11 C 0.0237 2.8687 0.0 0
M  V30 12 C 1.9797 2.8569 0.0 0
M  V30 13 C 3.9949 1.1498 0.0 0
M  V30 14 C -3.4733 0.2845 0.0 0
M  V30 15 C -3.011 2.8806 0.0 0
M  V30 16 C -0.5215 3.7697 0.0 0
M  V30 17 C 1.9559 -2.3471 0.0 0
M  V30 18 C -0.0829 -4.0423 0.0 0
M  V30 19 C -2.5605 -3.1295 0.0 0
M  V30 20 N -1.4818 2.6079 0.0 0
M  V30 21 C 0.5571 4.3031 0.0 0
M  V30 22 C 3.4852 2.5842 0.0 0
M  V30 23 F 5.5005 0.8772 0.0 0
M  V30 24 N -2.9636 -1.1498 0.0 0
M  V30 25 C -4.9789 0.5571 0.0 0
M  V30 26 C -2.0271 4.0423 0.0 0
M  V30 27 F 0.4623 4.9314 0.0 0
M  V30 28 N 2.4894 -0.9127 0.0 0
M  V30 29 C 2.928 -3.5207 0.0 0
M  V30 30 C -1.5885 -4.3031 0.0 0
M  V30 31 F -3.5682 -3.3074 0.0 0
M  V30 32 C -2.4538 3.7815 0.0 0
M  V30 33 C -0.4149 5.4767 0.0 0
M  V30 34 C -3.9475 -2.3116 0.0 0
M  V30 35 C -5.9628 -0.6045 0.0 0
M  V30 36 C 3.9949 -0.6519 0.0 0
M  V30 37 C 4.4335 -3.2599 0.0 0
M  V30 38 C -1.9204 5.2159 0.0 0
M  V30 39 C 0.1185 6.9111 0.0 0
M  V30 40 C -5.453 -2.0389 0.0 0
M  V30 41 C -7.4683 -0.3319 0.0 0
M  V30 42 C 4.967 -1.8255 0.0 0
M  V30 43 C 5.4056 -4.4335 0.0 0
M  V30 44 C -0.8535 8.0847 0.0 0
M  V30 45 C 1.624 7.1719 0.0 0
M  V30 46 C 0.6519 8.3455 0.0 0
M  V30 47 C -8.4522 -1.4936 0.0 0
M  V30 48 C -7.8121 0.6282 0.0 0
M  V30 49 C -8.9738 -0.0592 0.0 0
M  V30 50 C 6.9111 -4.1727 0.0 0
M  V30 51 C 5.05 -5.3938 0.0 0
M  V30 52 C 6.3777 -5.6071 0.0 0
M  V30 END ATOM
M  V30 BEGIN BOND
M  V30 1 1 1 2
M  V30 2 1 1 3
M  V30 3 1 1 4
M  V30 4 2 2 5
M  V30 5 1 2 6
M  V30 6 2 3 7
M  V30 7 1 3 8
M  V30 8 2 4 9
M  V30 9 1 4 10
M  V30 10 1 5 11
M  V30 11 1 5 12
M  V30 12 2 6 13
M  V30 13 1 7 14
M  V30 14 1 7 15
M  V30 15 2 8 16
M  V30 16 1 9 17
M  V30 17 1 9 18
M  V30 18 2 10 19
M  V30 19 2 11 20
M  V30 20 1 11 21
M  V30 21 2 12 22
M  V30 22 1 13 23
M  V30 23 2 14 24
M  V30 24 1 14 25
M  V30 25 2 15 26
M  V30 26 1 16 27
M  V30 27 2 17 28
M  V30 28 1 17 29
M  V30 29 2 18 30
M  V30 30 1 19 31
M  V30 31 1 20 32
M  V30 32 2 21 33
M  V30 33 1 24 34
M  V30 34 2 25 35
M  V30 35 1 28 36
M  V30 36 2 29 37
M  V30 37 2 32 38
M  V30 38 1 33 39
M  V30 39 2 34 40
M  V30 40 1 35 41
M  V30 41 2 36 42
M  V30 42 1 37 43
M  V30 43 1 39 44
M  V30 44 1 39 45
M  V30 45 1 39 46
M  V30 46 1 41 47
M  V30 47 1 41 48
M  V30 48 1 41 49
M  V30 49 1 43 50
M  V30 50 1 43 51
M  V30 51 1 43 52
M  V30 52 1 13 22
M  V30 53 1 16 26
M  V30 54 1 19 30
M  V30 55 1 33 38
M  V30 56 1 35 40
M  V30 57 1 37 42
M  V30 END BOND
M  V30 END CTAB
M  END
>  <CAS_NUMBER>
1311386-93-2

>  <MOL_NAME>
Tris(2-(4-(tert-butyl)pyridin-2-yl)-5-fluorophenyl)iridium (Ir[p-f(t-bu)-ppy]3)

>  <Role>
Photocatalyst

$$$$
1335047-34-1
OCL MolfileCreator  2D

  0  0  0  0  0  0              0 V3000
M  V30 BEGIN CTAB
M  V30 COUNTS 58 65 0 0 0
M  V30 BEGIN ATOM
M  V30 1 Ir 0.0 0.0 0.0 0 CHG=3
M  V30 2 N 1.4276 0.4601 0.0 0
M  V30 3 N 0.2359 1.4512 0.0 0
M  V30 4 N -0.9557 -1.2034 0.0 0
M  V30 5 N 1.404 -0.6371 0.0 0
M  V30 6 C -0.8849 1.2152 0.0 0 CHG=-1
M  V30 7 C -1.3686 -0.3539 0.0 0 CHG=-1
M  V30 8 C 1.4276 1.9586 0.0 0
M  V30 9 C 2.7255 -0.2949 0.0 0
M  V30 10 C -1.1327 2.053 0.0 0
M  V30 11 C 1.4394 2.3361 0.0 0
M  V30 12 C -0.1769 -2.4777 0.0 0
M  V30 13 C -2.4541 -1.2034 0.0 0
M  V30 14 C 1.286 -2.1356 0.0 0
M  V30 15 C 2.7609 0.0117 0.0 0
M  V30 16 C 0.0 2.4305 0.0 0
M  V30 17 C -2.3715 1.3686 0.0 0
M  V30 18 C -2.1238 0.9439 0.0 0
M  V30 19 C -2.112 -1.6636 0.0 0
M  V30 20 C 2.7255 2.7137 0.0 0
M  V30 21 C 4.0234 0.4601 0.0 0
M  V30 22 C -1.2978 3.5396 0.0 0
M  V30 23 C 1.2742 3.8228 0.0 0
M  V30 24 C -0.8849 -3.8346 0.0 0
M  V30 25 C -3.1739 -2.5603 0.0 0
M  V30 26 C 2.5249 -2.9851 0.0 0
M  V30 27 C 3.9998 -0.8377 0.0 0
M  V30 28 C -0.6135 3.7992 0.0 0
M  V30 29 C -2.9851 2.7373 0.0 0
M  V30 30 C -3.6222 0.9439 0.0 0
M  V30 31 C -3.6104 -1.6636 0.0 0
M  V30 32 C 4.0234 1.9586 0.0 0
M  V30 33 C 5.3213 -0.2949 0.0 0
M  V30 34 C -0.0943 4.4246 0.0 0
M  V30 35 C 2.4777 4.7077 0.0 0
M  V30 36 C -2.3833 -3.8346 0.0 0
M  V30 37 C 3.8818 -2.3361 0.0 0
M  V30 38 F 0.2713 5.0145 0.0 0
M  V30 39 C -2.1002 3.9526 0.0 0
M  V30 40 F -4.4718 2.8907 0.0 0
M  V30 41 F -4.3774 2.23 0.0 0
M  V30 42 C -4.3656 -0.3657 0.0 0
M  V30 43 F -4.3538 -2.9615 0.0 0
M  V30 44 C -3.1031 -5.1561 0.0 0
M  V30 45 C 5.1207 -3.1857 0.0 0
M  V30 46 C -4.6016 -5.1561 0.0 0
M  V30 47 C -2.3243 -6.4304 0.0 0
M  V30 48 C -3.8228 -6.4776 0.0 0
M  V30 49 C 5.0027 -4.6841 0.0 0
M  V30 50 C 6.4776 -2.5367 0.0 0
M  V30 51 C 6.3596 -4.0352 0.0 0
M  V30 52 P 10.2887 -0.7551 0.0 0
M  V30 53 F 10.2887 0.7433 0.0 0
M  V30 54 F 10.2887 -2.2536 0.0 0
M  V30 55 F 11.5866 0.0 0.0 0
M  V30 56 F 8.9908 -1.4984 0.0 0
M  V30 57 F 11.5866 -1.4984 0.0 0
M  V30 58 F 8.9908 0.0 0.0 0 CHG=-1
M  V30 END ATOM
M  V30 BEGIN BOND
M  V30 1 1 1 2
M  V30 2 1 1 3
M  V30 3 1 1 4
M  V30 4 1 1 5
M  V30 5 1 1 6
M  V30 6 1 1 7
M  V30 7 1 2 8
M  V30 8 1 2 9
M  V30 9 1 3 10
M  V30 10 1 3 11
M  V30 11 1 4 12
M  V30 12 1 4 13
M  V30 13 1 5 14
M  V30 14 1 5 15
M  V30 15 1 6 16
M  V30 16 1 6 17
M  V30 17 1 7 18
M  V30 18 1 7 19
M  V30 19 1 8 20
M  V30 20 2 9 21
M  V30 21 1 10 22
M  V30 22 2 11 23
M  V30 23 1 12 24
M  V30 24 2 13 25
M  V30 25 1 14 26
M  V30 26 2 15 27
M  V30 27 1 16 28
M  V30 28 2 17 29
M  V30 29 1 18 30
M  V30 30 2 19 31
M  V30 31 2 20 32
M  V30 32 1 21 33
M  V30 33 2 22 34
M  V30 34 1 23 35
M  V30 35 2 24 36
M  V30 36 2 26 37
M  V30 37 1 28 38
M  V30 38 2 28 39
M  V30 39 1 29 40
M  V30 40 1 30 41
M  V30 41 2 30 42
M  V30 42 1 31 43
M  V30 43 1 36 44
M  V30 44 1 37 45
M  V30 45 1 44 46
M  V30 46 1 44 47
M  V30 47 1 44 48
M  V30 48 1 45 49
M  V30 49 1 45 50
M  V30 50 1 45 51
M  V30 51 2 52 53
M  V30 52 2 52 54
M  V30 53 2 52 55
M  V30 54 1 52 56
M  V30 55 1 52 57
M  V30 56 1 52 58
M  V30 57 2 8 16
M  V30 58 2 10 18
M  V30 59 2 12 14
M  V30 60 1 21 32
M  V30 61 1 23 34
M  V30 62 1 25 36
M  V30 63 1 27 37
M  V30 64 1 29 39
M  V30 65 1 31 42
M  V30 END BOND
M  V30 END CTAB
M  END
>  <CAS_NUMBER>
1335047-34-1

>  <MOL_NAME>
(4,4'-Di-tert-butyl-2,2'-bipyridine-κ2N1,N1')[bis[3,5-difluoro-2-(5-methyl-2-pyridinyl-κN)phenyl-κC1]]iridium hexafluorophosphate ([Ir(dF(Me)ppy)2(dtbbpy)]PF6)

>  <Role>
Photocatalyst

$$$$
65034-88-0
OCL MolfileCreator  2D

  0  0  0  0  0  0              0 V3000
M  V30 BEGIN CTAB
M  V30 COUNTS 39 39 0 0 0
M  V30 BEGIN ATOM
M  V30 1 Ru 0.0 0.0 0.0 0 CHG=2
M  V30 2 Cl 2.5086 0.0 0.0 0 CHG=-1
M  V30 3 Cl 5.0173 0.0 0.0 0 CHG=-1
M  V30 4 N -6.3682 1.9297 0.0 0
M  V30 5 C -6.3682 0.4341 0.0 0
M  V30 6 C -7.6708 2.6775 0.0 0
M  V30 7 N -7.6708 -0.3135 0.0 0
M  V30 8 C -5.0656 -0.3135 0.0 0
M  V30 9 C -8.9733 1.9297 0.0 0
M  V30 10 C -8.9733 0.4341 0.0 0
M  V30 11 N -3.763 0.4341 0.0 0
M  V30 12 N -5.0656 -1.8091 0.0 0
M  V30 13 C -2.4604 -0.3135 0.0 0
M  V30 14 C -3.763 -2.5569 0.0 0
M  V30 15 C -2.4604 -1.8091 0.0 0
M  V30 16 N -15.438 1.9297 0.0 0
M  V30 17 C -15.438 0.4341 0.0 0
M  V30 18 C -16.7406 2.6775 0.0 0
M  V30 19 N -16.7406 -0.3135 0.0 0
M  V30 20 C -14.1355 -0.3135 0.0 0
M  V30 21 C -18.0432 1.9297 0.0 0
M  V30 22 C -18.0432 0.4341 0.0 0
M  V30 23 N -12.8329 0.4341 0.0 0
M  V30 24 N -14.1355 -1.8091 0.0 0
M  V30 25 C -11.5303 -0.3135 0.0 0
M  V30 26 C -12.8329 -2.5569 0.0 0
M  V30 27 C -11.5303 -1.8091 0.0 0
M  V30 28 N -24.5079 1.9297 0.0 0
M  V30 29 C -24.5079 0.4341 0.0 0
M  V30 30 C -25.8105 2.6775 0.0 0
M  V30 31 N -25.8105 -0.3135 0.0 0
M  V30 32 C -23.2053 -0.3135 0.0 0
M  V30 33 C -27.1131 1.9297 0.0 0
M  V30 34 C -27.1131 0.4341 0.0 0
M  V30 35 N -21.9027 0.4341 0.0 0
M  V30 36 N -23.2053 -1.8091 0.0 0
M  V30 37 C -20.6002 -0.3135 0.0 0
M  V30 38 C -21.9027 -2.5569 0.0 0
M  V30 39 C -20.6002 -1.8091 0.0 0
M  V30 END ATOM
M  V30 BEGIN BOND
M  V30 1 2 4 5
M  V30 2 1 4 6
M  V30 3 1 5 7
M  V30 4 1 5 8
M  V30 5 2 6 9
M  V30 6 2 7 10
M  V30 7 2 8 11
M  V30 8 1 8 12
M  V30 9 1 11 13
M  V30 10 2 12 14
M  V30 11 2 13 15
M  V30 12 2 16 17
M  V30 13 1 16 18
M  V30 14 1 17 19
M  V30 15 1 17 20
M  V30 16 2 18 21
M  V30 17 2 19 22
M  V30 18 2 20 23
M  V30 19 1 20 24
M  V30 20 1 23 25
M  V30 21 2 24 26
M  V30 22 2 25 27
M  V30 23 2 28 29
M  V30 24 1 28 30
M  V30 25 1 29 31
M  V30 26 1 29 32
M  V30 27 2 30 33
M  V30 28 2 31 34
M  V30 29 2 32 35
M  V30 30 1 32 36
M  V30 31 1 35 37
M  V30 32 2 36 38
M  V30 33 2 37 39
M  V30 34 1 9 10
M  V30 35 1 14 15
M  V30 36 1 21 22
M  V30 37 1 26 27
M  V30 38 1 33 34
M  V30 39 1 38 39
M  V30 END BOND
M  V30 END CTAB
M  END
>  <CAS_NUMBER>
65034-88-0

>  <MOL_NAME>
Dichlorotris(2,2'-bipyrimidine-n1,n1')ruthenium(ii)

>  <Role>
Photocatalyst

$$$$
1445086-28-1
OCL MolfileCreator  2D

  0  0  0  0  0  0              0 V3000
M  V30 BEGIN CTAB
M  V30 COUNTS 56 60 0 0 0
M  V30 BEGIN ATOM
M  V30 1 Pd 0.0 0.0 0.0 0
M  V30 2 O 1.3195 -0.7359 0.0 0
M  V30 3 C 0.0 1.4972 0.0 0
M  V30 4 S 1.3195 -2.2331 0.0 0
M  V30 5 C -1.2942 2.2585 0.0 0
M  V30 6 C 1.2942 2.2585 0.0 0
M  V30 7 O 2.6137 -2.969 0.0 0
M  V30 8 O 1.3195 -3.7303 0.0 0
M  V30 9 C 0.0253 -2.9944 0.0 0
M  V30 10 C -2.5884 1.4972 0.0 0
M  V30 11 C -1.2942 3.7557 0.0 0
M  V30 12 C 1.2942 3.7557 0.0 0
M  V30 13 C -2.5884 0.0 0.0 0
M  V30 14 C -3.8826 2.2585 0.0 0
M  V30 15 C 0.0 4.517 0.0 0
M  V30 16 N -1.2942 -0.7612 0.0 0
M  V30 17 C -3.8826 -0.7612 0.0 0
M  V30 18 C -5.1768 1.4972 0.0 0
M  V30 19 C -5.1768 0.0 0.0 0
M  V30 20 Fe 25.7825 0.406 0.0 0
M  V30 21 P 19.2861 0.812 0.0 0
M  V30 22 C 17.9919 1.5733 0.0 0
M  V30 23 C 20.5803 1.5733 0.0 0
M  V30 24 C 19.2861 -0.6851 0.0 0 VAL=3
M  V30 25 C 17.9919 3.0705 0.0 0
M  V30 26 C 16.6977 0.812 0.0 0
M  V30 27 C 21.8745 0.812 0.0 0
M  V30 28 C 20.5803 3.0705 0.0 0
M  V30 29 C 20.5042 -1.5479 0.0 0 RAD=1 VAL=2
M  V30 30 C 18.0681 -1.5479 0.0 0 RAD=1 VAL=2
M  V30 31 C 16.6977 3.8318 0.0 0
M  V30 32 C 15.4035 1.5733 0.0 0
M  V30 33 C 23.1688 1.5733 0.0 0
M  V30 34 C 21.8745 3.8318 0.0 0
M  V30 35 C 20.0221 -2.969 0.0 0 RAD=1 VAL=2
M  V30 36 C 18.5248 -2.9944 0.0 0 RAD=1 VAL=2
M  V30 37 C 15.4035 3.0705 0.0 0
M  V30 38 C 23.1688 3.0705 0.0 0
M  V30 39 P 9.1355 0.812 0.0 0
M  V30 40 C 7.8413 1.5733 0.0 0
M  V30 41 C 10.4297 1.5733 0.0 0
M  V30 42 C 9.1355 -0.6851 0.0 0 VAL=3
M  V30 43 C 7.8413 3.0705 0.0 0
M  V30 44 C 6.5471 0.812 0.0 0
M  V30 45 C 11.7239 0.812 0.0 0
M  V30 46 C 10.4297 3.0705 0.0 0
M  V30 47 C 10.3536 -1.5479 0.0 0 RAD=1 VAL=2
M  V30 48 C 7.9174 -1.5479 0.0 0 RAD=1 VAL=2
M  V30 49 C 6.5471 3.8318 0.0 0
M  V30 50 C 5.2529 1.5733 0.0 0
M  V30 51 C 13.0181 1.5733 0.0 0
M  V30 52 C 11.7239 3.8318 0.0 0
M  V30 53 C 9.8714 -2.969 0.0 0 RAD=1 VAL=2
M  V30 54 C 8.3742 -2.9944 0.0 0 RAD=1 VAL=2
M  V30 55 C 5.2529 3.0705 0.0 0
M  V30 56 C 13.0181 3.0705 0.0 0
M  V30 END ATOM
M  V30 BEGIN BOND
M  V30 1 1 1 2
M  V30 2 1 1 3
M  V30 3 1 2 4
M  V30 4 2 3 5
M  V30 5 1 3 6
M  V30 6 2 4 7
M  V30 7 2 4 8
M  V30 8 1 4 9
M  V30 9 1 5 10
M  V30 10 1 5 11
M  V30 11 2 6 12
M  V30 12 2 10 13
M  V30 13 1 10 14
M  V30 14 2 11 15
M  V30 15 1 13 16
M  V30 16 1 13 17
M  V30 17 2 14 18
M  V30 18 2 17 19
M  V30 19 1 21 22
M  V30 20 1 21 23
M  V30 21 1 21 24
M  V30 22 2 22 25
M  V30 23 1 22 26
M  V30 24 2 23 27
M  V30 25 1 23 28
M  V30 26 1 24 29
M  V30 27 1 24 30
M  V30 28 1 25 31
M  V30 29 2 26 32
M  V30 30 1 27 33
M  V30 31 2 28 34
M  V30 32 1 29 35
M  V30 33 1 30 36
M  V30 34 2 31 37
M  V30 35 2 33 38
M  V30 36 1 39 40
M  V30 37 1 39 41
M  V30 38 1 39 42
M  V30 39 2 40 43
M  V30 40 1 40 44
M  V30 41 2 41 45
M  V30 42 1 41 46
M  V30 43 1 42 47
M  V30 44 1 42 48
M  V30 45 1 43 49
M  V30 46 2 44 50
M  V30 47 1 45 51
M  V30 48 2 46 52
M  V30 49 1 47 53
M  V30 50 1 48 54
M  V30 51 2 49 55
M  V30 52 2 51 56
M  V30 53 1 12 15
M  V30 54 1 18 19
M  V30 55 1 32 37
M  V30 56 1 34 38
M  V30 57 1 35 36
M  V30 58 1 50 55
M  V30 59 1 52 56
M  V30 60 1 53 54
M  V30 END BOND
M  V30 END CTAB
M  END
>  <CAS_NUMBER>
1445086-28-1

>  <MOL_NAME>
Methanesulfonato[1,1′-bis(diphenylphosphino)ferrocene)](2′-amino-1,1′-biphenyl-2-yl)palladium(II) (dppf-Pd-G3)

>  <Role>
Pd catalyst

$$$$
50525-27-4
OCL MolfileCreator  2D

  0  0  0  0  0  0              0 V3000
M  V30 BEGIN CTAB
M  V30 COUNTS 45 39 0 0 0
M  V30 BEGIN ATOM
M  V30 1 Ru 0.0 0.0 0.0 0 CHG=2
M  V30 2 Cl 2.5491 0.0 0.0 0 CHG=-1
M  V30 3 Cl 4.9161 0.0 0.0 0 CHG=-1
M  V30 4 O 7.4652 0.0 0.0 0
M  V30 5 O 10.0143 0.0 0.0 0
M  V30 6 O 12.5634 0.0 0.0 0
M  V30 7 O 14.9304 0.0 0.0 0
M  V30 8 O 17.4795 0.0 0.0 0
M  V30 9 O 20.0286 0.0 0.0 0
M  V30 10 N -5.0982 -1.8207 0.0 0
M  V30 11 C -5.0982 -0.3186 0.0 0
M  V30 12 C -3.8008 -2.5718 0.0 0
M  V30 13 C -6.3955 0.4324 0.0 0
M  V30 14 C -3.8008 0.4324 0.0 0
M  V30 15 C -2.5035 -1.8207 0.0 0
M  V30 16 N -7.6928 -0.3186 0.0 0
M  V30 17 C -6.3955 1.9345 0.0 0
M  V30 18 C -2.5035 -0.3186 0.0 0
M  V30 19 C -8.9901 0.4324 0.0 0
M  V30 20 C -7.6928 2.6856 0.0 0
M  V30 21 C -8.9901 1.9345 0.0 0
M  V30 22 N -14.2021 -1.8207 0.0 0
M  V30 23 C -14.2021 -0.3186 0.0 0
M  V30 24 C -12.9048 -2.5718 0.0 0
M  V30 25 C -15.4994 0.4324 0.0 0
M  V30 26 C -12.9048 0.4324 0.0 0
M  V30 27 C -11.6075 -1.8207 0.0 0
M  V30 28 N -16.7967 -0.3186 0.0 0
M  V30 29 C -15.4994 1.9345 0.0 0
M  V30 30 C -11.6075 -0.3186 0.0 0
M  V30 31 C -18.094 0.4324 0.0 0
M  V30 32 C -16.7967 2.6856 0.0 0
M  V30 33 C -18.094 1.9345 0.0 0
M  V30 34 N -23.124 -1.8207 0.0 0
M  V30 35 C -23.124 -0.3186 0.0 0
M  V30 36 C -21.8267 -2.5718 0.0 0
M  V30 37 C -24.4213 0.4324 0.0 0
M  V30 38 C -21.8267 0.4324 0.0 0
M  V30 39 C -20.5293 -1.8207 0.0 0
M  V30 40 N -25.7186 -0.3186 0.0 0
M  V30 41 C -24.4213 1.9345 0.0 0
M  V30 42 C -20.5293 -0.3186 0.0 0
M  V30 43 C -27.0159 0.4324 0.0 0
M  V30 44 C -25.7186 2.6856 0.0 0
M  V30 45 C -27.0159 1.9345 0.0 0
M  V30 END ATOM
M  V30 BEGIN BOND
M  V30 1 2 10 11
M  V30 2 1 10 12
M  V30 3 1 11 13
M  V30 4 1 11 14
M  V30 5 2 12 15
M  V30 6 2 13 16
M  V30 7 1 13 17
M  V30 8 2 14 18
M  V30 9 1 16 19
M  V30 10 2 17 20
M  V30 11 2 19 21
M  V30 12 2 22 23
M  V30 13 1 22 24
M  V30 14 1 23 25
M  V30 15 1 23 26
M  V30 16 2 24 27
M  V30 17 2 25 28
M  V30 18 1 25 29
M  V30 19 2 26 30
M  V30 20 1 28 31
M  V30 21 2 29 32
M  V30 22 2 31 33
M  V30 23 2 34 35
M  V30 24 1 34 36
M  V30 25 1 35 37
M  V30 26 1 35 38
M  V30 27 2 36 39
M  V30 28 2 37 40
M  V30 29 1 37 41
M  V30 30 2 38 42
M  V30 31 1 40 43
M  V30 32 2 41 44
M  V30 33 2 43 45
M  V30 34 1 15 18
M  V30 35 1 20 21
M  V30 36 1 27 30
M  V30 37 1 32 33
M  V30 38 1 39 42
M  V30 39 1 44 45
M  V30 END BOND
M  V30 END CTAB
M  END
>  <CAS_NUMBER>
50525-27-4

>  <MOL_NAME>
Tris(2,2-bipyridyl)ruthenium(II) chloride hexahydrate

>  <Role>
Photocatalyst

$$$$
1445085-87-9
OCL MolfileCreator  2D

  0  0  0  0  0  0              0 V3000
M  V30 BEGIN CTAB
M  V30 COUNTS 47 51 0 0 0
M  V30 BEGIN ATOM
M  V30 1 Pd 0.0 0.0 0.0 0
M  V30 2 O 1.326 -0.7614 0.0 0
M  V30 3 C 0.0 1.5229 0.0 0
M  V30 4 S 1.326 -2.2844 0.0 0
M  V30 5 C -1.3129 2.2844 0.0 0
M  V30 6 C 1.3129 2.2844 0.0 0
M  V30 7 O 2.6389 -3.0459 0.0 0
M  V30 8 O 1.326 -3.8074 0.0 0
M  V30 9 C 0.0131 -3.0459 0.0 0
M  V30 10 C -2.6258 1.5229 0.0 0
M  V30 11 C -1.3129 3.8074 0.0 0
M  V30 12 C 1.3129 3.8074 0.0 0
M  V30 13 C -2.6258 0.0 0.0 0
M  V30 14 C -3.9387 2.2844 0.0 0
M  V30 15 C 0.0 4.5689 0.0 0
M  V30 16 N -1.3129 -0.7614 0.0 0
M  V30 17 C -3.9387 -0.7614 0.0 0
M  V30 18 C -5.2516 1.5229 0.0 0
M  V30 19 C -5.2516 0.0 0.0 0
M  V30 20 P -13.3391 3.9912 0.0 0
M  V30 21 C -12.3675 2.8227 0.0 0
M  V30 22 C -12.8139 5.4223 0.0 0
M  V30 23 C -14.8358 3.7286 0.0 0
M  V30 24 C -12.8927 1.3916 0.0 0
M  V30 25 C -10.8708 3.0853 0.0 0
M  V30 26 C -13.7855 6.5907 0.0 0
M  V30 27 C -11.3172 5.6848 0.0 0
M  V30 28 C -15.8073 4.8971 0.0 0
M  V30 29 C -15.361 2.2975 0.0 0
M  V30 30 C -14.3894 1.129 0.0 0
M  V30 31 C -11.9211 0.2231 0.0 0
M  V30 32 C -9.8993 1.9168 0.0 0
M  V30 33 C -13.2603 8.0087 0.0 0
M  V30 34 C -10.792 7.1028 0.0 0
M  V30 35 C -17.3041 4.6345 0.0 0
M  V30 36 C -16.8577 2.035 0.0 0
M  V30 37 C -14.3894 -0.3938 0.0 0
M  V30 38 C -15.7023 1.8905 0.0 0
M  V30 39 C -10.4244 0.4857 0.0 0
M  V30 40 C -11.7636 8.2713 0.0 0
M  V30 41 C -17.8292 3.2034 0.0 0
M  V30 42 N -13.0765 -1.1553 0.0 0
M  V30 43 C -15.7023 -1.1553 0.0 0
M  V30 44 C -17.0152 1.129 0.0 0
M  V30 45 C -12.1969 -0.6564 0.0 0
M  V30 46 C -13.0765 -2.1662 0.0 0
M  V30 47 C -17.0152 -0.3938 0.0 0
M  V30 END ATOM
M  V30 BEGIN BOND
M  V30 1 1 1 2
M  V30 2 1 1 3
M  V30 3 1 2 4
M  V30 4 2 3 5
M  V30 5 1 3 6
M  V30 6 2 4 7
M  V30 7 2 4 8
M  V30 8 1 4 9
M  V30 9 1 5 10
M  V30 10 1 5 11
M  V30 11 2 6 12
M  V30 12 2 10 13
M  V30 13 1 10 14
M  V30 14 2 11 15
M  V30 15 1 13 16
M  V30 16 1 13 17
M  V30 17 2 14 18
M  V30 18 2 17 19
M  V30 19 1 20 21
M  V30 20 1 20 22
M  V30 21 1 20 23
M  V30 22 2 21 24
M  V30 23 1 21 25
M  V30 24 1 22 26
M  V30 25 1 22 27
M  V30 26 1 23 28
M  V30 27 1 23 29
M  V30 28 1 24 30
M  V30 29 1 24 31
M  V30 30 2 25 32
M  V30 31 1 26 33
M  V30 32 1 27 34
M  V30 33 1 28 35
M  V30 34 1 29 36
M  V30 35 2 30 37
M  V30 36 1 30 38
M  V30 37 2 31 39
M  V30 38 1 33 40
M  V30 39 1 35 41
M  V30 40 1 37 42
M  V30 41 1 37 43
M  V30 42 2 38 44
M  V30 43 1 42 45
M  V30 44 1 42 46
M  V30 45 2 43 47
M  V30 46 1 12 15
M  V30 47 1 18 19
M  V30 48 1 32 39
M  V30 49 1 34 40
M  V30 50 1 36 41
M  V30 51 1 44 47
M  V30 END BOND
M  V30 END CTAB
M  END
>  <CAS_NUMBER>
1445085-87-9

>  <MOL_NAME>
Methanesulfonato 2-dicyclohexylphosphino-2-(N,N-dimethylamino)biphenyl(2′-amino-1,1′-biphenyl-2-yl) palladium(II) (DavePhos-Pd-G3)

>  <Role>
Pd catalyst

$$$$
1820817-64-8
OCL MolfileCreator  2D

  0  0  0  0  0  0              0 V3000
M  V30 BEGIN CTAB
M  V30 COUNTS 37 38 0 0 0
M  V30 BEGIN ATOM
M  V30 1 Pd 0.0 0.0 0.0 0
M  V30 2 O 1.3115 -0.7444 0.0 0
M  V30 3 C 0.0 1.5006 0.0 0
M  V30 4 S 1.3115 -2.245 0.0 0
M  V30 5 C -1.2997 2.245 0.0 0
M  V30 6 C 1.2997 2.2568 0.0 0
M  V30 7 O 2.6113 -2.9894 0.0 0
M  V30 8 O 1.3115 -3.7456 0.0 0
M  V30 9 C 0.0118 -3.0012 0.0 0
M  V30 10 C -2.5995 1.5006 0.0 0
M  V30 11 C -1.2997 3.7456 0.0 0
M  V30 12 C 1.2997 3.7574 0.0 0
M  V30 13 C -2.5995 0.0 0.0 0
M  V30 14 C -3.8992 2.245 0.0 0
M  V30 15 C 0.0 4.5019 0.0 0
M  V30 16 N -1.2997 -0.7444 0.0 0
M  V30 17 C -3.8992 -0.7444 0.0 0
M  V30 18 C -5.199 1.5006 0.0 0
M  V30 19 C -5.199 0.0 0.0 0
M  V30 20 P 7.7513 1.1343 0.0 0
M  V30 21 C 9.051 0.3899 0.0 0
M  V30 22 C 6.4515 0.3781 0.0 0
M  V30 23 C 7.7513 2.6349 0.0 0
M  V30 24 C 10.3508 1.1343 0.0 0
M  V30 25 C 9.051 -1.1107 0.0 0
M  V30 26 C 5.1517 1.1225 0.0 0
M  V30 27 C 6.4515 -1.1225 0.0 0
M  V30 28 C 5.1517 -0.3781 0.0 0
M  V30 29 C 9.051 3.3793 0.0 0
M  V30 30 C 7.7513 4.1356 0.0 0
M  V30 31 C 6.4515 3.3793 0.0 0
M  V30 32 C 11.6506 0.3899 0.0 0
M  V30 33 C 10.3508 -1.8551 0.0 0
M  V30 34 C 11.6506 -1.1107 0.0 0
M  V30 35 N 12.9503 -1.8669 0.0 0
M  V30 36 C 12.9503 -3.3675 0.0 0
M  V30 37 C 14.2501 -1.1225 0.0 0
M  V30 END ATOM
M  V30 BEGIN BOND
M  V30 1 1 1 2
M  V30 2 1 1 3
M  V30 3 1 2 4
M  V30 4 2 3 5
M  V30 5 1 3 6
M  V30 6 2 4 7
M  V30 7 2 4 8
M  V30 8 1 4 9
M  V30 9 1 5 10
M  V30 10 1 5 11
M  V30 11 2 6 12
M  V30 12 2 10 13
M  V30 13 1 10 14
M  V30 14 2 11 15
M  V30 15 1 13 16
M  V30 16 1 13 17
M  V30 17 2 14 18
M  V30 18 2 17 19
M  V30 19 1 20 21
M  V30 20 1 20 22
M  V30 21 1 20 23
M  V30 22 2 21 24
M  V30 23 1 21 25
M  V30 24 1 22 26
M  V30 25 1 22 27
M  V30 26 1 22 28
M  V30 27 1 23 29
M  V30 28 1 23 30
M  V30 29 1 23 31
M  V30 30 1 24 32
M  V30 31 2 25 33
M  V30 32 2 32 34
M  V30 33 1 34 35
M  V30 34 1 35 36
M  V30 35 1 35 37
M  V30 36 1 12 15
M  V30 37 1 18 19
M  V30 38 1 33 34
M  V30 END BOND
M  V30 END CTAB
M  END
>  <CAS_NUMBER>
1820817-64-8

>  <MOL_NAME>
[4-(Di-tert-butylphosphino)-N,N-dimethylaniline-2-(2'-aminobiphenyl)]palladium(II) methanesulfonate (APhos-Pd-G3)

>  <Role>
Pd catalyst

$$$$
2489525-82-6
OCL MolfileCreator  2D

  0  0  0  0  0  0              0 V3000
M  V30 BEGIN CTAB
M  V30 COUNTS 57 63 0 0 0
M  V30 BEGIN ATOM
M  V30 1 Pd 0.0 0.0 0.0 0 CHG=2
M  V30 2 P 0.9411 -1.1824 0.0 0 VAL=4
M  V30 3 O 1.291 0.7842 0.0 0 CHG=-1
M  V30 4 N -0.5188 -1.4357 0.0 0 VAL=4
M  V30 5 C -0.9893 1.1703 0.0 0 CHG=-1
M  V30 6 C 2.4613 -0.9893 0.0 0
M  V30 7 C 1.8701 -2.401 0.0 0
M  V30 8 C 0.3498 -2.594 0.0 0
M  V30 9 S 2.6544 0.0844 0.0 0
M  V30 10 C -2.0269 -1.7012 0.0 0
M  V30 11 C -2.4975 0.9049 0.0 0
M  V30 12 C -0.4705 2.6061 0.0 0
M  V30 13 C 3.4989 0.1327 0.0 0
M  V30 14 C 2.9198 -2.4613 0.0 0
M  V30 15 C 3.3662 -2.7388 0.0 0
M  V30 16 C 0.8325 -3.5231 0.0 0
M  V30 17 C 1.2789 -3.8126 0.0 0
M  V30 18 C -1.1703 -2.7871 0.0 0
M  V30 19 O 3.9454 0.9169 0.0 0
M  V30 20 O 2.6544 -1.4478 0.0 0
M  V30 21 C 3.5593 -0.386 0.0 0
M  V30 22 C -3.0163 -0.5308 0.0 0
M  V30 23 C -2.5458 -3.149 0.0 0
M  V30 24 C -3.4869 2.0752 0.0 0
M  V30 25 C -1.4599 3.7764 0.0 0
M  V30 26 C 3.0404 1.6047 0.0 0
M  V30 27 C 4.9951 -0.2051 0.0 0
M  V30 28 O 1.3995 -2.6544 0.0 0
M  V30 29 C 4.4159 -2.7991 0.0 0
M  V30 30 C 3.8247 -4.2108 0.0 0
M  V30 31 C 1.291 -4.9951 0.0 0
M  V30 32 C 0.6877 -5.2243 0.0 0
M  V30 33 C -1.7615 -4.1987 0.0 0
M  V30 34 C -4.5245 -0.7963 0.0 0
M  V30 35 C -4.0539 -3.4145 0.0 0
M  V30 36 C -2.9681 3.511 0.0 0 RAD=2
M  V30 37 C 1.5443 1.9425 0.0 0
M  V30 38 C 4.0901 2.7267 0.0 0
M  V30 39 O 6.0448 0.9169 0.0 0
M  V30 40 C 5.4535 -1.665 0.0 0
M  V30 41 C 0.8083 -4.066 0.0 0
M  V30 42 C 2.7871 -5.3329 0.0 0
M  V30 43 C -0.8325 -5.4173 0.0 0
M  V30 44 C -5.0433 -2.2321 0.0 0
M  V30 45 C 1.0979 3.4145 0.0 0
M  V30 46 C 0.4946 0.8204 0.0 0
M  V30 47 C 3.6437 4.1987 0.0 0
M  V30 48 C 5.5863 2.3889 0.0 0
M  V30 49 C 7.5409 0.5791 0.0 0
M  V30 50 C -0.7118 -4.2591 0.0 0
M  V30 51 C 1.7374 -5.2846 0.0 0
M  V30 52 C 0.2171 -5.4777 0.0 0
M  V30 53 C 2.1476 4.5366 0.0 0
M  V30 54 C -0.5067 1.0496 0.0 0
M  V30 55 C 0.7963 -0.1568 0.0 0
M  V30 56 C 6.6239 3.511 0.0 0
M  V30 57 C 5.8879 1.4116 0.0 0
M  V30 END ATOM
M  V30 BEGIN BOND
M  V30 1 1 1 2
M  V30 2 1 1 3
M  V30 3 1 1 4
M  V30 4 1 1 5
M  V30 5 1 2 6
M  V30 6 1 2 7
M  V30 7 1 2 8
M  V30 8 1 3 9
M  V30 9 1 4 10
M  V30 10 1 5 11
M  V30 11 1 5 12
M  V30 12 2 6 13
M  V30 13 1 6 14
M  V30 14 1 7 15
M  V30 15 1 7 16
M  V30 16 1 8 17
M  V30 17 1 8 18
M  V30 18 2 9 19
M  V30 19 2 9 20
M  V30 20 1 9 21
M  V30 21 2 10 22
M  V30 22 1 10 23
M  V30 23 2 11 24
M  V30 24 2 12 25
M  V30 25 1 13 26
M  V30 26 1 13 27
M  V30 27 1 14 28
M  V30 28 2 14 29
M  V30 29 1 15 30
M  V30 30 1 16 31
M  V30 31 1 17 32
M  V30 32 1 18 33
M  V30 33 1 22 34
M  V30 34 2 23 35
M  V30 35 1 24 36
M  V30 36 2 26 37
M  V30 37 1 26 38
M  V30 38 1 27 39
M  V30 39 2 27 40
M  V30 40 1 28 41
M  V30 41 1 30 42
M  V30 42 1 32 43
M  V30 43 2 34 44
M  V30 44 1 37 45
M  V30 45 1 37 46
M  V30 46 2 38 47
M  V30 47 1 38 48
M  V30 48 1 39 49
M  V30 49 1 41 50
M  V30 50 1 41 51
M  V30 51 1 41 52
M  V30 52 2 45 53
M  V30 53 1 46 54
M  V30 54 1 46 55
M  V30 55 1 48 56
M  V30 56 1 48 57
M  V30 57 1 11 22
M  V30 58 1 25 36
M  V30 59 1 29 40
M  V30 60 1 31 42
M  V30 61 1 33 43
M  V30 62 1 35 44
M  V30 63 1 47 53
M  V30 END BOND
M  V30 END CTAB
M  END
>  <CAS_NUMBER>
2489525-82-6

>  <MOL_NAME>
GPhos-Pd-G3

>  <Role>
Pd catalyst

$$$$
2222690-89-1
OCL MolfileCreator  2D

  0  0  0  0  0  0              0 V3000
M  V30 BEGIN CTAB
M  V30 COUNTS 52 60 0 0 0
M  V30 BEGIN ATOM
M  V30 1 Pd 0.0 0.0 0.0 0
M  V30 2 O 1.3175 -0.7411 0.0 0
M  V30 3 C 0.0 1.4959 0.0 0
M  V30 4 S 1.3175 -2.2371 0.0 0
M  V30 5 C -1.3038 2.2371 0.0 0
M  V30 6 C 1.3038 2.2508 0.0 0
M  V30 7 O 2.6213 -2.9782 0.0 0
M  V30 8 O 1.3175 -3.733 0.0 0
M  V30 9 C 0.0274 -2.9919 0.0 0
M  V30 10 C -2.6076 1.4822 0.0 0
M  V30 11 C -1.3038 3.733 0.0 0
M  V30 12 C 1.3038 3.7467 0.0 0
M  V30 13 C -2.6076 -0.0137 0.0 0
M  V30 14 C -3.9114 2.2371 0.0 0
M  V30 15 C -0.0137 4.4879 0.0 0
M  V30 16 N -1.3038 -0.7685 0.0 0
M  V30 17 C -3.9114 -0.7685 0.0 0
M  V30 18 C -5.2153 1.4822 0.0 0
M  V30 19 C -5.2153 -0.0137 0.0 0
M  V30 20 P 8.5641 0.8783 0.0 0
M  V30 21 C 7.8229 2.2096 0.0 0
M  V30 22 C 10.0738 0.8783 0.0 0
M  V30 23 C 7.7955 -0.398 0.0 0
M  V30 24 C 6.327 2.2096 0.0 0
M  V30 25 C 8.5915 3.486 0.0 0
M  V30 26 C 9.7306 2.2508 0.0 0
M  V30 27 C 8.4954 0.0137 0.0 0
M  V30 28 C 11.3639 0.6176 0.0 0
M  V30 29 C 7.1779 0.8509 0.0 0
M  V30 30 C 9.5385 -0.1372 0.0 0
M  V30 31 C 6.9171 -1.4548 0.0 0
M  V30 32 N 5.5584 0.9195 0.0 0
M  V30 33 C 5.5858 3.5134 0.0 0
M  V30 34 C 7.8504 4.7898 0.0 0
M  V30 35 C 10.3208 3.5409 0.0 0 CFG=1
M  V30 36 C 9.1679 1.3587 0.0 0 CFG=2
M  V30 37 C 12.0638 1.8116 0.0 0 CFG=1
M  V30 38 C 5.9152 1.4822 0.0 0 CFG=1
M  V30 39 C 8.1661 0.4803 0.0 0 CFG=2
M  V30 40 C 5.627 -0.9744 0.0 0 CFG=1
M  V30 41 C 6.2858 -0.3842 0.0 0
M  V30 42 C 4.0624 0.9195 0.0 0
M  V30 43 C 6.3544 4.7898 0.0 0
M  V30 44 C 8.9072 2.8135 0.0 0
M  V30 45 C 11.7756 3.2664 0.0 0
M  V30 46 C 10.6776 1.0567 0.0 0
M  V30 47 C 7.4798 1.7979 0.0 0
M  V30 48 C 4.9408 0.3568 0.0 0
M  V30 49 C 7.1779 -0.6999 0.0 0
M  V30 50 C 5.5172 -1.6743 0.0 0
M  V30 51 C 3.2938 -0.3568 0.0 0
M  V30 52 O 4.0212 -1.6743 0.0 0
M  V30 END ATOM
M  V30 BEGIN BOND
M  V30 1 1 1 2
M  V30 2 1 1 3
M  V30 3 1 2 4
M  V30 4 2 3 5
M  V30 5 1 3 6
M  V30 6 2 4 7
M  V30 7 2 4 8
M  V30 8 1 4 9
M  V30 9 1 5 10
M  V30 10 1 5 11
M  V30 11 2 6 12
M  V30 12 2 10 13
M  V30 13 1 10 14
M  V30 14 2 11 15
M  V30 15 1 13 16
M  V30 16 1 13 17
M  V30 17 2 14 18
M  V30 18 2 17 19
M  V30 19 1 20 21
M  V30 20 1 20 22
M  V30 21 1 20 23
M  V30 22 2 21 24
M  V30 23 1 21 25
M  V30 24 1 22 26
M  V30 25 1 22 27
M  V30 26 1 22 28
M  V30 27 1 23 29
M  V30 28 1 23 30
M  V30 29 1 23 31
M  V30 30 1 24 32
M  V30 31 1 24 33
M  V30 32 2 25 34
M  V30 33 1 35 26 CFG=3
M  V30 34 1 36 27 CFG=3
M  V30 35 1 37 28 CFG=3
M  V30 36 1 38 29 CFG=1
M  V30 37 1 39 30 CFG=1
M  V30 38 1 40 31 CFG=1
M  V30 39 1 32 41
M  V30 40 1 32 42
M  V30 41 2 33 43
M  V30 42 1 35 44
M  V30 43 1 35 45
M  V30 44 1 36 46
M  V30 45 1 38 47
M  V30 46 1 38 48
M  V30 47 1 39 49
M  V30 48 1 41 50
M  V30 49 1 42 51
M  V30 50 1 50 52
M  V30 51 1 12 15
M  V30 52 1 18 19
M  V30 53 1 34 43
M  V30 54 1 36 44
M  V30 55 1 37 45
M  V30 56 1 37 46
M  V30 57 1 39 47
M  V30 58 1 40 48
M  V30 59 1 40 49
M  V30 60 1 51 52
M  V30 END BOND
M  V30 BEGIN COLLECTION
M  V30 MDLV30/STEABS ATOMS=(6 35 36 37 38 39 40)
M  V30 END COLLECTION
M  V30 END CTAB
M  END
>  <CAS_NUMBER>
2222690-89-1

>  <MOL_NAME>
(2-(Di-1-adamantylphosphino)morpholinobenzene)[2-(2'-amino-1,1'-biphenyl)]palladium(ii) methanesulfonate (MorDalPhos-Pd-G3)

>  <Role>
Pd catalyst

$$$$
1848244-75-6
OCL MolfileCreator  2D

  0  0  0  0  0  0              0 V3000
M  V30 BEGIN CTAB
M  V30 COUNTS 35 38 0 0 0
M  V30 BEGIN ATOM
M  V30 1 P 0.0 0.0 0.0 0
M  V30 2 C -0.966 -1.1522 0.0 0
M  V30 3 C -0.5121 1.4082 0.0 0
M  V30 4 C 1.4781 -0.2676 0.0 0
M  V30 5 C -0.0116 -2.3044 0.0 0
M  V30 6 C -2.4441 -1.4082 0.0 0
M  V30 7 C 0.4539 2.5605 0.0 0
M  V30 8 C -1.9902 1.6643 0.0 0
M  V30 9 C 2.4441 -1.4199 0.0 0
M  V30 10 C 1.9902 1.1406 0.0 0
M  V30 11 C 1.4664 -2.0484 0.0 0
M  V30 12 C -0.5237 -3.7127 0.0 0
M  V30 13 C -2.9562 -2.8165 0.0 0
M  V30 14 C -0.0581 3.9688 0.0 0
M  V30 15 C -2.5023 3.0726 0.0 0
M  V30 16 C 3.9222 -1.1638 0.0 0
M  V30 17 C 3.4683 1.3966 0.0 0
M  V30 18 C 1.9902 -0.6401 0.0 0
M  V30 19 C 2.4208 -3.2006 0.0 0
M  V30 20 C -2.0018 -3.9688 0.0 0
M  V30 21 C -1.5363 4.2248 0.0 0
M  V30 22 C 4.4343 0.2444 0.0 0
M  V30 23 O 1.0358 0.5121 0.0 0
M  V30 24 C 3.4683 -0.384 0.0 0
M  V30 25 C 3.899 -2.9446 0.0 0
M  V30 26 C 1.8971 -4.6089 0.0 0
M  V30 27 C 1.5596 1.9204 0.0 0
M  V30 28 C 4.4227 -1.5363 0.0 0
M  V30 29 C 2.8515 -5.7612 0.0 0
M  V30 30 C 0.4189 -4.865 0.0 0
M  V30 31 C 1.3733 -6.0172 0.0 0
M  V30 32 C 5.9008 -1.2802 0.0 0
M  V30 33 C 6.4246 0.128 0.0 0
M  V30 34 C 6.8552 -2.4325 0.0 0
M  V30 35 C 7.379 -1.0242 0.0 0
M  V30 END ATOM
M  V30 BEGIN BOND
M  V30 1 1 1 2
M  V30 2 1 1 3
M  V30 3 1 1 4
M  V30 4 2 2 5
M  V30 5 1 2 6
M  V30 6 1 3 7
M  V30 7 1 3 8
M  V30 8 1 4 9
M  V30 9 1 4 10
M  V30 10 1 5 11
M  V30 11 1 5 12
M  V30 12 2 6 13
M  V30 13 1 7 14
M  V30 14 1 8 15
M  V30 15 1 9 16
M  V30 16 1 10 17
M  V30 17 2 11 18
M  V30 18 1 11 19
M  V30 19 2 12 20
M  V30 20 1 14 21
M  V30 21 1 16 22
M  V30 22 1 18 23
M  V30 23 1 18 24
M  V30 24 2 19 25
M  V30 25 1 19 26
M  V30 26 1 23 27
M  V30 27 2 24 28
M  V30 28 1 26 29
M  V30 29 1 26 30
M  V30 30 1 26 31
M  V30 31 1 28 32
M  V30 32 1 32 33
M  V30 33 1 32 34
M  V30 34 1 32 35
M  V30 35 1 13 20
M  V30 36 1 15 21
M  V30 37 1 17 22
M  V30 38 1 25 28
M  V30 END BOND
M  V30 END CTAB
M  END
>  <CAS_NUMBER>
1848244-75-6

>  <MOL_NAME>
Dicyclohexyl(2',4'-di-tert-butyl-6'-methoxy-[1,1'-biphenyl]-2-yl)phosphane (VPhos)

>  <Role>
Ligand

$$$$
28923-39-9
OCL MolfileCreator  2D

  0  0  0  0  0  0              0 V3000
M  V30 BEGIN CTAB
M  V30 COUNTS 9 9 0 0 0
M  V30 BEGIN ATOM
M  V30 1 Br 0.0 0.0 0.0 0
M  V30 2 Ni 0.7307 -1.2817 0.0 0
M  V30 3 Br -0.7906 -1.4135 0.0 0
M  V30 4 O 0.2395 -2.6953 0.0 0
M  V30 5 O 2.2161 -1.2578 0.0 0
M  V30 6 C 1.4375 -3.5578 0.0 0
M  V30 7 C -1.2458 -3.0666 0.0 0
M  V30 8 C 2.6593 -2.6713 0.0 0
M  V30 9 C 2.9468 0.0718 0.0 0
M  V30 END ATOM
M  V30 BEGIN BOND
M  V30 1 1 1 2
M  V30 2 1 2 3
M  V30 3 1 2 4
M  V30 4 1 2 5
M  V30 5 1 4 6
M  V30 6 1 4 7
M  V30 7 1 5 8
M  V30 8 1 5 9
M  V30 9 1 6 8
M  V30 END BOND
M  V30 END CTAB
M  END
>  <CAS_NUMBER>
28923-39-9

>  <MOL_NAME>
nickel(II) bromide ethylene glycol dimethyl ether complex

>  <Role>
Nickel catalyst

$$$$
92149-07-0
OCL MolfileCreator  2D

  0  0  0  0  0  0              0 V3000
M  V30 BEGIN CTAB
M  V30 COUNTS 18 20 0 0 0
M  V30 BEGIN ATOM
M  V30 1 O 0.0 0.0 0.0 0
M  V30 2 C 1.2759 -0.7412 0.0 0
M  V30 3 C -1.3245 -0.7412 0.0 0
M  V30 4 C 2.5639 0.0364 0.0 0
M  V30 5 C 1.2637 -2.2237 0.0 0
M  V30 6 C 3.852 -0.7047 0.0 0
M  V30 7 C 2.5396 1.5796 0.0 0
M  V30 8 C 2.5396 -2.9528 0.0 0
M  V30 9 N 3.8398 -2.1872 0.0 0
M  V30 10 C 5.1279 0.0607 0.0 0
M  V30 11 C 3.8277 2.3573 0.0 0
M  V30 12 N 6.4159 -0.6804 0.0 0
M  V30 13 C 5.1036 1.6039 0.0 0
M  V30 14 C 7.6919 0.0972 0.0 0
M  V30 15 C 6.3795 2.3695 0.0 0
M  V30 16 C 7.6675 1.6283 0.0 0
M  V30 17 O 6.3552 3.9006 0.0 0
M  V30 18 C 7.6311 4.6783 0.0 0
M  V30 END ATOM
M  V30 BEGIN BOND
M  V30 1 1 1 2
M  V30 2 1 1 3
M  V30 3 1 2 4
M  V30 4 2 2 5
M  V30 5 2 4 6
M  V30 6 1 4 7
M  V30 7 1 5 8
M  V30 8 1 6 9
M  V30 9 1 6 10
M  V30 10 2 7 11
M  V30 11 1 10 12
M  V30 12 2 10 13
M  V30 13 2 12 14
M  V30 14 1 13 15
M  V30 15 1 14 16
M  V30 16 1 15 17
M  V30 17 1 17 18
M  V30 18 2 8 9
M  V30 19 1 11 13
M  V30 20 2 15 16
M  V30 END BOND
M  V30 END CTAB
M  END
>  <CAS_NUMBER>
92149-07-0

>  <MOL_NAME>
4,7-dimethoxy-1,10-phenanthroline

>  <Role>
Ligand

$$$$
18027-10-6
OCL MolfileCreator  2D

  0  0  0  0  0  0              0 V3000
M  V30 BEGIN CTAB
M  V30 COUNTS 6 4 0 0 0
M  V30 BEGIN ATOM
M  V30 1 Si 0.0 0.0 0.0 0
M  V30 2 O 1.4933 0.1411 0.0 0 CHG=-1
M  V30 3 C -1.3404 -0.4703 0.0 0
M  V30 4 C -1.4698 0.4585 0.0 0
M  V30 5 C -0.4585 1.4698 0.0 0
M  V30 6 Na 0.3762 -0.2822 0.0 0 CHG=1
M  V30 END ATOM
M  V30 BEGIN BOND
M  V30 1 1 1 2
M  V30 2 1 1 3
M  V30 3 1 1 4
M  V30 4 1 1 5
M  V30 END BOND
M  V30 END CTAB
M  END
>  <CAS_NUMBER>
18027-10-6

>  <MOL_NAME>
sodium trimethylsilanolate

>  <Role>
Base

$$$$
67-68-5
OCL MolfileCreator  2D

  0  0  0  0  0  0              0 V3000
M  V30 BEGIN CTAB
M  V30 COUNTS 4 3 0 0 0
M  V30 BEGIN ATOM
M  V30 1 S 0.0 0.0 0.0 0
M  V30 2 O 1.2974 -0.7548 0.0 0
M  V30 3 C 0.0 1.4979 0.0 0
M  V30 4 C -1.2974 -0.7548 0.0 0
M  V30 END ATOM
M  V30 BEGIN BOND
M  V30 1 2 1 2
M  V30 2 1 1 3
M  V30 3 1 1 4
M  V30 END BOND
M  V30 END CTAB
M  END
>  <CAS_NUMBER>
67-68-5

>  <MOL_NAME>
DMSO

>  <Role>
Solvent

$$$$
108-88-3
OCL MolfileCreator  2D

  0  0  0  0  0  0              0 V3000
M  V30 BEGIN CTAB
M  V30 COUNTS 7 7 0 0 0
M  V30 BEGIN ATOM
M  V30 1 C 0.0 0.0 0.0 0
M  V30 2 C 1.2987 -0.7556 0.0 0
M  V30 3 C 0.0 1.4994 0.0 0
M  V30 4 C -1.2987 -0.7556 0.0 0
M  V30 5 C 2.5974 -0.0118 0.0 0
M  V30 6 C 1.2987 2.2432 0.0 0
M  V30 7 C 2.5974 1.4876 0.0 0
M  V30 END ATOM
M  V30 BEGIN BOND
M  V30 1 2 1 2
M  V30 2 1 1 3
M  V30 3 1 1 4
M  V30 4 1 2 5
M  V30 5 2 3 6
M  V30 6 2 5 7
M  V30 7 1 6 7
M  V30 END BOND
M  V30 END CTAB
M  END
>  <CAS_NUMBER>
108-88-3

>  <MOL_NAME>
toluene

>  <Role>
Solvent

$$$$
17217-57-1
OCL MolfileCreator  2D

  0  0  0  0  0  0              0 V3000
M  V30 BEGIN CTAB
M  V30 COUNTS 16 17 0 0 0
M  V30 BEGIN ATOM
M  V30 1 O 0.0 0.0 0.0 0
M  V30 2 C -0.158 1.6731 0.0 0
M  V30 3 C 1.133 -0.685 0.0 0
M  V30 4 C 0.9749 2.5163 0.0 0
M  V30 5 C -1.6073 2.5163 0.0 0
M  V30 6 C 0.8168 4.1895 0.0 0
M  V30 7 C -1.7654 4.1895 0.0 0
M  V30 8 N -0.6323 5.0327 0.0 0
M  V30 9 C 1.9498 5.0327 0.0 0
M  V30 10 N 1.7917 6.7059 0.0 0
M  V30 11 C 3.0828 4.3608 0.0 0
M  V30 12 C 2.9247 7.549 0.0 0
M  V30 13 C 4.2158 5.2039 0.0 0
M  V30 14 C 4.0577 6.864 0.0 0
M  V30 15 O 5.3489 4.532 0.0 0
M  V30 16 C 6.4819 5.3752 0.0 0
M  V30 END ATOM
M  V30 BEGIN BOND
M  V30 1 1 1 2
M  V30 2 1 1 3
M  V30 3 2 2 4
M  V30 4 1 2 5
M  V30 5 1 4 6
M  V30 6 2 5 7
M  V30 7 2 6 8
M  V30 8 1 6 9
M  V30 9 2 9 10
M  V30 10 1 9 11
M  V30 11 1 10 12
M  V30 12 2 11 13
M  V30 13 2 12 14
M  V30 14 1 13 15
M  V30 15 1 15 16
M  V30 16 1 7 8
M  V30 17 1 13 14
M  V30 END BOND
M  V30 END CTAB
M  END
>  <CAS_NUMBER>
17217-57-1

>  <MOL_NAME>
4-4'-dimethoxy-2-2'-bipyridine

>  <Role>
Ligand

$$$$
72914-19-3
OCL MolfileCreator  2D

  0  0  0  0  0  0              0 V3000
M  V30 BEGIN CTAB
M  V30 COUNTS 20 21 0 0 0
M  V30 BEGIN ATOM
M  V30 1 N 0.0 0.0 0.0 0
M  V30 2 C -0.1533 1.623 0.0 0
M  V30 3 C 1.0991 -0.6517 0.0 0
M  V30 4 C -1.5591 2.441 0.0 0
M  V30 5 C 0.9457 2.441 0.0 0
M  V30 6 C 2.1982 0.1533 0.0 0
M  V30 7 N -1.7125 4.0641 0.0 0
M  V30 8 C -2.965 1.7892 0.0 0
M  V30 9 C 2.0448 1.7892 0.0 0
M  V30 10 C -3.1183 4.882 0.0 0
M  V30 11 C -4.3708 2.6071 0.0 0
M  V30 12 C 3.1439 2.6071 0.0 0
M  V30 13 C -4.5242 4.2302 0.0 0
M  V30 14 C -5.7766 1.9553 0.0 0
M  V30 15 C 2.9905 4.2302 0.0 0
M  V30 16 C 4.243 3.4251 0.0 0
M  V30 17 C 4.243 1.9553 0.0 0
M  V30 18 C -5.93 0.639 0.0 0
M  V30 19 C -7.1825 1.3035 0.0 0
M  V30 20 C -7.1825 2.7733 0.0 0
M  V30 END ATOM
M  V30 BEGIN BOND
M  V30 1 2 1 2
M  V30 2 1 1 3
M  V30 3 1 2 4
M  V30 4 1 2 5
M  V30 5 2 3 6
M  V30 6 2 4 7
M  V30 7 1 4 8
M  V30 8 2 5 9
M  V30 9 1 7 10
M  V30 10 2 8 11
M  V30 11 1 9 12
M  V30 12 2 10 13
M  V30 13 1 11 14
M  V30 14 1 12 15
M  V30 15 1 12 16
M  V30 16 1 12 17
M  V30 17 1 14 18
M  V30 18 1 14 19
M  V30 19 1 14 20
M  V30 20 1 6 9
M  V30 21 1 11 13
M  V30 END BOND
M  V30 END CTAB
M  END
>  <CAS_NUMBER>
72914-19-3

>  <MOL_NAME>
4,4'-di-tert-butyl-2,2'-dipyridyl

>  <Role>
Ligand

$$$$
100-76-5
OCL MolfileCreator  2D

  0  0  0  0  0  0              0 V3000
M  V30 BEGIN CTAB
M  V30 COUNTS 8 9 0 0 0
M  V30 BEGIN ATOM
M  V30 1 N 0.0 0.0 0.0 0
M  V30 2 C 0.5493 1.0584 0.0 0
M  V30 3 C 1.1522 0.8575 0.0 0
M  V30 4 C -1.4738 0.8575 0.0 0
M  V30 5 C 0.3885 2.3313 0.0 0
M  V30 6 C 0.9914 2.5591 0.0 0
M  V30 7 C -1.6346 2.5591 0.0 0
M  V30 8 C -0.4555 3.3898 0.0 0
M  V30 END ATOM
M  V30 BEGIN BOND
M  V30 1 1 1 2
M  V30 2 1 1 3
M  V30 3 1 1 4
M  V30 4 1 2 5
M  V30 5 1 3 6
M  V30 6 1 4 7
M  V30 7 1 5 8
M  V30 8 1 6 8
M  V30 9 1 7 8
M  V30 END BOND
M  V30 END CTAB
M  END
>  <CAS_NUMBER>
100-76-5

>  <MOL_NAME>
quinuclidine

>  <Role>
Base

$$$$
29166-72-1
OCL MolfileCreator  2D

  0  0  0  0  0  0              0 V3000
M  V30 BEGIN CTAB
M  V30 COUNTS 12 11 0 0 0
M  V30 BEGIN ATOM
M  V30 1 N 0.0 0.0 0.0 0
M  V30 2 C -0.1551 1.6419 0.0 0
M  V30 3 C 1.1118 -0.6593 0.0 0
M  V30 4 N -1.5772 2.4693 0.0 0
M  V30 5 N 0.9567 2.4693 0.0 0
M  V30 6 C 0.9567 -1.9909 0.0 0
M  V30 7 C 2.2237 0.1551 0.0 0
M  V30 8 C 0.9567 0.9825 0.0 0
M  V30 9 C -2.9994 1.8099 0.0 0
M  V30 10 C -1.7324 4.1112 0.0 0
M  V30 11 C 2.0685 1.8099 0.0 0
M  V30 12 C 0.8015 4.1112 0.0 0
M  V30 END ATOM
M  V30 BEGIN BOND
M  V30 1 2 1 2
M  V30 2 1 1 3
M  V30 3 1 2 4
M  V30 4 1 2 5
M  V30 5 1 3 6
M  V30 6 1 3 7
M  V30 7 1 3 8
M  V30 8 1 4 9
M  V30 9 1 4 10
M  V30 10 1 5 11
M  V30 11 1 5 12
M  V30 END BOND
M  V30 END CTAB
M  END
>  <CAS_NUMBER>
29166-72-1

>  <MOL_NAME>
2-tert-butyl-1,1,3,3-tetramethylguanidine

>  <Role>
Base

$$$$
1470372-59-8
OCL MolfileCreator  2D

  0  0  0  0  0  0              0 V3000
M  V30 BEGIN CTAB
M  V30 COUNTS 57 60 0 0 0
M  V30 BEGIN ATOM
M  V30 1 Pd 0.0 0.0 0.0 0 CHG=1
M  V30 2 C 0.6632 -0.1658 0.0 0
M  V30 3 C 1.3265 0.9949 0.0 0
M  V30 4 C 0.1658 -0.9949 0.0 0
M  V30 5 C 0.829 2.8189 0.0 0
M  V30 6 C 1.9898 0.829 0.0 0
M  V30 7 C 0.829 -1.1607 0.0 0
M  V30 8 C -0.829 3.9796 0.0 0
M  V30 9 C 1.4923 3.9796 0.0 0
M  V30 10 C 1.4923 0.0 0.0 0
M  V30 11 N -2.4872 3.8138 0.0 0
M  V30 12 C -1.3265 5.8036 0.0 0
M  V30 13 C 0.9949 5.8036 0.0 0
M  V30 14 C -0.6632 6.9643 0.0 0
M  V30 15 S -5.9694 1.6581 0.0 0
M  V30 16 O -6.0108 0.9119 0.0 0
M  V30 17 O -6.9228 3.3992 0.0 0
M  V30 18 O -5.2232 2.6116 0.0 0 CHG=-1
M  V30 19 C -7.7105 1.6996 0.0 0
M  V30 20 P -11.6072 7.6276 0.0 0
M  V30 21 C -11.5243 6.5083 0.0 0
M  V30 22 C -11.1512 9.0785 0.0 0
M  V30 23 C -13.3483 8.581 0.0 0
M  V30 24 C -12.685 5.845 0.0 0
M  V30 25 C -10.6952 7.0058 0.0 0
M  V30 26 C -11.9803 10.861 0.0 0
M  V30 27 C -10.3636 9.2443 0.0 0
M  V30 28 C -14.8821 8.2079 0.0 0
M  V30 29 C -14.0945 10.405 0.0 0
M  V30 30 C -17.9497 6.3425 0.0 0
M  V30 31 C -12.5192 5.1818 0.0 0
M  V30 32 O -10.5294 8.6639 0.0 0
M  V30 33 C -10.5294 6.3425 0.0 0
M  V30 34 C -11.5243 12.3119 0.0 0
M  V30 35 C -9.9076 10.6952 0.0 0
M  V30 36 C -16.6232 9.1614 0.0 0
M  V30 37 C -15.8355 11.3585 0.0 0
M  V30 38 C -19.1104 8.0007 0.0 0
M  V30 39 C -19.1104 5.6792 0.0 0
M  V30 40 O -13.6799 4.5185 0.0 0
M  V30 41 C -11.6901 5.6792 0.0 0
M  V30 42 C -9.7003 9.1614 0.0 0
M  V30 43 C -10.7367 12.4777 0.0 0
M  V30 44 C -17.3694 10.9854 0.0 0
M  V30 45 C -20.9344 8.4981 0.0 0
M  V30 46 C -18.9446 9.6588 0.0 0
M  V30 47 C -20.9344 6.1767 0.0 0
M  V30 48 C -18.9446 5.0159 0.0 0
M  V30 49 C -13.5141 3.8552 0.0 0
M  V30 50 C -22.0952 7.8348 0.0 0
M  V30 51 C -20.1054 11.317 0.0 0
M  V30 52 C -18.1155 10.1563 0.0 0
M  V30 53 C -18.1155 5.5134 0.0 0
M  V30 54 C -20.1054 4.3527 0.0 0
M  V30 55 C -23.9192 8.3323 0.0 0
M  V30 56 C -25.0799 9.9905 0.0 0
M  V30 57 C -25.0799 7.669 0.0 0
M  V30 END ATOM
M  V30 BEGIN BOND
M  V30 1 1 1 2
M  V30 2 2 2 3
M  V30 3 1 2 4
M  V30 4 1 3 5
M  V30 5 1 3 6
M  V30 6 2 4 7
M  V30 7 2 5 8
M  V30 8 1 5 9
M  V30 9 2 6 10
M  V30 10 1 8 11
M  V30 11 1 8 12
M  V30 12 2 9 13
M  V30 13 2 12 14
M  V30 14 2 15 16
M  V30 15 2 15 17
M  V30 16 1 15 18
M  V30 17 1 15 19
M  V30 18 1 20 21
M  V30 19 1 20 22
M  V30 20 1 20 23
M  V30 21 2 21 24
M  V30 22 1 21 25
M  V30 23 1 22 26
M  V30 24 1 22 27
M  V30 25 1 23 28
M  V30 26 1 23 29
M  V30 27 1 24 30
M  V30 28 1 24 31
M  V30 29 1 25 32
M  V30 30 2 25 33
M  V30 31 1 26 34
M  V30 32 1 27 35
M  V30 33 1 28 36
M  V30 34 1 29 37
M  V30 35 2 30 38
M  V30 36 1 30 39
M  V30 37 1 31 40
M  V30 38 2 31 41
M  V30 39 1 32 42
M  V30 40 1 34 43
M  V30 41 1 36 44
M  V30 42 1 38 45
M  V30 43 1 38 46
M  V30 44 2 39 47
M  V30 45 1 39 48
M  V30 46 1 40 49
M  V30 47 2 45 50
M  V30 48 1 46 51
M  V30 49 1 46 52
M  V30 50 1 48 53
M  V30 51 1 48 54
M  V30 52 1 50 55
M  V30 53 1 55 56
M  V30 54 1 55 57
M  V30 55 1 7 10
M  V30 56 1 13 14
M  V30 57 1 33 41
M  V30 58 1 35 43
M  V30 59 1 37 44
M  V30 60 1 47 50
M  V30 END BOND
M  V30 END CTAB
M  END
>  <CAS_NUMBER>
1470372-59-8

>  <MOL_NAME>
[(2-di-cyclohexylphosphino-3,6-dimethoxy-2',4',6'- triisopropyl-1,1'-biphenyl)-2-(2'-amino-1,1' -biphenyl)]palladium(II) methanesulfonate (BrettPhos Pd G3)

>  <Role>
Pd catalyst

$$$$
870987-63-6
OCL MolfileCreator  2D

  0  0  0  0  0  0              0 V3000
M  V30 BEGIN CTAB
M  V30 COUNTS 64 67 0 0 0
M  V30 BEGIN ATOM
M  V30 1 Ir 0.0 0.0 0.0 0
M  V30 2 C -2.7036 1.554 0.0 0
M  V30 3 C -2.661 -1.1708 0.0 0
M  V30 4 C -2.959 3.1293 0.0 0
M  V30 5 C -4.066 1.0218 0.0 0
M  V30 6 C -2.8952 -2.3842 0.0 0
M  V30 7 C -4.0447 -0.149 0.0 0
M  V30 8 C -4.3215 4.1725 0.0 0
M  V30 9 C -1.852 4.1725 0.0 0
M  V30 10 C -5.4285 2.0649 0.0 0
M  V30 11 C -4.2576 -2.9377 0.0 0
M  V30 12 C -1.7669 -2.8952 0.0 0
M  V30 13 C -5.4072 -0.7025 0.0 0
M  V30 14 F -4.5769 5.7478 0.0 0
M  V30 15 C -5.6839 3.6403 0.0 0
M  V30 16 N -0.745 3.6403 0.0 0
M  V30 17 C -2.1075 5.7478 0.0 0
M  V30 18 F -6.7909 1.5327 0.0 0
M  V30 19 F -4.3641 -4.1512 0.0 0
M  V30 20 C -5.6414 -1.9159 0.0 0
M  V30 21 N -0.6599 -1.8307 0.0 0
M  V30 22 C -2.0011 -4.1086 0.0 0
M  V30 23 F -6.8335 0.2128 0.0 0
M  V30 24 C 0.3619 4.6834 0.0 0
M  V30 25 C -1.0005 6.7909 0.0 0
M  V30 26 C 0.447 -2.3417 0.0 0
M  V30 27 C -0.8941 -4.6195 0.0 0
M  V30 28 C 0.1064 6.2587 0.0 0
M  V30 29 C 0.2128 -3.5551 0.0 0
M  V30 30 C 1.2134 7.3019 0.0 0
M  V30 31 C 1.3624 -3.9596 0.0 0
M  V30 32 F 2.3204 8.345 0.0 0
M  V30 33 F 0.9579 8.8772 0.0 0
M  V30 34 F 2.3204 6.7696 0.0 0
M  V30 35 F 1.256 -5.173 0.0 0
M  V30 36 F 2.4907 -4.3641 0.0 0
M  V30 37 F 2.3842 -2.7887 0.0 0
M  V30 38 P 9.5371 5.2795 0.0 0 CHG=-1
M  V30 39 F 10.6441 4.7473 0.0 0
M  V30 40 F 10.6441 6.3226 0.0 0
M  V30 41 F 9.2817 6.8548 0.0 0
M  V30 42 F 8.1747 6.3226 0.0 0
M  V30 43 F 8.1747 4.7473 0.0 0
M  V30 44 F 9.2817 4.066 0.0 0
M  V30 45 N 0.5109 0.6812 0.0 0
M  V30 46 C 1.6179 1.7456 0.0 0
M  V30 47 C 0.2767 -0.5322 0.0 0
M  V30 48 C 1.3411 3.3209 0.0 0
M  V30 49 C 2.7461 1.2347 0.0 0
M  V30 50 C 1.405 -1.0431 0.0 0
M  V30 51 N -0.0425 4.3428 0.0 0
M  V30 52 C 2.4481 4.3854 0.0 0
M  V30 53 C 2.512 0.0212 0.0 0
M  V30 54 C -0.3193 5.9181 0.0 0
M  V30 55 C 2.1714 5.9607 0.0 0
M  V30 56 C 3.6403 -0.4896 0.0 0
M  V30 57 C 0.7876 6.9825 0.0 0
M  V30 58 C 3.2784 7.0251 0.0 0
M  V30 59 C 4.7473 0.5747 0.0 0
M  V30 60 C 3.4061 -1.703 0.0 0
M  V30 61 C 3.3635 1.0857 0.0 0
M  V30 62 C 3.0016 8.6004 0.0 0
M  V30 63 C 4.4066 6.5142 0.0 0
M  V30 64 C 4.3854 8.0895 0.0 0
M  V30 END ATOM
M  V30 BEGIN BOND
M  V30 1 1 1 2
M  V30 2 1 1 3
M  V30 3 2 2 4
M  V30 4 1 2 5
M  V30 5 2 3 6
M  V30 6 1 3 7
M  V30 7 1 4 8
M  V30 8 1 4 9
M  V30 9 2 5 10
M  V30 10 1 6 11
M  V30 11 1 6 12
M  V30 12 2 7 13
M  V30 13 1 8 14
M  V30 14 2 8 15
M  V30 15 2 9 16
M  V30 16 1 9 17
M  V30 17 1 10 18
M  V30 18 1 11 19
M  V30 19 2 11 20
M  V30 20 2 12 21
M  V30 21 1 12 22
M  V30 22 1 13 23
M  V30 23 1 16 24
M  V30 24 2 17 25
M  V30 25 1 21 26
M  V30 26 2 22 27
M  V30 27 2 24 28
M  V30 28 2 26 29
M  V30 29 1 28 30
M  V30 30 1 29 31
M  V30 31 1 30 32
M  V30 32 1 30 33
M  V30 33 1 30 34
M  V30 34 1 31 35
M  V30 35 1 31 36
M  V30 36 1 31 37
M  V30 37 1 38 39
M  V30 38 1 38 40
M  V30 39 1 38 41
M  V30 40 1 38 42
M  V30 41 1 38 43
M  V30 42 1 38 44
M  V30 43 2 45 46
M  V30 44 1 45 47
M  V30 45 1 46 48
M  V30 46 1 46 49
M  V30 47 2 47 50
M  V30 48 2 48 51
M  V30 49 1 48 52
M  V30 50 2 49 53
M  V30 51 1 51 54
M  V30 52 2 52 55
M  V30 53 1 53 56
M  V30 54 2 54 57
M  V30 55 1 55 58
M  V30 56 1 56 59
M  V30 57 1 56 60
M  V30 58 1 56 61
M  V30 59 1 58 62
M  V30 60 1 58 63
M  V30 61 1 58 64
M  V30 62 1 10 15
M  V30 63 1 13 20
M  V30 64 1 25 28
M  V30 65 1 27 29
M  V30 66 1 50 53
M  V30 67 1 55 57
M  V30 END BOND
M  V30 END CTAB
M  END
>  <CAS_NUMBER>
870987-63-6

>  <MOL_NAME>
(4,4'-di-t-butyl-2,2'-bipyridine)bis[3,5-difluoro-2-[5-trifluoromethyl-2-pyridinyl-kN)phenyl-kC]iridium(III) hexafluorophosphate

>  <Role>
Photocatalyst

$$$$
1442433-71-7
OCL MolfileCreator  2D

  0  0  0  0  0  0              0 V3000
M  V30 BEGIN CTAB
M  V30 COUNTS 29 31 0 0 0
M  V30 BEGIN ATOM
M  V30 1 F 0.0 0.0 0.0 0
M  V30 2 B 1.3175 0.1534 0.0 0 CHG=-1
M  V30 3 F 1.164 -1.164 0.0 0
M  V30 4 F 2.635 0.3069 0.0 0
M  V30 5 F 1.164 1.778 0.0 0
M  V30 6 N -0.9209 4.9119 0.0 0 CHG=1
M  V30 7 C 0.179 5.7305 0.0 0
M  V30 8 C -2.328 5.7305 0.0 0
M  V30 9 C -1.0744 3.5944 0.0 0
M  V30 10 C 0.0255 7.355 0.0 0
M  V30 11 C 1.2791 5.0654 0.0 0
M  V30 12 C -2.4815 7.355 0.0 0
M  V30 13 C -3.7351 5.0654 0.0 0
M  V30 14 C -1.3814 8.1737 0.0 0
M  V30 15 C 1.1256 8.1737 0.0 0
M  V30 16 C 2.3792 5.884 0.0 0
M  V30 17 C -3.8886 8.1737 0.0 0
M  V30 18 C -5.1421 5.884 0.0 0
M  V30 19 C -1.5349 9.7982 0.0 0
M  V30 20 C 2.2257 7.5085 0.0 0
M  V30 21 C -5.2956 7.5085 0.0 0
M  V30 22 C -0.4349 10.6169 0.0 0
M  V30 23 C -2.942 10.6169 0.0 0
M  V30 24 C -0.5884 12.2414 0.0 0
M  V30 25 C 0.6651 9.9645 0.0 0
M  V30 26 C -3.0955 12.2414 0.0 0
M  V30 27 C -4.349 9.9645 0.0 0
M  V30 28 C -1.9954 13.06 0.0 0
M  V30 29 C -2.1489 14.6846 0.0 0
M  V30 END ATOM
M  V30 BEGIN BOND
M  V30 1 1 1 2
M  V30 2 1 2 3
M  V30 3 1 2 4
M  V30 4 1 2 5
M  V30 5 2 6 7
M  V30 6 1 6 8
M  V30 7 1 6 9
M  V30 8 1 7 10
M  V30 9 1 7 11
M  V30 10 2 8 12
M  V30 11 1 8 13
M  V30 12 2 10 14
M  V30 13 1 10 15
M  V30 14 2 11 16
M  V30 15 1 12 17
M  V30 16 2 13 18
M  V30 17 1 14 19
M  V30 18 2 15 20
M  V30 19 2 17 21
M  V30 20 2 19 22
M  V30 21 1 19 23
M  V30 22 1 22 24
M  V30 23 1 22 25
M  V30 24 2 23 26
M  V30 25 1 23 27
M  V30 26 2 24 28
M  V30 27 1 28 29
M  V30 28 1 12 14
M  V30 29 1 16 20
M  V30 30 1 18 21
M  V30 31 1 26 28
M  V30 END BOND
M  V30 END CTAB
M  END
>  <CAS_NUMBER>
1442433-71-7

>  <MOL_NAME>
9-mesityl-10-methylacridinium tetrafluoroborate

>  <Role>
Photocatalyst

$$$$
80907-56-8
OCL MolfileCreator  2D

  0  0  0  0  0  0              0 V3000
M  V30 BEGIN CTAB
M  V30 COUNTS 51 51 0 0 0
M  V30 BEGIN ATOM
M  V30 1 Ru 0.0 0.0 0.0 0
M  V30 2 P 5.8903 2.742 0.0 0 CHG=-1
M  V30 3 F 6.982 2.0819 0.0 0
M  V30 4 F 6.982 3.5545 0.0 0
M  V30 5 F 5.7379 4.3542 0.0 0
M  V30 6 F 4.4939 3.5545 0.0 0
M  V30 7 F 4.4939 2.0819 0.0 0
M  V30 8 F 5.7379 1.4344 0.0 0
M  V30 9 P 5.8903 2.742 0.0 0 CHG=-1
M  V30 10 F 6.982 2.0819 0.0 0
M  V30 11 F 6.982 3.5545 0.0 0
M  V30 12 F 5.7379 4.3542 0.0 0
M  V30 13 F 4.4939 3.5545 0.0 0
M  V30 14 F 4.4939 2.0819 0.0 0
M  V30 15 F 5.7379 1.4344 0.0 0
M  V30 16 N -1.2186 4.3669 0.0 0
M  V30 17 C -2.6277 5.1794 0.0 0
M  V30 18 C -0.1396 5.1794 0.0 0
M  V30 19 C -4.0115 4.5193 0.0 0
M  V30 20 C -2.7928 6.7916 0.0 0
M  V30 21 C -0.3046 6.7916 0.0 0
M  V30 22 N -4.1511 3.2117 0.0 0
M  V30 23 C -5.4206 5.3317 0.0 0
M  V30 24 N -1.7137 7.6041 0.0 0
M  V30 25 C -5.5348 2.5516 0.0 0
M  V30 26 N -6.8043 4.6716 0.0 0
M  V30 27 C -6.9439 3.364 0.0 0
M  V30 28 N -1.2186 4.3669 0.0 0
M  V30 29 C -2.6277 5.1794 0.0 0
M  V30 30 C -0.1396 5.1794 0.0 0
M  V30 31 C -4.0115 4.5193 0.0 0
M  V30 32 C -2.7928 6.7916 0.0 0
M  V30 33 C -0.3046 6.7916 0.0 0
M  V30 34 N -4.1511 3.2117 0.0 0
M  V30 35 C -5.4206 5.3317 0.0 0
M  V30 36 N -1.7137 7.6041 0.0 0
M  V30 37 C -5.5348 2.5516 0.0 0
M  V30 38 N -6.8043 4.6716 0.0 0
M  V30 39 C -6.9439 3.364 0.0 0
M  V30 40 N -1.2186 4.3669 0.0 0
M  V30 41 C -2.6277 5.1794 0.0 0
M  V30 42 C -0.1396 5.1794 0.0 0
M  V30 43 C -4.0115 4.5193 0.0 0
M  V30 44 C -2.7928 6.7916 0.0 0
M  V30 45 C -0.3046 6.7916 0.0 0
M  V30 46 N -4.1511 3.2117 0.0 0
M  V30 47 C -5.4206 5.3317 0.0 0
M  V30 48 N -1.7137 7.6041 0.0 0
M  V30 49 C -5.5348 2.5516 0.0 0
M  V30 50 N -6.8043 4.6716 0.0 0
M  V30 51 C -6.9439 3.364 0.0 0
M  V30 END ATOM
M  V30 BEGIN BOND
M  V30 1 1 2 3
M  V30 2 1 2 4
M  V30 3 1 2 5
M  V30 4 1 2 6
M  V30 5 1 2 7
M  V30 6 1 2 8
M  V30 7 1 9 10
M  V30 8 1 9 11
M  V30 9 1 9 12
M  V30 10 1 9 13
M  V30 11 1 9 14
M  V30 12 1 9 15
M  V30 13 2 16 17
M  V30 14 1 16 18
M  V30 15 1 17 19
M  V30 16 1 17 20
M  V30 17 2 18 21
M  V30 18 2 19 22
M  V30 19 1 19 23
M  V30 20 2 20 24
M  V30 21 1 22 25
M  V30 22 2 23 26
M  V30 23 2 25 27
M  V30 24 2 28 29
M  V30 25 1 28 30
M  V30 26 1 29 31
M  V30 27 1 29 32
M  V30 28 2 30 33
M  V30 29 2 31 34
M  V30 30 1 31 35
M  V30 31 2 32 36
M  V30 32 1 34 37
M  V30 33 2 35 38
M  V30 34 2 37 39
M  V30 35 2 40 41
M  V30 36 1 40 42
M  V30 37 1 41 43
M  V30 38 1 41 44
M  V30 39 2 42 45
M  V30 40 2 43 46
M  V30 41 1 43 47
M  V30 42 2 44 48
M  V30 43 1 46 49
M  V30 44 2 47 50
M  V30 45 2 49 51
M  V30 46 1 21 24
M  V30 47 1 26 27
M  V30 48 1 33 36
M  V30 49 1 38 39
M  V30 50 1 45 48
M  V30 51 1 50 51
M  V30 END BOND
M  V30 END CTAB
M  END
>  <CAS_NUMBER>
80907-56-8

>  <MOL_NAME>
tris(2,2'-bipyrazine)ruthenium (II) hexafluorophosphate

>  <Role>
Photocatalyst

$$$$
29046-78-4
OCL MolfileCreator  2D

  0  0  0  0  0  0              0 V3000
M  V30 BEGIN CTAB
M  V30 COUNTS 9 5 0 0 0
M  V30 BEGIN ATOM
M  V30 1 Ni 0.0 0.0 0.0 0 CHG=2
M  V30 2 Cl 0.4786 1.34 0.0 0 CHG=-1
M  V30 3 Cl 0.4786 1.34 0.0 0 CHG=-1
M  V30 4 O -1.1486 -0.4786 0.0 0
M  V30 5 C -2.6682 -0.8255 0.0 0
M  V30 6 C -0.1435 -1.1845 0.0 0
M  V30 7 C -3.6015 0.4666 0.0 0
M  V30 8 O -2.8955 1.7588 0.0 0
M  V30 9 C -3.5297 3.2784 0.0 0
M  V30 END ATOM
M  V30 BEGIN BOND
M  V30 1 1 4 5
M  V30 2 1 4 6
M  V30 3 1 5 7
M  V30 4 1 7 8
M  V30 5 1 8 9
M  V30 END BOND
M  V30 END CTAB
M  END
>  <CAS_NUMBER>
29046-78-4

>  <MOL_NAME>
nickel(II) chloride ethylene glycol dimethyl ether complex

>  <Role>
Nickel catalyst

$$$$
676525-77-2
OCL MolfileCreator  2D

  0  0  0  0  0  0              0 V3000
M  V30 BEGIN CTAB
M  V30 COUNTS 52 55 0 0 0
M  V30 BEGIN ATOM
M  V30 1 Ir 0.0 0.0 0.0 0
M  V30 2 C -2.6731 1.5365 0.0 0
M  V30 3 C -2.631 -1.1366 0.0 0
M  V30 4 C -2.9257 3.094 0.0 0
M  V30 5 C -4.0202 1.0103 0.0 0
M  V30 6 C -2.8625 -2.3363 0.0 0
M  V30 7 C -3.9991 -0.1262 0.0 0
M  V30 8 C -1.8312 4.1254 0.0 0
M  V30 9 C -4.2728 4.1254 0.0 0
M  V30 10 C -5.3673 2.0416 0.0 0
M  V30 11 C -1.768 -2.8415 0.0 0
M  V30 12 C -4.2096 -2.8836 0.0 0
M  V30 13 C -5.3462 -0.6735 0.0 0
M  V30 14 N -0.7366 3.5992 0.0 0
M  V30 15 C -2.0837 5.683 0.0 0
M  V30 16 C -5.6198 3.5992 0.0 0
M  V30 17 N -0.6735 -1.7891 0.0 0
M  V30 18 C -1.9995 -4.0412 0.0 0
M  V30 19 C -5.5777 -1.8732 0.0 0
M  V30 20 C 0.3578 4.6306 0.0 0
M  V30 21 C -0.9892 6.7144 0.0 0
M  V30 22 C 0.442 -2.2942 0.0 0
M  V30 23 C -0.905 -4.5464 0.0 0
M  V30 24 C 0.1052 6.1881 0.0 0
M  V30 25 C 0.2104 -3.494 0.0 0
M  V30 26 P 9.4296 5.2199 0.0 0 CHG=-1
M  V30 27 F 10.5241 4.6937 0.0 0
M  V30 28 F 10.5241 6.2513 0.0 0
M  V30 29 F 9.177 6.7775 0.0 0
M  V30 30 F 8.0825 6.2513 0.0 0
M  V30 31 F 8.0825 4.6937 0.0 0
M  V30 32 F 9.177 4.0202 0.0 0
M  V30 33 N 0.5051 0.6735 0.0 0
M  V30 34 C 1.5996 1.7259 0.0 0
M  V30 35 C 0.2736 -0.5262 0.0 0
M  V30 36 C 1.326 3.2835 0.0 0
M  V30 37 C 2.6941 1.2208 0.0 0
M  V30 38 C 1.3681 -1.0313 0.0 0
M  V30 39 N -0.042 4.2938 0.0 0
M  V30 40 C 2.4205 4.3359 0.0 0
M  V30 41 C 2.4626 0.021 0.0 0
M  V30 42 C -0.3157 5.8514 0.0 0
M  V30 43 C 2.1469 5.8935 0.0 0
M  V30 44 C 3.5782 -0.4841 0.0 0
M  V30 45 C 0.7787 6.9038 0.0 0
M  V30 46 C 3.2414 6.9459 0.0 0
M  V30 47 C 4.6727 0.5683 0.0 0
M  V30 48 C 3.3466 -1.6838 0.0 0
M  V30 49 C 3.3045 1.0734 0.0 0
M  V30 50 C 2.9678 8.5035 0.0 0
M  V30 51 C 4.3569 6.4407 0.0 0
M  V30 52 C 4.3359 7.9983 0.0 0
M  V30 END ATOM
M  V30 BEGIN BOND
M  V30 1 1 1 2
M  V30 2 1 1 3
M  V30 3 2 2 4
M  V30 4 1 2 5
M  V30 5 2 3 6
M  V30 6 1 3 7
M  V30 7 1 4 8
M  V30 8 1 4 9
M  V30 9 2 5 10
M  V30 10 1 6 11
M  V30 11 1 6 12
M  V30 12 2 7 13
M  V30 13 2 8 14
M  V30 14 1 8 15
M  V30 15 2 9 16
M  V30 16 2 11 17
M  V30 17 1 11 18
M  V30 18 2 12 19
M  V30 19 1 14 20
M  V30 20 2 15 21
M  V30 21 1 17 22
M  V30 22 2 18 23
M  V30 23 2 20 24
M  V30 24 2 22 25
M  V30 25 1 26 27
M  V30 26 1 26 28
M  V30 27 1 26 29
M  V30 28 1 26 30
M  V30 29 1 26 31
M  V30 30 1 26 32
M  V30 31 2 33 34
M  V30 32 1 33 35
M  V30 33 1 34 36
M  V30 34 1 34 37
M  V30 35 2 35 38
M  V30 36 2 36 39
M  V30 37 1 36 40
M  V30 38 2 37 41
M  V30 39 1 39 42
M  V30 40 2 40 43
M  V30 41 1 41 44
M  V30 42 2 42 45
M  V30 43 1 43 46
M  V30 44 1 44 47
M  V30 45 1 44 48
M  V30 46 1 44 49
M  V30 47 1 46 50
M  V30 48 1 46 51
M  V30 49 1 46 52
M  V30 50 1 10 16
M  V30 51 1 13 19
M  V30 52 1 21 24
M  V30 53 1 23 25
M  V30 54 1 38 41
M  V30 55 1 43 45
M  V30 END BOND
M  V30 END CTAB
M  END
>  <CAS_NUMBER>
676525-77-2

>  <MOL_NAME>
(4,4'-di-t-butyl-2,2'-bipyridine)bis[2-(2-pyridinyl-kN)phenyl-kC]iridium(III) hexafluorophosphate

>  <Role>
Photocatalyst

$$$$
1445085-55-1
OCL MolfileCreator  2D

  0  0  0  0  0  0              0 V3000
M  V30 BEGIN CTAB
M  V30 COUNTS 53 56 0 0 0
M  V30 BEGIN ATOM
M  V30 1 Pd 0.0 0.0 0.0 0 CHG=1
M  V30 2 C -0.1589 1.6473 0.0 0
M  V30 3 C -0.9971 3.1069 0.0 0
M  V30 4 C 1.1705 1.8063 0.0 0
M  V30 5 C -2.6444 3.2514 0.0 0
M  V30 6 C -0.4768 4.5664 0.0 0
M  V30 7 C 1.6618 3.2658 0.0 0
M  V30 8 C -3.4826 2.0953 0.0 0
M  V30 9 C -3.4826 4.682 0.0 0
M  V30 10 C 0.8525 4.7253 0.0 0
M  V30 11 N -3.6415 0.7658 0.0 0
M  V30 12 C -5.13 2.2543 0.0 0
M  V30 13 C -5.13 4.8699 0.0 0
M  V30 14 C -5.9681 3.7282 0.0 0
M  V30 15 S 0.6936 0.1156 0.0 0
M  V30 16 O -0.7803 -0.3901 0.0 0
M  V30 17 O 1.8352 0.9248 0.0 0
M  V30 18 O -0.13 1.5751 0.0 0 CHG=-1
M  V30 19 C 1.1849 -1.0404 0.0 0
M  V30 20 P -2.3121 -3.9306 0.0 0
M  V30 21 C -3.6849 -5.7658 0.0 0
M  V30 22 C -3.1358 -2.471 0.0 0
M  V30 23 C -0.9826 -3.7716 0.0 0
M  V30 24 C -3.1791 -6.9074 0.0 0
M  V30 25 C -5.3323 -5.6068 0.0 0
M  V30 26 C -2.6444 -0.9971 0.0 0
M  V30 27 C -4.7398 -2.2976 0.0 0
M  V30 28 C -0.4913 -4.9277 0.0 0
M  V30 29 C -0.4913 -2.2976 0.0 0
M  V30 30 C -1.8496 -6.7485 0.0 0
M  V30 31 C -4.0028 -8.049 0.0 0
M  V30 32 C -6.156 -6.7485 0.0 0
M  V30 33 C -3.4392 0.4913 0.0 0
M  V30 34 C -5.5346 -0.8092 0.0 0
M  V30 35 C 0.8381 -4.7687 0.0 0
M  V30 36 C 0.8381 -2.1387 0.0 0
M  V30 37 C -1.3439 -7.8901 0.0 0
M  V30 38 C -1.3439 -5.2889 0.0 0
M  V30 39 C -5.6502 -7.8901 0.0 0
M  V30 40 C -5.0433 0.6647 0.0 0
M  V30 41 C 1.3439 -3.2947 0.0 0
M  V30 42 C -0.0144 -7.7311 0.0 0
M  V30 43 C -2.1676 -9.0317 0.0 0
M  V30 44 C -0.0144 -5.13 0.0 0
M  V30 45 C -1.9508 -3.7282 0.0 0
M  V30 46 C 0.4913 -6.2716 0.0 0
M  V30 47 C -1.6618 -10.1733 0.0 0
M  V30 48 C -3.8149 -8.8727 0.0 0
M  V30 49 C -3.5693 -3.3381 0.0 0
M  V30 50 C -1.2572 -2.3988 0.0 0
M  V30 51 C 1.8207 -6.1126 0.0 0
M  V30 52 C 2.3265 -4.6531 0.0 0
M  V30 53 C 2.3265 -7.2542 0.0 0
M  V30 END ATOM
M  V30 BEGIN BOND
M  V30 1 1 1 2
M  V30 2 2 2 3
M  V30 3 1 2 4
M  V30 4 1 3 5
M  V30 5 1 3 6
M  V30 6 2 4 7
M  V30 7 2 5 8
M  V30 8 1 5 9
M  V30 9 2 6 10
M  V30 10 1 8 11
M  V30 11 1 8 12
M  V30 12 2 9 13
M  V30 13 2 12 14
M  V30 14 2 15 16
M  V30 15 2 15 17
M  V30 16 1 15 18
M  V30 17 1 15 19
M  V30 18 1 20 21
M  V30 19 1 20 22
M  V30 20 1 20 23
M  V30 21 2 21 24
M  V30 22 1 21 25
M  V30 23 1 22 26
M  V30 24 1 22 27
M  V30 25 1 23 28
M  V30 26 1 23 29
M  V30 27 1 24 30
M  V30 28 1 24 31
M  V30 29 2 25 32
M  V30 30 1 26 33
M  V30 31 1 27 34
M  V30 32 1 28 35
M  V30 33 1 29 36
M  V30 34 2 30 37
M  V30 35 1 30 38
M  V30 36 2 31 39
M  V30 37 1 33 40
M  V30 38 1 35 41
M  V30 39 1 37 42
M  V30 40 1 37 43
M  V30 41 2 38 44
M  V30 42 1 38 45
M  V30 43 2 42 46
M  V30 44 1 43 47
M  V30 45 1 43 48
M  V30 46 1 45 49
M  V30 47 1 45 50
M  V30 48 1 46 51
M  V30 49 1 51 52
M  V30 50 1 51 53
M  V30 51 1 7 10
M  V30 52 1 13 14
M  V30 53 1 32 39
M  V30 54 1 34 40
M  V30 55 1 36 41
M  V30 56 1 44 46
M  V30 END BOND
M  V30 END CTAB
M  END
>  <CAS_NUMBER>
1445085-55-1

>  <MOL_NAME>
(2-dicyclohexylphosphino-2',4',6'-triisopropyl-1,1'-biphenyl)[2-(2'-amino-1,1'-biphenyl)]palladium(II) methanesulfonate (XPhos-Pd-G3)

>  <Role>
Pd catalyst

$$$$
6674-22-2
OCL MolfileCreator  2D

  0  0  0  0  0  0              0 V3000
M  V30 BEGIN CTAB
M  V30 COUNTS 11 12 0 0 0
M  V30 BEGIN ATOM
M  V30 1 N 0.0 0.0 0.0 0
M  V30 2 C -1.4505 -0.6674 0.0 0
M  V30 3 C 1.1424 -0.6674 0.0 0
M  V30 4 N -1.6045 -2.0153 0.0 0
M  V30 5 C -2.7726 0.385 0.0 0
M  V30 6 C 0.9884 -2.0153 0.0 0
M  V30 7 C -2.9266 -2.7983 0.0 0
M  V30 8 C -0.4621 -2.6828 0.0 0
M  V30 9 C -4.4028 0.1668 0.0 0
M  V30 10 C -4.5569 -2.272 0.0 0
M  V30 11 C -5.2244 -1.014 0.0 0
M  V30 END ATOM
M  V30 BEGIN BOND
M  V30 1 2 1 2
M  V30 2 1 1 3
M  V30 3 1 2 4
M  V30 4 1 2 5
M  V30 5 1 3 6
M  V30 6 1 4 7
M  V30 7 1 4 8
M  V30 8 1 5 9
M  V30 9 1 7 10
M  V30 10 1 9 11
M  V30 11 1 6 8
M  V30 12 1 10 11
M  V30 END BOND
M  V30 END CTAB
M  END
>  <CAS_NUMBER>
6674-22-2

>  <MOL_NAME>
1,8-diazabicyclo[5,4,0]undec-7-ene (DBU)

>  <Role>
Base

$$$$
1416881-52-1
OCL MolfileCreator  2D

  0  0  0  0  0  0              0 V3000
M  V30 BEGIN CTAB
M  V30 COUNTS 62 74 0 0 0
M  V30 BEGIN ATOM
M  V30 1 N 0.0 0.0 0.0 0
M  V30 2 C 1.0452 -0.5226 0.0 0
M  V30 3 C 2.0904 -1.0452 0.0 0
M  V30 4 C 1.9162 -2.4388 0.0 0
M  V30 5 C 3.1357 -0.1742 0.0 0
M  V30 6 N -0.4258 -2.5743 0.0 0
M  V30 7 C 2.9615 -2.9615 0.0 0
M  V30 8 N 2.9615 1.5678 0.0 0
M  V30 9 C 4.1809 -0.6968 0.0 0
M  V30 10 C -0.9871 -3.9099 0.0 0
M  V30 11 C -1.8775 -1.6259 0.0 0
M  V30 12 N 2.7873 -5.4197 0.0 0
M  V30 13 C 4.0067 -2.0904 0.0 0
M  V30 14 C 3.9099 2.555 0.0 0
M  V30 15 C 1.5872 2.555 0.0 0
M  V30 16 C 5.2068 0.1742 0.0 0
M  V30 17 C -2.7292 -3.7938 0.0 0
M  V30 18 C -0.4258 -4.9164 0.0 0
M  V30 19 C -3.2131 -2.3033 0.0 0
M  V30 20 C -2.2453 0.1161 0.0 0
M  V30 21 C 3.7357 -6.0585 0.0 0
M  V30 22 C 1.3936 -6.0585 0.0 0
M  V30 23 N 6.0004 -2.2259 0.0 0
M  V30 24 C 3.3099 4.239 0.0 0
M  V30 25 C 5.2842 2.4388 0.0 0
M  V30 26 C 1.8388 4.239 0.0 0
M  V30 27 C -0.1354 2.4388 0.0 0
M  V30 28 N 6.2327 1.0452 0.0 0
M  V30 29 C -3.5615 -4.8584 0.0 0
M  V30 30 C -1.2581 -5.981 0.0 0
M  V30 31 C -4.8584 -1.6065 0.0 0
M  V30 32 C -3.8906 0.8129 0.0 0
M  V30 33 C 3.1357 -7.3941 0.0 0
M  V30 34 C 5.11 -5.5939 0.0 0
M  V30 35 C 1.6452 -7.3941 0.0 0
M  V30 36 C -0.329 -5.5939 0.0 0
M  V30 37 C 6.9876 -1.2775 0.0 0
M  V30 38 C 6.2133 -3.5615 0.0 0
M  V30 39 C 4.0648 5.4778 0.0 0
M  V30 40 C 6.0391 3.6776 0.0 0
M  V30 41 C 0.7355 5.4778 0.0 0
M  V30 42 C -1.2388 3.6776 0.0 0
M  V30 43 C -3.0002 -5.8649 0.0 0
M  V30 44 C -5.2261 0.1354 0.0 0
M  V30 45 C 3.8906 -8.2651 0.0 0
M  V30 46 C 5.8649 -6.465 0.0 0
M  V30 47 C 0.5419 -8.2651 0.0 0
M  V30 48 C -1.4323 -6.465 0.0 0
M  V30 49 C 7.9167 -1.9549 0.0 0
M  V30 50 C 7.0069 0.4645 0.0 0
M  V30 51 C 7.607 -3.4454 0.0 0
M  V30 52 C 5.3036 -4.568 0.0 0
M  V30 53 C 5.4391 5.3616 0.0 0
M  V30 54 C -0.9871 5.3616 0.0 0
M  V30 55 C 5.2649 -7.8005 0.0 0
M  V30 56 C -1.1807 -7.8005 0.0 0
M  V30 57 C 9.2135 -1.2581 0.0 0
M  V30 58 C 8.3038 1.1613 0.0 0
M  V30 59 C 8.0909 -4.51 0.0 0
M  V30 60 C 5.7875 -5.6326 0.0 0
M  V30 61 C 9.2329 0.4839 0.0 0
M  V30 62 C 7.1811 -5.5165 0.0 0
M  V30 END ATOM
M  V30 BEGIN BOND
M  V30 1 3 1 2
M  V30 2 1 2 3
M  V30 3 2 3 4
M  V30 4 1 3 5
M  V30 5 1 4 6
M  V30 6 1 4 7
M  V30 7 1 5 8
M  V30 8 2 5 9
M  V30 9 1 6 10
M  V30 10 1 6 11
M  V30 11 1 7 12
M  V30 12 2 7 13
M  V30 13 1 8 14
M  V30 14 1 8 15
M  V30 15 1 9 16
M  V30 16 2 10 17
M  V30 17 1 10 18
M  V30 18 2 11 19
M  V30 19 1 11 20
M  V30 20 1 12 21
M  V30 21 1 12 22
M  V30 22 1 13 23
M  V30 23 2 14 24
M  V30 24 1 14 25
M  V30 25 2 15 26
M  V30 26 1 15 27
M  V30 27 3 16 28
M  V30 28 1 17 29
M  V30 29 2 18 30
M  V30 30 1 19 31
M  V30 31 2 20 32
M  V30 32 2 21 33
M  V30 33 1 21 34
M  V30 34 2 22 35
M  V30 35 1 22 36
M  V30 36 1 23 37
M  V30 37 1 23 38
M  V30 38 1 24 39
M  V30 39 2 25 40
M  V30 40 1 26 41
M  V30 41 2 27 42
M  V30 42 2 29 43
M  V30 43 2 31 44
M  V30 44 1 33 45
M  V30 45 2 34 46
M  V30 46 1 35 47
M  V30 47 2 36 48
M  V30 48 2 37 49
M  V30 49 1 37 50
M  V30 50 2 38 51
M  V30 51 1 38 52
M  V30 52 2 39 53
M  V30 53 2 41 54
M  V30 54 2 45 55
M  V30 55 2 47 56
M  V30 56 1 49 57
M  V30 57 2 50 58
M  V30 58 1 51 59
M  V30 59 2 52 60
M  V30 60 2 57 61
M  V30 61 2 59 62
M  V30 62 1 9 13
M  V30 63 1 17 19
M  V30 64 1 24 26
M  V30 65 1 30 43
M  V30 66 1 32 44
M  V30 67 1 33 35
M  V30 68 1 40 53
M  V30 69 1 42 54
M  V30 70 1 46 55
M  V30 71 1 48 56
M  V30 72 1 49 51
M  V30 73 1 58 61
M  V30 74 1 60 62
M  V30 END BOND
M  V30 END CTAB
M  END
>  <CAS_NUMBER>
1416881-52-1

>  <MOL_NAME>
2,4,5,6-tetra(9H-carbazol-9-yl)isophthalonitrile (447EDL584 + 447EDL624 - P779)

>  <Role>
Photocatalyst

$$$$
1445085-97-1
OCL MolfileCreator  2D

  0  0  0  0  0  0              0 V3000
M  V30 BEGIN CTAB
M  V30 COUNTS 61 68 0 0 0
M  V30 BEGIN ATOM
M  V30 1 Pd 0.0 0.0 0.0 0
M  V30 2 O 1.1639 0.797 0.0 0
M  V30 3 C -0.1138 -1.379 0.0 0
M  V30 4 S 1.05 2.4037 0.0 0
M  V30 5 C -1.5055 -2.0748 0.0 0
M  V30 6 C 1.05 -2.0748 0.0 0
M  V30 7 O -0.5566 2.5176 0.0 0
M  V30 8 O 2.429 2.5176 0.0 0
M  V30 9 C 0.9362 4.0105 0.0 0
M  V30 10 C -2.8971 -1.2651 0.0 0
M  V30 11 C -1.6193 -3.4538 0.0 0
M  V30 12 C 0.9362 -3.4538 0.0 0
M  V30 13 C -3.011 0.3415 0.0 0
M  V30 14 C -4.2888 -1.9609 0.0 0
M  V30 15 C -0.4554 -4.1496 0.0 0
M  V30 16 N -1.8471 1.1386 0.0 0
M  V30 17 C -4.4027 1.1386 0.0 0
M  V30 18 C -5.6804 -1.1512 0.0 0
M  V30 19 C -5.7943 0.4428 0.0 0
M  V30 20 P 0.8096 6.3763 0.0 0
M  V30 21 C 0.6958 7.983 0.0 0
M  V30 22 C 1.9736 5.6931 0.0 0
M  V30 23 C -0.5819 5.6931 0.0 0
M  V30 24 C -0.6958 8.7927 0.0 0
M  V30 25 C 1.8597 8.7927 0.0 0
M  V30 26 C 1.8597 4.3141 0.0 0
M  V30 27 C 3.1375 6.5028 0.0 0
M  V30 28 C -1.9736 6.5028 0.0 0
M  V30 29 C -0.6958 4.3141 0.0 0
M  V30 30 O -2.0874 8.1095 0.0 0
M  V30 31 C -0.8096 10.3994 0.0 0
M  V30 32 C 1.7458 10.3994 0.0 0
M  V30 33 C 3.0236 3.6309 0.0 0
M  V30 34 C 4.3014 5.8196 0.0 0
M  V30 35 C -3.3652 5.8196 0.0 0
M  V30 36 C -2.0874 3.6309 0.0 0
M  V30 37 C -3.4791 8.9066 0.0 0
M  V30 38 C 0.3542 11.2091 0.0 0
M  V30 39 C -2.2013 11.2091 0.0 0
M  V30 40 C 4.1876 4.4406 0.0 0
M  V30 41 C -3.4791 4.4406 0.0 0
M  V30 42 C -4.8708 8.2234 0.0 0
M  V30 43 C -3.593 10.5133 0.0 0
M  V30 44 C -3.011 12.6008 0.0 0
M  V30 45 C -1.5181 12.6008 0.0 0
M  V30 46 P -4.9846 6.8444 0.0 0
M  V30 47 C -6.2624 9.0331 0.0 0
M  V30 48 C -4.9846 11.323 0.0 0
M  V30 49 C -3.8207 6.1612 0.0 0
M  V30 50 C -6.3763 6.1612 0.0 0
M  V30 51 C -6.3763 10.6398 0.0 0
M  V30 52 C -3.9345 4.7822 0.0 0
M  V30 53 C -2.6568 6.9582 0.0 0
M  V30 54 C -7.7679 6.9582 0.0 0
M  V30 55 C -6.4901 4.7822 0.0 0
M  V30 56 C -2.7706 4.099 0.0 0
M  V30 57 C -1.4928 6.2751 0.0 0
M  V30 58 C -9.1596 6.2751 0.0 0
M  V30 59 C -7.8818 4.099 0.0 0
M  V30 60 C -1.6067 4.9087 0.0 0
M  V30 61 C -9.2735 4.8961 0.0 0
M  V30 END ATOM
M  V30 BEGIN BOND
M  V30 1 1 1 2
M  V30 2 1 1 3
M  V30 3 1 2 4
M  V30 4 2 3 5
M  V30 5 1 3 6
M  V30 6 2 4 7
M  V30 7 2 4 8
M  V30 8 1 4 9
M  V30 9 1 5 10
M  V30 10 1 5 11
M  V30 11 2 6 12
M  V30 12 2 10 13
M  V30 13 1 10 14
M  V30 14 2 11 15
M  V30 15 1 13 16
M  V30 16 1 13 17
M  V30 17 2 14 18
M  V30 18 2 17 19
M  V30 19 1 20 21
M  V30 20 1 20 22
M  V30 21 1 20 23
M  V30 22 2 21 24
M  V30 23 1 21 25
M  V30 24 2 22 26
M  V30 25 1 22 27
M  V30 26 2 23 28
M  V30 27 1 23 29
M  V30 28 1 24 30
M  V30 29 1 24 31
M  V30 30 2 25 32
M  V30 31 1 26 33
M  V30 32 2 27 34
M  V30 33 1 28 35
M  V30 34 2 29 36
M  V30 35 1 30 37
M  V30 36 2 31 38
M  V30 37 1 31 39
M  V30 38 2 33 40
M  V30 39 2 35 41
M  V30 40 2 37 42
M  V30 41 1 37 43
M  V30 42 1 39 44
M  V30 43 1 39 45
M  V30 44 1 42 46
M  V30 45 1 42 47
M  V30 46 2 43 48
M  V30 47 1 46 49
M  V30 48 1 46 50
M  V30 49 2 47 51
M  V30 50 2 49 52
M  V30 51 1 49 53
M  V30 52 2 50 54
M  V30 53 1 50 55
M  V30 54 1 52 56
M  V30 55 2 53 57
M  V30 56 1 54 58
M  V30 57 2 55 59
M  V30 58 2 56 60
M  V30 59 2 58 61
M  V30 60 1 12 15
M  V30 61 1 18 19
M  V30 62 1 32 38
M  V30 63 1 34 40
M  V30 64 1 36 41
M  V30 65 1 39 43
M  V30 66 1 48 51
M  V30 67 1 57 60
M  V30 68 1 59 61
M  V30 END BOND
M  V30 END CTAB
M  END
>  <CAS_NUMBER>
1445085-97-1

>  <MOL_NAME>
XantPhos Pd G3

>  <Role>
Pd catalyst

$$$$
3375-31-3
OCL MolfileCreator  2D

  0  0  0  0  0  0              0 V3000
M  V30 BEGIN CTAB
M  V30 COUNTS 9 6 0 0 0
M  V30 BEGIN ATOM
M  V30 1 Pd 0.0 0.0 0.0 0 CHG=2
M  V30 2 O -2.7098 4.6971 0.0 0
M  V30 3 C -1.7049 3.5792 0.0 0
M  V30 4 O -2.2695 2.2243 0.0 0 CHG=-1
M  V30 5 C -0.2709 4.1099 0.0 0
M  V30 6 O -2.7098 4.6971 0.0 0
M  V30 7 C -1.7049 3.5792 0.0 0
M  V30 8 O -2.2695 2.2243 0.0 0 CHG=-1
M  V30 9 C -0.2709 4.1099 0.0 0
M  V30 END ATOM
M  V30 BEGIN BOND
M  V30 1 2 2 3
M  V30 2 1 3 4
M  V30 3 1 3 5
M  V30 4 2 6 7
M  V30 5 1 7 8
M  V30 6 1 7 9
M  V30 END BOND
M  V30 END CTAB
M  END
>  <CAS_NUMBER>
3375-31-3

>  <MOL_NAME>
palladium acetate

>  <Role>
Pd catalyst

$$$$
80-70-6
OCL MolfileCreator  2D

  0  0  0  0  0  0              0 V3000
M  V30 BEGIN CTAB
M  V30 COUNTS 8 7 0 0 0
M  V30 BEGIN ATOM
M  V30 1 N 0.0 0.0 0.0 0
M  V30 2 C 1.2032 -0.733 0.0 0
M  V30 3 N 2.4064 0.1383 0.0 0
M  V30 4 N 1.0372 -2.1575 0.0 0
M  V30 5 C 2.2128 1.8947 0.0 0
M  V30 6 C 3.6097 -0.5947 0.0 0
M  V30 7 C -0.4702 -2.849 0.0 0
M  V30 8 C 2.2128 -2.7937 0.0 0
M  V30 END ATOM
M  V30 BEGIN BOND
M  V30 1 2 1 2
M  V30 2 1 2 3
M  V30 3 1 2 4
M  V30 4 1 3 5
M  V30 5 1 3 6
M  V30 6 1 4 7
M  V30 7 1 4 8
M  V30 END BOND
M  V30 END CTAB
M  END
>  <CAS_NUMBER>
80-70-6

>  <MOL_NAME>
1,1,3,3-tetramethyleguanidine

>  <Role>
Base

$$$$
4039-32-1
OCL MolfileCreator  2D

  0  0  0  0  0  0              0 V3000
M  V30 BEGIN CTAB
M  V30 COUNTS 10 8 0 0 0
M  V30 BEGIN ATOM
M  V30 1 Si 0.0 0.0 0.0 0
M  V30 2 N 1.221 0.951 0.0 0 CHG=-1
M  V30 3 C -0.1408 -1.4089 0.0 0
M  V30 4 C -1.4911 -0.6105 0.0 0
M  V30 5 C -1.4911 0.9392 0.0 0
M  V30 6 Si 2.4304 0.3639 0.0 0
M  V30 7 C 3.6397 -0.2465 0.0 0
M  V30 8 C 2.2895 -1.0449 0.0 0
M  V30 9 C 3.6514 1.315 0.0 0
M  V30 10 Li 0.0939 3.4753 0.0 0 CHG=1
M  V30 END ATOM
M  V30 BEGIN BOND
M  V30 1 1 1 2
M  V30 2 1 1 3
M  V30 3 1 1 4
M  V30 4 1 1 5
M  V30 5 1 2 6
M  V30 6 1 6 7
M  V30 7 1 6 8
M  V30 8 1 6 9
M  V30 END BOND
M  V30 END CTAB
M  END
>  <CAS_NUMBER>
4039-32-1

>  <MOL_NAME>
lithium bis(trimethylsilyl)amide (1M in THF) (LiHMDS)

>  <Role>
Base

$$$$
865-48-5
OCL MolfileCreator  2D

  0  0  0  0  0  0              0 V3000
M  V30 BEGIN CTAB
M  V30 COUNTS 6 4 0 0 0
M  V30 BEGIN ATOM
M  V30 1 Na 0.0 0.0 0.0 0 CHG=1
M  V30 2 O -2.4841 0.736 0.0 0 CHG=-1
M  V30 3 C -2.6221 -0.644 0.0 0
M  V30 4 C -2.7601 -2.0241 0.0 0
M  V30 5 C -1.4375 0.276 0.0 0
M  V30 6 C -4.0827 0.276 0.0 0
M  V30 END ATOM
M  V30 BEGIN BOND
M  V30 1 1 2 3
M  V30 2 1 3 4
M  V30 3 1 3 5
M  V30 4 1 3 6
M  V30 END BOND
M  V30 END CTAB
M  END
>  <CAS_NUMBER>
865-48-5

>  <MOL_NAME>
sodium tert-butoxide

>  <Role>
Base

$$$$
108-48-5
OCL MolfileCreator  2D

  0  0  0  0  0  0              0 V3000
M  V30 BEGIN CTAB
M  V30 COUNTS 8 8 0 0 0
M  V30 BEGIN ATOM
M  V30 1 N 0.0 0.0 0.0 0
M  V30 2 C -1.419 0.8201 0.0 0
M  V30 3 C 1.1065 0.8201 0.0 0
M  V30 4 C -1.5752 2.4735 0.0 0
M  V30 5 C -2.7208 0.2864 0.0 0
M  V30 6 C 0.9503 2.4735 0.0 0
M  V30 7 C 2.109 0.1171 0.0 0
M  V30 8 C -0.4686 3.3067 0.0 0
M  V30 END ATOM
M  V30 BEGIN BOND
M  V30 1 2 1 2
M  V30 2 1 1 3
M  V30 3 1 2 4
M  V30 4 1 2 5
M  V30 5 2 3 6
M  V30 6 1 3 7
M  V30 7 2 4 8
M  V30 8 1 6 8
M  V30 END BOND
M  V30 END CTAB
M  END
>  <CAS_NUMBER>
108-48-5

>  <MOL_NAME>
2,6-dimethylpyridine

>  <Role>
Base

$$$$
166330-10-5
OCL MolfileCreator  2D

  0  0  0  0  0  0              0 V3000
M  V30 BEGIN CTAB
M  V30 COUNTS 39 44 0 0 0
M  V30 BEGIN ATOM
M  V30 1 P 0.0 0.0 0.0 0
M  V30 2 C -0.9167 1.3152 0.0 0
M  V30 3 C -0.7971 -1.1691 0.0 0
M  V30 4 C 1.3152 0.3188 0.0 0
M  V30 5 C -2.3383 2.1655 0.0 0
M  V30 6 C 0.1992 2.1655 0.0 0
M  V30 7 C -0.0664 -2.1788 0.0 0
M  V30 8 C -2.418 -1.2222 0.0 0
M  V30 9 C 1.8467 1.7537 0.0 0
M  V30 10 C 2.0725 -0.7174 0.0 0
M  V30 11 O -3.6668 1.5278 0.0 0
M  V30 12 C -2.4977 3.8528 0.0 0
M  V30 13 C 0.0398 3.8528 0.0 0
M  V30 14 C -0.8768 -3.348 0.0 0
M  V30 15 C -3.255 -2.3914 0.0 0
M  V30 16 C 3.162 2.0858 0.0 0
M  V30 17 C 3.3746 -0.3587 0.0 0
M  V30 18 C -5.1017 2.3781 0.0 0
M  V30 19 C -1.395 4.7031 0.0 0
M  V30 20 C -2.4578 -3.4144 0.0 0
M  V30 21 C 3.9193 1.1425 0.0 0
M  V30 22 C -6.5366 1.7005 0.0 0
M  V30 23 C -5.2611 4.0521 0.0 0
M  V30 24 P -7.5197 0.7572 0.0 0
M  V30 25 C -7.9715 2.5508 0.0 0
M  V30 26 C -6.696 4.9024 0.0 0
M  V30 27 C -7.1344 -0.4915 0.0 0
M  V30 28 C -9.1539 1.1691 0.0 0
M  V30 29 C -8.1309 4.2248 0.0 0
M  V30 30 C -8.1043 -1.5013 0.0 0
M  V30 31 C -5.8324 -0.558 0.0 0
M  V30 32 C -9.9909 2.6305 0.0 0
M  V30 33 C -10.2168 0.1727 0.0 0
M  V30 34 C -7.7057 -2.7235 0.0 0
M  V30 35 C -5.3674 -1.7935 0.0 0
M  V30 36 C -11.6383 3.069 0.0 0
M  V30 37 C -11.9041 0.5314 0.0 0
M  V30 38 C -6.417 -2.8165 0.0 0
M  V30 39 C -12.6879 2.0725 0.0 0
M  V30 END ATOM
M  V30 BEGIN BOND
M  V30 1 1 1 2
M  V30 2 1 1 3
M  V30 3 1 1 4
M  V30 4 2 2 5
M  V30 5 1 2 6
M  V30 6 2 3 7
M  V30 7 1 3 8
M  V30 8 2 4 9
M  V30 9 1 4 10
M  V30 10 1 5 11
M  V30 11 1 5 12
M  V30 12 2 6 13
M  V30 13 1 7 14
M  V30 14 2 8 15
M  V30 15 1 9 16
M  V30 16 2 10 17
M  V30 17 1 11 18
M  V30 18 2 12 19
M  V30 19 2 14 20
M  V30 20 2 16 21
M  V30 21 2 18 22
M  V30 22 1 18 23
M  V30 23 1 22 24
M  V30 24 1 22 25
M  V30 25 2 23 26
M  V30 26 1 24 27
M  V30 27 1 24 28
M  V30 28 2 25 29
M  V30 29 2 27 30
M  V30 30 1 27 31
M  V30 31 2 28 32
M  V30 32 1 28 33
M  V30 33 1 30 34
M  V30 34 2 31 35
M  V30 35 1 32 36
M  V30 36 2 33 37
M  V30 37 2 34 38
M  V30 38 2 36 39
M  V30 39 1 13 19
M  V30 40 1 15 20
M  V30 41 1 17 21
M  V30 42 1 26 29
M  V30 43 1 35 38
M  V30 44 1 37 39
M  V30 END BOND
M  V30 END CTAB
M  END
>  <CAS_NUMBER>
166330-10-5

>  <MOL_NAME>
(oxydi-2,1-phenylene)bis(diphenylphosphine) (DPEPhos)

>  <Role>
Ligand

$$$$
66-71-7
OCL MolfileCreator  2D

  0  0  0  0  0  0              0 V3000
M  V30 BEGIN CTAB
M  V30 COUNTS 14 16 0 0 0
M  V30 BEGIN ATOM
M  V30 1 N 0.0 0.0 0.0 0
M  V30 2 C -1.3673 0.7955 0.0 0
M  V30 3 C -0.1491 -1.2803 0.0 0
M  V30 4 C -1.5289 2.3742 0.0 0
M  V30 5 C -2.7223 0.1491 0.0 0
M  V30 6 C -1.5165 -1.9143 0.0 0
M  V30 7 N -0.4723 3.1822 0.0 0
M  V30 8 C -2.8963 3.1822 0.0 0
M  V30 9 C -4.0897 0.9447 0.0 0
M  V30 10 C -2.8715 -1.1312 0.0 0
M  V30 11 C -0.6339 4.7609 0.0 0
M  V30 12 C -4.2513 2.5358 0.0 0
M  V30 13 C -3.0579 4.7609 0.0 0
M  V30 14 C -2.0013 5.5565 0.0 0
M  V30 END ATOM
M  V30 BEGIN BOND
M  V30 1 1 1 2
M  V30 2 2 1 3
M  V30 3 1 2 4
M  V30 4 2 2 5
M  V30 5 1 3 6
M  V30 6 1 4 7
M  V30 7 2 4 8
M  V30 8 1 5 9
M  V30 9 1 5 10
M  V30 10 2 7 11
M  V30 11 1 8 12
M  V30 12 1 8 13
M  V30 13 1 11 14
M  V30 14 2 6 10
M  V30 15 2 9 12
M  V30 16 2 13 14
M  V30 END BOND
M  V30 END CTAB
M  END
>  <CAS_NUMBER>
66-71-7

>  <MOL_NAME>
1,10-phenantroline

>  <Role>
Ligand

$$$$
51364-51-3
OCL MolfileCreator  2D

  0  0  0  0  0  0              0 V3000
M  V30 BEGIN CTAB
M  V30 COUNTS 56 57 0 0 0
M  V30 BEGIN ATOM
M  V30 1 Pd 0.0 0.0 0.0 0
M  V30 2 Pd 1.8041 2.4055 0.0 0
M  V30 3 O -5.6529 15.275 0.0 0
M  V30 4 C -5.7882 13.8918 0.0 0
M  V30 5 C -7.2315 13.2002 0.0 0
M  V30 6 C -4.6155 13.2002 0.0 0
M  V30 7 C -8.6748 14.1474 0.0 0
M  V30 8 C -3.4428 14.1474 0.0 0
M  V30 9 C -10.1182 13.4558 0.0 0
M  V30 10 C -2.2702 13.4558 0.0 0
M  V30 11 C -11.5615 14.403 0.0 0
M  V30 12 C -10.2535 12.0726 0.0 0
M  V30 13 C -2.4055 12.0726 0.0 0
M  V30 14 C -1.0975 14.403 0.0 0
M  V30 15 C -13.0048 13.7114 0.0 0
M  V30 16 C -11.6968 11.3811 0.0 0
M  V30 17 C -1.2328 11.3811 0.0 0
M  V30 18 C 0.0751 13.7114 0.0 0
M  V30 19 C -13.1401 12.3282 0.0 0
M  V30 20 C -0.0601 12.3433 0.0 0
M  V30 21 O -12.3884 7.9382 0.0 0
M  V30 22 C -12.5237 6.555 0.0 0
M  V30 23 C -13.967 5.8634 0.0 0
M  V30 24 C -11.351 5.8634 0.0 0
M  V30 25 C -15.4103 6.8256 0.0 0
M  V30 26 C -10.1783 6.8256 0.0 0
M  V30 27 C -16.8536 6.134 0.0 0
M  V30 28 C -9.0056 6.134 0.0 0
M  V30 29 C -18.2969 7.0812 0.0 0
M  V30 30 C -16.9889 4.7508 0.0 0
M  V30 31 C -9.1409 4.7508 0.0 0
M  V30 32 C -7.8329 7.0812 0.0 0
M  V30 33 C -19.7402 6.3896 0.0 0
M  V30 34 C -18.4322 4.0593 0.0 0
M  V30 35 C -7.9682 4.0593 0.0 0
M  V30 36 C -6.6602 6.3896 0.0 0
M  V30 37 C -19.8755 5.0064 0.0 0
M  V30 38 C -6.7955 5.0064 0.0 0
M  V30 39 O 5.2921 9.0206 0.0 0
M  V30 40 C 5.1568 7.6375 0.0 0
M  V30 41 C 3.7135 6.9459 0.0 0
M  V30 42 C 6.3295 6.9459 0.0 0
M  V30 43 C 2.2702 7.8931 0.0 0
M  V30 44 C 7.5022 7.8931 0.0 0
M  V30 45 C 0.8268 7.2015 0.0 0
M  V30 46 C 8.6748 7.2015 0.0 0
M  V30 47 C -0.6164 8.1486 0.0 0
M  V30 48 C 0.6915 5.8183 0.0 0
M  V30 49 C 8.5395 5.8183 0.0 0
M  V30 50 C 9.8475 8.1486 0.0 0
M  V30 51 C -2.0597 7.4571 0.0 0
M  V30 52 C -0.7517 5.1267 0.0 0
M  V30 53 C 9.7122 5.1267 0.0 0
M  V30 54 C 11.0202 7.4571 0.0 0
M  V30 55 C -2.195 6.0739 0.0 0
M  V30 56 C 10.8849 6.0889 0.0 0
M  V30 END ATOM
M  V30 BEGIN BOND
M  V30 1 2 3 4
M  V30 2 1 4 5
M  V30 3 1 4 6
M  V30 4 2 5 7
M  V30 5 2 6 8
M  V30 6 1 7 9
M  V30 7 1 8 10
M  V30 8 2 9 11
M  V30 9 1 9 12
M  V30 10 2 10 13
M  V30 11 1 10 14
M  V30 12 1 11 15
M  V30 13 2 12 16
M  V30 14 1 13 17
M  V30 15 2 14 18
M  V30 16 2 15 19
M  V30 17 2 17 20
M  V30 18 2 21 22
M  V30 19 1 22 23
M  V30 20 1 22 24
M  V30 21 2 23 25
M  V30 22 2 24 26
M  V30 23 1 25 27
M  V30 24 1 26 28
M  V30 25 2 27 29
M  V30 26 1 27 30
M  V30 27 2 28 31
M  V30 28 1 28 32
M  V30 29 1 29 33
M  V30 30 2 30 34
M  V30 31 1 31 35
M  V30 32 2 32 36
M  V30 33 2 33 37
M  V30 34 2 35 38
M  V30 35 2 39 40
M  V30 36 1 40 41
M  V30 37 1 40 42
M  V30 38 2 41 43
M  V30 39 2 42 44
M  V30 40 1 43 45
M  V30 41 1 44 46
M  V30 42 2 45 47
M  V30 43 1 45 48
M  V30 44 2 46 49
M  V30 45 1 46 50
M  V30 46 1 47 51
M  V30 47 2 48 52
M  V30 48 1 49 53
M  V30 49 2 50 54
M  V30 50 2 51 55
M  V30 51 2 53 56
M  V30 52 1 16 19
M  V30 53 1 18 20
M  V30 54 1 34 37
M  V30 55 1 36 38
M  V30 56 1 52 55
M  V30 57 1 54 56
M  V30 END BOND
M  V30 END CTAB
M  END
>  <CAS_NUMBER>
51364-51-3

>  <MOL_NAME>
tris-(dibenzylideneacetone)dipalladium

>  <Role>
Pd catalyst

$$$$
7087-68-5
OCL MolfileCreator  2D

  0  0  0  0  0  0              0 V3000
M  V30 BEGIN CTAB
M  V30 COUNTS 9 8 0 0 0
M  V30 BEGIN ATOM
M  V30 1 N 0.0 0.0 0.0 0
M  V30 2 C 1.3 0.7564 0.0 0
M  V30 3 C -1.3 0.7445 0.0 0
M  V30 4 C 0.0 -1.501 0.0 0
M  V30 5 C 1.3 2.2574 0.0 0
M  V30 6 C 2.6001 0.0118 0.0 0
M  V30 7 C -2.6001 0.0 0.0 0
M  V30 8 C -1.3 2.2456 0.0 0
M  V30 9 C -1.3 -2.2456 0.0 0
M  V30 END ATOM
M  V30 BEGIN BOND
M  V30 1 1 1 2
M  V30 2 1 1 3
M  V30 3 1 1 4
M  V30 4 1 2 5
M  V30 5 1 2 6
M  V30 6 1 3 7
M  V30 7 1 3 8
M  V30 8 1 4 9
M  V30 END BOND
M  V30 END CTAB
M  END
>  <CAS_NUMBER>
7087-68-5

>  <MOL_NAME>
DIPEA

>  <Role>
Base

$$$$
7681-65-4
OCL MolfileCreator  2D

  0  0  0  0  0  0              0 V3000
M  V30 BEGIN CTAB
M  V30 COUNTS 2 1 0 0 0
M  V30 BEGIN ATOM
M  V30 1 I 0.0 0.0 0.0 0
M  V30 2 Cu -1.3004 -0.7475 0.0 0
M  V30 END ATOM
M  V30 BEGIN BOND
M  V30 1 1 1 2
M  V30 END BOND
M  V30 END CTAB
M  END
>  <CAS_NUMBER>
7681-65-4

>  <MOL_NAME>
iodocopper

>  <Role>
Cupper catalyst

$$$$
584-08-7
OCL MolfileCreator  2D

  0  0  0  0  0  0              0 V3000
M  V30 BEGIN CTAB
M  V30 COUNTS 6 3 0 0 0
M  V30 BEGIN ATOM
M  V30 1 K 0.0 0.0 0.0 0 CHG=1
M  V30 2 K -1.061 1.061 0.0 0 CHG=1
M  V30 3 O -3.7619 2.7008 0.0 0
M  V30 4 C -3.9066 1.2539 0.0 0
M  V30 5 O -2.6646 0.6269 0.0 0 CHG=-1
M  V30 6 O -5.4379 0.6269 0.0 0 CHG=-1
M  V30 END ATOM
M  V30 BEGIN BOND
M  V30 1 2 3 4
M  V30 2 1 4 5
M  V30 3 1 4 6
M  V30 END BOND
M  V30 END CTAB
M  END
>  <CAS_NUMBER>
584-08-7

>  <MOL_NAME>
potassium carbonate

>  <Role>
Base

$$$$
13400-13-0
OCL MolfileCreator  2D

  0  0  0  0  0  0              0 V3000
M  V30 BEGIN CTAB
M  V30 COUNTS 2 0 0 0 0
M  V30 BEGIN ATOM
M  V30 1 Cs 0.0 0.0 0.0 0 CHG=1
M  V30 2 F 1.9867 1.5174 0.0 0 CHG=-1
M  V30 END ATOM
M  V30 BEGIN BOND
M  V30 END BOND
M  V30 END CTAB
M  END
>  <CAS_NUMBER>
13400-13-0

>  <MOL_NAME>
cesium fluorure

>  <Role>
Base

$$$$
534-17-8
OCL MolfileCreator  2D

  0  0  0  0  0  0              0 V3000
M  V30 BEGIN CTAB
M  V30 COUNTS 6 3 0 0 0
M  V30 BEGIN ATOM
M  V30 1 Cs 0.0 0.0 0.0 0 CHG=1
M  V30 2 Cs -1.0586 1.0586 0.0 0 CHG=1
M  V30 3 O -4.0422 3.3685 0.0 0
M  V30 4 C -4.1866 1.9248 0.0 0
M  V30 5 O -5.7144 1.2872 0.0 0 CHG=-1
M  V30 6 O -2.9474 1.2872 0.0 0 CHG=-1
M  V30 END ATOM
M  V30 BEGIN BOND
M  V30 1 2 3 4
M  V30 2 1 4 5
M  V30 3 1 4 6
M  V30 END BOND
M  V30 END CTAB
M  END
>  <CAS_NUMBER>
534-17-8

>  <MOL_NAME>
cesium carbonate

>  <Role>
Base

$$$$
7778-53-2
OCL MolfileCreator  2D

  0  0  0  0  0  0              0 V3000
M  V30 BEGIN CTAB
M  V30 COUNTS 8 4 0 0 0
M  V30 BEGIN ATOM
M  V30 1 K 0.0 0.0 0.0 0 CHG=1
M  V30 2 K 0.3561 1.1574 0.0 0 CHG=1
M  V30 3 K -0.5342 -0.4451 0.0 0 CHG=1
M  V30 4 P -3.4723 1.0684 0.0 0
M  V30 5 O -4.8857 0.5008 0.0 0
M  V30 6 O -2.326 1.9698 0.0 0 CHG=-1
M  V30 7 O -4.8857 1.9698 0.0 0 CHG=-1
M  V30 8 O -3.6058 -0.2671 0.0 0 CHG=-1
M  V30 END ATOM
M  V30 BEGIN BOND
M  V30 1 2 4 5
M  V30 2 1 4 6
M  V30 3 1 4 7
M  V30 4 1 4 8
M  V30 END BOND
M  V30 END CTAB
M  END
>  <CAS_NUMBER>
7778-53-2

>  <MOL_NAME>
potassium phosphate

>  <Role>
Base

$$$$
110-86-1
OCL MolfileCreator  2D

  0  0  0  0  0  0              0 V3000
M  V30 BEGIN CTAB
M  V30 COUNTS 6 6 0 0 0
M  V30 BEGIN ATOM
M  V30 1 N 0.0 0.0 0.0 0
M  V30 2 C 1.2413 -0.6146 0.0 0
M  V30 3 C -1.5305 -0.6146 0.0 0
M  V30 4 C 1.0967 -2.0729 0.0 0
M  V30 5 C -1.6752 -2.0729 0.0 0
M  V30 6 C -0.4338 -2.6875 0.0 0
M  V30 END ATOM
M  V30 BEGIN BOND
M  V30 1 2 1 2
M  V30 2 1 1 3
M  V30 3 1 2 4
M  V30 4 2 3 5
M  V30 5 2 4 6
M  V30 6 1 5 6
M  V30 END BOND
M  V30 END CTAB
M  END
>  <CAS_NUMBER>
110-86-1

>  <MOL_NAME>
pyridine

>  <Role>
Base

$$$$
3264-82-2
OCL MolfileCreator  2D

  0  0  0  0  0  0              0 V3000
M  V30 BEGIN CTAB
M  V30 COUNTS 15 12 0 0 0
M  V30 BEGIN ATOM
M  V30 1 Ni 0.0 0.0 0.0 0 CHG=2
M  V30 2 O -6.8698 1.5266 0.0 0
M  V30 3 C -7.0333 0.1226 0.0 0
M  V30 4 C -5.8611 -0.5724 0.0 0
M  V30 5 C -8.5327 -0.5724 0.0 0
M  V30 6 C -4.6889 0.3135 0.0 0
M  V30 7 O -4.8524 2.0445 0.0 0 CHG=-1
M  V30 8 C -3.5166 -0.3816 0.0 0
M  V30 9 O -6.8698 1.5266 0.0 0
M  V30 10 C -7.0333 0.1226 0.0 0
M  V30 11 C -5.8611 -0.5724 0.0 0
M  V30 12 C -8.5327 -0.5724 0.0 0
M  V30 13 C -4.6889 0.3135 0.0 0
M  V30 14 O -4.8524 2.0445 0.0 0 CHG=-1
M  V30 15 C -3.5166 -0.3816 0.0 0
M  V30 END ATOM
M  V30 BEGIN BOND
M  V30 1 2 2 3
M  V30 2 1 3 4
M  V30 3 1 3 5
M  V30 4 2 4 6
M  V30 5 1 6 7
M  V30 6 1 6 8
M  V30 7 2 9 10
M  V30 8 1 10 11
M  V30 9 1 10 12
M  V30 10 2 11 13
M  V30 11 1 13 14
M  V30 12 1 13 15
M  V30 END BOND
M  V30 END CTAB
M  END
>  <CAS_NUMBER>
3264-82-2

>  <MOL_NAME>
nickel (II) acetylacetonate

>  <Role>
Nickel catalyst

$$$$
1651823-59-4
OCL MolfileCreator  2D

  0  0  0  0  0  0              0 V3000
M  V30 BEGIN CTAB
M  V30 COUNTS 44 50 0 0 0
M  V30 BEGIN ATOM
M  V30 1 Pd 0.0 0.0 0.0 0
M  V30 2 O 1.2693 0.7952 0.0 0
M  V30 3 C -1.3305 0.7952 0.0 0
M  V30 4 S 2.5387 0.0611 0.0 0
M  V30 5 C -2.661 0.0611 0.0 0
M  V30 6 C -1.3611 2.3246 0.0 0
M  V30 7 O 3.808 0.8564 0.0 0
M  V30 8 O 3.808 -0.6729 0.0 0
M  V30 9 C 2.5081 -1.407 0.0 0
M  V30 10 C -2.6916 -1.407 0.0 0
M  V30 11 C -3.9916 0.8564 0.0 0
M  V30 12 C -2.6916 3.1198 0.0 0
M  V30 13 C -4.0221 -2.141 0.0 0
M  V30 14 C -1.4222 -2.141 0.0 0
M  V30 15 C -4.0221 2.3857 0.0 0
M  V30 16 N -5.3527 -1.3458 0.0 0
M  V30 17 C -4.0527 -3.6092 0.0 0
M  V30 18 C -1.4528 -3.6092 0.0 0
M  V30 19 C -2.7834 -4.3433 0.0 0
M  V30 20 P 8.9314 0.6117 0.0 0
M  V30 21 C 8.1514 -0.6576 0.0 0
M  V30 22 C 10.3995 0.6576 0.0 0
M  V30 23 C 8.1208 1.9269 0.0 0
M  V30 24 C 6.2091 -0.6423 0.0 0
M  V30 25 C 9.0996 -2.2634 0.0 0
M  V30 26 C 7.1879 -1.1928 0.0 0
M  V30 27 C 11.3477 -0.9481 0.0 0
M  V30 28 C 11.3171 2.3399 0.0 0
M  V30 29 C 11.3477 0.1376 0.0 0
M  V30 30 C 6.5915 1.9422 0.0 0
M  V30 31 C 5.2456 -2.2787 0.0 0 CFG=1
M  V30 32 C 8.1208 -3.8845 0.0 0 CFG=2
M  V30 33 C 7.1726 -2.2481 0.0 0 CFG=1
M  V30 34 C 13.2288 -0.9023 0.0 0 CFG=1
M  V30 35 C 13.1982 2.3857 0.0 0 CFG=2
M  V30 36 C 12.2806 0.734 0.0 0 CFG=1
M  V30 37 C 5.7809 3.2575 0.0 0
M  V30 38 C 6.1938 -3.8845 0.0 0
M  V30 39 C 6.1938 -2.7987 0.0 0
M  V30 40 C 8.0749 -2.7681 0.0 0
M  V30 41 C 14.1464 0.7799 0.0 0
M  V30 42 C 13.183 0.2141 0.0 0
M  V30 43 C 12.2195 1.8505 0.0 0
M  V30 44 C 4.2515 3.2728 0.0 0
M  V30 END ATOM
M  V30 BEGIN BOND
M  V30 1 1 1 2
M  V30 2 1 1 3
M  V30 3 1 2 4
M  V30 4 2 3 5
M  V30 5 1 3 6
M  V30 6 2 4 7
M  V30 7 2 4 8
M  V30 8 1 4 9
M  V30 9 1 5 10
M  V30 10 1 5 11
M  V30 11 2 6 12
M  V30 12 2 10 13
M  V30 13 1 10 14
M  V30 14 2 11 15
M  V30 15 1 13 16
M  V30 16 1 13 17
M  V30 17 2 14 18
M  V30 18 2 17 19
M  V30 19 1 20 21
M  V30 20 1 20 22
M  V30 21 1 20 23
M  V30 22 1 21 24
M  V30 23 1 21 25
M  V30 24 1 21 26
M  V30 25 1 22 27
M  V30 26 1 22 28
M  V30 27 1 22 29
M  V30 28 1 23 30
M  V30 29 1 31 24 CFG=3
M  V30 30 1 32 25 CFG=3
M  V30 31 1 33 26 CFG=3
M  V30 32 1 34 27 CFG=3
M  V30 33 1 35 28 CFG=3
M  V30 34 1 36 29 CFG=3
M  V30 35 1 30 37
M  V30 36 1 31 38
M  V30 37 1 31 39
M  V30 38 1 32 40
M  V30 39 1 34 41
M  V30 40 1 34 42
M  V30 41 1 35 43
M  V30 42 1 37 44
M  V30 43 1 12 15
M  V30 44 1 18 19
M  V30 45 1 32 38
M  V30 46 1 33 39
M  V30 47 1 33 40
M  V30 48 1 35 41
M  V30 49 1 36 42
M  V30 50 1 36 43
M  V30 END BOND
M  V30 BEGIN COLLECTION
M  V30 MDLV30/STEABS ATOMS=(6 31 32 33 34 35 36)
M  V30 END COLLECTION
M  V30 END CTAB
M  END
>  <CAS_NUMBER>
1651823-59-4

>  <MOL_NAME>
cataCXium-A-Pd-G3

>  <Role>
Pd catalyst

$$$$
4411-80-7
OCL MolfileCreator  2D

  0  0  0  0  0  0              0 V3000
M  V30 BEGIN CTAB
M  V30 COUNTS 14 15 0 0 0
M  V30 BEGIN ATOM
M  V30 1 N 0.0 0.0 0.0 0
M  V30 2 C -1.2951 -0.7485 0.0 0
M  V30 3 C 0.0 1.509 0.0 0
M  V30 4 C -1.2951 -2.2457 0.0 0
M  V30 5 C -2.6022 0.0 0.0 0
M  V30 6 C -1.2951 2.2576 0.0 0
M  V30 7 C 1.2951 2.2576 0.0 0
M  V30 8 N 0.0 -2.9943 0.0 0
M  V30 9 C -2.6022 -2.9943 0.0 0
M  V30 10 C -2.6022 1.509 0.0 0
M  V30 11 C 0.0 -4.4915 0.0 0
M  V30 12 C -2.5903 -4.4915 0.0 0
M  V30 13 C -1.2951 -5.24 0.0 0
M  V30 14 C 1.2951 -5.24 0.0 0
M  V30 END ATOM
M  V30 BEGIN BOND
M  V30 1 2 1 2
M  V30 2 1 1 3
M  V30 3 1 2 4
M  V30 4 1 2 5
M  V30 5 2 3 6
M  V30 6 1 3 7
M  V30 7 2 4 8
M  V30 8 1 4 9
M  V30 9 2 5 10
M  V30 10 1 8 11
M  V30 11 2 9 12
M  V30 12 2 11 13
M  V30 13 1 11 14
M  V30 14 1 6 10
M  V30 15 1 12 13
M  V30 END BOND
M  V30 END CTAB
M  END
>  <CAS_NUMBER>
4411-80-7

>  <MOL_NAME>
6,6'-dimethyl-2,2'-bipyridine

>  <Role>
Ligand

$$$$
94928-86-6
OCL MolfileCreator  2D

  0  0  0  0  0  0              0 V3000
M  V30 BEGIN CTAB
M  V30 COUNTS 37 39 0 0 0
M  V30 BEGIN ATOM
M  V30 1 Ir 0.0 0.0 0.0 0
M  V30 2 N 6.9223 -0.8534 0.0 0
M  V30 3 C 6.9223 0.6519 0.0 0
M  V30 4 C 8.2261 -1.6001 0.0 0
M  V30 5 C 5.6303 1.3986 0.0 0
M  V30 6 C 8.2261 1.3986 0.0 0
M  V30 7 C 9.5181 -0.8534 0.0 0
M  V30 8 C 5.6303 2.904 0.0 0
M  V30 9 C 4.3382 0.6519 0.0 0
M  V30 10 C 9.5181 0.6519 0.0 0
M  V30 11 C 4.3382 3.6508 0.0 0
M  V30 12 C 3.0344 1.3986 0.0 0
M  V30 13 C 3.0344 2.904 0.0 0
M  V30 14 N 5.4999 -5.5947 0.0 0
M  V30 15 C 5.4999 -4.0893 0.0 0
M  V30 16 C 6.8037 -6.3414 0.0 0
M  V30 17 C 4.196 -3.3426 0.0 0
M  V30 18 C 6.8037 -3.3426 0.0 0
M  V30 19 C 8.0957 -5.5947 0.0 0
M  V30 20 C 4.196 -1.8372 0.0 0
M  V30 21 C 2.904 -4.0893 0.0 0
M  V30 22 C 8.0957 -4.0893 0.0 0
M  V30 23 C 2.904 -1.0905 0.0 0
M  V30 24 C 1.6001 -3.3426 0.0 0
M  V30 25 C 1.6001 -1.8372 0.0 0
M  V30 26 N 4.362 -9.4826 0.0 0
M  V30 27 C 4.362 -7.9772 0.0 0
M  V30 28 C 5.6658 -10.2293 0.0 0
M  V30 29 C 3.0581 -7.2304 0.0 0
M  V30 30 C 5.6658 -7.2304 0.0 0
M  V30 31 C 6.9578 -9.4826 0.0 0
M  V30 32 C 3.0581 -5.7251 0.0 0
M  V30 33 C 1.7661 -7.9772 0.0 0
M  V30 34 C 6.9578 -7.9772 0.0 0
M  V30 35 C 1.7661 -4.9783 0.0 0
M  V30 36 C 0.4622 -7.2304 0.0 0
M  V30 37 C 0.4622 -5.7251 0.0 0
M  V30 END ATOM
M  V30 BEGIN BOND
M  V30 1 2 2 3
M  V30 2 1 2 4
M  V30 3 1 3 5
M  V30 4 1 3 6
M  V30 5 2 4 7
M  V30 6 2 5 8
M  V30 7 1 5 9
M  V30 8 2 6 10
M  V30 9 1 8 11
M  V30 10 2 9 12
M  V30 11 2 11 13
M  V30 12 2 14 15
M  V30 13 1 14 16
M  V30 14 1 15 17
M  V30 15 1 15 18
M  V30 16 2 16 19
M  V30 17 2 17 20
M  V30 18 1 17 21
M  V30 19 2 18 22
M  V30 20 1 20 23
M  V30 21 2 21 24
M  V30 22 2 23 25
M  V30 23 2 26 27
M  V30 24 1 26 28
M  V30 25 1 27 29
M  V30 26 1 27 30
M  V30 27 2 28 31
M  V30 28 2 29 32
M  V30 29 1 29 33
M  V30 30 2 30 34
M  V30 31 1 32 35
M  V30 32 2 33 36
M  V30 33 2 35 37
M  V30 34 1 7 10
M  V30 35 1 12 13
M  V30 36 1 19 22
M  V30 37 1 24 25
M  V30 38 1 31 34
M  V30 39 1 36 37
M  V30 END BOND
M  V30 END CTAB
M  END
>  <CAS_NUMBER>
94928-86-6

>  <MOL_NAME>
fac-Ir(ppy)3

>  <Role>
Photocatalyst

$$$$
1536473-72-9
OCL MolfileCreator  2D

  0  0  0  0  0  0              0 V3000
M  V30 BEGIN CTAB
M  V30 COUNTS 53 55 0 0 0
M  V30 BEGIN ATOM
M  V30 1 Pd 0.0 0.0 0.0 0
M  V30 2 O 1.3412 -0.7727 0.0 0
M  V30 3 C 0.0 1.5454 0.0 0
M  V30 4 S 1.3412 -2.3181 0.0 0
M  V30 5 C -1.3412 2.3181 0.0 0
M  V30 6 C 1.3412 2.3181 0.0 0
M  V30 7 O 2.6825 -3.0908 0.0 0
M  V30 8 O 1.3412 -3.8635 0.0 0
M  V30 9 C 0.0 -3.0908 0.0 0
M  V30 10 C -2.6825 1.5454 0.0 0
M  V30 11 C -1.3412 3.8635 0.0 0
M  V30 12 C 1.3412 3.8635 0.0 0
M  V30 13 C -2.6825 0.0 0.0 0
M  V30 14 C -4.0238 2.3181 0.0 0
M  V30 15 C 0.0 4.6362 0.0 0
M  V30 16 N -1.3412 -0.7727 0.0 0
M  V30 17 C -4.0238 -0.7727 0.0 0
M  V30 18 C -5.3651 1.5454 0.0 0
M  V30 19 C -5.3651 0.0 0.0 0
M  V30 20 P -14.8125 2.0994 0.0 0
M  V30 21 C -13.2962 2.3764 0.0 0
M  V30 22 C -15.8039 3.2803 0.0 0
M  V30 23 C -14.8125 0.554 0.0 0
M  V30 24 C -11.9549 1.6037 0.0 0
M  V30 25 C -13.2962 3.9218 0.0 0
M  V30 26 C -16.8244 3.1053 0.0 0
M  V30 27 C -15.454 4.2425 0.0 0
M  V30 28 C -16.7953 4.4612 0.0 0
M  V30 29 C -13.4712 -0.2186 0.0 0
M  V30 30 C -14.8125 -0.9913 0.0 0
M  V30 31 C -16.1538 -0.2186 0.0 0
M  V30 32 C -11.9549 0.0583 0.0 0
M  V30 33 C -10.6136 2.3764 0.0 0
M  V30 34 O -14.6375 4.6945 0.0 0
M  V30 35 C -11.9549 4.6945 0.0 0
M  V30 36 C -10.6136 -0.7143 0.0 0
M  V30 37 C -13.2962 -0.7143 0.0 0
M  V30 38 O -9.2724 1.6037 0.0 0
M  V30 39 C -10.6136 3.9218 0.0 0
M  V30 40 C -14.6375 6.2399 0.0 0
M  V30 41 C -10.6136 -2.2597 0.0 0
M  V30 42 C -9.2724 0.0583 0.0 0
M  V30 43 C -13.2962 -2.2597 0.0 0
M  V30 44 C -14.6375 0.0583 0.0 0
M  V30 45 C -7.9311 2.3764 0.0 0
M  V30 46 C -11.9549 -3.0324 0.0 0
M  V30 47 C -7.9311 -0.7143 0.0 0
M  V30 48 C -9.2724 1.0934 0.0 0
M  V30 49 C -15.5269 -0.4665 0.0 0
M  V30 50 C -14.6375 1.0934 0.0 0
M  V30 51 C -11.9549 -4.5778 0.0 0
M  V30 52 C -10.6136 -5.3505 0.0 0
M  V30 53 C -13.2962 -5.3505 0.0 0
M  V30 END ATOM
M  V30 BEGIN BOND
M  V30 1 1 1 2
M  V30 2 1 1 3
M  V30 3 1 2 4
M  V30 4 2 3 5
M  V30 5 1 3 6
M  V30 6 2 4 7
M  V30 7 2 4 8
M  V30 8 1 4 9
M  V30 9 1 5 10
M  V30 10 1 5 11
M  V30 11 2 6 12
M  V30 12 2 10 13
M  V30 13 1 10 14
M  V30 14 2 11 15
M  V30 15 1 13 16
M  V30 16 1 13 17
M  V30 17 2 14 18
M  V30 18 2 17 19
M  V30 19 1 20 21
M  V30 20 1 20 22
M  V30 21 1 20 23
M  V30 22 2 21 24
M  V30 23 1 21 25
M  V30 24 1 22 26
M  V30 25 1 22 27
M  V30 26 1 22 28
M  V30 27 1 23 29
M  V30 28 1 23 30
M  V30 29 1 23 31
M  V30 30 1 24 32
M  V30 31 1 24 33
M  V30 32 1 25 34
M  V30 33 2 25 35
M  V30 34 2 32 36
M  V30 35 1 32 37
M  V30 36 1 33 38
M  V30 37 2 33 39
M  V30 38 1 34 40
M  V30 39 1 36 41
M  V30 40 1 36 42
M  V30 41 2 37 43
M  V30 42 1 37 44
M  V30 43 1 38 45
M  V30 44 2 41 46
M  V30 45 1 42 47
M  V30 46 1 42 48
M  V30 47 1 44 49
M  V30 48 1 44 50
M  V30 49 1 46 51
M  V30 50 1 51 52
M  V30 51 1 51 53
M  V30 52 1 12 15
M  V30 53 1 18 19
M  V30 54 1 35 39
M  V30 55 1 43 46
M  V30 END BOND
M  V30 END CTAB
M  END
>  <CAS_NUMBER>
1536473-72-9

>  <MOL_NAME>
tBuBrettPhos Pd G3

>  <Role>
Pd catalyst

$$$$
1810004-87-5
OCL MolfileCreator  2D

  0  0  0  0  0  0              0 V3000
M  V30 BEGIN CTAB
M  V30 COUNTS 42 45 0 0 0
M  V30 BEGIN ATOM
M  V30 1 F 0.0 0.0 0.0 0
M  V30 2 B -1.313 -0.7393 0.0 0 CHG=-1
M  V30 3 F -1.3257 -2.218 0.0 0
M  V30 4 F -2.626 0.0254 0.0 0
M  V30 5 F -1.3257 0.7648 0.0 0
M  V30 6 N -12.9515 1.9376 0.0 0 CHG=1
M  V30 7 C -11.6767 2.7024 0.0 0
M  V30 8 C -12.9642 0.4589 0.0 0
M  V30 9 C -14.2645 2.7024 0.0 0
M  V30 10 C -11.6895 4.2194 0.0 0
M  V30 11 C -10.3892 1.9503 0.0 0
M  V30 12 C -11.6767 -0.2804 0.0 0
M  V30 13 C -14.2772 -0.2804 0.0 0
M  V30 14 C -15.5775 1.9631 0.0 0
M  V30 15 C -14.2772 4.2194 0.0 0
M  V30 16 C -12.9897 4.9843 0.0 0
M  V30 17 C -10.4147 4.9843 0.0 0
M  V30 18 C -9.1145 2.7279 0.0 0
M  V30 19 C -11.6895 -1.7591 0.0 0
M  V30 20 C -14.2772 -1.7591 0.0 0
M  V30 21 C -16.8905 2.7407 0.0 0
M  V30 22 C -15.603 4.997 0.0 0
M  V30 23 C -13.0025 6.4885 0.0 0
M  V30 24 C -9.1272 4.2449 0.0 0
M  V30 25 C -7.827 1.9886 0.0 0
M  V30 26 C -13.0025 -2.4985 0.0 0
M  V30 27 C -16.9033 4.2449 0.0 0
M  V30 28 C -18.2035 2.0013 0.0 0
M  V30 29 C -14.3155 7.2533 0.0 0
M  V30 30 C -11.715 7.2533 0.0 0
M  V30 31 C -6.5395 2.7534 0.0 0
M  V30 32 C -7.8397 0.5099 0.0 0
M  V30 33 C -6.5395 1.2492 0.0 0
M  V30 34 C -18.2163 0.5226 0.0 0
M  V30 35 C -19.5165 2.7662 0.0 0
M  V30 36 C -18.2163 3.5055 0.0 0
M  V30 37 C -14.3282 8.7575 0.0 0
M  V30 38 C -15.6285 6.514 0.0 0
M  V30 39 C -11.7405 8.7575 0.0 0
M  V30 40 C -10.4275 6.514 0.0 0
M  V30 41 C -13.0407 9.5224 0.0 0
M  V30 42 C -13.0535 11.0266 0.0 0
M  V30 END ATOM
M  V30 BEGIN BOND
M  V30 1 1 1 2
M  V30 2 1 2 3
M  V30 3 1 2 4
M  V30 4 1 2 5
M  V30 5 2 6 7
M  V30 6 1 6 8
M  V30 7 1 6 9
M  V30 8 1 7 10
M  V30 9 1 7 11
M  V30 10 2 8 12
M  V30 11 1 8 13
M  V30 12 1 9 14
M  V30 13 1 9 15
M  V30 14 2 10 16
M  V30 15 1 10 17
M  V30 16 2 11 18
M  V30 17 1 12 19
M  V30 18 2 13 20
M  V30 19 2 14 21
M  V30 20 1 15 22
M  V30 21 1 16 23
M  V30 22 2 17 24
M  V30 23 1 18 25
M  V30 24 2 19 26
M  V30 25 1 21 27
M  V30 26 1 21 28
M  V30 27 2 23 29
M  V30 28 1 23 30
M  V30 29 1 25 31
M  V30 30 1 25 32
M  V30 31 1 25 33
M  V30 32 1 28 34
M  V30 33 1 28 35
M  V30 34 1 28 36
M  V30 35 1 29 37
M  V30 36 1 29 38
M  V30 37 2 30 39
M  V30 38 1 30 40
M  V30 39 2 37 41
M  V30 40 1 41 42
M  V30 41 1 15 16
M  V30 42 1 18 24
M  V30 43 1 20 26
M  V30 44 2 22 27
M  V30 45 1 39 41
M  V30 END BOND
M  V30 END CTAB
M  END
>  <CAS_NUMBER>
1810004-87-5

>  <MOL_NAME>
3,6-ditert-butyl-10-phenyl-9-(2,4,6-trimethylphenyl)-4a,9a-dihydroacridin-10-ium tetrafluoroborate

>  <Role>
Photocatalyst

$$$$
1158652-41-5
OCL MolfileCreator  2D

  0  0  0  0  0  0              0 V3000
M  V30 BEGIN CTAB
M  V30 COUNTS 49 51 0 0 0
M  V30 BEGIN ATOM
M  V30 1 Pd 0.0 0.0 0.0 0
M  V30 2 Cl -1.4372 -0.9432 0.0 0
M  V30 3 Cl 1.1228 0.7186 0.0 0
M  V30 4 C 0.0449 1.8415 0.0 0
M  V30 5 N 1.0779 2.6949 0.0 0
M  V30 6 N -1.0779 2.65 0.0 0
M  V30 7 C 6.7822 0.9432 0.0 0
M  V30 8 C 0.6288 3.9974 0.0 0
M  V30 9 C -4.6263 1.572 0.0 0
M  V30 10 C -0.7186 3.9525 0.0 0
M  V30 11 C 7.0068 -0.3144 0.0 0
M  V30 12 C 7.7254 1.8864 0.0 0
M  V30 13 Cl 1.3474 5.1203 0.0 0
M  V30 14 C -5.6593 2.5152 0.0 0
M  V30 15 C -4.9407 0.3144 0.0 0
M  V30 16 Cl -1.572 5.0754 0.0 0
M  V30 17 C 8.2195 -0.6737 0.0 0
M  V30 18 C 5.9737 -1.1678 0.0 0
M  V30 19 C 8.9381 1.5271 0.0 0
M  V30 20 C 7.411 3.2339 0.0 0
M  V30 21 C -6.9619 2.1559 0.0 0
M  V30 22 C -5.4347 3.8627 0.0 0
M  V30 23 C -6.2432 -0.0449 0.0 0
M  V30 24 C -3.9974 -0.5389 0.0 0
M  V30 25 C 9.1627 0.2694 0.0 0
M  V30 26 C 4.6263 -1.3923 0.0 0
M  V30 27 C 6.4229 -2.3356 0.0 0
M  V30 28 C 6.4678 4.2669 0.0 0
M  V30 29 C 8.489 3.9974 0.0 0
M  V30 30 C -7.2763 0.8983 0.0 0
M  V30 31 C -6.6025 4.6263 0.0 0
M  V30 32 C -4.5813 4.8957 0.0 0
M  V30 33 C -2.7847 -0.0898 0.0 0
M  V30 34 C -4.3118 -1.7966 0.0 0
M  V30 35 C 3.9525 -2.5152 0.0 0
M  V30 36 C 7.6805 -2.4703 0.0 0
M  V30 37 C 6.8271 5.5695 0.0 0
M  V30 38 C 8.4441 5.3898 0.0 0
M  V30 39 C -7.8153 4.0424 0.0 0
M  V30 40 C -5.2551 6.1085 0.0 0
M  V30 41 C -2.5601 1.2576 0.0 0
M  V30 42 C -5.6144 -2.1559 0.0 0
M  V30 43 Cl 2.1559 -4.3118 0.0 0
M  V30 44 C 0.9432 -3.5932 0.0 0
M  V30 45 C 0.8983 -2.2008 0.0 0
M  V30 46 C -0.2694 -4.222 0.0 0
M  V30 47 N -0.3144 -1.4822 0.0 0
M  V30 48 C -1.4822 -3.5034 0.0 0
M  V30 49 C -1.5271 -2.111 0.0 0
M  V30 END ATOM
M  V30 BEGIN BOND
M  V30 1 1 1 2
M  V30 2 1 1 3
M  V30 3 1 1 4
M  V30 4 1 4 5
M  V30 5 1 4 6
M  V30 6 1 5 7
M  V30 7 1 5 8
M  V30 8 1 6 9
M  V30 9 1 6 10
M  V30 10 2 7 11
M  V30 11 1 7 12
M  V30 12 1 8 13
M  V30 13 2 9 14
M  V30 14 1 9 15
M  V30 15 1 10 16
M  V30 16 1 11 17
M  V30 17 1 11 18
M  V30 18 2 12 19
M  V30 19 1 12 20
M  V30 20 1 14 21
M  V30 21 1 14 22
M  V30 22 2 15 23
M  V30 23 1 15 24
M  V30 24 2 17 25
M  V30 25 1 18 26
M  V30 26 1 18 27
M  V30 27 1 20 28
M  V30 28 1 20 29
M  V30 29 2 21 30
M  V30 30 1 22 31
M  V30 31 1 22 32
M  V30 32 1 24 33
M  V30 33 1 24 34
M  V30 34 1 26 35
M  V30 35 1 27 36
M  V30 36 1 28 37
M  V30 37 1 29 38
M  V30 38 1 31 39
M  V30 39 1 32 40
M  V30 40 1 33 41
M  V30 41 1 34 42
M  V30 42 1 43 44
M  V30 43 2 44 45
M  V30 44 1 44 46
M  V30 45 1 45 47
M  V30 46 2 46 48
M  V30 47 2 47 49
M  V30 48 2 8 10
M  V30 49 1 19 25
M  V30 50 1 23 30
M  V30 51 1 48 49
M  V30 END BOND
M  V30 END CTAB
M  END
>  <CAS_NUMBER>
1158652-41-5

>  <MOL_NAME>
[1,3-bis[2,6-bis(1-ethylpropyl)phenyl]-4,5-dichloro-2H-imidazol-2-yl]-dichloro-palladium;3-chloropyridine

>  <Role>
Pd catalyst

$$$$
284497-48-9
OCL MolfileCreator  2D

  0  0  0  0  0  0              0 V3000
M  V30 BEGIN CTAB
M  V30 COUNTS 22 24 0 0 0
M  V30 BEGIN ATOM
M  V30 1 N 0.0 0.0 0.0 0
M  V30 2 C -1.3003 0.7447 0.0 0
M  V30 3 C 0.0 -1.5012 0.0 0
M  V30 4 C -2.6006 -0.0118 0.0 0
M  V30 5 C -1.3003 2.2459 0.0 0
M  V30 6 C -1.3003 -2.2578 0.0 0
M  V30 7 C -2.5887 -1.513 0.0 0
M  V30 8 N 0.0 2.9907 0.0 0
M  V30 9 C 0.0 4.4919 0.0 0 CFG=2
M  V30 10 C 1.3003 5.2366 0.0 0 CFG=1
M  V30 11 C -1.3003 5.2366 0.0 0
M  V30 12 N 2.6006 4.4919 0.0 0
M  V30 13 C 1.3003 6.7379 0.0 0
M  V30 14 C -1.3003 6.7379 0.0 0
M  V30 15 C 4.0545 4.882 0.0 0
M  V30 16 C 0.0 7.4826 0.0 0
M  V30 17 C 4.7993 3.5817 0.0 0
M  V30 18 N 4.0427 2.2814 0.0 0
M  V30 19 C 6.3005 3.5817 0.0 0
M  V30 20 C 4.7993 0.9811 0.0 0
M  V30 21 C 7.0452 2.2814 0.0 0
M  V30 22 C 6.2887 0.9811 0.0 0
M  V30 END ATOM
M  V30 BEGIN BOND
M  V30 1 2 1 2
M  V30 2 1 1 3
M  V30 3 1 2 4
M  V30 4 1 2 5
M  V30 5 2 3 6
M  V30 6 2 4 7
M  V30 7 2 5 8
M  V30 8 1 9 8 CFG=1
M  V30 9 1 9 10
M  V30 10 1 9 11
M  V30 11 1 10 12 CFG=3
M  V30 12 1 10 13
M  V30 13 1 11 14
M  V30 14 2 12 15
M  V30 15 1 13 16
M  V30 16 1 15 17
M  V30 17 2 17 18
M  V30 18 1 17 19
M  V30 19 1 18 20
M  V30 20 2 19 21
M  V30 21 2 20 22
M  V30 22 1 6 7
M  V30 23 1 14 16
M  V30 24 1 21 22
M  V30 END BOND
M  V30 BEGIN COLLECTION
M  V30 MDLV30/STEABS ATOMS=(2 9 10)
M  V30 END COLLECTION
M  V30 END CTAB
M  END
>  <CAS_NUMBER>
284497-48-9

>  <MOL_NAME>
trans-N,N'-bis(pyridin-2-ylméthylène)cyclohexane-1,2-diamine (Chxn-Py-Al)

>  <Role>
Ligand

$$$$
2940916-90-3
OCL MolfileCreator  2D

  0  0  0  0  0  0              0 V3000
M  V30 BEGIN CTAB
M  V30 COUNTS 57 63 0 0 0
M  V30 BEGIN ATOM
M  V30 1 Pd 0.0 0.0 0.0 0 CHG=2
M  V30 2 P 1.3707 0.655 0.0 0 VAL=4
M  V30 3 O -0.6914 -1.3585 0.0 0 CHG=-1
M  V30 4 N 0.6671 1.3949 0.0 0 VAL=4
M  V30 5 C -1.5405 -0.1213 0.0 0 CHG=-1
M  V30 6 C 2.6686 -0.1819 0.0 0
M  V30 7 C 2.7414 1.3585 0.0 0
M  V30 8 C 1.3707 2.1955 0.0 0
M  V30 9 S 0.5216 -2.3168 0.0 0
M  V30 10 C -0.2062 2.6686 0.0 0
M  V30 11 C -2.4139 1.1523 0.0 0
M  V30 12 C -2.2077 -1.5162 0.0 0
M  V30 13 C 4.0394 0.5216 0.0 0
M  V30 14 C 2.6686 -1.7225 0.0 0
M  V30 15 C 4.2456 1.0189 0.0 0
M  V30 16 C 2.2926 2.8263 0.0 0
M  V30 17 C 2.8142 2.8991 0.0 0
M  V30 18 C 0.2304 3.0325 0.0 0
M  V30 19 O 0.2911 -3.8453 0.0 0
M  V30 20 O 1.9529 -1.7467 0.0 0
M  V30 21 C 1.3222 -2.9598 0.0 0
M  V30 22 C -1.7467 2.5473 0.0 0
M  V30 23 C 0.4609 4.0636 0.0 0
M  V30 24 C -3.9544 1.031 0.0 0
M  V30 25 C -3.7482 -1.6375 0.0 0
M  V30 26 O 4.0394 2.0621 0.0 0
M  V30 27 C 5.2524 -0.3153 0.0 0
M  V30 28 C 1.1402 -2.426 0.0 0
M  V30 29 C 3.8817 -2.5595 0.0 0
M  V30 30 C 5.2888 2.147 0.0 0
M  V30 31 C 3.3358 3.9544 0.0 0
M  V30 32 C 2.8142 4.4397 0.0 0
M  V30 33 C 0.2304 4.5731 0.0 0
M  V30 34 C -2.6201 3.821 0.0 0
M  V30 35 C -0.4124 5.3373 0.0 0
M  V30 36 C -4.6216 -0.3639 0.0 0 RAD=2
M  V30 37 C 5.495 2.7657 0.0 0
M  V30 38 C 5.2524 -1.8559 0.0 0
M  V30 39 C 1.1402 -3.9666 0.0 0
M  V30 40 C -0.0849 -1.589 0.0 0
M  V30 41 C 4.84 3.6148 0.0 0
M  V30 42 C 1.6012 5.2766 0.0 0
M  V30 43 C -1.9529 5.216 0.0 0
M  V30 44 C 5.495 3.7967 0.0 0
M  V30 45 C 6.3562 2.2077 0.0 0
M  V30 46 C -0.2304 -4.6701 0.0 0
M  V30 47 C 2.4381 -4.8036 0.0 0
M  V30 48 C -1.5284 -2.2926 0.0 0
M  V30 49 C 0.5094 -0.1698 0.0 0
M  V30 50 C -1.5284 -3.8331 0.0 0
M  V30 51 C 2.4381 -6.3441 0.0 0
M  V30 52 C 3.8089 -4.1 0.0 0
M  V30 53 C -0.1091 0.6429 0.0 0
M  V30 54 C 1.5284 -0.0363 0.0 0
M  V30 55 C -2.8991 -4.5367 0.0 0
M  V30 56 C -2.8991 -6.0772 0.0 0
M  V30 57 C -4.197 -3.6997 0.0 0
M  V30 END ATOM
M  V30 BEGIN BOND
M  V30 1 1 1 2
M  V30 2 1 1 3
M  V30 3 1 1 4
M  V30 4 1 1 5
M  V30 5 1 2 6
M  V30 6 1 2 7
M  V30 7 1 2 8
M  V30 8 1 3 9
M  V30 9 1 4 10
M  V30 10 1 5 11
M  V30 11 1 5 12
M  V30 12 2 6 13
M  V30 13 1 6 14
M  V30 14 1 7 15
M  V30 15 1 7 16
M  V30 16 1 8 17
M  V30 17 1 8 18
M  V30 18 2 9 19
M  V30 19 2 9 20
M  V30 20 1 9 21
M  V30 21 2 10 22
M  V30 22 1 10 23
M  V30 23 2 11 24
M  V30 24 2 12 25
M  V30 25 1 13 26
M  V30 26 1 13 27
M  V30 27 1 14 28
M  V30 28 2 14 29
M  V30 29 1 15 30
M  V30 30 1 16 31
M  V30 31 1 17 32
M  V30 32 1 18 33
M  V30 33 1 22 34
M  V30 34 2 23 35
M  V30 35 1 24 36
M  V30 36 1 26 37
M  V30 37 2 27 38
M  V30 38 2 28 39
M  V30 39 1 28 40
M  V30 40 1 30 41
M  V30 41 1 32 42
M  V30 42 2 34 43
M  V30 43 1 37 44
M  V30 44 1 37 45
M  V30 45 1 39 46
M  V30 46 1 39 47
M  V30 47 2 40 48
M  V30 48 1 40 49
M  V30 49 2 46 50
M  V30 50 1 47 51
M  V30 51 1 47 52
M  V30 52 1 49 53
M  V30 53 1 49 54
M  V30 54 1 50 55
M  V30 55 1 55 56
M  V30 56 1 55 57
M  V30 57 1 11 22
M  V30 58 1 25 36
M  V30 59 1 29 38
M  V30 60 1 31 41
M  V30 61 1 33 42
M  V30 62 1 35 43
M  V30 63 1 48 50
M  V30 END BOND
M  V30 END CTAB
M  END
>  <CAS_NUMBER>
2940916-90-3

>  <MOL_NAME>
[2'-(Amino-κN)[1,1'-biphenyl]-2-yl-κC][dicyclohexyl[3-(1-methylethoxy)-2',4',6'-tris(1-methylethyl)[1,1'-biphenyl]-2-yl]phosphine-κP](methanesulfonato-κO)palladium (EPhos-Pd-G3)

>  <Role>
Pd catalyst

$$$$
67-56-1
OCL MolfileCreator  2D

  0  0  0  0  0  0              0 V3000
M  V30 BEGIN CTAB
M  V30 COUNTS 2 1 0 0 0
M  V30 BEGIN ATOM
M  V30 1 O 0.0 0.0 0.0 0
M  V30 2 C -1.3004 -0.7475 0.0 0
M  V30 END ATOM
M  V30 BEGIN BOND
M  V30 1 1 1 2
M  V30 END BOND
M  V30 END CTAB
M  END
>  <CAS_NUMBER>
67-56-1

>  <MOL_NAME>
MeOH

>  <Role>
Solvent

$$$$
68-12-2
OCL MolfileCreator  2D

  0  0  0  0  0  0              0 V3000
M  V30 BEGIN CTAB
M  V30 COUNTS 5 4 0 0 0
M  V30 BEGIN ATOM
M  V30 1 O 0.0 0.0 0.0 0
M  V30 2 C 0.0 -1.4999 0.0 0
M  V30 3 N 1.2991 -2.2557 0.0 0
M  V30 4 C 2.5982 -1.5117 0.0 0
M  V30 5 C 1.2991 -3.7557 0.0 0
M  V30 END ATOM
M  V30 BEGIN BOND
M  V30 1 2 1 2
M  V30 2 1 2 3
M  V30 3 1 3 4
M  V30 4 1 3 5
M  V30 END BOND
M  V30 END CTAB
M  END
>  <CAS_NUMBER>
68-12-2

>  <MOL_NAME>
DMF

>  <Role>
Solvent

$$$$
127-19-5
OCL MolfileCreator  2D

  0  0  0  0  0  0              0 V3000
M  V30 BEGIN CTAB
M  V30 COUNTS 6 5 0 0 0
M  V30 BEGIN ATOM
M  V30 1 O 0.0 0.0 0.0 0
M  V30 2 C 0.0 -1.4993 0.0 0
M  V30 3 N 1.2986 -2.2548 0.0 0
M  V30 4 C -1.2986 -2.2548 0.0 0
M  V30 5 C 2.5972 -1.5111 0.0 0
M  V30 6 C 1.2986 -3.7541 0.0 0
M  V30 END ATOM
M  V30 BEGIN BOND
M  V30 1 2 1 2
M  V30 2 1 2 3
M  V30 3 1 2 4
M  V30 4 1 3 5
M  V30 5 1 3 6
M  V30 END BOND
M  V30 END CTAB
M  END
>  <CAS_NUMBER>
127-19-5

>  <MOL_NAME>
DMA

>  <Role>
Solvent

$$$$
872-50-4
OCL MolfileCreator  2D

  0  0  0  0  0  0              0 V3000
M  V30 BEGIN CTAB
M  V30 COUNTS 7 7 0 0 0
M  V30 BEGIN ATOM
M  V30 1 O 0.0 0.0 0.0 0
M  V30 2 C -0.4598 -1.4266 0.0 0
M  V30 3 N 0.4244 -2.6411 0.0 0
M  V30 4 C -1.8865 -1.8865 0.0 0
M  V30 5 C -0.4598 -3.8555 0.0 0
M  V30 6 C 1.9218 -2.6411 0.0 0
M  V30 7 C -1.8865 -3.3839 0.0 0
M  V30 END ATOM
M  V30 BEGIN BOND
M  V30 1 2 1 2
M  V30 2 1 2 3
M  V30 3 1 2 4
M  V30 4 1 3 5
M  V30 5 1 3 6
M  V30 6 1 4 7
M  V30 7 1 5 7
M  V30 END BOND
M  V30 END CTAB
M  END
>  <CAS_NUMBER>
872-50-4

>  <MOL_NAME>
NMP

>  <Role>
Solvent

$$$$
107-06-2
OCL MolfileCreator  2D

  0  0  0  0  0  0              0 V3000
M  V30 BEGIN CTAB
M  V30 COUNTS 4 3 0 0 0
M  V30 BEGIN ATOM
M  V30 1 Cl 0.0 0.0 0.0 0
M  V30 2 C 1.3004 0.7475 0.0 0
M  V30 3 C 2.6009 0.0 0.0 0
M  V30 4 Cl 3.9014 0.7475 0.0 0
M  V30 END ATOM
M  V30 BEGIN BOND
M  V30 1 1 1 2
M  V30 2 1 2 3
M  V30 3 1 3 4
M  V30 END BOND
M  V30 END CTAB
M  END
>  <CAS_NUMBER>
107-06-2

>  <MOL_NAME>
DCE

>  <Role>
Solvent

$$$$
75-85-4
OCL MolfileCreator  2D

  0  0  0  0  0  0              0 V3000
M  V30 BEGIN CTAB
M  V30 COUNTS 6 5 0 0 0
M  V30 BEGIN ATOM
M  V30 1 O 0.0 0.0 0.0 0
M  V30 2 C -0.7475 -1.3004 0.0 0
M  V30 3 C -2.0479 -0.5529 0.0 0
M  V30 4 C 0.5529 -2.0479 0.0 0
M  V30 5 C -1.495 -2.6009 0.0 0
M  V30 6 C -3.3484 -1.3004 0.0 0
M  V30 END ATOM
M  V30 BEGIN BOND
M  V30 1 1 1 2
M  V30 2 1 2 3
M  V30 3 1 2 4
M  V30 4 1 2 5
M  V30 5 1 3 6
M  V30 END BOND
M  V30 END CTAB
M  END
>  <CAS_NUMBER>
75-85-4

>  <MOL_NAME>
t-amylOH

>  <Role>
Solvent

$$$$
123-91-1
OCL MolfileCreator  2D

  0  0  0  0  0  0              0 V3000
M  V30 BEGIN CTAB
M  V30 COUNTS 6 6 0 0 0
M  V30 BEGIN ATOM
M  V30 1 O 0.0 0.0 0.0 0
M  V30 2 C -1.2974 -0.7548 0.0 0
M  V30 3 C 1.2974 -0.7548 0.0 0
M  V30 4 C -1.2974 -2.2527 0.0 0
M  V30 5 C 1.2974 -2.2527 0.0 0
M  V30 6 O 0.0 -3.0076 0.0 0
M  V30 END ATOM
M  V30 BEGIN BOND
M  V30 1 1 1 2
M  V30 2 1 1 3
M  V30 3 1 2 4
M  V30 4 1 3 5
M  V30 5 1 4 6
M  V30 6 1 5 6
M  V30 END BOND
M  V30 END CTAB
M  END
>  <CAS_NUMBER>
123-91-1

>  <MOL_NAME>
dioxane

>  <Role>
Solvent

$$$$
6674-22-2
OCL MolfileCreator  2D

  0  0  0  0  0  0              0 V3000
M  V30 BEGIN CTAB
M  V30 COUNTS 11 12 0 0 0
M  V30 BEGIN ATOM
M  V30 1 N 0.0 0.0 0.0 0
M  V30 2 C -1.4951 0.1177 0.0 0
M  V30 3 C 0.8476 1.2361 0.0 0
M  V30 4 N -2.1426 1.4715 0.0 0
M  V30 5 C -2.1426 -1.2361 0.0 0
M  V30 6 C 0.2001 2.5899 0.0 0
M  V30 7 C -3.6024 1.8012 0.0 0
M  V30 8 C -1.2949 2.7077 0.0 0
M  V30 9 C -3.6024 -1.5657 0.0 0
M  V30 10 C -4.7797 0.8711 0.0 0
M  V30 11 C -4.7797 -0.6357 0.0 0
M  V30 END ATOM
M  V30 BEGIN BOND
M  V30 1 2 1 2
M  V30 2 1 1 3
M  V30 3 1 2 4
M  V30 4 1 2 5
M  V30 5 1 3 6
M  V30 6 1 4 7
M  V30 7 1 4 8
M  V30 8 1 5 9
M  V30 9 1 7 10
M  V30 10 1 9 11
M  V30 11 1 6 8
M  V30 12 1 10 11
M  V30 END BOND
M  V30 END CTAB
M  END
>  <CAS_NUMBER>
6674-22-2

>  <MOL_NAME>
DBU

>  <Role>
Base

$$$$
75-05-8
OCL MolfileCreator  2D

  0  0  0  0  0  0              0 V3000
M  V30 BEGIN CTAB
M  V30 COUNTS 3 2 0 0 0
M  V30 BEGIN ATOM
M  V30 1 N 0.0 0.0 0.0 0
M  V30 2 C -1.5 0.0 0.0 0
M  V30 3 C -3.0 0.0 0.0 0
M  V30 END ATOM
M  V30 BEGIN BOND
M  V30 1 3 1 2
M  V30 2 1 2 3
M  V30 END BOND
M  V30 END CTAB
M  END
>  <CAS_NUMBER>
75-05-8

>  <MOL_NAME>
MeCN

>  <Role>
Solvent

$$$$
7732-18-5
OCL MolfileCreator  2D

  0  0  0  0  0  0              0 V3000
M  V30 BEGIN CTAB
M  V30 COUNTS 1 0 0 0 0
M  V30 BEGIN ATOM
M  V30 1 O 0.0 0.0 0.0 0
M  V30 END ATOM
M  V30 BEGIN BOND
M  V30 END BOND
M  V30 END CTAB
M  END
>  <CAS_NUMBER>
7732-18-5

>  <MOL_NAME>
Water

>  <Role>
Solvent

$$$$
