EDS00495858
     RDKit          3D

 63 67  0  0  0  0  0  0  0  0999 V2000
   -4.1631   -1.7390   -3.0856 O   0  0  0  0  0  0  0  0  0  0  0  0
   -3.4340   -1.1681   -2.2834 C   0  0  0  0  0  0  0  0  0  0  0  0
   -2.0199   -1.6070   -2.0513 C   0  0  0  0  0  0  0  0  0  0  0  0
   -1.5261   -2.7223   -2.7122 C   0  0  0  0  0  0  0  0  0  0  0  0
   -0.2092   -3.0962   -2.4710 C   0  0  0  0  0  0  0  0  0  0  0  0
    0.5677   -2.3394   -1.5912 C   0  0  0  0  0  0  0  0  0  0  0  0
    1.9930   -2.6954   -1.2853 C   0  0  0  0  0  0  0  0  0  0  0  0
    2.8164   -1.4248   -1.0700 C   0  0  0  0  0  0  0  0  0  0  0  0
    2.2468   -0.5496   -0.0404 N   0  0  0  0  0  0  0  0  0  0  0  0
    0.7855   -0.4472    0.0637 C   0  0  0  0  0  0  0  0  0  0  0  0
    2.9820    0.2302    0.8480 C   0  0  0  0  0  0  0  0  0  0  0  0
    4.4381    0.3602    0.6736 C   0  0  0  0  0  0  0  0  0  0  0  0
    5.0117    0.8070   -0.5164 C   0  0  0  0  0  0  0  0  0  0  0  0
    6.3975    0.9312   -0.5909 C   0  0  0  0  0  0  0  0  0  0  0  0
    5.2702    0.1023    1.7538 C   0  0  0  0  0  0  0  0  0  0  0  0
    6.6220    0.2057    1.7031 N   0  0  0  0  0  0  0  0  0  0  0  0
    7.1514    0.6192    0.5318 C   0  0  0  0  0  0  0  0  0  0  0  0
    8.5175    0.7507    0.4083 O   0  0  0  0  0  0  0  0  0  0  0  0
    9.2204    0.4685    1.6275 C   0  0  0  0  0  0  0  0  0  0  0  0
   10.7137    0.6410    1.4224 C   0  0  0  0  0  0  0  0  0  0  0  0
   11.1889   -0.2007    0.4766 F   0  0  0  0  0  0  0  0  0  0  0  0
   11.0269    1.9026    1.0505 F   0  0  0  0  0  0  0  0  0  0  0  0
   11.3867    0.3796    2.5682 F   0  0  0  0  0  0  0  0  0  0  0  0
    2.4730    0.8292    1.7921 O   0  0  0  0  0  0  0  0  0  0  0  0
   -0.0096   -1.2350   -0.9565 C   0  0  0  0  0  0  0  0  0  0  0  0
   -1.2931   -0.8563   -1.1748 N   0  0  0  0  0  0  0  0  0  0  0  0
   -3.8207   -0.0842   -1.5291 N   0  0  0  0  0  0  0  0  0  0  0  0
   -5.1234    0.5153   -1.6605 C   0  0  0  0  0  0  0  0  0  0  0  0
   -5.3212    1.6289   -0.6617 C   0  0  0  0  0  0  0  0  0  0  0  0
   -4.7523    2.8773   -1.0036 C   0  0  0  0  0  0  0  0  0  0  0  0
   -4.9472    4.0110   -0.2169 C   0  0  0  0  0  0  0  0  0  0  0  0
   -5.7200    3.9250    0.9319 C   0  0  0  0  0  0  0  0  0  0  0  0
   -6.2811    2.7023    1.3027 C   0  0  0  0  0  0  0  0  0  0  0  0
   -6.0732    1.5402    0.5308 C   0  0  0  0  0  0  0  0  0  0  0  0
   -6.6380    0.3216    1.0193 N   0  0  0  0  0  0  0  0  0  0  0  0
   -6.1197   -0.9525    0.9043 C   0  0  0  0  0  0  0  0  0  0  0  0
   -6.9633   -1.8498    1.5223 C   0  0  0  0  0  0  0  0  0  0  0  0
   -8.0286   -1.1098    2.0698 C   0  0  0  0  0  0  0  0  0  0  0  0
   -7.7987    0.2145    1.7687 C   0  0  0  0  0  0  0  0  0  0  0  0
   -2.1530   -3.2869   -3.3952 H   0  0  0  0  0  0  0  0  0  0  0  0
    0.2023   -3.9696   -2.9709 H   0  0  0  0  0  0  0  0  0  0  0  0
    2.4319   -3.2712   -2.1080 H   0  0  0  0  0  0  0  0  0  0  0  0
    2.0140   -3.3209   -0.3849 H   0  0  0  0  0  0  0  0  0  0  0  0
    3.8389   -1.7078   -0.8031 H   0  0  0  0  0  0  0  0  0  0  0  0
    2.8578   -0.8389   -1.9965 H   0  0  0  0  0  0  0  0  0  0  0  0
    0.5192    0.6143   -0.0129 H   0  0  0  0  0  0  0  0  0  0  0  0
    0.4994   -0.7911    1.0653 H   0  0  0  0  0  0  0  0  0  0  0  0
    4.3944    1.0745   -1.3686 H   0  0  0  0  0  0  0  0  0  0  0  0
    6.8807    1.2747   -1.4993 H   0  0  0  0  0  0  0  0  0  0  0  0
    4.8646   -0.2053    2.7146 H   0  0  0  0  0  0  0  0  0  0  0  0
    9.0310   -0.5658    1.9395 H   0  0  0  0  0  0  0  0  0  0  0  0
    8.8952    1.1584    2.4158 H   0  0  0  0  0  0  0  0  0  0  0  0
   -3.1117    0.3402   -0.9365 H   0  0  0  0  0  0  0  0  0  0  0  0
   -5.9010   -0.2522   -1.6064 H   0  0  0  0  0  0  0  0  0  0  0  0
   -5.1995    0.9165   -2.6799 H   0  0  0  0  0  0  0  0  0  0  0  0
   -4.1613    2.9723   -1.9144 H   0  0  0  0  0  0  0  0  0  0  0  0
   -4.5028    4.9595   -0.5071 H   0  0  0  0  0  0  0  0  0  0  0  0
   -5.8767    4.8048    1.5508 H   0  0  0  0  0  0  0  0  0  0  0  0
   -6.8406    2.6702    2.2351 H   0  0  0  0  0  0  0  0  0  0  0  0
   -5.1667   -1.1326    0.4312 H   0  0  0  0  0  0  0  0  0  0  0  0
   -6.8093   -2.9192    1.5853 H   0  0  0  0  0  0  0  0  0  0  0  0
   -8.8730   -1.4944    2.6273 H   0  0  0  0  0  0  0  0  0  0  0  0
   -8.4007    1.0842    1.9924 H   0  0  0  0  0  0  0  0  0  0  0  0
  1  2  2  0
  2  3  1  0
  3  4  2  0
  4  5  1  0
  5  6  2  0
  6  7  1  0
  7  8  1  0
  8  9  1  0
  9 10  1  0
  9 11  1  0
 11 12  1  0
 12 13  2  0
 13 14  1  0
 12 15  1  0
 15 16  2  0
 16 17  1  0
 17 18  1  0
 18 19  1  0
 19 20  1  0
 20 21  1  0
 20 22  1  0
 20 23  1  0
 11 24  2  0
  6 25  1  0
 25 26  2  0
  2 27  1  0
 27 28  1  0
 28 29  1  0
 29 30  2  0
 30 31  1  0
 31 32  2  0
 32 33  1  0
 29 34  1  0
 34 35  1  0
 35 36  1  0
 36 37  2  0
 37 38  1  0
 38 39  2  0
 26  3  1  0
 34 33  2  0
 39 35  1  0
 25 10  1  0
 17 14  2  0
  4 40  1  0
  5 41  1  0
  7 42  1  0
  7 43  1  0
  8 44  1  0
  8 45  1  0
 10 46  1  0
 10 47  1  0
 13 48  1  0
 14 49  1  0
 15 50  1  0
 19 51  1  0
 19 52  1  0
 27 53  1  0
 28 54  1  0
 28 55  1  0
 30 56  1  0
 31 57  1  0
 32 58  1  0
 33 59  1  0
 36 60  1  0
 37 61  1  0
 38 62  1  0
 39 63  1  0
M  END
>  <AS_ratio>  (1) 
0.171957

>  <type>  (1) 
active

$$$$
EDS00480994
     RDKit          3D

 72 77  0  0  0  0  0  0  0  0999 V2000
   -7.6100    1.4959    0.5845 C   0  0  0  0  0  0  0  0  0  0  0  0
   -6.1545    1.5518    0.2897 C   0  0  0  0  0  0  0  0  0  0  0  0
   -5.1871    0.6462    0.7201 C   0  0  0  0  0  0  0  0  0  0  0  0
   -5.3153   -0.5313    1.5730 C   0  0  0  0  0  0  0  0  0  0  0  0
   -4.3419   -1.5388    1.5266 N   0  0  0  0  0  0  0  0  0  0  0  0
   -4.3402   -2.5646    2.5652 C   0  0  0  0  0  0  0  0  0  0  0  0
   -4.2123   -3.9590    1.9579 C   0  0  0  0  0  0  0  0  0  0  0  0
   -3.2012   -1.5463    0.6059 C   0  0  0  0  0  0  0  0  0  0  0  0
   -2.5336   -2.8958    0.4080 C   0  0  0  0  0  0  0  0  0  0  0  0
   -3.0144   -4.0421    1.0528 C   0  0  0  0  0  0  0  0  0  0  0  0
   -2.3858   -5.2664    0.8059 C   0  0  0  0  0  0  0  0  0  0  0  0
   -1.2858   -5.3145   -0.0428 C   0  0  0  0  0  0  0  0  0  0  0  0
   -0.8596   -4.1305   -0.6253 C   0  0  0  0  0  0  0  0  0  0  0  0
    0.3356   -4.1321   -1.5316 C   0  0  0  0  0  0  0  0  0  0  0  0
    0.6585   -2.8948   -2.0403 N   0  0  0  0  0  0  0  0  0  0  0  0
    1.8240   -2.6498   -2.8506 C   0  0  0  0  0  0  0  0  0  0  0  0
    2.7341   -1.6512   -2.1864 C   0  0  0  0  0  0  0  0  0  0  0  0
    2.8530   -0.3461   -2.6721 C   0  0  0  0  0  0  0  0  0  0  0  0
    3.7014    0.5763   -2.0435 C   0  0  0  0  0  0  0  0  0  0  0  0
    3.4741   -2.0119   -1.0572 C   0  0  0  0  0  0  0  0  0  0  0  0
    4.3131   -1.0828   -0.4327 C   0  0  0  0  0  0  0  0  0  0  0  0
    4.4433    0.2332   -0.9057 C   0  0  0  0  0  0  0  0  0  0  0  0
    5.3141    1.1160   -0.2469 N   0  0  0  0  0  0  0  0  0  0  0  0
    4.9060    1.4171    1.1468 C   0  0  0  0  0  0  0  0  0  0  0  0
    6.0340    2.1723    1.8926 C   0  0  0  0  0  0  0  0  0  0  0  0
    6.4710    3.3998    1.1898 N   0  0  0  0  0  0  0  0  0  0  0  0
    7.5695    4.0434    1.9051 C   0  0  0  0  0  0  0  0  0  0  0  0
    6.8792    3.0440   -0.1876 C   0  0  0  0  0  0  0  0  0  0  0  0
    5.7503    2.3296   -0.9683 C   0  0  0  0  0  0  0  0  0  0  0  0
    0.9558   -5.1620   -1.7714 O   0  0  0  0  0  0  0  0  0  0  0  0
   -1.4607   -2.9231   -0.4229 N   0  0  0  0  0  0  0  0  0  0  0  0
   -6.2843   -0.6534    2.3266 O   0  0  0  0  0  0  0  0  0  0  0  0
   -3.9568    1.0497    0.2756 O   0  0  0  0  0  0  0  0  0  0  0  0
   -4.1284    2.1779   -0.4586 C   0  0  0  0  0  0  0  0  0  0  0  0
   -5.4682    2.5369   -0.4850 C   0  0  0  0  0  0  0  0  0  0  0  0
   -5.8326    3.6941   -1.1999 C   0  0  0  0  0  0  0  0  0  0  0  0
   -4.8339    4.4289   -1.8559 C   0  0  0  0  0  0  0  0  0  0  0  0
   -3.4965    4.0290   -1.8045 C   0  0  0  0  0  0  0  0  0  0  0  0
   -3.1120    2.8856   -1.0968 C   0  0  0  0  0  0  0  0  0  0  0  0
   -7.7932    1.7164    1.6409 H   0  0  0  0  0  0  0  0  0  0  0  0
   -8.0122    0.5027    0.3598 H   0  0  0  0  0  0  0  0  0  0  0  0
   -8.1692    2.2218   -0.0136 H   0  0  0  0  0  0  0  0  0  0  0  0
   -5.2427   -2.5193    3.1819 H   0  0  0  0  0  0  0  0  0  0  0  0
   -3.4899   -2.3498    3.2250 H   0  0  0  0  0  0  0  0  0  0  0  0
   -5.1071   -4.1977    1.3709 H   0  0  0  0  0  0  0  0  0  0  0  0
   -4.1291   -4.6933    2.7672 H   0  0  0  0  0  0  0  0  0  0  0  0
   -3.5349   -1.2018   -0.3779 H   0  0  0  0  0  0  0  0  0  0  0  0
   -2.4541   -0.8511    1.0048 H   0  0  0  0  0  0  0  0  0  0  0  0
   -2.7442   -6.1807    1.2738 H   0  0  0  0  0  0  0  0  0  0  0  0
   -0.7724   -6.2500   -0.2421 H   0  0  0  0  0  0  0  0  0  0  0  0
    0.0926   -2.1124   -1.7249 H   0  0  0  0  0  0  0  0  0  0  0  0
    1.4687   -2.2683   -3.8145 H   0  0  0  0  0  0  0  0  0  0  0  0
    2.3705   -3.5788   -3.0497 H   0  0  0  0  0  0  0  0  0  0  0  0
    2.2895   -0.0302   -3.5467 H   0  0  0  0  0  0  0  0  0  0  0  0
    3.7512    1.5769   -2.4613 H   0  0  0  0  0  0  0  0  0  0  0  0
    3.4066   -3.0227   -0.6600 H   0  0  0  0  0  0  0  0  0  0  0  0
    4.8969   -1.4074    0.4246 H   0  0  0  0  0  0  0  0  0  0  0  0
    3.9953    2.0313    1.1404 H   0  0  0  0  0  0  0  0  0  0  0  0
    4.6852    0.5036    1.7119 H   0  0  0  0  0  0  0  0  0  0  0  0
    6.8841    1.4897    2.0272 H   0  0  0  0  0  0  0  0  0  0  0  0
    5.6650    2.4376    2.8911 H   0  0  0  0  0  0  0  0  0  0  0  0
    7.8682    4.9673    1.3966 H   0  0  0  0  0  0  0  0  0  0  0  0
    7.2536    4.3280    2.9146 H   0  0  0  0  0  0  0  0  0  0  0  0
    8.4508    3.3982    1.9893 H   0  0  0  0  0  0  0  0  0  0  0  0
    7.7653    2.3947   -0.1676 H   0  0  0  0  0  0  0  0  0  0  0  0
    7.1512    3.9549   -0.7351 H   0  0  0  0  0  0  0  0  0  0  0  0
    4.9102    3.0252   -1.0976 H   0  0  0  0  0  0  0  0  0  0  0  0
    6.1371    2.0627   -1.9596 H   0  0  0  0  0  0  0  0  0  0  0  0
   -6.8680    4.0181   -1.2472 H   0  0  0  0  0  0  0  0  0  0  0  0
   -5.1069    5.3236   -2.4120 H   0  0  0  0  0  0  0  0  0  0  0  0
   -2.7407    4.6169   -2.3214 H   0  0  0  0  0  0  0  0  0  0  0  0
   -2.0791    2.5627   -1.0441 H   0  0  0  0  0  0  0  0  0  0  0  0
  1  2  1  0
  2  3  2  0
  3  4  1  0
  4  5  1  0
  5  6  1  0
  6  7  1  0
  5  8  1  0
  8  9  1  0
  9 10  2  0
 10 11  1  0
 11 12  2  0
 12 13  1  0
 13 14  1  0
 14 15  1  0
 15 16  1  0
 16 17  1  0
 17 18  2  0
 18 19  1  0
 17 20  1  0
 20 21  2  0
 21 22  1  0
 22 23  1  0
 23 24  1  0
 24 25  1  0
 25 26  1  0
 26 27  1  0
 26 28  1  0
 28 29  1  0
 14 30  2  0
 13 31  2  0
  4 32  2  0
  3 33  1  0
 33 34  1  0
 34 35  2  0
 35 36  1  0
 36 37  2  0
 37 38  1  0
 38 39  2  0
 35  2  1  0
 10  7  1  0
 22 19  2  0
 29 23  1  0
 39 34  1  0
 31  9  1  0
  1 40  1  0
  1 41  1  0
  1 42  1  0
  6 43  1  0
  6 44  1  0
  7 45  1  0
  7 46  1  0
  8 47  1  0
  8 48  1  0
 11 49  1  0
 12 50  1  0
 15 51  1  0
 16 52  1  0
 16 53  1  0
 18 54  1  0
 19 55  1  0
 20 56  1  0
 21 57  1  0
 24 58  1  0
 24 59  1  0
 25 60  1  0
 25 61  1  0
 27 62  1  0
 27 63  1  0
 27 64  1  0
 28 65  1  0
 28 66  1  0
 29 67  1  0
 29 68  1  0
 36 69  1  0
 37 70  1  0
 38 71  1  0
 39 72  1  0
M  END
>  <AS_ratio>  (2) 
0.0890564

>  <type>  (2) 
active

$$$$
EDS00469766
     RDKit          3D

 51 54  0  0  0  0  0  0  0  0999 V2000
   -3.5344   -1.2076    2.8638 O   0  0  0  0  0  0  0  0  0  0  0  0
   -2.8214   -0.6293    2.0531 C   0  0  0  0  0  0  0  0  0  0  0  0
   -1.3462   -0.8834    1.9759 C   0  0  0  0  0  0  0  0  0  0  0  0
   -0.7484   -1.7671    2.8601 C   0  0  0  0  0  0  0  0  0  0  0  0
    0.6204   -1.9767    2.7450 C   0  0  0  0  0  0  0  0  0  0  0  0
    1.3428   -1.3052    1.7524 C   0  0  0  0  0  0  0  0  0  0  0  0
    2.8293   -1.4847    1.6313 C   0  0  0  0  0  0  0  0  0  0  0  0
    3.3311   -1.1727    0.2221 C   0  0  0  0  0  0  0  0  0  0  0  0
    2.8428    0.1231   -0.2454 N   0  0  0  0  0  0  0  0  0  0  0  0
    1.4014    0.3585   -0.1620 C   0  0  0  0  0  0  0  0  0  0  0  0
    3.5484    0.9645   -1.1172 C   0  0  0  0  0  0  0  0  0  0  0  0
    4.9288    0.5939   -1.5399 C   0  0  0  0  0  0  0  0  0  0  0  0
    5.0435   -0.6302   -2.1428 N   0  0  0  0  0  0  0  0  0  0  0  0
    6.2646   -0.9675   -2.6071 C   0  0  0  0  0  0  0  0  0  0  0  0
    7.3801   -0.1544   -2.4909 C   0  0  0  0  0  0  0  0  0  0  0  0
    7.2406    1.0807   -1.8596 C   0  0  0  0  0  0  0  0  0  0  0  0
    5.9936    1.4744   -1.3729 C   0  0  0  0  0  0  0  0  0  0  0  0
    5.8767    2.9868   -0.5568 Cl  0  0  0  0  0  0  0  0  0  0  0  0
    3.0572    1.9963   -1.5746 O   0  0  0  0  0  0  0  0  0  0  0  0
    0.6651   -0.4161    0.9115 C   0  0  0  0  0  0  0  0  0  0  0  0
   -0.6738   -0.2053    1.0024 N   0  0  0  0  0  0  0  0  0  0  0  0
   -3.2809    0.2915    1.1324 N   0  0  0  0  0  0  0  0  0  0  0  0
   -4.6865    0.6265    0.9810 C   0  0  0  0  0  0  0  0  0  0  0  0
   -4.8459    1.9857    0.2870 C   0  0  0  0  0  0  0  0  0  0  0  0
   -4.4829    1.9353   -1.1980 C   0  0  0  0  0  0  0  0  0  0  0  0
   -5.4432   -0.4761    0.2231 C   0  0  0  0  0  0  0  0  0  0  0  0
   -5.0634   -0.5303   -1.2561 C   0  0  0  0  0  0  0  0  0  0  0  0
   -5.2309    0.8259   -1.9172 C   0  0  0  0  0  0  0  0  0  0  0  0
   -6.5528    1.1394   -1.9587 F   0  0  0  0  0  0  0  0  0  0  0  0
   -4.8114    0.7577   -3.2048 F   0  0  0  0  0  0  0  0  0  0  0  0
   -1.3332   -2.2774    3.6196 H   0  0  0  0  0  0  0  0  0  0  0  0
    1.1183   -2.6592    3.4298 H   0  0  0  0  0  0  0  0  0  0  0  0
    3.1118   -2.5121    1.8891 H   0  0  0  0  0  0  0  0  0  0  0  0
    3.3125   -0.8124    2.3513 H   0  0  0  0  0  0  0  0  0  0  0  0
    4.4239   -1.1945    0.2392 H   0  0  0  0  0  0  0  0  0  0  0  0
    2.9864   -1.9296   -0.4931 H   0  0  0  0  0  0  0  0  0  0  0  0
    0.9745    0.0892   -1.1360 H   0  0  0  0  0  0  0  0  0  0  0  0
    1.2273    1.4293   -0.0034 H   0  0  0  0  0  0  0  0  0  0  0  0
    6.3265   -1.9381   -3.0937 H   0  0  0  0  0  0  0  0  0  0  0  0
    8.3388   -0.4742   -2.8851 H   0  0  0  0  0  0  0  0  0  0  0  0
    8.1050    1.7327   -1.7540 H   0  0  0  0  0  0  0  0  0  0  0  0
   -2.5738    0.6494    0.4927 H   0  0  0  0  0  0  0  0  0  0  0  0
   -5.1066    0.6980    1.9923 H   0  0  0  0  0  0  0  0  0  0  0  0
   -4.2290    2.7432    0.7863 H   0  0  0  0  0  0  0  0  0  0  0  0
   -5.8895    2.3124    0.3837 H   0  0  0  0  0  0  0  0  0  0  0  0
   -4.7252    2.8987   -1.6611 H   0  0  0  0  0  0  0  0  0  0  0  0
   -3.4028    1.7942   -1.3240 H   0  0  0  0  0  0  0  0  0  0  0  0
   -5.2622   -1.4567    0.6782 H   0  0  0  0  0  0  0  0  0  0  0  0
   -6.5214   -0.2858    0.3055 H   0  0  0  0  0  0  0  0  0  0  0  0
   -5.6968   -1.2660   -1.7657 H   0  0  0  0  0  0  0  0  0  0  0  0
   -4.0286   -0.8746   -1.3722 H   0  0  0  0  0  0  0  0  0  0  0  0
  1  2  2  0
  2  3  1  0
  3  4  2  0
  4  5  1  0
  5  6  2  0
  6  7  1  0
  7  8  1  0
  8  9  1  0
  9 10  1  0
  9 11  1  0
 11 12  1  0
 12 13  2  0
 13 14  1  0
 14 15  2  0
 15 16  1  0
 12 17  1  0
 17 18  1  0
 11 19  2  0
  6 20  1  0
 20 21  2  0
  2 22  1  0
 22 23  1  0
 23 24  1  0
 24 25  1  0
 23 26  1  0
 26 27  1  0
 27 28  1  0
 28 29  1  0
 28 30  1  0
 21  3  1  0
 28 25  1  0
 20 10  1  0
 17 16  2  0
  4 31  1  0
  5 32  1  0
  7 33  1  0
  7 34  1  0
  8 35  1  0
  8 36  1  0
 10 37  1  0
 10 38  1  0
 14 39  1  0
 15 40  1  0
 16 41  1  0
 22 42  1  0
 23 43  1  0
 24 44  1  0
 24 45  1  0
 25 46  1  0
 25 47  1  0
 26 48  1  0
 26 49  1  0
 27 50  1  0
 27 51  1  0
M  END
>  <AS_ratio>  (3) 
0.0333112

>  <type>  (3) 
active

$$$$
EDS00490594
     RDKit          3D

 76 81  0  0  0  0  0  0  0  0999 V2000
   10.2273    1.6729    1.7130 C   0  0  0  0  0  0  0  0  0  0  0  0
    8.9149    2.2069    1.3665 N   0  0  0  0  0  0  0  0  0  0  0  0
    7.8395    1.4285    2.0113 C   0  0  0  0  0  0  0  0  0  0  0  0
    6.4425    1.6860    1.3872 C   0  0  0  0  0  0  0  0  0  0  0  0
    8.7153    2.2946   -0.0986 C   0  0  0  0  0  0  0  0  0  0  0  0
    7.7351    1.2638   -0.7152 C   0  0  0  0  0  0  0  0  0  0  0  0
    6.4319    1.3067   -0.0359 N   0  0  0  0  0  0  0  0  0  0  0  0
    5.2680    0.8923   -0.6580 C   0  0  0  0  0  0  0  0  0  0  0  0
    4.0055    1.3488   -0.2472 C   0  0  0  0  0  0  0  0  0  0  0  0
    2.8232    0.9555   -0.8953 C   0  0  0  0  0  0  0  0  0  0  0  0
    2.8641    0.0646   -1.9718 C   0  0  0  0  0  0  0  0  0  0  0  0
    1.6088   -0.3501   -2.6980 C   0  0  0  0  0  0  0  0  0  0  0  0
    0.6778   -1.0485   -1.8495 N   0  0  0  0  0  0  0  0  0  0  0  0
    0.7719   -2.3963   -1.5866 C   0  0  0  0  0  0  0  0  0  0  0  0
   -0.3357   -2.9362   -0.7301 C   0  0  0  0  0  0  0  0  0  0  0  0
   -0.2265   -4.2113   -0.1955 C   0  0  0  0  0  0  0  0  0  0  0  0
   -1.2656   -4.6764    0.6005 C   0  0  0  0  0  0  0  0  0  0  0  0
   -2.3889   -3.8696    0.8134 C   0  0  0  0  0  0  0  0  0  0  0  0
   -3.5034   -4.3372    1.7082 C   0  0  0  0  0  0  0  0  0  0  0  0
   -4.8305   -3.6724    1.3550 C   0  0  0  0  0  0  0  0  0  0  0  0
   -4.6962   -2.2222    1.2709 N   0  0  0  0  0  0  0  0  0  0  0  0
   -3.6605   -1.7170    0.3596 C   0  0  0  0  0  0  0  0  0  0  0  0
   -5.7640   -1.4444    1.7127 C   0  0  0  0  0  0  0  0  0  0  0  0
   -5.7760   -0.0057    1.3995 C   0  0  0  0  0  0  0  0  0  0  0  0
   -5.3851    0.8850    2.3974 C   0  0  0  0  0  0  0  0  0  0  0  0
   -5.3888    2.2560    2.1354 C   0  0  0  0  0  0  0  0  0  0  0  0
   -5.7765    2.7477    0.8756 C   0  0  0  0  0  0  0  0  0  0  0  0
   -6.1829    1.8465   -0.1411 C   0  0  0  0  0  0  0  0  0  0  0  0
   -6.5419    2.3730   -1.4029 C   0  0  0  0  0  0  0  0  0  0  0  0
   -6.5152    3.7458   -1.6512 C   0  0  0  0  0  0  0  0  0  0  0  0
   -6.1250    4.6226   -0.6432 C   0  0  0  0  0  0  0  0  0  0  0  0
   -5.7603    4.1269    0.6113 C   0  0  0  0  0  0  0  0  0  0  0  0
   -6.2112    0.4639    0.1533 C   0  0  0  0  0  0  0  0  0  0  0  0
   -6.6162   -0.4337   -0.8119 O   0  0  0  0  0  0  0  0  0  0  0  0
   -8.0272   -0.6598   -0.7079 C   0  0  0  0  0  0  0  0  0  0  0  0
   -6.6994   -1.8766    2.3817 O   0  0  0  0  0  0  0  0  0  0  0  0
   -2.4285   -2.5974    0.2271 C   0  0  0  0  0  0  0  0  0  0  0  0
   -1.4082   -2.1142   -0.5318 N   0  0  0  0  0  0  0  0  0  0  0  0
    1.6662   -3.1221   -2.0063 O   0  0  0  0  0  0  0  0  0  0  0  0
    4.1103   -0.4197   -2.3772 C   0  0  0  0  0  0  0  0  0  0  0  0
    5.2867   -0.0032   -1.7364 C   0  0  0  0  0  0  0  0  0  0  0  0
   11.0143    2.3264    1.3281 H   0  0  0  0  0  0  0  0  0  0  0  0
   10.3565    1.6390    2.8020 H   0  0  0  0  0  0  0  0  0  0  0  0
   10.3907    0.6657    1.3121 H   0  0  0  0  0  0  0  0  0  0  0  0
    8.0547    0.3531    1.9418 H   0  0  0  0  0  0  0  0  0  0  0  0
    7.8082    1.6874    3.0781 H   0  0  0  0  0  0  0  0  0  0  0  0
    6.1783    2.7485    1.4861 H   0  0  0  0  0  0  0  0  0  0  0  0
    5.7095    1.0969    1.9527 H   0  0  0  0  0  0  0  0  0  0  0  0
    9.6719    2.2425   -0.6342 H   0  0  0  0  0  0  0  0  0  0  0  0
    8.3212    3.3003   -0.2980 H   0  0  0  0  0  0  0  0  0  0  0  0
    7.6202    1.5043   -1.7806 H   0  0  0  0  0  0  0  0  0  0  0  0
    8.1584    0.2529   -0.6362 H   0  0  0  0  0  0  0  0  0  0  0  0
    3.9230    2.0546    0.5742 H   0  0  0  0  0  0  0  0  0  0  0  0
    1.8728    1.3547   -0.5523 H   0  0  0  0  0  0  0  0  0  0  0  0
    1.8488   -0.9907   -3.5557 H   0  0  0  0  0  0  0  0  0  0  0  0
    1.1006    0.5399   -3.0885 H   0  0  0  0  0  0  0  0  0  0  0  0
   -0.1303   -0.5650   -1.4685 H   0  0  0  0  0  0  0  0  0  0  0  0
    0.6533   -4.8217   -0.3831 H   0  0  0  0  0  0  0  0  0  0  0  0
   -1.1951   -5.6659    1.0492 H   0  0  0  0  0  0  0  0  0  0  0  0
   -3.6179   -5.4255    1.6356 H   0  0  0  0  0  0  0  0  0  0  0  0
   -3.2305   -4.0924    2.7438 H   0  0  0  0  0  0  0  0  0  0  0  0
   -5.1939   -4.0196    0.3798 H   0  0  0  0  0  0  0  0  0  0  0  0
   -5.5819   -3.9517    2.0992 H   0  0  0  0  0  0  0  0  0  0  0  0
   -4.1198   -1.6312   -0.6335 H   0  0  0  0  0  0  0  0  0  0  0  0
   -3.3502   -0.7185    0.6836 H   0  0  0  0  0  0  0  0  0  0  0  0
   -5.0837    0.5176    3.3760 H   0  0  0  0  0  0  0  0  0  0  0  0
   -5.0794    2.9432    2.9228 H   0  0  0  0  0  0  0  0  0  0  0  0
   -6.8414    1.7034   -2.2078 H   0  0  0  0  0  0  0  0  0  0  0  0
   -6.8022    4.1260   -2.6297 H   0  0  0  0  0  0  0  0  0  0  0  0
   -6.0978    5.6946   -0.8295 H   0  0  0  0  0  0  0  0  0  0  0  0
   -5.4564    4.8312    1.3828 H   0  0  0  0  0  0  0  0  0  0  0  0
   -8.3071   -1.3586   -1.5053 H   0  0  0  0  0  0  0  0  0  0  0  0
   -8.5909    0.2652   -0.8546 H   0  0  0  0  0  0  0  0  0  0  0  0
   -8.2897   -1.1156    0.2515 H   0  0  0  0  0  0  0  0  0  0  0  0
    4.1853   -1.1406   -3.1894 H   0  0  0  0  0  0  0  0  0  0  0  0
    6.2251   -0.4250   -2.0853 H   0  0  0  0  0  0  0  0  0  0  0  0
  1  2  1  0
  2  3  1  0
  3  4  1  0
  2  5  1  0
  5  6  1  0
  6  7  1  0
  7  8  1  0
  8  9  2  0
  9 10  1  0
 10 11  2  0
 11 12  1  0
 12 13  1  0
 13 14  1  0
 14 15  1  0
 15 16  2  0
 16 17  1  0
 17 18  2  0
 18 19  1  0
 19 20  1  0
 20 21  1  0
 21 22  1  0
 21 23  1  0
 23 24  1  0
 24 25  2  0
 25 26  1  0
 26 27  2  0
 27 28  1  0
 28 29  1  0
 29 30  2  0
 30 31  1  0
 31 32  2  0
 24 33  1  0
 33 34  1  0
 34 35  1  0
 23 36  2  0
 18 37  1  0
 37 38  2  0
 14 39  2  0
 11 40  1  0
 40 41  2  0
  7  4  1  0
 41  8  1  0
 38 15  1  0
 37 22  1  0
 32 27  1  0
 33 28  2  0
  1 42  1  0
  1 43  1  0
  1 44  1  0
  3 45  1  0
  3 46  1  0
  4 47  1  0
  4 48  1  0
  5 49  1  0
  5 50  1  0
  6 51  1  0
  6 52  1  0
  9 53  1  0
 10 54  1  0
 12 55  1  0
 12 56  1  0
 13 57  1  0
 16 58  1  0
 17 59  1  0
 19 60  1  0
 19 61  1  0
 20 62  1  0
 20 63  1  0
 22 64  1  0
 22 65  1  0
 25 66  1  0
 26 67  1  0
 29 68  1  0
 30 69  1  0
 31 70  1  0
 32 71  1  0
 35 72  1  0
 35 73  1  0
 35 74  1  0
 40 75  1  0
 41 76  1  0
M  END
>  <AS_ratio>  (4) 
0.0301407

>  <type>  (4) 
active

$$$$
EDS00459346
     RDKit          3D

 64 68  0  0  0  0  0  0  0  0999 V2000
    8.1293   -0.6044    3.2386 C   0  0  0  0  0  0  0  0  0  0  0  0
    7.0016   -0.9051    2.3267 C   0  0  0  0  0  0  0  0  0  0  0  0
    5.6974   -0.4613    2.3329 C   0  0  0  0  0  0  0  0  0  0  0  0
    5.0681   -1.0531    1.2014 C   0  0  0  0  0  0  0  0  0  0  0  0
    3.6452   -0.8670    0.8348 C   0  0  0  0  0  0  0  0  0  0  0  0
    3.1976   -1.1440   -0.4691 N   0  0  0  0  0  0  0  0  0  0  0  0
    4.0433   -1.1497   -1.6622 C   0  0  0  0  0  0  0  0  0  0  0  0
    4.1157    0.2653   -2.2459 C   0  0  0  0  0  0  0  0  0  0  0  0
    1.8007   -0.8409   -0.7741 C   0  0  0  0  0  0  0  0  0  0  0  0
    1.6568    0.4193   -1.6145 C   0  0  0  0  0  0  0  0  0  0  0  0
    2.7521    0.9100   -2.3472 C   0  0  0  0  0  0  0  0  0  0  0  0
    2.5724    2.0549   -3.1302 C   0  0  0  0  0  0  0  0  0  0  0  0
    1.3237    2.6644   -3.1802 C   0  0  0  0  0  0  0  0  0  0  0  0
    0.2933    2.1067   -2.4373 C   0  0  0  0  0  0  0  0  0  0  0  0
   -1.0638    2.7441   -2.4526 C   0  0  0  0  0  0  0  0  0  0  0  0
   -1.9778    2.1466   -1.6164 N   0  0  0  0  0  0  0  0  0  0  0  0
   -3.3800    2.5025   -1.6307 C   0  0  0  0  0  0  0  0  0  0  0  0
   -4.0706    2.1058   -0.3474 C   0  0  0  0  0  0  0  0  0  0  0  0
   -4.9868    1.1030   -0.4114 N   0  0  0  0  0  0  0  0  0  0  0  0
   -5.5933    0.6929    0.7232 C   0  0  0  0  0  0  0  0  0  0  0  0
   -6.5511   -0.3417    0.6722 N   0  0  0  0  0  0  0  0  0  0  0  0
   -6.1419   -1.5315    1.4528 C   0  0  0  0  0  0  0  0  0  0  0  0
   -7.2458   -2.6006    1.3936 C   0  0  0  0  0  0  0  0  0  0  0  0
   -7.5698   -2.9561    0.0397 O   0  0  0  0  0  0  0  0  0  0  0  0
   -8.0137   -1.7939   -0.6810 C   0  0  0  0  0  0  0  0  0  0  0  0
   -6.9294   -0.7054   -0.7119 C   0  0  0  0  0  0  0  0  0  0  0  0
   -5.3089    1.3069    1.9451 C   0  0  0  0  0  0  0  0  0  0  0  0
   -4.3710    2.3342    2.0088 C   0  0  0  0  0  0  0  0  0  0  0  0
   -3.7376    2.7402    0.8450 C   0  0  0  0  0  0  0  0  0  0  0  0
   -1.3130    3.7150   -3.1584 O   0  0  0  0  0  0  0  0  0  0  0  0
    0.4269    0.9911   -1.6641 N   0  0  0  0  0  0  0  0  0  0  0  0
    2.8596   -0.4558    1.6931 O   0  0  0  0  0  0  0  0  0  0  0  0
    5.9389   -1.8508    0.5564 N   0  0  0  0  0  0  0  0  0  0  0  0
    7.0875   -1.7466    1.2516 N   0  0  0  0  0  0  0  0  0  0  0  0
    8.2438   -2.4899    0.8039 C   0  0  0  0  0  0  0  0  0  0  0  0
    7.8361    0.1341    3.9927 H   0  0  0  0  0  0  0  0  0  0  0  0
    8.9774   -0.1960    2.6777 H   0  0  0  0  0  0  0  0  0  0  0  0
    8.4585   -1.5076    3.7627 H   0  0  0  0  0  0  0  0  0  0  0  0
    5.2378    0.2077    3.0479 H   0  0  0  0  0  0  0  0  0  0  0  0
    3.5821   -1.8358   -2.3846 H   0  0  0  0  0  0  0  0  0  0  0  0
    5.0492   -1.5205   -1.4885 H   0  0  0  0  0  0  0  0  0  0  0  0
    4.7412    0.8961   -1.6013 H   0  0  0  0  0  0  0  0  0  0  0  0
    4.5844    0.2215   -3.2354 H   0  0  0  0  0  0  0  0  0  0  0  0
    1.1946   -0.7512    0.1328 H   0  0  0  0  0  0  0  0  0  0  0  0
    1.4035   -1.6836   -1.3531 H   0  0  0  0  0  0  0  0  0  0  0  0
    3.4009    2.4773   -3.6947 H   0  0  0  0  0  0  0  0  0  0  0  0
    1.1594    3.5559   -3.7766 H   0  0  0  0  0  0  0  0  0  0  0  0
   -1.6939    1.2630   -1.1999 H   0  0  0  0  0  0  0  0  0  0  0  0
   -3.4937    3.5801   -1.8028 H   0  0  0  0  0  0  0  0  0  0  0  0
   -3.8374    1.9835   -2.4827 H   0  0  0  0  0  0  0  0  0  0  0  0
   -5.9616   -1.2845    2.5043 H   0  0  0  0  0  0  0  0  0  0  0  0
   -5.2158   -1.9462    1.0318 H   0  0  0  0  0  0  0  0  0  0  0  0
   -6.9085   -3.5099    1.9017 H   0  0  0  0  0  0  0  0  0  0  0  0
   -8.1566   -2.2542    1.8974 H   0  0  0  0  0  0  0  0  0  0  0  0
   -8.9361   -1.4219   -0.2192 H   0  0  0  0  0  0  0  0  0  0  0  0
   -8.2528   -2.1092   -1.7012 H   0  0  0  0  0  0  0  0  0  0  0  0
   -6.0577   -1.0951   -1.2547 H   0  0  0  0  0  0  0  0  0  0  0  0
   -7.3244    0.1670   -1.2458 H   0  0  0  0  0  0  0  0  0  0  0  0
   -5.8253    0.9997    2.8464 H   0  0  0  0  0  0  0  0  0  0  0  0
   -4.1414    2.8115    2.9581 H   0  0  0  0  0  0  0  0  0  0  0  0
   -2.9926    3.5302    0.8649 H   0  0  0  0  0  0  0  0  0  0  0  0
    7.9104   -3.3655    0.2400 H   0  0  0  0  0  0  0  0  0  0  0  0
    8.8223   -2.8181    1.6700 H   0  0  0  0  0  0  0  0  0  0  0  0
    8.8409   -1.8337    0.1653 H   0  0  0  0  0  0  0  0  0  0  0  0
  1  2  1  0
  2  3  2  0
  3  4  1  0
  4  5  1  0
  5  6  1  0
  6  7  1  0
  7  8  1  0
  6  9  1  0
  9 10  1  0
 10 11  2  0
 11 12  1  0
 12 13  2  0
 13 14  1  0
 14 15  1  0
 15 16  1  0
 16 17  1  0
 17 18  1  0
 18 19  2  0
 19 20  1  0
 20 21  1  0
 21 22  1  0
 22 23  1  0
 23 24  1  0
 24 25  1  0
 25 26  1  0
 20 27  2  0
 27 28  1  0
 28 29  2  0
 15 30  2  0
 14 31  2  0
  5 32  2  0
  4 33  2  0
 33 34  1  0
 34 35  1  0
 34  2  1  0
 11  8  1  0
 29 18  1  0
 31 10  1  0
 26 21  1  0
  1 36  1  0
  1 37  1  0
  1 38  1  0
  3 39  1  0
  7 40  1  0
  7 41  1  0
  8 42  1  0
  8 43  1  0
  9 44  1  0
  9 45  1  0
 12 46  1  0
 13 47  1  0
 16 48  1  0
 17 49  1  0
 17 50  1  0
 22 51  1  0
 22 52  1  0
 23 53  1  0
 23 54  1  0
 25 55  1  0
 25 56  1  0
 26 57  1  0
 26 58  1  0
 27 59  1  0
 28 60  1  0
 29 61  1  0
 35 62  1  0
 35 63  1  0
 35 64  1  0
M  END
>  <AS_ratio>  (5) 
0.0207765

>  <type>  (5) 
active

$$$$
EDS00481762
     RDKit          3D

 69 74  0  0  0  0  0  0  0  0999 V2000
   -9.7478   -1.6215    1.7745 C   0  0  0  0  0  0  0  0  0  0  0  0
   -8.8268   -0.6616    2.3769 N   0  0  0  0  0  0  0  0  0  0  0  0
   -7.4885   -1.2762    2.5640 C   0  0  0  0  0  0  0  0  0  0  0  0
   -6.3276   -0.2621    2.4906 C   0  0  0  0  0  0  0  0  0  0  0  0
   -8.7414    0.5885    1.5893 C   0  0  0  0  0  0  0  0  0  0  0  0
   -7.5981    0.6443    0.5471 C   0  0  0  0  0  0  0  0  0  0  0  0
   -6.2706    0.3724    1.1577 N   0  0  0  0  0  0  0  0  0  0  0  0
   -5.3051   -0.0247    0.2226 C   0  0  0  0  0  0  0  0  0  0  0  0
   -4.6168   -1.2429    0.2847 C   0  0  0  0  0  0  0  0  0  0  0  0
   -3.6766   -1.6059   -0.6903 C   0  0  0  0  0  0  0  0  0  0  0  0
   -3.3971   -0.7558   -1.7641 C   0  0  0  0  0  0  0  0  0  0  0  0
   -2.3873   -1.1354   -2.8144 C   0  0  0  0  0  0  0  0  0  0  0  0
   -1.0992   -0.5558   -2.5328 N   0  0  0  0  0  0  0  0  0  0  0  0
   -0.6738    0.6264   -3.0978 C   0  0  0  0  0  0  0  0  0  0  0  0
    0.6119    1.1515   -2.5302 C   0  0  0  0  0  0  0  0  0  0  0  0
    1.1133    2.3676   -2.9740 C   0  0  0  0  0  0  0  0  0  0  0  0
    2.2984    2.8324   -2.4155 C   0  0  0  0  0  0  0  0  0  0  0  0
    2.9461    2.0602   -1.4502 C   0  0  0  0  0  0  0  0  0  0  0  0
    4.2240    2.4993   -0.7985 C   0  0  0  0  0  0  0  0  0  0  0  0
    5.1337    1.2910   -0.5683 C   0  0  0  0  0  0  0  0  0  0  0  0
    4.4806    0.2092    0.1757 N   0  0  0  0  0  0  0  0  0  0  0  0
    3.0299    0.0366    0.0421 C   0  0  0  0  0  0  0  0  0  0  0  0
    5.1335   -0.6639    1.0519 C   0  0  0  0  0  0  0  0  0  0  0  0
    6.5861   -0.6679    1.0882 C   0  0  0  0  0  0  0  0  0  0  0  0
    7.3900   -0.5126    2.1980 C   0  0  0  0  0  0  0  0  0  0  0  0
    8.7891   -0.6290    1.9024 C   0  0  0  0  0  0  0  0  0  0  0  0
    9.9222   -0.5092    2.7430 C   0  0  0  0  0  0  0  0  0  0  0  0
   11.2098   -0.6712    2.2222 C   0  0  0  0  0  0  0  0  0  0  0  0
   11.3916   -0.9546    0.8756 C   0  0  0  0  0  0  0  0  0  0  0  0
   10.2922   -1.0831    0.0234 C   0  0  0  0  0  0  0  0  0  0  0  0
    8.9968   -0.9186    0.5518 C   0  0  0  0  0  0  0  0  0  0  0  0
    7.5051   -1.0493   -0.2986 S   0  0  0  0  0  0  0  0  0  0  0  0
    4.4815   -1.3934    1.8013 O   0  0  0  0  0  0  0  0  0  0  0  0
    2.3735    0.8467   -1.0561 C   0  0  0  0  0  0  0  0  0  0  0  0
    1.2110    0.3823   -1.5761 N   0  0  0  0  0  0  0  0  0  0  0  0
   -1.2757    1.2267   -3.9810 O   0  0  0  0  0  0  0  0  0  0  0  0
   -4.0561    0.4740   -1.8274 C   0  0  0  0  0  0  0  0  0  0  0  0
   -4.9937    0.8270   -0.8506 C   0  0  0  0  0  0  0  0  0  0  0  0
   -9.8166   -2.5260    2.3900 H   0  0  0  0  0  0  0  0  0  0  0  0
  -10.7595   -1.2021    1.7193 H   0  0  0  0  0  0  0  0  0  0  0  0
   -9.4468   -1.9134    0.7626 H   0  0  0  0  0  0  0  0  0  0  0  0
   -7.4733   -1.7738    3.5408 H   0  0  0  0  0  0  0  0  0  0  0  0
   -7.3113   -2.0488    1.8040 H   0  0  0  0  0  0  0  0  0  0  0  0
   -6.4884    0.5278    3.2369 H   0  0  0  0  0  0  0  0  0  0  0  0
   -5.3801   -0.7331    2.7763 H   0  0  0  0  0  0  0  0  0  0  0  0
   -8.5909    1.4084    2.3046 H   0  0  0  0  0  0  0  0  0  0  0  0
   -9.6978    0.8085    1.0978 H   0  0  0  0  0  0  0  0  0  0  0  0
   -7.5935    1.6411    0.0904 H   0  0  0  0  0  0  0  0  0  0  0  0
   -7.8140   -0.0895   -0.2421 H   0  0  0  0  0  0  0  0  0  0  0  0
   -4.8136   -1.9580    1.0759 H   0  0  0  0  0  0  0  0  0  0  0  0
   -3.1734   -2.5655   -0.6054 H   0  0  0  0  0  0  0  0  0  0  0  0
   -2.2573   -2.2226   -2.8440 H   0  0  0  0  0  0  0  0  0  0  0  0
   -2.7397   -0.8252   -3.8047 H   0  0  0  0  0  0  0  0  0  0  0  0
   -0.5642   -0.8845   -1.7344 H   0  0  0  0  0  0  0  0  0  0  0  0
    0.5881    2.9414   -3.7307 H   0  0  0  0  0  0  0  0  0  0  0  0
    2.7076    3.7867   -2.7366 H   0  0  0  0  0  0  0  0  0  0  0  0
    3.9831    2.9833    0.1549 H   0  0  0  0  0  0  0  0  0  0  0  0
    4.7473    3.2303   -1.4251 H   0  0  0  0  0  0  0  0  0  0  0  0
    6.0319    1.6210   -0.0387 H   0  0  0  0  0  0  0  0  0  0  0  0
    5.4425    0.8705   -1.5324 H   0  0  0  0  0  0  0  0  0  0  0  0
    2.5757    0.3234    0.9984 H   0  0  0  0  0  0  0  0  0  0  0  0
    2.8237   -1.0291   -0.1187 H   0  0  0  0  0  0  0  0  0  0  0  0
    6.9918   -0.3172    3.1875 H   0  0  0  0  0  0  0  0  0  0  0  0
    9.7934   -0.2912    3.8005 H   0  0  0  0  0  0  0  0  0  0  0  0
   12.0720   -0.5779    2.8786 H   0  0  0  0  0  0  0  0  0  0  0  0
   12.3963   -1.0839    0.4790 H   0  0  0  0  0  0  0  0  0  0  0  0
   10.4376   -1.3139   -1.0282 H   0  0  0  0  0  0  0  0  0  0  0  0
   -3.8384    1.1707   -2.6349 H   0  0  0  0  0  0  0  0  0  0  0  0
   -5.4701    1.8012   -0.9219 H   0  0  0  0  0  0  0  0  0  0  0  0
  1  2  1  0
  2  3  1  0
  3  4  1  0
  2  5  1  0
  5  6  1  0
  6  7  1  0
  7  8  1  0
  8  9  2  0
  9 10  1  0
 10 11  2  0
 11 12  1  0
 12 13  1  0
 13 14  1  0
 14 15  1  0
 15 16  2  0
 16 17  1  0
 17 18  2  0
 18 19  1  0
 19 20  1  0
 20 21  1  0
 21 22  1  0
 21 23  1  0
 23 24  1  0
 24 25  2  0
 25 26  1  0
 26 27  2  0
 27 28  1  0
 28 29  2  0
 29 30  1  0
 26 31  1  0
 31 32  1  0
 23 33  2  0
 18 34  1  0
 34 35  2  0
 14 36  2  0
 11 37  1  0
 37 38  2  0
  7  4  1  0
 38  8  1  0
 35 15  1  0
 34 22  1  0
 32 24  1  0
 31 30  2  0
  1 39  1  0
  1 40  1  0
  1 41  1  0
  3 42  1  0
  3 43  1  0
  4 44  1  0
  4 45  1  0
  5 46  1  0
  5 47  1  0
  6 48  1  0
  6 49  1  0
  9 50  1  0
 10 51  1  0
 12 52  1  0
 12 53  1  0
 13 54  1  0
 16 55  1  0
 17 56  1  0
 19 57  1  0
 19 58  1  0
 20 59  1  0
 20 60  1  0
 22 61  1  0
 22 62  1  0
 25 63  1  0
 27 64  1  0
 28 65  1  0
 29 66  1  0
 30 67  1  0
 37 68  1  0
 38 69  1  0
M  END
>  <AS_ratio>  (6) 
0.0181035

>  <type>  (6) 
active

$$$$
EDS00444974
     RDKit          3D

 49 51  0  0  0  0  0  0  0  0999 V2000
    5.2653    1.8605   -1.2318 C   0  0  0  0  0  0  0  0  0  0  0  0
    5.4192    0.3992   -0.8120 C   0  0  0  0  0  0  0  0  0  0  0  0
    6.3130   -0.3324   -1.8171 C   0  0  0  0  0  0  0  0  0  0  0  0
    4.0459   -0.2727   -0.7131 C   0  0  0  0  0  0  0  0  0  0  0  0
    3.1939    0.1156    0.3176 N   0  0  0  0  0  0  0  0  0  0  0  0
    3.6356    0.7304    1.5682 C   0  0  0  0  0  0  0  0  0  0  0  0
    2.5937    1.7157    2.0955 C   0  0  0  0  0  0  0  0  0  0  0  0
    1.9042   -0.5798    0.3793 C   0  0  0  0  0  0  0  0  0  0  0  0
    0.8838    0.0309    1.3196 C   0  0  0  0  0  0  0  0  0  0  0  0
    1.2216    1.1042    2.1526 C   0  0  0  0  0  0  0  0  0  0  0  0
    0.2399    1.6354    2.9956 C   0  0  0  0  0  0  0  0  0  0  0  0
   -1.0318    1.0751    3.0087 C   0  0  0  0  0  0  0  0  0  0  0  0
   -1.2785    0.0017    2.1672 C   0  0  0  0  0  0  0  0  0  0  0  0
   -2.6369   -0.6312    2.1432 C   0  0  0  0  0  0  0  0  0  0  0  0
   -2.7556   -1.6929    1.2751 N   0  0  0  0  0  0  0  0  0  0  0  0
   -4.0264   -2.3126    0.9790 C   0  0  0  0  0  0  0  0  0  0  0  0
   -4.7206   -1.6509   -0.1818 C   0  0  0  0  0  0  0  0  0  0  0  0
   -4.5145   -2.1588   -1.4258 N   0  0  0  0  0  0  0  0  0  0  0  0
   -5.1412   -1.5104   -2.4358 C   0  0  0  0  0  0  0  0  0  0  0  0
   -5.9459   -0.3942   -2.2365 C   0  0  0  0  0  0  0  0  0  0  0  0
   -6.6141    0.2806   -3.3918 C   0  0  0  0  0  0  0  0  0  0  0  0
   -6.1464    0.1167   -0.9984 N   0  0  0  0  0  0  0  0  0  0  0  0
   -5.5156   -0.5266    0.0147 C   0  0  0  0  0  0  0  0  0  0  0  0
   -3.5590   -0.2123    2.8339 O   0  0  0  0  0  0  0  0  0  0  0  0
   -0.3508   -0.5335    1.3247 N   0  0  0  0  0  0  0  0  0  0  0  0
    3.6918   -1.1055   -1.5506 O   0  0  0  0  0  0  0  0  0  0  0  0
    6.2419    2.3524   -1.2919 H   0  0  0  0  0  0  0  0  0  0  0  0
    4.6495    2.4278   -0.5279 H   0  0  0  0  0  0  0  0  0  0  0  0
    4.7848    1.9380   -2.2138 H   0  0  0  0  0  0  0  0  0  0  0  0
    5.9196    0.3316    0.1592 H   0  0  0  0  0  0  0  0  0  0  0  0
    7.3113    0.1168   -1.8481 H   0  0  0  0  0  0  0  0  0  0  0  0
    6.4266   -1.3865   -1.5408 H   0  0  0  0  0  0  0  0  0  0  0  0
    5.8942   -0.2974   -2.8291 H   0  0  0  0  0  0  0  0  0  0  0  0
    4.5877    1.2507    1.4565 H   0  0  0  0  0  0  0  0  0  0  0  0
    3.8001   -0.0841    2.2852 H   0  0  0  0  0  0  0  0  0  0  0  0
    2.8990    2.0570    3.0914 H   0  0  0  0  0  0  0  0  0  0  0  0
    2.5490    2.5920    1.4370 H   0  0  0  0  0  0  0  0  0  0  0  0
    1.4727   -0.6207   -0.6278 H   0  0  0  0  0  0  0  0  0  0  0  0
    2.1042   -1.6080    0.7058 H   0  0  0  0  0  0  0  0  0  0  0  0
    0.4592    2.4838    3.6397 H   0  0  0  0  0  0  0  0  0  0  0  0
   -1.8106    1.4677    3.6545 H   0  0  0  0  0  0  0  0  0  0  0  0
   -1.9705   -1.8544    0.6489 H   0  0  0  0  0  0  0  0  0  0  0  0
   -4.6692   -2.2981    1.8664 H   0  0  0  0  0  0  0  0  0  0  0  0
   -3.8231   -3.3610    0.7352 H   0  0  0  0  0  0  0  0  0  0  0  0
   -4.9747   -1.9205   -3.4262 H   0  0  0  0  0  0  0  0  0  0  0  0
   -7.2086    1.1352   -3.0531 H   0  0  0  0  0  0  0  0  0  0  0  0
   -7.2833   -0.4181   -3.9034 H   0  0  0  0  0  0  0  0  0  0  0  0
   -5.8655    0.6463   -4.1015 H   0  0  0  0  0  0  0  0  0  0  0  0
   -5.6650   -0.1027    1.0033 H   0  0  0  0  0  0  0  0  0  0  0  0
  1  2  1  0
  2  3  1  0
  2  4  1  0
  4  5  1  0
  5  6  1  0
  6  7  1  0
  5  8  1  0
  8  9  1  0
  9 10  2  0
 10 11  1  0
 11 12  2  0
 12 13  1  0
 13 14  1  0
 14 15  1  0
 15 16  1  0
 16 17  1  0
 17 18  2  0
 18 19  1  0
 19 20  2  0
 20 21  1  0
 20 22  1  0
 22 23  2  0
 14 24  2  0
 13 25  2  0
  4 26  2  0
 10  7  1  0
 23 17  1  0
 25  9  1  0
  1 27  1  0
  1 28  1  0
  1 29  1  0
  2 30  1  0
  3 31  1  0
  3 32  1  0
  3 33  1  0
  6 34  1  0
  6 35  1  0
  7 36  1  0
  7 37  1  0
  8 38  1  0
  8 39  1  0
 11 40  1  0
 12 41  1  0
 15 42  1  0
 16 43  1  0
 16 44  1  0
 19 45  1  0
 21 46  1  0
 21 47  1  0
 21 48  1  0
 23 49  1  0
M  END
>  <AS_ratio>  (7) 
0.0163117

>  <type>  (7) 
active

$$$$
EDS00492874
     RDKit          3D

 70 73  0  0  0  0  0  0  0  0999 V2000
   -5.9110   -0.4590    0.8627 C   0  0  0  0  0  0  0  0  0  0  0  0
   -5.4597    0.6760   -0.0852 C   0  0  0  0  0  0  0  0  0  0  0  0
   -4.4401    1.5378    0.7032 C   0  0  0  0  0  0  0  0  0  0  0  0
   -4.7573    0.0966   -1.3527 C   0  0  0  0  0  0  0  0  0  0  0  0
   -3.5503   -0.6545   -1.0698 N   0  0  0  0  0  0  0  0  0  0  0  0
   -3.5087   -2.0271   -0.9419 C   0  0  0  0  0  0  0  0  0  0  0  0
   -2.1846   -2.5475   -0.4624 C   0  0  0  0  0  0  0  0  0  0  0  0
   -1.2738   -1.6003   -0.0959 N   0  0  0  0  0  0  0  0  0  0  0  0
   -0.0714   -2.0365    0.3593 C   0  0  0  0  0  0  0  0  0  0  0  0
    0.9025   -0.9682    0.8078 C   0  0  0  0  0  0  0  0  0  0  0  0
    2.1735   -1.4557    1.3428 N   0  0  0  0  0  0  0  0  0  0  0  0
    2.6476   -2.7251    0.8016 C   0  0  0  0  0  0  0  0  0  0  0  0
    1.5990   -3.8241    0.9625 C   0  0  0  0  0  0  0  0  0  0  0  0
    3.1074   -0.6038    1.9284 C   0  0  0  0  0  0  0  0  0  0  0  0
    2.6105    0.7646    2.3884 C   0  0  0  0  0  0  0  0  0  0  0  0
    3.7317    1.7831    2.6082 C   0  0  0  0  0  0  0  0  0  0  0  0
    4.0466    2.6103    1.3625 C   0  0  0  0  0  0  0  0  0  0  0  0
    4.5860    1.7867    0.2025 C   0  0  0  0  0  0  0  0  0  0  0  0
    5.9614    1.8933    0.0716 N   0  0  0  0  0  0  0  0  0  0  0  0
    6.7841    1.3128   -0.9155 C   0  0  0  0  0  0  0  0  0  0  0  0
    8.1508    1.6445   -0.8782 C   0  0  0  0  0  0  0  0  0  0  0  0
    9.0369    1.1283   -1.8262 C   0  0  0  0  0  0  0  0  0  0  0  0
    8.5709    0.2635   -2.8160 C   0  0  0  0  0  0  0  0  0  0  0  0
    7.2168   -0.0812   -2.8553 C   0  0  0  0  0  0  0  0  0  0  0  0
    6.3262    0.4420   -1.9090 C   0  0  0  0  0  0  0  0  0  0  0  0
    3.8153    1.1512   -0.5126 O   0  0  0  0  0  0  0  0  0  0  0  0
    4.2682   -0.9528    2.1450 O   0  0  0  0  0  0  0  0  0  0  0  0
    0.2577   -3.3923    0.4329 C   0  0  0  0  0  0  0  0  0  0  0  0
   -0.7075   -4.3369    0.0647 C   0  0  0  0  0  0  0  0  0  0  0  0
   -1.9524   -3.9110   -0.3911 C   0  0  0  0  0  0  0  0  0  0  0  0
   -4.4519   -2.7701   -1.1767 O   0  0  0  0  0  0  0  0  0  0  0  0
   -6.7029    1.4761   -0.5269 C   0  0  0  0  0  0  0  0  0  0  0  0
   -7.7725    0.8259   -1.1652 C   0  0  0  0  0  0  0  0  0  0  0  0
   -8.8994    1.5507   -1.5306 C   0  0  0  0  0  0  0  0  0  0  0  0
   -9.0452    2.8669   -1.3113 N   0  0  0  0  0  0  0  0  0  0  0  0
   -8.0081    3.4913   -0.7155 C   0  0  0  0  0  0  0  0  0  0  0  0
   -6.8407    2.8537   -0.3148 C   0  0  0  0  0  0  0  0  0  0  0  0
   -6.5210   -1.2153    0.3512 H   0  0  0  0  0  0  0  0  0  0  0  0
   -5.0542   -0.9804    1.3038 H   0  0  0  0  0  0  0  0  0  0  0  0
   -6.5091   -0.0613    1.6951 H   0  0  0  0  0  0  0  0  0  0  0  0
   -3.6000    0.9361    1.0712 H   0  0  0  0  0  0  0  0  0  0  0  0
   -4.9003    2.0015    1.5861 H   0  0  0  0  0  0  0  0  0  0  0  0
   -4.0189    2.3365    0.0794 H   0  0  0  0  0  0  0  0  0  0  0  0
   -4.4588    0.9116   -2.0236 H   0  0  0  0  0  0  0  0  0  0  0  0
   -5.4397   -0.5532   -1.9155 H   0  0  0  0  0  0  0  0  0  0  0  0
   -2.6915   -0.1644   -0.8225 H   0  0  0  0  0  0  0  0  0  0  0  0
    0.4043   -0.3752    1.5807 H   0  0  0  0  0  0  0  0  0  0  0  0
    1.1321   -0.3200   -0.0454 H   0  0  0  0  0  0  0  0  0  0  0  0
    2.8791   -2.5588   -0.2583 H   0  0  0  0  0  0  0  0  0  0  0  0
    3.5763   -3.0377    1.2916 H   0  0  0  0  0  0  0  0  0  0  0  0
    1.9411   -4.7229    0.4388 H   0  0  0  0  0  0  0  0  0  0  0  0
    1.4817   -4.0764    2.0228 H   0  0  0  0  0  0  0  0  0  0  0  0
    1.8772    1.1815    1.6955 H   0  0  0  0  0  0  0  0  0  0  0  0
    2.1107    0.5922    3.3466 H   0  0  0  0  0  0  0  0  0  0  0  0
    4.6460    1.3063    2.9857 H   0  0  0  0  0  0  0  0  0  0  0  0
    3.3978    2.4818    3.3858 H   0  0  0  0  0  0  0  0  0  0  0  0
    3.1486    3.1392    1.0092 H   0  0  0  0  0  0  0  0  0  0  0  0
    4.7670    3.3936    1.6283 H   0  0  0  0  0  0  0  0  0  0  0  0
    6.4494    2.4393    0.7679 H   0  0  0  0  0  0  0  0  0  0  0  0
    8.5429    2.3126   -0.1117 H   0  0  0  0  0  0  0  0  0  0  0  0
   10.0967    1.3918   -1.7839 H   0  0  0  0  0  0  0  0  0  0  0  0
    9.2592   -0.1487   -3.5529 H   0  0  0  0  0  0  0  0  0  0  0  0
    6.8505   -0.7685   -3.6188 H   0  0  0  0  0  0  0  0  0  0  0  0
    5.2858    0.1300   -1.9628 H   0  0  0  0  0  0  0  0  0  0  0  0
   -0.4947   -5.4014    0.1333 H   0  0  0  0  0  0  0  0  0  0  0  0
   -2.7152   -4.6244   -0.6853 H   0  0  0  0  0  0  0  0  0  0  0  0
   -7.7425   -0.2346   -1.3828 H   0  0  0  0  0  0  0  0  0  0  0  0
   -9.7450    1.0684   -2.0124 H   0  0  0  0  0  0  0  0  0  0  0  0
   -8.1435    4.5529   -0.5448 H   0  0  0  0  0  0  0  0  0  0  0  0
   -6.0684    3.4551    0.1562 H   0  0  0  0  0  0  0  0  0  0  0  0
  1  2  1  0
  2  3  1  0
  2  4  1  0
  4  5  1  0
  5  6  1  0
  6  7  1  0
  7  8  2  0
  8  9  1  0
  9 10  1  0
 10 11  1  0
 11 12  1  0
 12 13  1  0
 11 14  1  0
 14 15  1  0
 15 16  1  0
 16 17  1  0
 17 18  1  0
 18 19  1  0
 19 20  1  0
 20 21  2  0
 21 22  1  0
 22 23  2  0
 23 24  1  0
 24 25  2  0
 18 26  2  0
 14 27  2  0
  9 28  2  0
 28 29  1  0
 29 30  2  0
  6 31  2  0
  2 32  1  0
 32 33  2  0
 33 34  1  0
 34 35  2  0
 35 36  1  0
 36 37  2  0
 30  7  1  0
 37 32  1  0
 28 13  1  0
 25 20  1  0
  1 38  1  0
  1 39  1  0
  1 40  1  0
  3 41  1  0
  3 42  1  0
  3 43  1  0
  4 44  1  0
  4 45  1  0
  5 46  1  0
 10 47  1  0
 10 48  1  0
 12 49  1  0
 12 50  1  0
 13 51  1  0
 13 52  1  0
 15 53  1  0
 15 54  1  0
 16 55  1  0
 16 56  1  0
 17 57  1  0
 17 58  1  0
 19 59  1  0
 21 60  1  0
 22 61  1  0
 23 62  1  0
 24 63  1  0
 25 64  1  0
 29 65  1  0
 30 66  1  0
 33 67  1  0
 34 68  1  0
 36 69  1  0
 37 70  1  0
M  END
>  <AS_ratio>  (8) 
0.0105749

>  <type>  (8) 
active

$$$$
EDS00492986
     RDKit          3D

 73 76  0  0  0  0  0  0  0  0999 V2000
  -10.9958    0.7584    2.3717 C   0  0  0  0  0  0  0  0  0  0  0  0
  -10.1975   -0.5023    2.6493 C   0  0  0  0  0  0  0  0  0  0  0  0
   -9.0241   -0.5424    1.8228 O   0  0  0  0  0  0  0  0  0  0  0  0
   -7.9255    0.0973    2.3102 C   0  0  0  0  0  0  0  0  0  0  0  0
   -6.8581    0.0336    1.4308 N   0  0  0  0  0  0  0  0  0  0  0  0
   -6.9153   -0.7647    0.2106 C   0  0  0  0  0  0  0  0  0  0  0  0
   -5.5939   -0.7821   -0.5482 C   0  0  0  0  0  0  0  0  0  0  0  0
   -5.5830    0.6280    1.7959 C   0  0  0  0  0  0  0  0  0  0  0  0
   -4.9530    1.3863    0.6294 C   0  0  0  0  0  0  0  0  0  0  0  0
   -5.0646    0.6447   -0.7123 C   0  0  0  0  0  0  0  0  0  0  0  0
   -3.7952    0.6513   -1.4208 N   0  0  0  0  0  0  0  0  0  0  0  0
   -3.7102    0.5267   -2.7945 C   0  0  0  0  0  0  0  0  0  0  0  0
   -2.3111    0.4039   -3.3184 C   0  0  0  0  0  0  0  0  0  0  0  0
   -1.3150    0.3914   -2.3862 N   0  0  0  0  0  0  0  0  0  0  0  0
   -0.0405    0.2784   -2.8421 C   0  0  0  0  0  0  0  0  0  0  0  0
    1.0570    0.2573   -1.7947 C   0  0  0  0  0  0  0  0  0  0  0  0
    2.4071    0.0278   -2.3161 N   0  0  0  0  0  0  0  0  0  0  0  0
    2.6810    0.5914   -3.6365 C   0  0  0  0  0  0  0  0  0  0  0  0
    1.6897    0.0615   -4.6714 C   0  0  0  0  0  0  0  0  0  0  0  0
    3.3811   -0.3600   -1.4020 C   0  0  0  0  0  0  0  0  0  0  0  0
    4.7978   -0.5210   -1.9359 C   0  0  0  0  0  0  0  0  0  0  0  0
    5.7791   -1.1437   -0.9416 C   0  0  0  0  0  0  0  0  0  0  0  0
    6.1742   -0.1984    0.1957 C   0  0  0  0  0  0  0  0  0  0  0  0
    7.3053   -0.7646    1.0453 C   0  0  0  0  0  0  0  0  0  0  0  0
    7.5018   -0.0118    2.1930 N   0  0  0  0  0  0  0  0  0  0  0  0
    8.4676   -0.2158    3.2012 C   0  0  0  0  0  0  0  0  0  0  0  0
    9.3972   -1.2574    3.1973 C   0  0  0  0  0  0  0  0  0  0  0  0
   10.3229   -1.3877    4.2392 C   0  0  0  0  0  0  0  0  0  0  0  0
   10.3273   -0.4781    5.2935 C   0  0  0  0  0  0  0  0  0  0  0  0
    9.4055    0.5645    5.3080 C   0  0  0  0  0  0  0  0  0  0  0  0
    8.4811    0.6940    4.2672 C   0  0  0  0  0  0  0  0  0  0  0  0
    7.9569   -1.7420    0.6924 O   0  0  0  0  0  0  0  0  0  0  0  0
    3.1125   -0.5632   -0.2188 O   0  0  0  0  0  0  0  0  0  0  0  0
    0.2652    0.2014   -4.2071 C   0  0  0  0  0  0  0  0  0  0  0  0
   -0.7844    0.1972   -5.1317 C   0  0  0  0  0  0  0  0  0  0  0  0
   -2.0956    0.3026   -4.6834 C   0  0  0  0  0  0  0  0  0  0  0  0
   -4.6798    0.5007   -3.5433 O   0  0  0  0  0  0  0  0  0  0  0  0
   -7.8906    0.6662    3.3940 O   0  0  0  0  0  0  0  0  0  0  0  0
  -10.4200    1.6534    2.6276 H   0  0  0  0  0  0  0  0  0  0  0  0
  -11.9187    0.7576    2.9567 H   0  0  0  0  0  0  0  0  0  0  0  0
  -11.2469    0.8315    1.3097 H   0  0  0  0  0  0  0  0  0  0  0  0
   -9.9457   -0.5899    3.7139 H   0  0  0  0  0  0  0  0  0  0  0  0
  -10.7992   -1.3807    2.3925 H   0  0  0  0  0  0  0  0  0  0  0  0
   -7.7088   -0.3464   -0.4204 H   0  0  0  0  0  0  0  0  0  0  0  0
   -7.2089   -1.7877    0.4749 H   0  0  0  0  0  0  0  0  0  0  0  0
   -5.7357   -1.2635   -1.5234 H   0  0  0  0  0  0  0  0  0  0  0  0
   -4.8588   -1.3930   -0.0069 H   0  0  0  0  0  0  0  0  0  0  0  0
   -4.9270   -0.1894    2.1214 H   0  0  0  0  0  0  0  0  0  0  0  0
   -5.6985    1.3019    2.6528 H   0  0  0  0  0  0  0  0  0  0  0  0
   -3.9102    1.6179    0.8787 H   0  0  0  0  0  0  0  0  0  0  0  0
   -5.4580    2.3562    0.5241 H   0  0  0  0  0  0  0  0  0  0  0  0
   -5.7799    1.1942   -1.3399 H   0  0  0  0  0  0  0  0  0  0  0  0
   -2.9195    0.5089   -0.9185 H   0  0  0  0  0  0  0  0  0  0  0  0
    0.8203   -0.5160   -1.0543 H   0  0  0  0  0  0  0  0  0  0  0  0
    1.0698    1.2269   -1.2815 H   0  0  0  0  0  0  0  0  0  0  0  0
    3.6981    0.3781   -3.9721 H   0  0  0  0  0  0  0  0  0  0  0  0
    2.5997    1.6819   -3.5404 H   0  0  0  0  0  0  0  0  0  0  0  0
    1.8845   -1.0026   -4.8599 H   0  0  0  0  0  0  0  0  0  0  0  0
    1.8370    0.6037   -5.6135 H   0  0  0  0  0  0  0  0  0  0  0  0
    5.1695    0.4595   -2.2540 H   0  0  0  0  0  0  0  0  0  0  0  0
    4.7518   -1.1826   -2.8093 H   0  0  0  0  0  0  0  0  0  0  0  0
    6.6795   -1.4338   -1.4983 H   0  0  0  0  0  0  0  0  0  0  0  0
    5.3629   -2.0675   -0.5223 H   0  0  0  0  0  0  0  0  0  0  0  0
    6.5192    0.7580   -0.2152 H   0  0  0  0  0  0  0  0  0  0  0  0
    5.3152   -0.0017    0.8467 H   0  0  0  0  0  0  0  0  0  0  0  0
    6.8741    0.7699    2.3337 H   0  0  0  0  0  0  0  0  0  0  0  0
    9.4292   -1.9914    2.3985 H   0  0  0  0  0  0  0  0  0  0  0  0
   11.0387   -2.2051    4.2221 H   0  0  0  0  0  0  0  0  0  0  0  0
   11.0473   -0.5834    6.1005 H   0  0  0  0  0  0  0  0  0  0  0  0
    9.4026    1.2771    6.1289 H   0  0  0  0  0  0  0  0  0  0  0  0
    7.7737    1.5177    4.3042 H   0  0  0  0  0  0  0  0  0  0  0  0
   -0.5865    0.1073   -6.1969 H   0  0  0  0  0  0  0  0  0  0  0  0
   -2.9275    0.3033   -5.3797 H   0  0  0  0  0  0  0  0  0  0  0  0
  1  2  1  0
  2  3  1  0
  3  4  1  0
  4  5  1  0
  5  6  1  0
  6  7  1  0
  5  8  1  0
  8  9  1  0
  9 10  1  0
 10 11  1  0
 11 12  1  0
 12 13  1  0
 13 14  2  0
 14 15  1  0
 15 16  1  0
 16 17  1  0
 17 18  1  0
 18 19  1  0
 17 20  1  0
 20 21  1  0
 21 22  1  0
 22 23  1  0
 23 24  1  0
 24 25  1  0
 25 26  1  0
 26 27  2  0
 27 28  1  0
 28 29  2  0
 29 30  1  0
 30 31  2  0
 24 32  2  0
 20 33  2  0
 15 34  2  0
 34 35  1  0
 35 36  2  0
 12 37  2  0
  4 38  2  0
 10  7  1  0
 36 13  1  0
 34 19  1  0
 31 26  1  0
  1 39  1  0
  1 40  1  0
  1 41  1  0
  2 42  1  0
  2 43  1  0
  6 44  1  0
  6 45  1  0
  7 46  1  0
  7 47  1  0
  8 48  1  0
  8 49  1  0
  9 50  1  0
  9 51  1  0
 10 52  1  0
 11 53  1  0
 16 54  1  0
 16 55  1  0
 18 56  1  0
 18 57  1  0
 19 58  1  0
 19 59  1  0
 21 60  1  0
 21 61  1  0
 22 62  1  0
 22 63  1  0
 23 64  1  0
 23 65  1  0
 25 66  1  0
 27 67  1  0
 28 68  1  0
 29 69  1  0
 30 70  1  0
 31 71  1  0
 35 72  1  0
 36 73  1  0
M  END
>  <AS_ratio>  (9) 
0.0096993

>  <type>  (9) 
active

$$$$
EDS00459442
     RDKit          3D

 55 58  0  0  0  0  0  0  0  0999 V2000
   -8.2854    1.5271   -1.5597 C   0  0  0  0  0  0  0  0  0  0  0  0
   -6.9141    1.2035   -1.1025 C   0  0  0  0  0  0  0  0  0  0  0  0
   -5.7051    1.2628   -1.7598 C   0  0  0  0  0  0  0  0  0  0  0  0
   -4.7229    0.8346   -0.8243 C   0  0  0  0  0  0  0  0  0  0  0  0
   -3.2790    0.6899   -1.1110 C   0  0  0  0  0  0  0  0  0  0  0  0
   -2.3734    0.5713   -0.0506 N   0  0  0  0  0  0  0  0  0  0  0  0
   -2.5330    1.2404    1.2386 C   0  0  0  0  0  0  0  0  0  0  0  0
   -2.0336    0.3412    2.3667 C   0  0  0  0  0  0  0  0  0  0  0  0
   -0.9980    0.2324   -0.3962 C   0  0  0  0  0  0  0  0  0  0  0  0
   -0.1762   -0.2895    0.7662 C   0  0  0  0  0  0  0  0  0  0  0  0
   -0.6524   -0.1947    2.0820 C   0  0  0  0  0  0  0  0  0  0  0  0
    0.1567   -0.6620    3.1226 C   0  0  0  0  0  0  0  0  0  0  0  0
    1.4104   -1.1892    2.8354 C   0  0  0  0  0  0  0  0  0  0  0  0
    1.8050   -1.2444    1.5077 C   0  0  0  0  0  0  0  0  0  0  0  0
    3.1325   -1.8401    1.1457 C   0  0  0  0  0  0  0  0  0  0  0  0
    3.3607   -1.9158   -0.2095 N   0  0  0  0  0  0  0  0  0  0  0  0
    4.5850   -2.4153   -0.7750 C   0  0  0  0  0  0  0  0  0  0  0  0
    5.4775   -1.2591   -1.0634 C   0  0  0  0  0  0  0  0  0  0  0  0
    6.6429   -0.8954   -0.3991 C   0  0  0  0  0  0  0  0  0  0  0  0
    7.4090   -1.4614    0.7473 C   0  0  0  0  0  0  0  0  0  0  0  0
    6.9318   -2.6644    1.1593 F   0  0  0  0  0  0  0  0  0  0  0  0
    7.4082   -0.6365    1.8317 F   0  0  0  0  0  0  0  0  0  0  0  0
    8.7183   -1.6724    0.4166 F   0  0  0  0  0  0  0  0  0  0  0  0
    7.1721    0.2285   -0.9784 O   0  0  0  0  0  0  0  0  0  0  0  0
    6.3566    0.5882   -2.0026 C   0  0  0  0  0  0  0  0  0  0  0  0
    6.7507    1.7882   -2.7632 C   0  0  0  0  0  0  0  0  0  0  0  0
    5.3034   -0.2912   -2.1003 C   0  0  0  0  0  0  0  0  0  0  0  0
    3.9242   -2.2221    1.9980 O   0  0  0  0  0  0  0  0  0  0  0  0
    1.0439   -0.8027    0.4658 N   0  0  0  0  0  0  0  0  0  0  0  0
   -2.8858    0.6418   -2.2795 O   0  0  0  0  0  0  0  0  0  0  0  0
   -5.3088    0.4986    0.3419 N   0  0  0  0  0  0  0  0  0  0  0  0
   -6.6182    0.7419    0.1511 N   0  0  0  0  0  0  0  0  0  0  0  0
   -7.5477    0.4907    1.2287 C   0  0  0  0  0  0  0  0  0  0  0  0
   -8.9549    0.6745   -1.4143 H   0  0  0  0  0  0  0  0  0  0  0  0
   -8.6847    2.3827   -1.0064 H   0  0  0  0  0  0  0  0  0  0  0  0
   -8.2948    1.7785   -2.6255 H   0  0  0  0  0  0  0  0  0  0  0  0
   -5.5319    1.5631   -2.7844 H   0  0  0  0  0  0  0  0  0  0  0  0
   -1.9318    2.1592    1.1926 H   0  0  0  0  0  0  0  0  0  0  0  0
   -3.5522    1.5702    1.4372 H   0  0  0  0  0  0  0  0  0  0  0  0
   -2.7115   -0.5123    2.4858 H   0  0  0  0  0  0  0  0  0  0  0  0
   -2.0336    0.9087    3.3043 H   0  0  0  0  0  0  0  0  0  0  0  0
   -0.9952   -0.5115   -1.2003 H   0  0  0  0  0  0  0  0  0  0  0  0
   -0.5209    1.1443   -0.7762 H   0  0  0  0  0  0  0  0  0  0  0  0
   -0.1859   -0.6202    4.1535 H   0  0  0  0  0  0  0  0  0  0  0  0
    2.0585   -1.5558    3.6241 H   0  0  0  0  0  0  0  0  0  0  0  0
    2.6633   -1.4798   -0.8046 H   0  0  0  0  0  0  0  0  0  0  0  0
    5.0433   -3.1414   -0.0988 H   0  0  0  0  0  0  0  0  0  0  0  0
    4.3298   -2.9349   -1.7050 H   0  0  0  0  0  0  0  0  0  0  0  0
    7.0337    2.5983   -2.0846 H   0  0  0  0  0  0  0  0  0  0  0  0
    5.9274    2.1424   -3.3954 H   0  0  0  0  0  0  0  0  0  0  0  0
    7.6076    1.5634   -3.4093 H   0  0  0  0  0  0  0  0  0  0  0  0
    4.5020   -0.2474   -2.8259 H   0  0  0  0  0  0  0  0  0  0  0  0
   -7.0024    0.1168    2.1022 H   0  0  0  0  0  0  0  0  0  0  0  0
   -8.0484    1.4357    1.4798 H   0  0  0  0  0  0  0  0  0  0  0  0
   -8.2728   -0.2592    0.8920 H   0  0  0  0  0  0  0  0  0  0  0  0
  1  2  1  0
  2  3  2  0
  3  4  1  0
  4  5  1  0
  5  6  1  0
  6  7  1  0
  7  8  1  0
  6  9  1  0
  9 10  1  0
 10 11  2  0
 11 12  1  0
 12 13  2  0
 13 14  1  0
 14 15  1  0
 15 16  1  0
 16 17  1  0
 17 18  1  0
 18 19  2  0
 19 20  1  0
 20 21  1  0
 20 22  1  0
 20 23  1  0
 19 24  1  0
 24 25  1  0
 25 26  1  0
 25 27  2  0
 15 28  2  0
 14 29  2  0
  5 30  2  0
  4 31  2  0
 31 32  1  0
 32 33  1  0
 32  2  1  0
 11  8  1  0
 27 18  1  0
 29 10  1  0
  1 34  1  0
  1 35  1  0
  1 36  1  0
  3 37  1  0
  7 38  1  0
  7 39  1  0
  8 40  1  0
  8 41  1  0
  9 42  1  0
  9 43  1  0
 12 44  1  0
 13 45  1  0
 16 46  1  0
 17 47  1  0
 17 48  1  0
 26 49  1  0
 26 50  1  0
 26 51  1  0
 27 52  1  0
 33 53  1  0
 33 54  1  0
 33 55  1  0
M  END
>  <AS_ratio>  (10) 
0.00833583

>  <type>  (10) 
active

$$$$
EDS00459274
     RDKit          3D

 52 55  0  0  0  0  0  0  0  0999 V2000
   -7.1626    1.1451   -2.8140 C   0  0  0  0  0  0  0  0  0  0  0  0
   -5.9377    0.8904   -2.0202 C   0  0  0  0  0  0  0  0  0  0  0  0
   -4.7320    1.5543   -1.9831 C   0  0  0  0  0  0  0  0  0  0  0  0
   -3.9253    0.8659   -1.0328 C   0  0  0  0  0  0  0  0  0  0  0  0
   -2.5245    1.2175   -0.7008 C   0  0  0  0  0  0  0  0  0  0  0  0
   -1.9009    0.6676    0.4280 N   0  0  0  0  0  0  0  0  0  0  0  0
   -2.5906   -0.0869    1.4783 C   0  0  0  0  0  0  0  0  0  0  0  0
   -1.8643   -0.0733    2.8263 C   0  0  0  0  0  0  0  0  0  0  0  0
   -0.4521    0.8560    0.5261 C   0  0  0  0  0  0  0  0  0  0  0  0
    0.2540   -0.0473    1.5154 C   0  0  0  0  0  0  0  0  0  0  0  0
   -0.4315   -0.4810    2.6535 C   0  0  0  0  0  0  0  0  0  0  0  0
    0.2478   -1.2462    3.6027 C   0  0  0  0  0  0  0  0  0  0  0  0
    1.5810   -1.5740    3.3840 C   0  0  0  0  0  0  0  0  0  0  0  0
    2.1863   -1.1100    2.2245 C   0  0  0  0  0  0  0  0  0  0  0  0
    3.6202   -1.4455    1.9439 C   0  0  0  0  0  0  0  0  0  0  0  0
    4.1104   -0.8933    0.7794 N   0  0  0  0  0  0  0  0  0  0  0  0
    5.3866   -1.2899    0.2406 C   0  0  0  0  0  0  0  0  0  0  0  0
    5.8362   -0.3724   -0.8602 C   0  0  0  0  0  0  0  0  0  0  0  0
    5.2792   -0.3955   -2.1491 C   0  0  0  0  0  0  0  0  0  0  0  0
    4.0211   -1.5058   -2.5676 Cl  0  0  0  0  0  0  0  0  0  0  0  0
    5.7350    0.4948   -3.1289 C   0  0  0  0  0  0  0  0  0  0  0  0
    6.7385    1.4178   -2.8507 C   0  0  0  0  0  0  0  0  0  0  0  0
    7.2954    1.4545   -1.5768 C   0  0  0  0  0  0  0  0  0  0  0  0
    5.2112    0.4780   -4.3637 F   0  0  0  0  0  0  0  0  0  0  0  0
    6.8426    0.5677   -0.6005 C   0  0  0  0  0  0  0  0  0  0  0  0
    7.4026    0.6296    0.6158 F   0  0  0  0  0  0  0  0  0  0  0  0
    4.2734   -2.1649    2.6904 O   0  0  0  0  0  0  0  0  0  0  0  0
    1.5554   -0.3483    1.2852 N   0  0  0  0  0  0  0  0  0  0  0  0
   -1.9055    1.9999   -1.4278 O   0  0  0  0  0  0  0  0  0  0  0  0
   -4.6040   -0.1818   -0.5262 N   0  0  0  0  0  0  0  0  0  0  0  0
   -5.8030   -0.1437   -1.1345 N   0  0  0  0  0  0  0  0  0  0  0  0
   -6.7894   -1.1506   -0.8167 C   0  0  0  0  0  0  0  0  0  0  0  0
   -7.3736    0.3034   -3.4812 H   0  0  0  0  0  0  0  0  0  0  0  0
   -7.0487    2.0426   -3.4307 H   0  0  0  0  0  0  0  0  0  0  0  0
   -8.0259    1.2962   -2.1582 H   0  0  0  0  0  0  0  0  0  0  0  0
   -4.4454    2.4227   -2.5617 H   0  0  0  0  0  0  0  0  0  0  0  0
   -2.6857   -1.1190    1.1193 H   0  0  0  0  0  0  0  0  0  0  0  0
   -3.5914    0.3268    1.6331 H   0  0  0  0  0  0  0  0  0  0  0  0
   -1.8896    0.9341    3.2595 H   0  0  0  0  0  0  0  0  0  0  0  0
   -2.3801   -0.7483    3.5188 H   0  0  0  0  0  0  0  0  0  0  0  0
   -0.0081    0.7157   -0.4669 H   0  0  0  0  0  0  0  0  0  0  0  0
   -0.2796    1.8974    0.8244 H   0  0  0  0  0  0  0  0  0  0  0  0
   -0.2518   -1.5901    4.5047 H   0  0  0  0  0  0  0  0  0  0  0  0
    2.1351   -2.1740    4.0986 H   0  0  0  0  0  0  0  0  0  0  0  0
    3.4064   -0.4733    0.1763 H   0  0  0  0  0  0  0  0  0  0  0  0
    6.1183   -1.3206    1.0569 H   0  0  0  0  0  0  0  0  0  0  0  0
    5.3042   -2.3212   -0.1223 H   0  0  0  0  0  0  0  0  0  0  0  0
    7.0743    2.0989   -3.6266 H   0  0  0  0  0  0  0  0  0  0  0  0
    8.0783    2.1666   -1.3323 H   0  0  0  0  0  0  0  0  0  0  0  0
   -7.6516   -0.6556   -0.3633 H   0  0  0  0  0  0  0  0  0  0  0  0
   -6.3628   -1.8718   -0.1144 H   0  0  0  0  0  0  0  0  0  0  0  0
   -7.0755   -1.6593   -1.7405 H   0  0  0  0  0  0  0  0  0  0  0  0
  1  2  1  0
  2  3  2  0
  3  4  1  0
  4  5  1  0
  5  6  1  0
  6  7  1  0
  7  8  1  0
  6  9  1  0
  9 10  1  0
 10 11  2  0
 11 12  1  0
 12 13  2  0
 13 14  1  0
 14 15  1  0
 15 16  1  0
 16 17  1  0
 17 18  1  0
 18 19  2  0
 19 20  1  0
 19 21  1  0
 21 22  2  0
 22 23  1  0
 21 24  1  0
 18 25  1  0
 25 26  1  0
 15 27  2  0
 14 28  2  0
  5 29  2  0
  4 30  2  0
 30 31  1  0
 31 32  1  0
 31  2  1  0
 11  8  1  0
 25 23  2  0
 28 10  1  0
  1 33  1  0
  1 34  1  0
  1 35  1  0
  3 36  1  0
  7 37  1  0
  7 38  1  0
  8 39  1  0
  8 40  1  0
  9 41  1  0
  9 42  1  0
 12 43  1  0
 13 44  1  0
 16 45  1  0
 17 46  1  0
 17 47  1  0
 22 48  1  0
 23 49  1  0
 32 50  1  0
 32 51  1  0
 32 52  1  0
M  END
>  <AS_ratio>  (11) 
0.00739068

>  <type>  (11) 
active

$$$$
EDS00474254
     RDKit          3D

 53 56  0  0  0  0  0  0  0  0999 V2000
   -3.6500    1.1623   -3.6980 C   0  0  0  0  0  0  0  0  0  0  0  0
   -3.5346    1.2360   -2.2045 C   0  0  0  0  0  0  0  0  0  0  0  0
   -3.4351    2.4725   -1.5572 C   0  0  0  0  0  0  0  0  0  0  0  0
   -3.3100    2.5473   -0.1635 C   0  0  0  0  0  0  0  0  0  0  0  0
   -3.4718    0.0681   -1.4396 C   0  0  0  0  0  0  0  0  0  0  0  0
   -3.3274    0.1459   -0.0472 C   0  0  0  0  0  0  0  0  0  0  0  0
   -3.2880   -1.1282    0.6995 C   0  0  0  0  0  0  0  0  0  0  0  0
   -2.0696   -1.5714    1.2068 N   0  0  0  0  0  0  0  0  0  0  0  0
   -2.0579   -2.7318    2.0876 C   0  0  0  0  0  0  0  0  0  0  0  0
   -0.9372   -3.6937    1.7007 C   0  0  0  0  0  0  0  0  0  0  0  0
   -0.8310   -0.7908    1.1591 C   0  0  0  0  0  0  0  0  0  0  0  0
    0.4376   -1.6149    1.2745 C   0  0  0  0  0  0  0  0  0  0  0  0
    0.3847   -2.9862    1.5581 C   0  0  0  0  0  0  0  0  0  0  0  0
    1.5845   -3.6998    1.6444 C   0  0  0  0  0  0  0  0  0  0  0  0
    2.7936   -3.0363    1.4730 C   0  0  0  0  0  0  0  0  0  0  0  0
    2.7581   -1.6751    1.2124 C   0  0  0  0  0  0  0  0  0  0  0  0
    4.0377   -0.9193    1.0128 C   0  0  0  0  0  0  0  0  0  0  0  0
    3.8639    0.4251    0.7690 N   0  0  0  0  0  0  0  0  0  0  0  0
    4.9430    1.2901    0.3724 C   0  0  0  0  0  0  0  0  0  0  0  0
    4.8843    1.4601   -1.1130 C   0  0  0  0  0  0  0  0  0  0  0  0
    5.4234    0.5704   -2.0261 C   0  0  0  0  0  0  0  0  0  0  0  0
    5.1837    1.0541   -3.6476 S   0  0  0  0  0  0  0  0  0  0  0  0
    4.3538    2.4653   -3.1597 C   0  0  0  0  0  0  0  0  0  0  0  0
    4.2616    2.5626   -1.7889 C   0  0  0  0  0  0  0  0  0  0  0  0
    5.1282   -1.4766    1.0581 O   0  0  0  0  0  0  0  0  0  0  0  0
    1.6089   -0.9474    1.1106 N   0  0  0  0  0  0  0  0  0  0  0  0
   -4.3352   -1.7658    0.7858 O   0  0  0  0  0  0  0  0  0  0  0  0
   -3.2682    1.3838    0.6096 C   0  0  0  0  0  0  0  0  0  0  0  0
   -3.1469    1.3612    1.9731 O   0  0  0  0  0  0  0  0  0  0  0  0
   -3.3804    2.5815    2.6653 C   0  0  0  0  0  0  0  0  0  0  0  0
   -2.6535    1.1206   -4.1484 H   0  0  0  0  0  0  0  0  0  0  0  0
   -4.2141    0.2746   -4.0029 H   0  0  0  0  0  0  0  0  0  0  0  0
   -4.1807    2.0352   -4.0923 H   0  0  0  0  0  0  0  0  0  0  0  0
   -3.4618    3.3945   -2.1357 H   0  0  0  0  0  0  0  0  0  0  0  0
   -3.2423    3.5335    0.2844 H   0  0  0  0  0  0  0  0  0  0  0  0
   -3.5398   -0.9080   -1.9160 H   0  0  0  0  0  0  0  0  0  0  0  0
   -1.9152   -2.3601    3.1102 H   0  0  0  0  0  0  0  0  0  0  0  0
   -3.0167   -3.2597    2.0664 H   0  0  0  0  0  0  0  0  0  0  0  0
   -1.1735   -4.1680    0.7401 H   0  0  0  0  0  0  0  0  0  0  0  0
   -0.8660   -4.4822    2.4588 H   0  0  0  0  0  0  0  0  0  0  0  0
   -0.8571   -0.0873    1.9990 H   0  0  0  0  0  0  0  0  0  0  0  0
   -0.7870   -0.2190    0.2271 H   0  0  0  0  0  0  0  0  0  0  0  0
    1.5813   -4.7695    1.8410 H   0  0  0  0  0  0  0  0  0  0  0  0
    3.7378   -3.5674    1.5359 H   0  0  0  0  0  0  0  0  0  0  0  0
    2.9035    0.7320    0.6467 H   0  0  0  0  0  0  0  0  0  0  0  0
    4.8000    2.2499    0.8793 H   0  0  0  0  0  0  0  0  0  0  0  0
    5.9082    0.8760    0.6821 H   0  0  0  0  0  0  0  0  0  0  0  0
    5.9458   -0.3529   -1.8096 H   0  0  0  0  0  0  0  0  0  0  0  0
    3.9732    3.1548   -3.9005 H   0  0  0  0  0  0  0  0  0  0  0  0
    3.7689    3.3882   -1.2895 H   0  0  0  0  0  0  0  0  0  0  0  0
   -2.5722    3.2959    2.4786 H   0  0  0  0  0  0  0  0  0  0  0  0
   -4.3549    3.0089    2.4060 H   0  0  0  0  0  0  0  0  0  0  0  0
   -3.3877    2.3610    3.7370 H   0  0  0  0  0  0  0  0  0  0  0  0
  1  2  1  0
  2  3  2  0
  3  4  1  0
  2  5  1  0
  5  6  2  0
  6  7  1  0
  7  8  1  0
  8  9  1  0
  9 10  1  0
  8 11  1  0
 11 12  1  0
 12 13  2  0
 13 14  1  0
 14 15  2  0
 15 16  1  0
 16 17  1  0
 17 18  1  0
 18 19  1  0
 19 20  1  0
 20 21  2  0
 21 22  1  0
 22 23  1  0
 23 24  2  0
 17 25  2  0
 16 26  2  0
  7 27  2  0
  6 28  1  0
 28 29  1  0
 29 30  1  0
 28  4  2  0
 13 10  1  0
 24 20  1  0
 26 12  1  0
  1 31  1  0
  1 32  1  0
  1 33  1  0
  3 34  1  0
  4 35  1  0
  5 36  1  0
  9 37  1  0
  9 38  1  0
 10 39  1  0
 10 40  1  0
 11 41  1  0
 11 42  1  0
 14 43  1  0
 15 44  1  0
 18 45  1  0
 19 46  1  0
 19 47  1  0
 21 48  1  0
 23 49  1  0
 24 50  1  0
 30 51  1  0
 30 52  1  0
 30 53  1  0
M  END
>  <AS_ratio>  (12) 
0.00371267

>  <type>  (12) 
active

$$$$
EDS00474362
     RDKit          3D

 62 65  0  0  0  0  0  0  0  0999 V2000
   -4.2379   -2.2276   -4.1733 C   0  0  0  0  0  0  0  0  0  0  0  0
   -3.7854   -2.1417   -2.7459 C   0  0  0  0  0  0  0  0  0  0  0  0
   -2.9732   -3.1394   -2.1958 C   0  0  0  0  0  0  0  0  0  0  0  0
   -2.5866   -3.0921   -0.8498 C   0  0  0  0  0  0  0  0  0  0  0  0
   -4.2199   -1.0977   -1.9248 C   0  0  0  0  0  0  0  0  0  0  0  0
   -3.8132   -1.0404   -0.5842 C   0  0  0  0  0  0  0  0  0  0  0  0
   -4.3131    0.0906    0.2266 C   0  0  0  0  0  0  0  0  0  0  0  0
   -3.4111    1.0710    0.6447 N   0  0  0  0  0  0  0  0  0  0  0  0
   -3.9499    2.2427    1.3240 C   0  0  0  0  0  0  0  0  0  0  0  0
   -2.9803    2.7630    2.3822 C   0  0  0  0  0  0  0  0  0  0  0  0
   -2.0911    1.2293    0.0283 C   0  0  0  0  0  0  0  0  0  0  0  0
   -1.1660    2.2106    0.7198 C   0  0  0  0  0  0  0  0  0  0  0  0
   -1.5971    2.9562    1.8230 C   0  0  0  0  0  0  0  0  0  0  0  0
   -0.6977    3.8391    2.4297 C   0  0  0  0  0  0  0  0  0  0  0  0
    0.5858    3.9766    1.9139 C   0  0  0  0  0  0  0  0  0  0  0  0
    0.9269    3.2139    0.8081 C   0  0  0  0  0  0  0  0  0  0  0  0
    2.3025    3.3180    0.2198 C   0  0  0  0  0  0  0  0  0  0  0  0
    2.4967    2.5200   -0.8865 N   0  0  0  0  0  0  0  0  0  0  0  0
    3.7892    2.3253   -1.4894 C   0  0  0  0  0  0  0  0  0  0  0  0
    4.4953    1.1451   -0.8717 C   0  0  0  0  0  0  0  0  0  0  0  0
    5.4599    1.3405    0.1287 C   0  0  0  0  0  0  0  0  0  0  0  0
    6.1136    0.2536    0.7138 C   0  0  0  0  0  0  0  0  0  0  0  0
    5.7956   -1.0453    0.3225 C   0  0  0  0  0  0  0  0  0  0  0  0
    4.8099   -1.2459   -0.6468 C   0  0  0  0  0  0  0  0  0  0  0  0
    4.3820   -2.9033   -1.1189 S   0  0  0  0  0  6  0  0  0  0  0  0
    3.2770   -3.4180    0.1701 C   0  0  0  0  0  0  0  0  0  0  0  0
    5.5864   -3.7069   -1.0327 O   0  0  0  0  0  0  0  0  0  0  0  0
    3.6208   -2.8317   -2.3524 O   0  0  0  0  0  0  0  0  0  0  0  0
    4.1684   -0.1630   -1.2556 C   0  0  0  0  0  0  0  0  0  0  0  0
    3.1602    4.0445    0.7073 O   0  0  0  0  0  0  0  0  0  0  0  0
    0.0822    2.3324    0.1990 N   0  0  0  0  0  0  0  0  0  0  0  0
   -5.5202    0.1341    0.4550 O   0  0  0  0  0  0  0  0  0  0  0  0
   -3.0096   -2.0460   -0.0254 C   0  0  0  0  0  0  0  0  0  0  0  0
   -2.6819   -1.9170    1.2977 O   0  0  0  0  0  0  0  0  0  0  0  0
   -2.0847   -3.0394    1.9340 C   0  0  0  0  0  0  0  0  0  0  0  0
   -3.4800   -2.7174   -4.7939 H   0  0  0  0  0  0  0  0  0  0  0  0
   -4.4039   -1.2288   -4.5911 H   0  0  0  0  0  0  0  0  0  0  0  0
   -5.1703   -2.7972   -4.2365 H   0  0  0  0  0  0  0  0  0  0  0  0
   -2.6379   -3.9715   -2.8131 H   0  0  0  0  0  0  0  0  0  0  0  0
   -1.9544   -3.8927   -0.4796 H   0  0  0  0  0  0  0  0  0  0  0  0
   -4.8798   -0.3261   -2.3169 H   0  0  0  0  0  0  0  0  0  0  0  0
   -4.1395    3.0050    0.5577 H   0  0  0  0  0  0  0  0  0  0  0  0
   -4.9099    2.0109    1.7977 H   0  0  0  0  0  0  0  0  0  0  0  0
   -3.3639    3.7081    2.7834 H   0  0  0  0  0  0  0  0  0  0  0  0
   -2.9157    2.0458    3.2098 H   0  0  0  0  0  0  0  0  0  0  0  0
   -2.2563    1.5749   -0.9995 H   0  0  0  0  0  0  0  0  0  0  0  0
   -1.5842    0.2622   -0.0197 H   0  0  0  0  0  0  0  0  0  0  0  0
   -0.9917    4.4187    3.3017 H   0  0  0  0  0  0  0  0  0  0  0  0
    1.3014    4.6569    2.3643 H   0  0  0  0  0  0  0  0  0  0  0  0
    1.7299    1.8968   -1.1212 H   0  0  0  0  0  0  0  0  0  0  0  0
    3.6359    2.1525   -2.5604 H   0  0  0  0  0  0  0  0  0  0  0  0
    4.3913    3.2353   -1.3879 H   0  0  0  0  0  0  0  0  0  0  0  0
    5.7047    2.3504    0.4577 H   0  0  0  0  0  0  0  0  0  0  0  0
    6.8704    0.4250    1.4759 H   0  0  0  0  0  0  0  0  0  0  0  0
    6.3162   -1.8865    0.7745 H   0  0  0  0  0  0  0  0  0  0  0  0
    2.4141   -2.7491    0.1882 H   0  0  0  0  0  0  0  0  0  0  0  0
    2.9513   -4.4370   -0.0502 H   0  0  0  0  0  0  0  0  0  0  0  0
    3.8052   -3.3971    1.1251 H   0  0  0  0  0  0  0  0  0  0  0  0
    3.4154   -0.3300   -2.0235 H   0  0  0  0  0  0  0  0  0  0  0  0
   -1.0735   -3.2121    1.5514 H   0  0  0  0  0  0  0  0  0  0  0  0
   -2.7062   -3.9351    1.8306 H   0  0  0  0  0  0  0  0  0  0  0  0
   -2.0018   -2.8130    3.0014 H   0  0  0  0  0  0  0  0  0  0  0  0
  1  2  1  0
  2  3  2  0
  3  4  1  0
  2  5  1  0
  5  6  2  0
  6  7  1  0
  7  8  1  0
  8  9  1  0
  9 10  1  0
  8 11  1  0
 11 12  1  0
 12 13  2  0
 13 14  1  0
 14 15  2  0
 15 16  1  0
 16 17  1  0
 17 18  1  0
 18 19  1  0
 19 20  1  0
 20 21  2  0
 21 22  1  0
 22 23  2  0
 23 24  1  0
 24 25  1  0
 25 26  1  0
 25 27  2  0
 25 28  2  0
 24 29  2  0
 17 30  2  0
 16 31  2  0
  7 32  2  0
  6 33  1  0
 33 34  1  0
 34 35  1  0
 33  4  2  0
 13 10  1  0
 29 20  1  0
 31 12  1  0
  1 36  1  0
  1 37  1  0
  1 38  1  0
  3 39  1  0
  4 40  1  0
  5 41  1  0
  9 42  1  0
  9 43  1  0
 10 44  1  0
 10 45  1  0
 11 46  1  0
 11 47  1  0
 14 48  1  0
 15 49  1  0
 18 50  1  0
 19 51  1  0
 19 52  1  0
 21 53  1  0
 22 54  1  0
 23 55  1  0
 26 56  1  0
 26 57  1  0
 26 58  1  0
 29 59  1  0
 35 60  1  0
 35 61  1  0
 35 62  1  0
M  END
>  <AS_ratio>  (13) 
0.00258407

>  <type>  (13) 
active

$$$$
EDS00470458
     RDKit          3D

 64 68  0  0  0  0  0  0  0  0999 V2000
    7.4374    0.7801    1.0532 C   0  0  0  0  0  0  0  0  0  0  0  0
    6.3134   -0.0535    0.7988 O   0  0  0  0  0  0  0  0  0  0  0  0
    6.5469   -1.3921    0.8628 C   0  0  0  0  0  0  0  0  0  0  0  0
    7.7861   -1.9977    0.8268 C   0  0  0  0  0  0  0  0  0  0  0  0
    7.6817   -3.6993    0.9623 S   0  0  0  0  0  0  0  0  0  0  0  0
    5.9798   -3.6357    1.0694 C   0  0  0  0  0  0  0  0  0  0  0  0
    5.4774   -2.3501    0.9565 C   0  0  0  0  0  0  0  0  0  0  0  0
    4.0395   -2.0907    1.0348 C   0  0  0  0  0  0  0  0  0  0  0  0
    3.4795   -1.1598    0.1596 N   0  0  0  0  0  0  0  0  0  0  0  0
    2.0610   -0.8659    0.3446 C   0  0  0  0  0  0  0  0  0  0  0  0
    1.5790    0.3730   -0.3851 C   0  0  0  0  0  0  0  0  0  0  0  0
    0.3153    0.7836   -0.1126 N   0  0  0  0  0  0  0  0  0  0  0  0
   -0.1370    1.8910   -0.7655 C   0  0  0  0  0  0  0  0  0  0  0  0
   -1.5374    2.3194   -0.4432 C   0  0  0  0  0  0  0  0  0  0  0  0
   -2.1587    1.5382    0.5045 N   0  0  0  0  0  0  0  0  0  0  0  0
   -3.5438    1.6888    0.9055 C   0  0  0  0  0  0  0  0  0  0  0  0
   -4.5140    0.6810    0.2057 C   0  0  0  0  0  0  0  0  0  0  0  0
   -5.9428    0.8435    0.8053 C   0  0  0  0  0  0  0  0  0  0  0  0
   -6.6195    2.1482    0.3966 C   0  0  0  0  0  0  0  0  0  0  0  0
   -6.6660    2.2775   -1.0188 O   0  0  0  0  0  0  0  0  0  0  0  0
   -5.3632    2.3055   -1.5961 C   0  0  0  0  0  0  0  0  0  0  0  0
   -4.6325    0.9982   -1.3135 C   0  0  0  0  0  0  0  0  0  0  0  0
   -4.0015   -0.7567    0.4870 C   0  0  0  0  0  0  0  0  0  0  0  0
   -3.4505   -1.5707   -0.5184 C   0  0  0  0  0  0  0  0  0  0  0  0
   -2.9627   -2.8505   -0.2333 C   0  0  0  0  0  0  0  0  0  0  0  0
   -3.0051   -3.3433    1.0659 C   0  0  0  0  0  0  0  0  0  0  0  0
   -3.5351   -2.5561    2.0814 C   0  0  0  0  0  0  0  0  0  0  0  0
   -4.0252   -1.2784    1.7960 C   0  0  0  0  0  0  0  0  0  0  0  0
   -2.0659    3.2735   -1.0021 O   0  0  0  0  0  0  0  0  0  0  0  0
    0.6122    2.6060   -1.6863 C   0  0  0  0  0  0  0  0  0  0  0  0
    1.9024    2.1664   -1.9598 C   0  0  0  0  0  0  0  0  0  0  0  0
    2.3975    1.0276   -1.3155 C   0  0  0  0  0  0  0  0  0  0  0  0
    3.8050    0.5559   -1.5708 C   0  0  0  0  0  0  0  0  0  0  0  0
    3.9924   -0.9099   -1.1851 C   0  0  0  0  0  0  0  0  0  0  0  0
    3.3501   -2.6945    1.8559 O   0  0  0  0  0  0  0  0  0  0  0  0
    7.0826    1.8146    1.0941 H   0  0  0  0  0  0  0  0  0  0  0  0
    7.8991    0.5468    2.0189 H   0  0  0  0  0  0  0  0  0  0  0  0
    8.1679    0.7116    0.2402 H   0  0  0  0  0  0  0  0  0  0  0  0
    8.7630   -1.5454    0.7375 H   0  0  0  0  0  0  0  0  0  0  0  0
    5.4124   -4.5484    1.2001 H   0  0  0  0  0  0  0  0  0  0  0  0
    1.4929   -1.7308   -0.0205 H   0  0  0  0  0  0  0  0  0  0  0  0
    1.8556   -0.7509    1.4158 H   0  0  0  0  0  0  0  0  0  0  0  0
   -1.6334    0.7261    0.8261 H   0  0  0  0  0  0  0  0  0  0  0  0
   -3.5554    1.5405    1.9920 H   0  0  0  0  0  0  0  0  0  0  0  0
   -3.8444    2.7259    0.7317 H   0  0  0  0  0  0  0  0  0  0  0  0
   -6.5678    0.0116    0.4513 H   0  0  0  0  0  0  0  0  0  0  0  0
   -5.9304    0.7879    1.8997 H   0  0  0  0  0  0  0  0  0  0  0  0
   -6.1223    3.0224    0.8308 H   0  0  0  0  0  0  0  0  0  0  0  0
   -7.6518    2.1533    0.7624 H   0  0  0  0  0  0  0  0  0  0  0  0
   -5.4864    2.4280   -2.6772 H   0  0  0  0  0  0  0  0  0  0  0  0
   -4.8178    3.1824   -1.2345 H   0  0  0  0  0  0  0  0  0  0  0  0
   -3.6525    1.0200   -1.8016 H   0  0  0  0  0  0  0  0  0  0  0  0
   -5.2108    0.1972   -1.7953 H   0  0  0  0  0  0  0  0  0  0  0  0
   -3.3772   -1.2292   -1.5468 H   0  0  0  0  0  0  0  0  0  0  0  0
   -2.5444   -3.4593   -1.0311 H   0  0  0  0  0  0  0  0  0  0  0  0
   -2.6227   -4.3361    1.2874 H   0  0  0  0  0  0  0  0  0  0  0  0
   -3.5635   -2.9325    3.1006 H   0  0  0  0  0  0  0  0  0  0  0  0
   -4.4168   -0.6927    2.6237 H   0  0  0  0  0  0  0  0  0  0  0  0
    0.2030    3.4840   -2.1749 H   0  0  0  0  0  0  0  0  0  0  0  0
    2.5167    2.7130   -2.6711 H   0  0  0  0  0  0  0  0  0  0  0  0
    4.0591    0.6808   -2.6295 H   0  0  0  0  0  0  0  0  0  0  0  0
    4.4851    1.1841   -0.9833 H   0  0  0  0  0  0  0  0  0  0  0  0
    5.0390   -1.1981   -1.2967 H   0  0  0  0  0  0  0  0  0  0  0  0
    3.4254   -1.5593   -1.8654 H   0  0  0  0  0  0  0  0  0  0  0  0
  1  2  1  0
  2  3  1  0
  3  4  2  0
  4  5  1  0
  5  6  1  0
  6  7  2  0
  7  8  1  0
  8  9  1  0
  9 10  1  0
 10 11  1  0
 11 12  2  0
 12 13  1  0
 13 14  1  0
 14 15  1  0
 15 16  1  0
 16 17  1  0
 17 18  1  0
 18 19  1  0
 19 20  1  0
 20 21  1  0
 21 22  1  0
 17 23  1  0
 23 24  2  0
 24 25  1  0
 25 26  2  0
 26 27  1  0
 27 28  2  0
 14 29  2  0
 13 30  2  0
 30 31  1  0
 31 32  2  0
 32 33  1  0
 33 34  1  0
  8 35  2  0
  7  3  1  0
 34  9  1  0
 32 11  1  0
 22 17  1  0
 28 23  1  0
  1 36  1  0
  1 37  1  0
  1 38  1  0
  4 39  1  0
  6 40  1  0
 10 41  1  0
 10 42  1  0
 15 43  1  0
 16 44  1  0
 16 45  1  0
 18 46  1  0
 18 47  1  0
 19 48  1  0
 19 49  1  0
 21 50  1  0
 21 51  1  0
 22 52  1  0
 22 53  1  0
 24 54  1  0
 25 55  1  0
 26 56  1  0
 27 57  1  0
 28 58  1  0
 30 59  1  0
 31 60  1  0
 33 61  1  0
 33 62  1  0
 34 63  1  0
 34 64  1  0
M  END
>  <AS_ratio>  (14) 
0.00145151

>  <type>  (14) 
active

$$$$
EDS00490706
     RDKit          3D

 59 63  0  0  0  0  0  0  0  0999 V2000
   -3.1487    2.2629   -1.8247 C   0  0  0  0  0  0  0  0  0  0  0  0
   -3.2633    1.7986   -0.4759 O   0  0  0  0  0  0  0  0  0  0  0  0
   -4.1660    0.7615   -0.4072 C   0  0  0  0  0  0  0  0  0  0  0  0
   -5.5042    1.0309   -0.0368 C   0  0  0  0  0  0  0  0  0  0  0  0
   -5.9725    2.3278    0.2648 C   0  0  0  0  0  0  0  0  0  0  0  0
   -7.3040    2.5554    0.6154 C   0  0  0  0  0  0  0  0  0  0  0  0
   -8.1962    1.4915    0.6735 C   0  0  0  0  0  0  0  0  0  0  0  0
   -7.7571    0.1985    0.3870 C   0  0  0  0  0  0  0  0  0  0  0  0
   -6.4201   -0.0488    0.0362 C   0  0  0  0  0  0  0  0  0  0  0  0
   -5.9844   -1.3554   -0.2411 C   0  0  0  0  0  0  0  0  0  0  0  0
   -4.6531   -1.6112   -0.5683 C   0  0  0  0  0  0  0  0  0  0  0  0
   -3.7422   -0.5560   -0.6260 C   0  0  0  0  0  0  0  0  0  0  0  0
   -2.3444   -0.8771   -0.9646 C   0  0  0  0  0  0  0  0  0  0  0  0
   -1.3753   -0.8405    0.0355 N   0  0  0  0  0  0  0  0  0  0  0  0
    0.0140   -0.9479   -0.4091 C   0  0  0  0  0  0  0  0  0  0  0  0
    1.0351   -1.1801    0.6857 C   0  0  0  0  0  0  0  0  0  0  0  0
    2.3249   -1.3309    0.2890 N   0  0  0  0  0  0  0  0  0  0  0  0
    3.2573   -1.5372    1.2623 C   0  0  0  0  0  0  0  0  0  0  0  0
    4.6733   -1.7040    0.7975 C   0  0  0  0  0  0  0  0  0  0  0  0
    4.8243   -1.6588   -0.5704 N   0  0  0  0  0  0  0  0  0  0  0  0
    6.1108   -1.6361   -1.2171 C   0  0  0  0  0  0  0  0  0  0  0  0
    6.4978   -0.2308   -1.5968 C   0  0  0  0  0  0  0  0  0  0  0  0
    7.0948    0.6163   -0.6518 C   0  0  0  0  0  0  0  0  0  0  0  0
    7.4407    1.9249   -0.9911 C   0  0  0  0  0  0  0  0  0  0  0  0
    7.1869    2.4024   -2.2756 C   0  0  0  0  0  0  0  0  0  0  0  0
    6.5833    1.5737   -3.2200 C   0  0  0  0  0  0  0  0  0  0  0  0
    6.2364    0.2640   -2.8822 C   0  0  0  0  0  0  0  0  0  0  0  0
    5.5949   -1.8590    1.5907 O   0  0  0  0  0  0  0  0  0  0  0  0
    2.9626   -1.5979    2.6155 C   0  0  0  0  0  0  0  0  0  0  0  0
    1.6373   -1.4388    3.0025 C   0  0  0  0  0  0  0  0  0  0  0  0
    0.6551   -1.2141    2.0324 C   0  0  0  0  0  0  0  0  0  0  0  0
   -0.7901   -1.0762    2.4221 C   0  0  0  0  0  0  0  0  0  0  0  0
   -1.5915   -0.3014    1.3777 C   0  0  0  0  0  0  0  0  0  0  0  0
   -2.1092   -1.1980   -2.1275 O   0  0  0  0  0  0  0  0  0  0  0  0
   -2.6654    1.5174   -2.4629 H   0  0  0  0  0  0  0  0  0  0  0  0
   -2.5181    3.1566   -1.8141 H   0  0  0  0  0  0  0  0  0  0  0  0
   -4.1240    2.5420   -2.2391 H   0  0  0  0  0  0  0  0  0  0  0  0
   -5.2917    3.1762    0.2297 H   0  0  0  0  0  0  0  0  0  0  0  0
   -7.6413    3.5637    0.8418 H   0  0  0  0  0  0  0  0  0  0  0  0
   -9.2344    1.6654    0.9442 H   0  0  0  0  0  0  0  0  0  0  0  0
   -8.4726   -0.6196    0.4418 H   0  0  0  0  0  0  0  0  0  0  0  0
   -6.6827   -2.1892   -0.1989 H   0  0  0  0  0  0  0  0  0  0  0  0
   -4.3279   -2.6277   -0.7777 H   0  0  0  0  0  0  0  0  0  0  0  0
    0.0922   -1.7594   -1.1420 H   0  0  0  0  0  0  0  0  0  0  0  0
    0.2614   -0.0087   -0.9192 H   0  0  0  0  0  0  0  0  0  0  0  0
    3.9929   -1.4158   -1.1008 H   0  0  0  0  0  0  0  0  0  0  0  0
    6.8762   -2.0775   -0.5689 H   0  0  0  0  0  0  0  0  0  0  0  0
    6.0390   -2.2666   -2.1101 H   0  0  0  0  0  0  0  0  0  0  0  0
    7.2873    0.2551    0.3573 H   0  0  0  0  0  0  0  0  0  0  0  0
    7.9057    2.5708   -0.2509 H   0  0  0  0  0  0  0  0  0  0  0  0
    7.4562    3.4217   -2.5391 H   0  0  0  0  0  0  0  0  0  0  0  0
    6.3806    1.9480   -4.2201 H   0  0  0  0  0  0  0  0  0  0  0  0
    5.7604   -0.3681   -3.6284 H   0  0  0  0  0  0  0  0  0  0  0  0
    3.7443   -1.7689    3.3484 H   0  0  0  0  0  0  0  0  0  0  0  0
    1.3758   -1.4912    4.0567 H   0  0  0  0  0  0  0  0  0  0  0  0
   -0.8772   -0.5651    3.3878 H   0  0  0  0  0  0  0  0  0  0  0  0
   -1.2093   -2.0838    2.5350 H   0  0  0  0  0  0  0  0  0  0  0  0
   -2.6483   -0.3361    1.6543 H   0  0  0  0  0  0  0  0  0  0  0  0
   -1.2864    0.7523    1.3570 H   0  0  0  0  0  0  0  0  0  0  0  0
  1  2  1  0
  2  3  1  0
  3  4  2  0
  4  5  1  0
  5  6  2  0
  6  7  1  0
  7  8  2  0
  4  9  1  0
  9 10  2  0
 10 11  1  0
  3 12  1  0
 12 13  1  0
 13 14  1  0
 14 15  1  0
 15 16  1  0
 16 17  2  0
 17 18  1  0
 18 19  1  0
 19 20  1  0
 20 21  1  0
 21 22  1  0
 22 23  2  0
 23 24  1  0
 24 25  2  0
 25 26  1  0
 26 27  2  0
 19 28  2  0
 18 29  2  0
 29 30  1  0
 30 31  2  0
 31 32  1  0
 32 33  1  0
 13 34  2  0
  9  8  1  0
 12 11  2  0
 33 14  1  0
 31 16  1  0
 27 22  1  0
  1 35  1  0
  1 36  1  0
  1 37  1  0
  5 38  1  0
  6 39  1  0
  7 40  1  0
  8 41  1  0
 10 42  1  0
 11 43  1  0
 15 44  1  0
 15 45  1  0
 20 46  1  0
 21 47  1  0
 21 48  1  0
 23 49  1  0
 24 50  1  0
 25 51  1  0
 26 52  1  0
 27 53  1  0
 29 54  1  0
 30 55  1  0
 32 56  1  0
 32 57  1  0
 33 58  1  0
 33 59  1  0
M  END
>  <AS_ratio>  (15) 
0.00121192

>  <type>  (15) 
active

$$$$
