EDEL-CRBN-0008
 OpenBabel09062619273D

 32 36  0  0  0  0  0  0  0  0999 V2000
   -5.9890    3.7266    3.1425 Cl  0  0  0  0  0  0  0  0  0  0  0  0
   -5.9501    2.1645    2.4174 C   0  0  2  0  0  0  0  0  0  0  0  0
   -5.2768    1.9548    1.2138 C   0  0  2  0  0  0  0  0  0  0  0  0
   -6.6069    1.1056    3.0444 C   0  0  0  0  0  0  0  0  0  0  0  0
   -4.6617    2.9814    0.6046 F   0  0  0  0  0  0  0  0  0  0  0  0
   -5.2489    0.6873    0.6192 C   0  0  2  0  0  0  0  0  0  0  0  0
   -6.5895   -0.1627    2.4629 C   0  0  0  0  0  0  0  0  0  0  0  0
   -5.9150   -0.3715    1.2575 C   0  0  0  0  0  0  0  0  0  0  0  0
   -4.5010    0.4676   -0.6748 C   0  0  0  0  0  0  0  0  0  0  0  0
   -3.0490    0.3092   -0.4929 N   0  0  0  0  0  0  0  0  0  0  0  0
   -2.3239    0.4207   -1.7687 C   0  0  0  0  0  0  0  0  0  0  0  0
   -2.7098   -0.9125    0.2594 C   0  0  0  0  0  0  0  0  0  0  0  0
   -1.9811   -0.9321   -2.3868 C   0  0  0  0  0  0  0  0  0  0  0  0
   -1.2578   -1.3288    0.0346 C   0  0  0  0  0  0  0  0  0  0  0  0
   -1.0718   -1.7242   -1.4376 C   0  0  1  0  0  0  0  0  0  0  0  0
   -1.3447   -3.1583   -1.5990 O   0  0  0  0  0  0  0  0  0  0  0  0
    0.3912   -1.9631   -1.9464 C   0  0  2  0  0  0  0  0  0  0  0  0
    0.0770   -3.4361   -1.6428 C   0  0  0  0  0  0  0  0  0  0  0  0
    1.6080   -1.2079   -1.2621 C   0  0  2  0  0  0  0  0  0  0  0  0
    1.8391    0.1548   -1.5175 C   0  0  0  0  0  0  0  0  0  0  0  0
    2.5222   -1.8205   -0.3909 C   0  0  0  0  0  0  0  0  0  0  0  0
    2.9025    0.8628   -0.9364 C   0  0  0  0  0  0  0  0  0  0  0  0
    3.5894   -1.1177    0.1941 C   0  0  0  0  0  0  0  0  0  0  0  0
    3.8006    0.2420   -0.0648 C   0  0  1  0  0  0  0  0  0  0  0  0
    4.9008    0.9583    0.5212 N   0  0  0  0  0  0  0  0  0  0  0  0
    4.8482    2.3370    0.7618 C   0  0  0  0  0  0  0  0  0  0  0  0
    6.0218    0.2166    1.0919 C   0  0  0  0  0  0  0  0  0  0  0  0
    3.9191    3.0969    0.5019 O   0  0  0  0  0  0  0  0  0  0  0  0
    5.9651    2.8713    1.3613 N   0  0  0  0  0  0  0  0  0  0  0  0
    7.3311    0.9365    0.8454 C   0  0  0  0  0  0  0  0  0  0  0  0
    7.2239    2.3409    1.3507 C   0  0  0  0  0  0  0  0  0  0  0  0
    8.2076    3.0069    1.6603 O   0  0  0  0  0  0  0  0  0  0  0  0
  2  1  1  6  0  0  0
  2  3  5  0  0  0  0
  2  4  5  0  0  0  0
  3  5  1  6  0  0  0
  3  6  5  0  0  0  0
  4  7  5  0  0  0  0
  6  8  5  0  0  0  0
  6  9  1  1  0  0  0
  7  8  5  0  0  0  0
  9 10  1  0  0  0  0
 10 11  1  0  0  0  0
 10 12  1  0  0  0  0
 11 13  1  0  0  0  0
 12 14  1  0  0  0  0
 15 14  1  1  0  0  0
 15 13  1  0  0  0  0
 15 16  1  0  0  0  0
 15 17  1  0  0  0  0
 16 18  1  0  0  0  0
 17 19  1  0  0  0  0
 17 18  1  1  0  0  0
 19 20  5  6  0  0  0
 19 21  5  0  0  0  0
 20 22  5  0  0  0  0
 21 23  5  0  0  0  0
 24 23  5  6  0  0  0
 24 22  5  0  0  0  0
 24 25  1  0  0  0  0
 25 26  1  0  0  0  0
 25 27  1  0  0  0  0
 26 28  2  0  0  0  0
 26 29  1  0  0  0  0
 27 30  1  0  0  0  0
 29 31  1  0  0  0  0
 30 31  1  0  0  0  0
 31 32  2  0  0  0  0
M  END
>  <ID>
EDEL-CRBN-0008

>  <Stereoisomer>
original

>  <MW>
457.16

>  <HBD>
1

>  <HBA>
4

>  <RotBonds>
4

>  <cLogP>
4.07

$$$$
