EDEL-CRBN-0005_ent
 OpenBabel09062619273D

 30 34  0  0  0  0  0  0  0  0999 V2000
    0.1445   -4.4953   -0.7798 O   0  0  0  0  0  0  0  0  0  0  0  0
    0.0228   -3.4476   -1.4186 C   0  0  0  0  0  0  0  0  0  0  0  0
   -1.1669   -3.2203   -2.0420 N   0  0  0  0  0  0  0  0  0  0  0  0
    1.1954   -2.5005   -1.6290 C   0  0  1  0  0  0  0  0  0  0  0  0
   -1.5983   -1.9780   -2.6337 C   0  0  0  0  0  0  0  0  0  0  0  0
    0.9883   -0.9915   -1.8322 C   0  0  1  0  0  0  0  0  0  0  0  0
    2.1962   -2.5982   -0.4617 C   0  0  0  0  0  0  0  0  0  0  0  0
   -1.5193   -0.8697   -1.6171 C   0  0  2  0  0  0  0  0  0  0  0  0
   -0.2595   -0.4217   -1.1722 C   0  0  2  0  0  0  0  0  0  0  0  0
    2.3511   -0.4438   -1.3799 C   0  0  0  0  0  0  0  0  0  0  0  0
    2.6328   -1.2232   -0.1758 N   0  0  0  0  0  0  0  0  0  0  0  0
   -2.6995   -0.3421   -1.0594 C   0  0  0  0  0  0  0  0  0  0  0  0
   -0.2270    0.5470   -0.1655 C   0  0  0  0  0  0  0  0  0  0  0  0
    4.0220   -1.1494    0.2753 C   0  0  0  0  0  0  0  0  0  0  0  0
   -2.6698    0.6397   -0.0614 C   0  0  2  0  0  0  0  0  0  0  0  0
   -1.4102    1.0667    0.3784 C   0  0  0  0  0  0  0  0  0  0  0  0
    4.3990    0.2301    0.7716 C   0  0  0  0  0  0  0  0  0  0  0  0
   -3.8811    1.1642    0.5073 N   0  0  0  0  0  0  0  0  0  0  0  0
    5.3839    0.9839    0.1181 C   0  0  0  0  0  0  0  0  0  0  0  0
    3.7633    0.7754    1.8976 C   0  0  0  0  0  0  0  0  0  0  0  0
   -5.0717    1.2428   -0.2246 C   0  0  0  0  0  0  0  0  0  0  0  0
   -3.8333    1.8462    1.7979 C   0  0  0  0  0  0  0  0  0  0  0  0
    5.7251    2.2558    0.5823 C   0  0  0  0  0  0  0  0  0  0  0  0
    4.1055    2.0466    2.3600 C   0  0  0  0  0  0  0  0  0  0  0  0
   -5.2488    0.8779   -1.3844 O   0  0  0  0  0  0  0  0  0  0  0  0
   -6.1365    1.7996    0.4446 N   0  0  0  0  0  0  0  0  0  0  0  0
   -5.0765    1.5544    2.6117 C   0  0  0  0  0  0  0  0  0  0  0  0
    5.0866    2.7860    1.7024 C   0  0  0  0  0  0  0  0  0  0  0  0
   -6.2875    1.8912    1.7994 C   0  0  0  0  0  0  0  0  0  0  0  0
   -7.3725    2.1550    2.3098 O   0  0  0  0  0  0  0  0  0  0  0  0
  1  2  2  0  0  0  0
  2  3  1  0  0  0  0
  3  5  1  0  0  0  0
  4  2  1  0  0  0  0
  4  6  1  0  0  0  0
  4  7  1  1  0  0  0
  6  9  1  0  0  0  0
  6 10  1  1  0  0  0
  7 11  1  0  0  0  0
  8  5  1  1  0  0  0
  8 12  5  0  0  0  0
  8  9  5  0  0  0  0
  9 13  5  6  0  0  0
 10 11  1  0  0  0  0
 11 14  1  0  0  0  0
 13 16  5  0  0  0  0
 14 17  1  0  0  0  0
 15 12  5  1  0  0  0
 15 18  1  0  0  0  0
 15 16  5  0  0  0  0
 17 19  5  0  0  0  0
 17 20  5  0  0  0  0
 18 21  1  0  0  0  0
 18 22  1  0  0  0  0
 19 23  5  0  0  0  0
 20 24  5  0  0  0  0
 21 25  2  0  0  0  0
 21 26  1  0  0  0  0
 22 27  1  0  0  0  0
 23 28  5  0  0  0  0
 24 28  5  0  0  0  0
 26 29  1  0  0  0  0
 27 29  1  0  0  0  0
 29 30  2  0  0  0  0
M  END
>  <ID>
EDEL-CRBN-0005_ent

>  <Stereoisomer>
enantiomer

>  <MW>
404.18

>  <HBD>
2

>  <HBA>
4

>  <RotBonds>
3

>  <cLogP>
1.98

$$$$
