EDEL-CRBN-0010
 OpenBabel09062619273D

 34 38  0  0  0  0  0  0  0  0999 V2000
    1.9879   -3.0816   -1.8663 O   0  0  0  0  0  0  0  0  0  0  0  0
    1.6523   -1.9650   -1.4686 C   0  0  0  0  0  0  0  0  0  0  0  0
    0.9191   -1.1793   -2.2988 N   0  0  0  0  0  0  0  0  0  0  0  0
    2.1032   -1.4452   -0.1214 C   0  0  2  0  0  0  0  0  0  0  0  0
    0.2743    0.0588   -1.9503 C   0  0  0  0  0  0  0  0  0  0  0  0
    1.0952   -0.7535    0.8173 C   0  0  2  0  0  0  0  0  0  0  0  0
    3.2652   -0.4633   -0.2600 C   0  0  0  0  0  0  0  0  0  0  0  0
   -0.7552   -0.1642   -0.8773 C   0  0  2  0  0  0  0  0  0  0  0  0
   -0.3554   -0.5658    0.4142 C   0  0  2  0  0  0  0  0  0  0  0  0
    1.7672    0.5839    1.1796 C   0  0  0  0  0  0  0  0  0  0  0  0
    3.1942    0.3220    0.9788 N   0  0  0  0  0  0  0  0  0  0  0  0
   -2.1287    0.0118   -1.1476 C   0  0  2  0  0  0  0  0  0  0  0  0
   -1.3396   -0.7389    1.4069 C   0  0  0  0  0  0  0  0  0  0  0  0
    3.9810    1.5583    0.9279 C   0  0  0  0  0  0  0  0  0  0  0  0
   -2.5046    0.3644   -2.4269 O   0  0  0  0  0  0  0  0  0  0  0  0
   -3.1078   -0.1445   -0.1457 C   0  0  1  0  0  0  0  0  0  0  0  0
   -2.6981   -0.5407    1.1345 C   0  0  2  0  0  0  0  0  0  0  0  0
    5.4719    1.3090    0.8587 C   0  0  0  0  0  0  0  0  0  0  0  0
   -2.9329   -0.7964   -3.1477 C   0  0  0  0  0  0  0  0  0  0  0  0
   -4.4764    0.1341   -0.4398 N   0  0  0  0  0  0  0  0  0  0  0  0
   -3.6206   -0.5737    2.1522 O   0  0  0  0  0  0  0  0  0  0  0  0
    6.1257    0.6184    1.8903 C   0  0  0  0  0  0  0  0  0  0  0  0
    6.2254    1.7708   -0.2299 C   0  0  0  0  0  0  0  0  0  0  0  0
   -5.4892   -0.7440   -0.0726 C   0  0  0  0  0  0  0  0  0  0  0  0
   -4.8231    1.5167   -0.7385 C   0  0  0  0  0  0  0  0  0  0  0  0
   -3.6043   -1.8110    2.8657 C   0  0  0  0  0  0  0  0  0  0  0  0
    7.5015    0.3923    1.8331 C   0  0  0  0  0  0  0  0  0  0  0  0
    7.6021    1.5442   -0.2852 C   0  0  0  0  0  0  0  0  0  0  0  0
   -5.3368   -1.9160    0.2643 O   0  0  0  0  0  0  0  0  0  0  0  0
   -6.7627   -0.2439   -0.2104 N   0  0  0  0  0  0  0  0  0  0  0  0
   -6.0102    1.5595   -1.6741 C   0  0  0  0  0  0  0  0  0  0  0  0
    8.2392    0.8558    0.7457 C   0  0  0  0  0  0  0  0  0  0  0  0
   -7.1268    0.7374   -1.0921 C   0  0  0  0  0  0  0  0  0  0  0  0
   -8.2946    0.8753   -1.4480 O   0  0  0  0  0  0  0  0  0  0  0  0
  1  2  2  0  0  0  0
  2  3  1  0  0  0  0
  3  5  1  0  0  0  0
  4  2  1  0  0  0  0
  4  6  1  0  0  0  0
  4  7  1  6  0  0  0
  6  9  1  0  0  0  0
  6 10  1  6  0  0  0
  7 11  1  0  0  0  0
  8  5  1  6  0  0  0
  8 12  5  0  0  0  0
  8  9  5  0  0  0  0
  9 13  5  1  0  0  0
 10 11  1  0  0  0  0
 11 14  1  0  0  0  0
 12 15  1  1  0  0  0
 12 16  5  0  0  0  0
 13 17  5  0  0  0  0
 14 18  1  0  0  0  0
 15 19  1  0  0  0  0
 16 20  1  1  0  0  0
 16 17  5  0  0  0  0
 17 21  1  1  0  0  0
 18 22  5  0  0  0  0
 18 23  5  0  0  0  0
 20 24  1  0  0  0  0
 20 25  1  0  0  0  0
 21 26  1  0  0  0  0
 22 27  5  0  0  0  0
 23 28  5  0  0  0  0
 24 29  2  0  0  0  0
 24 30  1  0  0  0  0
 25 31  1  0  0  0  0
 27 32  5  0  0  0  0
 28 32  5  0  0  0  0
 30 33  1  0  0  0  0
 31 33  1  0  0  0  0
 33 34  2  0  0  0  0
M  END
>  <ID>
EDEL-CRBN-0010

>  <Stereoisomer>
original

>  <MW>
464.21

>  <HBD>
2

>  <HBA>
6

>  <RotBonds>
5

>  <cLogP>
2.0

$$$$
