EDEL-CRBN-0008_ent
 OpenBabel09062619273D

 32 36  0  0  0  0  0  0  0  0999 V2000
   -5.2931    4.4753   -1.2638 Cl  0  0  0  0  0  0  0  0  0  0  0  0
   -5.4438    2.9837   -0.4153 C   0  0  2  0  0  0  0  0  0  0  0  0
   -4.8736    1.8158   -0.9221 C   0  0  2  0  0  0  0  0  0  0  0  0
   -6.1506    2.9515    0.7866 C   0  0  0  0  0  0  0  0  0  0  0  0
   -4.2134    1.8481   -2.0912 F   0  0  0  0  0  0  0  0  0  0  0  0
   -4.9974    0.6004   -0.2366 C   0  0  2  0  0  0  0  0  0  0  0  0
   -6.2878    1.7472    1.4778 C   0  0  0  0  0  0  0  0  0  0  0  0
   -5.7161    0.5781    0.9693 C   0  0  0  0  0  0  0  0  0  0  0  0
   -4.3641   -0.6537   -0.7910 C   0  0  0  0  0  0  0  0  0  0  0  0
   -2.9054   -0.6848   -0.6153 N   0  0  0  0  0  0  0  0  0  0  0  0
   -2.2895   -1.5892   -1.6014 C   0  0  0  0  0  0  0  0  0  0  0  0
   -2.4758   -0.9505    0.7657 C   0  0  0  0  0  0  0  0  0  0  0  0
   -0.8402   -1.8956   -1.2366 C   0  0  0  0  0  0  0  0  0  0  0  0
   -2.0047   -2.3857    0.9876 C   0  0  0  0  0  0  0  0  0  0  0  0
   -0.8062   -2.6876    0.0789 C   0  0  1  0  0  0  0  0  0  0  0  0
   -0.7774   -4.1260   -0.2134 O   0  0  0  0  0  0  0  0  0  0  0  0
    0.5745   -2.8251    0.8069 C   0  0  1  0  0  0  0  0  0  0  0  0
    0.6459   -4.1657    0.0605 C   0  0  0  0  0  0  0  0  0  0  0  0
    1.6823   -1.7019    0.6314 C   0  0  1  0  0  0  0  0  0  0  0  0
    1.6162   -0.5132    1.3794 C   0  0  0  0  0  0  0  0  0  0  0  0
    2.7749   -1.8027   -0.2441 C   0  0  0  0  0  0  0  0  0  0  0  0
    2.5691    0.5094    1.2589 C   0  0  0  0  0  0  0  0  0  0  0  0
    3.7310   -0.7811   -0.3727 C   0  0  0  0  0  0  0  0  0  0  0  0
    3.6480    0.3970    0.3791 C   0  0  1  0  0  0  0  0  0  0  0  0
    4.6152    1.4497    0.2375 N   0  0  0  0  0  0  0  0  0  0  0  0
    4.9291    2.3169    1.2905 C   0  0  0  0  0  0  0  0  0  0  0  0
    5.4601    1.4962   -0.9525 C   0  0  0  0  0  0  0  0  0  0  0  0
    4.4469    2.3092    2.4203 O   0  0  0  0  0  0  0  0  0  0  0  0
    5.8908    3.2591    1.0082 N   0  0  0  0  0  0  0  0  0  0  0  0
    5.7076    2.9257   -1.3863 C   0  0  0  0  0  0  0  0  0  0  0  0
    6.2579    3.7019   -0.2311 C   0  0  0  0  0  0  0  0  0  0  0  0
    6.9312    4.7177   -0.3792 O   0  0  0  0  0  0  0  0  0  0  0  0
  2  1  1  6  0  0  0
  2  3  5  0  0  0  0
  2  4  5  0  0  0  0
  3  5  1  6  0  0  0
  3  6  5  0  0  0  0
  4  7  5  0  0  0  0
  6  8  5  0  0  0  0
  6  9  1  1  0  0  0
  7  8  5  0  0  0  0
  9 10  1  0  0  0  0
 10 11  1  0  0  0  0
 10 12  1  0  0  0  0
 11 13  1  0  0  0  0
 12 14  1  0  0  0  0
 15 14  1  1  0  0  0
 15 13  1  0  0  0  0
 15 16  1  0  0  0  0
 15 17  1  0  0  0  0
 16 18  1  0  0  0  0
 17 19  1  0  0  0  0
 17 18  1  6  0  0  0
 19 20  5  1  0  0  0
 19 21  5  0  0  0  0
 20 22  5  0  0  0  0
 21 23  5  0  0  0  0
 24 23  5  6  0  0  0
 24 22  5  0  0  0  0
 24 25  1  0  0  0  0
 25 26  1  0  0  0  0
 25 27  1  0  0  0  0
 26 28  2  0  0  0  0
 26 29  1  0  0  0  0
 27 30  1  0  0  0  0
 29 31  1  0  0  0  0
 30 31  1  0  0  0  0
 31 32  2  0  0  0  0
M  END
>  <ID>
EDEL-CRBN-0008_ent

>  <Stereoisomer>
enantiomer

>  <MW>
457.16

>  <HBD>
1

>  <HBA>
4

>  <RotBonds>
4

>  <cLogP>
4.07

$$$$
