EDEL-CRBN-0013_ent
 OpenBabel09062619273D

 36 40  0  0  0  0  0  0  0  0999 V2000
   -4.9303    0.6814   -0.0258 O   0  0  0  0  0  0  0  0  0  0  0  0
   -4.9979   -0.3569    0.6288 C   0  0  0  0  0  0  0  0  0  0  0  0
   -3.9597   -1.2618    0.8533 N   0  0  0  0  0  0  0  0  0  0  0  0
   -6.1821   -0.6668    1.2587 N   0  0  0  0  0  0  0  0  0  0  0  0
   -2.6932   -1.0918    0.2129 C   0  0  1  0  0  0  0  0  0  0  0  0
   -4.0812   -2.1834    1.9711 C   0  0  0  0  0  0  0  0  0  0  0  0
   -6.5109   -1.8465    1.8685 C   0  0  0  0  0  0  0  0  0  0  0  0
   -2.6096   -0.8809   -1.1950 C   0  0  2  0  0  0  0  0  0  0  0  0
   -1.5169   -1.1329    0.9833 C   0  0  0  0  0  0  0  0  0  0  0  0
   -5.4244   -2.8797    1.9283 C   0  0  0  0  0  0  0  0  0  0  0  0
   -7.6467   -2.0608    2.2835 O   0  0  0  0  0  0  0  0  0  0  0  0
   -3.7633   -1.0118   -1.9356 O   0  0  0  0  0  0  0  0  0  0  0  0
   -1.3737   -0.6955   -1.8311 C   0  0  0  0  0  0  0  0  0  0  0  0
   -0.3091   -0.9280    0.3446 C   0  0  1  0  0  0  0  0  0  0  0  0
   -3.9312    0.0134   -2.9133 C   0  0  0  0  0  0  0  0  0  0  0  0
   -0.2402   -0.7095   -1.0458 C   0  0  2  0  0  0  0  0  0  0  0  0
    1.0964   -0.8318    0.8922 C   0  0  1  0  0  0  0  0  0  0  0  0
    1.2086   -0.4796   -1.4045 C   0  0  2  0  0  0  0  0  0  0  0  0
    1.8550   -1.1780   -0.3031 N   0  0  0  0  0  0  0  0  0  0  0  0
    1.4528    0.6542    1.2321 C   0  0  0  0  0  0  0  0  0  0  0  0
    1.5659    1.0364   -1.2494 C   0  0  0  0  0  0  0  0  0  0  0  0
    3.1855   -1.4876   -0.3315 C   0  0  0  0  0  0  0  0  0  0  0  0
    1.3528    1.6508    0.1106 N   0  0  0  0  0  0  0  0  0  0  0  0
    3.8614   -1.4569   -1.3506 O   0  0  0  0  0  0  0  0  0  0  0  0
    3.6429   -1.8235    0.9008 O   0  0  0  0  0  0  0  0  0  0  0  0
    0.1028    2.4279    0.2002 C   0  0  0  0  0  0  0  0  0  0  0  0
    5.0363   -2.1678    1.1090 C   0  0  0  0  0  0  0  0  0  0  0  0
    0.0545    3.6321   -0.7191 C   0  0  0  0  0  0  0  0  0  0  0  0
    5.1395   -2.4699    2.6119 C   0  0  0  0  0  0  0  0  0  0  0  0
    5.9556   -0.9852    0.7845 C   0  0  0  0  0  0  0  0  0  0  0  0
    5.4234   -3.4288    0.3290 C   0  0  0  0  0  0  0  0  0  0  0  0
   -1.0789    3.8679   -1.5121 C   0  0  0  0  0  0  0  0  0  0  0  0
    1.1147    4.5496   -0.7642 C   0  0  0  0  0  0  0  0  0  0  0  0
   -1.1406    4.9865   -2.3450 C   0  0  0  0  0  0  0  0  0  0  0  0
    1.0518    5.6665   -1.5986 C   0  0  0  0  0  0  0  0  0  0  0  0
   -0.0750    5.8838   -2.3894 C   0  0  0  0  0  0  0  0  0  0  0  0
  1  2  2  0  0  0  0
  2  3  1  0  0  0  0
  2  4  1  0  0  0  0
  3  6  1  0  0  0  0
  4  7  1  0  0  0  0
  5  3  1  1  0  0  0
  5  8  5  0  0  0  0
  5  9  5  0  0  0  0
  6 10  1  0  0  0  0
  7 11  2  0  0  0  0
  7 10  1  0  0  0  0
  8 12  1  6  0  0  0
  8 13  5  0  0  0  0
 12 15  1  0  0  0  0
 14  9  5  1  0  0  0
 14 17  1  0  0  0  0
 14 16  5  0  0  0  0
 16 13  5  1  0  0  0
 16 18  1  0  0  0  0
 17 19  1  0  0  0  0
 17 20  1  6  0  0  0
 18 21  1  1  0  0  0
 18 19  1  0  0  0  0
 19 22  1  0  0  0  0
 20 23  1  0  0  0  0
 21 23  1  0  0  0  0
 22 24  2  0  0  0  0
 22 25  1  0  0  0  0
 23 26  1  0  0  0  0
 25 27  1  0  0  0  0
 26 28  1  0  0  0  0
 27 29  1  0  0  0  0
 27 30  1  0  0  0  0
 27 31  1  0  0  0  0
 28 32  5  0  0  0  0
 28 33  5  0  0  0  0
 32 34  5  0  0  0  0
 33 35  5  0  0  0  0
 34 36  5  0  0  0  0
 35 36  5  0  0  0  0
M  END
>  <ID>
EDEL-CRBN-0013_ent

>  <Stereoisomer>
enantiomer

>  <MW>
492.24

>  <HBD>
1

>  <HBA>
6

>  <RotBonds>
4

>  <cLogP>
3.99

$$$$
