EDEL-CRBN-0015_ent
 OpenBabel09062619273D

 36 40  0  0  0  0  0  0  0  0999 V2000
    9.1819    1.0718   -0.4970 Cl  0  0  0  0  0  0  0  0  0  0  0  0
    7.6086    0.6509   -1.0578 C   0  0  1  0  0  0  0  0  0  0  0  0
    6.4727    1.0293   -0.3421 C   0  0  1  0  0  0  0  0  0  0  0  0
    7.4783   -0.0710   -2.2442 C   0  0  0  0  0  0  0  0  0  0  0  0
    6.6022    1.7401    0.7898 F   0  0  0  0  0  0  0  0  0  0  0  0
    5.1921    0.6927   -0.7984 C   0  0  1  0  0  0  0  0  0  0  0  0
    6.2087   -0.4112   -2.7131 C   0  0  0  0  0  0  0  0  0  0  0  0
    5.0718   -0.0320   -1.9952 C   0  0  0  0  0  0  0  0  0  0  0  0
    3.9704    1.0919   -0.0048 C   0  0  0  0  0  0  0  0  0  0  0  0
    3.7110    0.2177    1.1491 N   0  0  0  0  0  0  0  0  0  0  0  0
    3.3888   -1.1639    0.7578 C   0  0  0  0  0  0  0  0  0  0  0  0
    2.7254    0.8032    2.0742 C   0  0  0  0  0  0  0  0  0  0  0  0
    2.6423   -1.9040    1.8657 C   0  0  0  0  0  0  0  0  0  0  0  0
    1.3117    0.2770    1.8415 C   0  0  0  0  0  0  0  0  0  0  0  0
    1.2718   -1.2379    2.0760 C   0  0  2  0  0  0  0  0  0  0  0  0
    0.7937   -1.5250    3.4285 O   0  0  0  0  0  0  0  0  0  0  0  0
    0.0567   -2.0284    1.4797 C   0  0  1  0  0  0  0  0  0  0  0  0
   -0.1201   -2.5264    2.9252 C   0  0  0  0  0  0  0  0  0  0  0  0
   -1.1475   -1.2473    0.7746 C   0  0  1  0  0  0  0  0  0  0  0  0
   -2.0089   -0.3733    1.4731 C   0  0  0  0  0  0  0  0  0  0  0  0
   -1.3870   -1.3862   -0.6053 C   0  0  0  0  0  0  0  0  0  0  0  0
   -3.0526    0.3248    0.8464 C   0  0  2  0  0  0  0  0  0  0  0  0
   -2.4313   -0.7141   -1.2539 C   0  0  1  0  0  0  0  0  0  0  0  0
   -3.9182    1.1653    1.5054 O   0  0  0  0  0  0  0  0  0  0  0  0
   -3.2682    0.1553   -0.5359 C   0  0  1  0  0  0  0  0  0  0  0  0
   -2.5484   -0.7765   -2.6223 O   0  0  0  0  0  0  0  0  0  0  0  0
   -3.8364    1.2192    2.9239 C   0  0  0  0  0  0  0  0  0  0  0  0
   -4.3257    0.8640   -1.1813 N   0  0  0  0  0  0  0  0  0  0  0  0
   -2.6638   -2.1162   -3.1028 C   0  0  0  0  0  0  0  0  0  0  0  0
   -5.2381    0.2196   -2.0075 C   0  0  0  0  0  0  0  0  0  0  0  0
   -4.2360    2.3154   -1.2342 C   0  0  0  0  0  0  0  0  0  0  0  0
   -5.3801   -0.9960   -2.1224 O   0  0  0  0  0  0  0  0  0  0  0  0
   -6.1014    1.0597   -2.6724 N   0  0  0  0  0  0  0  0  0  0  0  0
   -5.6209    2.9177   -1.1616 C   0  0  0  0  0  0  0  0  0  0  0  0
   -6.4805    2.2982   -2.2293 C   0  0  0  0  0  0  0  0  0  0  0  0
   -7.5125    2.8313   -2.6304 O   0  0  0  0  0  0  0  0  0  0  0  0
  2  1  1  6  0  0  0
  2  3  5  0  0  0  0
  2  4  5  0  0  0  0
  3  5  1  6  0  0  0
  3  6  5  0  0  0  0
  4  7  5  0  0  0  0
  6  8  5  0  0  0  0
  6  9  1  1  0  0  0
  7  8  5  0  0  0  0
  9 10  1  0  0  0  0
 10 11  1  0  0  0  0
 10 12  1  0  0  0  0
 11 13  1  0  0  0  0
 12 14  1  0  0  0  0
 15 14  1  6  0  0  0
 15 13  1  0  0  0  0
 15 16  1  0  0  0  0
 15 17  1  0  0  0  0
 16 18  1  0  0  0  0
 17 19  1  0  0  0  0
 17 18  1  1  0  0  0
 19 20  5  6  0  0  0
 19 21  5  0  0  0  0
 20 22  5  0  0  0  0
 21 23  5  0  0  0  0
 22 24  1  1  0  0  0
 22 25  5  0  0  0  0
 23 26  1  6  0  0  0
 23 25  5  0  0  0  0
 24 27  1  0  0  0  0
 25 28  1  1  0  0  0
 26 29  1  0  0  0  0
 28 30  1  0  0  0  0
 28 31  1  0  0  0  0
 30 32  2  0  0  0  0
 30 33  1  0  0  0  0
 31 34  1  0  0  0  0
 33 35  1  0  0  0  0
 34 35  1  0  0  0  0
 35 36  2  0  0  0  0
M  END
>  <ID>
EDEL-CRBN-0015_ent

>  <Stereoisomer>
enantiomer

>  <MW>
517.18

>  <HBD>
1

>  <HBA>
6

>  <RotBonds>
6

>  <cLogP>
4.09

$$$$
