EDEL-CRBN-0002_ent
 OpenBabel09062619273D

 27 29  0  0  0  0  0  0  0  0999 V2000
    4.0834    0.2596   -1.6522 O   0  0  0  0  0  0  0  0  0  0  0  0
    4.1599   -0.4684   -0.6651 C   0  0  0  0  0  0  0  0  0  0  0  0
    3.2446   -0.5438    0.3854 N   0  0  0  0  0  0  0  0  0  0  0  0
    5.2161   -1.3474   -0.5765 N   0  0  0  0  0  0  0  0  0  0  0  0
    2.1353    0.3552    0.4611 C   0  0  2  0  0  0  0  0  0  0  0  0
    3.2710   -1.7228    1.2361 C   0  0  0  0  0  0  0  0  0  0  0  0
    5.5883   -2.0861    0.5129 C   0  0  0  0  0  0  0  0  0  0  0  0
    2.3052    1.7462    0.3164 C   0  0  2  0  0  0  0  0  0  0  0  0
    0.8444   -0.1445    0.7051 C   0  0  0  0  0  0  0  0  0  0  0  0
    4.6835   -1.9962    1.7061 C   0  0  0  0  0  0  0  0  0  0  0  0
    6.6334   -2.7311    0.5263 O   0  0  0  0  0  0  0  0  0  0  0  0
    3.5822    2.2513    0.2488 O   0  0  0  0  0  0  0  0  0  0  0  0
    1.2035    2.6046    0.4085 C   0  0  0  0  0  0  0  0  0  0  0  0
   -0.2679    0.7105    0.7733 C   0  0  2  0  0  0  0  0  0  0  0  0
    3.7474    3.2223   -0.7835 C   0  0  0  0  0  0  0  0  0  0  0  0
   -0.0742    2.0887    0.6243 C   0  0  0  0  0  0  0  0  0  0  0  0
   -1.6567    0.1552    1.0102 C   0  0  0  0  0  0  0  0  0  0  0  0
   -2.5941    0.4400   -0.0863 N   0  0  0  0  0  0  0  0  0  0  0  0
   -4.0048    0.2214    0.3447 C   0  0  1  0  0  0  0  0  0  0  0  0
   -2.2385   -0.1770   -1.3643 C   0  0  0  0  0  0  0  0  0  0  0  0
   -4.5300    1.5423    0.9171 C   0  0  0  0  0  0  0  0  0  0  0  0
   -5.0000   -0.3026   -0.7306 C   0  0  0  0  0  0  0  0  0  0  0  0
   -2.3301   -1.7009   -1.4607 C   0  0  0  0  0  0  0  0  0  0  0  0
   -4.4935    1.8733    2.0943 O   0  0  0  0  0  0  0  0  0  0  0  0
   -4.9990    2.4075   -0.0061 O   0  0  0  0  0  0  0  0  0  0  0  0
   -4.8417   -1.6926   -1.2025 N   0  0  0  0  0  0  0  0  0  0  0  0
   -3.5814   -2.3357   -0.8597 C   0  0  0  0  0  0  0  0  0  0  0  0
  1  2  2  0  0  0  0
  2  3  1  0  0  0  0
  2  4  1  0  0  0  0
  3  6  1  0  0  0  0
  4  7  1  0  0  0  0
  5  3  1  1  0  0  0
  5  8  5  0  0  0  0
  5  9  5  0  0  0  0
  6 10  1  0  0  0  0
  7 11  2  0  0  0  0
  7 10  1  0  0  0  0
  8 12  1  1  0  0  0
  8 13  5  0  0  0  0
  9 14  5  0  0  0  0
 12 15  1  0  0  0  0
 13 16  5  0  0  0  0
 14 17  1  1  0  0  0
 14 16  5  0  0  0  0
 17 18  1  0  0  0  0
 18 19  1  0  0  0  0
 18 20  1  0  0  0  0
 19 21  1  6  0  0  0
 19 22  1  0  0  0  0
 20 23  1  0  0  0  0
 21 24  2  0  0  0  0
 21 25  1  0  0  0  0
 22 26  1  0  0  0  0
 23 27  1  0  0  0  0
 26 27  1  0  0  0  0
M  END
>  <ID>
EDEL-CRBN-0002_ent

>  <Stereoisomer>
enantiomer

>  <MW>
376.17

>  <HBD>
3

>  <HBA>
6

>  <RotBonds>
5

>  <cLogP>
0.39

$$$$
