EDEL-CRBN-0003
 OpenBabel09062619273D

 27 29  0  0  0  0  0  0  0  0999 V2000
    4.9639    0.3473   -2.4666 O   0  0  0  0  0  0  0  0  0  0  0  0
    4.6489   -0.5235   -1.6597 C   0  0  0  0  0  0  0  0  0  0  0  0
    3.4030   -0.6775   -1.0546 N   0  0  0  0  0  0  0  0  0  0  0  0
    5.6129   -1.4051   -1.2266 N   0  0  0  0  0  0  0  0  0  0  0  0
    2.2572    0.0933   -1.4351 C   0  0  2  0  0  0  0  0  0  0  0  0
    3.1939   -1.8803   -0.2508 C   0  0  0  0  0  0  0  0  0  0  0  0
    5.6282   -2.0030    0.0051 C   0  0  0  0  0  0  0  0  0  0  0  0
    1.2603    0.4502   -0.4996 C   0  0  1  0  0  0  0  0  0  0  0  0
    2.0807    0.4917   -2.7668 C   0  0  0  0  0  0  0  0  0  0  0  0
    4.3204   -2.0351    0.7459 C   0  0  0  0  0  0  0  0  0  0  0  0
    6.6736   -2.4168    0.5002 O   0  0  0  0  0  0  0  0  0  0  0  0
    1.4478    0.2243    0.8472 O   0  0  0  0  0  0  0  0  0  0  0  0
    0.0628    1.0755   -0.9017 C   0  0  1  0  0  0  0  0  0  0  0  0
    0.9221    1.1590   -3.1702 C   0  0  0  0  0  0  0  0  0  0  0  0
    2.2752    1.2473    1.4061 C   0  0  0  0  0  0  0  0  0  0  0  0
   -0.0869    1.4318   -2.2498 C   0  0  0  0  0  0  0  0  0  0  0  0
   -1.0595    1.3606    0.0763 C   0  0  0  0  0  0  0  0  0  0  0  0
   -1.8089    0.1663    0.4935 N   0  0  0  0  0  0  0  0  0  0  0  0
   -2.6635    0.4384    1.6779 C   0  0  2  0  0  0  0  0  0  0  0  0
   -2.4928   -0.5540   -0.5885 C   0  0  0  0  0  0  0  0  0  0  0  0
   -2.8495   -0.8287    2.5315 C   0  0  0  0  0  0  0  0  0  0  0  0
   -4.0240    1.1315    1.4130 C   0  0  0  0  0  0  0  0  0  0  0  0
   -3.5975    0.2102   -1.3195 C   0  0  0  0  0  0  0  0  0  0  0  0
   -2.5479   -1.9838    2.2722 O   0  0  0  0  0  0  0  0  0  0  0  0
   -3.3766   -0.5530    3.7507 O   0  0  0  0  0  0  0  0  0  0  0  0
   -5.0448    0.2836    0.7992 N   0  0  0  0  0  0  0  0  0  0  0  0
   -4.9691    0.1544   -0.6496 C   0  0  0  0  0  0  0  0  0  0  0  0
  1  2  2  0  0  0  0
  2  3  1  0  0  0  0
  2  4  1  0  0  0  0
  3  6  1  0  0  0  0
  4  7  1  0  0  0  0
  5  3  1  6  0  0  0
  5  8  5  0  0  0  0
  5  9  5  0  0  0  0
  6 10  1  0  0  0  0
  7 11  2  0  0  0  0
  7 10  1  0  0  0  0
  8 12  1  1  0  0  0
  8 13  5  0  0  0  0
  9 14  5  0  0  0  0
 12 15  1  0  0  0  0
 13 16  5  0  0  0  0
 13 17  1  6  0  0  0
 14 16  5  0  0  0  0
 17 18  1  0  0  0  0
 18 19  1  0  0  0  0
 18 20  1  0  0  0  0
 19 21  1  6  0  0  0
 19 22  1  0  0  0  0
 20 23  1  0  0  0  0
 21 24  2  0  0  0  0
 21 25  1  0  0  0  0
 22 26  1  0  0  0  0
 23 27  1  0  0  0  0
 26 27  1  0  0  0  0
M  END
>  <ID>
EDEL-CRBN-0003

>  <Stereoisomer>
original

>  <MW>
376.17

>  <HBD>
3

>  <HBA>
6

>  <RotBonds>
5

>  <cLogP>
0.39

$$$$
