EDEL-CRBN-0005
 OpenBabel09062619273D

 30 34  0  0  0  0  0  0  0  0999 V2000
    2.0292   -2.4150   -2.8609 O   0  0  0  0  0  0  0  0  0  0  0  0
    1.1034   -2.4546   -2.0551 C   0  0  0  0  0  0  0  0  0  0  0  0
   -0.1745   -2.3403   -2.5154 N   0  0  0  0  0  0  0  0  0  0  0  0
    1.2648   -2.7118   -0.5646 C   0  0  2  0  0  0  0  0  0  0  0  0
   -1.3588   -2.4917   -1.7173 C   0  0  0  0  0  0  0  0  0  0  0  0
    0.7341   -1.6056    0.3590 C   0  0  2  0  0  0  0  0  0  0  0  0
    2.7359   -2.7807   -0.1592 C   0  0  0  0  0  0  0  0  0  0  0  0
   -1.5600   -1.3113   -0.8080 C   0  0  2  0  0  0  0  0  0  0  0  0
   -0.5974   -0.9080    0.1322 C   0  0  1  0  0  0  0  0  0  0  0  0
    1.9390   -0.6466    0.4914 C   0  0  0  0  0  0  0  0  0  0  0  0
    3.1197   -1.3834    0.0358 N   0  0  0  0  0  0  0  0  0  0  0  0
   -2.7834   -0.6057   -0.9082 C   0  0  0  0  0  0  0  0  0  0  0  0
   -0.9179    0.1857    0.9572 C   0  0  0  0  0  0  0  0  0  0  0  0
    4.3106   -1.2184    0.8664 C   0  0  0  0  0  0  0  0  0  0  0  0
   -3.0896    0.4998   -0.1049 C   0  0  2  0  0  0  0  0  0  0  0  0
   -2.1303    0.8775    0.8372 C   0  0  0  0  0  0  0  0  0  0  0  0
    4.8316    0.2035    0.8882 C   0  0  0  0  0  0  0  0  0  0  0  0
   -4.3413    1.1979   -0.2272 N   0  0  0  0  0  0  0  0  0  0  0  0
    5.1144    0.8779   -0.3095 C   0  0  0  0  0  0  0  0  0  0  0  0
    5.0698    0.8589    2.1049 C   0  0  0  0  0  0  0  0  0  0  0  0
   -5.0485    1.2533   -1.4352 C   0  0  0  0  0  0  0  0  0  0  0  0
   -4.7860    2.0738    0.8540 C   0  0  0  0  0  0  0  0  0  0  0  0
    5.6109    2.1819   -0.2912 C   0  0  0  0  0  0  0  0  0  0  0  0
    5.5679    2.1635    2.1216 C   0  0  0  0  0  0  0  0  0  0  0  0
   -4.7415    0.7149   -2.4957 O   0  0  0  0  0  0  0  0  0  0  0  0
   -6.2032    2.0003   -1.4059 N   0  0  0  0  0  0  0  0  0  0  0  0
   -6.2904    2.0153    1.0166 C   0  0  0  0  0  0  0  0  0  0  0  0
    5.8373    2.8243    0.9243 C   0  0  0  0  0  0  0  0  0  0  0  0
   -6.9405    2.3102   -0.2985 C   0  0  0  0  0  0  0  0  0  0  0  0
   -8.0923    2.7256   -0.3864 O   0  0  0  0  0  0  0  0  0  0  0  0
  1  2  2  0  0  0  0
  2  3  1  0  0  0  0
  3  5  1  0  0  0  0
  4  2  1  0  0  0  0
  4  6  1  0  0  0  0
  4  7  1  6  0  0  0
  6  9  1  0  0  0  0
  6 10  1  6  0  0  0
  7 11  1  0  0  0  0
  8  5  1  1  0  0  0
  8 12  5  0  0  0  0
  8  9  5  0  0  0  0
  9 13  5  1  0  0  0
 10 11  1  0  0  0  0
 11 14  1  0  0  0  0
 13 16  5  0  0  0  0
 14 17  1  0  0  0  0
 15 12  5  1  0  0  0
 15 18  1  0  0  0  0
 15 16  5  0  0  0  0
 17 19  5  0  0  0  0
 17 20  5  0  0  0  0
 18 21  1  0  0  0  0
 18 22  1  0  0  0  0
 19 23  5  0  0  0  0
 20 24  5  0  0  0  0
 21 25  2  0  0  0  0
 21 26  1  0  0  0  0
 22 27  1  0  0  0  0
 23 28  5  0  0  0  0
 24 28  5  0  0  0  0
 26 29  1  0  0  0  0
 27 29  1  0  0  0  0
 29 30  2  0  0  0  0
M  END
>  <ID>
EDEL-CRBN-0005

>  <Stereoisomer>
original

>  <MW>
404.18

>  <HBD>
2

>  <HBA>
4

>  <RotBonds>
3

>  <cLogP>
1.98

$$$$
