R-000205
Actelion Java MolfileCreator 2.0

  0  0  0  0  0  0              0 V3000
M  V30 BEGIN CTAB
M  V30 COUNTS 4 3 0 0 0
M  V30 BEGIN ATOM
M  V30 1 O 0.0 0.0 0.0 0
M  V30 2 C -0.0232 -1.4678 0.0 0
M  V30 3 C -1.3397 -2.1901 0.0 0
M  V30 4 C -2.6561 -1.4096 0.0 0
M  V30 END ATOM
M  V30 BEGIN BOND
M  V30 1 2 1 2
M  V30 2 1 2 3
M  V30 3 1 3 4
M  V30 END BOND
M  V30 END CTAB
M  END
>  <Dotmatics_CR>
R-000205

>  <CR_Set>
Aldehyde

>  <Category>
Aldehydes Non-Aromatic

>  <Reaction type>
RedAm

>  <KI/BB_Nature>
Amine

>  <Comments>


>  <Salt>


>  <CR_Chiral_Form>
Achiral

>  <Prod_total_used>
214

>  <PSR (%)>
66

>  <Article>
PROPIONALDEHYDE

>  <CAS>
123-38-6

>  <Density>
0.805

>  <Prod_reagent_number>


>  <Stereocenters>
0

>  <Edel>


>  <NB_Name reaction - KI/BB – Capping>
01-RedAm_Amine_Aldehyde

$$$$
R-007189
Actelion Java MolfileCreator 2.0

  0  0  0  0  0  0              0 V3000
M  V30 BEGIN CTAB
M  V30 COUNTS 5 4 0 0 0
M  V30 BEGIN ATOM
M  V30 1 O 0.0 0.0 0.0 0
M  V30 2 C -0.0233 -1.4716 0.0 0
M  V30 3 C -1.3431 -2.1841 0.0 0
M  V30 4 C -2.663 -1.4132 0.0 0
M  V30 5 C -3.9828 -2.1257 0.0 0
M  V30 END ATOM
M  V30 BEGIN BOND
M  V30 1 2 1 2
M  V30 2 1 2 3
M  V30 3 1 3 4
M  V30 4 1 4 5
M  V30 END BOND
M  V30 END CTAB
M  END
>  <Dotmatics_CR>
R-007189

>  <CR_Set>
Aldehyde

>  <Category>
Aldehydes Non-Aromatic

>  <Reaction type>
RedAm

>  <KI/BB_Nature>
Amine

>  <Comments>


>  <Salt>


>  <CR_Chiral_Form>
Achiral

>  <Prod_total_used>
57

>  <PSR (%)>
98

>  <Article>
BUTYRALDEHYDE

>  <CAS>
123-72-8

>  <Density>
0.8

>  <Prod_reagent_number>


>  <Stereocenters>
0

>  <Edel>


>  <NB_Name reaction - KI/BB – Capping>
01-RedAm_Amine_Aldehyde

$$$$
R-000542
Actelion Java MolfileCreator 2.0

  0  0  0  0  0  0              0 V3000
M  V30 BEGIN CTAB
M  V30 COUNTS 5 4 0 0 0
M  V30 BEGIN ATOM
M  V30 1 O 0.0 0.0 0.0 0
M  V30 2 C -1.3072 -0.7184 0.0 0
M  V30 3 C -2.6145 0.0353 0.0 0
M  V30 4 C -3.9218 -0.683 0.0 0
M  V30 5 C -2.638 1.5428 0.0 0
M  V30 END ATOM
M  V30 BEGIN BOND
M  V30 1 2 1 2
M  V30 2 1 2 3
M  V30 3 1 3 4
M  V30 4 1 3 5
M  V30 END BOND
M  V30 END CTAB
M  END
>  <Dotmatics_CR>
R-000542

>  <CR_Set>
Aldehyde

>  <Category>
Aldehydes Non-Aromatic

>  <Reaction type>
RedAm

>  <KI/BB_Nature>
Amine

>  <Comments>


>  <Salt>


>  <CR_Chiral_Form>
Achiral

>  <Prod_total_used>
184

>  <PSR (%)>
84

>  <Article>
ISOBUTYRALDEHYDE

>  <CAS>
78-84-2

>  <Density>
0.794

>  <Prod_reagent_number>


>  <Stereocenters>
0

>  <Edel>


>  <NB_Name reaction - KI/BB – Capping>
01-RedAm_Amine_Aldehyde

$$$$
R-000302
Actelion Java MolfileCreator 2.0

  0  0  0  0  0  0              0 V3000
M  V30 BEGIN CTAB
M  V30 COUNTS 5 5 0 0 0
M  V30 BEGIN ATOM
M  V30 1 O 0.0 0.0 0.0 0
M  V30 2 C 1.0967 -1.0034 0.0 0
M  V30 3 C 2.5202 -0.5483 0.0 0
M  V30 4 C 3.9904 -0.875 0.0 0
M  V30 5 C 3.547 0.56 0.0 0
M  V30 END ATOM
M  V30 BEGIN BOND
M  V30 1 2 1 2
M  V30 2 1 2 3
M  V30 3 1 3 4
M  V30 4 1 3 5
M  V30 5 1 4 5
M  V30 END BOND
M  V30 END CTAB
M  END
>  <Dotmatics_CR>
R-000302

>  <CR_Set>
Aldehyde

>  <Category>
Aldehydes Non-Aromatic

>  <Reaction type>
RedAm

>  <KI/BB_Nature>
Amine

>  <Comments>


>  <Salt>


>  <CR_Chiral_Form>
Achiral

>  <Prod_total_used>
149

>  <PSR (%)>
85

>  <Article>
CYCLOPROPANECARBOXALDEHYDE

>  <CAS>
1489-69-6

>  <Density>
0.938

>  <Prod_reagent_number>


>  <Stereocenters>
0

>  <Edel>


>  <NB_Name reaction - KI/BB – Capping>
01-RedAm_Amine_Aldehyde

$$$$
R-005600
Actelion Java MolfileCreator 2.0

  0  0  0  0  0  0              0 V3000
M  V30 BEGIN CTAB
M  V30 COUNTS 6 5 0 0 0
M  V30 BEGIN ATOM
M  V30 1 O 0.0 0.0 0.0 0
M  V30 2 C -0.0232 -1.466 0.0 0
M  V30 3 C -1.3381 -2.1758 0.0 0
M  V30 4 C -2.6529 -1.4079 0.0 0
M  V30 5 C -3.9677 -2.1176 0.0 0
M  V30 6 C -5.2826 -1.3497 0.0 0
M  V30 END ATOM
M  V30 BEGIN BOND
M  V30 1 2 1 2
M  V30 2 1 2 3
M  V30 3 1 3 4
M  V30 4 1 4 5
M  V30 5 1 5 6
M  V30 END BOND
M  V30 END CTAB
M  END
>  <Dotmatics_CR>
R-005600

>  <CR_Set>
Aldehyde

>  <Category>
Aldehydes Non-Aromatic

>  <Reaction type>
RedAm

>  <KI/BB_Nature>
Amine

>  <Comments>


>  <Salt>


>  <CR_Chiral_Form>
Achiral

>  <Prod_total_used>
17

>  <PSR (%)>
100

>  <Article>
N-VALERALDEHYDE

>  <CAS>
110-62-3

>  <Density>
0.81

>  <Prod_reagent_number>


>  <Stereocenters>
0

>  <Edel>


>  <NB_Name reaction - KI/BB – Capping>
01-RedAm_Amine_Aldehyde

$$$$
R-000380
Actelion Java MolfileCreator 2.0

  0  0  0  0  0  0              0 V3000
M  V30 BEGIN CTAB
M  V30 COUNTS 6 5 0 0 0
M  V30 BEGIN ATOM
M  V30 1 O 0.0 0.0 0.0 0
M  V30 2 C -1.4264 -0.502 0.0 0
M  V30 3 C -2.6131 0.4222 0.0 0
M  V30 4 C -4.0167 -0.1027 0.0 0
M  V30 5 C -4.2564 -1.5405 0.0 0
M  V30 6 C -5.2149 0.8444 0.0 0
M  V30 END ATOM
M  V30 BEGIN BOND
M  V30 1 2 1 2
M  V30 2 1 2 3
M  V30 3 1 3 4
M  V30 4 1 4 5
M  V30 5 1 4 6
M  V30 END BOND
M  V30 END CTAB
M  END
>  <Dotmatics_CR>
R-000380

>  <CR_Set>
Aldehyde

>  <Category>
Aldehydes Non-Aromatic

>  <Reaction type>
RedAm

>  <KI/BB_Nature>
Amine

>  <Comments>


>  <Salt>


>  <CR_Chiral_Form>
Achiral

>  <Prod_total_used>
50

>  <PSR (%)>
90

>  <Article>
ISOVALERALDEHYDE

>  <CAS>
590-86-3

>  <Density>
0.803

>  <Prod_reagent_number>


>  <Stereocenters>
0

>  <Edel>


>  <NB_Name reaction - KI/BB – Capping>
01-RedAm_Amine_Aldehyde

$$$$
R-000303
Actelion Java MolfileCreator 2.0

  0  0  0  0  0  0              0 V3000
M  V30 BEGIN CTAB
M  V30 COUNTS 6 5 0 0 0
M  V30 BEGIN ATOM
M  V30 1 O 0.0 0.0 0.0 0
M  V30 2 C -0.7887 -1.2675 0.0 0
M  V30 3 C -2.1407 -1.2394 0.0 0
M  V30 4 C -2.6619 -2.4365 0.0 0
M  V30 5 C -2.9154 0.0985 0.0 0
M  V30 6 C -3.9435 -1.2112 0.0 0
M  V30 END ATOM
M  V30 BEGIN BOND
M  V30 1 2 1 2
M  V30 2 1 2 3
M  V30 3 1 3 4
M  V30 4 1 3 5
M  V30 5 1 3 6
M  V30 END BOND
M  V30 END CTAB
M  END
>  <Dotmatics_CR>
R-000303

>  <CR_Set>
Aldehyde

>  <Category>
Aldehydes Non-Aromatic

>  <Reaction type>
RedAm

>  <KI/BB_Nature>
Amine

>  <Comments>


>  <Salt>


>  <CR_Chiral_Form>
Achiral

>  <Prod_total_used>
114

>  <PSR (%)>
75

>  <Article>
TRIMETHYLACETALDEHYDE

>  <CAS>
630-19-3

>  <Density>
0.793

>  <Prod_reagent_number>


>  <Stereocenters>
0

>  <Edel>


>  <NB_Name reaction - KI/BB – Capping>
01-RedAm_Amine_Aldehyde

$$$$
R-000909
Actelion Java MolfileCreator 2.0

  0  0  0  0  0  0              0 V3000
M  V30 BEGIN CTAB
M  V30 COUNTS 6 5 0 0 0
M  V30 BEGIN ATOM
M  V30 1 S 0.0 0.0 0.0 0
M  V30 2 C -1.3152 -0.7192 0.0 0
M  V30 3 C 1.2741 -0.7192 0.0 0
M  V30 4 C -2.6305 0.0411 0.0 0
M  V30 5 C -3.9458 -0.6781 0.0 0
M  V30 6 O -5.2611 0.0822 0.0 0
M  V30 END ATOM
M  V30 BEGIN BOND
M  V30 1 1 1 2
M  V30 2 1 1 3
M  V30 3 1 2 4
M  V30 4 1 4 5
M  V30 5 2 5 6
M  V30 END BOND
M  V30 END CTAB
M  END
>  <Dotmatics_CR>
R-000909

>  <CR_Set>
Aldehyde

>  <Category>
Aldehydes Non-Aromatic

>  <Reaction type>
RedAm

>  <KI/BB_Nature>
Amine

>  <Comments>


>  <Salt>


>  <CR_Chiral_Form>
Achiral

>  <Prod_total_used>
77

>  <PSR (%)>
88

>  <Article>
Methional

>  <CAS>
3268-49-3

>  <Density>
1.043

>  <Prod_reagent_number>


>  <Stereocenters>
0

>  <Edel>


>  <NB_Name reaction - KI/BB – Capping>
01-RedAm_Amine_Aldehyde

$$$$
R-002626
Actelion Java MolfileCreator 2.0

  0  0  0  0  0  0              0 V3000
M  V30 BEGIN CTAB
M  V30 COUNTS 7 6 0 0 0
M  V30 BEGIN ATOM
M  V30 1 O 0.0 0.0 0.0 0
M  V30 2 C 1.3036 -0.73 0.0 0
M  V30 3 C 2.6072 0.0417 0.0 0
M  V30 4 C 3.89 -0.6883 0.0 0
M  V30 5 C 5.1832 0.0834 0.0 0
M  V30 6 C 6.4764 -0.6466 0.0 0
M  V30 7 O 7.7905 0.1251 0.0 0
M  V30 END ATOM
M  V30 BEGIN BOND
M  V30 1 2 1 2
M  V30 2 1 2 3
M  V30 3 1 3 4
M  V30 4 1 4 5
M  V30 5 1 5 6
M  V30 6 1 6 7
M  V30 END BOND
M  V30 END CTAB
M  END
>  <Dotmatics_CR>
R-002626

>  <CR_Set>
Aldehyde

>  <Category>
Aldehydes Non-Aromatic

>  <Reaction type>
RedAm

>  <KI/BB_Nature>
Amine

>  <Comments>
OH

>  <Salt>


>  <CR_Chiral_Form>
Achiral

>  <Prod_total_used>
21

>  <PSR (%)>
86

>  <Article>
5-HYDROXYPENTANAL

>  <CAS>
4221-03-8

>  <Density>
1.053

>  <Prod_reagent_number>


>  <Stereocenters>
0

>  <Edel>


>  <NB_Name reaction - KI/BB – Capping>
01-RedAm_Amine_Aldehyde

$$$$
R-004483
Actelion Java MolfileCreator 2.0

  0  0  0  0  0  0              0 V3000
M  V30 BEGIN CTAB
M  V30 COUNTS 7 6 0 0 0
M  V30 BEGIN ATOM
M  V30 1 O 0.0 0.0 0.0 0
M  V30 2 C -1.3181 0.7669 0.0 0
M  V30 3 C -2.6363 0.0359 0.0 0
M  V30 4 C -3.8946 0.8028 0.0 0
M  V30 5 C -2.6603 -1.438 0.0 0
M  V30 6 C -2.6483 1.5218 0.0 0
M  V30 7 O -3.9065 2.3367 0.0 0
M  V30 END ATOM
M  V30 BEGIN BOND
M  V30 1 2 1 2
M  V30 2 1 2 3
M  V30 3 1 3 4
M  V30 4 1 3 5
M  V30 5 1 3 6
M  V30 6 1 4 7
M  V30 END BOND
M  V30 END CTAB
M  END
>  <Dotmatics_CR>
R-004483

>  <CR_Set>
Aldehyde

>  <Category>
Aldehydes Non-Aromatic

>  <Reaction type>
RedAm

>  <KI/BB_Nature>
Amine

>  <Comments>
OH

>  <Salt>


>  <CR_Chiral_Form>
Achiral

>  <Prod_total_used>
15

>  <PSR (%)>
67

>  <Article>
2,2-DIMETHYL-3-HYDROXYPROPIONALDEHYDE

>  <CAS>
597-31-9

>  <Density>
1

>  <Prod_reagent_number>


>  <Stereocenters>
0

>  <Edel>


>  <NB_Name reaction - KI/BB – Capping>
01-RedAm_Amine_Aldehyde

$$$$
R-012140
Actelion Java MolfileCreator 2.0

  0  0  0  0  0  0              0 V3000
M  V30 BEGIN CTAB
M  V30 COUNTS 7 6 0 0 0
M  V30 BEGIN ATOM
M  V30 1 O 0.0 0.0 0.0 0
M  V30 2 C -1.2056 0.714 0.0 0
M  V30 3 C -2.7038 -0.1053 0.0 0
M  V30 4 C -4.2021 0.7608 0.0 0
M  V30 5 C -5.4077 0.0936 0.0 0
M  V30 6 C -4.2255 2.142 0.0 0
M  V30 7 C -5.4077 1.4748 0.0 0
M  V30 END ATOM
M  V30 BEGIN BOND
M  V30 1 2 1 2
M  V30 2 1 2 3
M  V30 3 1 3 4
M  V30 4 1 4 5
M  V30 5 1 4 6
M  V30 6 1 4 7
M  V30 END BOND
M  V30 END CTAB
M  END
>  <Dotmatics_CR>
R-012140

>  <CR_Set>
Aldehyde

>  <Category>
Aldehydes Non-Aromatic

>  <Reaction type>
RedAm

>  <KI/BB_Nature>
Amine

>  <Comments>


>  <Salt>


>  <CR_Chiral_Form>
Achiral

>  <Prod_total_used>
5

>  <PSR (%)>
60

>  <Article>
3,3-dimethylbutanal

>  <CAS>
2987-16-8

>  <Density>
0.798

>  <Prod_reagent_number>


>  <Stereocenters>
0

>  <Edel>


>  <NB_Name reaction - KI/BB – Capping>
01-RedAm_Amine_Aldehyde

$$$$
R-010382
Actelion Java MolfileCreator 2.0

  0  0  0  0  0  0              0 V3000
M  V30 BEGIN CTAB
M  V30 COUNTS 7 6 0 0 0
M  V30 BEGIN ATOM
M  V30 1 F 0.0 0.0 0.0 0
M  V30 2 C -0.0237 -1.4956 0.0 0
M  V30 3 F -1.365 -2.2197 0.0 0
M  V30 4 F 1.2701 -0.7003 0.0 0
M  V30 5 C 1.2701 -2.2197 0.0 0
M  V30 6 C 1.2463 -3.7153 0.0 0
M  V30 7 O 2.5402 -4.4394 0.0 0
M  V30 END ATOM
M  V30 BEGIN BOND
M  V30 1 1 1 2
M  V30 2 1 2 3
M  V30 3 1 2 4
M  V30 4 1 2 5
M  V30 5 1 5 6
M  V30 6 2 6 7
M  V30 END BOND
M  V30 END CTAB
M  END
>  <Dotmatics_CR>
R-010382

>  <CR_Set>
Aldehyde

>  <Category>
Aldehydes Non-Aromatic

>  <Reaction type>
RedAm

>  <KI/BB_Nature>
Amine

>  <Comments>


>  <Salt>


>  <CR_Chiral_Form>
Achiral

>  <Prod_total_used>
57

>  <PSR (%)>
68

>  <Article>
3,3,3-Trifluoropropanal

>  <CAS>
460-40-2

>  <Density>
1.3

>  <Prod_reagent_number>


>  <Stereocenters>
0

>  <Edel>


>  <NB_Name reaction - KI/BB – Capping>
01-RedAm_Amine_Aldehyde

$$$$
R-002846
Actelion Java MolfileCreator 2.0

  0  0  0  0  0  0              0 V3000
M  V30 BEGIN CTAB
M  V30 COUNTS 7 7 0 0 0
M  V30 BEGIN ATOM
M  V30 1 O 0.0 0.0 0.0 0
M  V30 2 C -1.2793 0.8608 0.0 0
M  V30 3 C -2.5108 0.2869 0.0 0
M  V30 4 O -3.7543 1.1478 0.0 0
M  V30 5 C -3.013 -1.1597 0.0 0
M  V30 6 C -4.9977 0.3347 0.0 0
M  V30 7 C -4.5434 -1.1358 0.0 0
M  V30 END ATOM
M  V30 BEGIN BOND
M  V30 1 2 1 2
M  V30 2 1 2 3
M  V30 3 1 3 4
M  V30 4 2 3 5
M  V30 5 1 4 6
M  V30 6 1 5 7
M  V30 7 2 6 7
M  V30 END BOND
M  V30 END CTAB
M  END
>  <Dotmatics_CR>
R-002846

>  <CR_Set>
Aldehyde

>  <Category>
Aldehydes Aromatic

>  <Reaction type>
RedAm

>  <KI/BB_Nature>
Amine

>  <Comments>


>  <Salt>


>  <CR_Chiral_Form>
Achiral

>  <Prod_total_used>
120

>  <PSR (%)>
75

>  <Article>
FURANE-2 CARBALDEHYDE

>  <CAS>
98-01-1

>  <Density>
1.16

>  <Prod_reagent_number>


>  <Stereocenters>
0

>  <Edel>


>  <NB_Name reaction - KI/BB – Capping>
01-RedAm_Amine_Aldehyde

$$$$
R-000465
Actelion Java MolfileCreator 2.0

  0  0  0  0  0  0              0 V3000
M  V30 BEGIN CTAB
M  V30 COUNTS 7 7 0 0 0
M  V30 BEGIN ATOM
M  V30 1 O 0.0 0.0 0.0 0
M  V30 2 C 1.3913 -0.5144 0.0 0
M  V30 3 C 1.6017 -1.9875 0.0 0
M  V30 4 C 0.5027 -3.0398 0.0 0
M  V30 5 C 2.9346 -2.6423 0.0 0
M  V30 6 C 1.1574 -4.3727 0.0 0
M  V30 7 C 2.6774 -4.1154 0.0 0
M  V30 END ATOM
M  V30 BEGIN BOND
M  V30 1 2 1 2
M  V30 2 1 2 3
M  V30 3 1 3 4
M  V30 4 1 3 5
M  V30 5 1 4 6
M  V30 6 1 5 7
M  V30 7 1 6 7
M  V30 END BOND
M  V30 END CTAB
M  END
>  <Dotmatics_CR>
R-000465

>  <CR_Set>
Aldehyde

>  <Category>
Aldehydes Non-Aromatic

>  <Reaction type>
RedAm

>  <KI/BB_Nature>
Amine

>  <Comments>


>  <Salt>


>  <CR_Chiral_Form>
Achiral

>  <Prod_total_used>
43

>  <PSR (%)>
86

>  <Article>
CYCLOPENTANE CARBOXALDEHYDE

>  <CAS>
872-53-7

>  <Density>
0.919

>  <Prod_reagent_number>


>  <Stereocenters>
0

>  <Edel>


>  <NB_Name reaction - KI/BB – Capping>
01-RedAm_Amine_Aldehyde

$$$$
R-000274
Actelion Java MolfileCreator 2.0

  0  0  0  0  0  0              0 V3000
M  V30 BEGIN CTAB
M  V30 COUNTS 7 7 0 0 0
M  V30 BEGIN ATOM
M  V30 1 S 0.0 0.0 0.0 0
M  V30 2 C 1.2624 -0.7904 0.0 0
M  V30 3 C 0.3303 1.4748 0.0 0
M  V30 4 C 2.3832 0.2241 0.0 0
M  V30 5 C 1.8169 1.6163 0.0 0
M  V30 6 C 3.8345 -0.1061 0.0 0
M  V30 7 O 4.8609 0.991 0.0 0
M  V30 END ATOM
M  V30 BEGIN BOND
M  V30 1 1 1 2
M  V30 2 1 1 3
M  V30 3 2 2 4
M  V30 4 2 3 5
M  V30 5 1 4 6
M  V30 6 2 6 7
M  V30 7 1 4 5
M  V30 END BOND
M  V30 END CTAB
M  END
>  <Dotmatics_CR>
R-000274

>  <CR_Set>
Aldehyde

>  <Category>
Aldehydes Aromatic

>  <Reaction type>
RedAm

>  <KI/BB_Nature>
Amine

>  <Comments>


>  <Salt>


>  <CR_Chiral_Form>
Achiral

>  <Prod_total_used>
61

>  <PSR (%)>
87

>  <Article>
3-THIOPHENECARBOXALDEHYDE

>  <CAS>
498-62-4

>  <Density>
1.28

>  <Prod_reagent_number>


>  <Stereocenters>
0

>  <Edel>


>  <NB_Name reaction - KI/BB – Capping>
01-RedAm_Amine_Aldehyde

$$$$
R-000187
Actelion Java MolfileCreator 2.0

  0  0  0  0  0  0              0 V3000
M  V30 BEGIN CTAB
M  V30 COUNTS 7 7 0 0 0
M  V30 BEGIN ATOM
M  V30 1 S 0.0 0.0 0.0 0
M  V30 2 C 1.189 0.8946 0.0 0
M  V30 3 C -1.2343 0.8946 0.0 0
M  V30 4 C 0.7021 2.3441 0.0 0
M  V30 5 C 2.582 0.4643 0.0 0
M  V30 6 C -0.7927 2.3441 0.0 0
M  V30 7 O 3.6691 1.4835 0.0 0
M  V30 END ATOM
M  V30 BEGIN BOND
M  V30 1 1 1 2
M  V30 2 1 1 3
M  V30 3 2 2 4
M  V30 4 1 2 5
M  V30 5 2 3 6
M  V30 6 2 5 7
M  V30 7 1 4 6
M  V30 END BOND
M  V30 END CTAB
M  END
>  <Dotmatics_CR>
R-000187

>  <CR_Set>
Aldehyde

>  <Category>
Aldehydes Aromatic

>  <Reaction type>
RedAm

>  <KI/BB_Nature>
Amine

>  <Comments>


>  <Salt>


>  <CR_Chiral_Form>
Achiral

>  <Prod_total_used>
47

>  <PSR (%)>
83

>  <Article>
THIOPHENE-2-CARBOXALDEHYDE

>  <CAS>
98-03-3

>  <Density>
1.2

>  <Prod_reagent_number>


>  <Stereocenters>
0

>  <Edel>


>  <NB_Name reaction - KI/BB – Capping>
01-RedAm_Amine_Aldehyde

$$$$
R-011227
Actelion Java MolfileCreator 2.0

  0  0  0  0  0  0              0 V3000
M  V30 BEGIN CTAB
M  V30 COUNTS 7 7 0 0 0
M  V30 BEGIN ATOM
M  V30 1 O 0.0 0.0 0.0 0
M  V30 2 C 1.3509 -0.5977 0.0 0
M  V30 3 C 2.5464 0.3108 0.0 0
M  V30 4 C 2.5225 1.8411 0.0 0
M  V30 5 C 3.9571 -0.1315 0.0 0
M  V30 6 N 3.9332 2.3312 0.0 0
M  V30 7 N 4.8179 1.1118 0.0 0
M  V30 END ATOM
M  V30 BEGIN BOND
M  V30 1 2 1 2
M  V30 2 1 2 3
M  V30 3 1 3 4
M  V30 4 2 3 5
M  V30 5 2 4 6
M  V30 6 1 5 7
M  V30 7 1 6 7
M  V30 END BOND
M  V30 END CTAB
M  END
>  <Dotmatics_CR>
R-011227

>  <CR_Set>
Aldehyde

>  <Category>
Aldehydes Aromatic

>  <Reaction type>
RedAm

>  <KI/BB_Nature>
Amine

>  <Comments>
NH

>  <Salt>


>  <CR_Chiral_Form>
Achiral

>  <Prod_total_used>
43

>  <PSR (%)>
93

>  <Article>
Pyrazole-4-carboxaldehyde

>  <CAS>
35344-95-7

>  <Density>
1

>  <Prod_reagent_number>


>  <Stereocenters>
0

>  <Edel>


>  <NB_Name reaction - KI/BB – Capping>
01-RedAm_Amine_Aldehyde

$$$$
R-000269
Actelion Java MolfileCreator 2.0

  0  0  0  0  0  0              0 V3000
M  V30 BEGIN CTAB
M  V30 COUNTS 7 7 0 0 0
M  V30 BEGIN ATOM
M  V30 1 O 0.0 0.0 0.0 0
M  V30 2 C 1.0355 1.1061 0.0 0
M  V30 3 C 2.4829 0.7648 0.0 0
M  V30 4 N 3.036 -0.6119 0.0 0
M  V30 5 N 3.6244 1.7651 0.0 0
M  V30 6 C 4.5187 -0.4824 0.0 0
M  V30 7 C 4.8953 0.9884 0.0 0
M  V30 END ATOM
M  V30 BEGIN BOND
M  V30 1 2 1 2
M  V30 2 1 2 3
M  V30 3 2 3 4
M  V30 4 1 3 5
M  V30 5 1 4 6
M  V30 6 1 5 7
M  V30 7 2 6 7
M  V30 END BOND
M  V30 END CTAB
M  END
>  <Dotmatics_CR>
R-000269

>  <CR_Set>
Aldehyde

>  <Category>
Aldehydes Aromatic

>  <Reaction type>
RedAm

>  <KI/BB_Nature>
Amine

>  <Comments>
NH

>  <Salt>


>  <CR_Chiral_Form>
Achiral

>  <Prod_total_used>
158

>  <PSR (%)>
75

>  <Article>
IMIDAZOLE-2-CARBOXALDEHYDE

>  <CAS>
10111-08-7

>  <Density>
1

>  <Prod_reagent_number>


>  <Stereocenters>
0

>  <Edel>


>  <NB_Name reaction - KI/BB – Capping>
01-RedAm_Amine_Aldehyde

$$$$
R-002685
Actelion Java MolfileCreator 2.0

  0  0  0  0  0  0              0 V3000
M  V30 BEGIN CTAB
M  V30 COUNTS 7 7 0 0 0
M  V30 BEGIN ATOM
M  V30 1 O 0.0 0.0 0.0 0
M  V30 2 C -1.0781 1.0663 0.0 0
M  V30 3 C -2.5354 0.6871 0.0 0
M  V30 4 N -3.7439 1.6586 0.0 0
M  V30 5 C -3.0685 -0.6516 0.0 0
M  V30 6 C -4.9997 0.8648 0.0 0
M  V30 7 N -4.5851 -0.5568 0.0 0
M  V30 END ATOM
M  V30 BEGIN BOND
M  V30 1 2 1 2
M  V30 2 1 2 3
M  V30 3 1 3 4
M  V30 4 2 3 5
M  V30 5 2 4 6
M  V30 6 1 5 7
M  V30 7 1 6 7
M  V30 END BOND
M  V30 END CTAB
M  END
>  <Dotmatics_CR>
R-002685

>  <CR_Set>
Aldehyde

>  <Category>
Aldehydes Aromatic

>  <Reaction type>
RedAm

>  <KI/BB_Nature>
Amine

>  <Comments>
NH

>  <Salt>


>  <CR_Chiral_Form>
Achiral

>  <Prod_total_used>
89

>  <PSR (%)>
92

>  <Article>
4-FORMYL IMIDAZOLE

>  <CAS>
3034-50-2

>  <Density>
1

>  <Prod_reagent_number>


>  <Stereocenters>
0

>  <Edel>


>  <NB_Name reaction - KI/BB – Capping>
01-RedAm_Amine_Aldehyde

$$$$
R-002725
Actelion Java MolfileCreator 2.0

  0  0  0  0  0  0              0 V3000
M  V30 BEGIN CTAB
M  V30 COUNTS 7 7 0 0 0
M  V30 BEGIN ATOM
M  V30 1 O 0.0 0.0 0.0 0
M  V30 2 C -1.0505 1.0859 0.0 0
M  V30 3 C -2.5261 0.7436 0.0 0
M  V30 4 N -3.6829 1.7234 0.0 0
M  V30 5 C -3.1163 -0.602 0.0 0
M  V30 6 N -4.9696 0.9679 0.0 0
M  V30 7 C -4.6273 -0.4721 0.0 0
M  V30 END ATOM
M  V30 BEGIN BOND
M  V30 1 2 1 2
M  V30 2 1 2 3
M  V30 3 2 3 4
M  V30 4 1 3 5
M  V30 5 1 4 6
M  V30 6 2 5 7
M  V30 7 1 6 7
M  V30 END BOND
M  V30 END CTAB
M  END
>  <Dotmatics_CR>
R-002725

>  <CR_Set>
Aldehyde

>  <Category>
Aldehydes Aromatic

>  <Reaction type>
RedAm

>  <KI/BB_Nature>
Amine

>  <Comments>
NH

>  <Salt>


>  <CR_Chiral_Form>
Achiral

>  <Prod_total_used>
37

>  <PSR (%)>
65

>  <Article>
PYRAZOLE-3-CARBALDEHYDE

>  <CAS>
3920-50-1

>  <Density>
1

>  <Prod_reagent_number>


>  <Stereocenters>
0

>  <Edel>


>  <NB_Name reaction - KI/BB – Capping>
01-RedAm_Amine_Aldehyde

$$$$
R-010969
Actelion Java MolfileCreator 2.0

  0  0  0  0  0  0              0 V3000
M  V30 BEGIN CTAB
M  V30 COUNTS 7 7 0 0 0
M  V30 BEGIN ATOM
M  V30 1 O 0.0 0.0 0.0 0
M  V30 2 C 0.9902 -1.0963 0.0 0
M  V30 3 C 0.5069 -2.511 0.0 0
M  V30 4 C 1.3792 -3.7134 0.0 0
M  V30 5 C -0.9548 -2.9472 0.0 0
M  V30 6 N 0.4597 -4.9159 0.0 0
M  V30 7 C -0.9784 -4.4325 0.0 0
M  V30 END ATOM
M  V30 BEGIN BOND
M  V30 1 2 1 2
M  V30 2 1 2 3
M  V30 3 2 3 4
M  V30 4 1 3 5
M  V30 5 1 4 6
M  V30 6 2 5 7
M  V30 7 1 6 7
M  V30 END BOND
M  V30 END CTAB
M  END
>  <Dotmatics_CR>
R-010969

>  <CR_Set>
Aldehyde

>  <Category>
Aldehydes Aromatic

>  <Reaction type>
RedAm

>  <KI/BB_Nature>
Amine

>  <Comments>
NH

>  <Salt>


>  <CR_Chiral_Form>
Achiral

>  <Prod_total_used>
49

>  <PSR (%)>
96

>  <Article>
1H-pyrrole-3-carbaldehyde

>  <CAS>
7126-39-8

>  <Density>
1

>  <Prod_reagent_number>


>  <Stereocenters>
0

>  <Edel>


>  <NB_Name reaction - KI/BB – Capping>
01-RedAm_Amine_Aldehyde

$$$$
R-000757
Actelion Java MolfileCreator 2.0

  0  0  0  0  0  0              0 V3000
M  V30 BEGIN CTAB
M  V30 COUNTS 7 7 0 0 0
M  V30 BEGIN ATOM
M  V30 1 O 0.0 0.0 0.0 0
M  V30 2 C -0.767 -1.2626 0.0 0
M  V30 3 C -2.2774 -1.239 0.0 0
M  V30 4 N -3.1742 -0.0118 0.0 0
M  V30 5 C -3.1742 -2.419 0.0 0
M  V30 6 C -4.6138 -0.4484 0.0 0
M  V30 7 C -4.6138 -1.9352 0.0 0
M  V30 END ATOM
M  V30 BEGIN BOND
M  V30 1 2 1 2
M  V30 2 1 2 3
M  V30 3 1 3 4
M  V30 4 2 3 5
M  V30 5 1 4 6
M  V30 6 1 5 7
M  V30 7 2 6 7
M  V30 END BOND
M  V30 END CTAB
M  END
>  <Dotmatics_CR>
R-000757

>  <CR_Set>
Aldehyde

>  <Category>
Aldehydes Aromatic

>  <Reaction type>
RedAm

>  <KI/BB_Nature>
Amine

>  <Comments>
NH

>  <Salt>


>  <CR_Chiral_Form>
Achiral

>  <Prod_total_used>
77

>  <PSR (%)>
70

>  <Article>
Pyrrole-2-carboxaldehyde

>  <CAS>
1003-29-8

>  <Density>
1

>  <Prod_reagent_number>


>  <Stereocenters>
0

>  <Edel>


>  <NB_Name reaction - KI/BB – Capping>
01-RedAm_Amine_Aldehyde

$$$$
R-008211
Actelion Java MolfileCreator 2.0

  0  0  0  0  0  0              0 V3000
M  V30 BEGIN CTAB
M  V30 COUNTS 7 7 0 0 0
M  V30 BEGIN ATOM
M  V30 1 S 0.0 0.0 0.0 0
M  V30 2 C -1.4479 -0.432 0.0 0
M  V30 3 C 0.864 -1.191 0.0 0
M  V30 4 C -1.4712 -1.9032 0.0 0
M  V30 5 C -2.6856 0.4787 0.0 0
M  V30 6 N -0.0467 -2.382 0.0 0
M  V30 7 O -4.0751 -0.105 0.0 0
M  V30 END ATOM
M  V30 BEGIN BOND
M  V30 1 1 1 2
M  V30 2 1 1 3
M  V30 3 2 2 4
M  V30 4 1 2 5
M  V30 5 2 3 6
M  V30 6 2 5 7
M  V30 7 1 4 6
M  V30 END BOND
M  V30 END CTAB
M  END
>  <Dotmatics_CR>
R-008211

>  <CR_Set>
Aldehyde

>  <Category>
Aldehydes Aromatic

>  <Reaction type>
RedAm

>  <KI/BB_Nature>
Amine

>  <Comments>


>  <Salt>


>  <CR_Chiral_Form>
Achiral

>  <Prod_total_used>
80

>  <PSR (%)>
70

>  <Article>
5-Thiazolecarboxaldehyde

>  <CAS>
1003-32-3

>  <Density>
1.304

>  <Prod_reagent_number>


>  <Stereocenters>
0

>  <Edel>


>  <NB_Name reaction - KI/BB – Capping>
01-RedAm_Amine_Aldehyde

$$$$
R-000834
Actelion Java MolfileCreator 2.0

  0  0  0  0  0  0              0 V3000
M  V30 BEGIN CTAB
M  V30 COUNTS 7 7 0 0 0
M  V30 BEGIN ATOM
M  V30 1 S 0.0 0.0 0.0 0
M  V30 2 C -1.4593 -0.4354 0.0 0
M  V30 3 C 0.8709 -1.2004 0.0 0
M  V30 4 N -1.4829 -1.9183 0.0 0
M  V30 5 C -0.047 -2.4009 0.0 0
M  V30 6 C 0.3883 -3.8132 0.0 0
M  V30 7 O -0.6473 -4.9077 0.0 0
M  V30 END ATOM
M  V30 BEGIN BOND
M  V30 1 1 1 2
M  V30 2 1 1 3
M  V30 3 2 2 4
M  V30 4 2 3 5
M  V30 5 1 5 6
M  V30 6 2 6 7
M  V30 7 1 4 5
M  V30 END BOND
M  V30 END CTAB
M  END
>  <Dotmatics_CR>
R-000834

>  <CR_Set>
Aldehyde

>  <Category>
Aldehydes Aromatic

>  <Reaction type>
RedAm

>  <KI/BB_Nature>
Amine

>  <Comments>


>  <Salt>


>  <CR_Chiral_Form>
Achiral

>  <Prod_total_used>
206

>  <PSR (%)>
83

>  <Article>
Thiazole-4-carboxaldehyde

>  <CAS>
3364-80-5

>  <Density>
1

>  <Prod_reagent_number>


>  <Stereocenters>
0

>  <Edel>


>  <NB_Name reaction - KI/BB – Capping>
01-RedAm_Amine_Aldehyde

$$$$
R-000270
Actelion Java MolfileCreator 2.0

  0  0  0  0  0  0              0 V3000
M  V30 BEGIN CTAB
M  V30 COUNTS 7 7 0 0 0
M  V30 BEGIN ATOM
M  V30 1 S 0.0 0.0 0.0 0
M  V30 2 C 1.2001 0.9144 0.0 0
M  V30 3 C -1.2344 0.8801 0.0 0
M  V30 4 N 0.7315 2.3432 0.0 0
M  V30 5 C 2.6061 0.5029 0.0 0
M  V30 6 C -0.8115 2.3432 0.0 0
M  V30 7 O 2.5832 -0.9372 0.0 0
M  V30 END ATOM
M  V30 BEGIN BOND
M  V30 1 1 1 2
M  V30 2 1 1 3
M  V30 3 2 2 4
M  V30 4 1 2 5
M  V30 5 2 3 6
M  V30 6 2 5 7
M  V30 7 1 4 6
M  V30 END BOND
M  V30 END CTAB
M  END
>  <Dotmatics_CR>
R-000270

>  <CR_Set>
Aldehyde

>  <Category>
Aldehydes Aromatic

>  <Reaction type>
RedAm

>  <KI/BB_Nature>
Amine

>  <Comments>


>  <Salt>


>  <CR_Chiral_Form>
Achiral

>  <Prod_total_used>
190

>  <PSR (%)>
71

>  <Article>
2-THIAZOLECARBOXALDEHYDE

>  <CAS>
10200-59-6

>  <Density>
1.288

>  <Prod_reagent_number>


>  <Stereocenters>
0

>  <Edel>


>  <NB_Name reaction - KI/BB – Capping>
01-RedAm_Amine_Aldehyde

$$$$
R-011848
Actelion Java MolfileCreator 2.0

  0  0  0  0  0  0              0 V3000
M  V30 BEGIN CTAB
M  V30 COUNTS 8 8 0 0 0
M  V30 BEGIN ATOM
M  V30 1 O 0.0 0.0 0.0 0
M  V30 2 C -0.0212 1.2743 0.0 0
M  V30 3 C 1.3168 2.0814 0.0 0
M  V30 4 C 2.4107 3.2178 0.0 0
M  V30 5 C 0.1805 3.2178 0.0 0
M  V30 6 C 2.6549 1.3168 0.0 0
M  V30 7 O 1.2743 4.3541 0.0 0
M  V30 8 C 3.7275 1.9646 0.0 0
M  V30 END ATOM
M  V30 BEGIN BOND
M  V30 1 2 1 2
M  V30 2 1 2 3
M  V30 3 1 3 4
M  V30 4 1 3 5
M  V30 5 1 3 6
M  V30 6 1 4 7
M  V30 7 1 6 8
M  V30 8 1 5 7
M  V30 END BOND
M  V30 END CTAB
M  END
>  <Dotmatics_CR>
R-011848

>  <CR_Set>
Aldehyde

>  <Category>
Aldehydes Non-Aromatic

>  <Reaction type>
RedAm

>  <KI/BB_Nature>
Amine

>  <Comments>


>  <Salt>


>  <CR_Chiral_Form>
Achiral

>  <Prod_total_used>
116

>  <PSR (%)>
88

>  <Article>
3-ethyloxetane-3-carbaldehyde

>  <CAS>
98485-37-1

>  <Density>
1.091

>  <Prod_reagent_number>


>  <Stereocenters>
0

>  <Edel>


>  <NB_Name reaction - KI/BB – Capping>
01-RedAm_Amine_Aldehyde

$$$$
R-010865
Actelion Java MolfileCreator 2.0

  0  0  0  0  0  0              0 V3000
M  V30 BEGIN CTAB
M  V30 COUNTS 8 8 0 0 0
M  V30 BEGIN ATOM
M  V30 1 O 0.0 0.0 0.0 0
M  V30 2 C 0.9681 1.1215 0.0 0
M  V30 3 C 0.484 2.5619 0.0 0
M  V30 4 C 1.334 3.7897 0.0 0
M  V30 5 C -0.9563 3.0459 0.0 0
M  V30 6 O 0.4368 5.0176 0.0 0
M  V30 7 C 2.798 3.8133 0.0 0
M  V30 8 C -0.9799 4.5571 0.0 0
M  V30 END ATOM
M  V30 BEGIN BOND
M  V30 1 2 1 2
M  V30 2 1 2 3
M  V30 3 2 3 4
M  V30 4 1 3 5
M  V30 5 1 4 6
M  V30 6 1 4 7
M  V30 7 2 5 8
M  V30 8 1 6 8
M  V30 END BOND
M  V30 END CTAB
M  END
>  <Dotmatics_CR>
R-010865

>  <CR_Set>
Aldehyde

>  <Category>
Aldehydes Aromatic

>  <Reaction type>
RedAm

>  <KI/BB_Nature>
Amine

>  <Comments>


>  <Salt>


>  <CR_Chiral_Form>
Achiral

>  <Prod_total_used>
8

>  <PSR (%)>
88

>  <Article>
2-Methylfuran-3-carbaldehyde

>  <CAS>
5612-67-9

>  <Density>
1.099

>  <Prod_reagent_number>


>  <Stereocenters>
0

>  <Edel>


>  <NB_Name reaction - KI/BB – Capping>
01-RedAm_Amine_Aldehyde

$$$$
R-003297
Actelion Java MolfileCreator 2.0

  0  0  0  0  0  0              0 V3000
M  V30 BEGIN CTAB
M  V30 COUNTS 8 8 0 0 0
M  V30 BEGIN ATOM
M  V30 1 O 0.0 0.0 0.0 0
M  V30 2 C 1.1604 0.9729 0.0 0
M  V30 3 C 2.567 0.4571 0.0 0
M  V30 4 O 3.7978 1.3128 0.0 0
M  V30 5 C 2.9304 -0.9846 0.0 0
M  V30 6 C 4.9582 0.3633 0.0 0
M  V30 7 C 4.4073 -1.0432 0.0 0
M  V30 8 C 6.4117 0.7853 0.0 0
M  V30 END ATOM
M  V30 BEGIN BOND
M  V30 1 2 1 2
M  V30 2 1 2 3
M  V30 3 1 3 4
M  V30 4 2 3 5
M  V30 5 1 4 6
M  V30 6 1 5 7
M  V30 7 1 6 8
M  V30 8 2 6 7
M  V30 END BOND
M  V30 END CTAB
M  END
>  <Dotmatics_CR>
R-003297

>  <CR_Set>
Aldehyde

>  <Category>
Aldehydes Aromatic

>  <Reaction type>
RedAm

>  <KI/BB_Nature>
Amine

>  <Comments>


>  <Salt>


>  <CR_Chiral_Form>
Achiral

>  <Prod_total_used>
52

>  <PSR (%)>
94

>  <Article>
5-METHYLFURFURAL

>  <CAS>
620-02-0

>  <Density>
1.107

>  <Prod_reagent_number>


>  <Stereocenters>
0

>  <Edel>


>  <NB_Name reaction - KI/BB – Capping>
01-RedAm_Amine_Aldehyde

$$$$
R-000697
Actelion Java MolfileCreator 2.0

  0  0  0  0  0  0              0 V3000
M  V30 BEGIN CTAB
M  V30 COUNTS 8 8 0 0 0
M  V30 BEGIN ATOM
M  V30 1 O 0.0 0.0 0.0 0
M  V30 2 C 1.2936 -0.7358 0.0 0
M  V30 3 C 1.2699 -2.2313 0.0 0
M  V30 4 C -0.0712 -2.9671 0.0 0
M  V30 5 C 2.5636 -2.9671 0.0 0
M  V30 6 C -0.0949 -4.4626 0.0 0
M  V30 7 C 2.5399 -4.4626 0.0 0
M  V30 8 O 1.1987 -5.1866 0.0 0
M  V30 END ATOM
M  V30 BEGIN BOND
M  V30 1 2 1 2
M  V30 2 1 2 3
M  V30 3 1 3 4
M  V30 4 1 3 5
M  V30 5 1 4 6
M  V30 6 1 5 7
M  V30 7 1 6 8
M  V30 8 1 7 8
M  V30 END BOND
M  V30 END CTAB
M  END
>  <Dotmatics_CR>
R-000697

>  <CR_Set>
Aldehyde

>  <Category>
Aldehydes Non-Aromatic

>  <Reaction type>
RedAm

>  <KI/BB_Nature>
Amine

>  <Comments>


>  <Salt>


>  <CR_Chiral_Form>
Achiral

>  <Prod_total_used>
221

>  <PSR (%)>
82

>  <Article>
tetrahydro-2H-pyran-4-carbaldehyde

>  <CAS>
50675-18-8

>  <Density>
1.097

>  <Prod_reagent_number>


>  <Stereocenters>
0

>  <Edel>


>  <NB_Name reaction - KI/BB – Capping>
01-RedAm_Amine_Aldehyde

$$$$
R-000786
Actelion Java MolfileCreator 2.0

  0  0  0  0  0  0              0 V3000
M  V30 BEGIN CTAB
M  V30 COUNTS 8 8 0 0 0
M  V30 BEGIN ATOM
M  V30 1 Br 0.0 0.0 0.0 0
M  V30 2 C -1.5048 0.0235 0.0 0
M  V30 3 O -2.3984 1.2462 0.0 0
M  V30 4 C -2.3984 -1.1521 0.0 0
M  V30 5 C -3.8327 0.8112 0.0 0
M  V30 6 C -3.8327 -0.6701 0.0 0
M  V30 7 C -5.0555 1.7047 0.0 0
M  V30 8 O -6.431 1.1169 0.0 0
M  V30 END ATOM
M  V30 BEGIN BOND
M  V30 1 1 1 2
M  V30 2 1 2 3
M  V30 3 2 2 4
M  V30 4 1 3 5
M  V30 5 1 4 6
M  V30 6 1 5 7
M  V30 7 2 7 8
M  V30 8 2 5 6
M  V30 END BOND
M  V30 END CTAB
M  END
>  <Dotmatics_CR>
R-000786

>  <CR_Set>
Aldehyde

>  <Category>
Aldehydes Aromatic

>  <Reaction type>
RedAm

>  <KI/BB_Nature>
Amine

>  <Comments>


>  <Salt>


>  <CR_Chiral_Form>
Achiral

>  <Prod_total_used>
2

>  <PSR (%)>
100

>  <Article>
5-Bromo-2-furaldehyde

>  <CAS>
1899-24-7

>  <Density>


>  <Prod_reagent_number>


>  <Stereocenters>
0

>  <Edel>


>  <NB_Name reaction - KI/BB – Capping>
01-RedAm_Amine_Aldehyde

$$$$
R-000225
Actelion Java MolfileCreator 2.0

  0  0  0  0  0  0              0 V3000
M  V30 BEGIN CTAB
M  V30 COUNTS 8 8 0 0 0
M  V30 BEGIN ATOM
M  V30 1 O 0.0 0.0 0.0 0
M  V30 2 C -1.298 0.7552 0.0 0
M  V30 3 C -1.3216 2.2538 0.0 0
M  V30 4 C -0.059 3.009 0.0 0
M  V30 5 C -2.6314 3.0208 0.0 0
M  V30 6 C -0.0826 4.5194 0.0 0
M  V30 7 C -2.655 4.5312 0.0 0
M  V30 8 C -1.3924 5.2864 0.0 0
M  V30 END ATOM
M  V30 BEGIN BOND
M  V30 1 2 1 2
M  V30 2 1 2 3
M  V30 3 1 3 4
M  V30 4 1 3 5
M  V30 5 1 4 6
M  V30 6 1 5 7
M  V30 7 1 6 8
M  V30 8 1 7 8
M  V30 END BOND
M  V30 END CTAB
M  END
>  <Dotmatics_CR>
R-000225

>  <CR_Set>
Aldehyde

>  <Category>
Aldehydes Non-Aromatic

>  <Reaction type>
RedAm

>  <KI/BB_Nature>
Amine

>  <Comments>


>  <Salt>


>  <CR_Chiral_Form>
Achiral

>  <Prod_total_used>
9

>  <PSR (%)>
67

>  <Article>
CYCLOHEXANE CARBOXALDEHYDE

>  <CAS>
2043-61-0

>  <Density>
0.926

>  <Prod_reagent_number>


>  <Stereocenters>
0

>  <Edel>


>  <NB_Name reaction - KI/BB – Capping>
01-RedAm_Amine_Aldehyde

$$$$
R-000232
Actelion Java MolfileCreator 2.0

  0  0  0  0  0  0              0 V3000
M  V30 BEGIN CTAB
M  V30 COUNTS 8 8 0 0 0
M  V30 BEGIN ATOM
M  V30 1 Br 0.0 0.0 0.0 0
M  V30 2 C -1.5974 0.6489 0.0 0
M  V30 3 S -2.7954 -0.1622 0.0 0
M  V30 4 C -2.0716 2.0591 0.0 0
M  V30 5 C -3.9935 0.6988 0.0 0
M  V30 6 C -3.5442 2.0841 0.0 0
M  V30 7 C -5.3912 0.2745 0.0 0
M  V30 8 O -6.4895 1.2604 0.0 0
M  V30 END ATOM
M  V30 BEGIN BOND
M  V30 1 1 1 2
M  V30 2 1 2 3
M  V30 3 2 2 4
M  V30 4 1 3 5
M  V30 5 1 4 6
M  V30 6 1 5 7
M  V30 7 2 7 8
M  V30 8 2 5 6
M  V30 END BOND
M  V30 END CTAB
M  END
>  <Dotmatics_CR>
R-000232

>  <CR_Set>
Aldehyde

>  <Category>
Aldehydes Aromatic

>  <Reaction type>
RedAm

>  <KI/BB_Nature>
Amine

>  <Comments>


>  <Salt>


>  <CR_Chiral_Form>
Achiral

>  <Prod_total_used>
32

>  <PSR (%)>
69

>  <Article>
5-BROMO-2-THIOPHENECARBOXALDEHYDE

>  <CAS>
4701-17-1

>  <Density>
1.607

>  <Prod_reagent_number>


>  <Stereocenters>
0

>  <Edel>


>  <NB_Name reaction - KI/BB – Capping>
01-RedAm_Amine_Aldehyde

$$$$
R-005586
Actelion Java MolfileCreator 2.0

  0  0  0  0  0  0              0 V3000
M  V30 BEGIN CTAB
M  V30 COUNTS 8 8 0 0 0
M  V30 BEGIN ATOM
M  V30 1 S 0.0 0.0 0.0 0
M  V30 2 C 1.1926 -0.8587 0.0 0
M  V30 3 C -1.2403 -0.8587 0.0 0
M  V30 4 C 0.7036 -2.266 0.0 0
M  V30 5 C 2.4688 -0.0834 0.0 0
M  V30 6 C -0.799 -2.266 0.0 0
M  V30 7 C -2.5642 -0.0834 0.0 0
M  V30 8 O 2.4449 1.4431 0.0 0
M  V30 END ATOM
M  V30 BEGIN BOND
M  V30 1 1 1 2
M  V30 2 1 1 3
M  V30 3 2 2 4
M  V30 4 1 2 5
M  V30 5 2 3 6
M  V30 6 1 3 7
M  V30 7 2 5 8
M  V30 8 1 4 6
M  V30 END BOND
M  V30 END CTAB
M  END
>  <Dotmatics_CR>
R-005586

>  <CR_Set>
Aldehyde

>  <Category>
Aldehydes Aromatic

>  <Reaction type>
RedAm

>  <KI/BB_Nature>
Amine

>  <Comments>


>  <Salt>


>  <CR_Chiral_Form>
Achiral

>  <Prod_total_used>
55

>  <PSR (%)>
98

>  <Article>
5-METHYLTHIOPHENE-2-CARBOXALDEHYDE

>  <CAS>
13679-70-4

>  <Density>
1.17

>  <Prod_reagent_number>


>  <Stereocenters>
0

>  <Edel>


>  <NB_Name reaction - KI/BB – Capping>
01-RedAm_Amine_Aldehyde

$$$$
R-008496
Actelion Java MolfileCreator 2.0

  0  0  0  0  0  0              0 V3000
M  V30 BEGIN CTAB
M  V30 COUNTS 8 8 0 0 0
M  V30 BEGIN ATOM
M  V30 1 O 0.0 0.0 0.0 0
M  V30 2 C 1.4945 0.1067 0.0 0
M  V30 3 C 2.3011 -1.1505 0.0 0
M  V30 4 C 3.7956 -1.2098 0.0 0
M  V30 5 C 1.7317 -2.5502 0.0 0
M  V30 6 N 4.1633 -2.6569 0.0 0
M  V30 7 N 2.8941 -3.4872 0.0 0
M  V30 8 C 2.7874 -4.9817 0.0 0
M  V30 END ATOM
M  V30 BEGIN BOND
M  V30 1 2 1 2
M  V30 2 1 2 3
M  V30 3 1 3 4
M  V30 4 2 3 5
M  V30 5 2 4 6
M  V30 6 1 5 7
M  V30 7 1 7 8
M  V30 8 1 6 7
M  V30 END BOND
M  V30 END CTAB
M  END
>  <Dotmatics_CR>
R-008496

>  <CR_Set>
Aldehyde

>  <Category>
Aldehydes Aromatic

>  <Reaction type>
RedAm

>  <KI/BB_Nature>
Amine

>  <Comments>


>  <Salt>


>  <CR_Chiral_Form>
Achiral

>  <Prod_total_used>
231

>  <PSR (%)>
84

>  <Article>
1-Methyl-1H-pyrazole-4-carboxaldehyde

>  <CAS>
25016-11-9

>  <Density>
1

>  <Prod_reagent_number>


>  <Stereocenters>
0

>  <Edel>


>  <NB_Name reaction - KI/BB – Capping>
01-RedAm_Amine_Aldehyde

$$$$
R-006433
Actelion Java MolfileCreator 2.0

  0  0  0  0  0  0              0 V3000
M  V30 BEGIN CTAB
M  V30 COUNTS 8 8 0 0 0
M  V30 BEGIN ATOM
M  V30 1 O 0.0 0.0 0.0 0
M  V30 2 C -0.6337 1.3848 0.0 0
M  V30 3 C -2.1359 1.5608 0.0 0
M  V30 4 N -2.8987 2.8752 0.0 0
M  V30 5 N -3.1451 0.4811 0.0 0
M  V30 6 C -4.3774 2.5818 0.0 0
M  V30 7 C -4.53 1.1149 0.0 0
M  V30 8 C -2.8518 -0.9506 0.0 0
M  V30 END ATOM
M  V30 BEGIN BOND
M  V30 1 2 1 2
M  V30 2 1 2 3
M  V30 3 2 3 4
M  V30 4 1 3 5
M  V30 5 1 4 6
M  V30 6 1 5 7
M  V30 7 1 5 8
M  V30 8 2 6 7
M  V30 END BOND
M  V30 END CTAB
M  END
>  <Dotmatics_CR>
R-006433

>  <CR_Set>
Aldehyde

>  <Category>
Aldehydes Aromatic

>  <Reaction type>
RedAm

>  <KI/BB_Nature>
Amine

>  <Comments>


>  <Salt>


>  <CR_Chiral_Form>
Achiral

>  <Prod_total_used>
214

>  <PSR (%)>
83

>  <Article>
1-METHYL-2-IMIDAZOLECARBOXALDEHYDE

>  <CAS>
13750-81-7

>  <Density>
1

>  <Prod_reagent_number>


>  <Stereocenters>
0

>  <Edel>


>  <NB_Name reaction - KI/BB – Capping>
01-RedAm_Amine_Aldehyde

$$$$
R-011897
Actelion Java MolfileCreator 2.0

  0  0  0  0  0  0              0 V3000
M  V30 BEGIN CTAB
M  V30 COUNTS 8 8 0 0 0
M  V30 BEGIN ATOM
M  V30 1 O 0.0 0.0 0.0 0
M  V30 2 C -0.024 1.2369 0.0 0
M  V30 3 C -1.357 2.0175 0.0 0
M  V30 4 N -2.69 1.2729 0.0 0
M  V30 5 C -1.381 3.5547 0.0 0
M  V30 6 C -4.0231 2.0535 0.0 0
M  V30 7 N -2.714 4.3353 0.0 0
M  V30 8 C -4.0471 3.5907 0.0 0
M  V30 END ATOM
M  V30 BEGIN BOND
M  V30 1 2 1 2
M  V30 2 1 2 3
M  V30 3 2 3 4
M  V30 4 1 3 5
M  V30 5 1 4 6
M  V30 6 2 5 7
M  V30 7 2 6 8
M  V30 8 1 7 8
M  V30 END BOND
M  V30 END CTAB
M  END
>  <Dotmatics_CR>
R-011897

>  <CR_Set>
Aldehyde

>  <Category>
Aldehydes Aromatic

>  <Reaction type>
RedAm

>  <KI/BB_Nature>
Amine

>  <Comments>


>  <Salt>


>  <CR_Chiral_Form>
Achiral

>  <Prod_total_used>
62

>  <PSR (%)>
73

>  <Article>
pyrazine-2-carbaldehyde

>  <CAS>
5780-66-5

>  <Density>
1

>  <Prod_reagent_number>


>  <Stereocenters>
0

>  <Edel>


>  <NB_Name reaction - KI/BB – Capping>
01-RedAm_Amine_Aldehyde

$$$$
R-008495
Actelion Java MolfileCreator 2.0

  0  0  0  0  0  0              0 V3000
M  V30 BEGIN CTAB
M  V30 COUNTS 8 8 0 0 0
M  V30 BEGIN ATOM
M  V30 1 O 0.0 0.0 0.0 0
M  V30 2 C -0.1788 1.5139 0.0 0
M  V30 3 C 1.0133 2.42 0.0 0
M  V30 4 N 2.42 1.9789 0.0 0
M  V30 5 C 0.9894 3.9459 0.0 0
M  V30 6 C 3.2783 3.2187 0.0 0
M  V30 7 N 2.3961 4.4346 0.0 0
M  V30 8 C 4.7565 3.2425 0.0 0
M  V30 END ATOM
M  V30 BEGIN BOND
M  V30 1 2 1 2
M  V30 2 1 2 3
M  V30 3 1 3 4
M  V30 4 2 3 5
M  V30 5 2 4 6
M  V30 6 1 5 7
M  V30 7 1 6 8
M  V30 8 1 6 7
M  V30 END BOND
M  V30 END CTAB
M  END
>  <Dotmatics_CR>
R-008495

>  <CR_Set>
Aldehyde

>  <Category>
Aldehydes Aromatic

>  <Reaction type>
RedAm

>  <KI/BB_Nature>
Amine

>  <Comments>
NH

>  <Salt>


>  <CR_Chiral_Form>
Achiral

>  <Prod_total_used>
140

>  <PSR (%)>
87

>  <Article>
2-Methyl-1H-imidazole-4-carboxaldehyde

>  <CAS>
35034-22-1

>  <Density>
1

>  <Prod_reagent_number>


>  <Stereocenters>
0

>  <Edel>


>  <NB_Name reaction - KI/BB – Capping>
01-RedAm_Amine_Aldehyde

$$$$
R-001128
Actelion Java MolfileCreator 2.0

  0  0  0  0  0  0              0 V3000
M  V30 BEGIN CTAB
M  V30 COUNTS 8 8 0 0 0
M  V30 BEGIN ATOM
M  V30 1 O 0.0 0.0 0.0 0
M  V30 2 C 1.1737 -1.1504 0.0 0
M  V30 3 C 2.4869 -0.488 0.0 0
M  V30 4 N 3.6722 -1.3364 0.0 0
M  V30 5 C 2.9285 0.9529 0.0 0
M  V30 6 C 4.8576 -0.4416 0.0 0
M  V30 7 N 4.3927 0.9761 0.0 0
M  V30 8 C 1.8942 2.0104 0.0 0
M  V30 END ATOM
M  V30 BEGIN BOND
M  V30 1 2 1 2
M  V30 2 1 2 3
M  V30 3 1 3 4
M  V30 4 2 3 5
M  V30 5 1 4 6
M  V30 6 1 5 7
M  V30 7 1 5 8
M  V30 8 2 6 7
M  V30 END BOND
M  V30 END CTAB
M  END
>  <Dotmatics_CR>
R-001128

>  <CR_Set>
Aldehyde

>  <Category>
Aldehydes Aromatic

>  <Reaction type>
RedAm

>  <KI/BB_Nature>
Amine

>  <Comments>
NH

>  <Salt>


>  <CR_Chiral_Form>
Achiral

>  <Prod_total_used>
117

>  <PSR (%)>
81

>  <Article>
4-METHYL-5-IMIDAZOLECARBOXALDEHYDE

>  <CAS>
68282-53-1

>  <Density>
1

>  <Prod_reagent_number>


>  <Stereocenters>
0

>  <Edel>


>  <NB_Name reaction - KI/BB – Capping>
01-RedAm_Amine_Aldehyde

$$$$
R-011775
Actelion Java MolfileCreator 2.0

  0  0  0  0  0  0              0 V3000
M  V30 BEGIN CTAB
M  V30 COUNTS 8 8 0 0 0
M  V30 BEGIN ATOM
M  V30 1 O 0.0 0.0 0.0 0
M  V30 2 C 0.9226 0.8852 0.0 0
M  V30 3 C 2.4187 0.4239 0.0 0
M  V30 4 N 3.6905 1.3964 0.0 0
M  V30 5 C 2.88 -1.0722 0.0 0
M  V30 6 C 4.9622 0.4737 0.0 0
M  V30 7 N 4.451 -1.0473 0.0 0
M  V30 8 C 5.1741 -2.0572 0.0 0
M  V30 END ATOM
M  V30 BEGIN BOND
M  V30 1 2 1 2
M  V30 2 1 2 3
M  V30 3 1 3 4
M  V30 4 2 3 5
M  V30 5 2 4 6
M  V30 6 1 5 7
M  V30 7 1 7 8
M  V30 8 1 6 7
M  V30 END BOND
M  V30 END CTAB
M  END
>  <Dotmatics_CR>
R-011775

>  <CR_Set>
Aldehyde

>  <Category>
Aldehydes Aromatic

>  <Reaction type>
RedAm

>  <KI/BB_Nature>
Amine

>  <Comments>


>  <Salt>


>  <CR_Chiral_Form>
Achiral

>  <Prod_total_used>
40

>  <PSR (%)>
88

>  <Article>
1-methylimidazole-4-carbaldehyde

>  <CAS>
17289-26-8

>  <Density>
1

>  <Prod_reagent_number>


>  <Stereocenters>
0

>  <Edel>


>  <NB_Name reaction - KI/BB – Capping>
01-RedAm_Amine_Aldehyde

$$$$
R-000883
Actelion Java MolfileCreator 2.0

  0  0  0  0  0  0              0 V3000
M  V30 BEGIN CTAB
M  V30 COUNTS 8 8 0 0 0
M  V30 BEGIN ATOM
M  V30 1 O 0.0 0.0 0.0 0
M  V30 2 C 0.9648 1.1177 0.0 0
M  V30 3 C 0.4824 2.5532 0.0 0
M  V30 4 N 1.3295 3.7768 0.0 0
M  V30 5 C -0.953 3.0356 0.0 0
M  V30 6 N 0.4353 5.0005 0.0 0
M  V30 7 C -0.9765 4.5416 0.0 0
M  V30 8 C 0.8706 6.436 0.0 0
M  V30 END ATOM
M  V30 BEGIN BOND
M  V30 1 2 1 2
M  V30 2 1 2 3
M  V30 3 2 3 4
M  V30 4 1 3 5
M  V30 5 1 4 6
M  V30 6 2 5 7
M  V30 7 1 6 8
M  V30 8 1 6 7
M  V30 END BOND
M  V30 END CTAB
M  END
>  <Dotmatics_CR>
R-000883

>  <CR_Set>
Aldehyde

>  <Category>
Aldehydes Aromatic

>  <Reaction type>
RedAm

>  <KI/BB_Nature>
Amine

>  <Comments>


>  <Salt>


>  <CR_Chiral_Form>
Achiral

>  <Prod_total_used>
94

>  <PSR (%)>
86

>  <Article>
1-Methyl-1H-pyrazole-3-carboxaldehyde

>  <CAS>
27258-32-8

>  <Density>
1

>  <Prod_reagent_number>


>  <Stereocenters>
0

>  <Edel>


>  <NB_Name reaction - KI/BB – Capping>
01-RedAm_Amine_Aldehyde

$$$$
R-011807
Actelion Java MolfileCreator 2.0

  0  0  0  0  0  0              0 V3000
M  V30 BEGIN CTAB
M  V30 COUNTS 8 8 0 0 0
M  V30 BEGIN ATOM
M  V30 1 O 0.0 0.0 0.0 0
M  V30 2 C 1.2369 -0.1113 0.0 0
M  V30 3 C 2.1523 1.1874 0.0 0
M  V30 4 N 3.7109 1.2122 0.0 0
M  V30 5 C 1.6451 2.7213 0.0 0
M  V30 6 N 4.1685 2.746 0.0 0
M  V30 7 C 4.4283 0.2102 0.0 0
M  V30 8 C 2.9068 3.6861 0.0 0
M  V30 END ATOM
M  V30 BEGIN BOND
M  V30 1 2 1 2
M  V30 2 1 2 3
M  V30 3 1 3 4
M  V30 4 2 3 5
M  V30 5 1 4 6
M  V30 6 1 4 7
M  V30 7 1 5 8
M  V30 8 2 6 8
M  V30 END BOND
M  V30 END CTAB
M  END
>  <Dotmatics_CR>
R-011807

>  <CR_Set>
Aldehyde

>  <Category>
Aldehydes Aromatic

>  <Reaction type>
RedAm

>  <KI/BB_Nature>
Amine

>  <Comments>


>  <Salt>


>  <CR_Chiral_Form>
Achiral

>  <Prod_total_used>
61

>  <PSR (%)>
85

>  <Article>
2-methylpyrazole-3-carbaldehyde

>  <CAS>
27258-33-9

>  <Density>
1.118

>  <Prod_reagent_number>


>  <Stereocenters>
0

>  <Edel>


>  <NB_Name reaction - KI/BB – Capping>
01-RedAm_Amine_Aldehyde

$$$$
R-012020
Actelion Java MolfileCreator 2.0

  0  0  0  0  0  0              0 V3000
M  V30 BEGIN CTAB
M  V30 COUNTS 8 8 0 0 0
M  V30 BEGIN ATOM
M  V30 1 O 0.0 0.0 0.0 0
M  V30 2 C -0.024 1.2369 0.0 0
M  V30 3 C -1.357 2.0175 0.0 0
M  V30 4 N -2.69 1.2729 0.0 0
M  V30 5 C -1.381 3.5547 0.0 0
M  V30 6 C -4.0231 2.0535 0.0 0
M  V30 7 C -2.714 4.3353 0.0 0
M  V30 8 N -4.0471 3.5907 0.0 0
M  V30 END ATOM
M  V30 BEGIN BOND
M  V30 1 2 1 2
M  V30 2 1 2 3
M  V30 3 2 3 4
M  V30 4 1 3 5
M  V30 5 1 4 6
M  V30 6 2 5 7
M  V30 7 2 6 8
M  V30 8 1 7 8
M  V30 END BOND
M  V30 END CTAB
M  END
>  <Dotmatics_CR>
R-012020

>  <CR_Set>
Aldehyde

>  <Category>
Aldehydes Aromatic

>  <Reaction type>
RedAm

>  <KI/BB_Nature>
Amine

>  <Comments>


>  <Salt>


>  <CR_Chiral_Form>
Achiral

>  <Prod_total_used>
20

>  <PSR (%)>
65

>  <Article>
pyrimidine-4-carbaldehyde

>  <CAS>
2435-50-9

>  <Density>
1.234

>  <Prod_reagent_number>


>  <Stereocenters>
0

>  <Edel>


>  <NB_Name reaction - KI/BB – Capping>
01-RedAm_Amine_Aldehyde

$$$$
R-008502
Actelion Java MolfileCreator 2.0

  0  0  0  0  0  0              0 V3000
M  V30 BEGIN CTAB
M  V30 COUNTS 8 8 0 0 0
M  V30 BEGIN ATOM
M  V30 1 O 0.0 0.0 0.0 0
M  V30 2 C -0.0239 1.5305 0.0 0
M  V30 3 C 1.2555 2.2958 0.0 0
M  V30 4 N 2.6067 1.6979 0.0 0
M  V30 5 C 1.387 3.8144 0.0 0
M  V30 6 C 3.5872 2.8339 0.0 0
M  V30 7 C 2.8937 0.2511 0.0 0
M  V30 8 N 2.8339 4.1492 0.0 0
M  V30 END ATOM
M  V30 BEGIN BOND
M  V30 1 2 1 2
M  V30 2 1 2 3
M  V30 3 1 3 4
M  V30 4 2 3 5
M  V30 5 1 4 6
M  V30 6 1 4 7
M  V30 7 1 5 8
M  V30 8 2 6 8
M  V30 END BOND
M  V30 END CTAB
M  END
>  <Dotmatics_CR>
R-008502

>  <CR_Set>
Aldehyde

>  <Category>
Aldehydes Aromatic

>  <Reaction type>
RedAm

>  <KI/BB_Nature>
Amine

>  <Comments>


>  <Salt>


>  <CR_Chiral_Form>
Achiral

>  <Prod_total_used>
242

>  <PSR (%)>
80

>  <Article>
1-methyl-5-imidazolecarboxaldehyde

>  <CAS>
39021-62-0

>  <Density>
1

>  <Prod_reagent_number>


>  <Stereocenters>
0

>  <Edel>


>  <NB_Name reaction - KI/BB – Capping>
01-RedAm_Amine_Aldehyde

$$$$
R-010621
Actelion Java MolfileCreator 2.0

  0  0  0  0  0  0              0 V3000
M  V30 BEGIN CTAB
M  V30 COUNTS 8 8 0 0 0
M  V30 BEGIN ATOM
M  V30 1 O 0.0 0.0 0.0 0
M  V30 2 C -0.1782 -1.4858 0.0 0
M  V30 3 C 1.0341 -2.3654 0.0 0
M  V30 4 N 2.4605 -1.878 0.0 0
M  V30 5 C 1.0103 -3.8631 0.0 0
M  V30 6 C 3.3401 -3.0904 0.0 0
M  V30 7 O 2.4367 -4.3029 0.0 0
M  V30 8 C 4.8378 -3.0667 0.0 0
M  V30 END ATOM
M  V30 BEGIN BOND
M  V30 1 2 1 2
M  V30 2 1 2 3
M  V30 3 1 3 4
M  V30 4 2 3 5
M  V30 5 2 4 6
M  V30 6 1 5 7
M  V30 7 1 6 8
M  V30 8 1 6 7
M  V30 END BOND
M  V30 END CTAB
M  END
>  <Dotmatics_CR>
R-010621

>  <CR_Set>
Aldehyde

>  <Category>
Aldehydes Aromatic

>  <Reaction type>
RedAm

>  <KI/BB_Nature>
Amine

>  <Comments>


>  <Salt>


>  <CR_Chiral_Form>
Achiral

>  <Prod_total_used>
27

>  <PSR (%)>
67

>  <Article>
2-methyloxazole-4-carbaldehyde

>  <CAS>
113732-84-6

>  <Density>
1

>  <Prod_reagent_number>


>  <Stereocenters>
0

>  <Edel>


>  <NB_Name reaction - KI/BB – Capping>
01-RedAm_Amine_Aldehyde

$$$$
R-011963
Actelion Java MolfileCreator 2.0

  0  0  0  0  0  0              0 V3000
M  V30 BEGIN CTAB
M  V30 COUNTS 8 8 0 0 0
M  V30 BEGIN ATOM
M  V30 1 O 0.0 0.0 0.0 0
M  V30 2 C 0.9226 0.8852 0.0 0
M  V30 3 C 2.4187 0.4239 0.0 0
M  V30 4 N 3.6905 1.3964 0.0 0
M  V30 5 C 2.88 -1.0722 0.0 0
M  V30 6 O 4.9622 0.4737 0.0 0
M  V30 7 C 4.451 -1.0473 0.0 0
M  V30 8 C 5.1741 -2.0572 0.0 0
M  V30 END ATOM
M  V30 BEGIN BOND
M  V30 1 2 1 2
M  V30 2 1 2 3
M  V30 3 2 3 4
M  V30 4 1 3 5
M  V30 5 1 4 6
M  V30 6 2 5 7
M  V30 7 1 7 8
M  V30 8 1 6 7
M  V30 END BOND
M  V30 END CTAB
M  END
>  <Dotmatics_CR>
R-011963

>  <CR_Set>
Aldehyde

>  <Category>
Aldehydes Aromatic

>  <Reaction type>
RedAm

>  <KI/BB_Nature>
Amine

>  <Comments>


>  <Salt>


>  <CR_Chiral_Form>
Achiral

>  <Prod_total_used>
12

>  <PSR (%)>
67

>  <Article>
5-methylisoxazole-3-carbaldehyde

>  <CAS>
62254-74-4

>  <Density>
1

>  <Prod_reagent_number>


>  <Stereocenters>
0

>  <Edel>


>  <NB_Name reaction - KI/BB – Capping>
01-RedAm_Amine_Aldehyde

$$$$
R-000131
Actelion Java MolfileCreator 2.0

  0  0  0  0  0  0              0 V3000
M  V30 BEGIN CTAB
M  V30 COUNTS 8 8 0 0 0
M  V30 BEGIN ATOM
M  V30 1 O 0.0 0.0 0.0 0
M  V30 2 C -0.0238 -1.4891 0.0 0
M  V30 3 C 1.2747 -2.2158 0.0 0
M  V30 4 C 2.5851 -1.4295 0.0 0
M  V30 5 C 1.2389 -3.7049 0.0 0
M  V30 6 N 3.8717 -2.192 0.0 0
M  V30 7 C 2.5255 -4.4674 0.0 0
M  V30 8 C 3.8241 -3.693 0.0 0
M  V30 END ATOM
M  V30 BEGIN BOND
M  V30 1 2 1 2
M  V30 2 1 2 3
M  V30 3 2 3 4
M  V30 4 1 3 5
M  V30 5 1 4 6
M  V30 6 2 5 7
M  V30 7 2 6 8
M  V30 8 1 7 8
M  V30 END BOND
M  V30 END CTAB
M  END
>  <Dotmatics_CR>
R-000131

>  <CR_Set>
Aldehyde

>  <Category>
Aldehydes Aromatic

>  <Reaction type>
RedAm

>  <KI/BB_Nature>
Amine

>  <Comments>


>  <Salt>


>  <CR_Chiral_Form>
Achiral

>  <Prod_total_used>
119

>  <PSR (%)>
73

>  <Article>
3-PYRIDINE CARBOXALDEHYDE

>  <CAS>
500-22-1

>  <Density>
1.141

>  <Prod_reagent_number>


>  <Stereocenters>
0

>  <Edel>


>  <NB_Name reaction - KI/BB – Capping>
01-RedAm_Amine_Aldehyde

$$$$
R-000379
Actelion Java MolfileCreator 2.0

  0  0  0  0  0  0              0 V3000
M  V30 BEGIN CTAB
M  V30 COUNTS 8 8 0 0 0
M  V30 BEGIN ATOM
M  V30 1 O 0.0 0.0 0.0 0
M  V30 2 C 1.0138 1.1304 0.0 0
M  V30 3 C 2.4822 0.8157 0.0 0
M  V30 4 N 3.4728 1.9695 0.0 0
M  V30 5 C 2.8901 -0.5943 0.0 0
M  V30 6 C 4.9296 1.6548 0.0 0
M  V30 7 C 4.3469 -0.909 0.0 0
M  V30 8 C 5.3608 0.2447 0.0 0
M  V30 END ATOM
M  V30 BEGIN BOND
M  V30 1 2 1 2
M  V30 2 1 2 3
M  V30 3 2 3 4
M  V30 4 1 3 5
M  V30 5 1 4 6
M  V30 6 2 5 7
M  V30 7 2 6 8
M  V30 8 1 7 8
M  V30 END BOND
M  V30 END CTAB
M  END
>  <Dotmatics_CR>
R-000379

>  <CR_Set>
Aldehyde

>  <Category>
Aldehydes Aromatic

>  <Reaction type>
RedAm

>  <KI/BB_Nature>
Amine

>  <Comments>


>  <Salt>


>  <CR_Chiral_Form>
Achiral

>  <Prod_total_used>
102

>  <PSR (%)>
73

>  <Article>
2-PYRIDINECARBOXALDEHYDE

>  <CAS>
1121-60-4

>  <Density>
1.126

>  <Prod_reagent_number>


>  <Stereocenters>
0

>  <Edel>


>  <NB_Name reaction - KI/BB – Capping>
01-RedAm_Amine_Aldehyde

$$$$
R-000693
Actelion Java MolfileCreator 2.0

  0  0  0  0  0  0              0 V3000
M  V30 BEGIN CTAB
M  V30 COUNTS 8 8 0 0 0
M  V30 BEGIN ATOM
M  V30 1 O 0.0 0.0 0.0 0
M  V30 2 C -0.7667 -1.2621 0.0 0
M  V30 3 C -2.2766 -1.2385 0.0 0
M  V30 4 N -3.173 -0.0117 0.0 0
M  V30 5 C -3.173 -2.4181 0.0 0
M  V30 6 C -4.6121 -0.4482 0.0 0
M  V30 7 C -2.7366 1.4273 0.0 0
M  V30 8 C -4.6121 -1.9345 0.0 0
M  V30 END ATOM
M  V30 BEGIN BOND
M  V30 1 2 1 2
M  V30 2 1 2 3
M  V30 3 1 3 4
M  V30 4 2 3 5
M  V30 5 1 4 6
M  V30 6 1 4 7
M  V30 7 1 5 8
M  V30 8 2 6 8
M  V30 END BOND
M  V30 END CTAB
M  END
>  <Dotmatics_CR>
R-000693

>  <CR_Set>
Aldehyde

>  <Category>
Aldehydes Aromatic

>  <Reaction type>
RedAm

>  <KI/BB_Nature>
Amine

>  <Comments>


>  <Salt>


>  <CR_Chiral_Form>
Achiral

>  <Prod_total_used>
107

>  <PSR (%)>
85

>  <Article>
N-Methyl-2-pyrrolecarboxaldehyde

>  <CAS>
1192-58-1

>  <Density>
1.016

>  <Prod_reagent_number>


>  <Stereocenters>
0

>  <Edel>


>  <NB_Name reaction - KI/BB – Capping>
01-RedAm_Amine_Aldehyde

$$$$
R-000222
Actelion Java MolfileCreator 2.0

  0  0  0  0  0  0              0 V3000
M  V30 BEGIN CTAB
M  V30 COUNTS 8 8 0 0 0
M  V30 BEGIN ATOM
M  V30 1 O 0.0 0.0 0.0 0
M  V30 2 C 1.2924 -0.7351 0.0 0
M  V30 3 C 1.2687 -2.2292 0.0 0
M  V30 4 C 2.5612 -2.9525 0.0 0
M  V30 5 C -0.0711 -2.9643 0.0 0
M  V30 6 C 2.5374 -4.4465 0.0 0
M  V30 7 C -0.0948 -4.4584 0.0 0
M  V30 8 N 1.1976 -5.1935 0.0 0
M  V30 END ATOM
M  V30 BEGIN BOND
M  V30 1 2 1 2
M  V30 2 1 2 3
M  V30 3 2 3 4
M  V30 4 1 3 5
M  V30 5 1 4 6
M  V30 6 2 5 7
M  V30 7 2 6 8
M  V30 8 1 7 8
M  V30 END BOND
M  V30 END CTAB
M  END
>  <Dotmatics_CR>
R-000222

>  <CR_Set>
Aldehyde

>  <Category>
Aldehydes Aromatic

>  <Reaction type>
RedAm

>  <KI/BB_Nature>
Amine

>  <Comments>


>  <Salt>


>  <CR_Chiral_Form>
Achiral

>  <Prod_total_used>
114

>  <PSR (%)>
75

>  <Article>
4-PYRIDINECARBOXALDEHYDE

>  <CAS>
872-85-5

>  <Density>
1.137

>  <Prod_reagent_number>


>  <Stereocenters>
0

>  <Edel>


>  <NB_Name reaction - KI/BB – Capping>
01-RedAm_Amine_Aldehyde

$$$$
R-008091
Actelion Java MolfileCreator 2.0

  0  0  0  0  0  0              0 V3000
M  V30 BEGIN CTAB
M  V30 COUNTS 8 8 0 0 0
M  V30 BEGIN ATOM
M  V30 1 Br 0.0 0.0 0.0 0
M  V30 2 C 1.1929 0.9066 0.0 0
M  V30 3 S 2.6007 0.4652 0.0 0
M  V30 4 C 1.1691 2.4337 0.0 0
M  V30 5 C 3.4596 1.7059 0.0 0
M  V30 6 N 2.5768 2.9228 0.0 0
M  V30 7 C 4.939 1.7298 0.0 0
M  V30 8 O 5.6786 3.054 0.0 0
M  V30 END ATOM
M  V30 BEGIN BOND
M  V30 1 1 1 2
M  V30 2 1 2 3
M  V30 3 2 2 4
M  V30 4 1 3 5
M  V30 5 1 4 6
M  V30 6 1 5 7
M  V30 7 2 7 8
M  V30 8 2 5 6
M  V30 END BOND
M  V30 END CTAB
M  END
>  <Dotmatics_CR>
R-008091

>  <CR_Set>
Aldehyde

>  <Category>
Aldehydes Aromatic

>  <Reaction type>
RedAm

>  <KI/BB_Nature>
Amine

>  <Comments>


>  <Salt>


>  <CR_Chiral_Form>
Achiral

>  <Prod_total_used>
21

>  <PSR (%)>
62

>  <Article>
5-Bromo-2-formylthiazole

>  <CAS>
933752-44-4

>  <Density>
1

>  <Prod_reagent_number>


>  <Stereocenters>
0

>  <Edel>


>  <NB_Name reaction - KI/BB – Capping>
01-RedAm_Amine_Aldehyde

$$$$
R-008548
Actelion Java MolfileCreator 2.0

  0  0  0  0  0  0              0 V3000
M  V30 BEGIN CTAB
M  V30 COUNTS 8 8 0 0 0
M  V30 BEGIN ATOM
M  V30 1 S 0.0 0.0 0.0 0
M  V30 2 C 0.8714 -1.2011 0.0 0
M  V30 3 C -1.4602 -0.4357 0.0 0
M  V30 4 C -0.0471 -2.4022 0.0 0
M  V30 5 C 2.3551 -1.1775 0.0 0
M  V30 6 N -1.4837 -1.9194 0.0 0
M  V30 7 C 0.3886 -3.8154 0.0 0
M  V30 8 O 3.0852 0.153 0.0 0
M  V30 END ATOM
M  V30 BEGIN BOND
M  V30 1 1 1 2
M  V30 2 1 1 3
M  V30 3 2 2 4
M  V30 4 1 2 5
M  V30 5 2 3 6
M  V30 6 1 4 7
M  V30 7 2 5 8
M  V30 8 1 4 6
M  V30 END BOND
M  V30 END CTAB
M  END
>  <Dotmatics_CR>
R-008548

>  <CR_Set>
Aldehyde

>  <Category>
Aldehydes Aromatic

>  <Reaction type>
RedAm

>  <KI/BB_Nature>
Amine

>  <Comments>


>  <Salt>


>  <CR_Chiral_Form>
Achiral

>  <Prod_total_used>
117

>  <PSR (%)>
86

>  <Article>
4-Methylthiazole-5-carboxaldehyde

>  <CAS>
82294-70-0

>  <Density>
1

>  <Prod_reagent_number>


>  <Stereocenters>
0

>  <Edel>


>  <NB_Name reaction - KI/BB – Capping>
01-RedAm_Amine_Aldehyde

$$$$
R-003504
Actelion Java MolfileCreator 2.0

  0  0  0  0  0  0              0 V3000
M  V30 BEGIN CTAB
M  V30 COUNTS 8 7 0 0 0
M  V30 BEGIN ATOM
M  V30 1 O 0.0 0.0 0.0 0
M  V30 2 C 1.3217 -0.6962 0.0 0
M  V30 3 C 2.6081 0.1298 0.0 0
M  V30 4 C 3.9299 -0.5664 0.0 0
M  V30 5 C 5.2044 0.2596 0.0 0
M  V30 6 C 6.5262 -0.4248 0.0 0
M  V30 7 C 6.5616 -1.9118 0.0 0
M  V30 8 C 7.8834 -2.5963 0.0 0
M  V30 END ATOM
M  V30 BEGIN BOND
M  V30 1 2 1 2
M  V30 2 1 2 3
M  V30 3 1 3 4
M  V30 4 1 4 5
M  V30 5 2 5 6
M  V30 6 1 6 7
M  V30 7 1 7 8
M  V30 END BOND
M  V30 END CTAB
M  END
>  <Dotmatics_CR>
R-003504

>  <CR_Set>
Aldehyde

>  <Category>
Aldehydes Non-Aromatic

>  <Reaction type>
RedAm

>  <KI/BB_Nature>
Amine

>  <Comments>


>  <Salt>


>  <CR_Chiral_Form>
Achiral

>  <Prod_total_used>
3

>  <PSR (%)>
100

>  <Article>
CIS-4-HEPTEN-1-AL

>  <CAS>
6728-31-0

>  <Density>
0.847

>  <Prod_reagent_number>


>  <Stereocenters>
0

>  <Edel>


>  <NB_Name reaction - KI/BB – Capping>
01-RedAm_Amine_Aldehyde

$$$$
R-011976
Actelion Java MolfileCreator 2.0

  0  0  0  0  0  0              0 V3000
M  V30 BEGIN CTAB
M  V30 COUNTS 9 8 0 0 0
M  V30 BEGIN ATOM
M  V30 1 O 0.0 0.0 0.0 0
M  V30 2 C -1.1967 -0.6622 0.0 0
M  V30 3 C -2.684 0.1975 0.0 0
M  V30 4 C -4.1712 -0.6158 0.0 0
M  V30 5 C -3.8808 0.9062 0.0 0
M  V30 6 C -2.7072 1.5685 0.0 0
M  V30 7 N -5.6585 0.244 0.0 0
M  V30 8 C -6.8553 -0.4182 0.0 0
M  V30 9 C -5.6817 1.615 0.0 0
M  V30 END ATOM
M  V30 BEGIN BOND
M  V30 1 2 1 2
M  V30 2 1 2 3
M  V30 3 1 3 4
M  V30 4 1 3 5
M  V30 5 1 3 6
M  V30 6 1 4 7
M  V30 7 1 7 8
M  V30 8 1 7 9
M  V30 END BOND
M  V30 END CTAB
M  END
>  <Dotmatics_CR>
R-011976

>  <CR_Set>
Aldehyde

>  <Category>
Aldehydes Non-Aromatic

>  <Reaction type>
RedAm

>  <KI/BB_Nature>
Amine

>  <Comments>


>  <Salt>


>  <CR_Chiral_Form>
Achiral

>  <Prod_total_used>
10

>  <PSR (%)>
90

>  <Article>
3-(dimethylamino)-2,2-dimethyl-propanal

>  <CAS>
15451-14-6

>  <Density>
0.868

>  <Prod_reagent_number>


>  <Stereocenters>
0

>  <Edel>


>  <NB_Name reaction - KI/BB – Capping>
01-RedAm_Amine_Aldehyde

$$$$
R-003500
Actelion Java MolfileCreator 2.0

  0  0  0  0  0  0              0 V3000
M  V30 BEGIN CTAB
M  V30 COUNTS 9 9 0 0 0
M  V30 BEGIN ATOM
M  V30 1 O 0.0 0.0 0.0 0
M  V30 2 C 0.9205 -1.1566 0.0 0
M  V30 3 C 2.4077 -0.9087 0.0 0
M  V30 4 C 2.9388 0.5075 0.0 0
M  V30 5 C 3.34 -2.089 0.0 0
M  V30 6 C 4.4141 0.7553 0.0 0
M  V30 7 C 4.8036 -1.8411 0.0 0
M  V30 8 C 5.3347 -0.4248 0.0 0
M  V30 9 O 6.8218 -0.177 0.0 0
M  V30 END ATOM
M  V30 BEGIN BOND
M  V30 1 2 1 2
M  V30 2 1 2 3
M  V30 3 2 3 4
M  V30 4 1 3 5
M  V30 5 1 4 6
M  V30 6 2 5 7
M  V30 7 2 6 8
M  V30 8 1 8 9
M  V30 9 1 7 8
M  V30 END BOND
M  V30 END CTAB
M  END
>  <Dotmatics_CR>
R-003500

>  <CR_Set>
Aldehyde

>  <Category>
Aldehydes Aromatic

>  <Reaction type>
RedAm

>  <KI/BB_Nature>
Amine

>  <Comments>
acidic cdts for purification
OH

>  <Salt>


>  <CR_Chiral_Form>
Achiral

>  <Prod_total_used>
28

>  <PSR (%)>
86

>  <Article>
4-HYDROXYBENZALDEHYDE

>  <CAS>
123-08-0

>  <Density>
1

>  <Prod_reagent_number>


>  <Stereocenters>
0

>  <Edel>


>  <NB_Name reaction - KI/BB – Capping>
01-RedAm_Amine_Aldehyde

$$$$
R-009827
Actelion Java MolfileCreator 2.0

  0  0  0  0  0  0              0 V3000
M  V30 BEGIN CTAB
M  V30 COUNTS 9 9 0 0 0
M  V30 BEGIN ATOM
M  V30 1 O 0.0 0.0 0.0 0
M  V30 2 C -0.7548 -1.262 0.0 0
M  V30 3 C -2.2645 -1.2384 0.0 0
M  V30 4 O -3.1609 -2.4178 0.0 0
M  V30 5 C -3.1609 -0.0117 0.0 0
M  V30 6 C -4.5998 -1.9342 0.0 0
M  V30 7 C -4.5998 -0.4481 0.0 0
M  V30 8 C -5.8264 -2.7835 0.0 0
M  V30 9 C -5.8264 0.4481 0.0 0
M  V30 END ATOM
M  V30 BEGIN BOND
M  V30 1 2 1 2
M  V30 2 1 2 3
M  V30 3 1 3 4
M  V30 4 2 3 5
M  V30 5 1 4 6
M  V30 6 1 5 7
M  V30 7 1 6 8
M  V30 8 1 7 9
M  V30 9 2 6 7
M  V30 END BOND
M  V30 END CTAB
M  END
>  <Dotmatics_CR>
R-009827

>  <CR_Set>
Aldehyde

>  <Category>
Aldehydes Aromatic

>  <Reaction type>
RedAm

>  <KI/BB_Nature>
Amine

>  <Comments>


>  <Salt>


>  <CR_Chiral_Form>
Achiral

>  <Prod_total_used>
68

>  <PSR (%)>
90

>  <Article>
4,5-Dimethyl-2-furaldehyde

>  <CAS>
52480-43-0

>  <Density>
1.016

>  <Prod_reagent_number>


>  <Stereocenters>
0

>  <Edel>


>  <NB_Name reaction - KI/BB – Capping>
01-RedAm_Amine_Aldehyde

$$$$
R-009807
Actelion Java MolfileCreator 2.0

  0  0  0  0  0  0              0 V3000
M  V30 BEGIN CTAB
M  V30 COUNTS 9 9 0 0 0
M  V30 BEGIN ATOM
M  V30 1 O 0.0 0.0 0.0 0
M  V30 2 C -0.7662 -1.2613 0.0 0
M  V30 3 C -2.2752 -1.2378 0.0 0
M  V30 4 O -3.1711 -2.4166 0.0 0
M  V30 5 C -3.1711 -0.0117 0.0 0
M  V30 6 C -4.6093 -1.9333 0.0 0
M  V30 7 C -4.6093 -0.4479 0.0 0
M  V30 8 C -5.8353 -2.7821 0.0 0
M  V30 9 C -7.2146 -2.1455 0.0 0
M  V30 END ATOM
M  V30 BEGIN BOND
M  V30 1 2 1 2
M  V30 2 1 2 3
M  V30 3 1 3 4
M  V30 4 2 3 5
M  V30 5 1 4 6
M  V30 6 1 5 7
M  V30 7 1 6 8
M  V30 8 1 8 9
M  V30 9 2 6 7
M  V30 END BOND
M  V30 END CTAB
M  END
>  <Dotmatics_CR>
R-009807

>  <CR_Set>
Aldehyde

>  <Category>
Aldehydes Aromatic

>  <Reaction type>
RedAm

>  <KI/BB_Nature>
Amine

>  <Comments>


>  <Salt>


>  <CR_Chiral_Form>
Achiral

>  <Prod_total_used>
35

>  <PSR (%)>
94

>  <Article>
5-Ethyl-2-furaldehyde

>  <CAS>
23074-10-4

>  <Density>
1.055

>  <Prod_reagent_number>


>  <Stereocenters>
0

>  <Edel>


>  <NB_Name reaction - KI/BB – Capping>
01-RedAm_Amine_Aldehyde

$$$$
R-003515
Actelion Java MolfileCreator 2.0

  0  0  0  0  0  0              0 V3000
M  V30 BEGIN CTAB
M  V30 COUNTS 9 9 0 0 0
M  V30 BEGIN ATOM
M  V30 1 O 0.0 0.0 0.0 0
M  V30 2 C -0.0236 -1.4911 0.0 0
M  V30 3 C 1.2781 -2.2248 0.0 0
M  V30 4 C 1.2426 -3.716 0.0 0
M  V30 5 C 2.5917 -1.4438 0.0 0
M  V30 6 C 2.5325 -4.4734 0.0 0
M  V30 7 C 3.8698 -2.2012 0.0 0
M  V30 8 O 2.497 -5.9645 0.0 0
M  V30 9 C 3.8343 -3.716 0.0 0
M  V30 END ATOM
M  V30 BEGIN BOND
M  V30 1 2 1 2
M  V30 2 1 2 3
M  V30 3 2 3 4
M  V30 4 1 3 5
M  V30 5 1 4 6
M  V30 6 2 5 7
M  V30 7 1 6 8
M  V30 8 2 6 9
M  V30 9 1 7 9
M  V30 END BOND
M  V30 END CTAB
M  END
>  <Dotmatics_CR>
R-003515

>  <CR_Set>
Aldehyde

>  <Category>
Aldehydes Aromatic

>  <Reaction type>
RedAm

>  <KI/BB_Nature>
Amine

>  <Comments>
acidic cdts for purification
OH

>  <Salt>


>  <CR_Chiral_Form>
Achiral

>  <Prod_total_used>
16

>  <PSR (%)>
69

>  <Article>
3-HYDROXYBENZALDEHYDE

>  <CAS>
100-83-4

>  <Density>
1

>  <Prod_reagent_number>


>  <Stereocenters>
0

>  <Edel>


>  <NB_Name reaction - KI/BB – Capping>
01-RedAm_Amine_Aldehyde

$$$$
R-009386
Actelion Java MolfileCreator 2.0

  0  0  0  0  0  0              0 V3000
M  V30 BEGIN CTAB
M  V30 COUNTS 9 9 0 0 0
M  V30 BEGIN ATOM
M  V30 1 O 0.0 0.0 0.0 0
M  V30 2 C -0.0233 -1.4716 0.0 0
M  V30 3 C -1.3431 -2.184 0.0 0
M  V30 4 C -2.6629 -1.4132 0.0 0
M  V30 5 C -1.3664 -3.6556 0.0 0
M  V30 6 C -3.9826 -2.1256 0.0 0
M  V30 7 C -2.6862 -4.3681 0.0 0
M  V30 8 C -4.006 -3.5972 0.0 0
M  V30 9 C -5.3024 -1.3548 0.0 0
M  V30 END ATOM
M  V30 BEGIN BOND
M  V30 1 2 1 2
M  V30 2 1 2 3
M  V30 3 2 3 4
M  V30 4 1 3 5
M  V30 5 1 4 6
M  V30 6 2 5 7
M  V30 7 2 6 8
M  V30 8 1 6 9
M  V30 9 1 7 8
M  V30 END BOND
M  V30 END CTAB
M  END
>  <Dotmatics_CR>
R-009386

>  <CR_Set>
Aldehyde

>  <Category>
Aldehydes Aromatic

>  <Reaction type>
RedAm

>  <KI/BB_Nature>
Amine

>  <Comments>


>  <Salt>


>  <CR_Chiral_Form>
Achiral

>  <Prod_total_used>
20

>  <PSR (%)>
70

>  <Article>
m-Tolualdehyde

>  <CAS>
620-23-5

>  <Density>
1.021

>  <Prod_reagent_number>


>  <Stereocenters>
0

>  <Edel>


>  <NB_Name reaction - KI/BB – Capping>
01-RedAm_Amine_Aldehyde

$$$$
R-004102
Actelion Java MolfileCreator 2.0

  0  0  0  0  0  0              0 V3000
M  V30 BEGIN CTAB
M  V30 COUNTS 9 9 0 0 0
M  V30 BEGIN ATOM
M  V30 1 O 0.0 0.0 0.0 0
M  V30 2 C 1.2862 -0.7264 0.0 0
M  V30 3 C 1.2624 -2.2152 0.0 0
M  V30 4 C 2.5606 -2.9536 0.0 0
M  V30 5 C -0.0714 -2.9536 0.0 0
M  V30 6 C 2.5367 -4.4542 0.0 0
M  V30 7 C 3.8468 -2.1675 0.0 0
M  V30 8 C -0.0952 -4.4542 0.0 0
M  V30 9 C 1.1909 -5.1807 0.0 0
M  V30 END ATOM
M  V30 BEGIN BOND
M  V30 1 2 1 2
M  V30 2 1 2 3
M  V30 3 2 3 4
M  V30 4 1 3 5
M  V30 5 1 4 6
M  V30 6 1 4 7
M  V30 7 2 5 8
M  V30 8 2 6 9
M  V30 9 1 8 9
M  V30 END BOND
M  V30 END CTAB
M  END
>  <Dotmatics_CR>
R-004102

>  <CR_Set>
Aldehyde

>  <Category>
Aldehydes Aromatic

>  <Reaction type>
RedAm

>  <KI/BB_Nature>
Amine

>  <Comments>


>  <Salt>


>  <CR_Chiral_Form>
Achiral

>  <Prod_total_used>
29

>  <PSR (%)>
69

>  <Article>
o-TOLUALDEHYDE

>  <CAS>
529-20-4

>  <Density>
1.035

>  <Prod_reagent_number>


>  <Stereocenters>
0

>  <Edel>


>  <NB_Name reaction - KI/BB – Capping>
01-RedAm_Amine_Aldehyde

$$$$
R-002893
Actelion Java MolfileCreator 2.0

  0  0  0  0  0  0              0 V3000
M  V30 BEGIN CTAB
M  V30 COUNTS 9 9 0 0 0
M  V30 BEGIN ATOM
M  V30 1 Cl 0.0 0.0 0.0 0
M  V30 2 C -0.0366 1.2477 0.0 0
M  V30 3 C -1.3823 2.0428 0.0 0
M  V30 4 C 1.2599 2.0428 0.0 0
M  V30 5 C -1.4067 3.6086 0.0 0
M  V30 6 C 1.2355 3.6086 0.0 0
M  V30 7 C -0.11 4.4038 0.0 0
M  V30 8 C -0.1223 5.7861 0.0 0
M  V30 9 O -1.4679 6.5935 0.0 0
M  V30 END ATOM
M  V30 BEGIN BOND
M  V30 1 1 1 2
M  V30 2 2 2 3
M  V30 3 1 2 4
M  V30 4 1 3 5
M  V30 5 2 4 6
M  V30 6 2 5 7
M  V30 7 1 7 8
M  V30 8 2 8 9
M  V30 9 1 6 7
M  V30 END BOND
M  V30 END CTAB
M  END
>  <Dotmatics_CR>
R-002893

>  <CR_Set>
Aldehyde

>  <Category>
Aldehydes Aromatic

>  <Reaction type>
RedAm

>  <KI/BB_Nature>
Amine

>  <Comments>


>  <Salt>


>  <CR_Chiral_Form>
Achiral

>  <Prod_total_used>
3

>  <PSR (%)>
67

>  <Article>
4-CHLORO BENZALDEHYDE

>  <CAS>
104-88-1

>  <Density>
1

>  <Prod_reagent_number>


>  <Stereocenters>
0

>  <Edel>


>  <NB_Name reaction - KI/BB – Capping>
01-RedAm_Amine_Aldehyde

$$$$
R-003481
Actelion Java MolfileCreator 2.0

  0  0  0  0  0  0              0 V3000
M  V30 BEGIN CTAB
M  V30 COUNTS 9 9 0 0 0
M  V30 BEGIN ATOM
M  V30 1 Cl 0.0 0.0 0.0 0
M  V30 2 C 1.1212 -0.9678 0.0 0
M  V30 3 C 2.5257 -0.4485 0.0 0
M  V30 4 C 0.8379 -2.4549 0.0 0
M  V30 5 C 3.6824 -1.3927 0.0 0
M  V30 6 C 1.9356 -3.3991 0.0 0
M  V30 7 C 3.3755 -2.8798 0.0 0
M  V30 8 C 5.0869 -0.8497 0.0 0
M  V30 9 O 6.2672 -1.794 0.0 0
M  V30 END ATOM
M  V30 BEGIN BOND
M  V30 1 1 1 2
M  V30 2 2 2 3
M  V30 3 1 2 4
M  V30 4 1 3 5
M  V30 5 2 4 6
M  V30 6 2 5 7
M  V30 7 1 5 8
M  V30 8 2 8 9
M  V30 9 1 6 7
M  V30 END BOND
M  V30 END CTAB
M  END
>  <Dotmatics_CR>
R-003481

>  <CR_Set>
Aldehyde

>  <Category>
Aldehydes Aromatic

>  <Reaction type>
RedAm

>  <KI/BB_Nature>
Amine

>  <Comments>


>  <Salt>


>  <CR_Chiral_Form>
Achiral

>  <Prod_total_used>
12

>  <PSR (%)>
83

>  <Article>
3-CHLOROBENZALDEHYDE

>  <CAS>
587-04-2

>  <Density>
1.241

>  <Prod_reagent_number>


>  <Stereocenters>
0

>  <Edel>


>  <NB_Name reaction - KI/BB – Capping>
01-RedAm_Amine_Aldehyde

$$$$
R-005840
Actelion Java MolfileCreator 2.0

  0  0  0  0  0  0              0 V3000
M  V30 BEGIN CTAB
M  V30 COUNTS 9 9 0 0 0
M  V30 BEGIN ATOM
M  V30 1 F 0.0 0.0 0.0 0
M  V30 2 C -0.0238 -1.5005 0.0 0
M  V30 3 C 1.2504 -2.1912 0.0 0
M  V30 4 C -1.3457 -2.2627 0.0 0
M  V30 5 C 1.2504 -3.6918 0.0 0
M  V30 6 C -1.3695 -3.7633 0.0 0
M  V30 7 C -0.0714 -4.4778 0.0 0
M  V30 8 C -0.0952 -5.9546 0.0 0
M  V30 9 O -1.4171 -6.7167 0.0 0
M  V30 END ATOM
M  V30 BEGIN BOND
M  V30 1 1 1 2
M  V30 2 2 2 3
M  V30 3 1 2 4
M  V30 4 1 3 5
M  V30 5 2 4 6
M  V30 6 2 5 7
M  V30 7 1 7 8
M  V30 8 2 8 9
M  V30 9 1 6 7
M  V30 END BOND
M  V30 END CTAB
M  END
>  <Dotmatics_CR>
R-005840

>  <CR_Set>
Aldehyde

>  <Category>
Aldehydes Aromatic

>  <Reaction type>
RedAm

>  <KI/BB_Nature>
Amine

>  <Comments>


>  <Salt>


>  <CR_Chiral_Form>
Achiral

>  <Prod_total_used>
44

>  <PSR (%)>
70

>  <Article>
4-FLUOROBENZALDEHYDE

>  <CAS>
459-57-4

>  <Density>
1.157

>  <Prod_reagent_number>


>  <Stereocenters>
0

>  <Edel>


>  <NB_Name reaction - KI/BB – Capping>
01-RedAm_Amine_Aldehyde

$$$$
R-003214
Actelion Java MolfileCreator 2.0

  0  0  0  0  0  0              0 V3000
M  V30 BEGIN CTAB
M  V30 COUNTS 9 9 0 0 0
M  V30 BEGIN ATOM
M  V30 1 F 0.0 0.0 0.0 0
M  V30 2 C 0.4295 1.4394 0.0 0
M  V30 3 C -0.5688 2.5538 0.0 0
M  V30 4 C 1.8689 1.7876 0.0 0
M  V30 5 C -0.1509 4.0048 0.0 0
M  V30 6 C -2.0546 2.252 0.0 0
M  V30 7 C 2.2984 3.2155 0.0 0
M  V30 8 C 1.2885 4.3415 0.0 0
M  V30 9 O -3.0646 3.378 0.0 0
M  V30 END ATOM
M  V30 BEGIN BOND
M  V30 1 1 1 2
M  V30 2 2 2 3
M  V30 3 1 2 4
M  V30 4 1 3 5
M  V30 5 1 3 6
M  V30 6 2 4 7
M  V30 7 2 5 8
M  V30 8 2 6 9
M  V30 9 1 7 8
M  V30 END BOND
M  V30 END CTAB
M  END
>  <Dotmatics_CR>
R-003214

>  <CR_Set>
Aldehyde

>  <Category>
Aldehydes Aromatic

>  <Reaction type>
RedAm

>  <KI/BB_Nature>
Amine

>  <Comments>


>  <Salt>


>  <CR_Chiral_Form>
Achiral

>  <Prod_total_used>
58

>  <PSR (%)>
91

>  <Article>
2-FLUOROBENZALDEHYDE

>  <CAS>
446-52-6

>  <Density>
1.178

>  <Prod_reagent_number>


>  <Stereocenters>
0

>  <Edel>


>  <NB_Name reaction - KI/BB – Capping>
01-RedAm_Amine_Aldehyde

$$$$
R-009777
Actelion Java MolfileCreator 2.0

  0  0  0  0  0  0              0 V3000
M  V30 BEGIN CTAB
M  V30 COUNTS 9 9 0 0 0
M  V30 BEGIN ATOM
M  V30 1 F 0.0 0.0 0.0 0
M  V30 2 C -1.3128 -0.7214 0.0 0
M  V30 3 C -2.6256 0.0473 0.0 0
M  V30 4 C -1.3365 -2.188 0.0 0
M  V30 5 C -3.9385 -0.6741 0.0 0
M  V30 6 C -2.6493 -2.9095 0.0 0
M  V30 7 C -3.9622 -2.1407 0.0 0
M  V30 8 C -5.2513 0.0827 0.0 0
M  V30 9 O -5.275 1.5967 0.0 0
M  V30 END ATOM
M  V30 BEGIN BOND
M  V30 1 1 1 2
M  V30 2 2 2 3
M  V30 3 1 2 4
M  V30 4 1 3 5
M  V30 5 2 4 6
M  V30 6 2 5 7
M  V30 7 1 5 8
M  V30 8 2 8 9
M  V30 9 1 6 7
M  V30 END BOND
M  V30 END CTAB
M  END
>  <Dotmatics_CR>
R-009777

>  <CR_Set>
Aldehyde

>  <Category>
Aldehydes Aromatic

>  <Reaction type>
RedAm

>  <KI/BB_Nature>
Amine

>  <Comments>


>  <Salt>


>  <CR_Chiral_Form>
Achiral

>  <Prod_total_used>
53

>  <PSR (%)>
77

>  <Article>
3-Fluorobenzaldehyde

>  <CAS>
456-48-4

>  <Density>
1.17

>  <Prod_reagent_number>


>  <Stereocenters>
0

>  <Edel>


>  <NB_Name reaction - KI/BB – Capping>
01-RedAm_Amine_Aldehyde

$$$$
R-002413
Actelion Java MolfileCreator 2.0

  0  0  0  0  0  0              0 V3000
M  V30 BEGIN CTAB
M  V30 COUNTS 9 9 0 0 0
M  V30 BEGIN ATOM
M  V30 1 Br 0.0 0.0 0.0 0
M  V30 2 C 1.2884 -0.7345 0.0 0
M  V30 3 C 2.5768 0.0481 0.0 0
M  V30 4 C 1.2643 -2.2276 0.0 0
M  V30 5 C 3.8652 -0.6863 0.0 0
M  V30 6 C 2.5527 -2.9621 0.0 0
M  V30 7 C 3.8411 -2.1794 0.0 0
M  V30 8 C 5.1537 0.0963 0.0 0
M  V30 9 O 5.1296 1.6376 0.0 0
M  V30 END ATOM
M  V30 BEGIN BOND
M  V30 1 1 1 2
M  V30 2 2 2 3
M  V30 3 1 2 4
M  V30 4 1 3 5
M  V30 5 2 4 6
M  V30 6 2 5 7
M  V30 7 1 5 8
M  V30 8 2 8 9
M  V30 9 1 6 7
M  V30 END BOND
M  V30 END CTAB
M  END
>  <Dotmatics_CR>
R-002413

>  <CR_Set>
Aldehyde

>  <Category>
Aldehydes Aromatic

>  <Reaction type>
RedAm

>  <KI/BB_Nature>
Amine

>  <Comments>


>  <Salt>


>  <CR_Chiral_Form>
Achiral

>  <Prod_total_used>
8

>  <PSR (%)>
75

>  <Article>
3-Bromobenzaldehyde

>  <CAS>
3132-99-8

>  <Density>
1.587

>  <Prod_reagent_number>


>  <Stereocenters>
0

>  <Edel>


>  <NB_Name reaction - KI/BB – Capping>
01-RedAm_Amine_Aldehyde

$$$$
R-000939
Actelion Java MolfileCreator 2.0

  0  0  0  0  0  0              0 V3000
M  V30 BEGIN CTAB
M  V30 COUNTS 9 9 0 0 0
M  V30 BEGIN ATOM
M  V30 1 O 0.0 0.0 0.0 0
M  V30 2 C -0.7662 -1.2613 0.0 0
M  V30 3 C -2.2752 -1.2378 0.0 0
M  V30 4 O -3.1711 -2.4166 0.0 0
M  V30 5 C -3.1711 -0.0117 0.0 0
M  V30 6 C -4.6093 -1.9333 0.0 0
M  V30 7 C -4.6093 -0.4479 0.0 0
M  V30 8 C -5.8353 -2.7821 0.0 0
M  V30 9 O -7.2146 -2.1455 0.0 0
M  V30 END ATOM
M  V30 BEGIN BOND
M  V30 1 2 1 2
M  V30 2 1 2 3
M  V30 3 1 3 4
M  V30 4 2 3 5
M  V30 5 1 4 6
M  V30 6 1 5 7
M  V30 7 1 6 8
M  V30 8 1 8 9
M  V30 9 2 6 7
M  V30 END BOND
M  V30 END CTAB
M  END
>  <Dotmatics_CR>
R-000939

>  <CR_Set>
Aldehyde

>  <Category>
Aldehydes Aromatic

>  <Reaction type>
RedAm

>  <KI/BB_Nature>
Amine

>  <Comments>
OH

>  <Salt>


>  <CR_Chiral_Form>
Achiral

>  <Prod_total_used>
92

>  <PSR (%)>
89

>  <Article>
5-(Hydroxymethyl)furfural

>  <CAS>
67-47-0

>  <Density>
1

>  <Prod_reagent_number>


>  <Stereocenters>
0

>  <Edel>


>  <NB_Name reaction - KI/BB – Capping>
01-RedAm_Amine_Aldehyde

$$$$
R-011941
Actelion Java MolfileCreator 2.0

  0  0  0  0  0  0              0 V3000
M  V30 BEGIN CTAB
M  V30 COUNTS 9 9 0 0 0
M  V30 BEGIN ATOM
M  V30 1 O 0.0 0.0 0.0 0
M  V30 2 C 1.0841 0.6604 0.0 0
M  V30 3 C 2.4424 -0.0996 0.0 0
M  V30 4 C 3.8007 0.7227 0.0 0
M  V30 5 C 2.4175 -1.6698 0.0 0
M  V30 6 N 5.1591 -0.0373 0.0 0
M  V30 7 N 3.7758 -2.43 0.0 0
M  V30 8 C 5.1341 -1.6075 0.0 0
M  V30 9 C 6.2183 -2.2181 0.0 0
M  V30 END ATOM
M  V30 BEGIN BOND
M  V30 1 2 1 2
M  V30 2 1 2 3
M  V30 3 2 3 4
M  V30 4 1 3 5
M  V30 5 1 4 6
M  V30 6 2 5 7
M  V30 7 2 6 8
M  V30 8 1 8 9
M  V30 9 1 7 8
M  V30 END BOND
M  V30 END CTAB
M  END
>  <Dotmatics_CR>
R-011941

>  <CR_Set>
Aldehyde

>  <Category>
Aldehydes Aromatic

>  <Reaction type>
RedAm

>  <KI/BB_Nature>
Amine

>  <Comments>


>  <Salt>


>  <CR_Chiral_Form>
Achiral

>  <Prod_total_used>
66

>  <PSR (%)>
80

>  <Article>
2-methylpyrimidine-5-carbaldehyde

>  <CAS>
90905-33-2

>  <Density>
1

>  <Prod_reagent_number>


>  <Stereocenters>
0

>  <Edel>


>  <NB_Name reaction - KI/BB – Capping>
01-RedAm_Amine_Aldehyde

$$$$
R-009804
Actelion Java MolfileCreator 2.0

  0  0  0  0  0  0              0 V3000
M  V30 BEGIN CTAB
M  V30 COUNTS 9 9 0 0 0
M  V30 BEGIN ATOM
M  V30 1 O 0.0 0.0 0.0 0
M  V30 2 C 1.2943 0.7599 0.0 0
M  V30 3 C 2.5886 0.0118 0.0 0
M  V30 4 C 3.8829 0.7718 0.0 0
M  V30 5 C 2.5767 -1.4842 0.0 0
M  V30 6 N 5.1772 0.0237 0.0 0
M  V30 7 N 3.871 2.2917 0.0 0
M  V30 8 C 3.871 -2.2323 0.0 0
M  V30 9 C 5.1653 -1.4724 0.0 0
M  V30 END ATOM
M  V30 BEGIN BOND
M  V30 1 2 1 2
M  V30 2 1 2 3
M  V30 3 2 3 4
M  V30 4 1 3 5
M  V30 5 1 4 6
M  V30 6 1 4 7
M  V30 7 2 5 8
M  V30 8 2 6 9
M  V30 9 1 8 9
M  V30 END BOND
M  V30 END CTAB
M  END
>  <Dotmatics_CR>
R-009804

>  <CR_Set>
Aldehyde

>  <Category>
Aldehydes Aromatic

>  <Reaction type>
RedAm

>  <KI/BB_Nature>
Amine

>  <Comments>
NH2

>  <Salt>


>  <CR_Chiral_Form>
Achiral

>  <Prod_total_used>
54

>  <PSR (%)>
76

>  <Article>
2-Amino-3-pyridinecarboxaldehyde, 

>  <CAS>
7521-41-7

>  <Density>
1

>  <Prod_reagent_number>


>  <Stereocenters>
0

>  <Edel>


>  <NB_Name reaction - KI/BB – Capping>
01-RedAm_Amine_Aldehyde

$$$$
R-009262
Actelion Java MolfileCreator 2.0

  0  0  0  0  0  0              0 V3000
M  V30 BEGIN CTAB
M  V30 COUNTS 9 9 0 0 0
M  V30 BEGIN ATOM
M  V30 1 O 0.0 0.0 0.0 0
M  V30 2 C -1.4686 0.3289 0.0 0
M  V30 3 C -1.9504 1.7624 0.0 0
M  V30 4 C -3.3838 2.2441 0.0 0
M  V30 5 C -1.1044 2.9843 0.0 0
M  V30 6 N -3.4073 3.7481 0.0 0
M  V30 7 C -4.6058 1.3981 0.0 0
M  V30 8 N -1.9974 4.2063 0.0 0
M  V30 9 C -1.5626 5.6397 0.0 0
M  V30 END ATOM
M  V30 BEGIN BOND
M  V30 1 2 1 2
M  V30 2 1 2 3
M  V30 3 1 3 4
M  V30 4 2 3 5
M  V30 5 2 4 6
M  V30 6 1 4 7
M  V30 7 1 5 8
M  V30 8 1 8 9
M  V30 9 1 6 8
M  V30 END BOND
M  V30 END CTAB
M  END
>  <Dotmatics_CR>
R-009262

>  <CR_Set>
Aldehyde

>  <Category>
Aldehydes Aromatic

>  <Reaction type>
RedAm

>  <KI/BB_Nature>
Amine

>  <Comments>


>  <Salt>


>  <CR_Chiral_Form>
Achiral

>  <Prod_total_used>
123

>  <PSR (%)>
87

>  <Article>
1,3-Dimethyl-1H-pyrazole-4-carbaldehyde

>  <CAS>
25016-12-0

>  <Density>
1

>  <Prod_reagent_number>


>  <Stereocenters>
0

>  <Edel>


>  <NB_Name reaction - KI/BB – Capping>
01-RedAm_Amine_Aldehyde

$$$$
R-011808
Actelion Java MolfileCreator 2.0

  0  0  0  0  0  0              0 V3000
M  V30 BEGIN CTAB
M  V30 COUNTS 9 9 0 0 0
M  V30 BEGIN ATOM
M  V30 1 O 0.0 0.0 0.0 0
M  V30 2 C 1.0841 0.6604 0.0 0
M  V30 3 C 2.4424 -0.0996 0.0 0
M  V30 4 N 3.8007 0.7227 0.0 0
M  V30 5 C 2.4175 -1.6698 0.0 0
M  V30 6 C 5.1591 -0.0373 0.0 0
M  V30 7 N 3.7758 -2.43 0.0 0
M  V30 8 C 5.1341 -1.6075 0.0 0
M  V30 9 C 6.2183 -2.2181 0.0 0
M  V30 END ATOM
M  V30 BEGIN BOND
M  V30 1 2 1 2
M  V30 2 1 2 3
M  V30 3 2 3 4
M  V30 4 1 3 5
M  V30 5 1 4 6
M  V30 6 2 5 7
M  V30 7 2 6 8
M  V30 8 1 8 9
M  V30 9 1 7 8
M  V30 END BOND
M  V30 END CTAB
M  END
>  <Dotmatics_CR>
R-011808

>  <CR_Set>
Aldehyde

>  <Category>
Aldehydes Aromatic

>  <Reaction type>
RedAm

>  <KI/BB_Nature>
Amine

>  <Comments>


>  <Salt>


>  <CR_Chiral_Form>
Achiral

>  <Prod_total_used>
85

>  <PSR (%)>
84

>  <Article>
5-methylpyrazine-2-carbaldehyde

>  <CAS>
50866-30-3

>  <Density>
1

>  <Prod_reagent_number>


>  <Stereocenters>
0

>  <Edel>


>  <NB_Name reaction - KI/BB – Capping>
01-RedAm_Amine_Aldehyde

$$$$
R-011815
Actelion Java MolfileCreator 2.0

  0  0  0  0  0  0              0 V3000
M  V30 BEGIN CTAB
M  V30 COUNTS 9 9 0 0 0
M  V30 BEGIN ATOM
M  V30 1 O 0.0 0.0 0.0 0
M  V30 2 C 0.9166 0.8794 0.0 0
M  V30 3 C 2.4031 0.4211 0.0 0
M  V30 4 N 2.8614 -1.0653 0.0 0
M  V30 5 C 3.6666 1.3873 0.0 0
M  V30 6 N 4.4222 -1.0405 0.0 0
M  V30 7 C 4.9301 0.4707 0.0 0
M  V30 8 C 5.3265 -2.304 0.0 0
M  V30 9 C 4.7938 -3.4436 0.0 0
M  V30 END ATOM
M  V30 BEGIN BOND
M  V30 1 2 1 2
M  V30 2 1 2 3
M  V30 3 2 3 4
M  V30 4 1 3 5
M  V30 5 1 4 6
M  V30 6 2 5 7
M  V30 7 1 6 8
M  V30 8 1 8 9
M  V30 9 1 6 7
M  V30 END BOND
M  V30 END CTAB
M  END
>  <Dotmatics_CR>
R-011815

>  <CR_Set>
Aldehyde

>  <Category>
Aldehydes Aromatic

>  <Reaction type>
RedAm

>  <KI/BB_Nature>
Amine

>  <Comments>


>  <Salt>


>  <CR_Chiral_Form>
Achiral

>  <Prod_total_used>
47

>  <PSR (%)>
94

>  <Article>
1-ethylpyrazole-3-carbaldehyde

>  <CAS>
942319-16-6

>  <Density>
1.10

>  <Prod_reagent_number>


>  <Stereocenters>
0

>  <Edel>


>  <NB_Name reaction - KI/BB – Capping>
01-RedAm_Amine_Aldehyde

$$$$
R-006316
Actelion Java MolfileCreator 2.0

  0  0  0  0  0  0              0 V3000
M  V30 BEGIN CTAB
M  V30 COUNTS 9 9 0 0 0
M  V30 BEGIN ATOM
M  V30 1 O 0.0 0.0 0.0 0
M  V30 2 C -0.024 -1.4931 0.0 0
M  V30 3 C 1.2643 -2.2277 0.0 0
M  V30 4 N 2.4685 -1.3125 0.0 0
M  V30 5 C 1.7099 -3.6486 0.0 0
M  V30 6 N 3.6727 -2.1795 0.0 0
M  V30 7 C 2.4444 0.2287 0.0 0
M  V30 8 C 3.203 -3.6245 0.0 0
M  V30 9 C 4.07 -4.8287 0.0 0
M  V30 END ATOM
M  V30 BEGIN BOND
M  V30 1 2 1 2
M  V30 2 1 2 3
M  V30 3 1 3 4
M  V30 4 2 3 5
M  V30 5 1 4 6
M  V30 6 1 4 7
M  V30 7 1 5 8
M  V30 8 1 8 9
M  V30 9 2 6 8
M  V30 END BOND
M  V30 END CTAB
M  END
>  <Dotmatics_CR>
R-006316

>  <CR_Set>
Aldehyde

>  <Category>
Aldehydes Aromatic

>  <Reaction type>
RedAm

>  <KI/BB_Nature>
Amine

>  <Comments>


>  <Salt>


>  <CR_Chiral_Form>
Achiral

>  <Prod_total_used>
59

>  <PSR (%)>
88

>  <Article>
1,3-DIMETHYL-1H-PYRAZOLE-5-CARBALDEHYDE

>  <CAS>
25016-09-5

>  <Density>
1.11

>  <Prod_reagent_number>


>  <Stereocenters>
0

>  <Edel>


>  <NB_Name reaction - KI/BB – Capping>
01-RedAm_Amine_Aldehyde

$$$$
R-011991
Actelion Java MolfileCreator 2.0

  0  0  0  0  0  0              0 V3000
M  V30 BEGIN CTAB
M  V30 COUNTS 9 9 0 0 0
M  V30 BEGIN ATOM
M  V30 1 O 0.0 0.0 0.0 0
M  V30 2 C -0.0249 1.2874 0.0 0
M  V30 3 C 1.3124 2.0998 0.0 0
M  V30 4 N 2.6498 1.3249 0.0 0
M  V30 5 C 1.2874 3.6997 0.0 0
M  V30 6 C 3.9872 2.1373 0.0 0
M  V30 7 C 2.6248 4.5121 0.0 0
M  V30 8 N 3.9622 3.7372 0.0 0
M  V30 9 C 5.0496 1.5248 0.0 0
M  V30 END ATOM
M  V30 BEGIN BOND
M  V30 1 2 1 2
M  V30 2 1 2 3
M  V30 3 2 3 4
M  V30 4 1 3 5
M  V30 5 1 4 6
M  V30 6 2 5 7
M  V30 7 2 6 8
M  V30 8 1 6 9
M  V30 9 1 7 8
M  V30 END BOND
M  V30 END CTAB
M  END
>  <Dotmatics_CR>
R-011991

>  <CR_Set>
Aldehyde

>  <Category>
Aldehydes Aromatic

>  <Reaction type>
RedAm

>  <KI/BB_Nature>
Amine

>  <Comments>


>  <Salt>


>  <CR_Chiral_Form>
Achiral

>  <Prod_total_used>
18

>  <PSR (%)>
67

>  <Article>
2-methylpyrimidine-4-carbaldehyde

>  <CAS>
1004-17-7

>  <Density>
1

>  <Prod_reagent_number>


>  <Stereocenters>
0

>  <Edel>


>  <NB_Name reaction - KI/BB – Capping>
01-RedAm_Amine_Aldehyde

$$$$
R-011309
Actelion Java MolfileCreator 2.0

  0  0  0  0  0  0              0 V3000
M  V30 BEGIN CTAB
M  V30 COUNTS 9 9 0 0 0
M  V30 BEGIN ATOM
M  V30 1 Br 0.0 0.0 0.0 0
M  V30 2 C 1.1972 0.9098 0.0 0
M  V30 3 C 2.6099 0.4669 0.0 0
M  V30 4 C 1.1732 2.4423 0.0 0
M  V30 5 N 3.4719 1.712 0.0 0
M  V30 6 C 3.0529 -0.9458 0.0 0
M  V30 7 N 2.586 2.9332 0.0 0
M  V30 8 C 4.9565 1.7359 0.0 0
M  V30 9 O 2.0233 -2.0352 0.0 0
M  V30 END ATOM
M  V30 BEGIN BOND
M  V30 1 1 1 2
M  V30 2 2 2 3
M  V30 3 1 2 4
M  V30 4 1 3 5
M  V30 5 1 3 6
M  V30 6 2 4 7
M  V30 7 1 5 8
M  V30 8 2 6 9
M  V30 9 1 5 7
M  V30 END BOND
M  V30 END CTAB
M  END
>  <Dotmatics_CR>
R-011309

>  <CR_Set>
Aldehyde

>  <Category>
Aldehydes Aromatic

>  <Reaction type>
RedAm

>  <KI/BB_Nature>
Amine

>  <Comments>


>  <Salt>


>  <CR_Chiral_Form>
Achiral

>  <Prod_total_used>
22

>  <PSR (%)>
77

>  <Article>
4-Bromo-1-methyl-1H-pyrazole-5-carbaldehyde

>  <CAS>
473528-88-0

>  <Density>
1

>  <Prod_reagent_number>


>  <Stereocenters>
0

>  <Edel>


>  <NB_Name reaction - KI/BB – Capping>
01-RedAm_Amine_Aldehyde

$$$$
R-008537
Actelion Java MolfileCreator 2.0

  0  0  0  0  0  0              0 V3000
M  V30 BEGIN CTAB
M  V30 COUNTS 9 9 0 0 0
M  V30 BEGIN ATOM
M  V30 1 O 0.0 0.0 0.0 0
M  V30 2 C 1.3608 -0.5865 0.0 0
M  V30 3 C 1.4898 -2.0647 0.0 0
M  V30 4 C 2.7803 -2.792 0.0 0
M  V30 5 C 0.3402 -3.0501 0.0 0
M  V30 6 O 2.4401 -4.2467 0.0 0
M  V30 7 C 4.1411 -2.1585 0.0 0
M  V30 8 N 0.9267 -4.411 0.0 0
M  V30 9 C -1.1614 -2.7099 0.0 0
M  V30 END ATOM
M  V30 BEGIN BOND
M  V30 1 2 1 2
M  V30 2 1 2 3
M  V30 3 2 3 4
M  V30 4 1 3 5
M  V30 5 1 4 6
M  V30 6 1 4 7
M  V30 7 2 5 8
M  V30 8 1 5 9
M  V30 9 1 6 8
M  V30 END BOND
M  V30 END CTAB
M  END
>  <Dotmatics_CR>
R-008537

>  <CR_Set>
Aldehyde

>  <Category>
Aldehydes Aromatic

>  <Reaction type>
RedAm

>  <KI/BB_Nature>
Amine

>  <Comments>


>  <Salt>


>  <CR_Chiral_Form>
Achiral

>  <Prod_total_used>
174

>  <PSR (%)>
82

>  <Article>
3.5-Dimethyl-4-isoxazolecarboxaldehyde

>  <CAS>
54593-26-9

>  <Density>
1

>  <Prod_reagent_number>


>  <Stereocenters>
0

>  <Edel>


>  <NB_Name reaction - KI/BB – Capping>
01-RedAm_Amine_Aldehyde

$$$$
R-011938
Actelion Java MolfileCreator 2.0

  0  0  0  0  0  0              0 V3000
M  V30 BEGIN CTAB
M  V30 COUNTS 9 9 0 0 0
M  V30 BEGIN ATOM
M  V30 1 O 0.0 0.0 0.0 0
M  V30 2 C -0.0249 1.2874 0.0 0
M  V30 3 C 1.3124 2.0998 0.0 0
M  V30 4 C 1.2874 3.6997 0.0 0
M  V30 5 C 2.6498 1.3249 0.0 0
M  V30 6 N 2.6248 4.5121 0.0 0
M  V30 7 C 3.9872 2.1373 0.0 0
M  V30 8 C 3.9622 3.7372 0.0 0
M  V30 9 C 5.0496 1.5248 0.0 0
M  V30 END ATOM
M  V30 BEGIN BOND
M  V30 1 2 1 2
M  V30 2 1 2 3
M  V30 3 2 3 4
M  V30 4 1 3 5
M  V30 5 1 4 6
M  V30 6 2 5 7
M  V30 7 2 6 8
M  V30 8 1 7 9
M  V30 9 1 7 8
M  V30 END BOND
M  V30 END CTAB
M  END
>  <Dotmatics_CR>
R-011938

>  <CR_Set>
Aldehyde

>  <Category>
Aldehydes Aromatic

>  <Reaction type>
RedAm

>  <KI/BB_Nature>
Amine

>  <Comments>


>  <Salt>


>  <CR_Chiral_Form>
Achiral

>  <Prod_total_used>
29

>  <PSR (%)>
83

>  <Article>
5-methylpyridine-3-carbaldehyde

>  <CAS>
100910-66-5

>  <Density>
1

>  <Prod_reagent_number>


>  <Stereocenters>
0

>  <Edel>


>  <NB_Name reaction - KI/BB – Capping>
01-RedAm_Amine_Aldehyde

$$$$
R-010386
Actelion Java MolfileCreator 2.0

  0  0  0  0  0  0              0 V3000
M  V30 BEGIN CTAB
M  V30 COUNTS 9 9 0 0 0
M  V30 BEGIN ATOM
M  V30 1 O 0.0 0.0 0.0 0
M  V30 2 C -1.306 0.7648 0.0 0
M  V30 3 C -1.3296 2.2709 0.0 0
M  V30 4 C -0.0705 3.0239 0.0 0
M  V30 5 C -2.6356 3.0239 0.0 0
M  V30 6 N -0.0941 4.53 0.0 0
M  V30 7 C -2.6592 4.53 0.0 0
M  V30 8 C -1.4002 5.2949 0.0 0
M  V30 9 C -1.4237 6.801 0.0 0
M  V30 END ATOM
M  V30 BEGIN BOND
M  V30 1 2 1 2
M  V30 2 1 2 3
M  V30 3 2 3 4
M  V30 4 1 3 5
M  V30 5 1 4 6
M  V30 6 2 5 7
M  V30 7 2 6 8
M  V30 8 1 8 9
M  V30 9 1 7 8
M  V30 END BOND
M  V30 END CTAB
M  END
>  <Dotmatics_CR>
R-010386

>  <CR_Set>
Aldehyde

>  <Category>
Aldehydes Aromatic

>  <Reaction type>
RedAm

>  <KI/BB_Nature>
Amine

>  <Comments>


>  <Salt>


>  <CR_Chiral_Form>
Achiral

>  <Prod_total_used>
44

>  <PSR (%)>
73

>  <Article>
6-Methylpyridine-3-carboxaldehyde

>  <CAS>
53014-84-9

>  <Density>
1.084

>  <Prod_reagent_number>


>  <Stereocenters>
0

>  <Edel>


>  <NB_Name reaction - KI/BB – Capping>
01-RedAm_Amine_Aldehyde

$$$$
R-011955
Actelion Java MolfileCreator 2.0

  0  0  0  0  0  0              0 V3000
M  V30 BEGIN CTAB
M  V30 COUNTS 9 9 0 0 0
M  V30 BEGIN ATOM
M  V30 1 O 0.0 0.0 0.0 0
M  V30 2 C 1.0527 0.6564 0.0 0
M  V30 3 C 1.0279 2.2417 0.0 0
M  V30 4 C 2.3532 3.0468 0.0 0
M  V30 5 C -0.3467 3.0468 0.0 0
M  V30 6 N 2.3284 4.6321 0.0 0
M  V30 7 C 3.406 2.4399 0.0 0
M  V30 8 C -0.3715 4.6321 0.0 0
M  V30 9 C 0.9536 5.4372 0.0 0
M  V30 END ATOM
M  V30 BEGIN BOND
M  V30 1 2 1 2
M  V30 2 1 2 3
M  V30 3 2 3 4
M  V30 4 1 3 5
M  V30 5 1 4 6
M  V30 6 1 4 7
M  V30 7 2 5 8
M  V30 8 2 6 9
M  V30 9 1 8 9
M  V30 END BOND
M  V30 END CTAB
M  END
>  <Dotmatics_CR>
R-011955

>  <CR_Set>
Aldehyde

>  <Category>
Aldehydes Aromatic

>  <Reaction type>
RedAm

>  <KI/BB_Nature>
Amine

>  <Comments>


>  <Salt>


>  <CR_Chiral_Form>
Achiral

>  <Prod_total_used>
29

>  <PSR (%)>
86

>  <Article>
2-methylpyridine-3-carbaldehyde

>  <CAS>
60032-57-7

>  <Density>
1.106

>  <Prod_reagent_number>


>  <Stereocenters>
0

>  <Edel>


>  <NB_Name reaction - KI/BB – Capping>
01-RedAm_Amine_Aldehyde

$$$$
R-011946
Actelion Java MolfileCreator 2.0

  0  0  0  0  0  0              0 V3000
M  V30 BEGIN CTAB
M  V30 COUNTS 9 9 0 0 0
M  V30 BEGIN ATOM
M  V30 1 O 0.0 0.0 0.0 0
M  V30 2 C -0.0249 1.2874 0.0 0
M  V30 3 C 1.3124 2.0998 0.0 0
M  V30 4 N 1.2874 3.6997 0.0 0
M  V30 5 C 2.6498 1.3249 0.0 0
M  V30 6 C 2.6248 4.5121 0.0 0
M  V30 7 C 3.9872 2.1373 0.0 0
M  V30 8 C 3.9622 3.7372 0.0 0
M  V30 9 C 5.0496 1.5248 0.0 0
M  V30 END ATOM
M  V30 BEGIN BOND
M  V30 1 2 1 2
M  V30 2 1 2 3
M  V30 3 2 3 4
M  V30 4 1 3 5
M  V30 5 1 4 6
M  V30 6 2 5 7
M  V30 7 2 6 8
M  V30 8 1 7 9
M  V30 9 1 7 8
M  V30 END BOND
M  V30 END CTAB
M  END
>  <Dotmatics_CR>
R-011946

>  <CR_Set>
Aldehyde

>  <Category>
Aldehydes Aromatic

>  <Reaction type>
RedAm

>  <KI/BB_Nature>
Amine

>  <Comments>


>  <Salt>


>  <CR_Chiral_Form>
Achiral

>  <Prod_total_used>
5

>  <PSR (%)>
100

>  <Article>
4-methylpyridine-2-carbaldehyde

>  <CAS>
53547-60-7

>  <Density>
1.082

>  <Prod_reagent_number>


>  <Stereocenters>
0

>  <Edel>


>  <NB_Name reaction - KI/BB – Capping>
01-RedAm_Amine_Aldehyde

$$$$
R-002421
Actelion Java MolfileCreator 2.0

  0  0  0  0  0  0              0 V3000
M  V30 BEGIN CTAB
M  V30 COUNTS 9 9 0 0 0
M  V30 BEGIN ATOM
M  V30 1 O 0.0 0.0 0.0 0
M  V30 2 C 1.2619 0.8609 0.0 0
M  V30 3 C 2.5947 0.2005 0.0 0
M  V30 4 N 3.8213 1.0614 0.0 0
M  V30 5 C 2.6537 -1.2855 0.0 0
M  V30 6 C 5.1659 0.401 0.0 0
M  V30 7 C 3.9629 -1.946 0.0 0
M  V30 8 C 5.2248 -1.0732 0.0 0
M  V30 9 C 6.4161 1.2737 0.0 0
M  V30 END ATOM
M  V30 BEGIN BOND
M  V30 1 2 1 2
M  V30 2 1 2 3
M  V30 3 2 3 4
M  V30 4 1 3 5
M  V30 5 1 4 6
M  V30 6 2 5 7
M  V30 7 2 6 8
M  V30 8 1 6 9
M  V30 9 1 7 8
M  V30 END BOND
M  V30 END CTAB
M  END
>  <Dotmatics_CR>
R-002421

>  <CR_Set>
Aldehyde

>  <Category>
Aldehydes Aromatic

>  <Reaction type>
RedAm

>  <KI/BB_Nature>
Amine

>  <Comments>


>  <Salt>


>  <CR_Chiral_Form>
Achiral

>  <Prod_total_used>
123

>  <PSR (%)>
85

>  <Article>
6-METHYL-2-PYRIDINE-CARBOXALDEHYDE

>  <CAS>
1122-72-1

>  <Density>
1

>  <Prod_reagent_number>


>  <Stereocenters>
0

>  <Edel>


>  <NB_Name reaction - KI/BB – Capping>
01-RedAm_Amine_Aldehyde

$$$$
R-009805
Actelion Java MolfileCreator 2.0

  0  0  0  0  0  0              0 V3000
M  V30 BEGIN CTAB
M  V30 COUNTS 9 9 0 0 0
M  V30 BEGIN ATOM
M  V30 1 O 0.0 0.0 0.0 0
M  V30 2 C -1.3035 -0.7163 0.0 0
M  V30 3 C -2.6071 0.0469 0.0 0
M  V30 4 N -3.9106 -0.6693 0.0 0
M  V30 5 C -2.6306 1.5501 0.0 0
M  V30 6 C -5.2142 0.0939 0.0 0
M  V30 7 C -3.9341 2.3017 0.0 0
M  V30 8 C -5.2377 1.5971 0.0 0
M  V30 9 C -6.5412 2.3604 0.0 0
M  V30 END ATOM
M  V30 BEGIN BOND
M  V30 1 2 1 2
M  V30 2 1 2 3
M  V30 3 2 3 4
M  V30 4 1 3 5
M  V30 5 1 4 6
M  V30 6 2 5 7
M  V30 7 2 6 8
M  V30 8 1 8 9
M  V30 9 1 7 8
M  V30 END BOND
M  V30 END CTAB
M  END
>  <Dotmatics_CR>
R-009805

>  <CR_Set>
Aldehyde

>  <Category>
Aldehydes Aromatic

>  <Reaction type>
RedAm

>  <KI/BB_Nature>
Amine

>  <Comments>


>  <Salt>


>  <CR_Chiral_Form>
Achiral

>  <Prod_total_used>
61

>  <PSR (%)>
90

>  <Article>
5-Methyl-2-pyridinecarboxaldehyde

>  <CAS>
4985-92-6

>  <Density>
1

>  <Prod_reagent_number>


>  <Stereocenters>
0

>  <Edel>


>  <NB_Name reaction - KI/BB – Capping>
01-RedAm_Amine_Aldehyde

$$$$
R-012068
Actelion Java MolfileCreator 2.0

  0  0  0  0  0  0              0 V3000
M  V30 BEGIN CTAB
M  V30 COUNTS 9 9 0 0 0
M  V30 BEGIN ATOM
M  V30 1 O 0.0 0.0 0.0 0
M  V30 2 C 1.0527 0.6564 0.0 0
M  V30 3 C 1.0279 2.2417 0.0 0
M  V30 4 N -0.3467 3.0468 0.0 0
M  V30 5 C 2.3532 3.0468 0.0 0
M  V30 6 C -0.3715 4.6321 0.0 0
M  V30 7 C 2.3284 4.6321 0.0 0
M  V30 8 C 3.406 2.4399 0.0 0
M  V30 9 C 0.9536 5.4372 0.0 0
M  V30 END ATOM
M  V30 BEGIN BOND
M  V30 1 2 1 2
M  V30 2 1 2 3
M  V30 3 2 3 4
M  V30 4 1 3 5
M  V30 5 1 4 6
M  V30 6 2 5 7
M  V30 7 1 5 8
M  V30 8 2 6 9
M  V30 9 1 7 9
M  V30 END BOND
M  V30 END CTAB
M  END
>  <Dotmatics_CR>
R-012068

>  <CR_Set>
Aldehyde

>  <Category>
Aldehydes Aromatic

>  <Reaction type>
RedAm

>  <KI/BB_Nature>
Amine

>  <Comments>


>  <Salt>


>  <CR_Chiral_Form>
Achiral

>  <Prod_total_used>
30

>  <PSR (%)>
90

>  <Article>
3-methylpyridine-2-carbaldehyde

>  <CAS>
55589-47-4

>  <Density>
1.08

>  <Prod_reagent_number>


>  <Stereocenters>
0

>  <Edel>


>  <NB_Name reaction - KI/BB – Capping>
01-RedAm_Amine_Aldehyde

$$$$
R-012001
Actelion Java MolfileCreator 2.0

  0  0  0  0  0  0              0 V3000
M  V30 BEGIN CTAB
M  V30 COUNTS 9 9 0 0 0
M  V30 BEGIN ATOM
M  V30 1 O 0.0 0.0 0.0 0
M  V30 2 C 1.2927 0.7708 0.0 0
M  V30 3 C 2.5973 0.0237 0.0 0
M  V30 4 C 3.89 0.7946 0.0 0
M  V30 5 C 2.5854 -1.4706 0.0 0
M  V30 6 C 5.1827 0.0474 0.0 0
M  V30 7 C 3.8781 2.3126 0.0 0
M  V30 8 N 3.8781 -2.2059 0.0 0
M  V30 9 C 5.1709 -1.4469 0.0 0
M  V30 END ATOM
M  V30 BEGIN BOND
M  V30 1 2 1 2
M  V30 2 1 2 3
M  V30 3 2 3 4
M  V30 4 1 3 5
M  V30 5 1 4 6
M  V30 6 1 4 7
M  V30 7 2 5 8
M  V30 8 2 6 9
M  V30 9 1 8 9
M  V30 END BOND
M  V30 END CTAB
M  END
>  <Dotmatics_CR>
R-012001

>  <CR_Set>
Aldehyde

>  <Category>
Aldehydes Aromatic

>  <Reaction type>
RedAm

>  <KI/BB_Nature>
Amine

>  <Comments>


>  <Salt>


>  <CR_Chiral_Form>
Achiral

>  <Prod_total_used>
15

>  <PSR (%)>
60

>  <Article>
4-methylnicotinaldehyde

>  <CAS>
51227-28-2

>  <Density>
1.095

>  <Prod_reagent_number>


>  <Stereocenters>
0

>  <Edel>


>  <NB_Name reaction - KI/BB – Capping>
01-RedAm_Amine_Aldehyde

$$$$
R-010355
Actelion Java MolfileCreator 2.0

  0  0  0  0  0  0              0 V3000
M  V30 BEGIN CTAB
M  V30 COUNTS 9 9 0 0 0
M  V30 BEGIN ATOM
M  V30 1 Cl 0.0 0.0 0.0 0
M  V30 2 C 1.2976 -0.7262 0.0 0
M  V30 3 C 1.2738 -2.2263 0.0 0
M  V30 4 C 2.5953 0.0595 0.0 0
M  V30 5 N 2.5715 -2.9525 0.0 0
M  V30 6 C 3.893 -0.6667 0.0 0
M  V30 7 C 3.8692 -2.1667 0.0 0
M  V30 8 C 5.1669 -2.893 0.0 0
M  V30 9 O 6.4646 -2.1072 0.0 0
M  V30 END ATOM
M  V30 BEGIN BOND
M  V30 1 1 1 2
M  V30 2 2 2 3
M  V30 3 1 2 4
M  V30 4 1 3 5
M  V30 5 2 4 6
M  V30 6 2 5 7
M  V30 7 1 7 8
M  V30 8 2 8 9
M  V30 9 1 6 7
M  V30 END BOND
M  V30 END CTAB
M  END
>  <Dotmatics_CR>
R-010355

>  <CR_Set>
Aldehyde

>  <Category>
Aldehydes Aromatic

>  <Reaction type>
RedAm

>  <KI/BB_Nature>
Amine

>  <Comments>


>  <Salt>


>  <CR_Chiral_Form>
Achiral

>  <Prod_total_used>
72

>  <PSR (%)>
89

>  <Article>
5-Chloropyridine-2-carboxaldehyde

>  <CAS>
31181-89-2

>  <Density>
1

>  <Prod_reagent_number>


>  <Stereocenters>
0

>  <Edel>


>  <NB_Name reaction - KI/BB – Capping>
01-RedAm_Amine_Aldehyde

$$$$
R-011942
Actelion Java MolfileCreator 2.0

  0  0  0  0  0  0              0 V3000
M  V30 BEGIN CTAB
M  V30 COUNTS 9 9 0 0 0
M  V30 BEGIN ATOM
M  V30 1 F 0.0 0.0 0.0 0
M  V30 2 C -1.0933 0.651 0.0 0
M  V30 3 C -2.4569 -0.0982 0.0 0
M  V30 4 C -1.1179 2.2235 0.0 0
M  V30 5 N -3.8205 0.6879 0.0 0
M  V30 6 C -2.4815 3.0097 0.0 0
M  V30 7 C -3.8451 2.2604 0.0 0
M  V30 8 C -5.2087 3.0466 0.0 0
M  V30 9 O -6.3021 2.4446 0.0 0
M  V30 END ATOM
M  V30 BEGIN BOND
M  V30 1 1 1 2
M  V30 2 2 2 3
M  V30 3 1 2 4
M  V30 4 1 3 5
M  V30 5 2 4 6
M  V30 6 2 5 7
M  V30 7 1 7 8
M  V30 8 2 8 9
M  V30 9 1 6 7
M  V30 END BOND
M  V30 END CTAB
M  END
>  <Dotmatics_CR>
R-011942

>  <CR_Set>
Aldehyde

>  <Category>
Aldehydes Aromatic

>  <Reaction type>
RedAm

>  <KI/BB_Nature>
Amine

>  <Comments>


>  <Salt>


>  <CR_Chiral_Form>
Achiral

>  <Prod_total_used>
38

>  <PSR (%)>
79

>  <Article>
5-fluoropyridine-2-carbaldehyde

>  <CAS>
31181-88-1

>  <Density>
1

>  <Prod_reagent_number>


>  <Stereocenters>
0

>  <Edel>


>  <NB_Name reaction - KI/BB – Capping>
01-RedAm_Amine_Aldehyde

$$$$
R-011948
Actelion Java MolfileCreator 2.0

  0  0  0  0  0  0              0 V3000
M  V30 BEGIN CTAB
M  V30 COUNTS 9 9 0 0 0
M  V30 BEGIN ATOM
M  V30 1 F 0.0 0.0 0.0 0
M  V30 2 C -1.0974 0.6535 0.0 0
M  V30 3 C -2.4661 -0.0986 0.0 0
M  V30 4 C -1.1221 2.2319 0.0 0
M  V30 5 N -3.8349 0.6905 0.0 0
M  V30 6 C -2.4908 -1.6276 0.0 0
M  V30 7 C -2.4908 3.021 0.0 0
M  V30 8 C -3.8596 2.2689 0.0 0
M  V30 9 O -3.5883 -2.2319 0.0 0
M  V30 END ATOM
M  V30 BEGIN BOND
M  V30 1 1 1 2
M  V30 2 2 2 3
M  V30 3 1 2 4
M  V30 4 1 3 5
M  V30 5 1 3 6
M  V30 6 2 4 7
M  V30 7 2 5 8
M  V30 8 2 6 9
M  V30 9 1 7 8
M  V30 END BOND
M  V30 END CTAB
M  END
>  <Dotmatics_CR>
R-011948

>  <CR_Set>
Aldehyde

>  <Category>
Aldehydes Aromatic

>  <Reaction type>
RedAm

>  <KI/BB_Nature>
Amine

>  <Comments>


>  <Salt>


>  <CR_Chiral_Form>
Achiral

>  <Prod_total_used>
54

>  <PSR (%)>
67

>  <Article>
3-fluoropyridine-2-carbaldehyde

>  <CAS>
31224-43-8

>  <Density>
1

>  <Prod_reagent_number>


>  <Stereocenters>
0

>  <Edel>


>  <NB_Name reaction - KI/BB – Capping>
01-RedAm_Amine_Aldehyde

$$$$
R-000831
Actelion Java MolfileCreator 2.0

  0  0  0  0  0  0              0 V3000
M  V30 BEGIN CTAB
M  V30 COUNTS 9 9 0 0 0
M  V30 BEGIN ATOM
M  V30 1 Br 0.0 0.0 0.0 0
M  V30 2 C -0.0235 1.5067 0.0 0
M  V30 3 C 1.236 2.2601 0.0 0
M  V30 4 C -1.3301 2.2601 0.0 0
M  V30 5 N 1.2124 3.7669 0.0 0
M  V30 6 C -1.3537 3.7669 0.0 0
M  V30 7 C -0.0941 4.532 0.0 0
M  V30 8 C -0.1177 6.0388 0.0 0
M  V30 9 O -1.4243 6.7922 0.0 0
M  V30 END ATOM
M  V30 BEGIN BOND
M  V30 1 1 1 2
M  V30 2 2 2 3
M  V30 3 1 2 4
M  V30 4 1 3 5
M  V30 5 2 4 6
M  V30 6 2 5 7
M  V30 7 1 7 8
M  V30 8 2 8 9
M  V30 9 1 6 7
M  V30 END BOND
M  V30 END CTAB
M  END
>  <Dotmatics_CR>
R-000831

>  <CR_Set>
Aldehyde

>  <Category>
Aldehydes Aromatic

>  <Reaction type>
RedAm

>  <KI/BB_Nature>
Amine

>  <Comments>


>  <Salt>


>  <CR_Chiral_Form>
Achiral

>  <Prod_total_used>
42

>  <PSR (%)>
81

>  <Article>
5-Bromo-2-pyridinecarboxaldehyde

>  <CAS>
31181-90-5

>  <Density>
1

>  <Prod_reagent_number>


>  <Stereocenters>
0

>  <Edel>


>  <NB_Name reaction - KI/BB – Capping>
01-RedAm_Amine_Aldehyde

$$$$
R-008494
Actelion Java MolfileCreator 2.0

  0  0  0  0  0  0              0 V3000
M  V30 BEGIN CTAB
M  V30 COUNTS 9 9 0 0 0
M  V30 BEGIN ATOM
M  V30 1 Cl 0.0 0.0 0.0 0
M  V30 2 C -1.3179 -0.7243 0.0 0
M  V30 3 C -2.6359 0.0356 0.0 0
M  V30 4 C -1.3417 -2.1966 0.0 0
M  V30 5 C -3.9539 -0.6886 0.0 0
M  V30 6 C -2.6597 1.5554 0.0 0
M  V30 7 N -2.6597 -2.9209 0.0 0
M  V30 8 C -3.9777 -2.161 0.0 0
M  V30 9 O -1.3892 2.3153 0.0 0
M  V30 END ATOM
M  V30 BEGIN BOND
M  V30 1 1 1 2
M  V30 2 2 2 3
M  V30 3 1 2 4
M  V30 4 1 3 5
M  V30 5 1 3 6
M  V30 6 2 4 7
M  V30 7 2 5 8
M  V30 8 2 6 9
M  V30 9 1 7 8
M  V30 END BOND
M  V30 END CTAB
M  END
>  <Dotmatics_CR>
R-008494

>  <CR_Set>
Aldehyde

>  <Category>
Aldehydes Aromatic

>  <Reaction type>
RedAm

>  <KI/BB_Nature>
Amine

>  <Comments>


>  <Salt>


>  <CR_Chiral_Form>
Achiral

>  <Prod_total_used>
65

>  <PSR (%)>
82

>  <Article>
3-Chloro-4-pyridinecarboxaldehyde

>  <CAS>
72990-37-5

>  <Density>
1

>  <Prod_reagent_number>


>  <Stereocenters>
0

>  <Edel>


>  <NB_Name reaction - KI/BB – Capping>
01-RedAm_Amine_Aldehyde

$$$$
R-009815
Actelion Java MolfileCreator 2.0

  0  0  0  0  0  0              0 V3000
M  V30 BEGIN CTAB
M  V30 COUNTS 9 9 0 0 0
M  V30 BEGIN ATOM
M  V30 1 F 0.0 0.0 0.0 0
M  V30 2 C -1.3122 -0.7211 0.0 0
M  V30 3 C -2.6245 0.0472 0.0 0
M  V30 4 C -1.3359 -2.1871 0.0 0
M  V30 5 C -3.9368 -0.6738 0.0 0
M  V30 6 C -2.6481 1.5605 0.0 0
M  V30 7 N -2.6481 -2.9082 0.0 0
M  V30 8 C -3.9604 -2.1398 0.0 0
M  V30 9 O -3.9604 2.3289 0.0 0
M  V30 END ATOM
M  V30 BEGIN BOND
M  V30 1 1 1 2
M  V30 2 2 2 3
M  V30 3 1 2 4
M  V30 4 1 3 5
M  V30 5 1 3 6
M  V30 6 2 4 7
M  V30 7 2 5 8
M  V30 8 2 6 9
M  V30 9 1 7 8
M  V30 END BOND
M  V30 END CTAB
M  END
>  <Dotmatics_CR>
R-009815

>  <CR_Set>
Aldehyde

>  <Category>
Aldehydes Aromatic

>  <Reaction type>
RedAm

>  <KI/BB_Nature>
Amine

>  <Comments>


>  <Salt>


>  <CR_Chiral_Form>
Achiral

>  <Prod_total_used>
131

>  <PSR (%)>
79

>  <Article>
3-Fluoro-4-pyridinecarboxaldehyde

>  <CAS>
40273-47-0

>  <Density>
1.255

>  <Prod_reagent_number>


>  <Stereocenters>
0

>  <Edel>


>  <NB_Name reaction - KI/BB – Capping>
01-RedAm_Amine_Aldehyde

$$$$
R-009267
Actelion Java MolfileCreator 2.0

  0  0  0  0  0  0              0 V3000
M  V30 BEGIN CTAB
M  V30 COUNTS 9 9 0 0 0
M  V30 BEGIN ATOM
M  V30 1 S 0.0 0.0 0.0 0
M  V30 2 C 0.8685 -1.1972 0.0 0
M  V30 3 C -1.4554 -0.4342 0.0 0
M  V30 4 C -0.0469 -2.3944 0.0 0
M  V30 5 C 2.3475 -1.1737 0.0 0
M  V30 6 N -1.4789 -1.9132 0.0 0
M  V30 7 C -2.6996 0.4812 0.0 0
M  V30 8 C 0.3873 -3.8029 0.0 0
M  V30 9 O 3.0635 0.1525 0.0 0
M  V30 END ATOM
M  V30 BEGIN BOND
M  V30 1 1 1 2
M  V30 2 1 1 3
M  V30 3 2 2 4
M  V30 4 1 2 5
M  V30 5 2 3 6
M  V30 6 1 3 7
M  V30 7 1 4 8
M  V30 8 2 5 9
M  V30 9 1 4 6
M  V30 END BOND
M  V30 END CTAB
M  END
>  <Dotmatics_CR>
R-009267

>  <CR_Set>
Aldehyde

>  <Category>
Aldehydes Aromatic

>  <Reaction type>
RedAm

>  <KI/BB_Nature>
Amine

>  <Comments>


>  <Salt>


>  <CR_Chiral_Form>
Achiral

>  <Prod_total_used>
119

>  <PSR (%)>
82

>  <Article>
2,4-Dimethylthiazole-5-carboxaldehyde

>  <CAS>
95453-54-6

>  <Density>
1

>  <Prod_reagent_number>


>  <Stereocenters>
0

>  <Edel>


>  <NB_Name reaction - KI/BB – Capping>
01-RedAm_Amine_Aldehyde

$$$$
R-000646
Actelion Java MolfileCreator 2.0

  0  0  0  0  0  0              0 V3000
M  V30 BEGIN CTAB
M  V30 COUNTS 9 9 0 0 0
M  V30 BEGIN ATOM
M  V30 1 S 0.0 0.0 0.0 0
M  V30 2 C 0.8654 -1.1928 0.0 0
M  V30 3 C -1.4501 -0.4327 0.0 0
M  V30 4 N -0.0467 -2.3857 0.0 0
M  V30 5 C 2.339 -1.1695 0.0 0
M  V30 6 C -1.4735 -1.9062 0.0 0
M  V30 7 C -2.6898 0.4794 0.0 0
M  V30 8 O 3.0641 0.152 0.0 0
M  V30 9 C -2.7132 -2.7717 0.0 0
M  V30 END ATOM
M  V30 BEGIN BOND
M  V30 1 1 1 2
M  V30 2 1 1 3
M  V30 3 2 2 4
M  V30 4 1 2 5
M  V30 5 2 3 6
M  V30 6 1 3 7
M  V30 7 2 5 8
M  V30 8 1 6 9
M  V30 9 1 4 6
M  V30 END BOND
M  V30 END CTAB
M  END
>  <Dotmatics_CR>
R-000646

>  <CR_Set>
Aldehyde

>  <Category>
Aldehydes Aromatic

>  <Reaction type>
RedAm

>  <KI/BB_Nature>
Amine

>  <Comments>


>  <Salt>


>  <CR_Chiral_Form>
Achiral

>  <Prod_total_used>
49

>  <PSR (%)>
90

>  <Article>
2-Thiazolecarboxaldehyde, 4,5-dimethyl-

>  <CAS>
74531-15-0

>  <Density>
1

>  <Prod_reagent_number>


>  <Stereocenters>
0

>  <Edel>


>  <NB_Name reaction - KI/BB – Capping>
01-RedAm_Amine_Aldehyde

$$$$
R-003729
Actelion Java MolfileCreator 2.0

  0  0  0  0  0  0              0 V3000
M  V30 BEGIN CTAB
M  V30 COUNTS 10 10 0 0 0
M  V30 BEGIN ATOM
M  V30 1 O 0.0 0.0 0.0 0
M  V30 2 C -0.0237 -1.4951 0.0 0
M  V30 3 C 1.2815 -2.2426 0.0 0
M  V30 4 C 1.2459 -3.7377 0.0 0
M  V30 5 C 2.5986 -1.4595 0.0 0
M  V30 6 C 2.5274 -4.4971 0.0 0
M  V30 7 C 3.8801 -2.2189 0.0 0
M  V30 8 C 3.8326 -3.7258 0.0 0
M  V30 9 O 5.1023 -4.4971 0.0 0
M  V30 10 C 5.0548 -5.9804 0.0 0
M  V30 END ATOM
M  V30 BEGIN BOND
M  V30 1 2 1 2
M  V30 2 1 2 3
M  V30 3 2 3 4
M  V30 4 1 3 5
M  V30 5 1 4 6
M  V30 6 2 5 7
M  V30 7 2 6 8
M  V30 8 1 8 9
M  V30 9 1 9 10
M  V30 10 1 7 8
M  V30 END BOND
M  V30 END CTAB
M  END
>  <Dotmatics_CR>
R-003729

>  <CR_Set>
Aldehyde

>  <Category>
Aldehydes Aromatic

>  <Reaction type>
RedAm

>  <KI/BB_Nature>
Amine

>  <Comments>


>  <Salt>


>  <CR_Chiral_Form>
Achiral

>  <Prod_total_used>
18

>  <PSR (%)>
94

>  <Article>
p-ANISALDEHYDE

>  <CAS>
123-11-5

>  <Density>
1.119

>  <Prod_reagent_number>


>  <Stereocenters>
0

>  <Edel>


>  <NB_Name reaction - KI/BB – Capping>
01-RedAm_Amine_Aldehyde

$$$$
R-003371
Actelion Java MolfileCreator 2.0

  0  0  0  0  0  0              0 V3000
M  V30 BEGIN CTAB
M  V30 COUNTS 10 10 0 0 0
M  V30 BEGIN ATOM
M  V30 1 O 0.0 0.0 0.0 0
M  V30 2 C -0.0239 -1.4878 0.0 0
M  V30 3 C 1.2718 -2.2198 0.0 0
M  V30 4 C 2.5797 -1.4398 0.0 0
M  V30 5 C 1.2358 -3.7076 0.0 0
M  V30 6 O 2.5797 0.0959 0.0 0
M  V30 7 C 3.8636 -2.1958 0.0 0
M  V30 8 C 2.5197 -4.4636 0.0 0
M  V30 9 C 3.8636 0.8519 0.0 0
M  V30 10 C 3.8156 -3.6956 0.0 0
M  V30 END ATOM
M  V30 BEGIN BOND
M  V30 1 2 1 2
M  V30 2 1 2 3
M  V30 3 2 3 4
M  V30 4 1 3 5
M  V30 5 1 4 6
M  V30 6 1 4 7
M  V30 7 2 5 8
M  V30 8 1 6 9
M  V30 9 2 7 10
M  V30 10 1 8 10
M  V30 END BOND
M  V30 END CTAB
M  END
>  <Dotmatics_CR>
R-003371

>  <CR_Set>
Aldehyde

>  <Category>
Aldehydes Aromatic

>  <Reaction type>
RedAm

>  <KI/BB_Nature>
Amine

>  <Comments>


>  <Salt>


>  <CR_Chiral_Form>
Achiral

>  <Prod_total_used>
50

>  <PSR (%)>
94

>  <Article>
2-ANISALDEHYDE (2-METHOXYBENZALDEHYDE)

>  <CAS>
135-02-4

>  <Density>
1

>  <Prod_reagent_number>


>  <Stereocenters>
0

>  <Edel>


>  <NB_Name reaction - KI/BB – Capping>
01-RedAm_Amine_Aldehyde

$$$$
R-004633
Actelion Java MolfileCreator 2.0

  0  0  0  0  0  0              0 V3000
M  V30 BEGIN CTAB
M  V30 COUNTS 10 10 0 0 0
M  V30 BEGIN ATOM
M  V30 1 O 0.0 0.0 0.0 0
M  V30 2 C -0.0238 -1.4912 0.0 0
M  V30 3 C 1.2764 -2.2189 0.0 0
M  V30 4 C 2.5887 -1.4315 0.0 0
M  V30 5 C 1.2406 -3.7101 0.0 0
M  V30 6 C 3.8771 -2.195 0.0 0
M  V30 7 C 2.5291 -4.4736 0.0 0
M  V30 8 O 5.1775 -1.4315 0.0 0
M  V30 9 C 3.8294 -3.6982 0.0 0
M  V30 10 C 6.454 -2.1712 0.0 0
M  V30 END ATOM
M  V30 BEGIN BOND
M  V30 1 2 1 2
M  V30 2 1 2 3
M  V30 3 2 3 4
M  V30 4 1 3 5
M  V30 5 1 4 6
M  V30 6 2 5 7
M  V30 7 1 6 8
M  V30 8 2 6 9
M  V30 9 1 8 10
M  V30 10 1 7 9
M  V30 END BOND
M  V30 END CTAB
M  END
>  <Dotmatics_CR>
R-004633

>  <CR_Set>
Aldehyde

>  <Category>
Aldehydes Aromatic

>  <Reaction type>
RedAm

>  <KI/BB_Nature>
Amine

>  <Comments>


>  <Salt>


>  <CR_Chiral_Form>
Achiral

>  <Prod_total_used>
30

>  <PSR (%)>
97

>  <Article>
3-METHOXYBENZALDEHYDE (3-ANISALDEHYDE)

>  <CAS>
591-31-1

>  <Density>
1.117

>  <Prod_reagent_number>


>  <Stereocenters>
0

>  <Edel>


>  <NB_Name reaction - KI/BB – Capping>
01-RedAm_Amine_Aldehyde

$$$$
R-010233
Actelion Java MolfileCreator 2.0

  0  0  0  0  0  0              0 V3000
M  V30 BEGIN CTAB
M  V30 COUNTS 10 10 0 0 0
M  V30 BEGIN ATOM
M  V30 1 F 0.0 0.0 0.0 0
M  V30 2 C -1.3054 0.7644 0.0 0
M  V30 3 C -2.6109 0.047 0.0 0
M  V30 4 C -1.3289 2.2698 0.0 0
M  V30 5 O -2.6344 -1.4113 0.0 0
M  V30 6 C -3.9164 0.8115 0.0 0
M  V30 7 C -2.6344 3.0343 0.0 0
M  V30 8 C -3.9399 2.3169 0.0 0
M  V30 9 C -2.6579 4.5397 0.0 0
M  V30 10 O -3.9634 5.2924 0.0 0
M  V30 END ATOM
M  V30 BEGIN BOND
M  V30 1 1 1 2
M  V30 2 2 2 3
M  V30 3 1 2 4
M  V30 4 1 3 5
M  V30 5 1 3 6
M  V30 6 2 4 7
M  V30 7 2 6 8
M  V30 8 1 7 9
M  V30 9 2 9 10
M  V30 10 1 7 8
M  V30 END BOND
M  V30 END CTAB
M  END
>  <Dotmatics_CR>
R-010233

>  <CR_Set>
Aldehyde

>  <Category>
Aldehydes Aromatic

>  <Reaction type>
RedAm

>  <KI/BB_Nature>
Amine

>  <Comments>
acidic cdts for purification
OH

>  <Salt>


>  <CR_Chiral_Form>
Achiral

>  <Prod_total_used>
16

>  <PSR (%)>
81

>  <Article>
3-Fluoro-4-hydroxybenzaldehyde

>  <CAS>
405-05-0

>  <Density>
1

>  <Prod_reagent_number>


>  <Stereocenters>
0

>  <Edel>


>  <NB_Name reaction - KI/BB – Capping>
01-RedAm_Amine_Aldehyde

$$$$
R-009959
Actelion Java MolfileCreator 2.0

  0  0  0  0  0  0              0 V3000
M  V30 BEGIN CTAB
M  V30 COUNTS 10 10 0 0 0
M  V30 BEGIN ATOM
M  V30 1 Br 0.0 0.0 0.0 0
M  V30 2 C -0.0237 1.5187 0.0 0
M  V30 3 C -1.3408 2.2781 0.0 0
M  V30 4 C 1.2458 2.2781 0.0 0
M  V30 5 O -2.6578 1.5543 0.0 0
M  V30 6 C -1.3645 3.7969 0.0 0
M  V30 7 C 1.2221 3.7969 0.0 0
M  V30 8 C -0.0949 4.5563 0.0 0
M  V30 9 C 2.4917 4.5563 0.0 0
M  V30 10 O 3.7613 3.8325 0.0 0
M  V30 END ATOM
M  V30 BEGIN BOND
M  V30 1 1 1 2
M  V30 2 2 2 3
M  V30 3 1 2 4
M  V30 4 1 3 5
M  V30 5 1 3 6
M  V30 6 2 4 7
M  V30 7 2 6 8
M  V30 8 1 7 9
M  V30 9 2 9 10
M  V30 10 1 7 8
M  V30 END BOND
M  V30 END CTAB
M  END
>  <Dotmatics_CR>
R-009959

>  <CR_Set>
Aldehyde

>  <Category>
Aldehydes Aromatic

>  <Reaction type>
RedAm

>  <KI/BB_Nature>
Amine

>  <Comments>
acidic cdts for purification
OH

>  <Salt>


>  <CR_Chiral_Form>
Achiral

>  <Prod_total_used>
10

>  <PSR (%)>
70

>  <Article>
3-Bromo-4-hydroxybenzaldehyde

>  <CAS>
2973-78-6

>  <Density>
1

>  <Prod_reagent_number>


>  <Stereocenters>
0

>  <Edel>


>  <NB_Name reaction - KI/BB – Capping>
01-RedAm_Amine_Aldehyde

$$$$
R-000207
Actelion Java MolfileCreator 2.0

  0  0  0  0  0  0              0 V3000
M  V30 BEGIN CTAB
M  V30 COUNTS 10 10 0 0 0
M  V30 BEGIN ATOM
M  V30 1 O 0.0 0.0 0.0 0
M  V30 2 C -1.3075 0.7704 0.0 0
M  V30 3 C -2.615 0.0583 0.0 0
M  V30 4 C -3.9225 0.8288 0.0 0
M  V30 5 C -5.23 0.1167 0.0 0
M  V30 6 C -6.5492 0.8989 0.0 0
M  V30 7 C -5.2534 -1.3542 0.0 0
M  V30 8 C -7.8567 0.1634 0.0 0
M  V30 9 C -6.5725 -2.0663 0.0 0
M  V30 10 C -7.8801 -1.3075 0.0 0
M  V30 END ATOM
M  V30 BEGIN BOND
M  V30 1 2 1 2
M  V30 2 1 2 3
M  V30 3 2 3 4
M  V30 4 1 4 5
M  V30 5 2 5 6
M  V30 6 1 5 7
M  V30 7 1 6 8
M  V30 8 2 7 9
M  V30 9 2 8 10
M  V30 10 1 9 10
M  V30 END BOND
M  V30 END CTAB
M  END
>  <Dotmatics_CR>
R-000207

>  <CR_Set>
Aldehyde

>  <Category>
Aldehydes Non-Aromatic

>  <Reaction type>
RedAm

>  <KI/BB_Nature>
Amine

>  <Comments>


>  <Salt>


>  <CR_Chiral_Form>
Achiral

>  <Prod_total_used>
6

>  <PSR (%)>
83

>  <Article>
TRANS-CINNAMALDEHYDE

>  <CAS>
14371-10-9

>  <Density>
1.05

>  <Prod_reagent_number>


>  <Stereocenters>
0

>  <Edel>


>  <NB_Name reaction - KI/BB – Capping>
01-RedAm_Amine_Aldehyde

$$$$
R-004109
Actelion Java MolfileCreator 2.0

  0  0  0  0  0  0              0 V3000
M  V30 BEGIN CTAB
M  V30 COUNTS 10 10 0 0 0
M  V30 BEGIN ATOM
M  V30 1 O 0.0 0.0 0.0 0
M  V30 2 C -0.0233 -1.4614 0.0 0
M  V30 3 C -1.3328 -2.1745 0.0 0
M  V30 4 C -2.6539 -1.3912 0.0 0
M  V30 5 C -3.9633 -2.1044 0.0 0
M  V30 6 C -5.2961 -1.3211 0.0 0
M  V30 7 C -3.9867 -3.5775 0.0 0
M  V30 8 C -6.6055 -2.0576 0.0 0
M  V30 9 C -5.3195 -4.2906 0.0 0
M  V30 10 C -6.6289 -3.5307 0.0 0
M  V30 END ATOM
M  V30 BEGIN BOND
M  V30 1 2 1 2
M  V30 2 1 2 3
M  V30 3 1 3 4
M  V30 4 1 4 5
M  V30 5 2 5 6
M  V30 6 1 5 7
M  V30 7 1 6 8
M  V30 8 2 7 9
M  V30 9 2 8 10
M  V30 10 1 9 10
M  V30 END BOND
M  V30 END CTAB
M  END
>  <Dotmatics_CR>
R-004109

>  <CR_Set>
Aldehyde

>  <Category>
Aldehydes Non-Aromatic

>  <Reaction type>
RedAm

>  <KI/BB_Nature>
Amine

>  <Comments>


>  <Salt>


>  <CR_Chiral_Form>
Achiral

>  <Prod_total_used>
8

>  <PSR (%)>
88

>  <Article>
HYDROCINNAMALDEHYDE

>  <CAS>
104-53-0

>  <Density>
1.019

>  <Prod_reagent_number>


>  <Stereocenters>
0

>  <Edel>


>  <NB_Name reaction - KI/BB – Capping>
01-RedAm_Amine_Aldehyde

$$$$
R-003078
Actelion Java MolfileCreator 2.0

  0  0  0  0  0  0              0 V3000
M  V30 BEGIN CTAB
M  V30 COUNTS 10 10 0 0 0
M  V30 BEGIN ATOM
M  V30 1 O 0.0 0.0 0.0 0
M  V30 2 C 0.1892 -1.4906 0.0 0
M  V30 3 C 1.5735 -2.023 0.0 0
M  V30 4 C 1.7628 -3.4901 0.0 0
M  V30 5 C 2.7329 -1.0529 0.0 0
M  V30 6 C 3.1351 -4.0225 0.0 0
M  V30 7 C 0.5442 -4.4129 0.0 0
M  V30 8 C 4.1289 -1.5971 0.0 0
M  V30 9 C 4.3064 -3.0523 0.0 0
M  V30 10 C 5.312 -0.6152 0.0 0
M  V30 END ATOM
M  V30 BEGIN BOND
M  V30 1 2 1 2
M  V30 2 1 2 3
M  V30 3 2 3 4
M  V30 4 1 3 5
M  V30 5 1 4 6
M  V30 6 1 4 7
M  V30 7 2 5 8
M  V30 8 2 6 9
M  V30 9 1 8 10
M  V30 10 1 8 9
M  V30 END BOND
M  V30 END CTAB
M  END
>  <Dotmatics_CR>
R-003078

>  <CR_Set>
Aldehyde

>  <Category>
Aldehydes Aromatic

>  <Reaction type>
RedAm

>  <KI/BB_Nature>
Amine

>  <Comments>


>  <Salt>


>  <CR_Chiral_Form>
Achiral

>  <Prod_total_used>
8

>  <PSR (%)>
88

>  <Article>
2,5-DIMETHYLBENZALDEHYDE

>  <CAS>
5779-94-2

>  <Density>
0.95

>  <Prod_reagent_number>


>  <Stereocenters>
0

>  <Edel>


>  <NB_Name reaction - KI/BB – Capping>
01-RedAm_Amine_Aldehyde

$$$$
R-012107
Actelion Java MolfileCreator 2.0

  0  0  0  0  0  0              0 V3000
M  V30 BEGIN CTAB
M  V30 COUNTS 10 10 0 0 0
M  V30 BEGIN ATOM
M  V30 1 Cl 0.0 0.0 0.0 0
M  V30 2 C 1.0968 -0.6177 0.0 0
M  V30 3 C 1.0715 -2.2062 0.0 0
M  V30 4 C 2.4709 0.2269 0.0 0
M  V30 5 C 2.4457 -3.0004 0.0 0
M  V30 6 C -0.3529 -3.0004 0.0 0
M  V30 7 C 3.8451 -0.5673 0.0 0
M  V30 8 C 3.8199 -2.1558 0.0 0
M  V30 9 O -0.3782 -4.2737 0.0 0
M  V30 10 F 4.9167 -2.7735 0.0 0
M  V30 END ATOM
M  V30 BEGIN BOND
M  V30 1 1 1 2
M  V30 2 2 2 3
M  V30 3 1 2 4
M  V30 4 1 3 5
M  V30 5 1 3 6
M  V30 6 2 4 7
M  V30 7 2 5 8
M  V30 8 2 6 9
M  V30 9 1 8 10
M  V30 10 1 7 8
M  V30 END BOND
M  V30 END CTAB
M  END
>  <Dotmatics_CR>
R-012107

>  <CR_Set>
Aldehyde

>  <Category>
Aldehydes Aromatic

>  <Reaction type>
RedAm

>  <KI/BB_Nature>
Amine

>  <Comments>


>  <Salt>


>  <CR_Chiral_Form>
Achiral

>  <Prod_total_used>
24

>  <PSR (%)>
71

>  <Article>
2-chloro-5-fluoro-benzaldehyde

>  <CAS>
84194-30-9

>  <Density>
1

>  <Prod_reagent_number>


>  <Stereocenters>
0

>  <Edel>


>  <NB_Name reaction - KI/BB – Capping>
01-RedAm_Amine_Aldehyde

$$$$
R-012139
Actelion Java MolfileCreator 2.0

  0  0  0  0  0  0              0 V3000
M  V30 BEGIN CTAB
M  V30 COUNTS 10 10 0 0 0
M  V30 BEGIN ATOM
M  V30 1 F 0.0 0.0 0.0 0
M  V30 2 C 1.0771 0.6716 0.0 0
M  V30 3 C 1.0517 2.2936 0.0 0
M  V30 4 C 2.433 -0.114 0.0 0
M  V30 5 C 2.4077 3.1173 0.0 0
M  V30 6 C -0.3548 3.1173 0.0 0
M  V30 7 C 3.789 0.7096 0.0 0
M  V30 8 C 3.7636 2.3317 0.0 0
M  V30 9 O -0.3801 4.4226 0.0 0
M  V30 10 F 4.8661 0.0887 0.0 0
M  V30 END ATOM
M  V30 BEGIN BOND
M  V30 1 1 1 2
M  V30 2 2 2 3
M  V30 3 1 2 4
M  V30 4 1 3 5
M  V30 5 1 3 6
M  V30 6 2 4 7
M  V30 7 2 5 8
M  V30 8 2 6 9
M  V30 9 1 7 10
M  V30 10 1 7 8
M  V30 END BOND
M  V30 END CTAB
M  END
>  <Dotmatics_CR>
R-012139

>  <CR_Set>
Aldehyde

>  <Category>
Aldehydes Aromatic

>  <Reaction type>
RedAm

>  <KI/BB_Nature>
Amine

>  <Comments>


>  <Salt>


>  <CR_Chiral_Form>
Achiral

>  <Prod_total_used>
5

>  <PSR (%)>
100

>  <Article>
2,4-difluorobenzaldehyde

>  <CAS>
1550-35-2

>  <Density>
1.299

>  <Prod_reagent_number>


>  <Stereocenters>
0

>  <Edel>


>  <NB_Name reaction - KI/BB – Capping>
01-RedAm_Amine_Aldehyde

$$$$
R-001690
Actelion Java MolfileCreator 2.0

  0  0  0  0  0  0              0 V3000
M  V30 BEGIN CTAB
M  V30 COUNTS 10 10 0 0 0
M  V30 BEGIN ATOM
M  V30 1 Br 0.0 0.0 0.0 0
M  V30 2 C -1.3092 0.7666 0.0 0
M  V30 3 C -1.3328 2.2764 0.0 0
M  V30 4 C -2.6184 0.0471 0.0 0
M  V30 5 C -2.642 3.043 0.0 0
M  V30 6 C -0.0707 3.043 0.0 0
M  V30 7 C -3.9277 0.8138 0.0 0
M  V30 8 C -3.9513 2.3236 0.0 0
M  V30 9 O 1.1912 2.3236 0.0 0
M  V30 10 F -5.2605 3.0784 0.0 0
M  V30 END ATOM
M  V30 BEGIN BOND
M  V30 1 1 1 2
M  V30 2 2 2 3
M  V30 3 1 2 4
M  V30 4 1 3 5
M  V30 5 1 3 6
M  V30 6 2 4 7
M  V30 7 2 5 8
M  V30 8 2 6 9
M  V30 9 1 8 10
M  V30 10 1 7 8
M  V30 END BOND
M  V30 END CTAB
M  END
>  <Dotmatics_CR>
R-001690

>  <CR_Set>
Aldehyde

>  <Category>
Aldehydes Aromatic

>  <Reaction type>
RedAm

>  <KI/BB_Nature>
Amine

>  <Comments>


>  <Salt>


>  <CR_Chiral_Form>
Achiral

>  <Prod_total_used>
15

>  <PSR (%)>
80

>  <Article>
2-BROMO-5-FLUOROBENZALDEHYDE

>  <CAS>
94569-84-3

>  <Density>
1

>  <Prod_reagent_number>


>  <Stereocenters>
0

>  <Edel>


>  <NB_Name reaction - KI/BB – Capping>
01-RedAm_Amine_Aldehyde

$$$$
R-000234
Actelion Java MolfileCreator 2.0

  0  0  0  0  0  0              0 V3000
M  V30 BEGIN CTAB
M  V30 COUNTS 10 10 0 0 0
M  V30 BEGIN ATOM
M  V30 1 Cl 0.0 0.0 0.0 0
M  V30 2 C -1.3 0.7564 0.0 0
M  V30 3 C -1.3237 2.2692 0.0 0
M  V30 4 C -2.6119 0.0354 0.0 0
M  V30 5 Cl -0.0709 3.0374 0.0 0
M  V30 6 C -2.6237 3.0374 0.0 0
M  V30 7 C -3.912 0.8036 0.0 0
M  V30 8 C -3.9238 2.3165 0.0 0
M  V30 9 C -5.2121 0.0827 0.0 0
M  V30 10 O -6.5122 0.8509 0.0 0
M  V30 END ATOM
M  V30 BEGIN BOND
M  V30 1 1 1 2
M  V30 2 2 2 3
M  V30 3 1 2 4
M  V30 4 1 3 5
M  V30 5 1 3 6
M  V30 6 2 4 7
M  V30 7 2 6 8
M  V30 8 1 7 9
M  V30 9 2 9 10
M  V30 10 1 7 8
M  V30 END BOND
M  V30 END CTAB
M  END
>  <Dotmatics_CR>
R-000234

>  <CR_Set>
Aldehyde

>  <Category>
Aldehydes Aromatic

>  <Reaction type>
RedAm

>  <KI/BB_Nature>
Amine

>  <Comments>


>  <Salt>


>  <CR_Chiral_Form>
Achiral

>  <Prod_total_used>
3

>  <PSR (%)>
100

>  <Article>
3,4-DICHLOROBENZALDEHYDE

>  <CAS>
6287-38-3

>  <Density>


>  <Prod_reagent_number>


>  <Stereocenters>
0

>  <Edel>


>  <NB_Name reaction - KI/BB – Capping>
01-RedAm_Amine_Aldehyde

$$$$
R-008487
Actelion Java MolfileCreator 2.0

  0  0  0  0  0  0              0 V3000
M  V30 BEGIN CTAB
M  V30 COUNTS 10 10 0 0 0
M  V30 BEGIN ATOM
M  V30 1 Cl 0.0 0.0 0.0 0
M  V30 2 C -1.3063 0.7649 0.0 0
M  V30 3 C -2.6127 0.047 0.0 0
M  V30 4 C -1.3298 2.2714 0.0 0
M  V30 5 F -2.6362 -1.4122 0.0 0
M  V30 6 C -3.919 0.812 0.0 0
M  V30 7 C -2.6362 3.0363 0.0 0
M  V30 8 C -3.9425 2.3184 0.0 0
M  V30 9 C -5.2254 0.0941 0.0 0
M  V30 10 O -6.5317 0.8591 0.0 0
M  V30 END ATOM
M  V30 BEGIN BOND
M  V30 1 1 1 2
M  V30 2 2 2 3
M  V30 3 1 2 4
M  V30 4 1 3 5
M  V30 5 1 3 6
M  V30 6 2 4 7
M  V30 7 2 6 8
M  V30 8 1 6 9
M  V30 9 2 9 10
M  V30 10 1 7 8
M  V30 END BOND
M  V30 END CTAB
M  END
>  <Dotmatics_CR>
R-008487

>  <CR_Set>
Aldehyde

>  <Category>
Aldehydes Aromatic

>  <Reaction type>
RedAm

>  <KI/BB_Nature>
Amine

>  <Comments>


>  <Salt>


>  <CR_Chiral_Form>
Achiral

>  <Prod_total_used>
20

>  <PSR (%)>
100

>  <Article>
3-Chloro-2-fluorobenzaldehyde

>  <CAS>
85070-48-0

>  <Density>
1

>  <Prod_reagent_number>


>  <Stereocenters>
0

>  <Edel>


>  <NB_Name reaction - KI/BB – Capping>
01-RedAm_Amine_Aldehyde

$$$$
R-001556
Actelion Java MolfileCreator 2.0

  0  0  0  0  0  0              0 V3000
M  V30 BEGIN CTAB
M  V30 COUNTS 10 10 0 0 0
M  V30 BEGIN ATOM
M  V30 1 F 0.0 0.0 0.0 0
M  V30 2 C -1.3105 -0.7556 0.0 0
M  V30 3 C -1.3342 -2.2433 0.0 0
M  V30 4 C -2.6211 0.0 0.0 0
M  V30 5 F -0.0472 -2.9517 0.0 0
M  V30 6 C -2.6684 -2.9517 0.0 0
M  V30 7 C -3.979 -0.7084 0.0 0
M  V30 8 C -2.5975 1.5113 0.0 0
M  V30 9 C -3.979 -2.1843 0.0 0
M  V30 10 O -1.3105 2.2197 0.0 0
M  V30 END ATOM
M  V30 BEGIN BOND
M  V30 1 1 1 2
M  V30 2 2 2 3
M  V30 3 1 2 4
M  V30 4 1 3 5
M  V30 5 1 3 6
M  V30 6 2 4 7
M  V30 7 1 4 8
M  V30 8 2 6 9
M  V30 9 2 8 10
M  V30 10 1 7 9
M  V30 END BOND
M  V30 END CTAB
M  END
>  <Dotmatics_CR>
R-001556

>  <CR_Set>
Aldehyde

>  <Category>
Aldehydes Aromatic

>  <Reaction type>
RedAm

>  <KI/BB_Nature>
Amine

>  <Comments>


>  <Salt>


>  <CR_Chiral_Form>
Achiral

>  <Prod_total_used>
5

>  <PSR (%)>
60

>  <Article>
2,3-DIFLUOROBENZALDEHYDE

>  <CAS>
2646-91-5

>  <Density>
1.301

>  <Prod_reagent_number>


>  <Stereocenters>
0

>  <Edel>


>  <NB_Name reaction - KI/BB – Capping>
01-RedAm_Amine_Aldehyde

$$$$
R-007811
Actelion Java MolfileCreator 2.0

  0  0  0  0  0  0              0 V3000
M  V30 BEGIN CTAB
M  V30 COUNTS 10 10 0 0 0
M  V30 BEGIN ATOM
M  V30 1 F 0.0 0.0 0.0 0
M  V30 2 C 1.2766 0.7635 0.0 0
M  V30 3 C 2.5532 0.0357 0.0 0
M  V30 4 C 1.2527 2.2907 0.0 0
M  V30 5 C 3.8298 0.7993 0.0 0
M  V30 6 C 2.5293 3.0662 0.0 0
M  V30 7 F 5.1064 0.0715 0.0 0
M  V30 8 C 3.8059 2.3265 0.0 0
M  V30 9 C 2.5055 4.5934 0.0 0
M  V30 10 O 1.1811 5.3689 0.0 0
M  V30 END ATOM
M  V30 BEGIN BOND
M  V30 1 1 1 2
M  V30 2 2 2 3
M  V30 3 1 2 4
M  V30 4 1 3 5
M  V30 5 2 4 6
M  V30 6 1 5 7
M  V30 7 2 5 8
M  V30 8 1 6 9
M  V30 9 2 9 10
M  V30 10 1 6 8
M  V30 END BOND
M  V30 END CTAB
M  END
>  <Dotmatics_CR>
R-007811

>  <CR_Set>
Aldehyde

>  <Category>
Aldehydes Aromatic

>  <Reaction type>
RedAm

>  <KI/BB_Nature>
Amine

>  <Comments>


>  <Salt>


>  <CR_Chiral_Form>
Achiral

>  <Prod_total_used>
5

>  <PSR (%)>
80

>  <Article>
3,5difluorobenzaldehyde

>  <CAS>
32085-88-4

>  <Density>
1.296

>  <Prod_reagent_number>


>  <Stereocenters>
0

>  <Edel>


>  <NB_Name reaction - KI/BB – Capping>
01-RedAm_Amine_Aldehyde

$$$$
R-008835
Actelion Java MolfileCreator 2.0

  0  0  0  0  0  0              0 V3000
M  V30 BEGIN CTAB
M  V30 COUNTS 10 10 0 0 0
M  V30 BEGIN ATOM
M  V30 1 F 0.0 0.0 0.0 0
M  V30 2 C 1.2796 0.7653 0.0 0
M  V30 3 C 1.2556 2.2961 0.0 0
M  V30 4 C 2.5592 0.0358 0.0 0
M  V30 5 C 2.5352 3.0614 0.0 0
M  V30 6 C 3.8388 0.8012 0.0 0
M  V30 7 C 3.8148 2.3319 0.0 0
M  V30 8 C 2.5113 4.5922 0.0 0
M  V30 9 C 5.0944 3.0973 0.0 0
M  V30 10 O 3.7909 5.3695 0.0 0
M  V30 END ATOM
M  V30 BEGIN BOND
M  V30 1 1 1 2
M  V30 2 2 2 3
M  V30 3 1 2 4
M  V30 4 1 3 5
M  V30 5 2 4 6
M  V30 6 2 5 7
M  V30 7 1 5 8
M  V30 8 1 7 9
M  V30 9 2 8 10
M  V30 10 1 6 7
M  V30 END BOND
M  V30 END CTAB
M  END
>  <Dotmatics_CR>
R-008835

>  <CR_Set>
Aldehyde

>  <Category>
Aldehydes Aromatic

>  <Reaction type>
RedAm

>  <KI/BB_Nature>
Amine

>  <Comments>


>  <Salt>


>  <CR_Chiral_Form>
Achiral

>  <Prod_total_used>
13

>  <PSR (%)>
85

>  <Article>
5-Fluoro-2-methylbenzaldehyde

>  <CAS>
22062-53-9

>  <Density>
1.145

>  <Prod_reagent_number>


>  <Stereocenters>
0

>  <Edel>


>  <NB_Name reaction - KI/BB – Capping>
01-RedAm_Amine_Aldehyde

$$$$
R-008486
Actelion Java MolfileCreator 2.0

  0  0  0  0  0  0              0 V3000
M  V30 BEGIN CTAB
M  V30 COUNTS 10 10 0 0 0
M  V30 BEGIN ATOM
M  V30 1 F 0.0 0.0 0.0 0
M  V30 2 C -1.3169 -0.7225 0.0 0
M  V30 3 C -1.3402 -2.191 0.0 0
M  V30 4 C -2.6339 0.0466 0.0 0
M  V30 5 C -2.6572 -2.9252 0.0 0
M  V30 6 C -0.0699 -2.9252 0.0 0
M  V30 7 C -3.9508 -0.6876 0.0 0
M  V30 8 C -3.9741 -2.1444 0.0 0
M  V30 9 C -5.2911 -2.8669 0.0 0
M  V30 10 O -6.608 -2.0861 0.0 0
M  V30 END ATOM
M  V30 BEGIN BOND
M  V30 1 1 1 2
M  V30 2 2 2 3
M  V30 3 1 2 4
M  V30 4 1 3 5
M  V30 5 1 3 6
M  V30 6 2 4 7
M  V30 7 2 5 8
M  V30 8 1 8 9
M  V30 9 2 9 10
M  V30 10 1 7 8
M  V30 END BOND
M  V30 END CTAB
M  END
>  <Dotmatics_CR>
R-008486

>  <CR_Set>
Aldehyde

>  <Category>
Aldehydes Aromatic

>  <Reaction type>
RedAm

>  <KI/BB_Nature>
Amine

>  <Comments>


>  <Salt>


>  <CR_Chiral_Form>
Achiral

>  <Prod_total_used>
5

>  <PSR (%)>
60

>  <Article>
4-Fluoro-3-methylbenzaldehyde

>  <CAS>
135427-08-6

>  <Density>
1.132

>  <Prod_reagent_number>


>  <Stereocenters>
0

>  <Edel>


>  <NB_Name reaction - KI/BB – Capping>
01-RedAm_Amine_Aldehyde

$$$$
R-008503
Actelion Java MolfileCreator 2.0

  0  0  0  0  0  0              0 V3000
M  V30 BEGIN CTAB
M  V30 COUNTS 10 10 0 0 0
M  V30 BEGIN ATOM
M  V30 1 O 0.0 0.0 0.0 0
M  V30 2 C -1.4702 0.3293 0.0 0
M  V30 3 C -1.9524 1.7642 0.0 0
M  V30 4 N -3.3874 2.2465 0.0 0
M  V30 5 C -1.1056 2.9875 0.0 0
M  V30 6 C -3.4109 3.752 0.0 0
M  V30 7 N -1.9995 4.2107 0.0 0
M  V30 8 C 0.3528 3.011 0.0 0
M  V30 9 C -4.6341 4.6459 0.0 0
M  V30 10 C -4.5048 6.1397 0.0 0
M  V30 END ATOM
M  V30 BEGIN BOND
M  V30 1 2 1 2
M  V30 2 1 2 3
M  V30 3 1 3 4
M  V30 4 2 3 5
M  V30 5 2 4 6
M  V30 6 1 5 7
M  V30 7 1 5 8
M  V30 8 1 6 9
M  V30 9 1 9 10
M  V30 10 1 6 7
M  V30 END BOND
M  V30 END CTAB
M  END
>  <Dotmatics_CR>
R-008503

>  <CR_Set>
Aldehyde

>  <Category>
Aldehydes Aromatic

>  <Reaction type>
RedAm

>  <KI/BB_Nature>
Amine

>  <Comments>
NH

>  <Salt>


>  <CR_Chiral_Form>
Achiral

>  <Prod_total_used>
21

>  <PSR (%)>
62

>  <Article>
2-Ethyl-4-methyl-1H-imidazole-5-carboxaldehyde

>  <CAS>
88634-80-4

>  <Density>
1

>  <Prod_reagent_number>


>  <Stereocenters>
0

>  <Edel>


>  <NB_Name reaction - KI/BB – Capping>
01-RedAm_Amine_Aldehyde

$$$$
R-008532
Actelion Java MolfileCreator 2.0

  0  0  0  0  0  0              0 V3000
M  V30 BEGIN CTAB
M  V30 COUNTS 10 10 0 0 0
M  V30 BEGIN ATOM
M  V30 1 Cl 0.0 0.0 0.0 0
M  V30 2 C 1.2022 -0.8722 0.0 0
M  V30 3 N 2.6167 -0.3889 0.0 0
M  V30 4 C 1.1787 -2.3574 0.0 0
M  V30 5 N 3.489 -1.5912 0.0 0
M  V30 6 C 3.0528 1.0726 0.0 0
M  V30 7 C 2.5931 -2.7935 0.0 0
M  V30 8 C -0.0707 -3.2296 0.0 0
M  V30 9 C 3.0293 -4.208 0.0 0
M  V30 10 O -1.4734 -2.5931 0.0 0
M  V30 END ATOM
M  V30 BEGIN BOND
M  V30 1 1 1 2
M  V30 2 1 2 3
M  V30 3 2 2 4
M  V30 4 1 3 5
M  V30 5 1 3 6
M  V30 6 1 4 7
M  V30 7 1 4 8
M  V30 8 1 7 9
M  V30 9 2 8 10
M  V30 10 2 5 7
M  V30 END BOND
M  V30 END CTAB
M  END
>  <Dotmatics_CR>
R-008532

>  <CR_Set>
Aldehyde

>  <Category>
Aldehydes Aromatic

>  <Reaction type>
RedAm

>  <KI/BB_Nature>
Amine

>  <Comments>


>  <Salt>


>  <CR_Chiral_Form>
Achiral

>  <Prod_total_used>
89

>  <PSR (%)>
74

>  <Article>
5-Chloro-1,3-dimethyl-1H-pyrazole-4-carboxaldehyde

>  <CAS>
27006-76-4

>  <Density>
1

>  <Prod_reagent_number>


>  <Stereocenters>
0

>  <Edel>


>  <NB_Name reaction - KI/BB – Capping>
01-RedAm_Amine_Aldehyde

$$$$
R-004832
Actelion Java MolfileCreator 2.0

  0  0  0  0  0  0              0 V3000
M  V30 BEGIN CTAB
M  V30 COUNTS 10 10 0 0 0
M  V30 BEGIN ATOM
M  V30 1 O 0.0 0.0 0.0 0
M  V30 2 C 1.2859 -0.7331 0.0 0
M  V30 3 C 1.2619 -2.2234 0.0 0
M  V30 4 C 2.5479 -2.9565 0.0 0
M  V30 5 C -0.0721 -2.9565 0.0 0
M  V30 6 O 3.8339 -2.1753 0.0 0
M  V30 7 N 2.5238 -4.4468 0.0 0
M  V30 8 C -0.0961 -4.4468 0.0 0
M  V30 9 C 3.8098 -0.6369 0.0 0
M  V30 10 C 1.1898 -5.1799 0.0 0
M  V30 END ATOM
M  V30 BEGIN BOND
M  V30 1 2 1 2
M  V30 2 1 2 3
M  V30 3 2 3 4
M  V30 4 1 3 5
M  V30 5 1 4 6
M  V30 6 1 4 7
M  V30 7 2 5 8
M  V30 8 1 6 9
M  V30 9 2 7 10
M  V30 10 1 8 10
M  V30 END BOND
M  V30 END CTAB
M  END
>  <Dotmatics_CR>
R-004832

>  <CR_Set>
Aldehyde

>  <Category>
Aldehydes Aromatic

>  <Reaction type>
RedAm

>  <KI/BB_Nature>
Amine

>  <Comments>


>  <Salt>


>  <CR_Chiral_Form>
Achiral

>  <Prod_total_used>
85

>  <PSR (%)>
91

>  <Article>
2-Methoxy-3-pyridinecarboxaldehyde

>  <CAS>
71255-09-9

>  <Density>
1.161

>  <Prod_reagent_number>


>  <Stereocenters>
0

>  <Edel>


>  <NB_Name reaction - KI/BB – Capping>
01-RedAm_Amine_Aldehyde

$$$$
R-008549
Actelion Java MolfileCreator 2.0

  0  0  0  0  0  0              0 V3000
M  V30 BEGIN CTAB
M  V30 COUNTS 10 10 0 0 0
M  V30 BEGIN ATOM
M  V30 1 O 0.0 0.0 0.0 0
M  V30 2 C -0.0237 -1.4716 0.0 0
M  V30 3 C -1.341 -2.1955 0.0 0
M  V30 4 C -1.3647 -3.6671 0.0 0
M  V30 5 C -2.6583 -1.436 0.0 0
M  V30 6 N -2.6821 -4.391 0.0 0
M  V30 7 C -3.9757 -2.1599 0.0 0
M  V30 8 C -3.9994 -3.6196 0.0 0
M  V30 9 O -5.293 -1.4004 0.0 0
M  V30 10 C -5.3167 0.1186 0.0 0
M  V30 END ATOM
M  V30 BEGIN BOND
M  V30 1 2 1 2
M  V30 2 1 2 3
M  V30 3 2 3 4
M  V30 4 1 3 5
M  V30 5 1 4 6
M  V30 6 2 5 7
M  V30 7 2 6 8
M  V30 8 1 7 9
M  V30 9 1 9 10
M  V30 10 1 7 8
M  V30 END BOND
M  V30 END CTAB
M  END
>  <Dotmatics_CR>
R-008549

>  <CR_Set>
Aldehyde

>  <Category>
Aldehydes Aromatic

>  <Reaction type>
RedAm

>  <KI/BB_Nature>
Amine

>  <Comments>


>  <Salt>


>  <CR_Chiral_Form>
Achiral

>  <Prod_total_used>
151

>  <PSR (%)>
84

>  <Article>
5-Methoxynicotinaldehyde

>  <CAS>
113118-83-5

>  <Density>
1

>  <Prod_reagent_number>


>  <Stereocenters>
0

>  <Edel>


>  <NB_Name reaction - KI/BB – Capping>
01-RedAm_Amine_Aldehyde

$$$$
R-008737
Actelion Java MolfileCreator 2.0

  0  0  0  0  0  0              0 V3000
M  V30 BEGIN CTAB
M  V30 COUNTS 10 10 0 0 0
M  V30 BEGIN ATOM
M  V30 1 O 0.0 0.0 0.0 0
M  V30 2 C 1.1742 0.8924 0.0 0
M  V30 3 C 0.998 2.3953 0.0 0
M  V30 4 C -0.3874 3.0294 0.0 0
M  V30 5 C 2.1722 3.2877 0.0 0
M  V30 6 N -0.5636 4.5324 0.0 0
M  V30 7 C 1.9961 4.7907 0.0 0
M  V30 8 C 0.6105 5.4248 0.0 0
M  V30 9 O 0.4344 6.9278 0.0 0
M  V30 10 C 1.6086 7.8202 0.0 0
M  V30 END ATOM
M  V30 BEGIN BOND
M  V30 1 2 1 2
M  V30 2 1 2 3
M  V30 3 2 3 4
M  V30 4 1 3 5
M  V30 5 1 4 6
M  V30 6 2 5 7
M  V30 7 2 6 8
M  V30 8 1 8 9
M  V30 9 1 9 10
M  V30 10 1 7 8
M  V30 END BOND
M  V30 END CTAB
M  END
>  <Dotmatics_CR>
R-008737

>  <CR_Set>
Aldehyde

>  <Category>
Aldehydes Aromatic

>  <Reaction type>
RedAm

>  <KI/BB_Nature>
Amine

>  <Comments>


>  <Salt>


>  <CR_Chiral_Form>
Achiral

>  <Prod_total_used>
33

>  <PSR (%)>
91

>  <Article>
6-Methoxy-3-pyridinecarboxaldehyde

>  <CAS>
65873-72-5

>  <Density>
1

>  <Prod_reagent_number>


>  <Stereocenters>
0

>  <Edel>


>  <NB_Name reaction - KI/BB – Capping>
01-RedAm_Amine_Aldehyde

$$$$
R-012100
Actelion Java MolfileCreator 2.0

  0  0  0  0  0  0              0 V3000
M  V30 BEGIN CTAB
M  V30 COUNTS 10 10 0 0 0
M  V30 BEGIN ATOM
M  V30 1 O 0.0 0.0 0.0 0
M  V30 2 C -0.0249 1.2825 0.0 0
M  V30 3 C 1.3074 2.0918 0.0 0
M  V30 4 N 1.2825 3.6857 0.0 0
M  V30 5 C 2.6397 1.3198 0.0 0
M  V30 6 C 2.6148 4.495 0.0 0
M  V30 7 C 3.972 2.1292 0.0 0
M  V30 8 C 3.9471 3.723 0.0 0
M  V30 9 O 5.3044 1.3572 0.0 0
M  V30 10 C 5.2795 0.1245 0.0 0
M  V30 END ATOM
M  V30 BEGIN BOND
M  V30 1 2 1 2
M  V30 2 1 2 3
M  V30 3 2 3 4
M  V30 4 1 3 5
M  V30 5 1 4 6
M  V30 6 2 5 7
M  V30 7 2 6 8
M  V30 8 1 7 9
M  V30 9 1 9 10
M  V30 10 1 7 8
M  V30 END BOND
M  V30 END CTAB
M  END
>  <Dotmatics_CR>
R-012100

>  <CR_Set>
Aldehyde

>  <Category>
Aldehydes Aromatic

>  <Reaction type>
RedAm

>  <KI/BB_Nature>
Amine

>  <Comments>


>  <Salt>


>  <CR_Chiral_Form>
Achiral

>  <Prod_total_used>
6

>  <PSR (%)>
83

>  <Article>
4-methoxypyridine-2-carbaldehyde

>  <CAS>
16744-81-3

>  <Density>
1

>  <Prod_reagent_number>


>  <Stereocenters>
0

>  <Edel>


>  <NB_Name reaction - KI/BB – Capping>
01-RedAm_Amine_Aldehyde

$$$$
R-012064
Actelion Java MolfileCreator 2.0

  0  0  0  0  0  0              0 V3000
M  V30 BEGIN CTAB
M  V30 COUNTS 10 10 0 0 0
M  V30 BEGIN ATOM
M  V30 1 O 0.0 0.0 0.0 0
M  V30 2 C 1.05 0.6547 0.0 0
M  V30 3 C 1.0253 2.236 0.0 0
M  V30 4 N -0.3459 3.0267 0.0 0
M  V30 5 C 2.3472 3.0267 0.0 0
M  V30 6 C -0.3706 4.608 0.0 0
M  V30 7 O 3.6691 2.2731 0.0 0
M  V30 8 C 2.3225 4.608 0.0 0
M  V30 9 C 0.9512 5.411 0.0 0
M  V30 10 C 4.7192 2.9278 0.0 0
M  V30 END ATOM
M  V30 BEGIN BOND
M  V30 1 2 1 2
M  V30 2 1 2 3
M  V30 3 2 3 4
M  V30 4 1 3 5
M  V30 5 1 4 6
M  V30 6 1 5 7
M  V30 7 2 5 8
M  V30 8 2 6 9
M  V30 9 1 7 10
M  V30 10 1 8 9
M  V30 END BOND
M  V30 END CTAB
M  END
>  <Dotmatics_CR>
R-012064

>  <CR_Set>
Aldehyde

>  <Category>
Aldehydes Aromatic

>  <Reaction type>
RedAm

>  <KI/BB_Nature>
Amine

>  <Comments>


>  <Salt>


>  <CR_Chiral_Form>
Achiral

>  <Prod_total_used>
8

>  <PSR (%)>
88

>  <Article>
3-methoxypyridine-2-carbaldehyde

>  <CAS>
1849-53-2

>  <Density>
1

>  <Prod_reagent_number>


>  <Stereocenters>
0

>  <Edel>


>  <NB_Name reaction - KI/BB – Capping>
01-RedAm_Amine_Aldehyde

$$$$
R-008492
Actelion Java MolfileCreator 2.0

  0  0  0  0  0  0              0 V3000
M  V30 BEGIN CTAB
M  V30 COUNTS 10 10 0 0 0
M  V30 BEGIN ATOM
M  V30 1 O 0.0 0.0 0.0 0
M  V30 2 C -0.0239 1.5327 0.0 0
M  V30 3 C 1.2573 2.2991 0.0 0
M  V30 4 N 2.5386 1.5687 0.0 0
M  V30 5 C 1.2334 3.8319 0.0 0
M  V30 6 C 3.82 2.3351 0.0 0
M  V30 7 C 2.5147 4.6103 0.0 0
M  V30 8 O 5.1013 1.6046 0.0 0
M  V30 9 C 3.796 3.8679 0.0 0
M  V30 10 C 5.0773 0.1197 0.0 0
M  V30 END ATOM
M  V30 BEGIN BOND
M  V30 1 2 1 2
M  V30 2 1 2 3
M  V30 3 2 3 4
M  V30 4 1 3 5
M  V30 5 1 4 6
M  V30 6 2 5 7
M  V30 7 1 6 8
M  V30 8 2 6 9
M  V30 9 1 8 10
M  V30 10 1 7 9
M  V30 END BOND
M  V30 END CTAB
M  END
>  <Dotmatics_CR>
R-008492

>  <CR_Set>
Aldehyde

>  <Category>
Aldehydes Aromatic

>  <Reaction type>
RedAm

>  <KI/BB_Nature>
Amine

>  <Comments>


>  <Salt>


>  <CR_Chiral_Form>
Achiral

>  <Prod_total_used>
82

>  <PSR (%)>
79

>  <Article>
6-Methoxy-2-pyridinecarboxaldehyde

>  <CAS>
54221-96-4

>  <Density>
1.14

>  <Prod_reagent_number>


>  <Stereocenters>
0

>  <Edel>


>  <NB_Name reaction - KI/BB – Capping>
01-RedAm_Amine_Aldehyde

$$$$
R-011958
Actelion Java MolfileCreator 2.0

  0  0  0  0  0  0              0 V3000
M  V30 BEGIN CTAB
M  V30 COUNTS 10 10 0 0 0
M  V30 BEGIN ATOM
M  V30 1 O 0.0 0.0 0.0 0
M  V30 2 C -1.0943 -0.6025 0.0 0
M  V30 3 C -2.4593 0.1967 0.0 0
M  V30 4 C -3.8242 -0.5533 0.0 0
M  V30 5 C -2.4839 1.7707 0.0 0
M  V30 6 C -3.8488 -2.0781 0.0 0
M  V30 7 C -5.1891 0.2336 0.0 0
M  V30 8 C -3.8488 2.5699 0.0 0
M  V30 9 N -3.8734 -3.2954 0.0 0
M  V30 10 C -5.2137 1.8075 0.0 0
M  V30 END ATOM
M  V30 BEGIN BOND
M  V30 1 2 1 2
M  V30 2 1 2 3
M  V30 3 2 3 4
M  V30 4 1 3 5
M  V30 5 1 4 6
M  V30 6 1 4 7
M  V30 7 2 5 8
M  V30 8 3 6 9
M  V30 9 2 7 10
M  V30 10 1 8 10
M  V30 END BOND
M  V30 END CTAB
M  END
>  <Dotmatics_CR>
R-011958

>  <CR_Set>
Aldehyde

>  <Category>
Aldehydes Aromatic

>  <Reaction type>
RedAm

>  <KI/BB_Nature>
Amine

>  <Comments>


>  <Salt>


>  <CR_Chiral_Form>
Achiral

>  <Prod_total_used>
16

>  <PSR (%)>
100

>  <Article>
2-formylbenzonitrile

>  <CAS>
7468-67-9

>  <Density>
1

>  <Prod_reagent_number>


>  <Stereocenters>
0

>  <Edel>


>  <NB_Name reaction - KI/BB – Capping>
01-RedAm_Amine_Aldehyde

$$$$
R-002199
Actelion Java MolfileCreator 2.0

  0  0  0  0  0  0              0 V3000
M  V30 BEGIN CTAB
M  V30 COUNTS 10 10 0 0 0
M  V30 BEGIN ATOM
M  V30 1 O 0.0 0.0 0.0 0
M  V30 2 C -1.3148 0.7795 0.0 0
M  V30 3 C -2.6296 0.0465 0.0 0
M  V30 4 C -2.6529 -1.4195 0.0 0
M  V30 5 C -3.9444 0.8261 0.0 0
M  V30 6 C -3.9677 -2.1293 0.0 0
M  V30 7 C -5.2593 0.1047 0.0 0
M  V30 8 C -5.2825 -1.3613 0.0 0
M  V30 9 C -6.5974 -2.0711 0.0 0
M  V30 10 N -7.9122 -2.7809 0.0 0
M  V30 END ATOM
M  V30 BEGIN BOND
M  V30 1 2 1 2
M  V30 2 1 2 3
M  V30 3 2 3 4
M  V30 4 1 3 5
M  V30 5 1 4 6
M  V30 6 2 5 7
M  V30 7 2 6 8
M  V30 8 1 8 9
M  V30 9 3 9 10
M  V30 10 1 7 8
M  V30 END BOND
M  V30 END CTAB
M  END
>  <Dotmatics_CR>
R-002199

>  <CR_Set>
Aldehyde

>  <Category>
Aldehydes Aromatic

>  <Reaction type>
RedAm

>  <KI/BB_Nature>
Amine

>  <Comments>


>  <Salt>


>  <CR_Chiral_Form>
Achiral

>  <Prod_total_used>
8

>  <PSR (%)>
63

>  <Article>
4-CYANOBENZALDEHYDE

>  <CAS>
105-07-7

>  <Density>
1

>  <Prod_reagent_number>


>  <Stereocenters>
0

>  <Edel>


>  <NB_Name reaction - KI/BB – Capping>
01-RedAm_Amine_Aldehyde

$$$$
R-000276
Actelion Java MolfileCreator 2.0

  0  0  0  0  0  0              0 V3000
M  V30 BEGIN CTAB
M  V30 COUNTS 11 12 0 0 0
M  V30 BEGIN ATOM
M  V30 1 O 0.0 0.0 0.0 0
M  V30 2 C 0.8846 1.2385 0.0 0
M  V30 3 C 2.3708 1.0969 0.0 0
M  V30 4 O 3.3852 2.2411 0.0 0
M  V30 5 C 3.1021 -0.1769 0.0 0
M  V30 6 C 4.7299 1.6513 0.0 0
M  V30 7 C 4.5412 0.1415 0.0 0
M  V30 8 C 6.0982 2.2765 0.0 0
M  V30 9 C 5.7443 -0.7313 0.0 0
M  V30 10 C 7.3131 1.4036 0.0 0
M  V30 11 C 7.1244 -0.1061 0.0 0
M  V30 END ATOM
M  V30 BEGIN BOND
M  V30 1 2 1 2
M  V30 2 1 2 3
M  V30 3 1 3 4
M  V30 4 2 3 5
M  V30 5 1 4 6
M  V30 6 1 5 7
M  V30 7 1 6 8
M  V30 8 1 7 9
M  V30 9 2 8 10
M  V30 10 2 9 11
M  V30 11 2 6 7
M  V30 12 1 10 11
M  V30 END BOND
M  V30 END CTAB
M  END
>  <Dotmatics_CR>
R-000276

>  <CR_Set>
Aldehyde

>  <Category>
Aldehydes Aromatic

>  <Reaction type>
RedAm

>  <KI/BB_Nature>
Amine

>  <Comments>


>  <Salt>


>  <CR_Chiral_Form>
Achiral

>  <Prod_total_used>
6

>  <PSR (%)>
83

>  <Article>
BENZO[b]FURAN-2-CARBOXALDEHYDE

>  <CAS>
4265-16-1

>  <Density>
1.206

>  <Prod_reagent_number>


>  <Stereocenters>
0

>  <Edel>


>  <NB_Name reaction - KI/BB – Capping>
01-RedAm_Amine_Aldehyde

$$$$
R-011302
Actelion Java MolfileCreator 2.0

  0  0  0  0  0  0              0 V3000
M  V30 BEGIN CTAB
M  V30 COUNTS 11 12 0 0 0
M  V30 BEGIN ATOM
M  V30 1 S 0.0 0.0 0.0 0
M  V30 2 C -1.4471 -0.4317 0.0 0
M  V30 3 C 0.8635 -1.1903 0.0 0
M  V30 4 C -1.4704 -1.9022 0.0 0
M  V30 5 C -2.7658 0.3384 0.0 0
M  V30 6 C -0.0466 -2.3807 0.0 0
M  V30 7 C -2.7891 -2.6141 0.0 0
M  V30 8 C -4.0845 -0.3734 0.0 0
M  V30 9 C -4.1079 -1.8438 0.0 0
M  V30 10 C -5.4266 -2.5557 0.0 0
M  V30 11 O -6.7453 -1.7855 0.0 0
M  V30 END ATOM
M  V30 BEGIN BOND
M  V30 1 1 1 2
M  V30 2 1 1 3
M  V30 3 2 2 4
M  V30 4 1 2 5
M  V30 5 2 3 6
M  V30 6 1 4 7
M  V30 7 2 5 8
M  V30 8 2 7 9
M  V30 9 1 9 10
M  V30 10 2 10 11
M  V30 11 1 4 6
M  V30 12 1 8 9
M  V30 END BOND
M  V30 END CTAB
M  END
>  <Dotmatics_CR>
R-011302

>  <CR_Set>
Aldehyde

>  <Category>
Aldehydes Aromatic

>  <Reaction type>
RedAm

>  <KI/BB_Nature>
Amine

>  <Comments>


>  <Salt>


>  <CR_Chiral_Form>
Achiral

>  <Prod_total_used>
8

>  <PSR (%)>
88

>  <Article>
Benzo[b]thiophene-5-carbaldehyde

>  <CAS>
10133-30-9

>  <Density>


>  <Prod_reagent_number>


>  <Stereocenters>
0

>  <Edel>


>  <NB_Name reaction - KI/BB – Capping>
01-RedAm_Amine_Aldehyde

$$$$
R-010359
Actelion Java MolfileCreator 2.0

  0  0  0  0  0  0              0 V3000
M  V30 BEGIN CTAB
M  V30 COUNTS 11 12 0 0 0
M  V30 BEGIN ATOM
M  V30 1 O 0.0 0.0 0.0 0
M  V30 2 C 1.2948 -0.7246 0.0 0
M  V30 3 C 1.2711 -2.2214 0.0 0
M  V30 4 C 2.5659 -2.9461 0.0 0
M  V30 5 C -0.0712 -2.9461 0.0 0
M  V30 6 O 3.9915 -2.459 0.0 0
M  V30 7 C 2.5422 -4.4429 0.0 0
M  V30 8 C -0.095 -4.4429 0.0 0
M  V30 9 C 4.8706 -3.6708 0.0 0
M  V30 10 O 3.9677 -4.8825 0.0 0
M  V30 11 C 1.1998 -5.1676 0.0 0
M  V30 END ATOM
M  V30 BEGIN BOND
M  V30 1 2 1 2
M  V30 2 1 2 3
M  V30 3 2 3 4
M  V30 4 1 3 5
M  V30 5 1 4 6
M  V30 6 1 4 7
M  V30 7 2 5 8
M  V30 8 1 6 9
M  V30 9 1 7 10
M  V30 10 2 7 11
M  V30 11 1 8 11
M  V30 12 1 9 10
M  V30 END BOND
M  V30 END CTAB
M  END
>  <Dotmatics_CR>
R-010359

>  <CR_Set>
Aldehyde

>  <Category>
Aldehydes Aromatic

>  <Reaction type>
RedAm

>  <KI/BB_Nature>
Amine

>  <Comments>


>  <Salt>


>  <CR_Chiral_Form>
Achiral

>  <Prod_total_used>
26

>  <PSR (%)>
92

>  <Article>
2,3-(Methylenedioxy)benzaldehyde

>  <CAS>
7797-83-3

>  <Density>
1.312

>  <Prod_reagent_number>


>  <Stereocenters>
0

>  <Edel>


>  <NB_Name reaction - KI/BB – Capping>
01-RedAm_Amine_Aldehyde

$$$$
R-006232
Actelion Java MolfileCreator 2.0

  0  0  0  0  0  0              0 V3000
M  V30 BEGIN CTAB
M  V30 COUNTS 11 12 0 0 0
M  V30 BEGIN ATOM
M  V30 1 O 0.0 0.0 0.0 0
M  V30 2 C 1.2902 -0.7338 0.0 0
M  V30 3 C 1.2665 -2.2253 0.0 0
M  V30 4 C -0.071 -2.9592 0.0 0
M  V30 5 C 2.5567 -2.9592 0.0 0
M  V30 6 C -0.0946 -4.4507 0.0 0
M  V30 7 C 2.5331 -4.4507 0.0 0
M  V30 8 O -1.2428 -5.445 0.0 0
M  V30 9 C 1.1955 -5.1846 0.0 0
M  V30 10 C -0.651 -6.8062 0.0 0
M  V30 11 O 0.8641 -6.6405 0.0 0
M  V30 END ATOM
M  V30 BEGIN BOND
M  V30 1 2 1 2
M  V30 2 1 2 3
M  V30 3 2 3 4
M  V30 4 1 3 5
M  V30 5 1 4 6
M  V30 6 2 5 7
M  V30 7 1 6 8
M  V30 8 2 6 9
M  V30 9 1 8 10
M  V30 10 1 9 11
M  V30 11 1 7 9
M  V30 12 1 10 11
M  V30 END BOND
M  V30 END CTAB
M  END
>  <Dotmatics_CR>
R-006232

>  <CR_Set>
Aldehyde

>  <Category>
Aldehydes Aromatic

>  <Reaction type>
RedAm

>  <KI/BB_Nature>
Amine

>  <Comments>


>  <Salt>


>  <CR_Chiral_Form>
Achiral

>  <Prod_total_used>
9

>  <PSR (%)>
89

>  <Article>
piperonal

>  <CAS>
120-57-0

>  <Density>


>  <Prod_reagent_number>


>  <Stereocenters>
0

>  <Edel>


>  <NB_Name reaction - KI/BB – Capping>
01-RedAm_Amine_Aldehyde

$$$$
R-010287
Actelion Java MolfileCreator 2.0

  0  0  0  0  0  0              0 V3000
M  V30 BEGIN CTAB
M  V30 COUNTS 11 12 0 0 0
M  V30 BEGIN ATOM
M  V30 1 O 0.0 0.0 0.0 0
M  V30 2 C 0.9826 -1.0879 0.0 0
M  V30 3 C 0.503 -2.4917 0.0 0
M  V30 4 C -0.9475 -2.9245 0.0 0
M  V30 5 C 1.3687 -3.6849 0.0 0
M  V30 6 C -0.9709 -4.3985 0.0 0
M  V30 7 C -2.2694 -2.1408 0.0 0
M  V30 8 N 0.4562 -4.8782 0.0 0
M  V30 9 N -2.2928 -5.1355 0.0 0
M  V30 10 C -3.5914 -2.8778 0.0 0
M  V30 11 C -3.6148 -4.3634 0.0 0
M  V30 END ATOM
M  V30 BEGIN BOND
M  V30 1 2 1 2
M  V30 2 1 2 3
M  V30 3 1 3 4
M  V30 4 2 3 5
M  V30 5 2 4 6
M  V30 6 1 4 7
M  V30 7 1 5 8
M  V30 8 1 6 9
M  V30 9 2 7 10
M  V30 10 2 9 11
M  V30 11 1 6 8
M  V30 12 1 10 11
M  V30 END BOND
M  V30 END CTAB
M  END
>  <Dotmatics_CR>
R-010287

>  <CR_Set>
Aldehyde

>  <Category>
Aldehydes Aromatic

>  <Reaction type>
RedAm

>  <KI/BB_Nature>
Amine

>  <Comments>
NH

>  <Salt>


>  <CR_Chiral_Form>
Achiral

>  <Prod_total_used>
16

>  <PSR (%)>
88

>  <Article>
7-Azaindole-3-carboxaldehyde

>  <CAS>
4649-09-6

>  <Density>
1

>  <Prod_reagent_number>


>  <Stereocenters>
0

>  <Edel>


>  <NB_Name reaction - KI/BB – Capping>
01-RedAm_Amine_Aldehyde

$$$$
R-011318
Actelion Java MolfileCreator 2.0

  0  0  0  0  0  0              0 V3000
M  V30 BEGIN CTAB
M  V30 COUNTS 11 12 0 0 0
M  V30 BEGIN ATOM
M  V30 1 O 0.0 0.0 0.0 0
M  V30 2 C 0.9848 -1.0903 0.0 0
M  V30 3 C 0.5041 -2.4973 0.0 0
M  V30 4 C -0.9496 -2.9311 0.0 0
M  V30 5 C 1.3717 -3.6932 0.0 0
M  V30 6 C -0.9731 -4.4084 0.0 0
M  V30 7 C -2.2745 -2.1573 0.0 0
M  V30 8 N 0.4572 -4.8891 0.0 0
M  V30 9 C -2.298 -5.1236 0.0 0
M  V30 10 C -3.5994 -2.8725 0.0 0
M  V30 11 N -3.6228 -4.3497 0.0 0
M  V30 END ATOM
M  V30 BEGIN BOND
M  V30 1 2 1 2
M  V30 2 1 2 3
M  V30 3 1 3 4
M  V30 4 2 3 5
M  V30 5 2 4 6
M  V30 6 1 4 7
M  V30 7 1 5 8
M  V30 8 1 6 9
M  V30 9 2 7 10
M  V30 10 2 9 11
M  V30 11 1 6 8
M  V30 12 1 10 11
M  V30 END BOND
M  V30 END CTAB
M  END
>  <Dotmatics_CR>
R-011318

>  <CR_Set>
Aldehyde

>  <Category>
Aldehydes Aromatic

>  <Reaction type>
RedAm

>  <KI/BB_Nature>
Amine

>  <Comments>
NH

>  <Salt>


>  <CR_Chiral_Form>
Achiral

>  <Prod_total_used>
20

>  <PSR (%)>
65

>  <Article>
1H-Pyrrolo[2,3-c]pyridine-3-carbaldehyde

>  <CAS>
25957-65-7

>  <Density>
1

>  <Prod_reagent_number>


>  <Stereocenters>
0

>  <Edel>


>  <NB_Name reaction - KI/BB – Capping>
01-RedAm_Amine_Aldehyde

$$$$
R-011310
Actelion Java MolfileCreator 2.0

  0  0  0  0  0  0              0 V3000
M  V30 BEGIN CTAB
M  V30 COUNTS 11 12 0 0 0
M  V30 BEGIN ATOM
M  V30 1 O 0.0 0.0 0.0 0
M  V30 2 C -1.0212 1.1281 0.0 0
M  V30 3 C -0.5818 2.5768 0.0 0
M  V30 4 C 0.8193 3.0637 0.0 0
M  V30 5 C -1.4843 3.8118 0.0 0
M  V30 6 C 0.7956 4.5837 0.0 0
M  V30 7 C 2.09 2.3275 0.0 0
M  V30 8 N -0.6293 5.0468 0.0 0
M  V30 9 C 2.0662 5.3556 0.0 0
M  V30 10 N 3.3606 3.0993 0.0 0
M  V30 11 C 3.3368 4.6193 0.0 0
M  V30 END ATOM
M  V30 BEGIN BOND
M  V30 1 2 1 2
M  V30 2 1 2 3
M  V30 3 1 3 4
M  V30 4 2 3 5
M  V30 5 2 4 6
M  V30 6 1 4 7
M  V30 7 1 5 8
M  V30 8 1 6 9
M  V30 9 2 7 10
M  V30 10 2 9 11
M  V30 11 1 6 8
M  V30 12 1 10 11
M  V30 END BOND
M  V30 END CTAB
M  END
>  <Dotmatics_CR>
R-011310

>  <CR_Set>
Aldehyde

>  <Category>
Aldehydes Aromatic

>  <Reaction type>
RedAm

>  <KI/BB_Nature>
Amine

>  <Comments>
NH

>  <Salt>


>  <CR_Chiral_Form>
Achiral

>  <Prod_total_used>
8

>  <PSR (%)>
63

>  <Article>
1H-Pyrrolo[3,2-c]pyridine-3-carbaldehyde

>  <CAS>
933717-10-3

>  <Density>


>  <Prod_reagent_number>


>  <Stereocenters>
0

>  <Edel>


>  <NB_Name reaction - KI/BB – Capping>
01-RedAm_Amine_Aldehyde

$$$$
R-009816
Actelion Java MolfileCreator 2.0

  0  0  0  0  0  0              0 V3000
M  V30 BEGIN CTAB
M  V30 COUNTS 11 12 0 0 0
M  V30 BEGIN ATOM
M  V30 1 O 0.0 0.0 0.0 0
M  V30 2 C -1.3154 0.7584 0.0 0
M  V30 3 C -1.3391 2.2753 0.0 0
M  V30 4 C -0.0711 3.0338 0.0 0
M  V30 5 C -2.6545 3.0338 0.0 0
M  V30 6 N 1.3272 2.5953 0.0 0
M  V30 7 C -0.0948 4.5507 0.0 0
M  V30 8 C -2.6782 4.5507 0.0 0
M  V30 9 C 2.1805 3.8278 0.0 0
M  V30 10 C -1.4102 5.3091 0.0 0
M  V30 11 C 1.3035 5.0365 0.0 0
M  V30 END ATOM
M  V30 BEGIN BOND
M  V30 1 2 1 2
M  V30 2 1 2 3
M  V30 3 2 3 4
M  V30 4 1 3 5
M  V30 5 1 4 6
M  V30 6 1 4 7
M  V30 7 2 5 8
M  V30 8 1 6 9
M  V30 9 2 7 10
M  V30 10 1 7 11
M  V30 11 1 8 10
M  V30 12 2 9 11
M  V30 END BOND
M  V30 END CTAB
M  END
>  <Dotmatics_CR>
R-009816

>  <CR_Set>
Aldehyde

>  <Category>
Aldehydes Aromatic

>  <Reaction type>
RedAm

>  <KI/BB_Nature>
Amine

>  <Comments>
NH

>  <Salt>


>  <CR_Chiral_Form>
Achiral

>  <Prod_total_used>
25

>  <PSR (%)>
88

>  <Article>
Indole-7-carboxaldehyde

>  <CAS>
1074-88-0

>  <Density>
1

>  <Prod_reagent_number>


>  <Stereocenters>
0

>  <Edel>


>  <NB_Name reaction - KI/BB – Capping>
01-RedAm_Amine_Aldehyde

$$$$
R-002921
Actelion Java MolfileCreator 2.0

  0  0  0  0  0  0              0 V3000
M  V30 BEGIN CTAB
M  V30 COUNTS 11 12 0 0 0
M  V30 BEGIN ATOM
M  V30 1 O 0.0 0.0 0.0 0
M  V30 2 C -1.2149 0.7782 0.0 0
M  V30 3 C -2.8094 -0.0189 0.0 0
M  V30 4 C -5.2392 0.0189 0.0 0
M  V30 5 C -2.8474 -1.3288 0.0 0
M  V30 6 C -5.2772 -1.2908 0.0 0
M  V30 7 C -6.4731 0.7403 0.0 0
M  V30 8 N -4.0623 -1.9742 0.0 0
M  V30 9 C -6.5111 -1.9362 0.0 0
M  V30 10 C -7.707 0.0949 0.0 0
M  V30 11 C -7.745 -1.2149 0.0 0
M  V30 END ATOM
M  V30 BEGIN BOND
M  V30 1 2 1 2
M  V30 2 1 2 3
M  V30 3 1 3 4
M  V30 4 2 3 5
M  V30 5 2 4 6
M  V30 6 1 4 7
M  V30 7 1 5 8
M  V30 8 1 6 9
M  V30 9 2 7 10
M  V30 10 2 9 11
M  V30 11 1 6 8
M  V30 12 1 10 11
M  V30 END BOND
M  V30 END CTAB
M  END
>  <Dotmatics_CR>
R-002921

>  <CR_Set>
Aldehyde

>  <Category>
Aldehydes Aromatic

>  <Reaction type>
RedAm

>  <KI/BB_Nature>
Amine

>  <Comments>
NH

>  <Salt>


>  <CR_Chiral_Form>
Achiral

>  <Prod_total_used>
14

>  <PSR (%)>
86

>  <Article>
INDOLE-3-ALDEHYDE

>  <CAS>
487-89-8

>  <Density>
1

>  <Prod_reagent_number>


>  <Stereocenters>
0

>  <Edel>


>  <NB_Name reaction - KI/BB – Capping>
01-RedAm_Amine_Aldehyde

$$$$
R-011841
Actelion Java MolfileCreator 2.0

  0  0  0  0  0  0              0 V3000
M  V30 BEGIN CTAB
M  V30 COUNTS 11 12 0 0 0
M  V30 BEGIN ATOM
M  V30 1 O 0.0 0.0 0.0 0
M  V30 2 C -0.4085 1.1777 0.0 0
M  V30 3 C 0.5768 2.3194 0.0 0
M  V30 4 C 0.2403 3.8216 0.0 0
M  V30 5 C 2.055 2.1872 0.0 0
M  V30 6 N -1.0936 4.6027 0.0 0
M  V30 7 N 1.5262 4.6027 0.0 0
M  V30 8 N 2.6558 3.5932 0.0 0
M  V30 9 C -1.1176 6.141 0.0 0
M  V30 10 C 1.5022 6.141 0.0 0
M  V30 11 C 0.1682 6.9221 0.0 0
M  V30 END ATOM
M  V30 BEGIN BOND
M  V30 1 2 1 2
M  V30 2 1 2 3
M  V30 3 2 3 4
M  V30 4 1 3 5
M  V30 5 1 4 6
M  V30 6 1 4 7
M  V30 7 2 5 8
M  V30 8 2 6 9
M  V30 9 1 7 10
M  V30 10 1 9 11
M  V30 11 1 7 8
M  V30 12 2 10 11
M  V30 END BOND
M  V30 END CTAB
M  END
>  <Dotmatics_CR>
R-011841

>  <CR_Set>
Aldehyde

>  <Category>
Aldehydes Aromatic

>  <Reaction type>
RedAm

>  <KI/BB_Nature>
Amine

>  <Comments>


>  <Salt>


>  <CR_Chiral_Form>
Achiral

>  <Prod_total_used>
6

>  <PSR (%)>
67

>  <Article>
pyrazolo[1,5-a]pyrimidine-3-carbaldehyde

>  <CAS>
879072-59-0

>  <Density>
1

>  <Prod_reagent_number>


>  <Stereocenters>
0

>  <Edel>


>  <NB_Name reaction - KI/BB – Capping>
01-RedAm_Amine_Aldehyde

$$$$
R-005690
Actelion Java MolfileCreator 2.0

  0  0  0  0  0  0              0 V3000
M  V30 BEGIN CTAB
M  V30 COUNTS 11 11 0 0 0
M  V30 BEGIN ATOM
M  V30 1 O 0.0 0.0 0.0 0
M  V30 2 C -0.0233 -1.4716 0.0 0
M  V30 3 C -1.3431 -2.1841 0.0 0
M  V30 4 C -1.3665 -3.6557 0.0 0
M  V30 5 C -2.6629 -1.4132 0.0 0
M  V30 6 C -2.6863 -4.3682 0.0 0
M  V30 7 C -3.9827 -2.1257 0.0 0
M  V30 8 C -4.0061 -3.5973 0.0 0
M  V30 9 O -5.3259 -4.3098 0.0 0
M  V30 10 C -6.6457 -3.5389 0.0 0
M  V30 11 C -7.9655 -4.2514 0.0 0
M  V30 END ATOM
M  V30 BEGIN BOND
M  V30 1 2 1 2
M  V30 2 1 2 3
M  V30 3 2 3 4
M  V30 4 1 3 5
M  V30 5 1 4 6
M  V30 6 2 5 7
M  V30 7 2 6 8
M  V30 8 1 8 9
M  V30 9 1 9 10
M  V30 10 1 10 11
M  V30 11 1 7 8
M  V30 END BOND
M  V30 END CTAB
M  END
>  <Dotmatics_CR>
R-005690

>  <CR_Set>
Aldehyde

>  <Category>
Aldehydes Aromatic

>  <Reaction type>
RedAm

>  <KI/BB_Nature>
Amine

>  <Comments>


>  <Salt>


>  <CR_Chiral_Form>
Achiral

>  <Prod_total_used>
43

>  <PSR (%)>
88

>  <Article>
4-ETHOXYBENZALDEHYDE

>  <CAS>
10031-82-0

>  <Density>
1.08

>  <Prod_reagent_number>


>  <Stereocenters>
0

>  <Edel>


>  <NB_Name reaction - KI/BB – Capping>
01-RedAm_Amine_Aldehyde

$$$$
R-004941
Actelion Java MolfileCreator 2.0

  0  0  0  0  0  0              0 V3000
M  V30 BEGIN CTAB
M  V30 COUNTS 11 11 0 0 0
M  V30 BEGIN ATOM
M  V30 1 O 0.0 0.0 0.0 0
M  V30 2 C -0.0236 1.5137 0.0 0
M  V30 3 C -1.3363 2.2706 0.0 0
M  V30 4 O -2.649 1.5492 0.0 0
M  V30 5 C -3.9618 2.3061 0.0 0
M  V30 6 C -5.2745 1.5847 0.0 0
M  V30 7 C -6.5872 2.3416 0.0 0
M  V30 8 C -5.2981 0.1182 0.0 0
M  V30 9 C -7.8999 1.6202 0.0 0
M  V30 10 C -6.6109 -0.6031 0.0 0
M  V30 11 C -7.9236 0.1537 0.0 0
M  V30 END ATOM
M  V30 BEGIN BOND
M  V30 1 2 1 2
M  V30 2 1 2 3
M  V30 3 1 3 4
M  V30 4 1 4 5
M  V30 5 1 5 6
M  V30 6 2 6 7
M  V30 7 1 6 8
M  V30 8 1 7 9
M  V30 9 2 8 10
M  V30 10 2 9 11
M  V30 11 1 10 11
M  V30 END BOND
M  V30 END CTAB
M  END
>  <Dotmatics_CR>
R-004941

>  <CR_Set>
Aldehyde

>  <Category>
Aldehydes Non-Aromatic

>  <Reaction type>
RedAm

>  <KI/BB_Nature>
Amine

>  <Comments>


>  <Salt>


>  <CR_Chiral_Form>
Achiral

>  <Prod_total_used>
21

>  <PSR (%)>
71

>  <Article>
BENZYLOXY ACETALDEHYDE

>  <CAS>
60656-87-3

>  <Density>
1.069

>  <Prod_reagent_number>


>  <Stereocenters>
0

>  <Edel>


>  <NB_Name reaction - KI/BB – Capping>
01-RedAm_Amine_Aldehyde

$$$$
R-005938
Actelion Java MolfileCreator 2.0

  0  0  0  0  0  0              0 V3000
M  V30 BEGIN CTAB
M  V30 COUNTS 11 11 0 0 0
M  V30 BEGIN ATOM
M  V30 1 F 0.0 0.0 0.0 0
M  V30 2 C -1.3047 0.7522 0.0 0
M  V30 3 C -1.3282 2.2568 0.0 0
M  V30 4 C -2.6094 0.0352 0.0 0
M  V30 5 C -2.6329 3.0208 0.0 0
M  V30 6 C -0.0705 3.0208 0.0 0
M  V30 7 C -3.9142 0.7875 0.0 0
M  V30 8 C -3.9377 2.3038 0.0 0
M  V30 9 O -0.094 4.5254 0.0 0
M  V30 10 O -5.2424 3.0678 0.0 0
M  V30 11 C -6.5471 2.3508 0.0 0
M  V30 END ATOM
M  V30 BEGIN BOND
M  V30 1 1 1 2
M  V30 2 2 2 3
M  V30 3 1 2 4
M  V30 4 1 3 5
M  V30 5 1 3 6
M  V30 6 2 4 7
M  V30 7 2 5 8
M  V30 8 2 6 9
M  V30 9 1 8 10
M  V30 10 1 10 11
M  V30 11 1 7 8
M  V30 END BOND
M  V30 END CTAB
M  END
>  <Dotmatics_CR>
R-005938

>  <CR_Set>
Aldehyde

>  <Category>
Aldehydes Aromatic

>  <Reaction type>
RedAm

>  <KI/BB_Nature>
Amine

>  <Comments>


>  <Salt>


>  <CR_Chiral_Form>
Achiral

>  <Prod_total_used>
39

>  <PSR (%)>
90

>  <Article>
2-FLUORO-5-METHOXY-BENZALDEHYDE

>  <CAS>
105728-90-3

>  <Density>
1.237

>  <Prod_reagent_number>


>  <Stereocenters>
0

>  <Edel>


>  <NB_Name reaction - KI/BB – Capping>
01-RedAm_Amine_Aldehyde

$$$$
R-009250
Actelion Java MolfileCreator 2.0

  0  0  0  0  0  0              0 V3000
M  V30 BEGIN CTAB
M  V30 COUNTS 11 11 0 0 0
M  V30 BEGIN ATOM
M  V30 1 S 0.0 0.0 0.0 0
M  V30 2 C 0.8465 1.2228 0.0 0
M  V30 3 C -1.4345 0.482 0.0 0
M  V30 4 C -0.047 2.4457 0.0 0
M  V30 5 C 2.3046 1.2463 0.0 0
M  V30 6 C -1.458 1.9871 0.0 0
M  V30 7 O 3.0336 2.5515 0.0 0
M  V30 8 C -2.6808 2.8807 0.0 0
M  V30 9 C -3.9037 3.7744 0.0 0
M  V30 10 C -5.1266 4.668 0.0 0
M  V30 11 O -4.9972 6.1613 0.0 0
M  V30 END ATOM
M  V30 BEGIN BOND
M  V30 1 1 1 2
M  V30 2 1 1 3
M  V30 3 2 2 4
M  V30 4 1 2 5
M  V30 5 2 3 6
M  V30 6 2 5 7
M  V30 7 1 6 8
M  V30 8 3 8 9
M  V30 9 1 9 10
M  V30 10 1 10 11
M  V30 11 1 4 6
M  V30 END BOND
M  V30 END CTAB
M  END
>  <Dotmatics_CR>
R-009250

>  <CR_Set>
Aldehyde

>  <Category>
Aldehydes Aromatic

>  <Reaction type>
RedAm

>  <KI/BB_Nature>
Amine

>  <Comments>
OH

>  <Salt>


>  <CR_Chiral_Form>
Achiral

>  <Prod_total_used>
23

>  <PSR (%)>
70

>  <Article>
4-(3-Hydroxyprop-1-yn-1-yl)thiophene-2-carbaldehyde

>  <CAS>
887405-37-0

>  <Density>
1

>  <Prod_reagent_number>


>  <Stereocenters>
0

>  <Edel>


>  <NB_Name reaction - KI/BB – Capping>
01-RedAm_Amine_Aldehyde

$$$$
R-008218
Actelion Java MolfileCreator 2.0

  0  0  0  0  0  0              0 V3000
M  V30 BEGIN CTAB
M  V30 COUNTS 11 11 0 0 0
M  V30 BEGIN ATOM
M  V30 1 O 0.0 0.0 0.0 0
M  V30 2 C -1.3159 0.7706 0.0 0
M  V30 3 C -2.6319 0.0474 0.0 0
M  V30 4 C -3.9479 0.818 0.0 0
M  V30 5 C -2.6556 -1.4226 0.0 0
M  V30 6 C -5.2639 0.0948 0.0 0
M  V30 7 C -3.9716 2.3355 0.0 0
M  V30 8 C -3.9716 -2.1458 0.0 0
M  V30 9 C -1.3871 -2.1458 0.0 0
M  V30 10 C -5.2876 -1.3752 0.0 0
M  V30 11 C -6.6036 -2.0984 0.0 0
M  V30 END ATOM
M  V30 BEGIN BOND
M  V30 1 2 1 2
M  V30 2 1 2 3
M  V30 3 2 3 4
M  V30 4 1 3 5
M  V30 5 1 4 6
M  V30 6 1 4 7
M  V30 7 2 5 8
M  V30 8 1 5 9
M  V30 9 2 6 10
M  V30 10 1 10 11
M  V30 11 1 8 10
M  V30 END BOND
M  V30 END CTAB
M  END
>  <Dotmatics_CR>
R-008218

>  <CR_Set>
Aldehyde

>  <Category>
Aldehydes Aromatic

>  <Reaction type>
RedAm

>  <KI/BB_Nature>
Amine

>  <Comments>


>  <Salt>


>  <CR_Chiral_Form>
Achiral

>  <Prod_total_used>
23

>  <PSR (%)>
83

>  <Article>
Mesitaldehyde

>  <CAS>
487-68-3

>  <Density>
1.005

>  <Prod_reagent_number>


>  <Stereocenters>
0

>  <Edel>


>  <NB_Name reaction - KI/BB – Capping>
01-RedAm_Amine_Aldehyde

$$$$
R-008488
Actelion Java MolfileCreator 2.0

  0  0  0  0  0  0              0 V3000
M  V30 BEGIN CTAB
M  V30 COUNTS 11 11 0 0 0
M  V30 BEGIN ATOM
M  V30 1 F 0.0 0.0 0.0 0
M  V30 2 C -1.3159 -0.7231 0.0 0
M  V30 3 C -2.6319 0.0474 0.0 0
M  V30 4 C -1.3396 -2.1933 0.0 0
M  V30 5 F -2.6556 1.5649 0.0 0
M  V30 6 C -3.9479 -0.6757 0.0 0
M  V30 7 F -0.0711 -2.9165 0.0 0
M  V30 8 C -2.6556 -2.9165 0.0 0
M  V30 9 C -3.9716 -2.1458 0.0 0
M  V30 10 C -5.2876 -2.869 0.0 0
M  V30 11 O -6.6036 -2.0984 0.0 0
M  V30 END ATOM
M  V30 BEGIN BOND
M  V30 1 1 1 2
M  V30 2 2 2 3
M  V30 3 1 2 4
M  V30 4 1 3 5
M  V30 5 1 3 6
M  V30 6 1 4 7
M  V30 7 2 4 8
M  V30 8 2 6 9
M  V30 9 1 9 10
M  V30 10 2 10 11
M  V30 11 1 8 9
M  V30 END BOND
M  V30 END CTAB
M  END
>  <Dotmatics_CR>
R-008488

>  <CR_Set>
Aldehyde

>  <Category>
Aldehydes Aromatic

>  <Reaction type>
RedAm

>  <KI/BB_Nature>
Amine

>  <Comments>


>  <Salt>


>  <CR_Chiral_Form>
Achiral

>  <Prod_total_used>
19

>  <PSR (%)>
84

>  <Article>
3,4,5-Trifluorobenzaldehyde

>  <CAS>
132123-54-7

>  <Density>
1.42

>  <Prod_reagent_number>


>  <Stereocenters>
0

>  <Edel>


>  <NB_Name reaction - KI/BB – Capping>
01-RedAm_Amine_Aldehyde

$$$$
R-002674
Actelion Java MolfileCreator 2.0

  0  0  0  0  0  0              0 V3000
M  V30 BEGIN CTAB
M  V30 COUNTS 11 11 0 0 0
M  V30 BEGIN ATOM
M  V30 1 F 0.0 0.0 0.0 0
M  V30 2 C -1.3159 -0.7231 0.0 0
M  V30 3 C -2.6319 0.0474 0.0 0
M  V30 4 C -1.3396 -2.2051 0.0 0
M  V30 5 C -3.9478 -0.6757 0.0 0
M  V30 6 C -2.6556 1.5649 0.0 0
M  V30 7 C -2.6556 -2.9283 0.0 0
M  V30 8 F -5.2756 0.0948 0.0 0
M  V30 9 C -3.9715 -2.1576 0.0 0
M  V30 10 O -1.4108 2.3236 0.0 0
M  V30 11 F -2.6793 -4.3983 0.0 0
M  V30 END ATOM
M  V30 BEGIN BOND
M  V30 1 1 1 2
M  V30 2 2 2 3
M  V30 3 1 2 4
M  V30 4 1 3 5
M  V30 5 1 3 6
M  V30 6 2 4 7
M  V30 7 1 5 8
M  V30 8 2 5 9
M  V30 9 2 6 10
M  V30 10 1 7 11
M  V30 11 1 7 9
M  V30 END BOND
M  V30 END CTAB
M  END
>  <Dotmatics_CR>
R-002674

>  <CR_Set>
Aldehyde

>  <Category>
Aldehydes Aromatic

>  <Reaction type>
RedAm

>  <KI/BB_Nature>
Amine

>  <Comments>


>  <Salt>


>  <CR_Chiral_Form>
Achiral

>  <Prod_total_used>
7

>  <PSR (%)>
71

>  <Article>
2,4,6-TRIFLUOROBENZALDEHYDE

>  <CAS>
58551-83-0

>  <Density>
1

>  <Prod_reagent_number>


>  <Stereocenters>
0

>  <Edel>


>  <NB_Name reaction - KI/BB – Capping>
01-RedAm_Amine_Aldehyde

$$$$
R-009954
Actelion Java MolfileCreator 2.0

  0  0  0  0  0  0              0 V3000
M  V30 BEGIN CTAB
M  V30 COUNTS 11 11 0 0 0
M  V30 BEGIN ATOM
M  V30 1 O 0.0 0.0 0.0 0
M  V30 2 C 1.362 0.6395 0.0 0
M  V30 3 C 2.57 -0.2368 0.0 0
M  V30 4 C 2.5464 -1.7291 0.0 0
M  V30 5 C 3.9913 0.2487 0.0 0
M  V30 6 N 3.9676 -2.1674 0.0 0
M  V30 7 C 1.2909 -2.6056 0.0 0
M  V30 8 N 4.8677 -0.9593 0.0 0
M  V30 9 C 4.4058 -3.5886 0.0 0
M  V30 10 C 3.3636 -4.6901 0.0 0
M  V30 11 C 3.8018 -6.1113 0.0 0
M  V30 END ATOM
M  V30 BEGIN BOND
M  V30 1 2 1 2
M  V30 2 1 2 3
M  V30 3 2 3 4
M  V30 4 1 3 5
M  V30 5 1 4 6
M  V30 6 1 4 7
M  V30 7 2 5 8
M  V30 8 1 6 9
M  V30 9 1 9 10
M  V30 10 1 10 11
M  V30 11 1 6 8
M  V30 END BOND
M  V30 END CTAB
M  END
>  <Dotmatics_CR>
R-009954

>  <CR_Set>
Aldehyde

>  <Category>
Aldehydes Aromatic

>  <Reaction type>
RedAm

>  <KI/BB_Nature>
Amine

>  <Comments>


>  <Salt>


>  <CR_Chiral_Form>
Achiral

>  <Prod_total_used>
90

>  <PSR (%)>
87

>  <Article>
5-Methyl-1-propyl-1H-pyrazole-4-carbaldehyde

>  <CAS>
890652-02-5

>  <Density>
1.05

>  <Prod_reagent_number>


>  <Stereocenters>
0

>  <Edel>


>  <NB_Name reaction - KI/BB – Capping>
01-RedAm_Amine_Aldehyde

$$$$
R-010349
Actelion Java MolfileCreator 2.0

  0  0  0  0  0  0              0 V3000
M  V30 BEGIN CTAB
M  V30 COUNTS 11 11 0 0 0
M  V30 BEGIN ATOM
M  V30 1 O 0.0 0.0 0.0 0
M  V30 2 C 0.9825 -1.0878 0.0 0
M  V30 3 C 0.5029 -2.4915 0.0 0
M  V30 4 N -0.9474 -2.9243 0.0 0
M  V30 5 C 1.3685 -3.6846 0.0 0
M  V30 6 C -0.9708 -4.3981 0.0 0
M  V30 7 N 0.4561 -4.8777 0.0 0
M  V30 8 C -2.2107 -5.2637 0.0 0
M  V30 9 C -3.6027 -4.6321 0.0 0
M  V30 10 C -4.8426 -5.4977 0.0 0
M  V30 11 C -6.2346 -4.866 0.0 0
M  V30 END ATOM
M  V30 BEGIN BOND
M  V30 1 2 1 2
M  V30 2 1 2 3
M  V30 3 1 3 4
M  V30 4 2 3 5
M  V30 5 2 4 6
M  V30 6 1 5 7
M  V30 7 1 6 8
M  V30 8 1 8 9
M  V30 9 1 9 10
M  V30 10 1 10 11
M  V30 11 1 6 7
M  V30 END BOND
M  V30 END CTAB
M  END
>  <Dotmatics_CR>
R-010349

>  <CR_Set>
Aldehyde

>  <Category>
Aldehydes Aromatic

>  <Reaction type>
RedAm

>  <KI/BB_Nature>
Amine

>  <Comments>
NH

>  <Salt>


>  <CR_Chiral_Form>
Achiral

>  <Prod_total_used>
39

>  <PSR (%)>
85

>  <Article>
2-Butyl-1H-imidazole-4-carbaldehyde

>  <CAS>
68282-49-5

>  <Density>
1

>  <Prod_reagent_number>


>  <Stereocenters>
0

>  <Edel>


>  <NB_Name reaction - KI/BB – Capping>
01-RedAm_Amine_Aldehyde

$$$$
R-012115
Actelion Java MolfileCreator 2.0

  0  0  0  0  0  0              0 V3000
M  V30 BEGIN CTAB
M  V30 COUNTS 11 11 0 0 0
M  V30 BEGIN ATOM
M  V30 1 F 0.0 0.0 0.0 0
M  V30 2 C 1.0935 -0.6159 0.0 0
M  V30 3 C 2.4636 0.2136 0.0 0
M  V30 4 C 1.0684 -2.1996 0.0 0
M  V30 5 N 3.8337 -0.553 0.0 0
M  V30 6 C 2.4384 -2.9664 0.0 0
M  V30 7 C 3.8085 -2.1368 0.0 0
M  V30 8 C 2.4133 -4.5501 0.0 0
M  V30 9 O 5.1786 -2.9035 0.0 0
M  V30 10 O 1.2695 -5.166 0.0 0
M  V30 11 C 6.2722 -2.2373 0.0 0
M  V30 END ATOM
M  V30 BEGIN BOND
M  V30 1 1 1 2
M  V30 2 2 2 3
M  V30 3 1 2 4
M  V30 4 1 3 5
M  V30 5 2 4 6
M  V30 6 2 5 7
M  V30 7 1 6 8
M  V30 8 1 7 9
M  V30 9 2 8 10
M  V30 10 1 9 11
M  V30 11 1 6 7
M  V30 END BOND
M  V30 END CTAB
M  END
>  <Dotmatics_CR>
R-012115

>  <CR_Set>
Aldehyde

>  <Category>
Aldehydes Aromatic

>  <Reaction type>
RedAm

>  <KI/BB_Nature>
Amine

>  <Comments>


>  <Salt>


>  <CR_Chiral_Form>
Achiral

>  <Prod_total_used>
6

>  <PSR (%)>
100

>  <Article>
5-fluoro-2-methoxy-pyridine-3-carbaldehyde

>  <CAS>
351410-62-3

>  <Density>
1

>  <Prod_reagent_number>


>  <Stereocenters>
0

>  <Edel>


>  <NB_Name reaction - KI/BB – Capping>
01-RedAm_Amine_Aldehyde

$$$$
R-011304
Actelion Java MolfileCreator 2.0

  0  0  0  0  0  0              0 V3000
M  V30 BEGIN CTAB
M  V30 COUNTS 11 11 0 0 0
M  V30 BEGIN ATOM
M  V30 1 Br 0.0 0.0 0.0 0
M  V30 2 C 1.2986 -0.7267 0.0 0
M  V30 3 C 2.5973 0.0595 0.0 0
M  V30 4 C 1.2748 -2.228 0.0 0
M  V30 5 N 3.896 -0.6672 0.0 0
M  V30 6 C 2.5735 -2.9548 0.0 0
M  V30 7 C 3.8722 -2.1684 0.0 0
M  V30 8 C 2.5497 -4.456 0.0 0
M  V30 9 O 5.1709 -2.8952 0.0 0
M  V30 10 O 3.8484 -5.1828 0.0 0
M  V30 11 C 6.4696 -2.1088 0.0 0
M  V30 END ATOM
M  V30 BEGIN BOND
M  V30 1 1 1 2
M  V30 2 2 2 3
M  V30 3 1 2 4
M  V30 4 1 3 5
M  V30 5 2 4 6
M  V30 6 2 5 7
M  V30 7 1 6 8
M  V30 8 1 7 9
M  V30 9 2 8 10
M  V30 10 1 9 11
M  V30 11 1 6 7
M  V30 END BOND
M  V30 END CTAB
M  END
>  <Dotmatics_CR>
R-011304

>  <CR_Set>
Aldehyde

>  <Category>
Aldehydes Aromatic

>  <Reaction type>
RedAm

>  <KI/BB_Nature>
Amine

>  <Comments>


>  <Salt>


>  <CR_Chiral_Form>
Achiral

>  <Prod_total_used>
7

>  <PSR (%)>
100

>  <Article>
5-Bromo-2-methoxynicotinaldehyde

>  <CAS>
103058-87-3

>  <Density>


>  <Prod_reagent_number>


>  <Stereocenters>
0

>  <Edel>


>  <NB_Name reaction - KI/BB – Capping>
01-RedAm_Amine_Aldehyde

$$$$
R-005541
Actelion Java MolfileCreator 2.0

  0  0  0  0  0  0              0 V3000
M  V30 BEGIN CTAB
M  V30 COUNTS 12 12 0 0 0
M  V30 BEGIN ATOM
M  V30 1 O 0.0 0.0 0.0 0
M  V30 2 C -0.0232 -1.4674 0.0 0
M  V30 3 C -1.3393 -2.1778 0.0 0
M  V30 4 C -2.6553 -1.3975 0.0 0
M  V30 5 C -1.3626 -3.6453 0.0 0
M  V30 6 C -3.9714 -2.108 0.0 0
M  V30 7 C -2.6786 -4.3557 0.0 0
M  V30 8 C -3.9947 -3.5754 0.0 0
M  V30 9 O -5.3107 -4.2975 0.0 0
M  V30 10 C -6.6268 -3.5288 0.0 0
M  V30 11 C -7.9428 -4.2509 0.0 0
M  V30 12 C -9.2589 -3.4822 0.0 0
M  V30 END ATOM
M  V30 BEGIN BOND
M  V30 1 2 1 2
M  V30 2 1 2 3
M  V30 3 2 3 4
M  V30 4 1 3 5
M  V30 5 1 4 6
M  V30 6 2 5 7
M  V30 7 2 6 8
M  V30 8 1 8 9
M  V30 9 1 9 10
M  V30 10 1 10 11
M  V30 11 1 11 12
M  V30 12 1 7 8
M  V30 END BOND
M  V30 END CTAB
M  END
>  <Dotmatics_CR>
R-005541

>  <CR_Set>
Aldehyde

>  <Category>
Aldehydes Aromatic

>  <Reaction type>
RedAm

>  <KI/BB_Nature>
Amine

>  <Comments>


>  <Salt>


>  <CR_Chiral_Form>
Achiral

>  <Prod_total_used>
2

>  <PSR (%)>
100

>  <Article>
4-PROPOXYLBENZALDEHYDE

>  <CAS>
5736-85-6

>  <Density>
1.039

>  <Prod_reagent_number>


>  <Stereocenters>
0

>  <Edel>


>  <NB_Name reaction - KI/BB – Capping>
01-RedAm_Amine_Aldehyde

$$$$
R-009947
Actelion Java MolfileCreator 2.0

  0  0  0  0  0  0              0 V3000
M  V30 BEGIN CTAB
M  V30 COUNTS 12 12 0 0 0
M  V30 BEGIN ATOM
M  V30 1 F 0.0 0.0 0.0 0
M  V30 2 C -0.0236 -1.4909 0.0 0
M  V30 3 C 1.2661 -2.2127 0.0 0
M  V30 4 C -1.3607 -2.2127 0.0 0
M  V30 5 C 1.2424 -3.7036 0.0 0
M  V30 6 C 2.5558 -1.4317 0.0 0
M  V30 7 C -1.3844 -3.7036 0.0 0
M  V30 8 F 2.5322 -4.4254 0.0 0
M  V30 9 C -0.0946 -4.4254 0.0 0
M  V30 10 O 3.8456 -2.1535 0.0 0
M  V30 11 O -2.7215 -4.4254 0.0 0
M  V30 12 C -4.0586 -3.6444 0.0 0
M  V30 END ATOM
M  V30 BEGIN BOND
M  V30 1 1 1 2
M  V30 2 2 2 3
M  V30 3 1 2 4
M  V30 4 1 3 5
M  V30 5 1 3 6
M  V30 6 2 4 7
M  V30 7 1 5 8
M  V30 8 2 5 9
M  V30 9 2 6 10
M  V30 10 1 7 11
M  V30 11 1 11 12
M  V30 12 1 7 9
M  V30 END BOND
M  V30 END CTAB
M  END
>  <Dotmatics_CR>
R-009947

>  <CR_Set>
Aldehyde

>  <Category>
Aldehydes Aromatic

>  <Reaction type>
RedAm

>  <KI/BB_Nature>
Amine

>  <Comments>


>  <Salt>


>  <CR_Chiral_Form>
Achiral

>  <Prod_total_used>
8

>  <PSR (%)>
63

>  <Article>
2,6-Difluoro-4-methoxybenzaldehyde

>  <CAS>
256417-10-4

>  <Density>
1

>  <Prod_reagent_number>


>  <Stereocenters>
0

>  <Edel>


>  <NB_Name reaction - KI/BB – Capping>
01-RedAm_Amine_Aldehyde

$$$$
R-002928
Actelion Java MolfileCreator 2.0

  0  0  0  0  0  0              0 V3000
M  V30 BEGIN CTAB
M  V30 COUNTS 12 12 0 0 0
M  V30 BEGIN ATOM
M  V30 1 F 0.0 0.0 0.0 0
M  V30 2 C 1.2656 0.7834 0.0 0
M  V30 3 F 1.2415 2.3143 0.0 0
M  V30 4 O 2.5433 0.0723 0.0 0
M  V30 5 C 3.833 0.8558 0.0 0
M  V30 6 C 3.8089 2.3986 0.0 0
M  V30 7 C 5.1228 0.1084 0.0 0
M  V30 8 C 5.0987 3.1821 0.0 0
M  V30 9 C 6.4125 0.8919 0.0 0
M  V30 10 C 6.3884 2.4348 0.0 0
M  V30 11 C 7.6661 3.2183 0.0 0
M  V30 12 O 8.9076 2.5192 0.0 0
M  V30 END ATOM
M  V30 BEGIN BOND
M  V30 1 1 1 2
M  V30 2 1 2 3
M  V30 3 1 2 4
M  V30 4 1 4 5
M  V30 5 2 5 6
M  V30 6 1 5 7
M  V30 7 1 6 8
M  V30 8 2 7 9
M  V30 9 2 8 10
M  V30 10 1 10 11
M  V30 11 2 11 12
M  V30 12 1 9 10
M  V30 END BOND
M  V30 END CTAB
M  END
>  <Dotmatics_CR>
R-002928

>  <CR_Set>
Aldehyde

>  <Category>
Aldehydes Aromatic

>  <Reaction type>
RedAm

>  <KI/BB_Nature>
Amine

>  <Comments>


>  <Salt>


>  <CR_Chiral_Form>
Achiral

>  <Prod_total_used>
10

>  <PSR (%)>
100

>  <Article>
4-(DIFLUOROMETHOXY) BENZALDEHYDE

>  <CAS>
73960-07-3

>  <Density>
1.302

>  <Prod_reagent_number>


>  <Stereocenters>
0

>  <Edel>


>  <NB_Name reaction - KI/BB – Capping>
01-RedAm_Amine_Aldehyde

$$$$
R-004757
Actelion Java MolfileCreator 2.0

  0  0  0  0  0  0              0 V3000
M  V30 BEGIN CTAB
M  V30 COUNTS 12 12 0 0 0
M  V30 BEGIN ATOM
M  V30 1 F 0.0 0.0 0.0 0
M  V30 2 C -0.0147 -1.8561 0.0 0
M  V30 3 F 1.2816 -1.7972 0.0 0
M  V30 4 F -1.4142 -1.7972 0.0 0
M  V30 5 C -0.0441 -3.344 0.0 0
M  V30 6 C 1.2374 -4.0658 0.0 0
M  V30 7 C -1.3847 -4.0658 0.0 0
M  V30 8 C 1.2079 -5.5684 0.0 0
M  V30 9 C -1.4142 -5.5537 0.0 0
M  V30 10 C -0.1325 -6.2902 0.0 0
M  V30 11 C 2.5043 -6.2902 0.0 0
M  V30 12 O 2.4748 -7.7781 0.0 0
M  V30 END ATOM
M  V30 BEGIN BOND
M  V30 1 1 1 2
M  V30 2 1 2 3
M  V30 3 1 2 4
M  V30 4 1 2 5
M  V30 5 2 5 6
M  V30 6 1 5 7
M  V30 7 1 6 8
M  V30 8 2 7 9
M  V30 9 2 8 10
M  V30 10 1 8 11
M  V30 11 2 11 12
M  V30 12 1 9 10
M  V30 END BOND
M  V30 END CTAB
M  END
>  <Dotmatics_CR>
R-004757

>  <CR_Set>
Aldehyde

>  <Category>
Aldehydes Aromatic

>  <Reaction type>
RedAm

>  <KI/BB_Nature>
Amine

>  <Comments>


>  <Salt>


>  <CR_Chiral_Form>
Achiral

>  <Prod_total_used>
11

>  <PSR (%)>
82

>  <Article>
3-TRIFLUOROMETHYL-BENZALDEHYDE

>  <CAS>
454-89-7

>  <Density>
1.301

>  <Prod_reagent_number>


>  <Stereocenters>
0

>  <Edel>


>  <NB_Name reaction - KI/BB – Capping>
01-RedAm_Amine_Aldehyde

$$$$
R-000316
Actelion Java MolfileCreator 2.0

  0  0  0  0  0  0              0 V3000
M  V30 BEGIN CTAB
M  V30 COUNTS 12 12 0 0 0
M  V30 BEGIN ATOM
M  V30 1 F 0.0 0.0 0.0 0
M  V30 2 C 1.2827 -0.7432 0.0 0
M  V30 3 F 1.2587 -2.2298 0.0 0
M  V30 4 F 1.2587 0.7912 0.0 0
M  V30 5 C 2.5654 0.0359 0.0 0
M  V30 6 C 3.8482 -0.7073 0.0 0
M  V30 7 C 2.5414 1.5704 0.0 0
M  V30 8 C 5.1309 0.0719 0.0 0
M  V30 9 C 3.8242 2.3376 0.0 0
M  V30 10 C 5.1069 1.6064 0.0 0
M  V30 11 C 6.3897 2.3736 0.0 0
M  V30 12 O 7.6724 1.6423 0.0 0
M  V30 END ATOM
M  V30 BEGIN BOND
M  V30 1 1 1 2
M  V30 2 1 2 3
M  V30 3 1 2 4
M  V30 4 1 2 5
M  V30 5 2 5 6
M  V30 6 1 5 7
M  V30 7 1 6 8
M  V30 8 2 7 9
M  V30 9 2 8 10
M  V30 10 1 10 11
M  V30 11 2 11 12
M  V30 12 1 9 10
M  V30 END BOND
M  V30 END CTAB
M  END
>  <Dotmatics_CR>
R-000316

>  <CR_Set>
Aldehyde

>  <Category>
Aldehydes Aromatic

>  <Reaction type>
RedAm

>  <KI/BB_Nature>
Amine

>  <Comments>


>  <Salt>


>  <CR_Chiral_Form>
Achiral

>  <Prod_total_used>
6

>  <PSR (%)>
83

>  <Article>
a,a,a-TRIFLUOROMETHYL-para-TOLUALDEHYDE

>  <CAS>
455-19-6

>  <Density>
1.275

>  <Prod_reagent_number>


>  <Stereocenters>
0

>  <Edel>


>  <NB_Name reaction - KI/BB – Capping>
01-RedAm_Amine_Aldehyde

$$$$
R-008195
Actelion Java MolfileCreator 2.0

  0  0  0  0  0  0              0 V3000
M  V30 BEGIN CTAB
M  V30 COUNTS 12 12 0 0 0
M  V30 BEGIN ATOM
M  V30 1 F 0.0 0.0 0.0 0
M  V30 2 C 1.2734 0.7735 0.0 0
M  V30 3 F 1.2496 -0.7021 0.0 0
M  V30 4 F 2.5468 0.0476 0.0 0
M  V30 5 C 1.2496 2.2969 0.0 0
M  V30 6 C 2.523 3.0705 0.0 0
M  V30 7 C -0.0714 3.0705 0.0 0
M  V30 8 C 2.4992 4.5938 0.0 0
M  V30 9 C 3.7965 2.3445 0.0 0
M  V30 10 C -0.0952 4.5938 0.0 0
M  V30 11 C 1.1782 5.3674 0.0 0
M  V30 12 O 5.0699 3.1181 0.0 0
M  V30 END ATOM
M  V30 BEGIN BOND
M  V30 1 1 1 2
M  V30 2 1 2 3
M  V30 3 1 2 4
M  V30 4 1 2 5
M  V30 5 2 5 6
M  V30 6 1 5 7
M  V30 7 1 6 8
M  V30 8 1 6 9
M  V30 9 2 7 10
M  V30 10 2 8 11
M  V30 11 2 9 12
M  V30 12 1 10 11
M  V30 END BOND
M  V30 END CTAB
M  END
>  <Dotmatics_CR>
R-008195

>  <CR_Set>
Aldehyde

>  <Category>
Aldehydes Aromatic

>  <Reaction type>
RedAm

>  <KI/BB_Nature>
Amine

>  <Comments>


>  <Salt>


>  <CR_Chiral_Form>
Achiral

>  <Prod_total_used>
8

>  <PSR (%)>
88

>  <Article>
2-(Trifluoromethyl)benzaldehyde

>  <CAS>
447-61-0

>  <Density>
1.32

>  <Prod_reagent_number>


>  <Stereocenters>
0

>  <Edel>


>  <NB_Name reaction - KI/BB – Capping>
01-RedAm_Amine_Aldehyde

$$$$
R-005842
Actelion Java MolfileCreator 2.0

  0  0  0  0  0  0              0 V3000
M  V30 BEGIN CTAB
M  V30 COUNTS 12 12 0 0 0
M  V30 BEGIN ATOM
M  V30 1 O 0.0 0.0 0.0 0
M  V30 2 C -0.0235 -1.4854 0.0 0
M  V30 3 C -1.3557 -2.2045 0.0 0
M  V30 4 C -1.3793 -3.6899 0.0 0
M  V30 5 C -2.6878 -1.4264 0.0 0
M  V30 6 O -0.0943 -4.409 0.0 0
M  V30 7 C -2.7114 -4.409 0.0 0
M  V30 8 C -4.02 -2.1455 0.0 0
M  V30 9 O -2.735 -5.8944 0.0 0
M  V30 10 C -4.0435 -3.6309 0.0 0
M  V30 11 C -1.45 -6.6135 0.0 0
M  V30 12 C -1.4736 -8.0989 0.0 0
M  V30 END ATOM
M  V30 BEGIN BOND
M  V30 1 2 1 2
M  V30 2 1 2 3
M  V30 3 2 3 4
M  V30 4 1 3 5
M  V30 5 1 4 6
M  V30 6 1 4 7
M  V30 7 2 5 8
M  V30 8 1 7 9
M  V30 9 2 7 10
M  V30 10 1 9 11
M  V30 11 1 11 12
M  V30 12 1 8 10
M  V30 END BOND
M  V30 END CTAB
M  END
>  <Dotmatics_CR>
R-005842

>  <CR_Set>
Aldehyde

>  <Category>
Aldehydes Aromatic

>  <Reaction type>
RedAm

>  <KI/BB_Nature>
Amine

>  <Comments>
OH

>  <Salt>


>  <CR_Chiral_Form>
Achiral

>  <Prod_total_used>
20

>  <PSR (%)>
95

>  <Article>
3-ethoxy-2-hydroxybenzaldehyde

>  <CAS>
492-88-6

>  <Density>
1

>  <Prod_reagent_number>


>  <Stereocenters>
0

>  <Edel>


>  <NB_Name reaction - KI/BB – Capping>
01-RedAm_Amine_Aldehyde

$$$$
R-003501
Actelion Java MolfileCreator 2.0

  0  0  0  0  0  0              0 V3000
M  V30 BEGIN CTAB
M  V30 COUNTS 12 12 0 0 0
M  V30 BEGIN ATOM
M  V30 1 O 0.0 0.0 0.0 0
M  V30 2 C -1.3243 -0.7567 0.0 0
M  V30 3 C -1.3243 -2.2467 0.0 0
M  V30 4 C -0.0236 -2.968 0.0 0
M  V30 5 C -2.6605 -2.968 0.0 0
M  V30 6 O 1.2652 -2.1875 0.0 0
M  V30 7 C -0.0472 -4.4579 0.0 0
M  V30 8 C -2.6842 -4.4579 0.0 0
M  V30 9 C 2.5541 -2.9207 0.0 0
M  V30 10 C -1.3953 -5.1792 0.0 0
M  V30 11 O -1.4307 -6.6691 0.0 0
M  V30 12 C -2.767 -7.3786 0.0 0
M  V30 END ATOM
M  V30 BEGIN BOND
M  V30 1 2 1 2
M  V30 2 1 2 3
M  V30 3 2 3 4
M  V30 4 1 3 5
M  V30 5 1 4 6
M  V30 6 1 4 7
M  V30 7 2 5 8
M  V30 8 1 6 9
M  V30 9 2 7 10
M  V30 10 1 10 11
M  V30 11 1 11 12
M  V30 12 1 8 10
M  V30 END BOND
M  V30 END CTAB
M  END
>  <Dotmatics_CR>
R-003501

>  <CR_Set>
Aldehyde

>  <Category>
Aldehydes Aromatic

>  <Reaction type>
RedAm

>  <KI/BB_Nature>
Amine

>  <Comments>


>  <Salt>


>  <CR_Chiral_Form>
Achiral

>  <Prod_total_used>
2

>  <PSR (%)>
100

>  <Article>
2,4-DIMETHOXYBENZALDEHYDE

>  <CAS>
613-45-6

>  <Density>


>  <Prod_reagent_number>


>  <Stereocenters>
0

>  <Edel>


>  <NB_Name reaction - KI/BB – Capping>
01-RedAm_Amine_Aldehyde

$$$$
R-002683
Actelion Java MolfileCreator 2.0

  0  0  0  0  0  0              0 V3000
M  V30 BEGIN CTAB
M  V30 COUNTS 12 12 0 0 0
M  V30 BEGIN ATOM
M  V30 1 O 0.0 0.0 0.0 0
M  V30 2 C -0.0238 -1.4769 0.0 0
M  V30 3 C -1.3459 -2.2035 0.0 0
M  V30 4 C -2.668 -1.4293 0.0 0
M  V30 5 C -1.3697 -3.6924 0.0 0
M  V30 6 O -2.6918 0.0952 0.0 0
M  V30 7 C -3.9901 -2.1558 0.0 0
M  V30 8 O -0.0952 -4.4189 0.0 0
M  V30 9 C -2.7038 -4.4189 0.0 0
M  V30 10 C -1.4174 0.8695 0.0 0
M  V30 11 C -4.014 -3.6328 0.0 0
M  V30 12 C -0.1191 -5.8959 0.0 0
M  V30 END ATOM
M  V30 BEGIN BOND
M  V30 1 2 1 2
M  V30 2 1 2 3
M  V30 3 2 3 4
M  V30 4 1 3 5
M  V30 5 1 4 6
M  V30 6 1 4 7
M  V30 7 1 5 8
M  V30 8 2 5 9
M  V30 9 1 6 10
M  V30 10 2 7 11
M  V30 11 1 8 12
M  V30 12 1 9 11
M  V30 END BOND
M  V30 END CTAB
M  END
>  <Dotmatics_CR>
R-002683

>  <CR_Set>
Aldehyde

>  <Category>
Aldehydes Aromatic

>  <Reaction type>
RedAm

>  <KI/BB_Nature>
Amine

>  <Comments>


>  <Salt>


>  <CR_Chiral_Form>
Achiral

>  <Prod_total_used>
8

>  <PSR (%)>
88

>  <Article>
2,6-DIMETHOXYBENZALDEHYDE

>  <CAS>
3392-97-0

>  <Density>
1

>  <Prod_reagent_number>


>  <Stereocenters>
0

>  <Edel>


>  <NB_Name reaction - KI/BB – Capping>
01-RedAm_Amine_Aldehyde

$$$$
R-000835
Actelion Java MolfileCreator 2.0

  0  0  0  0  0  0              0 V3000
M  V30 BEGIN CTAB
M  V30 COUNTS 12 12 0 0 0
M  V30 BEGIN ATOM
M  V30 1 O 0.0 0.0 0.0 0
M  V30 2 C 1.2956 -0.7251 0.0 0
M  V30 3 C 1.2719 -2.2228 0.0 0
M  V30 4 C 2.5675 -2.9479 0.0 0
M  V30 5 C -0.0713 -2.9479 0.0 0
M  V30 6 C 2.5438 -4.4457 0.0 0
M  V30 7 C -0.095 -4.4457 0.0 0
M  V30 8 O 3.8394 -5.1708 0.0 0
M  V30 9 C 1.2005 -5.1708 0.0 0
M  V30 10 C 5.1351 -4.3862 0.0 0
M  V30 11 C 6.4308 -5.1113 0.0 0
M  V30 12 O 7.7265 -4.3268 0.0 0
M  V30 END ATOM
M  V30 BEGIN BOND
M  V30 1 2 1 2
M  V30 2 1 2 3
M  V30 3 2 3 4
M  V30 4 1 3 5
M  V30 5 1 4 6
M  V30 6 2 5 7
M  V30 7 1 6 8
M  V30 8 2 6 9
M  V30 9 1 8 10
M  V30 10 1 10 11
M  V30 11 1 11 12
M  V30 12 1 7 9
M  V30 END BOND
M  V30 END CTAB
M  END
>  <Dotmatics_CR>
R-000835

>  <CR_Set>
Aldehyde

>  <Category>
Aldehydes Aromatic

>  <Reaction type>
RedAm

>  <KI/BB_Nature>
Amine

>  <Comments>
OH

>  <Salt>


>  <CR_Chiral_Form>
Achiral

>  <Prod_total_used>
85

>  <PSR (%)>
81

>  <Article>
3-(2-Hydroxyethoxy)benzaldehyde

>  <CAS>
60345-97-3

>  <Density>
1

>  <Prod_reagent_number>


>  <Stereocenters>
0

>  <Edel>


>  <NB_Name reaction - KI/BB – Capping>
01-RedAm_Amine_Aldehyde

$$$$
R-008219
Actelion Java MolfileCreator 2.0

  0  0  0  0  0  0              0 V3000
M  V30 BEGIN CTAB
M  V30 COUNTS 12 12 0 0 0
M  V30 BEGIN ATOM
M  V30 1 S 0.0 0.0 0.0 0
M  V30 2 O 1.488 0.024 0.0 0
M  V30 3 O -0.024 1.536 0.0 0
M  V30 4 C -0.024 -1.488 0.0 0
M  V30 5 C -1.536 0.024 0.0 0
M  V30 6 C -1.356 -2.2321 0.0 0
M  V30 7 C 1.26 -2.2321 0.0 0
M  V30 8 C -1.38 -3.7202 0.0 0
M  V30 9 C 1.236 -3.7202 0.0 0
M  V30 10 C -0.096 -4.4522 0.0 0
M  V30 11 C -0.12 -5.9403 0.0 0
M  V30 12 O 1.164 -6.6724 0.0 0
M  V30 END ATOM
M  V30 BEGIN BOND
M  V30 1 2 1 2
M  V30 2 2 1 3
M  V30 3 1 1 4
M  V30 4 1 1 5
M  V30 5 2 4 6
M  V30 6 1 4 7
M  V30 7 1 6 8
M  V30 8 2 7 9
M  V30 9 2 8 10
M  V30 10 1 10 11
M  V30 11 2 11 12
M  V30 12 1 9 10
M  V30 END BOND
M  V30 END CTAB
M  END
>  <Dotmatics_CR>
R-008219

>  <CR_Set>
Aldehyde

>  <Category>
Aldehydes Aromatic

>  <Reaction type>
RedAm

>  <KI/BB_Nature>
Amine

>  <Comments>


>  <Salt>


>  <CR_Chiral_Form>
Achiral

>  <Prod_total_used>
38

>  <PSR (%)>
97

>  <Article>
4-METHYLSULPHONYL BENZALDEHYDE

>  <CAS>
5398-77-6

>  <Density>
1

>  <Prod_reagent_number>


>  <Stereocenters>
0

>  <Edel>


>  <NB_Name reaction - KI/BB – Capping>
01-RedAm_Amine_Aldehyde

$$$$
R-009966
Actelion Java MolfileCreator 2.0

  0  0  0  0  0  0              0 V3000
M  V30 BEGIN CTAB
M  V30 COUNTS 12 12 0 0 0
M  V30 BEGIN ATOM
M  V30 1 Cl 0.0 0.0 0.0 0
M  V30 2 C 1.1951 0.9082 0.0 0
M  V30 3 N 2.6053 0.466 0.0 0
M  V30 4 C 1.1712 2.438 0.0 0
M  V30 5 C 3.4658 1.709 0.0 0
M  V30 6 N 2.5814 2.928 0.0 0
M  V30 7 C -0.0717 3.3463 0.0 0
M  V30 8 C 4.9478 1.7329 0.0 0
M  V30 9 O -1.47 2.7487 0.0 0
M  V30 10 C 5.6887 0.4541 0.0 0
M  V30 11 C 7.1707 0.478 0.0 0
M  V30 12 C 7.9117 -0.8007 0.0 0
M  V30 END ATOM
M  V30 BEGIN BOND
M  V30 1 1 1 2
M  V30 2 1 2 3
M  V30 3 2 2 4
M  V30 4 1 3 5
M  V30 5 1 4 6
M  V30 6 1 4 7
M  V30 7 1 5 8
M  V30 8 2 7 9
M  V30 9 1 8 10
M  V30 10 1 10 11
M  V30 11 1 11 12
M  V30 12 2 5 6
M  V30 END BOND
M  V30 END CTAB
M  END
>  <Dotmatics_CR>
R-009966

>  <CR_Set>
Aldehyde

>  <Category>
Aldehydes Aromatic

>  <Reaction type>
RedAm

>  <KI/BB_Nature>
Amine

>  <Comments>
NH

>  <Salt>


>  <CR_Chiral_Form>
Achiral

>  <Prod_total_used>
16

>  <PSR (%)>
81

>  <Article>
2-Butyl-5-chloro-4-formylimidazole

>  <CAS>
83857-96-9

>  <Density>
1

>  <Prod_reagent_number>


>  <Stereocenters>
0

>  <Edel>


>  <NB_Name reaction - KI/BB – Capping>
01-RedAm_Amine_Aldehyde

$$$$
R-011823
Actelion Java MolfileCreator 2.0

  0  0  0  0  0  0              0 V3000
M  V30 BEGIN CTAB
M  V30 COUNTS 12 12 0 0 0
M  V30 BEGIN ATOM
M  V30 1 F 0.0 0.0 0.0 0
M  V30 2 C -1.124 -0.6188 0.0 0
M  V30 3 F -1.1493 -1.8692 0.0 0
M  V30 4 F -0.0505 -1.2377 0.0 0
M  V30 5 C -2.526 0.202 0.0 0
M  V30 6 N -2.5512 1.8187 0.0 0
M  V30 7 N -3.9279 -0.5809 0.0 0
M  V30 8 C -3.9532 2.6396 0.0 0
M  V30 9 C -5.3299 0.2399 0.0 0
M  V30 10 C -5.3551 1.8566 0.0 0
M  V30 11 C -6.7571 2.6775 0.0 0
M  V30 12 O -7.8811 2.0587 0.0 0
M  V30 END ATOM
M  V30 BEGIN BOND
M  V30 1 1 1 2
M  V30 2 1 2 3
M  V30 3 1 2 4
M  V30 4 1 2 5
M  V30 5 2 5 6
M  V30 6 1 5 7
M  V30 7 1 6 8
M  V30 8 2 7 9
M  V30 9 2 8 10
M  V30 10 1 10 11
M  V30 11 2 11 12
M  V30 12 1 9 10
M  V30 END BOND
M  V30 END CTAB
M  END
>  <Dotmatics_CR>
R-011823

>  <CR_Set>
Aldehyde

>  <Category>
Aldehydes Aromatic

>  <Reaction type>
RedAm

>  <KI/BB_Nature>
Amine

>  <Comments>


>  <Salt>


>  <CR_Chiral_Form>
Achiral

>  <Prod_total_used>
10

>  <PSR (%)>
90

>  <Article>
2-(trifluoromethyl)pyrimidine-5-carbaldehyde

>  <CAS>
304693-66-1

>  <Density>
1

>  <Prod_reagent_number>


>  <Stereocenters>
0

>  <Edel>


>  <NB_Name reaction - KI/BB – Capping>
01-RedAm_Amine_Aldehyde

$$$$
R-001593
Actelion Java MolfileCreator 2.0

  0  0  0  0  0  0              0 V3000
M  V30 BEGIN CTAB
M  V30 COUNTS 12 12 0 0 0
M  V30 BEGIN ATOM
M  V30 1 O 0.0 0.0 0.0 0
M  V30 2 C 1.2916 0.77 0.0 0
M  V30 3 C 2.3845 0.1614 0.0 0
M  V30 4 C 2.3596 -1.3412 0.0 0
M  V30 5 C 3.6761 0.9438 0.0 0
M  V30 6 O 1.0183 -2.0616 0.0 0
M  V30 7 N 3.6512 -2.074 0.0 0
M  V30 8 N 4.9553 0.2111 0.0 0
M  V30 9 C -0.3229 -1.2791 0.0 0
M  V30 10 C 4.9304 -1.2916 0.0 0
M  V30 11 O 6.1227 -1.9622 0.0 0
M  V30 12 C 7.6875 -1.0183 0.0 0
M  V30 END ATOM
M  V30 BEGIN BOND
M  V30 1 2 1 2
M  V30 2 1 2 3
M  V30 3 2 3 4
M  V30 4 1 3 5
M  V30 5 1 4 6
M  V30 6 1 4 7
M  V30 7 2 5 8
M  V30 8 1 6 9
M  V30 9 2 7 10
M  V30 10 1 10 11
M  V30 11 1 11 12
M  V30 12 1 8 10
M  V30 END BOND
M  V30 END CTAB
M  END
>  <Dotmatics_CR>
R-001593

>  <CR_Set>
Aldehyde

>  <Category>
Aldehydes Aromatic

>  <Reaction type>
RedAm

>  <KI/BB_Nature>
Amine

>  <Comments>


>  <Salt>


>  <CR_Chiral_Form>
Achiral

>  <Prod_total_used>
8

>  <PSR (%)>
75

>  <Article>
5-FORMYL-2,4-DIMETHOXYPYRIMIDINE

>  <CAS>
52606-02-7

>  <Density>
1

>  <Prod_reagent_number>


>  <Stereocenters>
0

>  <Edel>


>  <NB_Name reaction - KI/BB – Capping>
01-RedAm_Amine_Aldehyde

$$$$
R-002372
Actelion Java MolfileCreator 2.0

  0  0  0  0  0  0              0 V3000
M  V30 BEGIN CTAB
M  V30 COUNTS 12 12 0 0 0
M  V30 BEGIN ATOM
M  V30 1 O 0.0 0.0 0.0 0
M  V30 2 C -1.5014 0.2346 0.0 0
M  V30 3 N -2.4399 -0.8797 0.0 0
M  V30 4 C -2.088 1.6422 0.0 0
M  V30 5 C -3.9296 -0.6334 0.0 0
M  V30 6 C -4.8563 -1.783 0.0 0
M  V30 7 C -4.5162 0.739 0.0 0
M  V30 8 C -6.3578 -1.5484 0.0 0
M  V30 9 C -5.9942 0.9736 0.0 0
M  V30 10 C -6.9326 -0.1524 0.0 0
M  V30 11 C -8.4341 0.0703 0.0 0
M  V30 12 O -9.0089 1.4663 0.0 0
M  V30 END ATOM
M  V30 BEGIN BOND
M  V30 1 2 1 2
M  V30 2 1 2 3
M  V30 3 1 2 4
M  V30 4 1 3 5
M  V30 5 2 5 6
M  V30 6 1 5 7
M  V30 7 1 6 8
M  V30 8 2 7 9
M  V30 9 2 8 10
M  V30 10 1 10 11
M  V30 11 2 11 12
M  V30 12 1 9 10
M  V30 END BOND
M  V30 END CTAB
M  END
>  <Dotmatics_CR>
R-002372

>  <CR_Set>
Aldehyde

>  <Category>
Aldehydes Aromatic

>  <Reaction type>
RedAm

>  <KI/BB_Nature>
Amine

>  <Comments>


>  <Salt>


>  <CR_Chiral_Form>
Achiral

>  <Prod_total_used>
42

>  <PSR (%)>
90

>  <Article>
4-ACETAMIDOBENZALDEHYDE

>  <CAS>
122-85-0

>  <Density>
1

>  <Prod_reagent_number>


>  <Stereocenters>
0

>  <Edel>


>  <NB_Name reaction - KI/BB – Capping>
01-RedAm_Amine_Aldehyde

$$$$
R-000639
Actelion Java MolfileCreator 2.0

  0  0  0  0  0  0              0 V3000
M  V30 BEGIN CTAB
M  V30 COUNTS 12 12 0 0 0
M  V30 BEGIN ATOM
M  V30 1 F 0.0 0.0 0.0 0
M  V30 2 C 1.2802 -0.7417 0.0 0
M  V30 3 F 1.2562 -2.2253 0.0 0
M  V30 4 F -0.0478 -1.4716 0.0 0
M  V30 5 C 2.5604 0.0239 0.0 0
M  V30 6 N 3.8406 -0.7178 0.0 0
M  V30 7 C 2.5364 1.5553 0.0 0
M  V30 8 C 5.1208 0.0598 0.0 0
M  V30 9 C 3.8166 2.3211 0.0 0
M  V30 10 C 5.0968 1.5912 0.0 0
M  V30 11 C 6.377 2.357 0.0 0
M  V30 12 O 6.3531 3.8884 0.0 0
M  V30 END ATOM
M  V30 BEGIN BOND
M  V30 1 1 1 2
M  V30 2 1 2 3
M  V30 3 1 2 4
M  V30 4 1 2 5
M  V30 5 2 5 6
M  V30 6 1 5 7
M  V30 7 1 6 8
M  V30 8 2 7 9
M  V30 9 2 8 10
M  V30 10 1 10 11
M  V30 11 2 11 12
M  V30 12 1 9 10
M  V30 END BOND
M  V30 END CTAB
M  END
>  <Dotmatics_CR>
R-000639

>  <CR_Set>
Aldehyde

>  <Category>
Aldehydes Aromatic

>  <Reaction type>
RedAm

>  <KI/BB_Nature>
Amine

>  <Comments>


>  <Salt>


>  <CR_Chiral_Form>
Achiral

>  <Prod_total_used>
26

>  <PSR (%)>
96

>  <Article>
6-(TRIFLUOROMETHYL)NICOTINALDEHYDE

>  <CAS>
386704-12-7

>  <Density>
1

>  <Prod_reagent_number>


>  <Stereocenters>
0

>  <Edel>


>  <NB_Name reaction - KI/BB – Capping>
01-RedAm_Amine_Aldehyde

$$$$
R-007477
Actelion Java MolfileCreator 2.0

  0  0  0  0  0  0              0 V3000
M  V30 BEGIN CTAB
M  V30 COUNTS 12 13 0 0 0
M  V30 BEGIN ATOM
M  V30 1 O 0.0 0.0 0.0 0
M  V30 2 C 1.2821 -0.7429 0.0 0
M  V30 3 C 2.5642 0.0359 0.0 0
M  V30 4 C 3.8464 -0.6949 0.0 0
M  V30 5 C 2.5403 1.5697 0.0 0
M  V30 6 C 5.1285 0.0838 0.0 0
M  V30 7 C 3.8224 2.3485 0.0 0
M  V30 8 O 6.4107 -0.659 0.0 0
M  V30 9 C 5.1046 1.6176 0.0 0
M  V30 10 C 7.6928 0.1198 0.0 0
M  V30 11 O 6.3867 2.3965 0.0 0
M  V30 12 C 7.6688 1.6536 0.0 0
M  V30 END ATOM
M  V30 BEGIN BOND
M  V30 1 2 1 2
M  V30 2 1 2 3
M  V30 3 2 3 4
M  V30 4 1 3 5
M  V30 5 1 4 6
M  V30 6 2 5 7
M  V30 7 1 6 8
M  V30 8 2 6 9
M  V30 9 1 8 10
M  V30 10 1 9 11
M  V30 11 1 10 12
M  V30 12 1 7 9
M  V30 13 1 11 12
M  V30 END BOND
M  V30 END CTAB
M  END
>  <Dotmatics_CR>
R-007477

>  <CR_Set>
Aldehyde

>  <Category>
Aldehydes Aromatic

>  <Reaction type>
RedAm

>  <KI/BB_Nature>
Amine

>  <Comments>


>  <Salt>


>  <CR_Chiral_Form>
Achiral

>  <Prod_total_used>
43

>  <PSR (%)>
86

>  <Article>
2,3-DIHYDRO-1,4-BENZODIOXINE-6-CARBALDEHYDE

>  <CAS>
29668-44-8

>  <Density>
1

>  <Prod_reagent_number>


>  <Stereocenters>
0

>  <Edel>


>  <NB_Name reaction - KI/BB – Capping>
01-RedAm_Amine_Aldehyde

$$$$
R-008718
Actelion Java MolfileCreator 2.0

  0  0  0  0  0  0              0 V3000
M  V30 BEGIN CTAB
M  V30 COUNTS 13 14 0 0 0
M  V30 BEGIN ATOM
M  V30 1 O 0.0 0.0 0.0 0
M  V30 2 C 1.173 0.8915 0.0 0
M  V30 3 C 0.9971 2.393 0.0 0
M  V30 4 C -0.3871 3.0265 0.0 0
M  V30 5 C 2.1702 3.2846 0.0 0
M  V30 6 C -0.563 4.5281 0.0 0
M  V30 7 C 1.9942 4.7861 0.0 0
M  V30 8 O -1.9473 5.1615 0.0 0
M  V30 9 C 0.61 5.4196 0.0 0
M  V30 10 O 2.9561 5.9123 0.0 0
M  V30 11 C -3.1673 4.3169 0.0 0
M  V30 12 O 0.739 6.9212 0.0 0
M  V30 13 C 2.1936 7.2262 0.0 0
M  V30 END ATOM
M  V30 BEGIN BOND
M  V30 1 2 1 2
M  V30 2 1 2 3
M  V30 3 2 3 4
M  V30 4 1 3 5
M  V30 5 1 4 6
M  V30 6 2 5 7
M  V30 7 1 6 8
M  V30 8 2 6 9
M  V30 9 1 7 10
M  V30 10 1 8 11
M  V30 11 1 9 12
M  V30 12 1 10 13
M  V30 13 1 7 9
M  V30 14 1 12 13
M  V30 END BOND
M  V30 END CTAB
M  END
>  <Dotmatics_CR>
R-008718

>  <CR_Set>
Aldehyde

>  <Category>
Aldehydes Aromatic

>  <Reaction type>
RedAm

>  <KI/BB_Nature>
Amine

>  <Comments>


>  <Salt>


>  <CR_Chiral_Form>
Achiral

>  <Prod_total_used>
37

>  <PSR (%)>
95

>  <Article>
7-Methoxy-benzo[1,3]dioxole-5-carbaldehyde

>  <CAS>
5780-07-4

>  <Density>
1

>  <Prod_reagent_number>


>  <Stereocenters>
0

>  <Edel>


>  <NB_Name reaction - KI/BB – Capping>
01-RedAm_Amine_Aldehyde

$$$$
R-009240
Actelion Java MolfileCreator 2.0

  0  0  0  0  0  0              0 V3000
M  V30 BEGIN CTAB
M  V30 COUNTS 13 14 0 0 0
M  V30 BEGIN ATOM
M  V30 1 O 0.0 0.0 0.0 0
M  V30 2 C -1.3028 0.7629 0.0 0
M  V30 3 O -2.6057 0.0469 0.0 0
M  V30 4 C -1.3263 2.2653 0.0 0
M  V30 5 C -3.9086 0.8098 0.0 0
M  V30 6 C -2.6292 3.0283 0.0 0
M  V30 7 C -3.9321 2.3123 0.0 0
M  V30 8 C -5.2115 0.0939 0.0 0
M  V30 9 C -5.2349 3.0752 0.0 0
M  V30 10 C -6.5143 0.8451 0.0 0
M  V30 11 C -6.5378 2.3592 0.0 0
M  V30 12 C -7.8407 3.1104 0.0 0
M  V30 13 O -9.1436 2.3944 0.0 0
M  V30 END ATOM
M  V30 BEGIN BOND
M  V30 1 2 1 2
M  V30 2 1 2 3
M  V30 3 1 2 4
M  V30 4 1 3 5
M  V30 5 2 4 6
M  V30 6 2 5 7
M  V30 7 1 5 8
M  V30 8 1 7 9
M  V30 9 2 8 10
M  V30 10 2 9 11
M  V30 11 1 11 12
M  V30 12 2 12 13
M  V30 13 1 6 7
M  V30 14 1 10 11
M  V30 END BOND
M  V30 END CTAB
M  END
>  <Dotmatics_CR>
R-009240

>  <CR_Set>
Aldehyde

>  <Category>
Aldehydes Aromatic

>  <Reaction type>
RedAm

>  <KI/BB_Nature>
Amine

>  <Comments>


>  <Salt>


>  <CR_Chiral_Form>
Achiral

>  <Prod_total_used>
28

>  <PSR (%)>
93

>  <Article>
Coumarin-6-carboxaldehyde

>  <CAS>
51690-26-7

>  <Density>
1

>  <Prod_reagent_number>


>  <Stereocenters>
0

>  <Edel>


>  <NB_Name reaction - KI/BB – Capping>
01-RedAm_Amine_Aldehyde

$$$$
R-008724
Actelion Java MolfileCreator 2.0

  0  0  0  0  0  0              0 V3000
M  V30 BEGIN CTAB
M  V30 COUNTS 13 14 0 0 0
M  V30 BEGIN ATOM
M  V30 1 O 0.0 0.0 0.0 0
M  V30 2 C 1.1724 0.891 0.0 0
M  V30 3 C 0.9965 2.3917 0.0 0
M  V30 4 C -0.3868 3.0248 0.0 0
M  V30 5 C 2.1689 3.2827 0.0 0
M  V30 6 C -0.5627 4.5255 0.0 0
M  V30 7 C 1.993 4.7834 0.0 0
M  V30 8 C 0.6096 5.4165 0.0 0
M  V30 9 N 0.4337 6.9172 0.0 0
M  V30 10 C 1.5124 7.9254 0.0 0
M  V30 11 C -0.8793 7.6792 0.0 0
M  V30 12 N 0.8793 9.3089 0.0 0
M  V30 13 C -0.5862 9.1565 0.0 0
M  V30 END ATOM
M  V30 BEGIN BOND
M  V30 1 2 1 2
M  V30 2 1 2 3
M  V30 3 2 3 4
M  V30 4 1 3 5
M  V30 5 1 4 6
M  V30 6 2 5 7
M  V30 7 2 6 8
M  V30 8 1 8 9
M  V30 9 1 9 10
M  V30 10 1 9 11
M  V30 11 2 10 12
M  V30 12 2 11 13
M  V30 13 1 7 8
M  V30 14 1 12 13
M  V30 END BOND
M  V30 END CTAB
M  END
>  <Dotmatics_CR>
R-008724

>  <CR_Set>
Aldehyde

>  <Category>
Aldehydes Aromatic

>  <Reaction type>
RedAm

>  <KI/BB_Nature>
Amine

>  <Comments>


>  <Salt>


>  <CR_Chiral_Form>
Achiral

>  <Prod_total_used>
27

>  <PSR (%)>
74

>  <Article>
4-(1H-imidazol-1-yl)benzaldehyde

>  <CAS>
10040-98-9

>  <Density>
1

>  <Prod_reagent_number>


>  <Stereocenters>
0

>  <Edel>


>  <NB_Name reaction - KI/BB – Capping>
01-RedAm_Amine_Aldehyde

$$$$
R-000915
Actelion Java MolfileCreator 2.0

  0  0  0  0  0  0              0 V3000
M  V30 BEGIN CTAB
M  V30 COUNTS 13 14 0 0 0
M  V30 BEGIN ATOM
M  V30 1 O 0.0 0.0 0.0 0
M  V30 2 C 1.3513 0.6345 0.0 0
M  V30 3 C 2.5499 -0.235 0.0 0
M  V30 4 C 3.96 0.2467 0.0 0
M  V30 5 C 2.5264 -1.7156 0.0 0
M  V30 6 N 4.8295 -0.9518 0.0 0
M  V30 7 C 4.3947 1.7038 0.0 0
M  V30 8 N 3.9364 -2.1503 0.0 0
M  V30 9 C 5.8401 2.0328 0.0 0
M  V30 10 C 3.3607 2.8436 0.0 0
M  V30 11 C 6.2748 3.4899 0.0 0
M  V30 12 C 3.7954 4.3007 0.0 0
M  V30 13 C 5.2408 4.6297 0.0 0
M  V30 END ATOM
M  V30 BEGIN BOND
M  V30 1 2 1 2
M  V30 2 1 2 3
M  V30 3 1 3 4
M  V30 4 2 3 5
M  V30 5 2 4 6
M  V30 6 1 4 7
M  V30 7 1 5 8
M  V30 8 2 7 9
M  V30 9 1 7 10
M  V30 10 1 9 11
M  V30 11 2 10 12
M  V30 12 2 11 13
M  V30 13 1 6 8
M  V30 14 1 12 13
M  V30 END BOND
M  V30 END CTAB
M  END
>  <Dotmatics_CR>
R-000915

>  <CR_Set>
Aldehyde

>  <Category>
Aldehydes Aromatic

>  <Reaction type>
RedAm

>  <KI/BB_Nature>
Amine

>  <Comments>
NH

>  <Salt>


>  <CR_Chiral_Form>
Achiral

>  <Prod_total_used>
26

>  <PSR (%)>
92

>  <Article>
3-Phenyl-1H-pyrazole-4-carbaldehyde

>  <CAS>
26033-20-5

>  <Density>
1

>  <Prod_reagent_number>


>  <Stereocenters>
0

>  <Edel>


>  <NB_Name reaction - KI/BB – Capping>
01-RedAm_Amine_Aldehyde

$$$$
R-008505
Actelion Java MolfileCreator 2.0

  0  0  0  0  0  0              0 V3000
M  V30 BEGIN CTAB
M  V30 COUNTS 13 14 0 0 0
M  V30 BEGIN ATOM
M  V30 1 O 0.0 0.0 0.0 0
M  V30 2 C -0.0239 1.5302 0.0 0
M  V30 3 C 1.2552 2.2953 0.0 0
M  V30 4 C 1.2313 3.8255 0.0 0
M  V30 5 C 2.5344 1.566 0.0 0
M  V30 6 C 2.5105 4.5906 0.0 0
M  V30 7 C 3.8136 2.3312 0.0 0
M  V30 8 C 3.7897 3.8614 0.0 0
M  V30 9 N 5.0688 4.6265 0.0 0
M  V30 10 N 6.4197 4.0288 0.0 0
M  V30 11 C 5.2003 6.1448 0.0 0
M  V30 12 C 7.4001 5.1645 0.0 0
M  V30 13 N 6.6469 6.4795 0.0 0
M  V30 END ATOM
M  V30 BEGIN BOND
M  V30 1 2 1 2
M  V30 2 1 2 3
M  V30 3 2 3 4
M  V30 4 1 3 5
M  V30 5 1 4 6
M  V30 6 2 5 7
M  V30 7 2 6 8
M  V30 8 1 8 9
M  V30 9 1 9 10
M  V30 10 1 9 11
M  V30 11 2 10 12
M  V30 12 2 11 13
M  V30 13 1 7 8
M  V30 14 1 12 13
M  V30 END BOND
M  V30 END CTAB
M  END
>  <Dotmatics_CR>
R-008505

>  <CR_Set>
Aldehyde

>  <Category>
Aldehydes Aromatic

>  <Reaction type>
RedAm

>  <KI/BB_Nature>
Amine

>  <Comments>


>  <Salt>


>  <CR_Chiral_Form>
Achiral

>  <Prod_total_used>
43

>  <PSR (%)>
98

>  <Article>
4-(1H-1,2,4-triazol-1-yl)benzaldehyde

>  <CAS>
27996-86-7

>  <Density>
1

>  <Prod_reagent_number>


>  <Stereocenters>
0

>  <Edel>


>  <NB_Name reaction - KI/BB – Capping>
01-RedAm_Amine_Aldehyde

$$$$
R-008105
Actelion Java MolfileCreator 2.0

  0  0  0  0  0  0              0 V3000
M  V30 BEGIN CTAB
M  V30 COUNTS 13 13 0 0 0
M  V30 BEGIN ATOM
M  V30 1 F 0.0 0.0 0.0 0
M  V30 2 C -1.3057 0.7528 0.0 0
M  V30 3 C -1.3292 2.2585 0.0 0
M  V30 4 C -2.6114 0.0235 0.0 0
M  V30 5 C -2.635 3.0232 0.0 0
M  V30 6 C -3.9172 0.7881 0.0 0
M  V30 7 C -3.9407 2.2938 0.0 0
M  V30 8 C -2.6585 4.5289 0.0 0
M  V30 9 C -5.2229 0.0705 0.0 0
M  V30 10 O -3.9643 5.2818 0.0 0
M  V30 11 F -6.5287 0.8234 0.0 0
M  V30 12 F -5.2465 -1.388 0.0 0
M  V30 13 F -5.2465 1.5645 0.0 0
M  V30 END ATOM
M  V30 BEGIN BOND
M  V30 1 1 1 2
M  V30 2 2 2 3
M  V30 3 1 2 4
M  V30 4 1 3 5
M  V30 5 2 4 6
M  V30 6 2 5 7
M  V30 7 1 5 8
M  V30 8 1 6 9
M  V30 9 2 8 10
M  V30 10 1 9 11
M  V30 11 1 9 12
M  V30 12 1 9 13
M  V30 13 1 6 7
M  V30 END BOND
M  V30 END CTAB
M  END
>  <Dotmatics_CR>
R-008105

>  <CR_Set>
Aldehyde

>  <Category>
Aldehydes Aromatic

>  <Reaction type>
RedAm

>  <KI/BB_Nature>
Amine

>  <Comments>


>  <Salt>


>  <CR_Chiral_Form>
Achiral

>  <Prod_total_used>
8

>  <PSR (%)>
75

>  <Article>
3-fluoro-5-(trifluoromethyl)benzaldehyde

>  <CAS>
188815-30-7

>  <Density>
1.376

>  <Prod_reagent_number>


>  <Stereocenters>
0

>  <Edel>


>  <NB_Name reaction - KI/BB – Capping>
01-RedAm_Amine_Aldehyde

$$$$
R-009248
Actelion Java MolfileCreator 2.0

  0  0  0  0  0  0              0 V3000
M  V30 BEGIN CTAB
M  V30 COUNTS 13 13 0 0 0
M  V30 BEGIN ATOM
M  V30 1 O 0.0 0.0 0.0 0
M  V30 2 C 1.2969 -0.7258 0.0 0
M  V30 3 C 1.2731 -2.225 0.0 0
M  V30 4 C 2.57 -2.9508 0.0 0
M  V30 5 C -0.0713 -2.9508 0.0 0
M  V30 6 C 2.5462 -4.45 0.0 0
M  V30 7 C -0.0951 -4.45 0.0 0
M  V30 8 C 1.2017 -5.1758 0.0 0
M  V30 9 C 3.8431 -5.1758 0.0 0
M  V30 10 O 1.1779 -6.675 0.0 0
M  V30 11 O 5.1401 -4.3905 0.0 0
M  V30 12 C 2.4748 -7.4008 0.0 0
M  V30 13 C 2.451 -8.9 0.0 0
M  V30 END ATOM
M  V30 BEGIN BOND
M  V30 1 2 1 2
M  V30 2 1 2 3
M  V30 3 2 3 4
M  V30 4 1 3 5
M  V30 5 1 4 6
M  V30 6 2 5 7
M  V30 7 2 6 8
M  V30 8 1 6 9
M  V30 9 1 8 10
M  V30 10 1 9 11
M  V30 11 1 10 12
M  V30 12 1 12 13
M  V30 13 1 7 8
M  V30 END BOND
M  V30 END CTAB
M  END
>  <Dotmatics_CR>
R-009248

>  <CR_Set>
Aldehyde

>  <Category>
Aldehydes Aromatic

>  <Reaction type>
RedAm

>  <KI/BB_Nature>
Amine

>  <Comments>
OH

>  <Salt>


>  <CR_Chiral_Form>
Achiral

>  <Prod_total_used>
61

>  <PSR (%)>
82

>  <Article>
4-Ethoxy-3-(hydroxymethyl)benzaldehyde

>  <CAS>
917746-81-7

>  <Density>
1

>  <Prod_reagent_number>


>  <Stereocenters>
0

>  <Edel>


>  <NB_Name reaction - KI/BB – Capping>
01-RedAm_Amine_Aldehyde

$$$$
R-009970
Actelion Java MolfileCreator 2.0

  0  0  0  0  0  0              0 V3000
M  V30 BEGIN CTAB
M  V30 COUNTS 13 13 0 0 0
M  V30 BEGIN ATOM
M  V30 1 Cl 0.0 0.0 0.0 0
M  V30 2 C 1.1877 0.9027 0.0 0
M  V30 3 N 2.5893 0.4632 0.0 0
M  V30 4 C 1.164 2.423 0.0 0
M  V30 5 N 3.4445 1.6985 0.0 0
M  V30 6 C 3.0288 -0.9383 0.0 0
M  V30 7 C 2.5655 2.91 0.0 0
M  V30 8 C -0.0712 3.3257 0.0 0
M  V30 9 C 3.005 4.3591 0.0 0
M  V30 10 O -1.4609 2.7318 0.0 0
M  V30 11 F 1.9835 5.4874 0.0 0
M  V30 12 F 4.4422 4.6916 0.0 0
M  V30 13 F 3.4445 5.8081 0.0 0
M  V30 END ATOM
M  V30 BEGIN BOND
M  V30 1 1 1 2
M  V30 2 1 2 3
M  V30 3 2 2 4
M  V30 4 1 3 5
M  V30 5 1 3 6
M  V30 6 1 4 7
M  V30 7 1 4 8
M  V30 8 1 7 9
M  V30 9 2 8 10
M  V30 10 1 9 11
M  V30 11 1 9 12
M  V30 12 1 9 13
M  V30 13 2 5 7
M  V30 END BOND
M  V30 END CTAB
M  END
>  <Dotmatics_CR>
R-009970

>  <CR_Set>
Aldehyde

>  <Category>
Aldehydes Aromatic

>  <Reaction type>
RedAm

>  <KI/BB_Nature>
Amine

>  <Comments>


>  <Salt>


>  <CR_Chiral_Form>
Achiral

>  <Prod_total_used>
21

>  <PSR (%)>
95

>  <Article>
5-Chloro-1-methyl-3-(trifluoromethyl)pyrazole-4-carboxaldehyde

>  <CAS>
128455-62-9

>  <Density>
1

>  <Prod_reagent_number>


>  <Stereocenters>
0

>  <Edel>


>  <NB_Name reaction - KI/BB – Capping>
01-RedAm_Amine_Aldehyde

$$$$
R-008128
Actelion Java MolfileCreator 2.0

  0  0  0  0  0  0              0 V3000
M  V30 BEGIN CTAB
M  V30 COUNTS 14 14 0 0 0
M  V30 BEGIN ATOM
M  V30 1 O 0.0 0.0 0.0 0
M  V30 2 C -0.0239 1.5306 0.0 0
M  V30 3 C 1.2556 2.296 0.0 0
M  V30 4 C 1.2317 3.8266 0.0 0
M  V30 5 C 2.5351 1.5665 0.0 0
M  V30 6 C 2.5112 4.592 0.0 0
M  V30 7 C 3.8147 2.3318 0.0 0
M  V30 8 O 2.4873 6.1226 0.0 0
M  V30 9 C 3.7907 3.8625 0.0 0
M  V30 10 O 5.0942 1.6024 0.0 0
M  V30 11 C 1.1599 6.8999 0.0 0
M  V30 12 O 5.0703 4.6278 0.0 0
M  V30 13 C 5.0703 0.1195 0.0 0
M  V30 14 C 6.3498 3.8984 0.0 0
M  V30 END ATOM
M  V30 BEGIN BOND
M  V30 1 2 1 2
M  V30 2 1 2 3
M  V30 3 2 3 4
M  V30 4 1 3 5
M  V30 5 1 4 6
M  V30 6 2 5 7
M  V30 7 1 6 8
M  V30 8 2 6 9
M  V30 9 1 7 10
M  V30 10 1 8 11
M  V30 11 1 9 12
M  V30 12 1 10 13
M  V30 13 1 12 14
M  V30 14 1 7 9
M  V30 END BOND
M  V30 END CTAB
M  END
>  <Dotmatics_CR>
R-008128

>  <CR_Set>
Aldehyde

>  <Category>
Aldehydes Aromatic

>  <Reaction type>
RedAm

>  <KI/BB_Nature>
Amine

>  <Comments>


>  <Salt>


>  <CR_Chiral_Form>
Achiral

>  <Prod_total_used>
13

>  <PSR (%)>
85

>  <Article>
3,4,5-Trimethoxybenzaldehyde

>  <CAS>
86-81-7

>  <Density>
1

>  <Prod_reagent_number>


>  <Stereocenters>
0

>  <Edel>


>  <NB_Name reaction - KI/BB – Capping>
01-RedAm_Amine_Aldehyde

$$$$
R-009948
Actelion Java MolfileCreator 2.0

  0  0  0  0  0  0              0 V3000
M  V30 BEGIN CTAB
M  V30 COUNTS 14 15 0 0 0
M  V30 BEGIN ATOM
M  V30 1 F 0.0 0.0 0.0 0
M  V30 2 C -1.3029 0.7629 0.0 0
M  V30 3 C -1.3263 2.2654 0.0 0
M  V30 4 C -2.6058 0.0352 0.0 0
M  V30 5 C -2.6292 3.0283 0.0 0
M  V30 6 C -3.9087 0.7981 0.0 0
M  V30 7 N -2.6527 4.5308 0.0 0
M  V30 8 C -3.9321 2.3006 0.0 0
M  V30 9 N -1.4789 5.4228 0.0 0
M  V30 10 C -3.8734 5.4228 0.0 0
M  V30 11 C -1.9602 6.8549 0.0 0
M  V30 12 C -3.4391 6.8549 0.0 0
M  V30 13 C -4.3312 8.0756 0.0 0
M  V30 14 O -3.7443 9.4489 0.0 0
M  V30 END ATOM
M  V30 BEGIN BOND
M  V30 1 1 1 2
M  V30 2 2 2 3
M  V30 3 1 2 4
M  V30 4 1 3 5
M  V30 5 2 4 6
M  V30 6 1 5 7
M  V30 7 2 5 8
M  V30 8 1 7 9
M  V30 9 1 7 10
M  V30 10 2 9 11
M  V30 11 2 10 12
M  V30 12 1 12 13
M  V30 13 2 13 14
M  V30 14 1 6 8
M  V30 15 1 11 12
M  V30 END BOND
M  V30 END CTAB
M  END
>  <Dotmatics_CR>
R-009948

>  <CR_Set>
Aldehyde

>  <Category>
Aldehydes Aromatic

>  <Reaction type>
RedAm

>  <KI/BB_Nature>
Amine

>  <Comments>


>  <Salt>


>  <CR_Chiral_Form>
Achiral

>  <Prod_total_used>
9

>  <PSR (%)>
78

>  <Article>
1-(3-Fluorophenyl)-1H-pyrazole-4-carbaldehyde

>  <CAS>
936940-82-8

>  <Density>
1

>  <Prod_reagent_number>


>  <Stereocenters>
0

>  <Edel>


>  <NB_Name reaction - KI/BB – Capping>
01-RedAm_Amine_Aldehyde

$$$$
R-000775
Actelion Java MolfileCreator 2.0

  0  0  0  0  0  0              0 V3000
M  V30 BEGIN CTAB
M  V30 COUNTS 16 17 0 0 0
M  V30 BEGIN ATOM
M  V30 1 O 0.0 0.0 0.0 0
M  V30 2 C -0.4844 1.4415 0.0 0
M  V30 3 N -1.926 1.926 0.0 0
M  V30 4 C 0.3663 2.6704 0.0 0
M  V30 5 N -1.9496 3.4385 0.0 0
M  V30 6 C -3.1549 1.0752 0.0 0
M  V30 7 C -0.5317 3.8993 0.0 0
M  V30 8 C 1.8315 2.694 0.0 0
M  V30 9 C -3.1785 4.3365 0.0 0
M  V30 10 C -4.5374 1.7133 0.0 0
M  V30 11 C -3.0249 -0.3781 0.0 0
M  V30 12 C -0.0945 5.3409 0.0 0
M  V30 13 O 2.5523 4.0056 0.0 0
M  V30 14 C -5.7663 0.8625 0.0 0
M  V30 15 C -4.2538 -1.2288 0.0 0
M  V30 16 C -5.6363 -0.5908 0.0 0
M  V30 END ATOM
M  V30 BEGIN BOND
M  V30 1 2 1 2
M  V30 2 1 2 3
M  V30 3 1 2 4
M  V30 4 1 3 5
M  V30 5 1 3 6
M  V30 6 2 4 7
M  V30 7 1 4 8
M  V30 8 1 5 9
M  V30 9 2 6 10
M  V30 10 1 6 11
M  V30 11 1 7 12
M  V30 12 2 8 13
M  V30 13 1 10 14
M  V30 14 2 11 15
M  V30 15 2 14 16
M  V30 16 1 5 7
M  V30 17 1 15 16
M  V30 END BOND
M  V30 END CTAB
M  END
>  <Dotmatics_CR>
R-000775

>  <CR_Set>
Aldehyde

>  <Category>
Aldehydes Aromatic

>  <Reaction type>
RedAm

>  <KI/BB_Nature>
Amine

>  <Comments>


>  <Salt>


>  <CR_Chiral_Form>
Achiral

>  <Prod_total_used>
23

>  <PSR (%)>
74

>  <Article>
1,5-Dimethyl-3-oxo-2-phenyl-2,3-dihydro-1H-pyrazole-4-carboxaldehyde

>  <CAS>
950-81-2

>  <Density>
1

>  <Prod_reagent_number>


>  <Stereocenters>
0

>  <Edel>


>  <NB_Name reaction - KI/BB – Capping>
01-RedAm_Amine_Aldehyde

$$$$
R-000781
Actelion Java MolfileCreator 2.0

  0  0  0  0  0  0              0 V3000
M  V30 BEGIN CTAB
M  V30 COUNTS 16 17 0 0 0
M  V30 BEGIN ATOM
M  V30 1 O 0.0 0.0 0.0 0
M  V30 2 C -1.4883 -0.2812 0.0 0
M  V30 3 N -2.5196 0.8555 0.0 0
M  V30 4 C -1.9688 -1.6875 0.0 0
M  V30 5 C -0.9844 -2.7774 0.0 0
M  V30 6 N -1.4649 -4.1838 0.0 0
M  V30 7 C -2.9181 -4.6174 0.0 0
M  V30 8 C -0.5976 -5.3792 0.0 0
M  V30 9 C -2.9415 -6.094 0.0 0
M  V30 10 C -4.2424 -3.8439 0.0 0
M  V30 11 C -1.5118 -6.5745 0.0 0
M  V30 12 C -4.2658 -6.8089 0.0 0
M  V30 13 C -5.5667 -4.5588 0.0 0
M  V30 14 C -1.0781 -7.9809 0.0 0
M  V30 15 C -5.5901 -6.0354 0.0 0
M  V30 16 O -2.1094 -9.0708 0.0 0
M  V30 END ATOM
M  V30 BEGIN BOND
M  V30 1 2 1 2
M  V30 2 1 2 3
M  V30 3 1 2 4
M  V30 4 1 4 5
M  V30 5 1 5 6
M  V30 6 1 6 7
M  V30 7 1 6 8
M  V30 8 2 7 9
M  V30 9 1 7 10
M  V30 10 2 8 11
M  V30 11 1 9 12
M  V30 12 2 10 13
M  V30 13 1 11 14
M  V30 14 2 12 15
M  V30 15 2 14 16
M  V30 16 1 9 11
M  V30 17 1 13 15
M  V30 END BOND
M  V30 END CTAB
M  END
>  <Dotmatics_CR>
R-000781

>  <CR_Set>
Aldehyde

>  <Category>
Aldehydes Aromatic

>  <Reaction type>
RedAm

>  <KI/BB_Nature>
Amine

>  <Comments>


>  <Salt>


>  <CR_Chiral_Form>
Achiral

>  <Prod_total_used>
21

>  <PSR (%)>
76

>  <Article>
3-(3-Formyl-indol-1-yl)propionamide

>  <CAS>
61922-01-8

>  <Density>
1

>  <Prod_reagent_number>


>  <Stereocenters>
0

>  <Edel>


>  <NB_Name reaction - KI/BB – Capping>
01-RedAm_Amine_Aldehyde

$$$$
R-009974
Actelion Java MolfileCreator 2.0

  0  0  0  0  0  0              0 V3000
M  V30 BEGIN CTAB
M  V30 COUNTS 17 17 0 0 0
M  V30 BEGIN ATOM
M  V30 1 O 0.0 0.0 0.0 0
M  V30 2 C -0.0236 1.514 0.0 0
M  V30 3 N 1.2419 2.271 0.0 0
M  V30 4 C -1.3365 2.271 0.0 0
M  V30 5 C 2.5075 1.5494 0.0 0
M  V30 6 O -2.6495 1.5494 0.0 0
M  V30 7 C 3.7731 2.3064 0.0 0
M  V30 8 C 2.4839 0.0827 0.0 0
M  V30 9 C 2.4839 3.0634 0.0 0
M  V30 10 C -3.9624 2.3064 0.0 0
M  V30 11 C -3.986 3.8204 0.0 0
M  V30 12 C -5.2753 1.5849 0.0 0
M  V30 13 C -5.299 4.5774 0.0 0
M  V30 14 C -6.5882 2.3419 0.0 0
M  V30 15 C -6.6119 3.8559 0.0 0
M  V30 16 C -7.9248 4.6129 0.0 0
M  V30 17 O -9.2377 3.8914 0.0 0
M  V30 END ATOM
M  V30 BEGIN BOND
M  V30 1 2 1 2
M  V30 2 1 2 3
M  V30 3 1 2 4
M  V30 4 1 3 5
M  V30 5 1 4 6
M  V30 6 1 5 7
M  V30 7 1 5 8
M  V30 8 1 5 9
M  V30 9 1 6 10
M  V30 10 2 10 11
M  V30 11 1 10 12
M  V30 12 1 11 13
M  V30 13 2 12 14
M  V30 14 2 13 15
M  V30 15 1 15 16
M  V30 16 2 16 17
M  V30 17 1 14 15
M  V30 END BOND
M  V30 END CTAB
M  END
>  <Dotmatics_CR>
R-009974

>  <CR_Set>
Aldehyde

>  <Category>
Aldehydes Aromatic

>  <Reaction type>
RedAm

>  <KI/BB_Nature>
Amine

>  <Comments>


>  <Salt>


>  <CR_Chiral_Form>
Achiral

>  <Prod_total_used>
9

>  <PSR (%)>
100

>  <Article>
N-(tert-butyl)-2-(4-formylphenoxy)acetamide

>  <CAS>
838867-14-4

>  <Density>
1

>  <Prod_reagent_number>


>  <Stereocenters>
0

>  <Edel>


>  <NB_Name reaction - KI/BB – Capping>
01-RedAm_Amine_Aldehyde

$$$$
