R-008722
Actelion Java MolfileCreator 2.0

  0  0  0  0  0  0              0 V3000
M  V30 BEGIN CTAB
M  V30 COUNTS 11 11 0 0 0
M  V30 BEGIN ATOM
M  V30 1 S 0.0 0.0 0.0 0
M  V30 2 C 0.1306 1.5086 0.0 0
M  V30 3 C -1.4849 -0.2851 0.0 0
M  V30 4 C 1.4017 2.2689 0.0 0
M  V30 5 C -1.2592 2.1501 0.0 0
M  V30 6 C -2.1264 -1.6274 0.0 0
M  V30 7 C -2.2452 1.0335 0.0 0
M  V30 8 O 1.378 3.7895 0.0 0
M  V30 9 O 2.6728 1.5443 0.0 0
M  V30 10 O -1.2711 -2.8154 0.0 0
M  V30 11 C -3.6351 -1.7581 0.0 0
M  V30 END ATOM
M  V30 BEGIN BOND
M  V30 1 1 1 2
M  V30 2 1 1 3
M  V30 3 1 2 4
M  V30 4 2 2 5
M  V30 5 1 3 6
M  V30 6 2 3 7
M  V30 7 2 4 8
M  V30 8 1 4 9
M  V30 9 2 6 10
M  V30 10 1 6 11
M  V30 11 1 5 7
M  V30 END BOND
M  V30 END CTAB
M  END
>  <Dotmatics_CR>
R-008722

>  <CR_Set>
Acid

>  <Category>
Carboxylic Acids Aromatic

>  <Reaction type>
Amidation

>  <KI/BB_Nature>
Amine

>  <Comments>
Avoid (ketone)

>  <Salt>


>  <CR_Chiral_Form>
Achiral

>  <Prod_total_used>
41

>  <PSR (%)>
80

>  <Article>
5-Acetylthiophene-2-carboxylic acid

>  <CAS>
4066-41-5

>  <Density>
1

>  <Prod_reagent_number>


>  <Stereocenters>
0

>  <NB_Name reaction - KI/BB – Capping>
03-Amidation_Amine_Acid

$$$$
R-000758
Actelion Java MolfileCreator 2.0

  0  0  0  0  0  0              0 V3000
M  V30 BEGIN CTAB
M  V30 COUNTS 9 9 0 0 0
M  V30 BEGIN ATOM
M  V30 1 O 0.0 0.0 0.0 0
M  V30 2 C -0.769 -1.266 0.0 0
M  V30 3 O -0.0354 -2.532 0.0 0
M  V30 4 C -2.2835 -1.2423 0.0 0
M  V30 5 N -3.1828 -0.0118 0.0 0
M  V30 6 C -3.1828 -2.4255 0.0 0
M  V30 7 C -4.6263 -0.4496 0.0 0
M  V30 8 C -2.745 1.4316 0.0 0
M  V30 9 N -4.6263 -1.9404 0.0 0
M  V30 END ATOM
M  V30 BEGIN BOND
M  V30 1 2 1 2
M  V30 2 1 2 3
M  V30 3 1 2 4
M  V30 4 1 4 5
M  V30 5 2 4 6
M  V30 6 1 5 7
M  V30 7 1 5 8
M  V30 8 1 6 9
M  V30 9 2 7 9
M  V30 END BOND
M  V30 END CTAB
M  END
>  <Dotmatics_CR>
R-000758

>  <CR_Set>
Acid

>  <Category>
Carboxylic Acids Aromatic

>  <Reaction type>
Amidation

>  <KI/BB_Nature>
Amine

>  <Comments>
Solubility issue

>  <Salt>


>  <CR_Chiral_Form>
Achiral

>  <Prod_total_used>
137

>  <PSR (%)>
85

>  <Article>
3-methylimidazole-4-carboxylic acid

>  <CAS>
41806-40-0

>  <Density>
1

>  <Prod_reagent_number>
C149

>  <Stereocenters>
0

>  <NB_Name reaction - KI/BB – Capping>
03-Amidation_Amine_Acid

$$$$
R-003226
Actelion Java MolfileCreator 2.0

  0  0  0  0  0  0              0 V3000
M  V30 BEGIN CTAB
M  V30 COUNTS 10 10 0 0 0
M  V30 BEGIN ATOM
M  V30 1 O 0.0 0.0 0.0 0
M  V30 2 C -0.0236 -1.4774 0.0 0
M  V30 3 O 1.2528 -2.2102 0.0 0
M  V30 4 C -1.3474 -2.2102 0.0 0
M  V30 5 C -1.371 -3.6995 0.0 0
M  V30 6 C -2.6712 -1.4301 0.0 0
M  V30 7 O -0.0945 -4.4205 0.0 0
M  V30 8 C -2.7066 -4.4205 0.0 0
M  V30 9 C -3.995 -2.1629 0.0 0
M  V30 10 C -4.0304 -3.6404 0.0 0
M  V30 END ATOM
M  V30 BEGIN BOND
M  V30 1 2 1 2
M  V30 2 1 2 3
M  V30 3 1 2 4
M  V30 4 2 4 5
M  V30 5 1 4 6
M  V30 6 1 5 7
M  V30 7 1 5 8
M  V30 8 2 6 9
M  V30 9 2 8 10
M  V30 10 1 9 10
M  V30 END BOND
M  V30 END CTAB
M  END
>  <Dotmatics_CR>
R-003226

>  <CR_Set>
Acid

>  <Category>
Carboxylic Acids Aromatic

>  <Reaction type>
Amidation

>  <KI/BB_Nature>
Amine

>  <Comments>
acidic cdts for purification

>  <Salt>


>  <CR_Chiral_Form>
Achiral

>  <Prod_total_used>
14

>  <PSR (%)>
86

>  <Article>
SALICYLIC ACID

>  <CAS>
69-72-7

>  <Density>
1

>  <Prod_reagent_number>


>  <Stereocenters>
0

>  <NB_Name reaction - KI/BB – Capping>
03-Amidation_Amine_Acid

$$$$
R-010531
Actelion Java MolfileCreator 2.0

  0  0  0  0  0  0              0 V3000
M  V30 BEGIN CTAB
M  V30 COUNTS 9 9 0 0 0
M  V30 BEGIN ATOM
M  V30 1 O 0.0 0.0 0.0 0
M  V30 2 C 1.2941 -0.7242 0.0 0
M  V30 3 O 2.5883 0.0593 0.0 0
M  V30 4 C 1.2704 -2.2202 0.0 0 CFG=2
M  V30 5 C -0.0712 -2.9445 0.0 0
M  V30 6 C 2.5645 -2.9445 0.0 0
M  V30 7 C -0.0949 -4.4405 0.0 0
M  V30 8 C 2.5408 -4.4405 0.0 0
M  V30 9 C 1.1991 -5.1648 0.0 0
M  V30 END ATOM
M  V30 BEGIN BOND
M  V30 1 2 1 2
M  V30 2 1 2 3
M  V30 3 1 4 2 CFG=1
M  V30 4 1 4 5
M  V30 5 1 4 6
M  V30 6 1 5 7
M  V30 7 1 6 8
M  V30 8 2 7 9
M  V30 9 1 8 9
M  V30 END BOND
M  V30 BEGIN COLLECTION
M  V30 MDLV30/STERAC1 ATOMS=(1 4)
M  V30 END COLLECTION
M  V30 END CTAB
M  END
>  <Dotmatics_CR>
R-010531

>  <CR_Set>
Acid

>  <Category>
Carboxylic Acids Non-Aromatic

>  <Reaction type>
Amidation

>  <KI/BB_Nature>
Amine

>  <Comments>


>  <Salt>


>  <CR_Chiral_Form>
Racemate

>  <Prod_total_used>
6

>  <PSR (%)>
100

>  <Article>
3-Cyclohexene-1-carboxylic acid

>  <CAS>
4771-80-6

>  <Density>
1.081

>  <Prod_reagent_number>
C163

>  <Stereocenters>
1

>  <NB_Name reaction - KI/BB – Capping>
03-Amidation_Amine_Acid

$$$$
R-004701
Actelion Java MolfileCreator 2.0

  0  0  0  0  0  0              0 V3000
M  V30 BEGIN CTAB
M  V30 COUNTS 5 4 0 0 0
M  V30 BEGIN ATOM
M  V30 1 O 0.0 0.0 0.0 0
M  V30 2 C -0.0236 -1.4874 0.0 0
M  V30 3 O -1.3575 -2.2193 0.0 0
M  V30 4 C 1.2631 -2.2193 0.0 0
M  V30 5 C 2.5499 -1.4284 0.0 0
M  V30 END ATOM
M  V30 BEGIN BOND
M  V30 1 2 1 2
M  V30 2 1 2 3
M  V30 3 1 2 4
M  V30 4 1 4 5
M  V30 END BOND
M  V30 END CTAB
M  END
>  <Dotmatics_CR>
R-004701

>  <CR_Set>
Acid

>  <Category>
Carboxylic Acids Non-Aromatic

>  <Reaction type>
Amidation

>  <KI/BB_Nature>
Amine

>  <Comments>


>  <Salt>


>  <CR_Chiral_Form>
Achiral

>  <Prod_total_used>
136

>  <PSR (%)>
84

>  <Article>
PROPIONIC ACID

>  <CAS>
79-09-4

>  <Density>
0.993

>  <Prod_reagent_number>
C141

>  <Stereocenters>
0

>  <NB_Name reaction - KI/BB – Capping>
03-Amidation_Amine_Acid

$$$$
R-004774
Actelion Java MolfileCreator 2.0

  0  0  0  0  0  0              0 V3000
M  V30 BEGIN CTAB
M  V30 COUNTS 5 4 0 0 0
M  V30 BEGIN ATOM
M  V30 1 O 0.0 0.0 0.0 0
M  V30 2 C -0.0237 -1.4959 0.0 0
M  V30 3 O -1.3653 -2.2202 0.0 0
M  V30 4 C 1.2703 -2.2202 0.0 0
M  V30 5 O 1.2466 -3.7162 0.0 0
M  V30 END ATOM
M  V30 BEGIN BOND
M  V30 1 2 1 2
M  V30 2 1 2 3
M  V30 3 1 2 4
M  V30 4 1 4 5
M  V30 END BOND
M  V30 END CTAB
M  END
>  <Dotmatics_CR>
R-004774

>  <CR_Set>
Acid

>  <Category>
Carboxylic Acids Non-Aromatic

>  <Reaction type>
Amidation

>  <KI/BB_Nature>
Amine

>  <Comments>


>  <Salt>


>  <CR_Chiral_Form>
Achiral

>  <Prod_total_used>
80

>  <PSR (%)>
81

>  <Article>
GLYCOLIC ACID

>  <CAS>
79-14-1

>  <Density>
1

>  <Prod_reagent_number>
C165

>  <Stereocenters>
0

>  <NB_Name reaction - KI/BB – Capping>
03-Amidation_Amine_Acid

$$$$
R-000475
Actelion Java MolfileCreator 2.0

  0  0  0  0  0  0              0 V3000
M  V30 BEGIN CTAB
M  V30 COUNTS 6 6 0 0 0
M  V30 BEGIN ATOM
M  V30 1 O 0.0 0.0 0.0 0
M  V30 2 C -0.7716 -1.2701 0.0 0
M  V30 3 O -0.0356 -2.5403 0.0 0
M  V30 4 C -2.291 -1.2464 0.0 0
M  V30 5 C -3.6087 -0.4748 0.0 0
M  V30 6 C -3.6087 -1.9705 0.0 0
M  V30 END ATOM
M  V30 BEGIN BOND
M  V30 1 2 1 2
M  V30 2 1 2 3
M  V30 3 1 2 4
M  V30 4 1 4 5
M  V30 5 1 4 6
M  V30 6 1 5 6
M  V30 END BOND
M  V30 END CTAB
M  END
>  <Dotmatics_CR>
R-000475

>  <CR_Set>
Acid

>  <Category>
Carboxylic Acids Non-Aromatic

>  <Reaction type>
Amidation

>  <KI/BB_Nature>
Amine

>  <Comments>


>  <Salt>


>  <CR_Chiral_Form>
Achiral

>  <Prod_total_used>
22

>  <PSR (%)>
82

>  <Article>
cyclopropanecarboxylic acid

>  <CAS>
1759-53-1

>  <Density>
1.081

>  <Prod_reagent_number>


>  <Stereocenters>
0

>  <NB_Name reaction - KI/BB – Capping>
03-Amidation_Amine_Acid

$$$$
R-004846
Actelion Java MolfileCreator 2.0

  0  0  0  0  0  0              0 V3000
M  V30 BEGIN CTAB
M  V30 COUNTS 6 5 0 0 0
M  V30 BEGIN ATOM
M  V30 1 O 0.0 0.0 0.0 0
M  V30 2 C 0.585 -1.3772 0.0 0
M  V30 3 O 1.9379 -1.621 0.0 0
M  V30 4 C -0.2925 -2.596 0.0 0
M  V30 5 C -1.8525 -2.4376 0.0 0
M  V30 6 C -2.5351 -1.0359 0.0 0
M  V30 END ATOM
M  V30 BEGIN BOND
M  V30 1 2 1 2
M  V30 2 1 2 3
M  V30 3 1 2 4
M  V30 4 1 4 5
M  V30 5 1 5 6
M  V30 END BOND
M  V30 END CTAB
M  END
>  <Dotmatics_CR>
R-004846

>  <CR_Set>
Acid

>  <Category>
Carboxylic Acids Non-Aromatic

>  <Reaction type>
Amidation

>  <KI/BB_Nature>
Amine

>  <Comments>


>  <Salt>


>  <CR_Chiral_Form>
Achiral

>  <Prod_total_used>
85

>  <PSR (%)>
96

>  <Article>
BUTYRIC ACID

>  <CAS>
107-92-6

>  <Density>
0.964

>  <Prod_reagent_number>
C142

>  <Stereocenters>
0

>  <NB_Name reaction - KI/BB – Capping>
03-Amidation_Amine_Acid

$$$$
R-003235
Actelion Java MolfileCreator 2.0

  0  0  0  0  0  0              0 V3000
M  V30 BEGIN CTAB
M  V30 COUNTS 6 5 0 0 0
M  V30 BEGIN ATOM
M  V30 1 O 0.0 0.0 0.0 0
M  V30 2 C -0.0237 1.5189 0.0 0
M  V30 3 O -1.3409 2.2784 0.0 0
M  V30 4 C 1.246 2.2784 0.0 0
M  V30 5 C 2.5157 1.5545 0.0 0
M  V30 6 C 1.2222 3.7974 0.0 0
M  V30 END ATOM
M  V30 BEGIN BOND
M  V30 1 2 1 2
M  V30 2 1 2 3
M  V30 3 1 2 4
M  V30 4 1 4 5
M  V30 5 1 4 6
M  V30 END BOND
M  V30 END CTAB
M  END
>  <Dotmatics_CR>
R-003235

>  <CR_Set>
Acid

>  <Category>
Carboxylic Acids Non-Aromatic

>  <Reaction type>
Amidation

>  <KI/BB_Nature>
Amine

>  <Comments>


>  <Salt>


>  <CR_Chiral_Form>
Achiral

>  <Prod_total_used>
91

>  <PSR (%)>
74

>  <Article>
2-methylpropanoic acid

>  <CAS>
79-31-2

>  <Density>
0.95

>  <Prod_reagent_number>
C001

>  <Stereocenters>
0

>  <NB_Name reaction - KI/BB – Capping>
03-Amidation_Amine_Acid

$$$$
R-008826
Actelion Java MolfileCreator 2.0

  0  0  0  0  0  0              0 V3000
M  V30 BEGIN CTAB
M  V30 COUNTS 6 5 0 0 0
M  V30 BEGIN ATOM
M  V30 1 F 0.0 0.0 0.0 0
M  V30 2 C 0.8655 1.2398 0.0 0
M  V30 3 F -0.0467 2.4797 0.0 0
M  V30 4 C 2.3394 1.2632 0.0 0
M  V30 5 O 3.0646 2.585 0.0 0
M  V30 6 O 3.0646 -0.0116 0.0 0
M  V30 END ATOM
M  V30 BEGIN BOND
M  V30 1 1 1 2
M  V30 2 1 2 3
M  V30 3 1 2 4
M  V30 4 2 4 5
M  V30 5 1 4 6
M  V30 END BOND
M  V30 END CTAB
M  END
>  <Dotmatics_CR>
R-008826

>  <CR_Set>
Acid

>  <Category>
Carboxylic Acids Non-Aromatic

>  <Reaction type>
Amidation

>  <KI/BB_Nature>
Amine

>  <Comments>


>  <Salt>


>  <CR_Chiral_Form>
Achiral

>  <Prod_total_used>
91

>  <PSR (%)>
75

>  <Article>
2,2-difluoroacetic acid

>  <CAS>
381-73-7

>  <Density>
1.526

>  <Prod_reagent_number>


>  <Stereocenters>
0

>  <NB_Name reaction - KI/BB – Capping>
03-Amidation_Amine_Acid

$$$$
R-009785
Actelion Java MolfileCreator 2.0

  0  0  0  0  0  0              0 V3000
M  V30 BEGIN CTAB
M  V30 COUNTS 6 5 0 0 0
M  V30 BEGIN ATOM
M  V30 1 S 0.0 0.0 0.0 0
M  V30 2 C 1.2815 -0.7305 0.0 0
M  V30 3 C -1.3294 -0.7305 0.0 0
M  V30 4 C 2.563 0.0479 0.0 0
M  V30 5 O 2.5391 1.5809 0.0 0
M  V30 6 O 3.8446 -0.6826 0.0 0
M  V30 END ATOM
M  V30 BEGIN BOND
M  V30 1 1 1 2
M  V30 2 1 1 3
M  V30 3 1 2 4
M  V30 4 2 4 5
M  V30 5 1 4 6
M  V30 END BOND
M  V30 END CTAB
M  END
>  <Dotmatics_CR>
R-009785

>  <CR_Set>
Acid

>  <Category>
Carboxylic Acids Non-Aromatic

>  <Reaction type>
Amidation

>  <KI/BB_Nature>
Amine

>  <Comments>


>  <Salt>


>  <CR_Chiral_Form>
Achiral

>  <Prod_total_used>
10

>  <PSR (%)>
100

>  <Article>
(Methylthio)acetic acid

>  <CAS>
2444-37-3

>  <Density>
1.219

>  <Prod_reagent_number>
C162

>  <Stereocenters>
0

>  <NB_Name reaction - KI/BB – Capping>
03-Amidation_Amine_Acid

$$$$
R-004810
Actelion Java MolfileCreator 2.0

  0  0  0  0  0  0              0 V3000
M  V30 BEGIN CTAB
M  V30 COUNTS 6 5 0 0 0
M  V30 BEGIN ATOM
M  V30 1 O 0.0 0.0 0.0 0
M  V30 2 C -0.0246 -1.5516 0.0 0
M  V30 3 O 1.1699 -2.3644 0.0 0
M  V30 4 C -1.3423 -2.3152 0.0 0
M  V30 5 C -1.33 -3.8053 0.0 0
M  V30 6 N -1.3177 -5.2954 0.0 0
M  V30 END ATOM
M  V30 BEGIN BOND
M  V30 1 2 1 2
M  V30 2 1 2 3
M  V30 3 1 2 4
M  V30 4 1 4 5
M  V30 5 3 5 6
M  V30 END BOND
M  V30 END CTAB
M  END
>  <Dotmatics_CR>
R-004810

>  <CR_Set>
Acid

>  <Category>
Carboxylic Acids Non-Aromatic

>  <Reaction type>
Amidation

>  <KI/BB_Nature>
Amine

>  <Comments>


>  <Salt>


>  <CR_Chiral_Form>
Achiral

>  <Prod_total_used>
19

>  <PSR (%)>
89

>  <Article>
CYANOACETIC ACID

>  <CAS>
372-09-8

>  <Density>
1

>  <Prod_reagent_number>


>  <Stereocenters>
0

>  <NB_Name reaction - KI/BB – Capping>
03-Amidation_Amine_Acid

$$$$
R-003837
Actelion Java MolfileCreator 2.0

  0  0  0  0  0  0              0 V3000
M  V30 BEGIN CTAB
M  V30 COUNTS 7 6 0 0 0
M  V30 BEGIN ATOM
M  V30 1 O 0.0 0.0 0.0 0
M  V30 2 C -0.0239 -1.4824 0.0 0
M  V30 3 O -1.3628 -2.2116 0.0 0
M  V30 4 C 1.2552 -2.2116 0.0 0
M  V30 5 C 2.5464 -1.4346 0.0 0
M  V30 6 C 2.5225 0.0956 0.0 0
M  V30 7 C 3.8375 -2.1638 0.0 0
M  V30 END ATOM
M  V30 BEGIN BOND
M  V30 1 2 1 2
M  V30 2 1 2 3
M  V30 3 1 2 4
M  V30 4 1 4 5
M  V30 5 1 5 6
M  V30 6 1 5 7
M  V30 END BOND
M  V30 END CTAB
M  END
>  <Dotmatics_CR>
R-003837

>  <CR_Set>
Acid

>  <Category>
Carboxylic Acids Non-Aromatic

>  <Reaction type>
Amidation

>  <KI/BB_Nature>
Amine

>  <Comments>


>  <Salt>


>  <CR_Chiral_Form>
Achiral

>  <Prod_total_used>
94

>  <PSR (%)>
86

>  <Article>
3-methylbutanoic acid

>  <CAS>
503-74-2

>  <Density>
0.925

>  <Prod_reagent_number>
C140

>  <Stereocenters>
0

>  <NB_Name reaction - KI/BB – Capping>
03-Amidation_Amine_Acid

$$$$
R-009169
Actelion Java MolfileCreator 2.0

  0  0  0  0  0  0              0 V3000
M  V30 BEGIN CTAB
M  V30 COUNTS 7 6 0 0 0
M  V30 BEGIN ATOM
M  V30 1 S 0.0 0.0 0.0 0
M  V30 2 C 1.2757 -0.7273 0.0 0
M  V30 3 C -1.3234 -0.7273 0.0 0
M  V30 4 C 2.5515 0.0476 0.0 0
M  V30 5 C -2.6469 0.0476 0.0 0
M  V30 6 O 2.5277 1.5738 0.0 0
M  V30 7 O 3.8273 -0.6796 0.0 0
M  V30 END ATOM
M  V30 BEGIN BOND
M  V30 1 1 1 2
M  V30 2 1 1 3
M  V30 3 1 2 4
M  V30 4 1 3 5
M  V30 5 2 4 6
M  V30 6 1 4 7
M  V30 END BOND
M  V30 END CTAB
M  END
>  <Dotmatics_CR>
R-009169

>  <CR_Set>
Acid

>  <Category>
Carboxylic Acids Non-Aromatic

>  <Reaction type>
Amidation

>  <KI/BB_Nature>
Amine

>  <Comments>


>  <Salt>


>  <CR_Chiral_Form>
Achiral

>  <Prod_total_used>
12

>  <PSR (%)>
92

>  <Article>
(Ethylthio)acetic acid

>  <CAS>
627-04-3

>  <Density>
1.149

>  <Prod_reagent_number>


>  <Stereocenters>
0

>  <NB_Name reaction - KI/BB – Capping>
03-Amidation_Amine_Acid

$$$$
R-011778
Actelion Java MolfileCreator 2.0

  0  0  0  0  0  0              0 V3000
M  V30 BEGIN CTAB
M  V30 COUNTS 7 6 0 0 0
M  V30 BEGIN ATOM
M  V30 1 F 0.0 0.0 0.0 0
M  V30 2 C 1.2307 0.7433 0.0 0
M  V30 3 C 2.7661 -0.134 0.0 0
M  V30 4 C 1.2063 2.2056 0.0 0
M  V30 5 C -0.0487 1.4866 0.0 0
M  V30 6 O 3.9969 0.6092 0.0 0
M  V30 7 O 2.7417 -1.5475 0.0 0
M  V30 END ATOM
M  V30 BEGIN BOND
M  V30 1 1 1 2
M  V30 2 1 2 3
M  V30 3 1 2 4
M  V30 4 1 2 5
M  V30 5 2 3 6
M  V30 6 1 3 7
M  V30 END BOND
M  V30 END CTAB
M  END
>  <Dotmatics_CR>
R-011778

>  <CR_Set>
Acid

>  <Category>
Carboxylic Acids Non-Aromatic

>  <Reaction type>
Amidation

>  <KI/BB_Nature>
Amine

>  <Comments>


>  <Salt>


>  <CR_Chiral_Form>
Achiral

>  <Prod_total_used>
80

>  <PSR (%)>
93

>  <Article>
2-fluoro-2-methyl-propanoic acid

>  <CAS>
63812-15-7

>  <Density>
1.12

>  <Prod_reagent_number>


>  <Stereocenters>
0

>  <NB_Name reaction - KI/BB – Capping>
03-Amidation_Amine_Acid

$$$$
R-003792
Actelion Java MolfileCreator 2.0

  0  0  0  0  0  0              0 V3000
M  V30 BEGIN CTAB
M  V30 COUNTS 7 6 0 0 0
M  V30 BEGIN ATOM
M  V30 1 O 0.0 0.0 0.0 0
M  V30 2 C 0.0583 -1.4694 0.0 0
M  V30 3 O -1.2361 -2.2857 0.0 0
M  V30 4 C 1.3877 -2.1224 0.0 0
M  V30 5 O 2.6239 -1.2478 0.0 0
M  V30 6 C 3.9533 -1.9125 0.0 0
M  V30 7 C 5.2012 -1.0495 0.0 0
M  V30 END ATOM
M  V30 BEGIN BOND
M  V30 1 2 1 2
M  V30 2 1 2 3
M  V30 3 1 2 4
M  V30 4 1 4 5
M  V30 5 1 5 6
M  V30 6 1 6 7
M  V30 END BOND
M  V30 END CTAB
M  END
>  <Dotmatics_CR>
R-003792

>  <CR_Set>
Acid

>  <Category>
Carboxylic Acids Non-Aromatic

>  <Reaction type>
Amidation

>  <KI/BB_Nature>
Amine

>  <Comments>


>  <Salt>


>  <CR_Chiral_Form>
Achiral

>  <Prod_total_used>
107

>  <PSR (%)>
86

>  <Article>
2-ethoxyacetic acid

>  <CAS>
627-03-2

>  <Density>
1.102

>  <Prod_reagent_number>
C139

>  <Stereocenters>
0

>  <NB_Name reaction - KI/BB – Capping>
03-Amidation_Amine_Acid

$$$$
R-004866
Actelion Java MolfileCreator 2.0

  0  0  0  0  0  0              0 V3000
M  V30 BEGIN CTAB
M  V30 COUNTS 7 6 0 0 0
M  V30 BEGIN ATOM
M  V30 1 O 0.0 0.0 0.0 0
M  V30 2 C -0.3954 1.4463 0.0 0
M  V30 3 O -1.8418 1.8644 0.0 0
M  V30 4 C 0.6327 2.4972 0.0 0
M  V30 5 O 1.661 3.6272 0.0 0
M  V30 6 C -0.4406 3.6272 0.0 0
M  V30 7 C 1.661 1.4915 0.0 0
M  V30 END ATOM
M  V30 BEGIN BOND
M  V30 1 2 1 2
M  V30 2 1 2 3
M  V30 3 1 2 4
M  V30 4 1 4 5
M  V30 5 1 4 6
M  V30 6 1 4 7
M  V30 END BOND
M  V30 END CTAB
M  END
>  <Dotmatics_CR>
R-004866

>  <CR_Set>
Acid

>  <Category>
Carboxylic Acids Non-Aromatic

>  <Reaction type>
Amidation

>  <KI/BB_Nature>
Amine

>  <Comments>


>  <Salt>


>  <CR_Chiral_Form>
Achiral

>  <Prod_total_used>
24

>  <PSR (%)>
92

>  <Article>
2-HYDROXYISOBUTYRIC ACID

>  <CAS>
594-61-6

>  <Density>
1

>  <Prod_reagent_number>


>  <Stereocenters>
0

>  <NB_Name reaction - KI/BB – Capping>
03-Amidation_Amine_Acid

$$$$
R-009162
Actelion Java MolfileCreator 2.0

  0  0  0  0  0  0              0 V3000
M  V30 BEGIN CTAB
M  V30 COUNTS 7 6 0 0 0
M  V30 BEGIN ATOM
M  V30 1 O 0.0 0.0 0.0 0
M  V30 2 C 1.289 0.771 0.0 0
M  V30 3 O 1.2649 2.313 0.0 0
M  V30 4 C 2.5781 0.0361 0.0 0
M  V30 5 C 2.554 -1.4577 0.0 0
M  V30 6 O 3.843 -2.1925 0.0 0
M  V30 7 C 3.8189 -3.6864 0.0 0
M  V30 END ATOM
M  V30 BEGIN BOND
M  V30 1 2 1 2
M  V30 2 1 2 3
M  V30 3 1 2 4
M  V30 4 1 4 5
M  V30 5 1 5 6
M  V30 6 1 6 7
M  V30 END BOND
M  V30 END CTAB
M  END
>  <Dotmatics_CR>
R-009162

>  <CR_Set>
Acid

>  <Category>
Carboxylic Acids Non-Aromatic

>  <Reaction type>
Amidation

>  <KI/BB_Nature>
Amine

>  <Comments>


>  <Salt>


>  <CR_Chiral_Form>
Achiral

>  <Prod_total_used>
162

>  <PSR (%)>
86

>  <Article>
3-methoxypropanoic acid

>  <CAS>
2544-06-1

>  <Density>
1.108

>  <Prod_reagent_number>
C146

>  <Stereocenters>
0

>  <NB_Name reaction - KI/BB – Capping>
03-Amidation_Amine_Acid

$$$$
R-011409
Actelion Java MolfileCreator 2.0

  0  0  0  0  0  0              0 V3000
M  V30 BEGIN CTAB
M  V30 COUNTS 7 6 0 0 0
M  V30 BEGIN ATOM
M  V30 1 O 0.0 0.0 0.0 0
M  V30 2 C 1.1486 0.6937 0.0 0
M  V30 3 O 1.1258 2.0584 0.0 0
M  V30 4 C 2.5815 -0.125 0.0 0
M  V30 5 C 4.0145 0.7392 0.0 0
M  V30 6 C 5.4475 -0.0796 0.0 0
M  V30 7 N 6.5961 -0.7278 0.0 0
M  V30 END ATOM
M  V30 BEGIN BOND
M  V30 1 2 1 2
M  V30 2 1 2 3
M  V30 3 1 2 4
M  V30 4 1 4 5
M  V30 5 1 5 6
M  V30 6 3 6 7
M  V30 END BOND
M  V30 END CTAB
M  END
>  <Dotmatics_CR>
R-011409

>  <CR_Set>
Acid

>  <Category>
Carboxylic Acids Non-Aromatic

>  <Reaction type>
Amidation

>  <KI/BB_Nature>
Amine

>  <Comments>


>  <Salt>


>  <CR_Chiral_Form>
Achiral

>  <Prod_total_used>
119

>  <PSR (%)>
87

>  <Article>
3-cyanopropanoic acid

>  <CAS>
16051-87-9

>  <Density>
1

>  <Prod_reagent_number>


>  <Stereocenters>
0

>  <NB_Name reaction - KI/BB – Capping>
03-Amidation_Amine_Acid

$$$$
R-008546
Actelion Java MolfileCreator 2.0

  0  0  0  0  0  0              0 V3000
M  V30 BEGIN CTAB
M  V30 COUNTS 7 7 0 0 0
M  V30 BEGIN ATOM
M  V30 1 O 0.0 0.0 0.0 0
M  V30 2 C -0.0237 -1.4719 0.0 0
M  V30 3 O 1.2464 -2.1961 0.0 0
M  V30 4 C -1.3414 -2.1961 0.0 0
M  V30 5 C -2.659 -1.4363 0.0 0
M  V30 6 C -3.4307 -0.1187 0.0 0
M  V30 7 C -4.1785 -1.4126 0.0 0
M  V30 END ATOM
M  V30 BEGIN BOND
M  V30 1 2 1 2
M  V30 2 1 2 3
M  V30 3 1 2 4
M  V30 4 1 4 5
M  V30 5 1 5 6
M  V30 6 1 5 7
M  V30 7 1 6 7
M  V30 END BOND
M  V30 END CTAB
M  END
>  <Dotmatics_CR>
R-008546

>  <CR_Set>
Acid

>  <Category>
Carboxylic Acids Non-Aromatic

>  <Reaction type>
Amidation

>  <KI/BB_Nature>
Amine

>  <Comments>


>  <Salt>


>  <CR_Chiral_Form>
Achiral

>  <Prod_total_used>
157

>  <PSR (%)>
87

>  <Article>
2-cyclopropylacetic acid

>  <CAS>
5239-82-7

>  <Density>
1.14

>  <Prod_reagent_number>
C144

>  <Stereocenters>
0

>  <NB_Name reaction - KI/BB – Capping>
03-Amidation_Amine_Acid

$$$$
R-008220
Actelion Java MolfileCreator 2.0

  0  0  0  0  0  0              0 V3000
M  V30 BEGIN CTAB
M  V30 COUNTS 7 7 0 0 0
M  V30 BEGIN ATOM
M  V30 1 O 0.0 0.0 0.0 0
M  V30 2 C 0.3707 -1.4353 0.0 0
M  V30 3 O 1.8061 -1.8061 0.0 0
M  V30 4 C -0.7176 -2.4759 0.0 0
M  V30 5 C -2.2487 -2.452 0.0 0
M  V30 6 C -0.7415 -3.9591 0.0 0
M  V30 7 C -2.2726 -3.9352 0.0 0
M  V30 END ATOM
M  V30 BEGIN BOND
M  V30 1 2 1 2
M  V30 2 1 2 3
M  V30 3 1 2 4
M  V30 4 1 4 5
M  V30 5 1 4 6
M  V30 6 1 5 7
M  V30 7 1 6 7
M  V30 END BOND
M  V30 END CTAB
M  END
>  <Dotmatics_CR>
R-008220

>  <CR_Set>
Acid

>  <Category>
Carboxylic Acids Non-Aromatic

>  <Reaction type>
Amidation

>  <KI/BB_Nature>
Amine

>  <Comments>


>  <Salt>


>  <CR_Chiral_Form>
Achiral

>  <Prod_total_used>
109

>  <PSR (%)>
86

>  <Article>
cyclobutanecarboxylic acid

>  <CAS>
3721-95-7

>  <Density>
1.047

>  <Prod_reagent_number>
C003

>  <Stereocenters>
0

>  <NB_Name reaction - KI/BB – Capping>
03-Amidation_Amine_Acid

$$$$
R-009801
Actelion Java MolfileCreator 2.0

  0  0  0  0  0  0              0 V3000
M  V30 BEGIN CTAB
M  V30 COUNTS 7 7 0 0 0
M  V30 BEGIN ATOM
M  V30 1 O 0.0 0.0 0.0 0
M  V30 2 C -0.0236 1.5113 0.0 0
M  V30 3 O 1.2397 2.267 0.0 0
M  V30 4 C -1.3342 2.267 0.0 0
M  V30 5 C -2.1017 3.5776 0.0 0
M  V30 6 C -2.8456 2.2906 0.0 0
M  V30 7 C -0.3069 3.3415 0.0 0
M  V30 END ATOM
M  V30 BEGIN BOND
M  V30 1 2 1 2
M  V30 2 1 2 3
M  V30 3 1 2 4
M  V30 4 1 4 5
M  V30 5 1 4 6
M  V30 6 1 4 7
M  V30 7 1 5 6
M  V30 END BOND
M  V30 END CTAB
M  END
>  <Dotmatics_CR>
R-009801

>  <CR_Set>
Acid

>  <Category>
Carboxylic Acids Non-Aromatic

>  <Reaction type>
Amidation

>  <KI/BB_Nature>
Amine

>  <Comments>


>  <Salt>


>  <CR_Chiral_Form>
Achiral

>  <Prod_total_used>
116

>  <PSR (%)>
91

>  <Article>
1-methylcyclopropanecarboxylic acid

>  <CAS>
6914-76-7

>  <Density>
1

>  <Prod_reagent_number>
C148

>  <Stereocenters>
0

>  <NB_Name reaction - KI/BB – Capping>
03-Amidation_Amine_Acid

$$$$
R-011774
Actelion Java MolfileCreator 2.0

  0  0  0  0  0  0              0 V3000
M  V30 BEGIN CTAB
M  V30 COUNTS 7 7 0 0 0
M  V30 BEGIN ATOM
M  V30 1 F 0.0 0.0 0.0 0
M  V30 2 C -0.0126 1.3313 0.0 0
M  V30 3 C -1.4581 2.1681 0.0 0
M  V30 4 C 0.7861 2.764 0.0 0
M  V30 5 C 1.5848 1.3566 0.0 0
M  V30 6 O -1.4834 3.4994 0.0 0
M  V30 7 O -2.6119 1.5468 0.0 0
M  V30 END ATOM
M  V30 BEGIN BOND
M  V30 1 1 1 2
M  V30 2 1 2 3
M  V30 3 1 2 4
M  V30 4 1 2 5
M  V30 5 2 3 6
M  V30 6 1 3 7
M  V30 7 1 4 5
M  V30 END BOND
M  V30 END CTAB
M  END
>  <Dotmatics_CR>
R-011774

>  <CR_Set>
Acid

>  <Category>
Carboxylic Acids Non-Aromatic

>  <Reaction type>
Amidation

>  <KI/BB_Nature>
Amine

>  <Comments>


>  <Salt>


>  <CR_Chiral_Form>
Achiral

>  <Prod_total_used>
95

>  <PSR (%)>
91

>  <Article>
1-fluorocyclopropanecarboxylic acid

>  <CAS>
137081-41-5

>  <Density>
1

>  <Prod_reagent_number>


>  <Stereocenters>
0

>  <NB_Name reaction - KI/BB – Capping>
03-Amidation_Amine_Acid

$$$$
R-008825
Actelion Java MolfileCreator 2.0

  0  0  0  0  0  0              0 V3000
M  V30 BEGIN CTAB
M  V30 COUNTS 8 8 0 0 0
M  V30 BEGIN ATOM
M  V30 1 O 0.0 0.0 0.0 0
M  V30 2 C -0.7696 -1.2669 0.0 0
M  V30 3 O -0.0355 -2.5338 0.0 0
M  V30 4 C -2.2851 -1.2432 0.0 0
M  V30 5 C -3.185 -2.4272 0.0 0
M  V30 6 C -3.185 -0.0118 0.0 0
M  V30 7 C -4.6295 -1.9418 0.0 0
M  V30 8 C -4.6295 -0.4499 0.0 0
M  V30 END ATOM
M  V30 BEGIN BOND
M  V30 1 2 1 2
M  V30 2 1 2 3
M  V30 3 1 2 4
M  V30 4 1 4 5
M  V30 5 1 4 6
M  V30 6 1 5 7
M  V30 7 1 6 8
M  V30 8 2 7 8
M  V30 END BOND
M  V30 END CTAB
M  END
>  <Dotmatics_CR>
R-008825

>  <CR_Set>
Acid

>  <Category>
Carboxylic Acids Non-Aromatic

>  <Reaction type>
Amidation

>  <KI/BB_Nature>
Amine

>  <Comments>


>  <Salt>


>  <CR_Chiral_Form>
Achiral

>  <Prod_total_used>
43

>  <PSR (%)>
88

>  <Article>
3-Cyclopentenecarboxylic acid

>  <CAS>
7686-77-3

>  <Density>
1.084

>  <Prod_reagent_number>
C158

>  <Stereocenters>
0

>  <NB_Name reaction - KI/BB – Capping>
03-Amidation_Amine_Acid

$$$$
R-001406
Actelion Java MolfileCreator 2.0

  0  0  0  0  0  0              0 V3000
M  V30 BEGIN CTAB
M  V30 COUNTS 8 8 0 0 0
M  V30 BEGIN ATOM
M  V30 1 O 0.0 0.0 0.0 0
M  V30 2 C -0.0243 -1.5316 0.0 0
M  V30 3 O 1.1548 -2.3339 0.0 0
M  V30 4 C -1.3249 -2.2974 0.0 0
M  V30 5 C -1.4586 -3.7682 0.0 0
M  V30 6 C -2.7472 -1.7139 0.0 0
M  V30 7 C -2.9538 -4.0965 0.0 0
M  V30 8 C -3.7439 -2.8444 0.0 0
M  V30 END ATOM
M  V30 BEGIN BOND
M  V30 1 2 1 2
M  V30 2 1 2 3
M  V30 3 1 2 4
M  V30 4 1 4 5
M  V30 5 1 4 6
M  V30 6 1 5 7
M  V30 7 1 6 8
M  V30 8 1 7 8
M  V30 END BOND
M  V30 END CTAB
M  END
>  <Dotmatics_CR>
R-001406

>  <CR_Set>
Acid

>  <Category>
Carboxylic Acids Non-Aromatic

>  <Reaction type>
Amidation

>  <KI/BB_Nature>
Amine

>  <Comments>


>  <Salt>


>  <CR_Chiral_Form>
Achiral

>  <Prod_total_used>
12

>  <PSR (%)>
100

>  <Article>
cyclopentanecarboxylic acid

>  <CAS>
3400-45-1

>  <Density>
1.053

>  <Prod_reagent_number>


>  <Stereocenters>
0

>  <NB_Name reaction - KI/BB – Capping>
03-Amidation_Amine_Acid

$$$$
R-007563
Actelion Java MolfileCreator 2.0

  0  0  0  0  0  0              0 V3000
M  V30 BEGIN CTAB
M  V30 COUNTS 8 8 0 0 0
M  V30 BEGIN ATOM
M  V30 1 S 0.0 0.0 0.0 0
M  V30 2 C 0.8486 1.2258 0.0 0
M  V30 3 C -1.438 0.4832 0.0 0
M  V30 4 C -0.0471 2.4517 0.0 0
M  V30 5 C -1.4616 1.992 0.0 0
M  V30 6 C 0.3889 3.8898 0.0 0
M  V30 7 O -0.6247 5.0096 0.0 0
M  V30 8 O 1.8152 4.2199 0.0 0
M  V30 END ATOM
M  V30 BEGIN BOND
M  V30 1 1 1 2
M  V30 2 1 1 3
M  V30 3 2 2 4
M  V30 4 2 3 5
M  V30 5 1 4 6
M  V30 6 2 6 7
M  V30 7 1 6 8
M  V30 8 1 4 5
M  V30 END BOND
M  V30 END CTAB
M  END
>  <Dotmatics_CR>
R-007563

>  <CR_Set>
Acid

>  <Category>
Carboxylic Acids Aromatic

>  <Reaction type>
Amidation

>  <KI/BB_Nature>
Amine

>  <Comments>


>  <Salt>


>  <CR_Chiral_Form>
Achiral

>  <Prod_total_used>
1

>  <PSR (%)>
100

>  <Article>
3-THIOPHENECARBOXYLIC ACID

>  <CAS>
88-13-1

>  <Density>
1

>  <Prod_reagent_number>


>  <Stereocenters>
0

>  <NB_Name reaction - KI/BB – Capping>
03-Amidation_Amine_Acid

$$$$
R-004913
Actelion Java MolfileCreator 2.0

  0  0  0  0  0  0              0 V3000
M  V30 BEGIN CTAB
M  V30 COUNTS 8 8 0 0 0
M  V30 BEGIN ATOM
M  V30 1 S 0.0 0.0 0.0 0
M  V30 2 C 0.0859 1.4978 0.0 0
M  V30 3 C -1.4855 -0.3314 0.0 0
M  V30 4 C 1.3259 2.2958 0.0 0
M  V30 5 C -1.3259 2.0871 0.0 0
M  V30 6 C -2.2835 0.933 0.0 0
M  V30 7 O 1.3014 3.8673 0.0 0
M  V30 8 O 2.4923 1.5101 0.0 0
M  V30 END ATOM
M  V30 BEGIN BOND
M  V30 1 1 1 2
M  V30 2 1 1 3
M  V30 3 1 2 4
M  V30 4 2 2 5
M  V30 5 2 3 6
M  V30 6 2 4 7
M  V30 7 1 4 8
M  V30 8 1 5 6
M  V30 END BOND
M  V30 END CTAB
M  END
>  <Dotmatics_CR>
R-004913

>  <CR_Set>
Acid

>  <Category>
Carboxylic Acids Aromatic

>  <Reaction type>
Amidation

>  <KI/BB_Nature>
Amine

>  <Comments>


>  <Salt>


>  <CR_Chiral_Form>
Achiral

>  <Prod_total_used>
21

>  <PSR (%)>
81

>  <Article>
2-THIOPHENECARBOXYLIC ACID

>  <CAS>
527-72-0

>  <Density>
1

>  <Prod_reagent_number>


>  <Stereocenters>
0

>  <NB_Name reaction - KI/BB – Capping>
03-Amidation_Amine_Acid

$$$$
R-004886
Actelion Java MolfileCreator 2.0

  0  0  0  0  0  0              0 V3000
M  V30 BEGIN CTAB
M  V30 COUNTS 8 8 0 0 0
M  V30 BEGIN ATOM
M  V30 1 O 0.0 0.0 0.0 0
M  V30 2 C -0.0243 -1.5352 0.0 0
M  V30 3 O 1.1575 -2.3394 0.0 0
M  V30 4 C -1.3281 -2.2907 0.0 0
M  V30 5 O -1.4621 -3.7528 0.0 0
M  V30 6 C -2.7537 -1.7058 0.0 0
M  V30 7 C -2.9608 -4.0818 0.0 0
M  V30 8 C -3.7528 -2.839 0.0 0
M  V30 END ATOM
M  V30 BEGIN BOND
M  V30 1 2 1 2
M  V30 2 1 2 3
M  V30 3 1 2 4
M  V30 4 1 4 5
M  V30 5 2 4 6
M  V30 6 1 5 7
M  V30 7 1 6 8
M  V30 8 2 7 8
M  V30 END BOND
M  V30 END CTAB
M  END
>  <Dotmatics_CR>
R-004886

>  <CR_Set>
Acid

>  <Category>
Carboxylic Acids Aromatic

>  <Reaction type>
Amidation

>  <KI/BB_Nature>
Amine

>  <Comments>


>  <Salt>


>  <CR_Chiral_Form>
Achiral

>  <Prod_total_used>
35

>  <PSR (%)>
74

>  <Article>
2-FUROIC ACID

>  <CAS>
88-14-2

>  <Density>
1

>  <Prod_reagent_number>


>  <Stereocenters>
0

>  <NB_Name reaction - KI/BB – Capping>
03-Amidation_Amine_Acid

$$$$
R-004861
Actelion Java MolfileCreator 2.0

  0  0  0  0  0  0              0 V3000
M  V30 BEGIN CTAB
M  V30 COUNTS 8 8 0 0 0
M  V30 BEGIN ATOM
M  V30 1 O 0.0 0.0 0.0 0
M  V30 2 C -0.0243 -1.5352 0.0 0
M  V30 3 O 1.1575 -2.3394 0.0 0
M  V30 4 C -1.3281 -2.2907 0.0 0
M  V30 5 C -1.4621 -3.7528 0.0 0
M  V30 6 C -2.7537 -1.7058 0.0 0
M  V30 7 O -2.9608 -4.0818 0.0 0
M  V30 8 C -3.7528 -2.839 0.0 0
M  V30 END ATOM
M  V30 BEGIN BOND
M  V30 1 2 1 2
M  V30 2 1 2 3
M  V30 3 1 2 4
M  V30 4 2 4 5
M  V30 5 1 4 6
M  V30 6 1 5 7
M  V30 7 2 6 8
M  V30 8 1 7 8
M  V30 END BOND
M  V30 END CTAB
M  END
>  <Dotmatics_CR>
R-004861

>  <CR_Set>
Acid

>  <Category>
Carboxylic Acids Aromatic

>  <Reaction type>
Amidation

>  <KI/BB_Nature>
Amine

>  <Comments>


>  <Salt>


>  <CR_Chiral_Form>
Achiral

>  <Prod_total_used>
33

>  <PSR (%)>
88

>  <Article>
3-FUROIC ACID

>  <CAS>
488-93-7

>  <Density>
1

>  <Prod_reagent_number>


>  <Stereocenters>
0

>  <NB_Name reaction - KI/BB – Capping>
03-Amidation_Amine_Acid

$$$$
R-009782
Actelion Java MolfileCreator 2.0

  0  0  0  0  0  0              0 V3000
M  V30 BEGIN CTAB
M  V30 COUNTS 8 8 0 0 0
M  V30 BEGIN ATOM
M  V30 1 O 0.0 0.0 0.0 0
M  V30 2 C 0.7178 -1.2826 0.0 0
M  V30 3 O 2.2005 -1.2591 0.0 0
M  V30 4 C -0.0588 -2.5653 0.0 0
M  V30 5 C -0.4707 -4.0009 0.0 0
M  V30 6 C -1.5415 -2.1534 0.0 0
M  V30 7 C 1.4238 -2.5418 0.0 0
M  V30 8 O -1.9534 -3.5891 0.0 0
M  V30 END ATOM
M  V30 BEGIN BOND
M  V30 1 2 1 2
M  V30 2 1 2 3
M  V30 3 1 2 4
M  V30 4 1 4 5
M  V30 5 1 4 6
M  V30 6 1 4 7
M  V30 7 1 5 8
M  V30 8 1 6 8
M  V30 END BOND
M  V30 END CTAB
M  END
>  <Dotmatics_CR>
R-009782

>  <CR_Set>
Acid

>  <Category>
Carboxylic Acids Non-Aromatic

>  <Reaction type>
Amidation

>  <KI/BB_Nature>
Amine

>  <Comments>


>  <Salt>


>  <CR_Chiral_Form>
Achiral

>  <Prod_total_used>
87

>  <PSR (%)>
72

>  <Article>
3-methyloxetane-3-carboxylic acid

>  <CAS>
28562-68-7

>  <Density>
1

>  <Prod_reagent_number>


>  <Stereocenters>
0

>  <NB_Name reaction - KI/BB – Capping>
03-Amidation_Amine_Acid

$$$$
R-009750
Actelion Java MolfileCreator 2.0

  0  0  0  0  0  0              0 V3000
M  V30 BEGIN CTAB
M  V30 COUNTS 8 8 0 0 0
M  V30 BEGIN ATOM
M  V30 1 O 0.0 0.0 0.0 0
M  V30 2 C 1.0578 -1.0578 0.0 0
M  V30 3 C 1.034 -2.5553 0.0 0
M  V30 4 C 2.5553 -1.034 0.0 0
M  V30 5 C 2.5316 -2.5316 0.0 0
M  V30 6 C 3.5894 -3.5894 0.0 0
M  V30 7 O 5.0394 -3.1734 0.0 0
M  V30 8 O 3.1734 -5.0394 0.0 0
M  V30 END ATOM
M  V30 BEGIN BOND
M  V30 1 2 1 2
M  V30 2 1 2 3
M  V30 3 1 2 4
M  V30 4 1 3 5
M  V30 5 1 5 6
M  V30 6 2 6 7
M  V30 7 1 6 8
M  V30 8 1 4 5
M  V30 END BOND
M  V30 END CTAB
M  END
>  <Dotmatics_CR>
R-009750

>  <CR_Set>
Acid

>  <Category>
Carboxylic Acids Non-Aromatic

>  <Reaction type>
Amidation

>  <KI/BB_Nature>
Amine

>  <Comments>


>  <Salt>


>  <CR_Chiral_Form>
Achiral

>  <Prod_total_used>
18

>  <PSR (%)>
72

>  <Article>
3-Oxo-cyclobutanecarboxylic acid

>  <CAS>
23761-23-1

>  <Density>
1

>  <Prod_reagent_number>
C004

>  <Stereocenters>
0

>  <NB_Name reaction - KI/BB – Capping>
03-Amidation_Amine_Acid

$$$$
R-007555
Actelion Java MolfileCreator 2.0

  0  0  0  0  0  0              0 V3000
M  V30 BEGIN CTAB
M  V30 COUNTS 8 8 0 0 0
M  V30 BEGIN ATOM
M  V30 1 O 0.0 0.0 0.0 0
M  V30 2 C 1.3448 -0.5936 0.0 0
M  V30 3 O 1.466 -2.0597 0.0 0
M  V30 4 C 2.5322 0.3271 0.0 0
M  V30 5 N 3.9377 -0.109 0.0 0
M  V30 6 C 2.4959 1.8779 0.0 0
M  V30 7 N 4.7858 1.151 0.0 0
M  V30 8 C 3.9013 2.3868 0.0 0
M  V30 END ATOM
M  V30 BEGIN BOND
M  V30 1 2 1 2
M  V30 2 1 2 3
M  V30 3 1 2 4
M  V30 4 1 4 5
M  V30 5 2 4 6
M  V30 6 1 5 7
M  V30 7 1 6 8
M  V30 8 2 7 8
M  V30 END BOND
M  V30 END CTAB
M  END
>  <Dotmatics_CR>
R-007555

>  <CR_Set>
Acid

>  <Category>
Carboxylic Acids Aromatic

>  <Reaction type>
Amidation

>  <KI/BB_Nature>
Amine

>  <Comments>


>  <Salt>


>  <CR_Chiral_Form>
Achiral

>  <Prod_total_used>
73

>  <PSR (%)>
86

>  <Article>
1H-PYRAZOLE-3-CARBOXYLIC ACID

>  <CAS>
1621-91-6

>  <Density>
1

>  <Prod_reagent_number>


>  <Stereocenters>
0

>  <NB_Name reaction - KI/BB – Capping>
03-Amidation_Amine_Acid

$$$$
R-002848
Actelion Java MolfileCreator 2.0

  0  0  0  0  0  0              0 V3000
M  V30 BEGIN CTAB
M  V30 COUNTS 8 8 0 0 0
M  V30 BEGIN ATOM
M  V30 1 O 0.0 0.0 0.0 0
M  V30 2 C -0.3293 1.4702 0.0 0
M  V30 3 O 0.741 2.4818 0.0 0
M  V30 4 C -1.7643 1.9525 0.0 0
M  V30 5 N -2.2465 3.3875 0.0 0
M  V30 6 N -2.9876 1.1056 0.0 0
M  V30 7 C -3.7521 3.411 0.0 0
M  V30 8 C -4.2108 1.9995 0.0 0
M  V30 END ATOM
M  V30 BEGIN BOND
M  V30 1 2 1 2
M  V30 2 1 2 3
M  V30 3 1 2 4
M  V30 4 2 4 5
M  V30 5 1 4 6
M  V30 6 1 5 7
M  V30 7 1 6 8
M  V30 8 2 7 8
M  V30 END BOND
M  V30 END CTAB
M  END
>  <Dotmatics_CR>
R-002848

>  <CR_Set>
Acid

>  <Category>
Carboxylic Acids Aromatic

>  <Reaction type>
Amidation

>  <KI/BB_Nature>
Amine

>  <Comments>


>  <Salt>


>  <CR_Chiral_Form>
Achiral

>  <Prod_total_used>
158

>  <PSR (%)>
87

>  <Article>
1H-IMIDAZOLE-2-CARBOXYLIC ACID

>  <CAS>
16042-25-4

>  <Density>
1

>  <Prod_reagent_number>
C151

>  <Stereocenters>
0

>  <NB_Name reaction - KI/BB – Capping>
03-Amidation_Amine_Acid

$$$$
R-005071
Actelion Java MolfileCreator 2.0

  0  0  0  0  0  0              0 V3000
M  V30 BEGIN CTAB
M  V30 COUNTS 8 8 0 0 0
M  V30 BEGIN ATOM
M  V30 1 S 0.0 0.0 0.0 0
M  V30 2 N -1.2477 0.9043 0.0 0
M  V30 3 C 1.2019 0.9844 0.0 0
M  V30 4 N -0.8241 2.3695 0.0 0
M  V30 5 C 0.641 2.3695 0.0 0
M  V30 6 C 1.4308 3.6172 0.0 0
M  V30 7 O 0.7555 4.9565 0.0 0
M  V30 8 O 2.8732 3.5485 0.0 0
M  V30 END ATOM
M  V30 BEGIN BOND
M  V30 1 1 1 2
M  V30 2 1 1 3
M  V30 3 2 2 4
M  V30 4 2 3 5
M  V30 5 1 5 6
M  V30 6 2 6 7
M  V30 7 1 6 8
M  V30 8 1 4 5
M  V30 END BOND
M  V30 END CTAB
M  END
>  <Dotmatics_CR>
R-005071

>  <CR_Set>
Acid

>  <Category>
Carboxylic Acids Aromatic

>  <Reaction type>
Amidation

>  <KI/BB_Nature>
Amine

>  <Comments>


>  <Salt>


>  <CR_Chiral_Form>
Achiral

>  <Prod_total_used>
16

>  <PSR (%)>
100

>  <Article>
1,2,3-THIADIAZOLE-4-CARBOXYLIC ACID

>  <CAS>
4100-13-4

>  <Density>
1

>  <Prod_reagent_number>


>  <Stereocenters>
0

>  <NB_Name reaction - KI/BB – Capping>
03-Amidation_Amine_Acid

$$$$
R-005008
Actelion Java MolfileCreator 2.0

  0  0  0  0  0  0              0 V3000
M  V30 BEGIN CTAB
M  V30 COUNTS 8 8 0 0 0
M  V30 BEGIN ATOM
M  V30 1 O 0.0 0.0 0.0 0
M  V30 2 C 0.7472 1.3194 0.0 0
M  V30 3 O -0.0467 2.6388 0.0 0
M  V30 4 C 2.2185 1.3427 0.0 0
M  V30 5 N 3.0942 2.5921 0.0 0
M  V30 6 C 3.0942 0.1517 0.0 0
M  V30 7 C 4.4953 2.1484 0.0 0
M  V30 8 C 4.4953 0.6305 0.0 0
M  V30 END ATOM
M  V30 BEGIN BOND
M  V30 1 2 1 2
M  V30 2 1 2 3
M  V30 3 1 2 4
M  V30 4 1 4 5
M  V30 5 2 4 6
M  V30 6 1 5 7
M  V30 7 1 6 8
M  V30 8 2 7 8
M  V30 END BOND
M  V30 END CTAB
M  END
>  <Dotmatics_CR>
R-005008

>  <CR_Set>
Acid

>  <Category>
Carboxylic Acids Aromatic

>  <Reaction type>
Amidation

>  <KI/BB_Nature>
Amine

>  <Comments>


>  <Salt>


>  <CR_Chiral_Form>
Achiral

>  <Prod_total_used>
68

>  <PSR (%)>
74

>  <Article>
PYRROLE-2-CARBOXYLIC ACID

>  <CAS>
634-97-9

>  <Density>
1

>  <Prod_reagent_number>


>  <Stereocenters>
0

>  <NB_Name reaction - KI/BB – Capping>
03-Amidation_Amine_Acid

$$$$
R-007562
Actelion Java MolfileCreator 2.0

  0  0  0  0  0  0              0 V3000
M  V30 BEGIN CTAB
M  V30 COUNTS 8 8 0 0 0
M  V30 BEGIN ATOM
M  V30 1 O 0.0 0.0 0.0 0
M  V30 2 C 0.9913 -1.0975 0.0 0
M  V30 3 O 2.4429 -0.767 0.0 0
M  V30 4 C 0.5074 -2.5137 0.0 0
M  V30 5 C 1.3807 -3.7174 0.0 0
M  V30 6 C -0.9559 -2.9503 0.0 0
M  V30 7 N 0.4602 -4.9212 0.0 0
M  V30 8 C -0.9795 -4.4373 0.0 0
M  V30 END ATOM
M  V30 BEGIN BOND
M  V30 1 2 1 2
M  V30 2 1 2 3
M  V30 3 1 2 4
M  V30 4 2 4 5
M  V30 5 1 4 6
M  V30 6 1 5 7
M  V30 7 2 6 8
M  V30 8 1 7 8
M  V30 END BOND
M  V30 END CTAB
M  END
>  <Dotmatics_CR>
R-007562

>  <CR_Set>
Acid

>  <Category>
Carboxylic Acids Aromatic

>  <Reaction type>
Amidation

>  <KI/BB_Nature>
Amine

>  <Comments>


>  <Salt>


>  <CR_Chiral_Form>
Achiral

>  <Prod_total_used>
12

>  <PSR (%)>
83

>  <Article>
PYRROLE-3-CARBOXYLIC ACID

>  <CAS>
931-03-3

>  <Density>
1

>  <Prod_reagent_number>


>  <Stereocenters>
0

>  <NB_Name reaction - KI/BB – Capping>
03-Amidation_Amine_Acid

$$$$
R-011414
Actelion Java MolfileCreator 2.0

  0  0  0  0  0  0              0 V3000
M  V30 BEGIN CTAB
M  V30 COUNTS 8 8 0 0 0
M  V30 BEGIN ATOM
M  V30 1 O 0.0 0.0 0.0 0
M  V30 2 C -0.0257 -1.2859 0.0 0
M  V30 3 O -1.183 -1.9031 0.0 0
M  V30 4 C 1.3887 -2.0574 0.0 0
M  V30 5 C 1.3502 -3.6777 0.0 0
M  V30 6 C 2.9961 -2.0317 0.0 0
M  V30 7 C 2.1731 -0.6172 0.0 0
M  V30 8 N 1.3244 -4.9636 0.0 0
M  V30 END ATOM
M  V30 BEGIN BOND
M  V30 1 2 1 2
M  V30 2 1 2 3
M  V30 3 1 2 4
M  V30 4 1 4 5
M  V30 5 1 4 6
M  V30 6 1 4 7
M  V30 7 3 5 8
M  V30 8 1 6 7
M  V30 END BOND
M  V30 END CTAB
M  END
>  <Dotmatics_CR>
R-011414

>  <CR_Set>
Acid

>  <Category>
Carboxylic Acids Non-Aromatic

>  <Reaction type>
Amidation

>  <KI/BB_Nature>
Amine

>  <Comments>


>  <Salt>


>  <CR_Chiral_Form>
Achiral

>  <Prod_total_used>
85

>  <PSR (%)>
87

>  <Article>
1-cyanocyclopropanecarboxylic acid

>  <CAS>
6914-79-0

>  <Density>
1

>  <Prod_reagent_number>


>  <Stereocenters>
0

>  <NB_Name reaction - KI/BB – Capping>
03-Amidation_Amine_Acid

$$$$
R-010314
Actelion Java MolfileCreator 2.0

  0  0  0  0  0  0              0 V3000
M  V30 BEGIN CTAB
M  V30 COUNTS 8 8 0 0 0
M  V30 BEGIN ATOM
M  V30 1 S 0.0 0.0 0.0 0
M  V30 2 C 1.3479 0.6384 0.0 0
M  V30 3 C -1.0286 1.135 0.0 0
M  V30 4 C 2.6249 -0.0827 0.0 0
M  V30 5 C 1.1705 2.1519 0.0 0
M  V30 6 N -0.3074 2.4593 0.0 0
M  V30 7 O 2.6012 -1.5607 0.0 0
M  V30 8 O 3.9019 0.6857 0.0 0
M  V30 END ATOM
M  V30 BEGIN BOND
M  V30 1 1 1 2
M  V30 2 1 1 3
M  V30 3 1 2 4
M  V30 4 2 2 5
M  V30 5 2 3 6
M  V30 6 2 4 7
M  V30 7 1 4 8
M  V30 8 1 5 6
M  V30 END BOND
M  V30 END CTAB
M  END
>  <Dotmatics_CR>
R-010314

>  <CR_Set>
Acid

>  <Category>
Carboxylic Acids Aromatic

>  <Reaction type>
Amidation

>  <KI/BB_Nature>
Amine

>  <Comments>


>  <Salt>


>  <CR_Chiral_Form>
Achiral

>  <Prod_total_used>
69

>  <PSR (%)>
81

>  <Article>
1,3-Thiazole-5-carboxylic acid

>  <CAS>
14527-41-4

>  <Density>
1

>  <Prod_reagent_number>
C005

>  <Stereocenters>
0

>  <NB_Name reaction - KI/BB – Capping>
03-Amidation_Amine_Acid

$$$$
R-009802
Actelion Java MolfileCreator 2.0

  0  0  0  0  0  0              0 V3000
M  V30 BEGIN CTAB
M  V30 COUNTS 8 8 0 0 0
M  V30 BEGIN ATOM
M  V30 1 S 0.0 0.0 0.0 0
M  V30 2 C 0.9595 1.1233 0.0 0
M  V30 3 C -1.3807 0.6318 0.0 0
M  V30 4 N 0.1989 2.4338 0.0 0
M  V30 5 C -1.252 2.1296 0.0 0
M  V30 6 C -2.3753 3.1359 0.0 0
M  V30 7 O -2.0828 4.6103 0.0 0
M  V30 8 O -3.8029 2.703 0.0 0
M  V30 END ATOM
M  V30 BEGIN BOND
M  V30 1 1 1 2
M  V30 2 1 1 3
M  V30 3 2 2 4
M  V30 4 2 3 5
M  V30 5 1 5 6
M  V30 6 2 6 7
M  V30 7 1 6 8
M  V30 8 1 4 5
M  V30 END BOND
M  V30 END CTAB
M  END
>  <Dotmatics_CR>
R-009802

>  <CR_Set>
Acid

>  <Category>
Carboxylic Acids Aromatic

>  <Reaction type>
Amidation

>  <KI/BB_Nature>
Amine

>  <Comments>


>  <Salt>


>  <CR_Chiral_Form>
Achiral

>  <Prod_total_used>
22

>  <PSR (%)>
73

>  <Article>
thiazole-4-carboxylic acid

>  <CAS>
3973-08-8

>  <Density>
1

>  <Prod_reagent_number>
C006

>  <Stereocenters>
0

>  <NB_Name reaction - KI/BB – Capping>
03-Amidation_Amine_Acid

$$$$
R-000647
Actelion Java MolfileCreator 2.0

  0  0  0  0  0  0              0 V3000
M  V30 BEGIN CTAB
M  V30 COUNTS 8 8 0 0 0
M  V30 BEGIN ATOM
M  V30 1 S 0.0 0.0 0.0 0
M  V30 2 C 0.8528 1.2319 0.0 0
M  V30 3 C -1.4451 0.4856 0.0 0
M  V30 4 N -0.0473 2.4639 0.0 0
M  V30 5 C 2.3217 1.2556 0.0 0
M  V30 6 C -1.4688 2.0019 0.0 0
M  V30 7 O 3.0561 2.5705 0.0 0
M  V30 8 O 3.0561 -0.0118 0.0 0
M  V30 END ATOM
M  V30 BEGIN BOND
M  V30 1 1 1 2
M  V30 2 1 1 3
M  V30 3 2 2 4
M  V30 4 1 2 5
M  V30 5 2 3 6
M  V30 6 2 5 7
M  V30 7 1 5 8
M  V30 8 1 4 6
M  V30 END BOND
M  V30 END CTAB
M  END
>  <Dotmatics_CR>
R-000647

>  <CR_Set>
Acid

>  <Category>
Carboxylic Acids Aromatic

>  <Reaction type>
Amidation

>  <KI/BB_Nature>
Amine

>  <Comments>


>  <Salt>


>  <CR_Chiral_Form>
Achiral

>  <Prod_total_used>
56

>  <PSR (%)>
70

>  <Article>
1,3 THIAZOLE-2-CARBOXYLIC ACID

>  <CAS>
14190-59-1

>  <Density>
1

>  <Prod_reagent_number>


>  <Stereocenters>
0

>  <NB_Name reaction - KI/BB – Capping>
03-Amidation_Amine_Acid

$$$$
R-007554
Actelion Java MolfileCreator 2.0

  0  0  0  0  0  0              0 V3000
M  V30 BEGIN CTAB
M  V30 COUNTS 8 8 0 0 0
M  V30 BEGIN ATOM
M  V30 1 O 0.0 0.0 0.0 0
M  V30 2 C 0.9913 -1.0975 0.0 0
M  V30 3 O 2.4429 -0.767 0.0 0
M  V30 4 C 0.5074 -2.5137 0.0 0
M  V30 5 N 1.3807 -3.7174 0.0 0
M  V30 6 C -0.9559 -2.9503 0.0 0
M  V30 7 C 0.4602 -4.9212 0.0 0
M  V30 8 O -0.9795 -4.4373 0.0 0
M  V30 END ATOM
M  V30 BEGIN BOND
M  V30 1 2 1 2
M  V30 2 1 2 3
M  V30 3 1 2 4
M  V30 4 1 4 5
M  V30 5 2 4 6
M  V30 6 2 5 7
M  V30 7 1 6 8
M  V30 8 1 7 8
M  V30 END BOND
M  V30 END CTAB
M  END
>  <Dotmatics_CR>
R-007554

>  <CR_Set>
Acid

>  <Category>
Carboxylic Acids Aromatic

>  <Reaction type>
Amidation

>  <KI/BB_Nature>
Amine

>  <Comments>


>  <Salt>


>  <CR_Chiral_Form>
Achiral

>  <Prod_total_used>
95

>  <PSR (%)>
87

>  <Article>
oxazole-4-carboxylic acid

>  <CAS>
23012-13-7

>  <Density>
1

>  <Prod_reagent_number>


>  <Stereocenters>
0

>  <NB_Name reaction - KI/BB – Capping>
03-Amidation_Amine_Acid

$$$$
R-007561
Actelion Java MolfileCreator 2.0

  0  0  0  0  0  0              0 V3000
M  V30 BEGIN CTAB
M  V30 COUNTS 8 8 0 0 0
M  V30 BEGIN ATOM
M  V30 1 O 0.0 0.0 0.0 0
M  V30 2 C 0.9913 -1.0975 0.0 0
M  V30 3 O 2.4429 -0.767 0.0 0
M  V30 4 C 0.5074 -2.5137 0.0 0
M  V30 5 O 1.3807 -3.7174 0.0 0
M  V30 6 C -0.9559 -2.9503 0.0 0
M  V30 7 C 0.4602 -4.9212 0.0 0
M  V30 8 N -0.9795 -4.4373 0.0 0
M  V30 END ATOM
M  V30 BEGIN BOND
M  V30 1 2 1 2
M  V30 2 1 2 3
M  V30 3 1 2 4
M  V30 4 1 4 5
M  V30 5 2 4 6
M  V30 6 1 5 7
M  V30 7 1 6 8
M  V30 8 2 7 8
M  V30 END BOND
M  V30 END CTAB
M  END
>  <Dotmatics_CR>
R-007561

>  <CR_Set>
Acid

>  <Category>
Carboxylic Acids Aromatic

>  <Reaction type>
Amidation

>  <KI/BB_Nature>
Amine

>  <Comments>


>  <Salt>


>  <CR_Chiral_Form>
Achiral

>  <Prod_total_used>
183

>  <PSR (%)>
85

>  <Article>
oxazole-5-carboxylic acid

>  <CAS>
118994-90-4

>  <Density>
1

>  <Prod_reagent_number>
C153

>  <Stereocenters>
0

>  <NB_Name reaction - KI/BB – Capping>
03-Amidation_Amine_Acid

$$$$
R-008531
Actelion Java MolfileCreator 2.0

  0  0  0  0  0  0              0 V3000
M  V30 BEGIN CTAB
M  V30 COUNTS 8 7 0 0 0
M  V30 BEGIN ATOM
M  V30 1 S 0.0 0.0 0.0 0
M  V30 2 O 0.7278 1.3243 0.0 0
M  V30 3 O -0.7755 -1.2766 0.0 0
M  V30 4 C 1.2766 -0.7278 0.0 0
M  V30 5 C -1.3243 0.7755 0.0 0
M  V30 6 C 2.5533 0.0477 0.0 0
M  V30 7 O 2.5294 1.5749 0.0 0
M  V30 8 O 3.8299 -0.68 0.0 0
M  V30 END ATOM
M  V30 BEGIN BOND
M  V30 1 2 1 2
M  V30 2 2 1 3
M  V30 3 1 1 4
M  V30 4 1 1 5
M  V30 5 1 4 6
M  V30 6 2 6 7
M  V30 7 1 6 8
M  V30 END BOND
M  V30 END CTAB
M  END
>  <Dotmatics_CR>
R-008531

>  <CR_Set>
Acid

>  <Category>
Carboxylic Acids Non-Aromatic

>  <Reaction type>
Amidation

>  <KI/BB_Nature>
Amine

>  <Comments>


>  <Salt>


>  <CR_Chiral_Form>
Achiral

>  <Prod_total_used>
43

>  <PSR (%)>
93

>  <Article>
Methylsulfonylacetic acid

>  <CAS>
2516-97-4

>  <Density>
1

>  <Prod_reagent_number>


>  <Stereocenters>
0

>  <NB_Name reaction - KI/BB – Capping>
03-Amidation_Amine_Acid

$$$$
R-009172
Actelion Java MolfileCreator 2.0

  0  0  0  0  0  0              0 V3000
M  V30 BEGIN CTAB
M  V30 COUNTS 8 7 0 0 0
M  V30 BEGIN ATOM
M  V30 1 O 0.0 0.0 0.0 0
M  V30 2 C 1.2903 0.7717 0.0 0
M  V30 3 O 1.2661 2.3153 0.0 0
M  V30 4 C 2.5806 0.0361 0.0 0
M  V30 5 C 2.5564 -1.4591 0.0 0
M  V30 6 C 3.8467 -2.1947 0.0 0
M  V30 7 C 3.8226 -3.69 0.0 0
M  V30 8 C 5.1129 -4.4376 0.0 0
M  V30 END ATOM
M  V30 BEGIN BOND
M  V30 1 2 1 2
M  V30 2 1 2 3
M  V30 3 1 2 4
M  V30 4 1 4 5
M  V30 5 1 5 6
M  V30 6 1 6 7
M  V30 7 1 7 8
M  V30 END BOND
M  V30 END CTAB
M  END
>  <Dotmatics_CR>
R-009172

>  <CR_Set>
Acid

>  <Category>
Carboxylic Acids Non-Aromatic

>  <Reaction type>
Amidation

>  <KI/BB_Nature>
Amine

>  <Comments>


>  <Salt>


>  <CR_Chiral_Form>
Achiral

>  <Prod_total_used>
26

>  <PSR (%)>
100

>  <Article>
Hexanoic acid

>  <CAS>
142-62-1

>  <Density>
0.927

>  <Prod_reagent_number>
C147

>  <Stereocenters>
0

>  <NB_Name reaction - KI/BB – Capping>
03-Amidation_Amine_Acid

$$$$
R-003291
Actelion Java MolfileCreator 2.0

  0  0  0  0  0  0              0 V3000
M  V30 BEGIN CTAB
M  V30 COUNTS 8 7 0 0 0
M  V30 BEGIN ATOM
M  V30 1 O 0.0 0.0 0.0 0
M  V30 2 C -1.3477 -0.7087 0.0 0
M  V30 3 O -1.3941 -2.1726 0.0 0
M  V30 4 C -2.6373 0.0929 0.0 0
M  V30 5 C -3.9734 -0.6157 0.0 0
M  V30 6 C -5.0423 0.4879 0.0 0
M  V30 7 C -5.1585 -1.5219 0.0 0
M  V30 8 C -3.1485 -1.8124 0.0 0
M  V30 END ATOM
M  V30 BEGIN BOND
M  V30 1 2 1 2
M  V30 2 1 2 3
M  V30 3 1 2 4
M  V30 4 1 4 5
M  V30 5 1 5 6
M  V30 6 1 5 7
M  V30 7 1 5 8
M  V30 END BOND
M  V30 END CTAB
M  END
>  <Dotmatics_CR>
R-003291

>  <CR_Set>
Acid

>  <Category>
Carboxylic Acids Non-Aromatic

>  <Reaction type>
Amidation

>  <KI/BB_Nature>
Amine

>  <Comments>


>  <Salt>


>  <CR_Chiral_Form>
Achiral

>  <Prod_total_used>
49

>  <PSR (%)>
88

>  <Article>
3,3-dimethylbutanoic acid

>  <CAS>
1070-83-3

>  <Density>
0.912

>  <Prod_reagent_number>
C007

>  <Stereocenters>
0

>  <NB_Name reaction - KI/BB – Capping>
03-Amidation_Amine_Acid

$$$$
R-011406
Actelion Java MolfileCreator 2.0

  0  0  0  0  0  0              0 V3000
M  V30 BEGIN CTAB
M  V30 COUNTS 8 7 0 0 0
M  V30 BEGIN ATOM
M  V30 1 O 0.0 0.0 0.0 0
M  V30 2 C 1.1661 0.7043 0.0 0
M  V30 3 O 1.143 2.0898 0.0 0
M  V30 4 C 2.6209 -0.127 0.0 0
M  V30 5 O 4.0757 0.7504 0.0 0
M  V30 6 C 5.5305 -0.0808 0.0 0
M  V30 7 C 6.6966 0.6234 0.0 0
M  V30 8 C 5.5074 -1.4201 0.0 0
M  V30 END ATOM
M  V30 BEGIN BOND
M  V30 1 2 1 2
M  V30 2 1 2 3
M  V30 3 1 2 4
M  V30 4 1 4 5
M  V30 5 1 5 6
M  V30 6 1 6 7
M  V30 7 1 6 8
M  V30 END BOND
M  V30 END CTAB
M  END
>  <Dotmatics_CR>
R-011406

>  <CR_Set>
Acid

>  <Category>
Carboxylic Acids Non-Aromatic

>  <Reaction type>
Amidation

>  <KI/BB_Nature>
Amine

>  <Comments>


>  <Salt>


>  <CR_Chiral_Form>
Achiral

>  <Prod_total_used>
56

>  <PSR (%)>
91

>  <Article>
2-isopropoxyacetic acid

>  <CAS>
33445-07-7

>  <Density>
1

>  <Prod_reagent_number>


>  <Stereocenters>
0

>  <NB_Name reaction - KI/BB – Capping>
03-Amidation_Amine_Acid

$$$$
R-011423
Actelion Java MolfileCreator 2.0

  0  0  0  0  0  0              0 V3000
M  V30 BEGIN CTAB
M  V30 COUNTS 8 7 0 0 0
M  V30 BEGIN ATOM
M  V30 1 O 0.0 0.0 0.0 0
M  V30 2 C 1.2075 0.7292 0.0 0
M  V30 3 O 1.1836 2.1639 0.0 0
M  V30 4 C 2.7139 -0.1315 0.0 0
M  V30 5 O 4.2203 0.7771 0.0 0
M  V30 6 C 2.69 -1.5183 0.0 0
M  V30 7 C 3.9214 -0.8129 0.0 0
M  V30 8 C 5.4278 0.0956 0.0 0
M  V30 END ATOM
M  V30 BEGIN BOND
M  V30 1 2 1 2
M  V30 2 1 2 3
M  V30 3 1 2 4
M  V30 4 1 4 5
M  V30 5 1 4 6
M  V30 6 1 4 7
M  V30 7 1 5 8
M  V30 END BOND
M  V30 END CTAB
M  END
>  <Dotmatics_CR>
R-011423

>  <CR_Set>
Acid

>  <Category>
Carboxylic Acids Non-Aromatic

>  <Reaction type>
Amidation

>  <KI/BB_Nature>
Amine

>  <Comments>


>  <Salt>


>  <CR_Chiral_Form>
Achiral

>  <Prod_total_used>
28

>  <PSR (%)>
86

>  <Article>
2-methoxy-2-methyl-propanoic acid

>  <CAS>
13836-62-9

>  <Density>
1

>  <Prod_reagent_number>


>  <Stereocenters>
0

>  <NB_Name reaction - KI/BB – Capping>
03-Amidation_Amine_Acid

$$$$
R-009778
Actelion Java MolfileCreator 2.0

  0  0  0  0  0  0              0 V3000
M  V30 BEGIN CTAB
M  V30 COUNTS 8 7 0 0 0
M  V30 BEGIN ATOM
M  V30 1 O 0.0 0.0 0.0 0
M  V30 2 C -0.024 -1.4881 0.0 0
M  V30 3 O -1.3561 -2.2202 0.0 0
M  V30 4 C 1.2601 -2.2202 0.0 0
M  V30 5 C 2.5442 -1.4521 0.0 0
M  V30 6 O 3.8284 -0.672 0.0 0
M  V30 7 C 3.8284 -2.1842 0.0 0
M  V30 8 C 2.5202 0.084 0.0 0
M  V30 END ATOM
M  V30 BEGIN BOND
M  V30 1 2 1 2
M  V30 2 1 2 3
M  V30 3 1 2 4
M  V30 4 1 4 5
M  V30 5 1 5 6
M  V30 6 1 5 7
M  V30 7 1 5 8
M  V30 END BOND
M  V30 END CTAB
M  END
>  <Dotmatics_CR>
R-009778

>  <CR_Set>
Acid

>  <Category>
Carboxylic Acids Non-Aromatic

>  <Reaction type>
Amidation

>  <KI/BB_Nature>
Amine

>  <Comments>


>  <Salt>


>  <CR_Chiral_Form>
Achiral

>  <Prod_total_used>
76

>  <PSR (%)>
93

>  <Article>
3-Hydroxyisovaleric acid

>  <CAS>
625-08-1

>  <Density>
0.938

>  <Prod_reagent_number>
C009

>  <Stereocenters>
0

>  <NB_Name reaction - KI/BB – Capping>
03-Amidation_Amine_Acid

$$$$
R-008816
Actelion Java MolfileCreator 2.0

  0  0  0  0  0  0              0 V3000
M  V30 BEGIN CTAB
M  V30 COUNTS 8 7 0 0 0
M  V30 BEGIN ATOM
M  V30 1 O 0.0 0.0 0.0 0
M  V30 2 C -0.0239 -1.4834 0.0 0
M  V30 3 O 1.2561 -2.2132 0.0 0
M  V30 4 C -1.3518 -2.2132 0.0 0
M  V30 5 C -1.3758 -3.6967 0.0 0
M  V30 6 C -2.8832 -2.1893 0.0 0
M  V30 7 C -2.1175 -0.8853 0.0 0
M  V30 8 O -0.0957 -4.4384 0.0 0
M  V30 END ATOM
M  V30 BEGIN BOND
M  V30 1 2 1 2
M  V30 2 1 2 3
M  V30 3 1 2 4
M  V30 4 1 4 5
M  V30 5 1 4 6
M  V30 6 1 4 7
M  V30 7 1 5 8
M  V30 END BOND
M  V30 END CTAB
M  END
>  <Dotmatics_CR>
R-008816

>  <CR_Set>
Acid

>  <Category>
Carboxylic Acids Non-Aromatic

>  <Reaction type>
Amidation

>  <KI/BB_Nature>
Amine

>  <Comments>


>  <Salt>


>  <CR_Chiral_Form>
Achiral

>  <Prod_total_used>
43

>  <PSR (%)>
70

>  <Article>
2,2-Dimethyl-3-hydroxypropionic acid

>  <CAS>
4835-90-9

>  <Density>
1

>  <Prod_reagent_number>


>  <Stereocenters>
0

>  <NB_Name reaction - KI/BB – Capping>
03-Amidation_Amine_Acid

$$$$
R-011776
Actelion Java MolfileCreator 2.0

  0  0  0  0  0  0              0 V3000
M  V30 BEGIN CTAB
M  V30 COUNTS 8 7 0 0 0
M  V30 BEGIN ATOM
M  V30 1 O 0.0 0.0 0.0 0
M  V30 2 C 1.1275 0.6809 0.0 0
M  V30 3 O 1.1052 2.0206 0.0 0
M  V30 4 C 2.5342 -0.1228 0.0 0
M  V30 5 C 3.9408 0.7256 0.0 0
M  V30 6 C 5.3474 -0.0781 0.0 0
M  V30 7 C 6.7541 0.7703 0.0 0
M  V30 8 N 7.8816 1.4513 0.0 0
M  V30 END ATOM
M  V30 BEGIN BOND
M  V30 1 2 1 2
M  V30 2 1 2 3
M  V30 3 1 2 4
M  V30 4 1 4 5
M  V30 5 1 5 6
M  V30 6 1 6 7
M  V30 7 3 7 8
M  V30 END BOND
M  V30 END CTAB
M  END
>  <Dotmatics_CR>
R-011776

>  <CR_Set>
Acid

>  <Category>
Carboxylic Acids Non-Aromatic

>  <Reaction type>
Amidation

>  <KI/BB_Nature>
Amine

>  <Comments>


>  <Salt>


>  <CR_Chiral_Form>
Achiral

>  <Prod_total_used>
85

>  <PSR (%)>
87

>  <Article>
4-cyanobutanoic acid

>  <CAS>
39201-33-7

>  <Density>
1.141

>  <Prod_reagent_number>


>  <Stereocenters>
0

>  <NB_Name reaction - KI/BB – Capping>
03-Amidation_Amine_Acid

$$$$
R-011801
Actelion Java MolfileCreator 2.0

  0  0  0  0  0  0              0 V3000
M  V30 BEGIN CTAB
M  V30 COUNTS 8 7 0 0 0
M  V30 BEGIN ATOM
M  V30 1 O 0.0 0.0 0.0 0
M  V30 2 C 1.2047 0.7276 0.0 0
M  V30 3 O 1.1809 2.159 0.0 0
M  V30 4 C 2.7077 -0.1312 0.0 0
M  V30 5 C 4.2106 0.7753 0.0 0
M  V30 6 C 3.9124 -0.8111 0.0 0
M  V30 7 C 2.6838 -1.5148 0.0 0
M  V30 8 N 5.4154 1.5029 0.0 0
M  V30 END ATOM
M  V30 BEGIN BOND
M  V30 1 2 1 2
M  V30 2 1 2 3
M  V30 3 1 2 4
M  V30 4 1 4 5
M  V30 5 1 4 6
M  V30 6 1 4 7
M  V30 7 3 5 8
M  V30 END BOND
M  V30 END CTAB
M  END
>  <Dotmatics_CR>
R-011801

>  <CR_Set>
Acid

>  <Category>
Carboxylic Acids Non-Aromatic

>  <Reaction type>
Amidation

>  <KI/BB_Nature>
Amine

>  <Comments>


>  <Salt>


>  <CR_Chiral_Form>
Achiral

>  <Prod_total_used>
44

>  <PSR (%)>
82

>  <Article>
2-cyano-2-methyl-propanoic acid

>  <CAS>
22426-30-8

>  <Density>
1

>  <Prod_reagent_number>


>  <Stereocenters>
0

>  <NB_Name reaction - KI/BB – Capping>
03-Amidation_Amine_Acid

$$$$
R-005007
Actelion Java MolfileCreator 2.0

  0  0  0  0  0  0              0 V3000
M  V30 BEGIN CTAB
M  V30 COUNTS 8 7 0 0 0
M  V30 BEGIN ATOM
M  V30 1 O 0.0 0.0 0.0 0
M  V30 2 C 0.2707 -1.4476 0.0 0
M  V30 3 O -0.9062 -2.4363 0.0 0
M  V30 4 C 1.683 -1.9302 0.0 0
M  V30 5 N 2.7894 -0.918 0.0 0
M  V30 6 C 4.2017 -1.3652 0.0 0
M  V30 7 O 5.3316 -0.3648 0.0 0
M  V30 8 C 4.4724 -2.8482 0.0 0
M  V30 END ATOM
M  V30 BEGIN BOND
M  V30 1 2 1 2
M  V30 2 1 2 3
M  V30 3 1 2 4
M  V30 4 1 4 5
M  V30 5 1 5 6
M  V30 6 2 6 7
M  V30 7 1 6 8
M  V30 END BOND
M  V30 END CTAB
M  END
>  <Dotmatics_CR>
R-005007

>  <CR_Set>
Acid

>  <Category>
Carboxylic Acids Non-Aromatic

>  <Reaction type>
Amidation

>  <KI/BB_Nature>
Amine

>  <Comments>


>  <Salt>


>  <CR_Chiral_Form>
Achiral

>  <Prod_total_used>
75

>  <PSR (%)>
83

>  <Article>
2-acetamidoacetic acid

>  <CAS>
543-24-8

>  <Density>
1

>  <Prod_reagent_number>
C010

>  <Stereocenters>
0

>  <NB_Name reaction - KI/BB – Capping>
03-Amidation_Amine_Acid

$$$$
R-009776
Actelion Java MolfileCreator 2.0

  0  0  0  0  0  0              0 V3000
M  V30 BEGIN CTAB
M  V30 COUNTS 8 7 0 0 0
M  V30 BEGIN ATOM
M  V30 1 O 0.0 0.0 0.0 0
M  V30 2 C -0.0118 -1.497 0.0 0
M  V30 3 O -1.3307 -2.2455 0.0 0
M  V30 4 C 1.2831 -2.2455 0.0 0
M  V30 5 C 2.5782 -1.4851 0.0 0
M  V30 6 C 3.8733 -2.2218 0.0 0
M  V30 7 O 3.8614 -3.7188 0.0 0
M  V30 8 N 5.1683 -1.4614 0.0 0
M  V30 END ATOM
M  V30 BEGIN BOND
M  V30 1 2 1 2
M  V30 2 1 2 3
M  V30 3 1 2 4
M  V30 4 1 4 5
M  V30 5 1 5 6
M  V30 6 2 6 7
M  V30 7 1 6 8
M  V30 END BOND
M  V30 END CTAB
M  END
>  <Dotmatics_CR>
R-009776

>  <CR_Set>
Acid

>  <Category>
Carboxylic Acids Non-Aromatic

>  <Reaction type>
Amidation

>  <KI/BB_Nature>
Amine

>  <Comments>


>  <Salt>


>  <CR_Chiral_Form>
Achiral

>  <Prod_total_used>
21

>  <PSR (%)>
95

>  <Article>
4-amino-4-oxo-butanoic acid

>  <CAS>
638-32-4

>  <Density>
1

>  <Prod_reagent_number>


>  <Stereocenters>
0

>  <NB_Name reaction - KI/BB – Capping>
03-Amidation_Amine_Acid

$$$$
R-005066
Actelion Java MolfileCreator 2.0

  0  0  0  0  0  0              0 V3000
M  V30 BEGIN CTAB
M  V30 COUNTS 9 8 0 0 0
M  V30 BEGIN ATOM
M  V30 1 O 0.0 0.0 0.0 0
M  V30 2 C -1.3246 -0.7175 0.0 0
M  V30 3 O -1.3467 -2.1084 0.0 0
M  V30 4 C -2.6052 0.0993 0.0 0
M  V30 5 O -3.9961 -0.5409 0.0 0
M  V30 6 C -5.1994 0.2207 0.0 0
M  V30 7 C -6.4468 -0.5961 0.0 0
M  V30 8 O -7.7715 0.2318 0.0 0
M  V30 9 C -9.1734 -0.4857 0.0 0
M  V30 END ATOM
M  V30 BEGIN BOND
M  V30 1 2 1 2
M  V30 2 1 2 3
M  V30 3 1 2 4
M  V30 4 1 4 5
M  V30 5 1 5 6
M  V30 6 1 6 7
M  V30 7 1 7 8
M  V30 8 1 8 9
M  V30 END BOND
M  V30 END CTAB
M  END
>  <Dotmatics_CR>
R-005066

>  <CR_Set>
Acid

>  <Category>
Carboxylic Acids Non-Aromatic

>  <Reaction type>
Amidation

>  <KI/BB_Nature>
Amine

>  <Comments>


>  <Salt>


>  <CR_Chiral_Form>
Achiral

>  <Prod_total_used>
107

>  <PSR (%)>
79

>  <Article>
2-(2-METHOXYETHOXY)ACETIC ACID

>  <CAS>
16024-56-9

>  <Density>
1.18

>  <Prod_reagent_number>
C011

>  <Stereocenters>
0

>  <NB_Name reaction - KI/BB – Capping>
03-Amidation_Amine_Acid

$$$$
R-001292
Actelion Java MolfileCreator 2.0

  0  0  0  0  0  0              0 V3000
M  V30 BEGIN CTAB
M  V30 COUNTS 9 8 0 0 0
M  V30 BEGIN ATOM
M  V30 1 O 0.0 0.0 0.0 0
M  V30 2 C -0.0236 -1.4683 0.0 0
M  V30 3 O 1.2433 -2.1906 0.0 0
M  V30 4 C -1.338 -2.1906 0.0 0
M  V30 5 C -2.6524 -1.4209 0.0 0
M  V30 6 C -3.9668 -2.1551 0.0 0
M  V30 7 C -5.2812 -1.3854 0.0 0
M  V30 8 C -6.5956 -2.1195 0.0 0
M  V30 9 C -5.3049 0.1302 0.0 0
M  V30 END ATOM
M  V30 BEGIN BOND
M  V30 1 2 1 2
M  V30 2 1 2 3
M  V30 3 1 2 4
M  V30 4 1 4 5
M  V30 5 1 5 6
M  V30 6 1 6 7
M  V30 7 1 7 8
M  V30 8 1 7 9
M  V30 END BOND
M  V30 END CTAB
M  END
>  <Dotmatics_CR>
R-001292

>  <CR_Set>
Acid

>  <Category>
Carboxylic Acids Non-Aromatic

>  <Reaction type>
Amidation

>  <KI/BB_Nature>
Amine

>  <Comments>


>  <Salt>


>  <CR_Chiral_Form>
Achiral

>  <Prod_total_used>
35

>  <PSR (%)>
74

>  <Article>
5-METHYLHEXANOIC ACID

>  <CAS>
628-46-6

>  <Density>
0.91

>  <Prod_reagent_number>


>  <Stereocenters>
0

>  <NB_Name reaction - KI/BB – Capping>
03-Amidation_Amine_Acid

$$$$
R-000821
Actelion Java MolfileCreator 2.0

  0  0  0  0  0  0              0 V3000
M  V30 BEGIN CTAB
M  V30 COUNTS 9 8 0 0 0
M  V30 BEGIN ATOM
M  V30 1 F 0.0 0.0 0.0 0
M  V30 2 C 1.488 0.0236 0.0 0
M  V30 3 F 0.6967 -1.2636 0.0 0
M  V30 4 F 0.6967 1.3581 0.0 0
M  V30 5 C 2.9761 0.0472 0.0 0
M  V30 6 C 3.7083 -1.24 0.0 0
M  V30 7 C 5.1964 -1.2164 0.0 0
M  V30 8 O 5.9168 0.1181 0.0 0
M  V30 9 O 5.9168 -2.5037 0.0 0
M  V30 END ATOM
M  V30 BEGIN BOND
M  V30 1 1 1 2
M  V30 2 1 2 3
M  V30 3 1 2 4
M  V30 4 1 2 5
M  V30 5 1 5 6
M  V30 6 1 6 7
M  V30 7 2 7 8
M  V30 8 1 7 9
M  V30 END BOND
M  V30 END CTAB
M  END
>  <Dotmatics_CR>
R-000821

>  <CR_Set>
Acid

>  <Category>
Carboxylic Acids Non-Aromatic

>  <Reaction type>
Amidation

>  <KI/BB_Nature>
Amine

>  <Comments>


>  <Salt>


>  <CR_Chiral_Form>
Achiral

>  <Prod_total_used>
98

>  <PSR (%)>
85

>  <Article>
4,4,4-trifluorobutanoic acid

>  <CAS>
406-93-9

>  <Density>
1

>  <Prod_reagent_number>
C012

>  <Stereocenters>
0

>  <NB_Name reaction - KI/BB – Capping>
03-Amidation_Amine_Acid

$$$$
R-009819
Actelion Java MolfileCreator 2.0

  0  0  0  0  0  0              0 V3000
M  V30 BEGIN CTAB
M  V30 COUNTS 9 8 0 0 0
M  V30 BEGIN ATOM
M  V30 1 O 0.0 0.0 0.0 0
M  V30 2 C -0.1784 1.5224 0.0 0
M  V30 3 O -1.5819 2.1647 0.0 0
M  V30 4 C 1.011 2.4264 0.0 0
M  V30 5 O 2.3669 1.8316 0.0 0
M  V30 6 C 3.5563 2.7356 0.0 0
M  V30 7 C 4.9122 2.1409 0.0 0
M  V30 8 C 6.1016 3.0448 0.0 0
M  V30 9 C 7.4576 2.4501 0.0 0
M  V30 END ATOM
M  V30 BEGIN BOND
M  V30 1 2 1 2
M  V30 2 1 2 3
M  V30 3 1 2 4
M  V30 4 1 4 5
M  V30 5 1 5 6
M  V30 6 1 6 7
M  V30 7 1 7 8
M  V30 8 1 8 9
M  V30 END BOND
M  V30 END CTAB
M  END
>  <Dotmatics_CR>
R-009819

>  <CR_Set>
Acid

>  <Category>
Carboxylic Acids Non-Aromatic

>  <Reaction type>
Amidation

>  <KI/BB_Nature>
Amine

>  <Comments>


>  <Salt>


>  <CR_Chiral_Form>
Achiral

>  <Prod_total_used>
58

>  <PSR (%)>
86

>  <Article>
n-Butoxyacetic acid

>  <CAS>
2516-93-0

>  <Density>
1.02

>  <Prod_reagent_number>
C137

>  <Stereocenters>
0

>  <NB_Name reaction - KI/BB – Capping>
03-Amidation_Amine_Acid

$$$$
R-009196
Actelion Java MolfileCreator 2.0

  0  0  0  0  0  0              0 V3000
M  V30 BEGIN CTAB
M  V30 COUNTS 9 8 0 0 0
M  V30 BEGIN ATOM
M  V30 1 O 0.0 0.0 0.0 0
M  V30 2 C -0.0237 -1.4735 0.0 0
M  V30 3 O 1.2477 -2.1984 0.0 0
M  V30 4 C -1.3428 -2.1984 0.0 0
M  V30 5 O -2.6619 -1.426 0.0 0
M  V30 6 C -3.981 -2.1509 0.0 0
M  V30 7 C -5.3001 -1.3785 0.0 0
M  V30 8 C -4.0047 -3.6245 0.0 0
M  V30 9 C -4.0047 -0.6298 0.0 0
M  V30 END ATOM
M  V30 BEGIN BOND
M  V30 1 2 1 2
M  V30 2 1 2 3
M  V30 3 1 2 4
M  V30 4 1 4 5
M  V30 5 1 5 6
M  V30 6 1 6 7
M  V30 7 1 6 8
M  V30 8 1 6 9
M  V30 END BOND
M  V30 END CTAB
M  END
>  <Dotmatics_CR>
R-009196

>  <CR_Set>
Acid

>  <Category>
Carboxylic Acids Non-Aromatic

>  <Reaction type>
Amidation

>  <KI/BB_Nature>
Amine

>  <Comments>


>  <Salt>


>  <CR_Chiral_Form>
Achiral

>  <Prod_total_used>
85

>  <PSR (%)>
89

>  <Article>
2-tert-butoxyacetic acid

>  <CAS>
13211-32-0

>  <Density>
1.027

>  <Prod_reagent_number>
C013

>  <Stereocenters>
0

>  <NB_Name reaction - KI/BB – Capping>
03-Amidation_Amine_Acid

$$$$
R-008483
Actelion Java MolfileCreator 2.0

  0  0  0  0  0  0              0 V3000
M  V30 BEGIN CTAB
M  V30 COUNTS 9 8 0 0 0
M  V30 BEGIN ATOM
M  V30 1 O 0.0 0.0 0.0 0
M  V30 2 C -0.024 -1.4916 0.0 0
M  V30 3 O -1.3593 -2.2254 0.0 0
M  V30 4 C 1.263 -2.2254 0.0 0
M  V30 5 C 2.5502 -1.4555 0.0 0
M  V30 6 N 3.8374 -2.1893 0.0 0
M  V30 7 C 5.1245 -1.4194 0.0 0
M  V30 8 O 5.1005 0.1202 0.0 0
M  V30 9 C 6.4117 -2.1532 0.0 0
M  V30 END ATOM
M  V30 BEGIN BOND
M  V30 1 2 1 2
M  V30 2 1 2 3
M  V30 3 1 2 4
M  V30 4 1 4 5
M  V30 5 1 5 6
M  V30 6 1 6 7
M  V30 7 2 7 8
M  V30 8 1 7 9
M  V30 END BOND
M  V30 END CTAB
M  END
>  <Dotmatics_CR>
R-008483

>  <CR_Set>
Acid

>  <Category>
Carboxylic Acids Non-Aromatic

>  <Reaction type>
Amidation

>  <KI/BB_Nature>
Amine

>  <Comments>


>  <Salt>


>  <CR_Chiral_Form>
Achiral

>  <Prod_total_used>
71

>  <PSR (%)>
89

>  <Article>
3-acetamidopropanoic acid

>  <CAS>
3025-95-4

>  <Density>
1

>  <Prod_reagent_number>
C014

>  <Stereocenters>
0

>  <NB_Name reaction - KI/BB – Capping>
03-Amidation_Amine_Acid

$$$$
R-011413
Actelion Java MolfileCreator 2.0

  0  0  0  0  0  0              0 V3000
M  V30 BEGIN CTAB
M  V30 COUNTS 9 8 0 0 0
M  V30 BEGIN ATOM
M  V30 1 O 0.0 0.0 0.0 0
M  V30 2 C -1.1694 0.6925 0.0 0
M  V30 3 O -1.1921 2.0322 0.0 0
M  V30 4 C -2.6226 -0.1021 0.0 0
M  V30 5 C -4.0758 0.7379 0.0 0
M  V30 6 C -5.5291 -0.0567 0.0 0
M  V30 7 O -5.5518 -1.351 0.0 0
M  V30 8 N -6.9823 0.7833 0.0 0
M  V30 9 C -8.1517 0.1362 0.0 0
M  V30 END ATOM
M  V30 BEGIN BOND
M  V30 1 2 1 2
M  V30 2 1 2 3
M  V30 3 1 2 4
M  V30 4 1 4 5
M  V30 5 1 5 6
M  V30 6 2 6 7
M  V30 7 1 6 8
M  V30 8 1 8 9
M  V30 END BOND
M  V30 END CTAB
M  END
>  <Dotmatics_CR>
R-011413

>  <CR_Set>
Acid

>  <Category>
Carboxylic Acids Non-Aromatic

>  <Reaction type>
Amidation

>  <KI/BB_Nature>
Amine

>  <Comments>


>  <Salt>


>  <CR_Chiral_Form>
Achiral

>  <Prod_total_used>
17

>  <PSR (%)>
76

>  <Article>
4-(methylamino)-4-oxo-butanoic acid

>  <CAS>
56269-39-7

>  <Density>
1

>  <Prod_reagent_number>


>  <Stereocenters>
0

>  <NB_Name reaction - KI/BB – Capping>
03-Amidation_Amine_Acid

$$$$
R-001396
Actelion Java MolfileCreator 2.0

  0  0  0  0  0  0              0 V3000
M  V30 BEGIN CTAB
M  V30 COUNTS 9 9 0 0 0
M  V30 BEGIN ATOM
M  V30 1 O 0.0 0.0 0.0 0
M  V30 2 C 0.1594 1.5702 0.0 0
M  V30 3 O -0.9446 2.5639 0.0 0
M  V30 4 C 1.5212 2.2204 0.0 0
M  V30 5 C 1.6561 3.7417 0.0 0
M  V30 6 C 0.5275 4.7354 0.0 0
M  V30 7 C 2.9197 4.5145 0.0 0
M  V30 8 C 1.1286 6.0971 0.0 0
M  V30 9 C 2.5271 5.9867 0.0 0
M  V30 END ATOM
M  V30 BEGIN BOND
M  V30 1 2 1 2
M  V30 2 1 2 3
M  V30 3 1 2 4
M  V30 4 1 4 5
M  V30 5 1 5 6
M  V30 6 1 5 7
M  V30 7 1 6 8
M  V30 8 1 7 9
M  V30 9 1 8 9
M  V30 END BOND
M  V30 END CTAB
M  END
>  <Dotmatics_CR>
R-001396

>  <CR_Set>
Acid

>  <Category>
Carboxylic Acids Non-Aromatic

>  <Reaction type>
Amidation

>  <KI/BB_Nature>
Amine

>  <Comments>


>  <Salt>


>  <CR_Chiral_Form>
Achiral

>  <Prod_total_used>
3

>  <PSR (%)>
100

>  <Article>
2-cyclopentylacetic acid

>  <CAS>
1123-00-8

>  <Density>
1.022

>  <Prod_reagent_number>


>  <Stereocenters>
0

>  <NB_Name reaction - KI/BB – Capping>
03-Amidation_Amine_Acid

$$$$
R-004952
Actelion Java MolfileCreator 2.0

  0  0  0  0  0  0              0 V3000
M  V30 BEGIN CTAB
M  V30 COUNTS 9 9 0 0 0
M  V30 BEGIN ATOM
M  V30 1 O 0.0 0.0 0.0 0
M  V30 2 C -0.0243 -1.5329 0.0 0
M  V30 3 O 1.1557 -2.3358 0.0 0
M  V30 4 C -1.326 -2.2993 0.0 0
M  V30 5 C -1.326 -3.7836 0.0 0
M  V30 6 C -2.6643 -1.5572 0.0 0
M  V30 7 C -2.64 -4.5135 0.0 0
M  V30 8 C -3.9782 -2.2871 0.0 0
M  V30 9 C -3.9782 -3.7592 0.0 0
M  V30 END ATOM
M  V30 BEGIN BOND
M  V30 1 2 1 2
M  V30 2 1 2 3
M  V30 3 1 2 4
M  V30 4 2 4 5
M  V30 5 1 4 6
M  V30 6 1 5 7
M  V30 7 2 6 8
M  V30 8 2 7 9
M  V30 9 1 8 9
M  V30 END BOND
M  V30 END CTAB
M  END
>  <Dotmatics_CR>
R-004952

>  <CR_Set>
Acid

>  <Category>
Carboxylic Acids Aromatic

>  <Reaction type>
Amidation

>  <KI/BB_Nature>
Amine

>  <Comments>


>  <Salt>


>  <CR_Chiral_Form>
Achiral

>  <Prod_total_used>
26

>  <PSR (%)>
88

>  <Article>
BENZOIC ACID

>  <CAS>
65-85-0

>  <Density>
1

>  <Prod_reagent_number>


>  <Stereocenters>
0

>  <NB_Name reaction - KI/BB – Capping>
03-Amidation_Amine_Acid

$$$$
R-003233
Actelion Java MolfileCreator 2.0

  0  0  0  0  0  0              0 V3000
M  V30 BEGIN CTAB
M  V30 COUNTS 9 9 0 0 0
M  V30 BEGIN ATOM
M  V30 1 O 0.0 0.0 0.0 0
M  V30 2 C -1.3385 0.7162 0.0 0
M  V30 3 O -1.4207 2.2192 0.0 0
M  V30 4 C -2.6419 -0.0704 0.0 0
M  V30 5 C -2.6654 -1.5381 0.0 0
M  V30 6 C -3.9452 0.7045 0.0 0
M  V30 7 C -3.9687 -2.2661 0.0 0
M  V30 8 C -5.2486 -0.0234 0.0 0
M  V30 9 C -5.272 -1.4912 0.0 0
M  V30 END ATOM
M  V30 BEGIN BOND
M  V30 1 2 1 2
M  V30 2 1 2 3
M  V30 3 1 2 4
M  V30 4 1 4 5
M  V30 5 1 4 6
M  V30 6 1 5 7
M  V30 7 1 6 8
M  V30 8 1 7 9
M  V30 9 1 8 9
M  V30 END BOND
M  V30 END CTAB
M  END
>  <Dotmatics_CR>
R-003233

>  <CR_Set>
Acid

>  <Category>
Carboxylic Acids Non-Aromatic

>  <Reaction type>
Amidation

>  <KI/BB_Nature>
Amine

>  <Comments>


>  <Salt>


>  <CR_Chiral_Form>
Achiral

>  <Prod_total_used>
19

>  <PSR (%)>
89

>  <Article>
cyclohexanecarboxylic acid

>  <CAS>
98-89-5

>  <Density>
1

>  <Prod_reagent_number>
C015

>  <Stereocenters>
0

>  <NB_Name reaction - KI/BB – Capping>
03-Amidation_Amine_Acid

$$$$
R-011949
Actelion Java MolfileCreator 2.0

  0  0  0  0  0  0              0 V3000
M  V30 BEGIN CTAB
M  V30 COUNTS 9 9 0 0 0
M  V30 BEGIN ATOM
M  V30 1 F 0.0 0.0 0.0 0
M  V30 2 C -0.6839 1.1485 0.0 0
M  V30 3 F -0.0516 2.297 0.0 0
M  V30 4 C -1.8582 0.0258 0.0 0
M  V30 5 C -1.8582 2.3228 0.0 0
M  V30 6 C -3.0325 1.2001 0.0 0
M  V30 7 C -4.6843 1.2259 0.0 0
M  V30 8 O -5.3683 0.129 0.0 0
M  V30 9 O -5.3683 2.3744 0.0 0
M  V30 END ATOM
M  V30 BEGIN BOND
M  V30 1 1 1 2
M  V30 2 1 2 3
M  V30 3 1 2 4
M  V30 4 1 2 5
M  V30 5 1 4 6
M  V30 6 1 6 7
M  V30 7 2 7 8
M  V30 8 1 7 9
M  V30 9 1 5 6
M  V30 END BOND
M  V30 END CTAB
M  END
>  <Dotmatics_CR>
R-011949

>  <CR_Set>
Acid

>  <Category>
Carboxylic Acids Non-Aromatic

>  <Reaction type>
Amidation

>  <KI/BB_Nature>
Amine

>  <Comments>


>  <Salt>


>  <CR_Chiral_Form>
Achiral

>  <Prod_total_used>
68

>  <PSR (%)>
88

>  <Article>
3,3-difluorocyclobutanecarboxylic acid

>  <CAS>
107496-54-8

>  <Density>
1

>  <Prod_reagent_number>


>  <Stereocenters>
0

>  <NB_Name reaction - KI/BB – Capping>
03-Amidation_Amine_Acid

$$$$
R-002442
Actelion Java MolfileCreator 2.0

  0  0  0  0  0  0              0 V3000
M  V30 BEGIN CTAB
M  V30 COUNTS 9 9 0 0 0
M  V30 BEGIN ATOM
M  V30 1 S 0.0 0.0 0.0 0
M  V30 2 C 0.8693 -1.1983 0.0 0
M  V30 3 C -1.4567 -0.4346 0.0 0
M  V30 4 C 2.3496 -1.1748 0.0 0
M  V30 5 C -0.0469 -2.3966 0.0 0
M  V30 6 C -1.4802 -1.9149 0.0 0
M  V30 7 O 3.0897 0.1527 0.0 0
M  V30 8 O 3.0897 -2.4553 0.0 0
M  V30 9 C -2.7255 -2.7843 0.0 0
M  V30 END ATOM
M  V30 BEGIN BOND
M  V30 1 1 1 2
M  V30 2 1 1 3
M  V30 3 1 2 4
M  V30 4 2 2 5
M  V30 5 2 3 6
M  V30 6 2 4 7
M  V30 7 1 4 8
M  V30 8 1 6 9
M  V30 9 1 5 6
M  V30 END BOND
M  V30 END CTAB
M  END
>  <Dotmatics_CR>
R-002442

>  <CR_Set>
Acid

>  <Category>
Carboxylic Acids Aromatic

>  <Reaction type>
Amidation

>  <KI/BB_Nature>
Amine

>  <Comments>


>  <Salt>


>  <CR_Chiral_Form>
Achiral

>  <Prod_total_used>
98

>  <PSR (%)>
86

>  <Article>
4-methylthiophene-2-carboxylic acid

>  <CAS>
14282-78-1

>  <Density>
1

>  <Prod_reagent_number>


>  <Stereocenters>
0

>  <NB_Name reaction - KI/BB – Capping>
03-Amidation_Amine_Acid

$$$$
R-004495
Actelion Java MolfileCreator 2.0

  0  0  0  0  0  0              0 V3000
M  V30 BEGIN CTAB
M  V30 COUNTS 9 9 0 0 0
M  V30 BEGIN ATOM
M  V30 1 S 0.0 0.0 0.0 0
M  V30 2 C -1.1947 0.8931 0.0 0
M  V30 3 C 1.1251 0.8699 0.0 0
M  V30 4 C -0.7771 2.3547 0.0 0
M  V30 5 C 0.6611 2.3547 0.0 0
M  V30 6 C -1.6703 3.5843 0.0 0
M  V30 7 C -1.0439 4.9879 0.0 0
M  V30 8 O -1.9371 6.2871 0.0 0
M  V30 9 O 0.3943 4.9879 0.0 0
M  V30 END ATOM
M  V30 BEGIN BOND
M  V30 1 1 1 2
M  V30 2 1 1 3
M  V30 3 2 2 4
M  V30 4 2 3 5
M  V30 5 1 4 6
M  V30 6 1 6 7
M  V30 7 2 7 8
M  V30 8 1 7 9
M  V30 9 1 4 5
M  V30 END BOND
M  V30 END CTAB
M  END
>  <Dotmatics_CR>
R-004495

>  <CR_Set>
Acid

>  <Category>
Carboxylic Acids Non-Aromatic

>  <Reaction type>
Amidation

>  <KI/BB_Nature>
Amine

>  <Comments>


>  <Salt>


>  <CR_Chiral_Form>
Achiral

>  <Prod_total_used>
96

>  <PSR (%)>
81

>  <Article>
3-THIOPHENEACETIC ACID

>  <CAS>
6964-21-2

>  <Density>
1

>  <Prod_reagent_number>


>  <Stereocenters>
0

>  <NB_Name reaction - KI/BB – Capping>
03-Amidation_Amine_Acid

$$$$
R-006688
Actelion Java MolfileCreator 2.0

  0  0  0  0  0  0              0 V3000
M  V30 BEGIN CTAB
M  V30 COUNTS 9 9 0 0 0
M  V30 BEGIN ATOM
M  V30 1 S 0.0 0.0 0.0 0
M  V30 2 C 1.3603 -0.6019 0.0 0
M  V30 3 C -1.0352 -1.0954 0.0 0
M  V30 4 C 1.1797 -2.0826 0.0 0
M  V30 5 C 2.6484 0.1805 0.0 0
M  V30 6 C -0.2889 -2.3835 0.0 0
M  V30 7 C 1.9261 -3.3707 0.0 0
M  V30 8 O 2.6243 1.7214 0.0 0
M  V30 9 O 3.9364 -0.5657 0.0 0
M  V30 END ATOM
M  V30 BEGIN BOND
M  V30 1 1 1 2
M  V30 2 1 1 3
M  V30 3 2 2 4
M  V30 4 1 2 5
M  V30 5 2 3 6
M  V30 6 1 4 7
M  V30 7 2 5 8
M  V30 8 1 5 9
M  V30 9 1 4 6
M  V30 END BOND
M  V30 END CTAB
M  END
>  <Dotmatics_CR>
R-006688

>  <CR_Set>
Acid

>  <Category>
Carboxylic Acids Aromatic

>  <Reaction type>
Amidation

>  <KI/BB_Nature>
Amine

>  <Comments>


>  <Salt>


>  <CR_Chiral_Form>
Achiral

>  <Prod_total_used>
67

>  <PSR (%)>
85

>  <Article>
3-Methylthiophene-2-carboxylic acid

>  <CAS>
23806-24-8

>  <Density>
1

>  <Prod_reagent_number>


>  <Stereocenters>
0

>  <NB_Name reaction - KI/BB – Capping>
03-Amidation_Amine_Acid

$$$$
R-004969
Actelion Java MolfileCreator 2.0

  0  0  0  0  0  0              0 V3000
M  V30 BEGIN CTAB
M  V30 COUNTS 9 9 0 0 0
M  V30 BEGIN ATOM
M  V30 1 S 0.0 0.0 0.0 0
M  V30 2 C -1.2607 0.8404 0.0 0
M  V30 3 C 1.1556 0.8404 0.0 0
M  V30 4 C -2.6731 0.3968 0.0 0
M  V30 5 C -0.8171 2.3346 0.0 0
M  V30 6 C 0.642 2.3346 0.0 0
M  V30 7 C 2.5798 0.3385 0.0 0
M  V30 8 O -2.9883 -1.0505 0.0 0
M  V30 9 O -3.7004 1.4708 0.0 0
M  V30 END ATOM
M  V30 BEGIN BOND
M  V30 1 1 1 2
M  V30 2 1 1 3
M  V30 3 1 2 4
M  V30 4 2 2 5
M  V30 5 2 3 6
M  V30 6 1 3 7
M  V30 7 2 4 8
M  V30 8 1 4 9
M  V30 9 1 5 6
M  V30 END BOND
M  V30 END CTAB
M  END
>  <Dotmatics_CR>
R-004969

>  <CR_Set>
Acid

>  <Category>
Carboxylic Acids Aromatic

>  <Reaction type>
Amidation

>  <KI/BB_Nature>
Amine

>  <Comments>


>  <Salt>


>  <CR_Chiral_Form>
Achiral

>  <Prod_total_used>
14

>  <PSR (%)>
79

>  <Article>
5-METHYL-2-THIOPHENEACETIC ACID

>  <CAS>
1918-79-2

>  <Density>
1

>  <Prod_reagent_number>


>  <Stereocenters>
0

>  <NB_Name reaction - KI/BB – Capping>
03-Amidation_Amine_Acid

$$$$
R-004968
Actelion Java MolfileCreator 2.0

  0  0  0  0  0  0              0 V3000
M  V30 BEGIN CTAB
M  V30 COUNTS 9 9 0 0 0
M  V30 BEGIN ATOM
M  V30 1 S 0.0 0.0 0.0 0
M  V30 2 C -1.2383 0.8692 0.0 0
M  V30 3 C 1.1907 0.8692 0.0 0
M  V30 4 C -0.762 2.2623 0.0 0
M  V30 5 C -2.6791 0.4524 0.0 0
M  V30 6 C 0.7263 2.2623 0.0 0
M  V30 7 C -3.8103 1.4765 0.0 0
M  V30 8 O -5.3344 1.0835 0.0 0
M  V30 9 O -3.3697 2.8934 0.0 0
M  V30 END ATOM
M  V30 BEGIN BOND
M  V30 1 1 1 2
M  V30 2 1 1 3
M  V30 3 2 2 4
M  V30 4 1 2 5
M  V30 5 2 3 6
M  V30 6 1 5 7
M  V30 7 2 7 8
M  V30 8 1 7 9
M  V30 9 1 4 6
M  V30 END BOND
M  V30 END CTAB
M  END
>  <Dotmatics_CR>
R-004968

>  <CR_Set>
Acid

>  <Category>
Carboxylic Acids Non-Aromatic

>  <Reaction type>
Amidation

>  <KI/BB_Nature>
Amine

>  <Comments>


>  <Salt>


>  <CR_Chiral_Form>
Achiral

>  <Prod_total_used>
1

>  <PSR (%)>
100

>  <Article>
2-THIOPHENEACETIC ACID

>  <CAS>
1918-77-0

>  <Density>
1

>  <Prod_reagent_number>


>  <Stereocenters>
0

>  <NB_Name reaction - KI/BB – Capping>
03-Amidation_Amine_Acid

$$$$
R-003996
Actelion Java MolfileCreator 2.0

  0  0  0  0  0  0              0 V3000
M  V30 BEGIN CTAB
M  V30 COUNTS 9 9 0 0 0
M  V30 BEGIN ATOM
M  V30 1 O 0.0 0.0 0.0 0
M  V30 2 C -0.7654 -1.2677 0.0 0
M  V30 3 O -0.0358 -2.5236 0.0 0
M  V30 4 C -2.2963 -1.2438 0.0 0
M  V30 5 C -3.0498 -2.4996 0.0 0
M  V30 6 C -3.0498 0.0717 0.0 0
M  V30 7 C -4.5807 -2.4757 0.0 0
M  V30 8 C -4.5807 0.0956 0.0 0
M  V30 9 O -5.3462 -1.1721 0.0 0
M  V30 END ATOM
M  V30 BEGIN BOND
M  V30 1 2 1 2
M  V30 2 1 2 3
M  V30 3 1 2 4
M  V30 4 1 4 5
M  V30 5 1 4 6
M  V30 6 1 5 7
M  V30 7 1 6 8
M  V30 8 1 7 9
M  V30 9 1 8 9
M  V30 END BOND
M  V30 END CTAB
M  END
>  <Dotmatics_CR>
R-003996

>  <CR_Set>
Acid

>  <Category>
Carboxylic Acids Non-Aromatic

>  <Reaction type>
Amidation

>  <KI/BB_Nature>
Amine

>  <Comments>


>  <Salt>


>  <CR_Chiral_Form>
Achiral

>  <Prod_total_used>
77

>  <PSR (%)>
79

>  <Article>
tetrahydropyran-4-carboxylic acid

>  <CAS>
5337-03-1

>  <Density>
1

>  <Prod_reagent_number>
C016

>  <Stereocenters>
0

>  <NB_Name reaction - KI/BB – Capping>
03-Amidation_Amine_Acid

$$$$
R-000235
Actelion Java MolfileCreator 2.0

  0  0  0  0  0  0              0 V3000
M  V30 BEGIN CTAB
M  V30 COUNTS 9 9 0 0 0
M  V30 BEGIN ATOM
M  V30 1 O 0.0 0.0 0.0 0
M  V30 2 C -0.7681 -1.2645 0.0 0
M  V30 3 O -0.0354 -2.5291 0.0 0
M  V30 4 C -2.2809 -1.2409 0.0 0
M  V30 5 O -3.1791 -0.0118 0.0 0
M  V30 6 C -3.1791 -2.4227 0.0 0
M  V30 7 C -4.6209 -0.449 0.0 0
M  V30 8 C -4.6209 -1.9382 0.0 0
M  V30 9 C -5.85 0.449 0.0 0
M  V30 END ATOM
M  V30 BEGIN BOND
M  V30 1 2 1 2
M  V30 2 1 2 3
M  V30 3 1 2 4
M  V30 4 1 4 5
M  V30 5 2 4 6
M  V30 6 1 5 7
M  V30 7 1 6 8
M  V30 8 1 7 9
M  V30 9 2 7 8
M  V30 END BOND
M  V30 END CTAB
M  END
>  <Dotmatics_CR>
R-000235

>  <CR_Set>
Acid

>  <Category>
Carboxylic Acids Aromatic

>  <Reaction type>
Amidation

>  <KI/BB_Nature>
Amine

>  <Comments>


>  <Salt>


>  <CR_Chiral_Form>
Achiral

>  <Prod_total_used>
32

>  <PSR (%)>
75

>  <Article>
5-Methylfuran-2-carboxylic acid

>  <CAS>
1917-15-3

>  <Density>
1

>  <Prod_reagent_number>


>  <Stereocenters>
0

>  <NB_Name reaction - KI/BB – Capping>
03-Amidation_Amine_Acid

$$$$
R-005384
Actelion Java MolfileCreator 2.0

  0  0  0  0  0  0              0 V3000
M  V30 BEGIN CTAB
M  V30 COUNTS 9 9 0 0 0
M  V30 BEGIN ATOM
M  V30 1 O 0.0 0.0 0.0 0
M  V30 2 C 0.8453 -1.2327 0.0 0
M  V30 3 O 0.1761 -2.5594 0.0 0
M  V30 4 C 2.3246 -1.0918 0.0 0
M  V30 5 O 3.1112 0.2348 0.0 0
M  V30 6 C 3.2873 -2.2189 0.0 0
M  V30 7 C 4.5552 -0.1056 0.0 0
M  V30 8 C 4.6844 -1.6084 0.0 0
M  V30 9 C 2.9116 -3.663 0.0 0
M  V30 END ATOM
M  V30 BEGIN BOND
M  V30 1 2 1 2
M  V30 2 1 2 3
M  V30 3 1 2 4
M  V30 4 1 4 5
M  V30 5 2 4 6
M  V30 6 1 5 7
M  V30 7 1 6 8
M  V30 8 1 6 9
M  V30 9 2 7 8
M  V30 END BOND
M  V30 END CTAB
M  END
>  <Dotmatics_CR>
R-005384

>  <CR_Set>
Acid

>  <Category>
Carboxylic Acids Aromatic

>  <Reaction type>
Amidation

>  <KI/BB_Nature>
Amine

>  <Comments>


>  <Salt>


>  <CR_Chiral_Form>
Achiral

>  <Prod_total_used>
7

>  <PSR (%)>
100

>  <Article>
3-METHYL-2-FUROIC ACID

>  <CAS>
4412-96-8

>  <Density>
1

>  <Prod_reagent_number>


>  <Stereocenters>
0

>  <NB_Name reaction - KI/BB – Capping>
03-Amidation_Amine_Acid

$$$$
R-007558
Actelion Java MolfileCreator 2.0

  0  0  0  0  0  0              0 V3000
M  V30 BEGIN CTAB
M  V30 COUNTS 9 9 0 0 0
M  V30 BEGIN ATOM
M  V30 1 O 0.0 0.0 0.0 0
M  V30 2 C 0.9922 -1.0985 0.0 0
M  V30 3 O 2.4452 -0.7678 0.0 0
M  V30 4 C 0.5079 -2.5161 0.0 0
M  V30 5 C 1.382 -3.7209 0.0 0
M  V30 6 C -0.9568 -2.9531 0.0 0
M  V30 7 O 0.4606 -4.9258 0.0 0
M  V30 8 C 2.8704 -3.6973 0.0 0
M  V30 9 C -0.9804 -4.4415 0.0 0
M  V30 END ATOM
M  V30 BEGIN BOND
M  V30 1 2 1 2
M  V30 2 1 2 3
M  V30 3 1 2 4
M  V30 4 2 4 5
M  V30 5 1 4 6
M  V30 6 1 5 7
M  V30 7 1 5 8
M  V30 8 2 6 9
M  V30 9 1 7 9
M  V30 END BOND
M  V30 END CTAB
M  END
>  <Dotmatics_CR>
R-007558

>  <CR_Set>
Acid

>  <Category>
Carboxylic Acids Aromatic

>  <Reaction type>
Amidation

>  <KI/BB_Nature>
Amine

>  <Comments>


>  <Salt>


>  <CR_Chiral_Form>
Achiral

>  <Prod_total_used>
16

>  <PSR (%)>
94

>  <Article>
2-METHYL-3-FUROIC ACID

>  <CAS>
6947-94-0

>  <Density>
1

>  <Prod_reagent_number>


>  <Stereocenters>
0

>  <NB_Name reaction - KI/BB – Capping>
03-Amidation_Amine_Acid

$$$$
R-011802
Actelion Java MolfileCreator 2.0

  0  0  0  0  0  0              0 V3000
M  V30 BEGIN CTAB
M  V30 COUNTS 9 9 0 0 0
M  V30 BEGIN ATOM
M  V30 1 O 0.0 0.0 0.0 0
M  V30 2 C 1.0996 -0.6205 0.0 0
M  V30 3 O 1.0778 -1.8835 0.0 0
M  V30 4 C 2.4714 0.2068 0.0 0
M  V30 5 C 3.5928 1.3718 0.0 0
M  V30 6 C 1.3064 1.3718 0.0 0
M  V30 7 C 3.8432 -0.577 0.0 0
M  V30 8 O 2.4279 2.5367 0.0 0
M  V30 9 C 3.8215 -1.8399 0.0 0
M  V30 END ATOM
M  V30 BEGIN BOND
M  V30 1 2 1 2
M  V30 2 1 2 3
M  V30 3 1 2 4
M  V30 4 1 4 5
M  V30 5 1 4 6
M  V30 6 1 4 7
M  V30 7 1 5 8
M  V30 8 1 7 9
M  V30 9 1 6 8
M  V30 END BOND
M  V30 END CTAB
M  END
>  <Dotmatics_CR>
R-011802

>  <CR_Set>
Acid

>  <Category>
Carboxylic Acids Non-Aromatic

>  <Reaction type>
Amidation

>  <KI/BB_Nature>
Amine

>  <Comments>


>  <Salt>


>  <CR_Chiral_Form>
Achiral

>  <Prod_total_used>
18

>  <PSR (%)>
83

>  <Article>
3-ethyloxetane-3-carboxylic acid

>  <CAS>
28562-61-0

>  <Density>
1

>  <Prod_reagent_number>


>  <Stereocenters>
0

>  <NB_Name reaction - KI/BB – Capping>
03-Amidation_Amine_Acid

$$$$
R-009780
Actelion Java MolfileCreator 2.0

  0  0  0  0  0  0              0 V3000
M  V30 BEGIN CTAB
M  V30 COUNTS 9 9 0 0 0
M  V30 BEGIN ATOM
M  V30 1 O 0.0 0.0 0.0 0
M  V30 2 C -0.0237 -1.4973 0.0 0
M  V30 3 O -1.3665 -2.2222 0.0 0
M  V30 4 C 1.2715 -2.2222 0.0 0
M  V30 5 N 2.5668 -1.4378 0.0 0
M  V30 6 C 1.2477 -3.7195 0.0 0
M  V30 7 C 3.8621 -2.1627 0.0 0
M  V30 8 C 2.543 -4.4444 0.0 0
M  V30 9 N 3.8383 -3.6601 0.0 0
M  V30 END ATOM
M  V30 BEGIN BOND
M  V30 1 2 1 2
M  V30 2 1 2 3
M  V30 3 1 2 4
M  V30 4 2 4 5
M  V30 5 1 4 6
M  V30 6 1 5 7
M  V30 7 2 6 8
M  V30 8 2 7 9
M  V30 9 1 8 9
M  V30 END BOND
M  V30 END CTAB
M  END
>  <Dotmatics_CR>
R-009780

>  <CR_Set>
Acid

>  <Category>
Carboxylic Acids Aromatic

>  <Reaction type>
Amidation

>  <KI/BB_Nature>
Amine

>  <Comments>


>  <Salt>


>  <CR_Chiral_Form>
Achiral

>  <Prod_total_used>
82

>  <PSR (%)>
91

>  <Article>
pyrimidine-4-carboxylic acid

>  <CAS>
31462-59-6

>  <Density>
1

>  <Prod_reagent_number>


>  <Stereocenters>
0

>  <NB_Name reaction - KI/BB – Capping>
03-Amidation_Amine_Acid

$$$$
R-011937
Actelion Java MolfileCreator 2.0

  0  0  0  0  0  0              0 V3000
M  V30 BEGIN CTAB
M  V30 COUNTS 9 9 0 0 0
M  V30 BEGIN ATOM
M  V30 1 O 0.0 0.0 0.0 0
M  V30 2 C 0.4916 1.1851 0.0 0
M  V30 3 O 1.7272 1.3364 0.0 0
M  V30 4 C -0.4538 2.4963 0.0 0
M  V30 5 N 0.0126 4.0344 0.0 0
M  V30 6 C -2.0676 2.5215 0.0 0
M  V30 7 N -1.2985 4.9926 0.0 0
M  V30 8 C -2.5845 4.0596 0.0 0
M  V30 9 C -1.3238 6.2912 0.0 0
M  V30 END ATOM
M  V30 BEGIN BOND
M  V30 1 2 1 2
M  V30 2 1 2 3
M  V30 3 1 2 4
M  V30 4 2 4 5
M  V30 5 1 4 6
M  V30 6 1 5 7
M  V30 7 2 6 8
M  V30 8 1 7 9
M  V30 9 1 7 8
M  V30 END BOND
M  V30 END CTAB
M  END
>  <Dotmatics_CR>
R-011937

>  <CR_Set>
Acid

>  <Category>
Carboxylic Acids Aromatic

>  <Reaction type>
Amidation

>  <KI/BB_Nature>
Amine

>  <Comments>


>  <Salt>


>  <CR_Chiral_Form>
Achiral

>  <Prod_total_used>
39

>  <PSR (%)>
90

>  <Article>
1-methylpyrazole-3-carboxylic acid

>  <CAS>
25016-20-0

>  <Density>
1

>  <Prod_reagent_number>


>  <Stereocenters>
0

>  <NB_Name reaction - KI/BB – Capping>
03-Amidation_Amine_Acid

$$$$
R-005201
Actelion Java MolfileCreator 2.0

  0  0  0  0  0  0              0 V3000
M  V30 BEGIN CTAB
M  V30 COUNTS 9 9 0 0 0
M  V30 BEGIN ATOM
M  V30 1 O 0.0 0.0 0.0 0
M  V30 2 C -0.1778 -1.482 0.0 0
M  V30 3 O -1.5887 -2.0748 0.0 0
M  V30 4 C 1.0315 -2.3594 0.0 0
M  V30 5 N 1.0077 -3.8533 0.0 0
M  V30 6 C 2.4542 -1.8733 0.0 0
M  V30 7 N 2.4305 -4.292 0.0 0
M  V30 8 C 3.3316 -3.0826 0.0 0
M  V30 9 C 4.8255 -3.0589 0.0 0
M  V30 END ATOM
M  V30 BEGIN BOND
M  V30 1 2 1 2
M  V30 2 1 2 3
M  V30 3 1 2 4
M  V30 4 2 4 5
M  V30 5 1 4 6
M  V30 6 1 5 7
M  V30 7 2 6 8
M  V30 8 1 8 9
M  V30 9 1 7 8
M  V30 END BOND
M  V30 END CTAB
M  END
>  <Dotmatics_CR>
R-005201

>  <CR_Set>
Acid

>  <Category>
Carboxylic Acids Aromatic

>  <Reaction type>
Amidation

>  <KI/BB_Nature>
Amine

>  <Comments>


>  <Salt>


>  <CR_Chiral_Form>
Achiral

>  <Prod_total_used>
126

>  <PSR (%)>
87

>  <Article>
5-methyl-1H-pyrazole-3-carboxylic acid

>  <CAS>
402-61-9

>  <Density>
1

>  <Prod_reagent_number>


>  <Stereocenters>
0

>  <NB_Name reaction - KI/BB – Capping>
03-Amidation_Amine_Acid

$$$$
R-009772
Actelion Java MolfileCreator 2.0

  0  0  0  0  0  0              0 V3000
M  V30 BEGIN CTAB
M  V30 COUNTS 9 9 0 0 0
M  V30 BEGIN ATOM
M  V30 1 O 0.0 0.0 0.0 0
M  V30 2 C -0.0237 -1.4939 0.0 0
M  V30 3 O -1.3635 -2.2172 0.0 0
M  V30 4 C 1.2686 -2.2172 0.0 0
M  V30 5 N 1.399 -3.6993 0.0 0
M  V30 6 C 2.6321 -1.5769 0.0 0
M  V30 7 N 2.8574 -3.9838 0.0 0
M  V30 8 C 0.2489 -4.6952 0.0 0
M  V30 9 C 3.6281 -2.6796 0.0 0
M  V30 END ATOM
M  V30 BEGIN BOND
M  V30 1 2 1 2
M  V30 2 1 2 3
M  V30 3 1 2 4
M  V30 4 1 4 5
M  V30 5 2 4 6
M  V30 6 1 5 7
M  V30 7 1 5 8
M  V30 8 1 6 9
M  V30 9 2 7 9
M  V30 END BOND
M  V30 END CTAB
M  END
>  <Dotmatics_CR>
R-009772

>  <CR_Set>
Acid

>  <Category>
Carboxylic Acids Aromatic

>  <Reaction type>
Amidation

>  <KI/BB_Nature>
Amine

>  <Comments>


>  <Salt>


>  <CR_Chiral_Form>
Achiral

>  <Prod_total_used>
87

>  <PSR (%)>
84

>  <Article>
2-methylpyrazole-3-carboxylic acid

>  <CAS>
16034-46-1

>  <Density>
1

>  <Prod_reagent_number>
C017

>  <Stereocenters>
0

>  <NB_Name reaction - KI/BB – Capping>
03-Amidation_Amine_Acid

$$$$
R-009773
Actelion Java MolfileCreator 2.0

  0  0  0  0  0  0              0 V3000
M  V30 BEGIN CTAB
M  V30 COUNTS 9 9 0 0 0
M  V30 BEGIN ATOM
M  V30 1 O 0.0 0.0 0.0 0
M  V30 2 C -0.0237 -1.4868 0.0 0
M  V30 3 O -1.356 -2.2124 0.0 0
M  V30 4 C 1.2608 -2.2124 0.0 0
M  V30 5 N 2.5455 -1.4392 0.0 0
M  V30 6 N 3.9015 -2.034 0.0 0
M  V30 7 C 2.6763 0.0832 0.0 0
M  V30 8 C 4.8888 -0.8921 0.0 0
M  V30 9 C 4.1275 0.4163 0.0 0
M  V30 END ATOM
M  V30 BEGIN BOND
M  V30 1 2 1 2
M  V30 2 1 2 3
M  V30 3 1 2 4
M  V30 4 1 4 5
M  V30 5 1 5 6
M  V30 6 1 5 7
M  V30 7 2 6 8
M  V30 8 2 7 9
M  V30 9 1 8 9
M  V30 END BOND
M  V30 END CTAB
M  END
>  <Dotmatics_CR>
R-009773

>  <CR_Set>
Acid

>  <Category>
Carboxylic Acids Non-Aromatic

>  <Reaction type>
Amidation

>  <KI/BB_Nature>
Amine

>  <Comments>


>  <Salt>


>  <CR_Chiral_Form>
Achiral

>  <Prod_total_used>
116

>  <PSR (%)>
84

>  <Article>
2-pyrazol-1-ylacetic acid

>  <CAS>
16034-48-3

>  <Density>
1

>  <Prod_reagent_number>
C136

>  <Stereocenters>
0

>  <NB_Name reaction - KI/BB – Capping>
03-Amidation_Amine_Acid

$$$$
R-009774
Actelion Java MolfileCreator 2.0

  0  0  0  0  0  0              0 V3000
M  V30 BEGIN CTAB
M  V30 COUNTS 9 9 0 0 0
M  V30 BEGIN ATOM
M  V30 1 O 0.0 0.0 0.0 0
M  V30 2 C -0.0237 -1.4973 0.0 0
M  V30 3 O -1.3665 -2.2222 0.0 0
M  V30 4 C 1.2715 -2.2222 0.0 0
M  V30 5 N 1.2477 -3.7195 0.0 0
M  V30 6 N 2.5668 -1.4378 0.0 0
M  V30 7 C 2.543 -4.4444 0.0 0
M  V30 8 C 3.8621 -2.1627 0.0 0
M  V30 9 C 3.8383 -3.6601 0.0 0
M  V30 END ATOM
M  V30 BEGIN BOND
M  V30 1 2 1 2
M  V30 2 1 2 3
M  V30 3 1 2 4
M  V30 4 2 4 5
M  V30 5 1 4 6
M  V30 6 1 5 7
M  V30 7 2 6 8
M  V30 8 2 7 9
M  V30 9 1 8 9
M  V30 END BOND
M  V30 END CTAB
M  END
>  <Dotmatics_CR>
R-009774

>  <CR_Set>
Acid

>  <Category>
Carboxylic Acids Aromatic

>  <Reaction type>
Amidation

>  <KI/BB_Nature>
Amine

>  <Comments>


>  <Salt>


>  <CR_Chiral_Form>
Achiral

>  <Prod_total_used>
60

>  <PSR (%)>
83

>  <Article>
pyrimidine-2-carboxylic acid

>  <CAS>
31519-62-7

>  <Density>
1

>  <Prod_reagent_number>


>  <Stereocenters>
0

>  <NB_Name reaction - KI/BB – Capping>
03-Amidation_Amine_Acid

$$$$
R-008661
Actelion Java MolfileCreator 2.0

  0  0  0  0  0  0              0 V3000
M  V30 BEGIN CTAB
M  V30 COUNTS 9 9 0 0 0
M  V30 BEGIN ATOM
M  V30 1 O 0.0 0.0 0.0 0
M  V30 2 C -0.1773 -1.4776 0.0 0
M  V30 3 O -1.584 -2.0687 0.0 0
M  V30 4 C 1.0284 -2.3524 0.0 0
M  V30 5 N 1.0048 -3.8419 0.0 0
M  V30 6 N 2.447 -1.8677 0.0 0
M  V30 7 C 2.4233 -4.2792 0.0 0
M  V30 8 C 3.3217 -3.0735 0.0 0
M  V30 9 C 2.8843 -0.4019 0.0 0
M  V30 END ATOM
M  V30 BEGIN BOND
M  V30 1 2 1 2
M  V30 2 1 2 3
M  V30 3 1 2 4
M  V30 4 2 4 5
M  V30 5 1 4 6
M  V30 6 1 5 7
M  V30 7 1 6 8
M  V30 8 1 6 9
M  V30 9 2 7 8
M  V30 END BOND
M  V30 END CTAB
M  END
>  <Dotmatics_CR>
R-008661

>  <CR_Set>
Acid

>  <Category>
Carboxylic Acids Aromatic

>  <Reaction type>
Amidation

>  <KI/BB_Nature>
Amine

>  <Comments>


>  <Salt>


>  <CR_Chiral_Form>
Achiral

>  <Prod_total_used>
145

>  <PSR (%)>
74

>  <Article>
1-methylimidazole-2-carboxylic acid

>  <CAS>
20485-43-2

>  <Density>
1

>  <Prod_reagent_number>
C018

>  <Stereocenters>
0

>  <NB_Name reaction - KI/BB – Capping>
03-Amidation_Amine_Acid

$$$$
R-004899
Actelion Java MolfileCreator 2.0

  0  0  0  0  0  0              0 V3000
M  V30 BEGIN CTAB
M  V30 COUNTS 9 9 0 0 0
M  V30 BEGIN ATOM
M  V30 1 O 0.0 0.0 0.0 0
M  V30 2 C -0.0243 -1.5336 0.0 0
M  V30 3 O 1.1562 -2.3369 0.0 0
M  V30 4 C -1.3266 -2.3004 0.0 0
M  V30 5 N -2.6655 -1.5579 0.0 0
M  V30 6 C -1.3266 -3.7853 0.0 0
M  V30 7 C -3.98 -2.3004 0.0 0
M  V30 8 N -2.6412 -4.5156 0.0 0
M  V30 9 C -3.98 -3.761 0.0 0
M  V30 END ATOM
M  V30 BEGIN BOND
M  V30 1 2 1 2
M  V30 2 1 2 3
M  V30 3 1 2 4
M  V30 4 2 4 5
M  V30 5 1 4 6
M  V30 6 1 5 7
M  V30 7 2 6 8
M  V30 8 2 7 9
M  V30 9 1 8 9
M  V30 END BOND
M  V30 END CTAB
M  END
>  <Dotmatics_CR>
R-004899

>  <CR_Set>
Acid

>  <Category>
Carboxylic Acids Aromatic

>  <Reaction type>
Amidation

>  <KI/BB_Nature>
Amine

>  <Comments>


>  <Salt>


>  <CR_Chiral_Form>
Achiral

>  <Prod_total_used>
90

>  <PSR (%)>
84

>  <Article>
pyrazine-2-carboxylic acid

>  <CAS>
98-97-5

>  <Density>
1

>  <Prod_reagent_number>
C166

>  <Stereocenters>
0

>  <NB_Name reaction - KI/BB – Capping>
03-Amidation_Amine_Acid

$$$$
R-009779
Actelion Java MolfileCreator 2.0

  0  0  0  0  0  0              0 V3000
M  V30 BEGIN CTAB
M  V30 COUNTS 9 9 0 0 0
M  V30 BEGIN ATOM
M  V30 1 O 0.0 0.0 0.0 0
M  V30 2 C -0.0237 -1.4977 0.0 0
M  V30 3 O -1.367 -2.2229 0.0 0
M  V30 4 C 1.2719 -2.2229 0.0 0
M  V30 5 N 2.6389 -1.5809 0.0 0
M  V30 6 C 1.4026 -3.7088 0.0 0
M  V30 7 C 3.6374 -2.6865 0.0 0
M  V30 8 N 2.8648 -3.994 0.0 0
M  V30 9 C 3.4591 -5.3611 0.0 0
M  V30 END ATOM
M  V30 BEGIN BOND
M  V30 1 2 1 2
M  V30 2 1 2 3
M  V30 3 1 2 4
M  V30 4 1 4 5
M  V30 5 2 4 6
M  V30 6 2 5 7
M  V30 7 1 6 8
M  V30 8 1 8 9
M  V30 9 1 7 8
M  V30 END BOND
M  V30 END CTAB
M  END
>  <Dotmatics_CR>
R-009779

>  <CR_Set>
Acid

>  <Category>
Carboxylic Acids Aromatic

>  <Reaction type>
Amidation

>  <KI/BB_Nature>
Amine

>  <Comments>


>  <Salt>


>  <CR_Chiral_Form>
Achiral

>  <Prod_total_used>
132

>  <PSR (%)>
76

>  <Article>
1-methylimidazole-4-carboxylic acid

>  <CAS>
41716-18-1

>  <Density>
1

>  <Prod_reagent_number>
C019

>  <Stereocenters>
0

>  <NB_Name reaction - KI/BB – Capping>
03-Amidation_Amine_Acid

$$$$
R-009813
Actelion Java MolfileCreator 2.0

  0  0  0  0  0  0              0 V3000
M  V30 BEGIN CTAB
M  V30 COUNTS 9 9 0 0 0
M  V30 BEGIN ATOM
M  V30 1 S 0.0 0.0 0.0 0
M  V30 2 N 0.8482 1.2252 0.0 0
M  V30 3 C -1.4373 0.483 0.0 0
M  V30 4 N -0.0471 2.4505 0.0 0
M  V30 5 C -1.4609 1.991 0.0 0
M  V30 6 C -2.6626 -0.3652 0.0 0
M  V30 7 C -2.6862 2.8864 0.0 0
M  V30 8 O -2.533 -1.8143 0.0 0
M  V30 9 O -4.041 0.2709 0.0 0
M  V30 END ATOM
M  V30 BEGIN BOND
M  V30 1 1 1 2
M  V30 2 1 1 3
M  V30 3 2 2 4
M  V30 4 2 3 5
M  V30 5 1 3 6
M  V30 6 1 5 7
M  V30 7 2 6 8
M  V30 8 1 6 9
M  V30 9 1 4 5
M  V30 END BOND
M  V30 END CTAB
M  END
>  <Dotmatics_CR>
R-009813

>  <CR_Set>
Acid

>  <Category>
Carboxylic Acids Aromatic

>  <Reaction type>
Amidation

>  <KI/BB_Nature>
Amine

>  <Comments>


>  <Salt>


>  <CR_Chiral_Form>
Achiral

>  <Prod_total_used>
95

>  <PSR (%)>
85

>  <Article>
4-Methyl-1,2,3-thiadiazole-5-carboxylic acid

>  <CAS>
18212-21-0

>  <Density>
1

>  <Prod_reagent_number>


>  <Stereocenters>
0

>  <NB_Name reaction - KI/BB – Capping>
03-Amidation_Amine_Acid

$$$$
R-009925
Actelion Java MolfileCreator 2.0

  0  0  0  0  0  0              0 V3000
M  V30 BEGIN CTAB
M  V30 COUNTS 9 9 0 0 0
M  V30 BEGIN ATOM
M  V30 1 S 0.0 0.0 0.0 0
M  V30 2 C 0.8515 1.23 0.0 0
M  V30 3 C -1.4429 0.4849 0.0 0
M  V30 4 N -0.0473 2.46 0.0 0
M  V30 5 N 2.3181 1.2536 0.0 0
M  V30 6 C -2.6729 -0.3666 0.0 0
M  V30 7 C -1.4665 1.9987 0.0 0
M  V30 8 O -2.6138 -1.8332 0.0 0
M  V30 9 O -3.9857 0.4021 0.0 0
M  V30 END ATOM
M  V30 BEGIN BOND
M  V30 1 1 1 2
M  V30 2 1 1 3
M  V30 3 2 2 4
M  V30 4 1 2 5
M  V30 5 1 3 6
M  V30 6 2 3 7
M  V30 7 2 6 8
M  V30 8 1 6 9
M  V30 9 1 4 7
M  V30 END BOND
M  V30 END CTAB
M  END
>  <Dotmatics_CR>
R-009925

>  <CR_Set>
Acid

>  <Category>
Carboxylic Acids Aromatic

>  <Reaction type>
Amidation

>  <KI/BB_Nature>
Amine

>  <Comments>


>  <Salt>


>  <CR_Chiral_Form>
Achiral

>  <Prod_total_used>
38

>  <PSR (%)>
89

>  <Article>
2-Amino-1,3-thiazole-5-carboxylic acid

>  <CAS>
40283-46-3

>  <Density>
1

>  <Prod_reagent_number>


>  <Stereocenters>
0

>  <NB_Name reaction - KI/BB – Capping>
03-Amidation_Amine_Acid

$$$$
R-004104
Actelion Java MolfileCreator 2.0

  0  0  0  0  0  0              0 V3000
M  V30 BEGIN CTAB
M  V30 COUNTS 9 9 0 0 0
M  V30 BEGIN ATOM
M  V30 1 O 0.0 0.0 0.0 0
M  V30 2 C -0.7654 -1.2677 0.0 0
M  V30 3 O -0.0358 -2.5236 0.0 0
M  V30 4 C -2.2963 -1.2438 0.0 0
M  V30 5 C -3.0498 -2.4996 0.0 0
M  V30 6 C -3.0498 0.0717 0.0 0
M  V30 7 C -4.5807 -2.4757 0.0 0
M  V30 8 C -4.5807 0.0956 0.0 0
M  V30 9 N -5.3462 -1.1721 0.0 0
M  V30 END ATOM
M  V30 BEGIN BOND
M  V30 1 2 1 2
M  V30 2 1 2 3
M  V30 3 1 2 4
M  V30 4 2 4 5
M  V30 5 1 4 6
M  V30 6 1 5 7
M  V30 7 2 6 8
M  V30 8 2 7 9
M  V30 9 1 8 9
M  V30 END BOND
M  V30 END CTAB
M  END
>  <Dotmatics_CR>
R-004104

>  <CR_Set>
Acid

>  <Category>
Carboxylic Acids Aromatic

>  <Reaction type>
Amidation

>  <KI/BB_Nature>
Amine

>  <Comments>


>  <Salt>


>  <CR_Chiral_Form>
Achiral

>  <Prod_total_used>
7

>  <PSR (%)>
86

>  <Article>
isonicotinic acid

>  <CAS>
55-22-1

>  <Density>
1

>  <Prod_reagent_number>


>  <Stereocenters>
0

>  <NB_Name reaction - KI/BB – Capping>
03-Amidation_Amine_Acid

$$$$
R-006727
Actelion Java MolfileCreator 2.0

  0  0  0  0  0  0              0 V3000
M  V30 BEGIN CTAB
M  V30 COUNTS 9 9 0 0 0
M  V30 BEGIN ATOM
M  V30 1 O 0.0 0.0 0.0 0
M  V30 2 C 0.7242 -1.2704 0.0 0
M  V30 3 O 2.1965 -1.2467 0.0 0
M  V30 4 C -0.0474 -2.5408 0.0 0
M  V30 5 N -1.5672 -2.5171 0.0 0
M  V30 6 C -2.4696 -1.2823 0.0 0
M  V30 7 C -2.4696 -3.7044 0.0 0
M  V30 8 C -3.9182 -1.7216 0.0 0
M  V30 9 C -3.9182 -3.2176 0.0 0
M  V30 END ATOM
M  V30 BEGIN BOND
M  V30 1 2 1 2
M  V30 2 1 2 3
M  V30 3 1 2 4
M  V30 4 1 4 5
M  V30 5 1 5 6
M  V30 6 1 5 7
M  V30 7 1 6 8
M  V30 8 1 7 9
M  V30 9 1 8 9
M  V30 END BOND
M  V30 END CTAB
M  END
>  <Dotmatics_CR>
R-006727

>  <CR_Set>
Acid

>  <Category>
Carboxylic Acids Non-Aromatic

>  <Reaction type>
Amidation

>  <KI/BB_Nature>
Amine

>  <Comments>


>  <Salt>


>  <CR_Chiral_Form>
Achiral

>  <Prod_total_used>
86

>  <PSR (%)>
78

>  <Article>
2-pyrrolidin-1-ylacetic acid

>  <CAS>
37386-15-5

>  <Density>
1

>  <Prod_reagent_number>
C020

>  <Stereocenters>
0

>  <NB_Name reaction - KI/BB – Capping>
03-Amidation_Amine_Acid

$$$$
R-004459
Actelion Java MolfileCreator 2.0

  0  0  0  0  0  0              0 V3000
M  V30 BEGIN CTAB
M  V30 COUNTS 9 9 0 0 0
M  V30 BEGIN ATOM
M  V30 1 O 0.0 0.0 0.0 0
M  V30 2 C -0.0234 -1.4792 0.0 0
M  V30 3 O 1.2561 -2.1953 0.0 0
M  V30 4 C -1.35 -2.1953 0.0 0
M  V30 5 N -1.3735 -3.6746 0.0 0
M  V30 6 C -2.6767 -1.4205 0.0 0
M  V30 7 C -2.7001 -4.3907 0.0 0
M  V30 8 C -4.0033 -2.1366 0.0 0
M  V30 9 C -4.0267 -3.6159 0.0 0
M  V30 END ATOM
M  V30 BEGIN BOND
M  V30 1 2 1 2
M  V30 2 1 2 3
M  V30 3 1 2 4
M  V30 4 2 4 5
M  V30 5 1 4 6
M  V30 6 1 5 7
M  V30 7 2 6 8
M  V30 8 2 7 9
M  V30 9 1 8 9
M  V30 END BOND
M  V30 END CTAB
M  END
>  <Dotmatics_CR>
R-004459

>  <CR_Set>
Acid

>  <Category>
Carboxylic Acids Aromatic

>  <Reaction type>
Amidation

>  <KI/BB_Nature>
Amine

>  <Comments>


>  <Salt>


>  <CR_Chiral_Form>
Achiral

>  <Prod_total_used>
57

>  <PSR (%)>
82

>  <Article>
pyridine-2-carboxylic acid

>  <CAS>
98-98-6

>  <Density>
1

>  <Prod_reagent_number>


>  <Stereocenters>
0

>  <NB_Name reaction - KI/BB – Capping>
03-Amidation_Amine_Acid

$$$$
R-005803
Actelion Java MolfileCreator 2.0

  0  0  0  0  0  0              0 V3000
M  V30 BEGIN CTAB
M  V30 COUNTS 9 9 0 0 0
M  V30 BEGIN ATOM
M  V30 1 O 0.0 0.0 0.0 0
M  V30 2 C -0.7604 -1.2714 0.0 0
M  V30 3 O -0.0356 -2.5428 0.0 0
M  V30 4 C -2.2814 -1.2476 0.0 0
M  V30 5 N -3.1844 -2.4358 0.0 0
M  V30 6 C -3.1844 -0.0118 0.0 0
M  V30 7 C -4.6341 -1.9487 0.0 0
M  V30 8 C -2.7448 -3.838 0.0 0
M  V30 9 C -4.6341 -0.4515 0.0 0
M  V30 END ATOM
M  V30 BEGIN BOND
M  V30 1 2 1 2
M  V30 2 1 2 3
M  V30 3 1 2 4
M  V30 4 1 4 5
M  V30 5 2 4 6
M  V30 6 1 5 7
M  V30 7 1 5 8
M  V30 8 1 6 9
M  V30 9 2 7 9
M  V30 END BOND
M  V30 END CTAB
M  END
>  <Dotmatics_CR>
R-005803

>  <CR_Set>
Acid

>  <Category>
Carboxylic Acids Aromatic

>  <Reaction type>
Amidation

>  <KI/BB_Nature>
Amine

>  <Comments>


>  <Salt>


>  <CR_Chiral_Form>
Achiral

>  <Prod_total_used>
58

>  <PSR (%)>
86

>  <Article>
1-METHYLPYRROLE-2-CARBOXYLIC ACID

>  <CAS>
6973-60-0

>  <Density>
1

>  <Prod_reagent_number>
C021

>  <Stereocenters>
0

>  <NB_Name reaction - KI/BB – Capping>
03-Amidation_Amine_Acid

$$$$
R-004480
Actelion Java MolfileCreator 2.0

  0  0  0  0  0  0              0 V3000
M  V30 BEGIN CTAB
M  V30 COUNTS 9 9 0 0 0
M  V30 BEGIN ATOM
M  V30 1 O 0.0 0.0 0.0 0
M  V30 2 C -0.0243 -1.5336 0.0 0
M  V30 3 O 1.1562 -2.3369 0.0 0
M  V30 4 C -1.3266 -2.3004 0.0 0
M  V30 5 C -1.3266 -3.7853 0.0 0
M  V30 6 C -2.6655 -1.5579 0.0 0
M  V30 7 N -2.6412 -4.5156 0.0 0
M  V30 8 C -3.98 -2.3004 0.0 0
M  V30 9 C -3.98 -3.761 0.0 0
M  V30 END ATOM
M  V30 BEGIN BOND
M  V30 1 2 1 2
M  V30 2 1 2 3
M  V30 3 1 2 4
M  V30 4 2 4 5
M  V30 5 1 4 6
M  V30 6 1 5 7
M  V30 7 2 6 8
M  V30 8 2 7 9
M  V30 9 1 8 9
M  V30 END BOND
M  V30 END CTAB
M  END
>  <Dotmatics_CR>
R-004480

>  <CR_Set>
Acid

>  <Category>
Carboxylic Acids Aromatic

>  <Reaction type>
Amidation

>  <KI/BB_Nature>
Amine

>  <Comments>


>  <Salt>


>  <CR_Chiral_Form>
Achiral

>  <Prod_total_used>
64

>  <PSR (%)>
81

>  <Article>
pyridin-3-carboxylic acid

>  <CAS>
59-67-6

>  <Density>
1

>  <Prod_reagent_number>


>  <Stereocenters>
0

>  <NB_Name reaction - KI/BB – Capping>
03-Amidation_Amine_Acid

$$$$
R-005132
Actelion Java MolfileCreator 2.0

  0  0  0  0  0  0              0 V3000
M  V30 BEGIN CTAB
M  V30 COUNTS 9 9 0 0 0
M  V30 BEGIN ATOM
M  V30 1 O 0.0 0.0 0.0 0
M  V30 2 C -0.0118 -1.4925 0.0 0
M  V30 3 O -1.3267 -2.2388 0.0 0
M  V30 4 C 1.2793 -2.2388 0.0 0
M  V30 5 C 2.5705 -1.4688 0.0 0
M  V30 6 C 0.5212 -3.53 0.0 0
M  V30 7 C 2.0256 -3.53 0.0 0
M  V30 8 O 2.5587 0.0473 0.0 0
M  V30 9 N 3.8617 -2.2151 0.0 0
M  V30 END ATOM
M  V30 BEGIN BOND
M  V30 1 2 1 2
M  V30 2 1 2 3
M  V30 3 1 2 4
M  V30 4 1 4 5
M  V30 5 1 4 6
M  V30 6 1 4 7
M  V30 7 2 5 8
M  V30 8 1 5 9
M  V30 9 1 6 7
M  V30 END BOND
M  V30 END CTAB
M  END
>  <Dotmatics_CR>
R-005132

>  <CR_Set>
Acid

>  <Category>
Carboxylic Acids Non-Aromatic

>  <Reaction type>
Amidation

>  <KI/BB_Nature>
Amine

>  <Comments>


>  <Salt>


>  <CR_Chiral_Form>
Achiral

>  <Prod_total_used>
69

>  <PSR (%)>
83

>  <Article>
1-(aminocarbonyl)-cyclopropanecarboxylic acid

>  <CAS>
6914-74-5

>  <Density>
1

>  <Prod_reagent_number>


>  <Stereocenters>
0

>  <NB_Name reaction - KI/BB – Capping>
03-Amidation_Amine_Acid

$$$$
R-011408
Actelion Java MolfileCreator 2.0

  0  0  0  0  0  0              0 V3000
M  V30 BEGIN CTAB
M  V30 COUNTS 9 9 0 0 0
M  V30 BEGIN ATOM
M  V30 1 O 0.0 0.0 0.0 0
M  V30 2 C 0.2406 -1.2414 0.0 0
M  V30 3 O -0.76 -2.0901 0.0 0
M  V30 4 C 1.7608 -1.7101 0.0 0
M  V30 5 N 3.0529 -0.722 0.0 0
M  V30 6 C 2.2295 -3.2302 0.0 0
M  V30 7 C 4.345 -1.6594 0.0 0
M  V30 8 O 3.8256 -3.2049 0.0 0
M  V30 9 C 1.4441 -4.2563 0.0 0
M  V30 END ATOM
M  V30 BEGIN BOND
M  V30 1 2 1 2
M  V30 2 1 2 3
M  V30 3 1 2 4
M  V30 4 1 4 5
M  V30 5 2 4 6
M  V30 6 2 5 7
M  V30 7 1 6 8
M  V30 8 1 6 9
M  V30 9 1 7 8
M  V30 END BOND
M  V30 END CTAB
M  END
>  <Dotmatics_CR>
R-011408

>  <CR_Set>
Acid

>  <Category>
Carboxylic Acids Aromatic

>  <Reaction type>
Amidation

>  <KI/BB_Nature>
Amine

>  <Comments>


>  <Salt>


>  <CR_Chiral_Form>
Achiral

>  <Prod_total_used>
54

>  <PSR (%)>
96

>  <Article>
5-methyloxazole-4-carboxylic acid

>  <CAS>
103879-58-9

>  <Density>
1

>  <Prod_reagent_number>


>  <Stereocenters>
0

>  <NB_Name reaction - KI/BB – Capping>
03-Amidation_Amine_Acid

$$$$
R-000963
Actelion Java MolfileCreator 2.0

  0  0  0  0  0  0              0 V3000
M  V30 BEGIN CTAB
M  V30 COUNTS 9 9 0 0 0
M  V30 BEGIN ATOM
M  V30 1 O 0.0 0.0 0.0 0
M  V30 2 C -0.1773 -1.4776 0.0 0
M  V30 3 O -1.584 -2.0687 0.0 0
M  V30 4 C 1.0284 -2.3524 0.0 0
M  V30 5 C 2.447 -1.8677 0.0 0
M  V30 6 C 1.0048 -3.8419 0.0 0
M  V30 7 N 3.3217 -3.0735 0.0 0
M  V30 8 C 2.8843 -0.4019 0.0 0
M  V30 9 O 2.4233 -4.2792 0.0 0
M  V30 END ATOM
M  V30 BEGIN BOND
M  V30 1 2 1 2
M  V30 2 1 2 3
M  V30 3 1 2 4
M  V30 4 1 4 5
M  V30 5 2 4 6
M  V30 6 2 5 7
M  V30 7 1 5 8
M  V30 8 1 6 9
M  V30 9 1 7 9
M  V30 END BOND
M  V30 END CTAB
M  END
>  <Dotmatics_CR>
R-000963

>  <CR_Set>
Acid

>  <Category>
Carboxylic Acids Aromatic

>  <Reaction type>
Amidation

>  <KI/BB_Nature>
Amine

>  <Comments>


>  <Salt>


>  <CR_Chiral_Form>
Achiral

>  <Prod_total_used>
15

>  <PSR (%)>
80

>  <Article>
3-methylisoxazole-4-carboxylic acid

>  <CAS>
17153-20-7

>  <Density>
1

>  <Prod_reagent_number>


>  <Stereocenters>
0

>  <NB_Name reaction - KI/BB – Capping>
03-Amidation_Amine_Acid

$$$$
R-007130
Actelion Java MolfileCreator 2.0

  0  0  0  0  0  0              0 V3000
M  V30 BEGIN CTAB
M  V30 COUNTS 9 9 0 0 0
M  V30 BEGIN ATOM
M  V30 1 O 0.0 0.0 0.0 0
M  V30 2 C -0.0236 -1.4907 0.0 0
M  V30 3 O -1.3606 -2.2242 0.0 0
M  V30 4 C 1.2659 -2.2242 0.0 0
M  V30 5 O 2.4727 -1.3014 0.0 0
M  V30 6 C 1.7037 -3.644 0.0 0
M  V30 7 N 3.6795 -2.1769 0.0 0
M  V30 8 C 3.1944 -3.6203 0.0 0
M  V30 9 C 4.0699 -4.8271 0.0 0
M  V30 END ATOM
M  V30 BEGIN BOND
M  V30 1 2 1 2
M  V30 2 1 2 3
M  V30 3 1 2 4
M  V30 4 1 4 5
M  V30 5 2 4 6
M  V30 6 1 5 7
M  V30 7 1 6 8
M  V30 8 1 8 9
M  V30 9 2 7 8
M  V30 END BOND
M  V30 END CTAB
M  END
>  <Dotmatics_CR>
R-007130

>  <CR_Set>
Acid

>  <Category>
Carboxylic Acids Aromatic

>  <Reaction type>
Amidation

>  <KI/BB_Nature>
Amine

>  <Comments>


>  <Salt>


>  <CR_Chiral_Form>
Achiral

>  <Prod_total_used>
93

>  <PSR (%)>
83

>  <Article>
3-methylisoxazole-5-carboxylic acid

>  <CAS>
4857-42-5

>  <Density>
1

>  <Prod_reagent_number>
C022

>  <Stereocenters>
0

>  <NB_Name reaction - KI/BB – Capping>
03-Amidation_Amine_Acid

$$$$
R-011006
Actelion Java MolfileCreator 2.0

  0  0  0  0  0  0              0 V3000
M  V30 BEGIN CTAB
M  V30 COUNTS 9 9 0 0 0
M  V30 BEGIN ATOM
M  V30 1 O 0.0 0.0 0.0 0
M  V30 2 C 0.4932 1.1888 0.0 0
M  V30 3 O 1.7327 1.3406 0.0 0
M  V30 4 C -0.4553 2.5042 0.0 0
M  V30 5 O -2.0742 2.5295 0.0 0
M  V30 6 C 0.0126 4.0472 0.0 0
M  V30 7 C -2.5927 4.0725 0.0 0
M  V30 8 N -1.3027 5.0085 0.0 0
M  V30 9 C 1.2015 4.4646 0.0 0
M  V30 END ATOM
M  V30 BEGIN BOND
M  V30 1 2 1 2
M  V30 2 1 2 3
M  V30 3 1 2 4
M  V30 4 1 4 5
M  V30 5 2 4 6
M  V30 6 1 5 7
M  V30 7 1 6 8
M  V30 8 1 6 9
M  V30 9 2 7 8
M  V30 END BOND
M  V30 END CTAB
M  END
>  <Dotmatics_CR>
R-011006

>  <CR_Set>
Acid

>  <Category>
Carboxylic Acids Aromatic

>  <Reaction type>
Amidation

>  <KI/BB_Nature>
Amine

>  <Comments>


>  <Salt>


>  <CR_Chiral_Form>
Achiral

>  <Prod_total_used>
33

>  <PSR (%)>
85

>  <Article>
4-methyloxazole-5-carboxylic acid

>  <CAS>
2510-32-9

>  <Density>
1

>  <Prod_reagent_number>


>  <Stereocenters>
0

>  <NB_Name reaction - KI/BB – Capping>
03-Amidation_Amine_Acid

$$$$
R-011939
Actelion Java MolfileCreator 2.0

  0  0  0  0  0  0              0 V3000
M  V30 BEGIN CTAB
M  V30 COUNTS 9 9 0 0 0
M  V30 BEGIN ATOM
M  V30 1 O 0.0 0.0 0.0 0
M  V30 2 C -0.7606 1.0182 0.0 0
M  V30 3 O -2.0119 0.9201 0.0 0
M  V30 4 C -0.1472 2.4536 0.0 0
M  V30 5 N -1.0673 3.7295 0.0 0
M  V30 6 N -2.6376 3.754 0.0 0
M  V30 7 C -0.6134 5.2262 0.0 0
M  V30 8 C -3.1406 5.2507 0.0 0
M  V30 9 N -1.8893 6.1586 0.0 0
M  V30 END ATOM
M  V30 BEGIN BOND
M  V30 1 2 1 2
M  V30 2 1 2 3
M  V30 3 1 2 4
M  V30 4 1 4 5
M  V30 5 1 5 6
M  V30 6 1 5 7
M  V30 7 2 6 8
M  V30 8 2 7 9
M  V30 9 1 8 9
M  V30 END BOND
M  V30 END CTAB
M  END
>  <Dotmatics_CR>
R-011939

>  <CR_Set>
Acid

>  <Category>
Carboxylic Acids Non-Aromatic

>  <Reaction type>
Amidation

>  <KI/BB_Nature>
Amine

>  <Comments>


>  <Salt>


>  <CR_Chiral_Form>
Achiral

>  <Prod_total_used>
57

>  <PSR (%)>
70

>  <Article>
2-(1,2,4-triazol-1-yl)acetic acid

>  <CAS>
28711-29-7

>  <Density>
1

>  <Prod_reagent_number>


>  <Stereocenters>
0

>  <NB_Name reaction - KI/BB – Capping>
03-Amidation_Amine_Acid

$$$$
R-000905
Actelion Java MolfileCreator 2.0

  0  0  0  0  0  0              0 V3000
M  V30 BEGIN CTAB
M  V30 COUNTS 9 9 0 0 0
M  V30 BEGIN ATOM
M  V30 1 O 0.0 0.0 0.0 0
M  V30 2 C -0.4816 1.4331 0.0 0
M  V30 3 O 0.4816 2.5491 0.0 0
M  V30 4 C -1.95 1.762 0.0 0
M  V30 5 N -2.4316 3.1952 0.0 0
M  V30 6 N -3.8648 3.6768 0.0 0
M  V30 7 N -1.5858 4.4169 0.0 0
M  V30 8 C -3.8883 5.1805 0.0 0
M  V30 9 C -2.4786 5.6386 0.0 0
M  V30 END ATOM
M  V30 BEGIN BOND
M  V30 1 2 1 2
M  V30 2 1 2 3
M  V30 3 1 2 4
M  V30 4 1 4 5
M  V30 5 1 5 6
M  V30 6 1 5 7
M  V30 7 2 6 8
M  V30 8 2 7 9
M  V30 9 1 8 9
M  V30 END BOND
M  V30 END CTAB
M  END
>  <Dotmatics_CR>
R-000905

>  <CR_Set>
Acid

>  <Category>
Carboxylic Acids Non-Aromatic

>  <Reaction type>
Amidation

>  <KI/BB_Nature>
Amine

>  <Comments>


>  <Salt>


>  <CR_Chiral_Form>
Achiral

>  <Prod_total_used>
36

>  <PSR (%)>
92

>  <Article>
2H-1,2,3-Triazole-2-acetic acid

>  <CAS>
4320-91-6

>  <Density>
1

>  <Prod_reagent_number>
C150

>  <Stereocenters>
0

>  <NB_Name reaction - KI/BB – Capping>
03-Amidation_Amine_Acid

$$$$
R-004910
Actelion Java MolfileCreator 2.0

  0  0  0  0  0  0              0 V3000
M  V30 BEGIN CTAB
M  V30 COUNTS 10 10 0 0 0
M  V30 BEGIN ATOM
M  V30 1 O 0.0 0.0 0.0 0
M  V30 2 C 1.1833 -1.0295 0.0 0
M  V30 3 O 2.5915 -0.6745 0.0 0
M  V30 4 C 0.8993 -2.5205 0.0 0
M  V30 5 C 2.059 -3.4672 0.0 0
M  V30 6 C 3.4436 -2.9229 0.0 0
M  V30 7 C 1.7987 -4.9346 0.0 0
M  V30 8 C 4.6033 -3.8459 0.0 0
M  V30 9 C 2.9229 -5.8813 0.0 0
M  V30 10 C 4.3429 -5.3369 0.0 0
M  V30 END ATOM
M  V30 BEGIN BOND
M  V30 1 2 1 2
M  V30 2 1 2 3
M  V30 3 1 2 4
M  V30 4 1 4 5
M  V30 5 2 5 6
M  V30 6 1 5 7
M  V30 7 1 6 8
M  V30 8 2 7 9
M  V30 9 2 8 10
M  V30 10 1 9 10
M  V30 END BOND
M  V30 END CTAB
M  END
>  <Dotmatics_CR>
R-004910

>  <CR_Set>
Acid

>  <Category>
Carboxylic Acids Non-Aromatic

>  <Reaction type>
Amidation

>  <KI/BB_Nature>
Amine

>  <Comments>


>  <Salt>


>  <CR_Chiral_Form>
Achiral

>  <Prod_total_used>
23

>  <PSR (%)>
96

>  <Article>
2-phenylacetic acid

>  <CAS>
103-82-2

>  <Density>
1

>  <Prod_reagent_number>


>  <Stereocenters>
0

>  <NB_Name reaction - KI/BB – Capping>
03-Amidation_Amine_Acid

$$$$
R-008716
Actelion Java MolfileCreator 2.0

  0  0  0  0  0  0              0 V3000
M  V30 BEGIN CTAB
M  V30 COUNTS 10 10 0 0 0
M  V30 BEGIN ATOM
M  V30 1 O 0.0 0.0 0.0 0
M  V30 2 C 1.2795 0.7773 0.0 0
M  V30 3 O 1.2556 2.308 0.0 0
M  V30 4 C 2.5591 0.0478 0.0 0
M  V30 5 C 3.8387 0.8251 0.0 0
M  V30 6 C 5.1182 0.0956 0.0 0
M  V30 7 C 3.8147 2.3558 0.0 0
M  V30 8 C 6.3978 0.8729 0.0 0
M  V30 9 C 5.0943 3.1331 0.0 0
M  V30 10 C 6.3739 2.4036 0.0 0
M  V30 END ATOM
M  V30 BEGIN BOND
M  V30 1 2 1 2
M  V30 2 1 2 3
M  V30 3 1 2 4
M  V30 4 1 4 5
M  V30 5 2 5 6
M  V30 6 1 5 7
M  V30 7 1 6 8
M  V30 8 1 7 9
M  V30 9 1 8 10
M  V30 10 1 9 10
M  V30 END BOND
M  V30 END CTAB
M  END
>  <Dotmatics_CR>
R-008716

>  <CR_Set>
Acid

>  <Category>
Carboxylic Acids Non-Aromatic

>  <Reaction type>
Amidation

>  <KI/BB_Nature>
Amine

>  <Comments>


>  <Salt>


>  <CR_Chiral_Form>
Achiral

>  <Prod_total_used>
118

>  <PSR (%)>
81

>  <Article>
1-Cyclohexenylacetic acid

>  <CAS>
18294-87-6

>  <Density>
1.079

>  <Prod_reagent_number>
C155

>  <Stereocenters>
0

>  <NB_Name reaction - KI/BB – Capping>
03-Amidation_Amine_Acid

$$$$
R-001424
Actelion Java MolfileCreator 2.0

  0  0  0  0  0  0              0 V3000
M  V30 BEGIN CTAB
M  V30 COUNTS 10 10 0 0 0
M  V30 BEGIN ATOM
M  V30 1 O 0.0 0.0 0.0 0
M  V30 2 C 1.4805 -0.4817 0.0 0
M  V30 3 O 2.632 0.4112 0.0 0
M  V30 4 C 1.786 -1.9623 0.0 0
M  V30 5 C 3.2195 -2.397 0.0 0
M  V30 6 C 4.2418 -1.3512 0.0 0
M  V30 7 C 3.5956 -3.8776 0.0 0
M  V30 8 C 5.7224 -1.7273 0.0 0
M  V30 9 C 5.0056 -4.2536 0.0 0
M  V30 10 C 6.0749 -3.1373 0.0 0
M  V30 END ATOM
M  V30 BEGIN BOND
M  V30 1 2 1 2
M  V30 2 1 2 3
M  V30 3 1 2 4
M  V30 4 1 4 5
M  V30 5 1 5 6
M  V30 6 1 5 7
M  V30 7 1 6 8
M  V30 8 1 7 9
M  V30 9 1 8 10
M  V30 10 1 9 10
M  V30 END BOND
M  V30 END CTAB
M  END
>  <Dotmatics_CR>
R-001424

>  <CR_Set>
Acid

>  <Category>
Carboxylic Acids Non-Aromatic

>  <Reaction type>
Amidation

>  <KI/BB_Nature>
Amine

>  <Comments>


>  <Salt>


>  <CR_Chiral_Form>
Achiral

>  <Prod_total_used>
51

>  <PSR (%)>
73

>  <Article>
2-cyclohexylacetic acid

>  <CAS>
5292-21-7

>  <Density>
1

>  <Prod_reagent_number>
C023

>  <Stereocenters>
0

>  <NB_Name reaction - KI/BB – Capping>
03-Amidation_Amine_Acid

$$$$
R-001428
Actelion Java MolfileCreator 2.0

  0  0  0  0  0  0              0 V3000
M  V30 BEGIN CTAB
M  V30 COUNTS 10 10 0 0 0
M  V30 BEGIN ATOM
M  V30 1 O 0.0 0.0 0.0 0
M  V30 2 C 0.6092 -1.3708 0.0 0
M  V30 3 O 2.0855 -1.4763 0.0 0
M  V30 4 C -0.3046 -2.5893 0.0 0
M  V30 5 C -1.8043 -2.3081 0.0 0
M  V30 6 C 0.3983 -3.8665 0.0 0
M  V30 7 C -2.9643 -3.2806 0.0 0
M  V30 8 C -0.2109 -5.2373 0.0 0
M  V30 9 C -2.9057 -4.7569 0.0 0
M  V30 10 C -1.6872 -5.624 0.0 0
M  V30 END ATOM
M  V30 BEGIN BOND
M  V30 1 2 1 2
M  V30 2 1 2 3
M  V30 3 1 2 4
M  V30 4 1 4 5
M  V30 5 1 4 6
M  V30 6 1 5 7
M  V30 7 1 6 8
M  V30 8 1 7 9
M  V30 9 1 8 10
M  V30 10 1 9 10
M  V30 END BOND
M  V30 END CTAB
M  END
>  <Dotmatics_CR>
R-001428

>  <CR_Set>
Acid

>  <Category>
Carboxylic Acids Non-Aromatic

>  <Reaction type>
Amidation

>  <KI/BB_Nature>
Amine

>  <Comments>


>  <Salt>


>  <CR_Chiral_Form>
Achiral

>  <Prod_total_used>
1

>  <PSR (%)>
100

>  <Article>
CYCLOHEPTANECARBOXYLIC ACID

>  <CAS>
1460-16-8

>  <Density>
1.035

>  <Prod_reagent_number>


>  <Stereocenters>
0

>  <NB_Name reaction - KI/BB – Capping>
03-Amidation_Amine_Acid

$$$$
R-004914
Actelion Java MolfileCreator 2.0

  0  0  0  0  0  0              0 V3000
M  V30 BEGIN CTAB
M  V30 COUNTS 10 10 0 0 0
M  V30 BEGIN ATOM
M  V30 1 O 0.0 0.0 0.0 0
M  V30 2 C 0.6322 -1.3495 0.0 0
M  V30 3 O 2.006 -1.5319 0.0 0
M  V30 4 C -0.1945 -2.5653 0.0 0
M  V30 5 C -1.7264 -2.4315 0.0 0
M  V30 6 C 0.4863 -3.8905 0.0 0
M  V30 7 C -2.6018 -3.6717 0.0 0
M  V30 8 C -0.4133 -5.1306 0.0 0
M  V30 9 C -1.9452 -4.9969 0.0 0
M  V30 10 C -4.158 -3.5744 0.0 0
M  V30 END ATOM
M  V30 BEGIN BOND
M  V30 1 2 1 2
M  V30 2 1 2 3
M  V30 3 1 2 4
M  V30 4 2 4 5
M  V30 5 1 4 6
M  V30 6 1 5 7
M  V30 7 2 6 8
M  V30 8 2 7 9
M  V30 9 1 7 10
M  V30 10 1 8 9
M  V30 END BOND
M  V30 END CTAB
M  END
>  <Dotmatics_CR>
R-004914

>  <CR_Set>
Acid

>  <Category>
Carboxylic Acids Aromatic

>  <Reaction type>
Amidation

>  <KI/BB_Nature>
Amine

>  <Comments>


>  <Salt>


>  <CR_Chiral_Form>
Achiral

>  <Prod_total_used>
1

>  <PSR (%)>
100

>  <Article>
3-methylbenzoic acid

>  <CAS>
99-04-7

>  <Density>
1

>  <Prod_reagent_number>


>  <Stereocenters>
0

>  <NB_Name reaction - KI/BB – Capping>
03-Amidation_Amine_Acid

$$$$
R-004932
Actelion Java MolfileCreator 2.0

  0  0  0  0  0  0              0 V3000
M  V30 BEGIN CTAB
M  V30 COUNTS 10 10 0 0 0
M  V30 BEGIN ATOM
M  V30 1 O 0.0 0.0 0.0 0
M  V30 2 C 0.1791 -1.505 0.0 0
M  V30 3 O 1.4572 -2.1261 0.0 0
M  V30 4 C -1.0152 -2.4247 0.0 0
M  V30 5 C -0.8122 -3.9058 0.0 0
M  V30 6 C -2.4367 -1.8394 0.0 0
M  V30 7 C -2.0305 -4.8136 0.0 0
M  V30 8 C 0.5613 -4.4195 0.0 0
M  V30 9 C -3.655 -2.7831 0.0 0
M  V30 10 C -3.452 -4.2284 0.0 0
M  V30 END ATOM
M  V30 BEGIN BOND
M  V30 1 2 1 2
M  V30 2 1 2 3
M  V30 3 1 2 4
M  V30 4 2 4 5
M  V30 5 1 4 6
M  V30 6 1 5 7
M  V30 7 1 5 8
M  V30 8 2 6 9
M  V30 9 2 7 10
M  V30 10 1 9 10
M  V30 END BOND
M  V30 END CTAB
M  END
>  <Dotmatics_CR>
R-004932

>  <CR_Set>
Acid

>  <Category>
Carboxylic Acids Aromatic

>  <Reaction type>
Amidation

>  <KI/BB_Nature>
Amine

>  <Comments>


>  <Salt>


>  <CR_Chiral_Form>
Achiral

>  <Prod_total_used>
49

>  <PSR (%)>
78

>  <Article>
2-methylbenzoic acid

>  <CAS>
118-90-1

>  <Density>
1

>  <Prod_reagent_number>
C024

>  <Stereocenters>
0

>  <NB_Name reaction - KI/BB – Capping>
03-Amidation_Amine_Acid

$$$$
R-008731
Actelion Java MolfileCreator 2.0

  0  0  0  0  0  0              0 V3000
M  V30 BEGIN CTAB
M  V30 COUNTS 10 10 0 0 0
M  V30 BEGIN ATOM
M  V30 1 O 0.0 0.0 0.0 0
M  V30 2 C -0.0238 -1.4793 0.0 0
M  V30 3 O 1.2526 -2.207 0.0 0
M  V30 4 C -1.348 -2.207 0.0 0
M  V30 5 C -2.8751 -2.1831 0.0 0
M  V30 6 C -2.1116 -3.4835 0.0 0
M  V30 7 C -4.1993 -1.4077 0.0 0
M  V30 8 C -2.5052 -0.7038 0.0 0
M  V30 9 C -2.1354 -4.9628 0.0 0
M  V30 10 C -0.68 -3.8533 0.0 0
M  V30 END ATOM
M  V30 BEGIN BOND
M  V30 1 2 1 2
M  V30 2 1 2 3
M  V30 3 1 2 4
M  V30 4 1 4 5
M  V30 5 1 4 6
M  V30 6 1 5 7
M  V30 7 1 5 8
M  V30 8 1 6 9
M  V30 9 1 6 10
M  V30 10 1 5 6
M  V30 END BOND
M  V30 END CTAB
M  END
>  <Dotmatics_CR>
R-008731

>  <CR_Set>
Acid

>  <Category>
Carboxylic Acids Non-Aromatic

>  <Reaction type>
Amidation

>  <KI/BB_Nature>
Amine

>  <Comments>


>  <Salt>


>  <CR_Chiral_Form>
Achiral

>  <Prod_total_used>
1

>  <PSR (%)>
100

>  <Article>
2,2,3,3-Tetramethylcyclopropanecarboxylic acid

>  <CAS>
15641-58-4

>  <Density>


>  <Prod_reagent_number>


>  <Stereocenters>
0

>  <NB_Name reaction - KI/BB – Capping>
03-Amidation_Amine_Acid

$$$$
R-008817
Actelion Java MolfileCreator 2.0

  0  0  0  0  0  0              0 V3000
M  V30 BEGIN CTAB
M  V30 COUNTS 10 10 0 0 0
M  V30 BEGIN ATOM
M  V30 1 O 0.0 0.0 0.0 0
M  V30 2 C 1.2895 -0.7216 0.0 0
M  V30 3 O 2.579 0.0591 0.0 0
M  V30 4 C 1.2658 -2.2123 0.0 0
M  V30 5 C -0.0709 -2.934 0.0 0
M  V30 6 C 2.5554 -2.934 0.0 0
M  V30 7 C -0.0709 -1.4315 0.0 0
M  V30 8 C -0.0946 -4.4246 0.0 0
M  V30 9 C 2.5317 -4.4246 0.0 0
M  V30 10 C 1.1949 -5.1463 0.0 0
M  V30 END ATOM
M  V30 BEGIN BOND
M  V30 1 2 1 2
M  V30 2 1 2 3
M  V30 3 1 2 4
M  V30 4 1 4 5
M  V30 5 1 4 6
M  V30 6 1 4 7
M  V30 7 1 5 8
M  V30 8 1 6 9
M  V30 9 1 8 10
M  V30 10 1 9 10
M  V30 END BOND
M  V30 END CTAB
M  END
>  <Dotmatics_CR>
R-008817

>  <CR_Set>
Acid

>  <Category>
Carboxylic Acids Non-Aromatic

>  <Reaction type>
Amidation

>  <KI/BB_Nature>
Amine

>  <Comments>


>  <Salt>


>  <CR_Chiral_Form>
Achiral

>  <Prod_total_used>
100

>  <PSR (%)>
81

>  <Article>
1-methylcyclohexanecarboxylic acid

>  <CAS>
1123-25-7

>  <Density>
1

>  <Prod_reagent_number>
C025

>  <Stereocenters>
0

>  <NB_Name reaction - KI/BB – Capping>
03-Amidation_Amine_Acid

$$$$
R-011180
Actelion Java MolfileCreator 2.0

  0  0  0  0  0  0              0 V3000
M  V30 BEGIN CTAB
M  V30 COUNTS 10 10 0 0 0
M  V30 BEGIN ATOM
M  V30 1 S 0.0 0.0 0.0 0
M  V30 2 C 0.8643 -1.2004 0.0 0
M  V30 3 C -1.4645 -0.4441 0.0 0
M  V30 4 C -0.048 -2.4008 0.0 0
M  V30 5 C 2.3528 -1.1764 0.0 0
M  V30 6 C -1.4885 -1.9326 0.0 0
M  V30 7 C 3.0851 -2.4608 0.0 0
M  V30 8 C 2.3168 -3.7453 0.0 0
M  V30 9 O 3.049 -5.0298 0.0 0
M  V30 10 O 0.7802 -3.7213 0.0 0
M  V30 END ATOM
M  V30 BEGIN BOND
M  V30 1 1 1 2
M  V30 2 1 1 3
M  V30 3 2 2 4
M  V30 4 1 2 5
M  V30 5 2 3 6
M  V30 6 1 5 7
M  V30 7 1 7 8
M  V30 8 2 8 9
M  V30 9 1 8 10
M  V30 10 1 4 6
M  V30 END BOND
M  V30 END CTAB
M  END
>  <Dotmatics_CR>
R-011180

>  <CR_Set>
Acid

>  <Category>
Carboxylic Acids Non-Aromatic

>  <Reaction type>
Amidation

>  <KI/BB_Nature>
Amine

>  <Comments>


>  <Salt>


>  <CR_Chiral_Form>
Achiral

>  <Prod_total_used>
4

>  <PSR (%)>
100

>  <Article>
3-(2-Thienyl)propanoic acid

>  <CAS>
5928-51-8

>  <Density>
1

>  <Prod_reagent_number>


>  <Stereocenters>
0

>  <NB_Name reaction - KI/BB – Capping>
03-Amidation_Amine_Acid

$$$$
R-004852
Actelion Java MolfileCreator 2.0

  0  0  0  0  0  0              0 V3000
M  V30 BEGIN CTAB
M  V30 COUNTS 10 10 0 0 0
M  V30 BEGIN ATOM
M  V30 1 Cl 0.0 0.0 0.0 0
M  V30 2 C 0.2029 1.5282 0.0 0
M  V30 3 C 1.5759 2.1132 0.0 0
M  V30 4 C -0.9909 2.4952 0.0 0
M  V30 5 C 1.7789 3.6175 0.0 0
M  V30 6 C -0.7879 3.9996 0.0 0
M  V30 7 C 3.1519 4.1548 0.0 0
M  V30 8 C 0.585 4.6084 0.0 0
M  V30 9 O 3.4384 5.6591 0.0 0
M  V30 10 O 4.0712 3.1877 0.0 0
M  V30 END ATOM
M  V30 BEGIN BOND
M  V30 1 1 1 2
M  V30 2 2 2 3
M  V30 3 1 2 4
M  V30 4 1 3 5
M  V30 5 2 4 6
M  V30 6 1 5 7
M  V30 7 2 5 8
M  V30 8 2 7 9
M  V30 9 1 7 10
M  V30 10 1 6 8
M  V30 END BOND
M  V30 END CTAB
M  END
>  <Dotmatics_CR>
R-004852

>  <CR_Set>
Acid

>  <Category>
Carboxylic Acids Aromatic

>  <Reaction type>
Amidation

>  <KI/BB_Nature>
Amine

>  <Comments>


>  <Salt>


>  <CR_Chiral_Form>
Achiral

>  <Prod_total_used>
5

>  <PSR (%)>
80

>  <Article>
3-CHLOROBENZOIC ACID

>  <CAS>
535-80-8

>  <Density>
1

>  <Prod_reagent_number>
C026

>  <Stereocenters>
0

>  <NB_Name reaction - KI/BB – Capping>
03-Amidation_Amine_Acid

$$$$
R-003589
Actelion Java MolfileCreator 2.0

  0  0  0  0  0  0              0 V3000
M  V30 BEGIN CTAB
M  V30 COUNTS 10 10 0 0 0
M  V30 BEGIN ATOM
M  V30 1 Cl 0.0 0.0 0.0 0
M  V30 2 C 1.2795 0.7773 0.0 0
M  V30 3 C 2.5591 0.0478 0.0 0
M  V30 4 C 1.2556 2.308 0.0 0
M  V30 5 C 3.8387 0.8251 0.0 0
M  V30 6 C 2.5352 3.0853 0.0 0
M  V30 7 C 3.8147 2.3558 0.0 0
M  V30 8 C 5.0943 3.1331 0.0 0
M  V30 9 O 5.0704 4.6638 0.0 0
M  V30 10 O 6.3739 2.4036 0.0 0
M  V30 END ATOM
M  V30 BEGIN BOND
M  V30 1 1 1 2
M  V30 2 2 2 3
M  V30 3 1 2 4
M  V30 4 1 3 5
M  V30 5 2 4 6
M  V30 6 2 5 7
M  V30 7 1 7 8
M  V30 8 2 8 9
M  V30 9 1 8 10
M  V30 10 1 6 7
M  V30 END BOND
M  V30 END CTAB
M  END
>  <Dotmatics_CR>
R-003589

>  <CR_Set>
Acid

>  <Category>
Carboxylic Acids Aromatic

>  <Reaction type>
Amidation

>  <KI/BB_Nature>
Amine

>  <Comments>


>  <Salt>


>  <CR_Chiral_Form>
Achiral

>  <Prod_total_used>
1

>  <PSR (%)>
100

>  <Article>
4-CHLOROBENZOIC ACID

>  <CAS>
74-11-3

>  <Density>
1

>  <Prod_reagent_number>


>  <Stereocenters>
0

>  <NB_Name reaction - KI/BB – Capping>
03-Amidation_Amine_Acid

$$$$
R-004882
Actelion Java MolfileCreator 2.0

  0  0  0  0  0  0              0 V3000
M  V30 BEGIN CTAB
M  V30 COUNTS 10 10 0 0 0
M  V30 BEGIN ATOM
M  V30 1 F 0.0 0.0 0.0 0
M  V30 2 C -0.0237 -1.4952 0.0 0
M  V30 3 C -1.3528 -2.2666 0.0 0
M  V30 4 C 1.2579 -2.2191 0.0 0
M  V30 5 C -1.3528 -3.7619 0.0 0
M  V30 6 C 1.2579 -3.6907 0.0 0
M  V30 7 C -0.0712 -4.5332 0.0 0
M  V30 8 C -0.0949 -6.0048 0.0 0
M  V30 9 O 1.2223 -6.7406 0.0 0
M  V30 10 O -1.4596 -6.5744 0.0 0
M  V30 END ATOM
M  V30 BEGIN BOND
M  V30 1 1 1 2
M  V30 2 2 2 3
M  V30 3 1 2 4
M  V30 4 1 3 5
M  V30 5 2 4 6
M  V30 6 2 5 7
M  V30 7 1 7 8
M  V30 8 2 8 9
M  V30 9 1 8 10
M  V30 10 1 6 7
M  V30 END BOND
M  V30 END CTAB
M  END
>  <Dotmatics_CR>
R-004882

>  <CR_Set>
Acid

>  <Category>
Carboxylic Acids Aromatic

>  <Reaction type>
Amidation

>  <KI/BB_Nature>
Amine

>  <Comments>


>  <Salt>


>  <CR_Chiral_Form>
Achiral

>  <Prod_total_used>
29

>  <PSR (%)>
76

>  <Article>
4-fluorobenzoic acid

>  <CAS>
456-22-4

>  <Density>
1

>  <Prod_reagent_number>


>  <Stereocenters>
0

>  <NB_Name reaction - KI/BB – Capping>
03-Amidation_Amine_Acid

$$$$
R-001996
Actelion Java MolfileCreator 2.0

  0  0  0  0  0  0              0 V3000
M  V30 BEGIN CTAB
M  V30 COUNTS 10 10 0 0 0
M  V30 BEGIN ATOM
M  V30 1 Cl 0.0 0.0 0.0 0
M  V30 2 C 1.3242 -0.7396 0.0 0
M  V30 3 C 2.6127 0.0357 0.0 0
M  V30 4 C 1.3004 -2.219 0.0 0
M  V30 5 C 2.6246 1.5628 0.0 0
M  V30 6 C 3.9012 -0.7038 0.0 0
M  V30 7 C 2.5888 -2.9706 0.0 0
M  V30 8 O 1.3242 2.3383 0.0 0
M  V30 9 O 3.9131 2.3144 0.0 0
M  V30 10 C 3.8773 -2.1832 0.0 0
M  V30 END ATOM
M  V30 BEGIN BOND
M  V30 1 1 1 2
M  V30 2 2 2 3
M  V30 3 1 2 4
M  V30 4 1 3 5
M  V30 5 1 3 6
M  V30 6 2 4 7
M  V30 7 2 5 8
M  V30 8 1 5 9
M  V30 9 2 6 10
M  V30 10 1 7 10
M  V30 END BOND
M  V30 END CTAB
M  END
>  <Dotmatics_CR>
R-001996

>  <CR_Set>
Acid

>  <Category>
Carboxylic Acids Aromatic

>  <Reaction type>
Amidation

>  <KI/BB_Nature>
Amine

>  <Comments>


>  <Salt>


>  <CR_Chiral_Form>
Achiral

>  <Prod_total_used>
9

>  <PSR (%)>
78

>  <Article>
2-CHLORO BENZOIC ACID

>  <CAS>
118-91-2

>  <Density>
1

>  <Prod_reagent_number>


>  <Stereocenters>
0

>  <NB_Name reaction - KI/BB – Capping>
03-Amidation_Amine_Acid

$$$$
R-003313
Actelion Java MolfileCreator 2.0

  0  0  0  0  0  0              0 V3000
M  V30 BEGIN CTAB
M  V30 COUNTS 10 10 0 0 0
M  V30 BEGIN ATOM
M  V30 1 F 0.0 0.0 0.0 0
M  V30 2 C -1.1765 -0.6655 0.0 0
M  V30 3 C -2.5076 0.1307 0.0 0
M  V30 4 C -1.2003 -2.1629 0.0 0
M  V30 5 C -2.5314 1.5806 0.0 0
M  V30 6 C -3.8387 -0.6061 0.0 0
M  V30 7 C -2.5314 -2.8879 0.0 0
M  V30 8 O -1.2359 2.365 0.0 0
M  V30 9 O -3.8743 2.365 0.0 0
M  V30 10 C -3.8624 -2.1035 0.0 0
M  V30 END ATOM
M  V30 BEGIN BOND
M  V30 1 1 1 2
M  V30 2 2 2 3
M  V30 3 1 2 4
M  V30 4 1 3 5
M  V30 5 1 3 6
M  V30 6 2 4 7
M  V30 7 2 5 8
M  V30 8 1 5 9
M  V30 9 2 6 10
M  V30 10 1 7 10
M  V30 END BOND
M  V30 END CTAB
M  END
>  <Dotmatics_CR>
R-003313

>  <CR_Set>
Acid

>  <Category>
Carboxylic Acids Aromatic

>  <Reaction type>
Amidation

>  <KI/BB_Nature>
Amine

>  <Comments>


>  <Salt>


>  <CR_Chiral_Form>
Achiral

>  <Prod_total_used>
11

>  <PSR (%)>
82

>  <Article>
2-fluorobenzoic acid

>  <CAS>
445-29-4

>  <Density>
1

>  <Prod_reagent_number>


>  <Stereocenters>
0

>  <NB_Name reaction - KI/BB – Capping>
03-Amidation_Amine_Acid

$$$$
R-010356
Actelion Java MolfileCreator 2.0

  0  0  0  0  0  0              0 V3000
M  V30 BEGIN CTAB
M  V30 COUNTS 10 10 0 0 0
M  V30 BEGIN ATOM
M  V30 1 F 0.0 0.0 0.0 0
M  V30 2 C 1.2816 -0.7426 0.0 0
M  V30 3 F 1.2577 0.7905 0.0 0
M  V30 4 F -0.0479 -1.4733 0.0 0
M  V30 5 C 2.5633 -1.4733 0.0 0
M  V30 6 C 3.845 -0.6947 0.0 0
M  V30 7 C 1.7847 -2.755 0.0 0
M  V30 8 C 3.294 -2.755 0.0 0
M  V30 9 O 3.8211 0.8384 0.0 0
M  V30 10 O 5.1267 -1.4254 0.0 0
M  V30 END ATOM
M  V30 BEGIN BOND
M  V30 1 1 1 2
M  V30 2 1 2 3
M  V30 3 1 2 4
M  V30 4 1 2 5
M  V30 5 1 5 6
M  V30 6 1 5 7
M  V30 7 1 5 8
M  V30 8 2 6 9
M  V30 9 1 6 10
M  V30 10 1 7 8
M  V30 END BOND
M  V30 END CTAB
M  END
>  <Dotmatics_CR>
R-010356

>  <CR_Set>
Acid

>  <Category>
Carboxylic Acids Non-Aromatic

>  <Reaction type>
Amidation

>  <KI/BB_Nature>
Amine

>  <Comments>


>  <Salt>


>  <CR_Chiral_Form>
Achiral

>  <Prod_total_used>
40

>  <PSR (%)>
93

>  <Article>
1-(Trifluoromethyl)cyclopropane-1-carboxylic acid

>  <CAS>
277756-46-4

>  <Density>
1

>  <Prod_reagent_number>
C027

>  <Stereocenters>
0

>  <NB_Name reaction - KI/BB – Capping>
03-Amidation_Amine_Acid

$$$$
R-005116
Actelion Java MolfileCreator 2.0

  0  0  0  0  0  0              0 V3000
M  V30 BEGIN CTAB
M  V30 COUNTS 10 10 0 0 0
M  V30 BEGIN ATOM
M  V30 1 O 0.0 0.0 0.0 0
M  V30 2 C -1.1536 -0.9514 0.0 0
M  V30 3 O -0.8801 -2.4024 0.0 0
M  V30 4 C -2.6046 -0.44 0.0 0
M  V30 5 O -3.8177 -1.2487 0.0 0
M  V30 6 C -3.0684 0.9871 0.0 0
M  V30 7 C -5.0308 -0.3567 0.0 0
M  V30 8 C -4.5908 1.0109 0.0 0
M  V30 9 C -6.4937 -0.7849 0.0 0
M  V30 10 C -5.4947 2.2597 0.0 0
M  V30 END ATOM
M  V30 BEGIN BOND
M  V30 1 2 1 2
M  V30 2 1 2 3
M  V30 3 1 2 4
M  V30 4 1 4 5
M  V30 5 2 4 6
M  V30 6 1 5 7
M  V30 7 1 6 8
M  V30 8 1 7 9
M  V30 9 1 8 10
M  V30 10 2 7 8
M  V30 END BOND
M  V30 END CTAB
M  END
>  <Dotmatics_CR>
R-005116

>  <CR_Set>
Acid

>  <Category>
Carboxylic Acids Aromatic

>  <Reaction type>
Amidation

>  <KI/BB_Nature>
Amine

>  <Comments>


>  <Salt>


>  <CR_Chiral_Form>
Achiral

>  <Prod_total_used>
1

>  <PSR (%)>
100

>  <Article>
4,5-dimethylfuran-2-carboxylic acid

>  <CAS>
89639-83-8

>  <Density>
1

>  <Prod_reagent_number>


>  <Stereocenters>
0

>  <NB_Name reaction - KI/BB – Capping>
03-Amidation_Amine_Acid

$$$$
R-008470
Actelion Java MolfileCreator 2.0

  0  0  0  0  0  0              0 V3000
M  V30 BEGIN CTAB
M  V30 COUNTS 10 10 0 0 0
M  V30 BEGIN ATOM
M  V30 1 O 0.0 0.0 0.0 0
M  V30 2 C -0.7587 -1.2686 0.0 0
M  V30 3 O -0.0355 -2.5372 0.0 0
M  V30 4 C -2.2763 -1.2449 0.0 0
M  V30 5 C -3.0351 -2.5135 0.0 0
M  V30 6 C -4.5527 -2.4898 0.0 0
M  V30 7 O -5.4538 -1.2567 0.0 0
M  V30 8 C -5.4538 -3.6754 0.0 0
M  V30 9 C -6.9003 -1.6954 0.0 0
M  V30 10 C -6.9003 -3.1893 0.0 0
M  V30 END ATOM
M  V30 BEGIN BOND
M  V30 1 2 1 2
M  V30 2 1 2 3
M  V30 3 1 2 4
M  V30 4 1 4 5
M  V30 5 1 5 6
M  V30 6 1 6 7
M  V30 7 2 6 8
M  V30 8 1 7 9
M  V30 9 1 8 10
M  V30 10 2 9 10
M  V30 END BOND
M  V30 END CTAB
M  END
>  <Dotmatics_CR>
R-008470

>  <CR_Set>
Acid

>  <Category>
Carboxylic Acids Non-Aromatic

>  <Reaction type>
Amidation

>  <KI/BB_Nature>
Amine

>  <Comments>


>  <Salt>


>  <CR_Chiral_Form>
Achiral

>  <Prod_total_used>
30

>  <PSR (%)>
77

>  <Article>
3-(2-furyl)propionoic acid

>  <CAS>
935-13-7

>  <Density>
1

>  <Prod_reagent_number>
C028

>  <Stereocenters>
0

>  <NB_Name reaction - KI/BB – Capping>
03-Amidation_Amine_Acid

$$$$
R-008564
Actelion Java MolfileCreator 2.0

  0  0  0  0  0  0              0 V3000
M  V30 BEGIN CTAB
M  V30 COUNTS 10 10 0 0 0
M  V30 BEGIN ATOM
M  V30 1 O 0.0 0.0 0.0 0
M  V30 2 C 0.5251 -1.3843 0.0 0
M  V30 3 O 1.993 -1.5991 0.0 0
M  V30 4 C -0.4415 -2.53 0.0 0
M  V30 5 C -0.0716 -3.9621 0.0 0
M  V30 6 C -1.9691 -2.4226 0.0 0
M  V30 7 O -1.3605 -4.7498 0.0 0
M  V30 8 C 1.3127 -4.4872 0.0 0
M  V30 9 C -2.542 -3.807 0.0 0
M  V30 10 C -4.0218 -4.1769 0.0 0
M  V30 END ATOM
M  V30 BEGIN BOND
M  V30 1 2 1 2
M  V30 2 1 2 3
M  V30 3 1 2 4
M  V30 4 2 4 5
M  V30 5 1 4 6
M  V30 6 1 5 7
M  V30 7 1 5 8
M  V30 8 2 6 9
M  V30 9 1 9 10
M  V30 10 1 7 9
M  V30 END BOND
M  V30 END CTAB
M  END
>  <Dotmatics_CR>
R-008564

>  <CR_Set>
Acid

>  <Category>
Carboxylic Acids Aromatic

>  <Reaction type>
Amidation

>  <KI/BB_Nature>
Amine

>  <Comments>


>  <Salt>


>  <CR_Chiral_Form>
Achiral

>  <Prod_total_used>
95

>  <PSR (%)>
78

>  <Article>
2,5-Dimethyl-3-furoic acid

>  <CAS>
636-44-2

>  <Density>
1

>  <Prod_reagent_number>


>  <Stereocenters>
0

>  <NB_Name reaction - KI/BB – Capping>
03-Amidation_Amine_Acid

$$$$
R-010363
Actelion Java MolfileCreator 2.0

  0  0  0  0  0  0              0 V3000
M  V30 BEGIN CTAB
M  V30 COUNTS 10 10 0 0 0
M  V30 BEGIN ATOM
M  V30 1 O 0.0 0.0 0.0 0
M  V30 2 C -0.0236 -1.4917 0.0 0
M  V30 3 O -1.3615 -2.2139 0.0 0
M  V30 4 C 1.2668 -2.2139 0.0 0
M  V30 5 C 1.2431 -3.7057 0.0 0
M  V30 6 C -0.0947 -4.4516 0.0 0
M  V30 7 C 2.5336 -4.4516 0.0 0
M  V30 8 C -0.1183 -5.9434 0.0 0
M  V30 9 C 2.5099 -5.9434 0.0 0
M  V30 10 O 1.1721 -6.6774 0.0 0
M  V30 END ATOM
M  V30 BEGIN BOND
M  V30 1 2 1 2
M  V30 2 1 2 3
M  V30 3 1 2 4
M  V30 4 1 4 5
M  V30 5 1 5 6
M  V30 6 1 5 7
M  V30 7 1 6 8
M  V30 8 1 7 9
M  V30 9 1 8 10
M  V30 10 1 9 10
M  V30 END BOND
M  V30 END CTAB
M  END
>  <Dotmatics_CR>
R-010363

>  <CR_Set>
Acid

>  <Category>
Carboxylic Acids Non-Aromatic

>  <Reaction type>
Amidation

>  <KI/BB_Nature>
Amine

>  <Comments>


>  <Salt>


>  <CR_Chiral_Form>
Achiral

>  <Prod_total_used>
58

>  <PSR (%)>
97

>  <Article>
2-Tetrahydropyran-4-ylacetic acid

>  <CAS>
85064-61-5

>  <Density>
1

>  <Prod_reagent_number>
C029

>  <Stereocenters>
0

>  <NB_Name reaction - KI/BB – Capping>
03-Amidation_Amine_Acid

$$$$
R-010226
Actelion Java MolfileCreator 2.0

  0  0  0  0  0  0              0 V3000
M  V30 BEGIN CTAB
M  V30 COUNTS 10 10 0 0 0
M  V30 BEGIN ATOM
M  V30 1 O 0.0 0.0 0.0 0
M  V30 2 C 1.2921 -0.7112 0.0 0
M  V30 3 O 2.5843 0.0948 0.0 0
M  V30 4 C 1.2566 -2.205 0.0 0 CFG=2
M  V30 5 C -0.1066 -2.9162 0.0 0
M  V30 6 C 2.5487 -2.9162 0.0 0
M  V30 7 C -0.1422 -4.41 0.0 0
M  V30 8 C 2.5132 -4.41 0.0 0
M  V30 9 C 1.1499 -5.1212 0.0 0 CFG=1
M  V30 10 O 1.1143 -6.615 0.0 0
M  V30 END ATOM
M  V30 BEGIN BOND
M  V30 1 2 1 2
M  V30 2 1 2 3
M  V30 3 1 4 2 CFG=1
M  V30 4 1 4 5
M  V30 5 1 4 6
M  V30 6 1 5 7
M  V30 7 1 6 8
M  V30 8 1 7 9
M  V30 9 1 9 10 CFG=1
M  V30 10 1 8 9
M  V30 END BOND
M  V30 BEGIN COLLECTION
M  V30 MDLV30/STEABS ATOMS=(2 4 9)
M  V30 END COLLECTION
M  V30 END CTAB
M  END
>  <Dotmatics_CR>
R-010226

>  <CR_Set>
Acid

>  <Category>
Carboxylic Acids Non-Aromatic

>  <Reaction type>
Amidation

>  <KI/BB_Nature>
Amine

>  <Comments>


>  <Salt>


>  <CR_Chiral_Form>
Achiral

>  <Prod_total_used>
1

>  <PSR (%)>
100

>  <Article>
cis-4-Hydroxycyclohexanecarboxylic acid

>  <CAS>
3685-22-1

>  <Density>
1

>  <Prod_reagent_number>


>  <Stereocenters>
0

>  <NB_Name reaction - KI/BB – Capping>
03-Amidation_Amine_Acid

$$$$
R-010225
Actelion Java MolfileCreator 2.0

  0  0  0  0  0  0              0 V3000
M  V30 BEGIN CTAB
M  V30 COUNTS 10 10 0 0 0
M  V30 BEGIN ATOM
M  V30 1 O 0.0 0.0 0.0 0
M  V30 2 C 1.2944 -0.7244 0.0 0
M  V30 3 O 2.5889 0.0593 0.0 0
M  V30 4 C 1.2707 -2.2208 0.0 0 CFG=1
M  V30 5 C -0.0712 -2.9452 0.0 0
M  V30 6 C 2.5652 -2.9452 0.0 0
M  V30 7 C -0.095 -4.4416 0.0 0
M  V30 8 C 2.5414 -4.4416 0.0 0
M  V30 9 C 1.1994 -5.1661 0.0 0 CFG=1
M  V30 10 O 1.1757 -6.6625 0.0 0
M  V30 END ATOM
M  V30 BEGIN BOND
M  V30 1 2 1 2
M  V30 2 1 2 3
M  V30 3 1 4 2 CFG=3
M  V30 4 1 4 5
M  V30 5 1 4 6
M  V30 6 1 5 7
M  V30 7 1 6 8
M  V30 8 1 7 9
M  V30 9 1 9 10 CFG=1
M  V30 10 1 8 9
M  V30 END BOND
M  V30 BEGIN COLLECTION
M  V30 MDLV30/STEABS ATOMS=(2 4 9)
M  V30 END COLLECTION
M  V30 END CTAB
M  END
>  <Dotmatics_CR>
R-010225

>  <CR_Set>
Acid

>  <Category>
Carboxylic Acids Non-Aromatic

>  <Reaction type>
Amidation

>  <KI/BB_Nature>
Amine

>  <Comments>


>  <Salt>


>  <CR_Chiral_Form>
Achiral

>  <Prod_total_used>
20

>  <PSR (%)>
85

>  <Article>
trans-4-Hydroxycyclohexane-1-carboxylic acid

>  <CAS>
3685-26-5

>  <Density>
1

>  <Prod_reagent_number>


>  <Stereocenters>
0

>  <NB_Name reaction - KI/BB – Capping>
03-Amidation_Amine_Acid

$$$$
R-005100
Actelion Java MolfileCreator 2.0

  0  0  0  0  0  0              0 V3000
M  V30 BEGIN CTAB
M  V30 COUNTS 10 10 0 0 0
M  V30 BEGIN ATOM
M  V30 1 S 0.0 0.0 0.0 0
M  V30 2 C -1.1651 0.9062 0.0 0
M  V30 3 C 1.2122 0.8709 0.0 0
M  V30 4 C -0.7414 2.3302 0.0 0
M  V30 5 C 0.7649 2.3302 0.0 0
M  V30 6 O -1.6947 3.5307 0.0 0
M  V30 7 C 1.6594 3.5542 0.0 0
M  V30 8 C -3.1423 3.5542 0.0 0
M  V30 9 O 1.0356 4.9547 0.0 0
M  V30 10 O 3.1423 3.5424 0.0 0
M  V30 END ATOM
M  V30 BEGIN BOND
M  V30 1 1 1 2
M  V30 2 1 1 3
M  V30 3 2 2 4
M  V30 4 2 3 5
M  V30 5 1 4 6
M  V30 6 1 5 7
M  V30 7 1 6 8
M  V30 8 2 7 9
M  V30 9 1 7 10
M  V30 10 1 4 5
M  V30 END BOND
M  V30 END CTAB
M  END
>  <Dotmatics_CR>
R-005100

>  <CR_Set>
Acid

>  <Category>
Carboxylic Acids Aromatic

>  <Reaction type>
Amidation

>  <KI/BB_Nature>
Amine

>  <Comments>


>  <Salt>


>  <CR_Chiral_Form>
Achiral

>  <Prod_total_used>
25

>  <PSR (%)>
96

>  <Article>
4-methoxythiophene-3-carboxylic acid

>  <CAS>
71050-40-3

>  <Density>
1

>  <Prod_reagent_number>


>  <Stereocenters>
0

>  <NB_Name reaction - KI/BB – Capping>
03-Amidation_Amine_Acid

$$$$
R-001069
Actelion Java MolfileCreator 2.0

  0  0  0  0  0  0              0 V3000
M  V30 BEGIN CTAB
M  V30 COUNTS 10 10 0 0 0
M  V30 BEGIN ATOM
M  V30 1 O 0.0 0.0 0.0 0
M  V30 2 C -0.0117 1.5022 0.0 0
M  V30 3 O 1.2675 2.2534 0.0 0
M  V30 4 C -1.3144 2.2534 0.0 0
M  V30 5 N -1.3262 3.7556 0.0 0
M  V30 6 C -2.6172 1.514 0.0 0
M  V30 7 C -2.6289 4.5068 0.0 0
M  V30 8 C -3.9199 2.2651 0.0 0
M  V30 9 N -2.6407 6.009 0.0 0
M  V30 10 C -3.9317 3.7674 0.0 0
M  V30 END ATOM
M  V30 BEGIN BOND
M  V30 1 2 1 2
M  V30 2 1 2 3
M  V30 3 1 2 4
M  V30 4 2 4 5
M  V30 5 1 4 6
M  V30 6 1 5 7
M  V30 7 2 6 8
M  V30 8 1 7 9
M  V30 9 2 7 10
M  V30 10 1 8 10
M  V30 END BOND
M  V30 END CTAB
M  END
>  <Dotmatics_CR>
R-001069

>  <CR_Set>
Acid

>  <Category>
Carboxylic Acids Aromatic

>  <Reaction type>
Amidation

>  <KI/BB_Nature>
Amine

>  <Comments>


>  <Salt>


>  <CR_Chiral_Form>
Achiral

>  <Prod_total_used>
46

>  <PSR (%)>
83

>  <Article>
6-Amino-2-pyridinecarboxylic acid

>  <CAS>
23628-31-1

>  <Density>
1

>  <Prod_reagent_number>


>  <Stereocenters>
0

>  <NB_Name reaction - KI/BB – Capping>
03-Amidation_Amine_Acid

$$$$
R-011857
Actelion Java MolfileCreator 2.0

  0  0  0  0  0  0              0 V3000
M  V30 BEGIN CTAB
M  V30 COUNTS 10 10 0 0 0
M  V30 BEGIN ATOM
M  V30 1 O 0.0 0.0 0.0 0
M  V30 2 C 0.5009 1.2073 0.0 0
M  V30 3 O 1.7597 1.3615 0.0 0
M  V30 4 C -0.4624 2.5432 0.0 0
M  V30 5 N 0.0128 4.1102 0.0 0
M  V30 6 C -2.1065 2.5689 0.0 0
M  V30 7 C -1.3229 5.0864 0.0 0
M  V30 8 C 1.2202 4.5341 0.0 0
M  V30 9 N -2.6331 4.1359 0.0 0
M  V30 10 C -2.9028 1.5541 0.0 0
M  V30 END ATOM
M  V30 BEGIN BOND
M  V30 1 2 1 2
M  V30 2 1 2 3
M  V30 3 1 2 4
M  V30 4 1 4 5
M  V30 5 2 4 6
M  V30 6 1 5 7
M  V30 7 1 5 8
M  V30 8 1 6 9
M  V30 9 1 6 10
M  V30 10 2 7 9
M  V30 END BOND
M  V30 END CTAB
M  END
>  <Dotmatics_CR>
R-011857

>  <CR_Set>
Acid

>  <Category>
Carboxylic Acids Aromatic

>  <Reaction type>
Amidation

>  <KI/BB_Nature>
Amine

>  <Comments>


>  <Salt>


>  <CR_Chiral_Form>
Achiral

>  <Prod_total_used>
20

>  <PSR (%)>
90

>  <Article>
3,5-dimethylimidazole-4-carboxylic acid

>  <CAS>
78449-67-9

>  <Density>
1

>  <Prod_reagent_number>


>  <Stereocenters>
0

>  <NB_Name reaction - KI/BB – Capping>
03-Amidation_Amine_Acid

$$$$
R-005202
Actelion Java MolfileCreator 2.0

  0  0  0  0  0  0              0 V3000
M  V30 BEGIN CTAB
M  V30 COUNTS 10 10 0 0 0
M  V30 BEGIN ATOM
M  V30 1 O 0.0 0.0 0.0 0
M  V30 2 C -0.1779 -1.4831 0.0 0
M  V30 3 O -1.5899 -2.0764 0.0 0
M  V30 4 C 1.0322 -2.3611 0.0 0
M  V30 5 N 1.0085 -3.8561 0.0 0
M  V30 6 C 2.4561 -1.8747 0.0 0
M  V30 7 N 2.4323 -4.2952 0.0 0
M  V30 8 C 3.3341 -3.0849 0.0 0
M  V30 9 C 2.8713 -5.719 0.0 0
M  V30 10 C 4.8291 -3.0612 0.0 0
M  V30 END ATOM
M  V30 BEGIN BOND
M  V30 1 2 1 2
M  V30 2 1 2 3
M  V30 3 1 2 4
M  V30 4 2 4 5
M  V30 5 1 4 6
M  V30 6 1 5 7
M  V30 7 2 6 8
M  V30 8 1 7 9
M  V30 9 1 8 10
M  V30 10 1 7 8
M  V30 END BOND
M  V30 END CTAB
M  END
>  <Dotmatics_CR>
R-005202

>  <CR_Set>
Acid

>  <Category>
Carboxylic Acids Aromatic

>  <Reaction type>
Amidation

>  <KI/BB_Nature>
Amine

>  <Comments>


>  <Salt>


>  <CR_Chiral_Form>
Achiral

>  <Prod_total_used>
78

>  <PSR (%)>
90

>  <Article>
1,5-dimethylpyrazole-3-carboxylic acid

>  <CAS>
5744-59-2

>  <Density>
1

>  <Prod_reagent_number>
C143

>  <Stereocenters>
0

>  <NB_Name reaction - KI/BB – Capping>
03-Amidation_Amine_Acid

$$$$
R-010578
Actelion Java MolfileCreator 2.0

  0  0  0  0  0  0              0 V3000
M  V30 BEGIN CTAB
M  V30 COUNTS 10 10 0 0 0
M  V30 BEGIN ATOM
M  V30 1 O 0.0 0.0 0.0 0
M  V30 2 C 0.7327 -1.2882 0.0 0
M  V30 3 O -0.059 -2.5764 0.0 0
M  V30 4 C 2.2219 -1.2646 0.0 0
M  V30 5 N 3.0965 -2.4701 0.0 0
M  V30 6 C 3.0965 -0.0118 0.0 0
M  V30 7 N 4.5147 -1.9855 0.0 0
M  V30 8 C 2.6119 -3.8883 0.0 0
M  V30 9 C 4.5147 -0.4491 0.0 0
M  V30 10 C 3.6047 -4.9875 0.0 0
M  V30 END ATOM
M  V30 BEGIN BOND
M  V30 1 2 1 2
M  V30 2 1 2 3
M  V30 3 1 2 4
M  V30 4 1 4 5
M  V30 5 2 4 6
M  V30 6 1 5 7
M  V30 7 1 5 8
M  V30 8 1 6 9
M  V30 9 1 8 10
M  V30 10 2 7 9
M  V30 END BOND
M  V30 END CTAB
M  END
>  <Dotmatics_CR>
R-010578

>  <CR_Set>
Acid

>  <Category>
Carboxylic Acids Aromatic

>  <Reaction type>
Amidation

>  <KI/BB_Nature>
Amine

>  <Comments>


>  <Salt>


>  <CR_Chiral_Form>
Achiral

>  <Prod_total_used>
1

>  <PSR (%)>
100

>  <Article>
2-Ethyl-2H-pyrazole-3-carboxylic acid

>  <CAS>
400755-43-3

>  <Density>
1

>  <Prod_reagent_number>


>  <Stereocenters>
0

>  <NB_Name reaction - KI/BB – Capping>
03-Amidation_Amine_Acid

$$$$
R-005861
Actelion Java MolfileCreator 2.0

  0  0  0  0  0  0              0 V3000
M  V30 BEGIN CTAB
M  V30 COUNTS 10 10 0 0 0
M  V30 BEGIN ATOM
M  V30 1 O 0.0 0.0 0.0 0
M  V30 2 C -0.0236 -1.4796 0.0 0
M  V30 3 O 1.2547 -2.2135 0.0 0
M  V30 4 C -1.3494 -2.2135 0.0 0
M  V30 5 N -1.527 -3.6814 0.0 0
M  V30 6 C -2.7462 -1.5743 0.0 0
M  V30 7 N -3.0185 -3.9655 0.0 0
M  V30 8 C -0.4379 -4.6639 0.0 0
M  V30 9 C -3.7761 -2.6634 0.0 0
M  V30 10 C -5.2913 -2.4858 0.0 0
M  V30 END ATOM
M  V30 BEGIN BOND
M  V30 1 2 1 2
M  V30 2 1 2 3
M  V30 3 1 2 4
M  V30 4 1 4 5
M  V30 5 2 4 6
M  V30 6 1 5 7
M  V30 7 1 5 8
M  V30 8 1 6 9
M  V30 9 1 9 10
M  V30 10 2 7 9
M  V30 END BOND
M  V30 END CTAB
M  END
>  <Dotmatics_CR>
R-005861

>  <CR_Set>
Acid

>  <Category>
Carboxylic Acids Aromatic

>  <Reaction type>
Amidation

>  <KI/BB_Nature>
Amine

>  <Comments>


>  <Salt>


>  <CR_Chiral_Form>
Achiral

>  <Prod_total_used>
70

>  <PSR (%)>
89

>  <Article>
2,5-dimethylpyrazole-3-carboxylic acid

>  <CAS>
5744-56-9

>  <Density>
1

>  <Prod_reagent_number>
C030

>  <Stereocenters>
0

>  <NB_Name reaction - KI/BB – Capping>
03-Amidation_Amine_Acid

$$$$
R-011810
Actelion Java MolfileCreator 2.0

  0  0  0  0  0  0              0 V3000
M  V30 BEGIN CTAB
M  V30 COUNTS 10 10 0 0 0
M  V30 BEGIN ATOM
M  V30 1 O 0.0 0.0 0.0 0
M  V30 2 C -0.7727 1.0345 0.0 0
M  V30 3 O -2.0441 0.9348 0.0 0
M  V30 4 C -0.1495 2.4928 0.0 0
M  V30 5 N -1.0844 3.7891 0.0 0
M  V30 6 N -2.6798 3.8141 0.0 0
M  V30 7 C -0.6232 5.3098 0.0 0
M  V30 8 C -3.1908 5.3347 0.0 0
M  V30 9 C -1.9195 6.2571 0.0 0
M  V30 10 C -1.9444 7.5409 0.0 0
M  V30 END ATOM
M  V30 BEGIN BOND
M  V30 1 2 1 2
M  V30 2 1 2 3
M  V30 3 1 2 4
M  V30 4 1 4 5
M  V30 5 1 5 6
M  V30 6 1 5 7
M  V30 7 2 6 8
M  V30 8 2 7 9
M  V30 9 1 9 10
M  V30 10 1 8 9
M  V30 END BOND
M  V30 END CTAB
M  END
>  <Dotmatics_CR>
R-011810

>  <CR_Set>
Acid

>  <Category>
Carboxylic Acids Non-Aromatic

>  <Reaction type>
Amidation

>  <KI/BB_Nature>
Amine

>  <Comments>


>  <Salt>


>  <CR_Chiral_Form>
Achiral

>  <Prod_total_used>
12

>  <PSR (%)>
100

>  <Article>
2-(4-methylpyrazol-1-yl)acetic acid

>  <CAS>
956364-44-6

>  <Density>
1

>  <Prod_reagent_number>


>  <Stereocenters>
0

>  <NB_Name reaction - KI/BB – Capping>
03-Amidation_Amine_Acid

$$$$
R-001177
Actelion Java MolfileCreator 2.0

  0  0  0  0  0  0              0 V3000
M  V30 BEGIN CTAB
M  V30 COUNTS 10 10 0 0 0
M  V30 BEGIN ATOM
M  V30 1 O 0.0 0.0 0.0 0
M  V30 2 C 1.2893 0.7832 0.0 0
M  V30 3 O 1.2652 2.3257 0.0 0
M  V30 4 C 2.5787 0.0482 0.0 0
M  V30 5 N 3.8681 0.8314 0.0 0
M  V30 6 C 2.5546 -1.446 0.0 0
M  V30 7 C 5.1575 0.0964 0.0 0
M  V30 8 N 3.844 -2.181 0.0 0
M  V30 9 C 5.1334 -1.4098 0.0 0
M  V30 10 C 6.4227 -2.1449 0.0 0
M  V30 END ATOM
M  V30 BEGIN BOND
M  V30 1 2 1 2
M  V30 2 1 2 3
M  V30 3 1 2 4
M  V30 4 2 4 5
M  V30 5 1 4 6
M  V30 6 1 5 7
M  V30 7 2 6 8
M  V30 8 2 7 9
M  V30 9 1 9 10
M  V30 10 1 8 9
M  V30 END BOND
M  V30 END CTAB
M  END
>  <Dotmatics_CR>
R-001177

>  <CR_Set>
Acid

>  <Category>
Carboxylic Acids Aromatic

>  <Reaction type>
Amidation

>  <KI/BB_Nature>
Amine

>  <Comments>


>  <Salt>


>  <CR_Chiral_Form>
Achiral

>  <Prod_total_used>
32

>  <PSR (%)>
88

>  <Article>
5-methylpyrazine-2-carboxylic acid

>  <CAS>
5521-55-1

>  <Density>
1

>  <Prod_reagent_number>


>  <Stereocenters>
0

>  <NB_Name reaction - KI/BB – Capping>
03-Amidation_Amine_Acid

$$$$
R-011809
Actelion Java MolfileCreator 2.0

  0  0  0  0  0  0              0 V3000
M  V30 BEGIN CTAB
M  V30 COUNTS 10 10 0 0 0
M  V30 BEGIN ATOM
M  V30 1 O 0.0 0.0 0.0 0
M  V30 2 C -1.3047 -0.1151 0.0 0
M  V30 3 O -1.8548 -1.2663 0.0 0
M  V30 4 C -2.2769 1.2024 0.0 0
M  V30 5 C -3.9143 1.228 0.0 0
M  V30 6 C -1.8036 2.763 0.0 0
M  V30 7 N -4.4387 2.7886 0.0 0
M  V30 8 C -4.7073 0.2174 0.0 0
M  V30 9 N -3.134 3.7352 0.0 0
M  V30 10 C -3.1595 5.0527 0.0 0
M  V30 END ATOM
M  V30 BEGIN BOND
M  V30 1 2 1 2
M  V30 2 1 2 3
M  V30 3 1 2 4
M  V30 4 1 4 5
M  V30 5 2 4 6
M  V30 6 2 5 7
M  V30 7 1 5 8
M  V30 8 1 6 9
M  V30 9 1 9 10
M  V30 10 1 7 9
M  V30 END BOND
M  V30 END CTAB
M  END
>  <Dotmatics_CR>
R-011809

>  <CR_Set>
Acid

>  <Category>
Carboxylic Acids Aromatic

>  <Reaction type>
Amidation

>  <KI/BB_Nature>
Amine

>  <Comments>


>  <Salt>


>  <CR_Chiral_Form>
Achiral

>  <Prod_total_used>
25

>  <PSR (%)>
88

>  <Article>
1,3-dimethylpyrazole-4-carboxylic acid

>  <CAS>
78703-53-4

>  <Density>
1

>  <Prod_reagent_number>


>  <Stereocenters>
0

>  <NB_Name reaction - KI/BB – Capping>
03-Amidation_Amine_Acid

$$$$
R-009309
Actelion Java MolfileCreator 2.0

  0  0  0  0  0  0              0 V3000
M  V30 BEGIN CTAB
M  V30 COUNTS 10 10 0 0 0
M  V30 BEGIN ATOM
M  V30 1 O 0.0 0.0 0.0 0
M  V30 2 C -0.0234 -1.4784 0.0 0
M  V30 3 O 1.2555 -2.1942 0.0 0
M  V30 4 C -1.3494 -2.1942 0.0 0
M  V30 5 C -1.3728 -3.6727 0.0 0
M  V30 6 C -2.6753 -1.4198 0.0 0
M  V30 7 N -2.6988 -4.3885 0.0 0
M  V30 8 N -4.0013 -2.1355 0.0 0
M  V30 9 C -4.0247 -3.614 0.0 0
M  V30 10 C -5.3507 -4.3298 0.0 0
M  V30 END ATOM
M  V30 BEGIN BOND
M  V30 1 2 1 2
M  V30 2 1 2 3
M  V30 3 1 2 4
M  V30 4 2 4 5
M  V30 5 1 4 6
M  V30 6 1 5 7
M  V30 7 2 6 8
M  V30 8 2 7 9
M  V30 9 1 9 10
M  V30 10 1 8 9
M  V30 END BOND
M  V30 END CTAB
M  END
>  <Dotmatics_CR>
R-009309

>  <CR_Set>
Acid

>  <Category>
Carboxylic Acids Aromatic

>  <Reaction type>
Amidation

>  <KI/BB_Nature>
Amine

>  <Comments>


>  <Salt>


>  <CR_Chiral_Form>
Achiral

>  <Prod_total_used>
29

>  <PSR (%)>
86

>  <Article>
2-Methylpyrimidine-5-carboxylic acid

>  <CAS>
5194-32-1

>  <Density>
1

>  <Prod_reagent_number>


>  <Stereocenters>
0

>  <NB_Name reaction - KI/BB – Capping>
03-Amidation_Amine_Acid

$$$$
R-012063
Actelion Java MolfileCreator 2.0

  0  0  0  0  0  0              0 V3000
M  V30 BEGIN CTAB
M  V30 COUNTS 10 10 0 0 0
M  V30 BEGIN ATOM
M  V30 1 O 0.0 0.0 0.0 0
M  V30 2 C -1.1055 -0.5953 0.0 0
M  V30 3 O -2.2111 0.0485 0.0 0
M  V30 4 C -1.1298 -2.1261 0.0 0
M  V30 5 C -2.5027 -2.8915 0.0 0
M  V30 6 N -2.527 -4.4223 0.0 0
M  V30 7 C -3.8756 -2.0896 0.0 0
M  V30 8 C -3.8999 -5.1634 0.0 0
M  V30 9 N -5.2485 -2.8307 0.0 0
M  V30 10 C -5.2728 -4.3616 0.0 0
M  V30 END ATOM
M  V30 BEGIN BOND
M  V30 1 2 1 2
M  V30 2 1 2 3
M  V30 3 1 2 4
M  V30 4 1 4 5
M  V30 5 2 5 6
M  V30 6 1 5 7
M  V30 7 1 6 8
M  V30 8 2 7 9
M  V30 9 2 8 10
M  V30 10 1 9 10
M  V30 END BOND
M  V30 END CTAB
M  END
>  <Dotmatics_CR>
R-012063

>  <CR_Set>
Acid

>  <Category>
Carboxylic Acids Non-Aromatic

>  <Reaction type>
Amidation

>  <KI/BB_Nature>
Amine

>  <Comments>


>  <Salt>


>  <CR_Chiral_Form>
Achiral

>  <Prod_total_used>
8

>  <PSR (%)>
75

>  <Article>
2-pyrazin-2-ylacetic acid

>  <CAS>
140914-89-2

>  <Density>
1

>  <Prod_reagent_number>


>  <Stereocenters>
0

>  <NB_Name reaction - KI/BB – Capping>
03-Amidation_Amine_Acid

$$$$
R-012069
Actelion Java MolfileCreator 2.0

  0  0  0  0  0  0              0 V3000
M  V30 BEGIN CTAB
M  V30 COUNTS 10 10 0 0 0
M  V30 BEGIN ATOM
M  V30 1 O 0.0 0.0 0.0 0
M  V30 2 C 1.0596 0.6607 0.0 0
M  V30 3 O 2.1193 0.0498 0.0 0
M  V30 4 C 1.0347 2.2564 0.0 0
M  V30 5 C 2.3686 3.0667 0.0 0
M  V30 6 C 2.3437 4.6625 0.0 0
M  V30 7 C 3.7025 2.3063 0.0 0
M  V30 8 N 3.6776 5.4603 0.0 0
M  V30 9 N 5.0364 3.1041 0.0 0
M  V30 10 C 5.0115 4.6999 0.0 0
M  V30 END ATOM
M  V30 BEGIN BOND
M  V30 1 2 1 2
M  V30 2 1 2 3
M  V30 3 1 2 4
M  V30 4 1 4 5
M  V30 5 2 5 6
M  V30 6 1 5 7
M  V30 7 1 6 8
M  V30 8 2 7 9
M  V30 9 2 8 10
M  V30 10 1 9 10
M  V30 END BOND
M  V30 END CTAB
M  END
>  <Dotmatics_CR>
R-012069

>  <CR_Set>
Acid

>  <Category>
Carboxylic Acids Non-Aromatic

>  <Reaction type>
Amidation

>  <KI/BB_Nature>
Amine

>  <Comments>


>  <Salt>


>  <CR_Chiral_Form>
Achiral

>  <Prod_total_used>
30

>  <PSR (%)>
83

>  <Article>
2-pyrimidin-5-ylacetic acid

>  <CAS>
5267-07-2

>  <Density>
1

>  <Prod_reagent_number>


>  <Stereocenters>
0

>  <NB_Name reaction - KI/BB – Capping>
03-Amidation_Amine_Acid

$$$$
R-010354
Actelion Java MolfileCreator 2.0

  0  0  0  0  0  0              0 V3000
M  V30 BEGIN CTAB
M  V30 COUNTS 10 10 0 0 0
M  V30 BEGIN ATOM
M  V30 1 Cl 0.0 0.0 0.0 0
M  V30 2 C 1.1886 0.9034 0.0 0
M  V30 3 N 2.5913 0.4635 0.0 0
M  V30 4 C 1.1649 2.4249 0.0 0
M  V30 5 N 3.4471 1.6998 0.0 0
M  V30 6 C 3.0311 -0.939 0.0 0
M  V30 7 C -0.0713 3.3283 0.0 0
M  V30 8 C 2.5675 2.9122 0.0 0
M  V30 9 O -1.462 2.7339 0.0 0
M  V30 10 O 0.0594 4.8379 0.0 0
M  V30 END ATOM
M  V30 BEGIN BOND
M  V30 1 1 1 2
M  V30 2 1 2 3
M  V30 3 2 2 4
M  V30 4 1 3 5
M  V30 5 1 3 6
M  V30 6 1 4 7
M  V30 7 1 4 8
M  V30 8 2 7 9
M  V30 9 1 7 10
M  V30 10 2 5 8
M  V30 END BOND
M  V30 END CTAB
M  END
>  <Dotmatics_CR>
R-010354

>  <CR_Set>
Acid

>  <Category>
Carboxylic Acids Aromatic

>  <Reaction type>
Amidation

>  <KI/BB_Nature>
Amine

>  <Comments>


>  <Salt>


>  <CR_Chiral_Form>
Achiral

>  <Prod_total_used>
33

>  <PSR (%)>
88

>  <Article>
5-Chloro-1-methyl-1H-pyrazole-4-carboxylic acid

>  <CAS>
54367-66-7

>  <Density>
1

>  <Prod_reagent_number>


>  <Stereocenters>
0

>  <NB_Name reaction - KI/BB – Capping>
03-Amidation_Amine_Acid

$$$$
R-008804
Actelion Java MolfileCreator 2.0

  0  0  0  0  0  0              0 V3000
M  V30 BEGIN CTAB
M  V30 COUNTS 10 10 0 0 0
M  V30 BEGIN ATOM
M  V30 1 O 0.0 0.0 0.0 0
M  V30 2 C 1.2801 0.7776 0.0 0
M  V30 3 N 2.5602 0.0358 0.0 0
M  V30 4 C 1.2561 2.3089 0.0 0
M  V30 5 N 3.8403 0.8135 0.0 0
M  V30 6 C 2.5362 3.0746 0.0 0
M  V30 7 C 3.8164 2.3448 0.0 0
M  V30 8 C 5.0965 3.1105 0.0 0
M  V30 9 O 5.0725 4.6419 0.0 0
M  V30 10 O 6.3766 2.3807 0.0 0
M  V30 END ATOM
M  V30 BEGIN BOND
M  V30 1 2 1 2
M  V30 2 1 2 3
M  V30 3 1 2 4
M  V30 4 1 3 5
M  V30 5 1 4 6
M  V30 6 2 5 7
M  V30 7 1 7 8
M  V30 8 2 8 9
M  V30 9 1 8 10
M  V30 10 1 6 7
M  V30 END BOND
M  V30 END CTAB
M  END
>  <Dotmatics_CR>
R-008804

>  <CR_Set>
Acid

>  <Category>
Carboxylic Acids Non-Aromatic

>  <Reaction type>
Amidation

>  <KI/BB_Nature>
Amine

>  <Comments>


>  <Salt>


>  <CR_Chiral_Form>
Achiral

>  <Prod_total_used>
83

>  <PSR (%)>
94

>  <Article>
6-Oxo-1,4,5,6-tetrahydropyridazine-3-carboxylic acid

>  <CAS>
27372-38-9

>  <Density>
1

>  <Prod_reagent_number>


>  <Stereocenters>
0

>  <NB_Name reaction - KI/BB – Capping>
03-Amidation_Amine_Acid

$$$$
R-010754
Actelion Java MolfileCreator 2.0

  0  0  0  0  0  0              0 V3000
M  V30 BEGIN CTAB
M  V30 COUNTS 10 10 0 0 0
M  V30 BEGIN ATOM
M  V30 1 O 0.0 0.0 0.0 0
M  V30 2 C -0.0235 -1.4812 0.0 0
M  V30 3 O 1.2578 -2.1983 0.0 0
M  V30 4 C -1.3519 -2.1983 0.0 0
M  V30 5 N -2.6803 -1.4224 0.0 0
M  V30 6 C -1.3754 -3.6796 0.0 0
M  V30 7 C -4.0088 -2.1396 0.0 0
M  V30 8 C -2.7038 -4.3967 0.0 0
M  V30 9 C -4.0323 -3.6208 0.0 0
M  V30 10 C -2.7274 -5.878 0.0 0
M  V30 END ATOM
M  V30 BEGIN BOND
M  V30 1 2 1 2
M  V30 2 1 2 3
M  V30 3 1 2 4
M  V30 4 2 4 5
M  V30 5 1 4 6
M  V30 6 1 5 7
M  V30 7 2 6 8
M  V30 8 2 7 9
M  V30 9 1 8 10
M  V30 10 1 8 9
M  V30 END BOND
M  V30 END CTAB
M  END
>  <Dotmatics_CR>
R-010754

>  <CR_Set>
Acid

>  <Category>
Carboxylic Acids Aromatic

>  <Reaction type>
Amidation

>  <KI/BB_Nature>
Amine

>  <Comments>


>  <Salt>


>  <CR_Chiral_Form>
Achiral

>  <Prod_total_used>
1

>  <PSR (%)>
100

>  <Article>
4-Methyl-pyridine-2-carboxylic acid

>  <CAS>
4021-08-3

>  <Density>
1

>  <Prod_reagent_number>


>  <Stereocenters>
0

>  <NB_Name reaction - KI/BB – Capping>
03-Amidation_Amine_Acid

$$$$
R-005178
Actelion Java MolfileCreator 2.0

  0  0  0  0  0  0              0 V3000
M  V30 BEGIN CTAB
M  V30 COUNTS 10 10 0 0 0
M  V30 BEGIN ATOM
M  V30 1 O 0.0 0.0 0.0 0
M  V30 2 C 1.2868 0.7817 0.0 0
M  V30 3 O 1.2628 2.3211 0.0 0
M  V30 4 C 2.5737 0.0601 0.0 0
M  V30 5 C 2.5497 -1.4432 0.0 0
M  V30 6 C 3.8606 0.8298 0.0 0
M  V30 7 N 3.8486 -2.1648 0.0 0
M  V30 8 C 5.1475 0.1082 0.0 0
M  V30 9 C 5.1354 -1.3951 0.0 0
M  V30 10 C 6.4343 0.902 0.0 0
M  V30 END ATOM
M  V30 BEGIN BOND
M  V30 1 2 1 2
M  V30 2 1 2 3
M  V30 3 1 2 4
M  V30 4 2 4 5
M  V30 5 1 4 6
M  V30 6 1 5 7
M  V30 7 2 6 8
M  V30 8 2 7 9
M  V30 9 1 8 10
M  V30 10 1 8 9
M  V30 END BOND
M  V30 END CTAB
M  END
>  <Dotmatics_CR>
R-005178

>  <CR_Set>
Acid

>  <Category>
Carboxylic Acids Aromatic

>  <Reaction type>
Amidation

>  <KI/BB_Nature>
Amine

>  <Comments>


>  <Salt>


>  <CR_Chiral_Form>
Achiral

>  <Prod_total_used>
17

>  <PSR (%)>
71

>  <Article>
5-methylpyridine-3-carboxylic acid

>  <CAS>
3222-49-9

>  <Density>
1

>  <Prod_reagent_number>


>  <Stereocenters>
0

>  <NB_Name reaction - KI/BB – Capping>
03-Amidation_Amine_Acid

$$$$
R-005046
Actelion Java MolfileCreator 2.0

  0  0  0  0  0  0              0 V3000
M  V30 BEGIN CTAB
M  V30 COUNTS 10 10 0 0 0
M  V30 BEGIN ATOM
M  V30 1 O 0.0 0.0 0.0 0
M  V30 2 C -0.4133 1.4697 0.0 0
M  V30 3 O -1.883 1.8715 0.0 0
M  V30 4 C 0.62 2.549 0.0 0
M  V30 5 C 0.2066 4.0187 0.0 0
M  V30 6 C 2.0438 2.193 0.0 0
M  V30 7 N 1.2285 5.098 0.0 0
M  V30 8 C 3.0657 3.2723 0.0 0
M  V30 9 C 2.6638 4.7306 0.0 0
M  V30 10 C 3.6972 5.8099 0.0 0
M  V30 END ATOM
M  V30 BEGIN BOND
M  V30 1 2 1 2
M  V30 2 1 2 3
M  V30 3 1 2 4
M  V30 4 2 4 5
M  V30 5 1 4 6
M  V30 6 1 5 7
M  V30 7 2 6 8
M  V30 8 2 7 9
M  V30 9 1 9 10
M  V30 10 1 8 9
M  V30 END BOND
M  V30 END CTAB
M  END
>  <Dotmatics_CR>
R-005046

>  <CR_Set>
Acid

>  <Category>
Carboxylic Acids Aromatic

>  <Reaction type>
Amidation

>  <KI/BB_Nature>
Amine

>  <Comments>


>  <Salt>


>  <CR_Chiral_Form>
Achiral

>  <Prod_total_used>
70

>  <PSR (%)>
83

>  <Article>
6-methylpyridine-3-carboxylic acid

>  <CAS>
3222-47-7

>  <Density>
1

>  <Prod_reagent_number>


>  <Stereocenters>
0

>  <NB_Name reaction - KI/BB – Capping>
03-Amidation_Amine_Acid

$$$$
R-008545
Actelion Java MolfileCreator 2.0

  0  0  0  0  0  0              0 V3000
M  V30 BEGIN CTAB
M  V30 COUNTS 10 10 0 0 0
M  V30 BEGIN ATOM
M  V30 1 Cl 0.0 0.0 0.0 0
M  V30 2 C 1.2893 -0.735 0.0 0
M  V30 3 C 1.2652 -2.2293 0.0 0
M  V30 4 C 2.5787 0.0482 0.0 0
M  V30 5 N 2.5546 -2.9643 0.0 0
M  V30 6 C 3.8681 -0.6868 0.0 0
M  V30 7 C 3.844 -2.1931 0.0 0
M  V30 8 C 5.1575 0.0964 0.0 0
M  V30 9 O 5.1334 1.6388 0.0 0
M  V30 10 O 6.4468 -0.6386 0.0 0
M  V30 END ATOM
M  V30 BEGIN BOND
M  V30 1 1 1 2
M  V30 2 2 2 3
M  V30 3 1 2 4
M  V30 4 1 3 5
M  V30 5 2 4 6
M  V30 6 2 5 7
M  V30 7 1 6 8
M  V30 8 2 8 9
M  V30 9 1 8 10
M  V30 10 1 6 7
M  V30 END BOND
M  V30 END CTAB
M  END
>  <Dotmatics_CR>
R-008545

>  <CR_Set>
Acid

>  <Category>
Carboxylic Acids Aromatic

>  <Reaction type>
Amidation

>  <KI/BB_Nature>
Amine

>  <Comments>


>  <Salt>


>  <CR_Chiral_Form>
Achiral

>  <Prod_total_used>
64

>  <PSR (%)>
91

>  <Article>
5-Chloronicotinic acid

>  <CAS>
22620-27-5

>  <Density>
1

>  <Prod_reagent_number>
C031

>  <Stereocenters>
0

>  <NB_Name reaction - KI/BB – Capping>
03-Amidation_Amine_Acid

$$$$
R-008736
Actelion Java MolfileCreator 2.0

  0  0  0  0  0  0              0 V3000
M  V30 BEGIN CTAB
M  V30 COUNTS 10 10 0 0 0
M  V30 BEGIN ATOM
M  V30 1 Cl 0.0 0.0 0.0 0
M  V30 2 C 1.2976 -0.7262 0.0 0
M  V30 3 C 1.2738 -2.2262 0.0 0
M  V30 4 C 2.5953 0.0595 0.0 0
M  V30 5 N 2.5715 -2.9524 0.0 0
M  V30 6 C 3.893 -0.6666 0.0 0
M  V30 7 C 3.8691 -2.1667 0.0 0
M  V30 8 C 5.1668 -2.8929 0.0 0
M  V30 9 O 5.143 -4.393 0.0 0
M  V30 10 O 6.4645 -2.1072 0.0 0
M  V30 END ATOM
M  V30 BEGIN BOND
M  V30 1 1 1 2
M  V30 2 2 2 3
M  V30 3 1 2 4
M  V30 4 1 3 5
M  V30 5 2 4 6
M  V30 6 2 5 7
M  V30 7 1 7 8
M  V30 8 2 8 9
M  V30 9 1 8 10
M  V30 10 1 6 7
M  V30 END BOND
M  V30 END CTAB
M  END
>  <Dotmatics_CR>
R-008736

>  <CR_Set>
Acid

>  <Category>
Carboxylic Acids Aromatic

>  <Reaction type>
Amidation

>  <KI/BB_Nature>
Amine

>  <Comments>


>  <Salt>


>  <CR_Chiral_Form>
Achiral

>  <Prod_total_used>
21

>  <PSR (%)>
95

>  <Article>
5-Chloropyridine-2-carboxylic acid

>  <CAS>
86873-60-1

>  <Density>
1

>  <Prod_reagent_number>


>  <Stereocenters>
0

>  <NB_Name reaction - KI/BB – Capping>
03-Amidation_Amine_Acid

$$$$
R-008821
Actelion Java MolfileCreator 2.0

  0  0  0  0  0  0              0 V3000
M  V30 BEGIN CTAB
M  V30 COUNTS 10 10 0 0 0
M  V30 BEGIN ATOM
M  V30 1 Cl 0.0 0.0 0.0 0
M  V30 2 C -1.3269 -0.7163 0.0 0
M  V30 3 C -1.3504 -2.1959 0.0 0
M  V30 4 C -2.6539 0.0587 0.0 0
M  V30 5 N -2.6774 -2.9122 0.0 0
M  V30 6 C -0.0704 -2.9122 0.0 0
M  V30 7 C -3.9809 -0.6576 0.0 0
M  V30 8 C -4.0043 -2.1372 0.0 0
M  V30 9 O -0.0939 -4.3919 0.0 0
M  V30 10 O 1.2095 -2.1372 0.0 0
M  V30 END ATOM
M  V30 BEGIN BOND
M  V30 1 1 1 2
M  V30 2 2 2 3
M  V30 3 1 2 4
M  V30 4 1 3 5
M  V30 5 1 3 6
M  V30 6 2 4 7
M  V30 7 2 5 8
M  V30 8 2 6 9
M  V30 9 1 6 10
M  V30 10 1 7 8
M  V30 END BOND
M  V30 END CTAB
M  END
>  <Dotmatics_CR>
R-008821

>  <CR_Set>
Acid

>  <Category>
Carboxylic Acids Aromatic

>  <Reaction type>
Amidation

>  <KI/BB_Nature>
Amine

>  <Comments>


>  <Salt>


>  <CR_Chiral_Form>
Achiral

>  <Prod_total_used>
7

>  <PSR (%)>
100

>  <Article>
3-Chloropyridine-2-carboxylic acid

>  <CAS>
57266-69-0

>  <Density>
1

>  <Prod_reagent_number>


>  <Stereocenters>
0

>  <NB_Name reaction - KI/BB – Capping>
03-Amidation_Amine_Acid

$$$$
R-012062
Actelion Java MolfileCreator 2.0

  0  0  0  0  0  0              0 V3000
M  V30 BEGIN CTAB
M  V30 COUNTS 10 10 0 0 0
M  V30 BEGIN ATOM
M  V30 1 F 0.0 0.0 0.0 0
M  V30 2 C -0.0251 -1.2715 0.0 0
M  V30 3 C -1.4478 -2.0647 0.0 0
M  V30 4 C 1.3471 -2.0647 0.0 0
M  V30 5 N -1.473 -3.651 0.0 0
M  V30 6 C 1.3219 -3.651 0.0 0
M  V30 7 C -0.1007 -4.4316 0.0 0
M  V30 8 C 2.6942 -4.4316 0.0 0
M  V30 9 O 2.669 -5.7032 0.0 0
M  V30 10 O 3.7895 -3.7517 0.0 0
M  V30 END ATOM
M  V30 BEGIN BOND
M  V30 1 1 1 2
M  V30 2 2 2 3
M  V30 3 1 2 4
M  V30 4 1 3 5
M  V30 5 2 4 6
M  V30 6 2 5 7
M  V30 7 1 6 8
M  V30 8 2 8 9
M  V30 9 1 8 10
M  V30 10 1 6 7
M  V30 END BOND
M  V30 END CTAB
M  END
>  <Dotmatics_CR>
R-012062

>  <CR_Set>
Acid

>  <Category>
Carboxylic Acids Aromatic

>  <Reaction type>
Amidation

>  <KI/BB_Nature>
Amine

>  <Comments>


>  <Salt>


>  <CR_Chiral_Form>
Achiral

>  <Prod_total_used>
8

>  <PSR (%)>
100

>  <Article>
5-Fluoronicotinic acid

>  <CAS>
402-66-4

>  <Density>
1

>  <Prod_reagent_number>


>  <Stereocenters>
0

>  <NB_Name reaction - KI/BB – Capping>
03-Amidation_Amine_Acid

$$$$
R-012141
Actelion Java MolfileCreator 2.0

  0  0  0  0  0  0              0 V3000
M  V30 BEGIN CTAB
M  V30 COUNTS 10 10 0 0 0
M  V30 BEGIN ATOM
M  V30 1 F 0.0 0.0 0.0 0
M  V30 2 C 1.0802 0.6735 0.0 0
M  V30 3 C 2.4401 -0.1143 0.0 0
M  V30 4 C 1.0548 2.3003 0.0 0
M  V30 5 N 3.8 0.7117 0.0 0
M  V30 6 C 2.4147 3.1264 0.0 0
M  V30 7 C 3.7746 2.3384 0.0 0
M  V30 8 C 5.1345 3.1645 0.0 0
M  V30 9 O 5.109 4.4736 0.0 0
M  V30 10 O 6.2147 2.5418 0.0 0
M  V30 END ATOM
M  V30 BEGIN BOND
M  V30 1 1 1 2
M  V30 2 2 2 3
M  V30 3 1 2 4
M  V30 4 1 3 5
M  V30 5 2 4 6
M  V30 6 2 5 7
M  V30 7 1 7 8
M  V30 8 2 8 9
M  V30 9 1 8 10
M  V30 10 1 6 7
M  V30 END BOND
M  V30 END CTAB
M  END
>  <Dotmatics_CR>
R-012141

>  <CR_Set>
Acid

>  <Category>
Carboxylic Acids Aromatic

>  <Reaction type>
Amidation

>  <KI/BB_Nature>
Amine

>  <Comments>


>  <Salt>


>  <CR_Chiral_Form>
Achiral

>  <Prod_total_used>
7

>  <PSR (%)>
86

>  <Article>
5-fluoropyridine-2-carboxylic acid

>  <CAS>
107504-08-5

>  <Density>
1

>  <Prod_reagent_number>


>  <Stereocenters>
0

>  <NB_Name reaction - KI/BB – Capping>
03-Amidation_Amine_Acid

$$$$
R-011410
Actelion Java MolfileCreator 2.0

  0  0  0  0  0  0              0 V3000
M  V30 BEGIN CTAB
M  V30 COUNTS 10 10 0 0 0
M  V30 BEGIN ATOM
M  V30 1 F 0.0 0.0 0.0 0
M  V30 2 C -1.1344 -0.6108 0.0 0
M  V30 3 C -1.1593 -2.1816 0.0 0
M  V30 4 C -2.5431 0.2119 0.0 0
M  V30 5 N -2.5681 -2.9545 0.0 0
M  V30 6 C 0.1994 -2.9545 0.0 0
M  V30 7 C -3.9519 -0.5485 0.0 0
M  V30 8 C -3.9768 -2.1193 0.0 0
M  V30 9 O 0.1745 -4.2137 0.0 0
M  V30 10 O 1.284 -2.2938 0.0 0
M  V30 END ATOM
M  V30 BEGIN BOND
M  V30 1 1 1 2
M  V30 2 2 2 3
M  V30 3 1 2 4
M  V30 4 1 3 5
M  V30 5 1 3 6
M  V30 6 2 4 7
M  V30 7 2 5 8
M  V30 8 2 6 9
M  V30 9 1 6 10
M  V30 10 1 7 8
M  V30 END BOND
M  V30 END CTAB
M  END
>  <Dotmatics_CR>
R-011410

>  <CR_Set>
Acid

>  <Category>
Carboxylic Acids Aromatic

>  <Reaction type>
Amidation

>  <KI/BB_Nature>
Amine

>  <Comments>


>  <Salt>


>  <CR_Chiral_Form>
Achiral

>  <Prod_total_used>
60

>  <PSR (%)>
92

>  <Article>
3-fluoropyridine-2-carboxylic acid

>  <CAS>
152126-31-3

>  <Density>
1

>  <Prod_reagent_number>


>  <Stereocenters>
0

>  <NB_Name reaction - KI/BB – Capping>
03-Amidation_Amine_Acid

$$$$
R-008747
Actelion Java MolfileCreator 2.0

  0  0  0  0  0  0              0 V3000
M  V30 BEGIN CTAB
M  V30 COUNTS 10 10 0 0 0
M  V30 BEGIN ATOM
M  V30 1 Cl 0.0 0.0 0.0 0
M  V30 2 C 1.2898 -0.7353 0.0 0
M  V30 3 C 2.5797 0.0482 0.0 0
M  V30 4 C 1.2657 -2.2301 0.0 0
M  V30 5 C 3.8696 -0.6871 0.0 0
M  V30 6 C 2.5556 -2.9655 0.0 0
M  V30 7 N 3.8455 -2.1819 0.0 0
M  V30 8 C 5.1595 0.0964 0.0 0
M  V30 9 O 5.1354 1.6394 0.0 0
M  V30 10 O 6.4494 -0.6389 0.0 0
M  V30 END ATOM
M  V30 BEGIN BOND
M  V30 1 1 1 2
M  V30 2 2 2 3
M  V30 3 1 2 4
M  V30 4 1 3 5
M  V30 5 2 4 6
M  V30 6 2 5 7
M  V30 7 1 5 8
M  V30 8 2 8 9
M  V30 9 1 8 10
M  V30 10 1 6 7
M  V30 END BOND
M  V30 END CTAB
M  END
>  <Dotmatics_CR>
R-008747

>  <CR_Set>
Acid

>  <Category>
Carboxylic Acids Aromatic

>  <Reaction type>
Amidation

>  <KI/BB_Nature>
Amine

>  <Comments>


>  <Salt>


>  <CR_Chiral_Form>
Achiral

>  <Prod_total_used>
1

>  <PSR (%)>
100

>  <Article>
4-Chloropyridine-2-carboxylic acid

>  <CAS>
5470-22-4

>  <Density>
1

>  <Prod_reagent_number>


>  <Stereocenters>
0

>  <NB_Name reaction - KI/BB – Capping>
03-Amidation_Amine_Acid

$$$$
R-009803
Actelion Java MolfileCreator 2.0

  0  0  0  0  0  0              0 V3000
M  V30 BEGIN CTAB
M  V30 COUNTS 10 10 0 0 0
M  V30 BEGIN ATOM
M  V30 1 F 0.0 0.0 0.0 0
M  V30 2 C -1.314 -0.7221 0.0 0
M  V30 3 C -2.628 0.0473 0.0 0
M  V30 4 C -1.3376 -2.19 0.0 0
M  V30 5 C -2.6517 1.5626 0.0 0
M  V30 6 C -3.942 -0.6747 0.0 0
M  V30 7 N -2.6517 -2.9121 0.0 0
M  V30 8 O -1.385 2.332 0.0 0
M  V30 9 O -3.9657 2.332 0.0 0
M  V30 10 C -3.9657 -2.1426 0.0 0
M  V30 END ATOM
M  V30 BEGIN BOND
M  V30 1 1 1 2
M  V30 2 2 2 3
M  V30 3 1 2 4
M  V30 4 1 3 5
M  V30 5 1 3 6
M  V30 6 2 4 7
M  V30 7 2 5 8
M  V30 8 1 5 9
M  V30 9 2 6 10
M  V30 10 1 7 10
M  V30 END BOND
M  V30 END CTAB
M  END
>  <Dotmatics_CR>
R-009803

>  <CR_Set>
Acid

>  <Category>
Carboxylic Acids Aromatic

>  <Reaction type>
Amidation

>  <KI/BB_Nature>
Amine

>  <Comments>


>  <Salt>


>  <CR_Chiral_Form>
Achiral

>  <Prod_total_used>
79

>  <PSR (%)>
82

>  <Article>
3-fluoropyridine-4-carboxylic acid

>  <CAS>
393-53-3

>  <Density>
1

>  <Prod_reagent_number>


>  <Stereocenters>
0

>  <NB_Name reaction - KI/BB – Capping>
03-Amidation_Amine_Acid

$$$$
R-008812
Actelion Java MolfileCreator 2.0

  0  0  0  0  0  0              0 V3000
M  V30 BEGIN CTAB
M  V30 COUNTS 10 10 0 0 0
M  V30 BEGIN ATOM
M  V30 1 S 0.0 0.0 0.0 0
M  V30 2 C -1.4406 0.4841 0.0 0
M  V30 3 C 0.8502 1.2281 0.0 0
M  V30 4 C -1.4642 1.9956 0.0 0
M  V30 5 C -2.6687 -0.366 0.0 0
M  V30 6 N -0.0472 2.4562 0.0 0
M  V30 7 C 2.3145 1.2517 0.0 0
M  V30 8 C -2.6923 2.8931 0.0 0
M  V30 9 O -2.6097 -1.8303 0.0 0
M  V30 10 O -3.9795 0.4014 0.0 0
M  V30 END ATOM
M  V30 BEGIN BOND
M  V30 1 1 1 2
M  V30 2 1 1 3
M  V30 3 2 2 4
M  V30 4 1 2 5
M  V30 5 2 3 6
M  V30 6 1 3 7
M  V30 7 1 4 8
M  V30 8 2 5 9
M  V30 9 1 5 10
M  V30 10 1 4 6
M  V30 END BOND
M  V30 END CTAB
M  END
>  <Dotmatics_CR>
R-008812

>  <CR_Set>
Acid

>  <Category>
Carboxylic Acids Aromatic

>  <Reaction type>
Amidation

>  <KI/BB_Nature>
Amine

>  <Comments>


>  <Salt>


>  <CR_Chiral_Form>
Achiral

>  <Prod_total_used>
15

>  <PSR (%)>
87

>  <Article>
2,4-Dimethylthiazole-5-carboxylic acid

>  <CAS>
53137-27-2

>  <Density>
1

>  <Prod_reagent_number>


>  <Stereocenters>
0

>  <NB_Name reaction - KI/BB – Capping>
03-Amidation_Amine_Acid

$$$$
R-005067
Actelion Java MolfileCreator 2.0

  0  0  0  0  0  0              0 V3000
M  V30 BEGIN CTAB
M  V30 COUNTS 10 10 0 0 0
M  V30 BEGIN ATOM
M  V30 1 O 0.0 0.0 0.0 0
M  V30 2 C -0.7831 -1.277 0.0 0
M  V30 3 O -0.0481 -2.542 0.0 0
M  V30 4 C -2.3252 -1.2529 0.0 0
M  V30 5 C -3.2047 -2.4336 0.0 0
M  V30 6 C -3.2047 -0.024 0.0 0
M  V30 7 O -4.6624 -1.9396 0.0 0
M  V30 8 C -2.7589 -3.8311 0.0 0
M  V30 9 N -4.6624 -0.4698 0.0 0
M  V30 10 C -2.7589 1.4216 0.0 0
M  V30 END ATOM
M  V30 BEGIN BOND
M  V30 1 2 1 2
M  V30 2 1 2 3
M  V30 3 1 2 4
M  V30 4 2 4 5
M  V30 5 1 4 6
M  V30 6 1 5 7
M  V30 7 1 5 8
M  V30 8 2 6 9
M  V30 9 1 6 10
M  V30 10 1 7 9
M  V30 END BOND
M  V30 END CTAB
M  END
>  <Dotmatics_CR>
R-005067

>  <CR_Set>
Acid

>  <Category>
Carboxylic Acids Aromatic

>  <Reaction type>
Amidation

>  <KI/BB_Nature>
Amine

>  <Comments>


>  <Salt>


>  <CR_Chiral_Form>
Achiral

>  <Prod_total_used>
61

>  <PSR (%)>
84

>  <Article>
3,5-dimethylisoxazole-4-carboxylic acid

>  <CAS>
2510-36-3

>  <Density>
1

>  <Prod_reagent_number>


>  <Stereocenters>
0

>  <NB_Name reaction - KI/BB – Capping>
03-Amidation_Amine_Acid

$$$$
R-006412
Actelion Java MolfileCreator 2.0

  0  0  0  0  0  0              0 V3000
M  V30 BEGIN CTAB
M  V30 COUNTS 10 10 0 0 0
M  V30 BEGIN ATOM
M  V30 1 O 0.0 0.0 0.0 0
M  V30 2 C -0.0238 -1.4756 0.0 0
M  V30 3 O 1.2495 -2.2015 0.0 0
M  V30 4 C -1.3447 -2.2015 0.0 0
M  V30 5 C -2.6656 -1.428 0.0 0
M  V30 6 C -1.3685 -3.6772 0.0 0
M  V30 7 O -2.6894 0.0952 0.0 0
M  V30 8 C -3.9866 -2.1539 0.0 0
M  V30 9 N -2.6894 -4.4031 0.0 0
M  V30 10 C -4.0104 -3.6296 0.0 0
M  V30 END ATOM
M  V30 BEGIN BOND
M  V30 1 2 1 2
M  V30 2 1 2 3
M  V30 3 1 2 4
M  V30 4 2 4 5
M  V30 5 1 4 6
M  V30 6 1 5 7
M  V30 7 1 5 8
M  V30 8 2 6 9
M  V30 9 2 8 10
M  V30 10 1 9 10
M  V30 END BOND
M  V30 END CTAB
M  END
>  <Dotmatics_CR>
R-006412

>  <CR_Set>
Acid

>  <Category>
Carboxylic Acids Aromatic

>  <Reaction type>
Amidation

>  <KI/BB_Nature>
Amine

>  <Comments>


>  <Salt>


>  <CR_Chiral_Form>
Achiral

>  <Prod_total_used>
25

>  <PSR (%)>
92

>  <Article>
4-HYDROXYNICOTINIC ACID

>  <CAS>
609-70-1

>  <Density>
1

>  <Prod_reagent_number>


>  <Stereocenters>
0

>  <NB_Name reaction - KI/BB – Capping>
03-Amidation_Amine_Acid

$$$$
R-011822
Actelion Java MolfileCreator 2.0

  0  0  0  0  0  0              0 V3000
M  V30 BEGIN CTAB
M  V30 COUNTS 10 10 0 0 0
M  V30 BEGIN ATOM
M  V30 1 O 0.0 0.0 0.0 0
M  V30 2 C -1.088 0.6479 0.0 0
M  V30 3 O -2.1761 0.0489 0.0 0
M  V30 4 C -1.1125 2.2128 0.0 0
M  V30 5 N -2.4695 3.0074 0.0 0
M  V30 6 C -2.494 4.5723 0.0 0
M  V30 7 C -3.8266 2.2617 0.0 0
M  V30 8 C -3.851 5.3548 0.0 0
M  V30 9 C -5.1836 3.0563 0.0 0
M  V30 10 O -5.208 4.609 0.0 0
M  V30 END ATOM
M  V30 BEGIN BOND
M  V30 1 2 1 2
M  V30 2 1 2 3
M  V30 3 1 2 4
M  V30 4 1 4 5
M  V30 5 1 5 6
M  V30 6 1 5 7
M  V30 7 1 6 8
M  V30 8 1 7 9
M  V30 9 1 8 10
M  V30 10 1 9 10
M  V30 END BOND
M  V30 END CTAB
M  END
>  <Dotmatics_CR>
R-011822

>  <CR_Set>
Acid

>  <Category>
Carboxylic Acids Non-Aromatic

>  <Reaction type>
Amidation

>  <KI/BB_Nature>
Amine

>  <Comments>


>  <Salt>


>  <CR_Chiral_Form>
Achiral

>  <Prod_total_used>
16

>  <PSR (%)>
75

>  <Article>
2-morpholinoacetic acid

>  <CAS>
3235-69-6

>  <Density>
1

>  <Prod_reagent_number>


>  <Stereocenters>
0

>  <NB_Name reaction - KI/BB – Capping>
03-Amidation_Amine_Acid

$$$$
R-009923
Actelion Java MolfileCreator 2.0

  0  0  0  0  0  0              0 V3000
M  V30 BEGIN CTAB
M  V30 COUNTS 10 10 0 0 0
M  V30 BEGIN ATOM
M  V30 1 O 0.0 0.0 0.0 0
M  V30 2 C -0.0118 -1.4971 0.0 0
M  V30 3 N 1.2832 -2.2338 0.0 0
M  V30 4 C -1.3308 -2.2338 0.0 0
M  V30 5 C 1.2714 -3.731 0.0 0
M  V30 6 C -1.3426 -3.731 0.0 0
M  V30 7 C 2.5665 -4.4796 0.0 0
M  V30 8 C -0.0475 -4.4796 0.0 0
M  V30 9 O 2.5546 -5.9767 0.0 0
M  V30 10 O 3.8617 -3.7191 0.0 0
M  V30 END ATOM
M  V30 BEGIN BOND
M  V30 1 2 1 2
M  V30 2 1 2 3
M  V30 3 1 2 4
M  V30 4 1 3 5
M  V30 5 2 4 6
M  V30 6 1 5 7
M  V30 7 2 5 8
M  V30 8 2 7 9
M  V30 9 1 7 10
M  V30 10 1 6 8
M  V30 END BOND
M  V30 END CTAB
M  END
>  <Dotmatics_CR>
R-009923

>  <CR_Set>
Acid

>  <Category>
Carboxylic Acids Aromatic

>  <Reaction type>
Amidation

>  <KI/BB_Nature>
Amine

>  <Comments>


>  <Salt>


>  <CR_Chiral_Form>
Achiral

>  <Prod_total_used>
6

>  <PSR (%)>
100

>  <Article>
1,6-dihydro-6-oxo-2-pyridinecarboxylic acid

>  <CAS>
19621-92-2

>  <Density>
1

>  <Prod_reagent_number>


>  <Stereocenters>
0

>  <NB_Name reaction - KI/BB – Capping>
03-Amidation_Amine_Acid

$$$$
R-009811
Actelion Java MolfileCreator 2.0

  0  0  0  0  0  0              0 V3000
M  V30 BEGIN CTAB
M  V30 COUNTS 10 10 0 0 0
M  V30 BEGIN ATOM
M  V30 1 O 0.0 0.0 0.0 0
M  V30 2 C -0.0237 -1.4833 0.0 0
M  V30 3 O -1.3527 -2.219 0.0 0
M  V30 4 C 1.2578 -2.219 0.0 0
M  V30 5 C 2.5394 -1.4477 0.0 0
M  V30 6 O 3.8922 -2.041 0.0 0
M  V30 7 C 2.6699 0.0711 0.0 0
M  V30 8 N 4.8771 -0.9018 0.0 0
M  V30 9 C 4.1176 0.4034 0.0 0
M  V30 10 C 4.7109 1.8037 0.0 0
M  V30 END ATOM
M  V30 BEGIN BOND
M  V30 1 2 1 2
M  V30 2 1 2 3
M  V30 3 1 2 4
M  V30 4 1 4 5
M  V30 5 1 5 6
M  V30 6 2 5 7
M  V30 7 1 6 8
M  V30 8 1 7 9
M  V30 9 1 9 10
M  V30 10 2 8 9
M  V30 END BOND
M  V30 END CTAB
M  END
>  <Dotmatics_CR>
R-009811

>  <CR_Set>
Acid

>  <Category>
Carboxylic Acids Non-Aromatic

>  <Reaction type>
Amidation

>  <KI/BB_Nature>
Amine

>  <Comments>


>  <Salt>


>  <CR_Chiral_Form>
Achiral

>  <Prod_total_used>
113

>  <PSR (%)>
84

>  <Article>
3-Methyl-5-isoxazoleacetic acid

>  <CAS>
19668-85-0

>  <Density>
1

>  <Prod_reagent_number>
C032

>  <Stereocenters>
0

>  <NB_Name reaction - KI/BB – Capping>
03-Amidation_Amine_Acid

$$$$
R-009170
Actelion Java MolfileCreator 2.0

  0  0  0  0  0  0              0 V3000
M  V30 BEGIN CTAB
M  V30 COUNTS 10 9 0 0 0
M  V30 BEGIN ATOM
M  V30 1 O 0.0 0.0 0.0 0
M  V30 2 C -0.0237 -1.473 0.0 0
M  V30 3 O 1.2473 -2.1976 0.0 0
M  V30 4 C -1.3423 -2.1976 0.0 0
M  V30 5 C -2.6609 -1.4254 0.0 0
M  V30 6 C -3.9795 -2.1501 0.0 0
M  V30 7 O -4.0032 -3.6231 0.0 0
M  V30 8 N -5.298 -1.3779 0.0 0
M  V30 9 C -6.6166 -2.1026 0.0 0
M  V30 10 C -5.3218 0.1425 0.0 0
M  V30 END ATOM
M  V30 BEGIN BOND
M  V30 1 2 1 2
M  V30 2 1 2 3
M  V30 3 1 2 4
M  V30 4 1 4 5
M  V30 5 1 5 6
M  V30 6 2 6 7
M  V30 7 1 6 8
M  V30 8 1 8 9
M  V30 9 1 8 10
M  V30 END BOND
M  V30 END CTAB
M  END
>  <Dotmatics_CR>
R-009170

>  <CR_Set>
Acid

>  <Category>
Carboxylic Acids Non-Aromatic

>  <Reaction type>
Amidation

>  <KI/BB_Nature>
Amine

>  <Comments>


>  <Salt>


>  <CR_Chiral_Form>
Achiral

>  <Prod_total_used>
62

>  <PSR (%)>
97

>  <Article>
4-(Dimethylamino)-4-oxobutanoic acid

>  <CAS>
2564-95-6

>  <Density>
1

>  <Prod_reagent_number>
C033

>  <Stereocenters>
0

>  <NB_Name reaction - KI/BB – Capping>
03-Amidation_Amine_Acid

$$$$
R-010196
Actelion Java MolfileCreator 2.0

  0  0  0  0  0  0              0 V3000
M  V30 BEGIN CTAB
M  V30 COUNTS 11 10 0 0 0
M  V30 BEGIN ATOM
M  V30 1 O 0.0 0.0 0.0 0
M  V30 2 C -0.0232 -1.4672 0.0 0
M  V30 3 O 1.246 -2.2009 0.0 0
M  V30 4 C -1.3391 -2.2009 0.0 0
M  V30 5 C -2.655 -1.4207 0.0 0
M  V30 6 C -3.9709 -2.1427 0.0 0
M  V30 7 C -5.2868 -1.3624 0.0 0
M  V30 8 C -6.6027 -2.0961 0.0 0
M  V30 9 O -7.9186 -2.8064 0.0 0
M  V30 10 C -7.9186 -1.3158 0.0 0
M  V30 11 C -6.626 -3.5634 0.0 0
M  V30 END ATOM
M  V30 BEGIN BOND
M  V30 1 2 1 2
M  V30 2 1 2 3
M  V30 3 1 2 4
M  V30 4 1 4 5
M  V30 5 1 5 6
M  V30 6 1 6 7
M  V30 7 1 7 8
M  V30 8 1 8 9
M  V30 9 1 8 10
M  V30 10 1 8 11
M  V30 END BOND
M  V30 END CTAB
M  END
>  <Dotmatics_CR>
R-010196

>  <CR_Set>
Acid

>  <Category>
Carboxylic Acids Non-Aromatic

>  <Reaction type>
Amidation

>  <KI/BB_Nature>
Amine

>  <Comments>


>  <Salt>


>  <CR_Chiral_Form>
Achiral

>  <Prod_total_used>
6

>  <PSR (%)>
100

>  <Article>
Heptanoic acid, 6-hydroxy-6-methyl-

>  <CAS>
1191893-34-1

>  <Density>
1.048

>  <Prod_reagent_number>


>  <Stereocenters>
0

>  <NB_Name reaction - KI/BB – Capping>
03-Amidation_Amine_Acid

$$$$
R-009926
Actelion Java MolfileCreator 2.0

  0  0  0  0  0  0              0 V3000
M  V30 BEGIN CTAB
M  V30 COUNTS 11 10 0 0 0
M  V30 BEGIN ATOM
M  V30 1 O 0.0 0.0 0.0 0
M  V30 2 C -0.0234 -1.4784 0.0 0
M  V30 3 O 1.2555 -2.1942 0.0 0
M  V30 4 C -1.3494 -2.1942 0.0 0
M  V30 5 N -1.3728 -3.6727 0.0 0
M  V30 6 C -2.6753 -1.4198 0.0 0
M  V30 7 N -2.6988 -4.3885 0.0 0
M  V30 8 C -4.0013 -2.1355 0.0 0
M  V30 9 C -4.0247 -3.614 0.0 0
M  V30 10 O -5.3507 -4.3298 0.0 0
M  V30 11 O 2.159 -4.9752 0.0 0
M  V30 END ATOM
M  V30 BEGIN BOND
M  V30 1 2 1 2
M  V30 2 1 2 3
M  V30 3 1 2 4
M  V30 4 2 4 5
M  V30 5 1 4 6
M  V30 6 1 5 7
M  V30 7 2 6 8
M  V30 8 2 7 9
M  V30 9 1 9 10
M  V30 10 1 8 9
M  V30 END BOND
M  V30 END CTAB
M  END
>  <Dotmatics_CR>
R-009926

>  <CR_Set>
Acid

>  <Category>
Carboxylic Acids Non-Aromatic

>  <Reaction type>
Amidation

>  <KI/BB_Nature>
Amine

>  <Comments>


>  <Salt>


>  <CR_Chiral_Form>
Achiral

>  <Prod_total_used>
19

>  <PSR (%)>
79

>  <Article>
6-Hydroxy-3-pyridazinecarboxylic acid monohydrate

>  <CAS>
306934-80-5

>  <Density>
1

>  <Prod_reagent_number>


>  <Stereocenters>
0

>  <NB_Name reaction - KI/BB – Capping>
03-Amidation_Amine_Acid

$$$$
R-003326
Actelion Java MolfileCreator 2.0

  0  0  0  0  0  0              0 V3000
M  V30 BEGIN CTAB
M  V30 COUNTS 11 10 0 0 0
M  V30 BEGIN ATOM
M  V30 1 Cl 0.0 0.0 0.0 0
M  V30 2 O 6.4605 3.3252 0.0 0
M  V30 3 C 6.4248 1.8526 0.0 0
M  V30 4 O 7.6837 1.1163 0.0 0
M  V30 5 C 5.1066 1.14 0.0 0
M  V30 6 C 3.8121 1.912 0.0 0
M  V30 7 C 2.5058 1.1875 0.0 0
M  V30 8 C 3.7884 3.4321 0.0 0
M  V30 9 N 1.1994 1.9595 0.0 0
M  V30 10 C 2.482 4.204 0.0 0
M  V30 11 C 1.1757 3.4796 0.0 0
M  V30 END ATOM
M  V30 BEGIN BOND
M  V30 1 2 2 3
M  V30 2 1 3 4
M  V30 3 1 3 5
M  V30 4 1 5 6
M  V30 5 2 6 7
M  V30 6 1 6 8
M  V30 7 1 7 9
M  V30 8 2 8 10
M  V30 9 2 9 11
M  V30 10 1 10 11
M  V30 END BOND
M  V30 END CTAB
M  END
>  <Dotmatics_CR>
R-003326

>  <CR_Set>
Acid

>  <Category>
Carboxylic Acids Non-Aromatic

>  <Reaction type>
Amidation

>  <KI/BB_Nature>
Amine

>  <Comments>


>  <Salt>
HCl

>  <CR_Chiral_Form>
Achiral

>  <Prod_total_used>
36

>  <PSR (%)>
81

>  <Article>
3-PYRIDYLACETIC ACID HYDROCHLORIDE

>  <CAS>
6419-36-9

>  <Density>
1

>  <Prod_reagent_number>


>  <Stereocenters>
0

>  <NB_Name reaction - KI/BB – Capping>
03-Amidation_Amine_Acid

$$$$
R-000493
Actelion Java MolfileCreator 2.0

  0  0  0  0  0  0              0 V3000
M  V30 BEGIN CTAB
M  V30 COUNTS 11 10 0 0 0
M  V30 BEGIN ATOM
M  V30 1 Cl 0.0 0.0 0.0 0
M  V30 2 O -1.3166 4.1381 0.0 0
M  V30 3 C -1.3401 2.6568 0.0 0
M  V30 4 O -0.0587 1.9397 0.0 0
M  V30 5 C -2.6686 1.9397 0.0 0
M  V30 6 C -3.997 2.7156 0.0 0
M  V30 7 C -2.6921 0.4584 0.0 0
M  V30 8 C -5.3254 1.9985 0.0 0
M  V30 9 N -4.0205 -0.2586 0.0 0
M  V30 10 C -5.349 0.5172 0.0 0
M  V30 11 C -4.044 -1.7398 0.0 0
M  V30 END ATOM
M  V30 BEGIN BOND
M  V30 1 2 2 3
M  V30 2 1 3 4
M  V30 3 1 3 5
M  V30 4 2 5 6
M  V30 5 1 5 7
M  V30 6 1 6 8
M  V30 7 1 7 9
M  V30 8 1 8 10
M  V30 9 1 9 11
M  V30 10 1 9 10
M  V30 END BOND
M  V30 END CTAB
M  END
>  <Dotmatics_CR>
R-000493

>  <CR_Set>
Acid

>  <Category>
Carboxylic Acids Non-Aromatic

>  <Reaction type>
Amidation

>  <KI/BB_Nature>
Amine

>  <Comments>


>  <Salt>
HCl

>  <CR_Chiral_Form>
Achiral

>  <Prod_total_used>
17

>  <PSR (%)>
88

>  <Article>
arecaidine hydrochloride

>  <CAS>
6018-28-6

>  <Density>
1

>  <Prod_reagent_number>


>  <Stereocenters>
0

>  <NB_Name reaction - KI/BB – Capping>
03-Amidation_Amine_Acid

$$$$
R-008823
Actelion Java MolfileCreator 2.0

  0  0  0  0  0  0              0 V3000
M  V30 BEGIN CTAB
M  V30 COUNTS 11 10 0 0 0
M  V30 BEGIN ATOM
M  V30 1 F 0.0 0.0 0.0 0
M  V30 2 C 1.2857 0.769 0.0 0
M  V30 3 F 1.2617 2.3072 0.0 0
M  V30 4 F 2.5715 1.5381 0.0 0
M  V30 5 C 2.5715 0.036 0.0 0
M  V30 6 O 2.5475 -1.454 0.0 0
M  V30 7 N 3.8573 0.8051 0.0 0
M  V30 8 C 5.1431 0.0721 0.0 0
M  V30 9 C 6.4289 0.8411 0.0 0
M  V30 10 O 6.4048 2.3793 0.0 0
M  V30 11 O 7.7147 0.1081 0.0 0
M  V30 END ATOM
M  V30 BEGIN BOND
M  V30 1 1 1 2
M  V30 2 1 2 3
M  V30 3 1 2 4
M  V30 4 1 2 5
M  V30 5 2 5 6
M  V30 6 1 5 7
M  V30 7 1 7 8
M  V30 8 1 8 9
M  V30 9 2 9 10
M  V30 10 1 9 11
M  V30 END BOND
M  V30 END CTAB
M  END
>  <Dotmatics_CR>
R-008823

>  <CR_Set>
Acid

>  <Category>
Carboxylic Acids Non-Aromatic

>  <Reaction type>
Amidation

>  <KI/BB_Nature>
Amine

>  <Comments>


>  <Salt>


>  <CR_Chiral_Form>
Achiral

>  <Prod_total_used>
26

>  <PSR (%)>
100

>  <Article>
N-(Trifluoroacetyl)glycine

>  <CAS>
383-70-0

>  <Density>
1

>  <Prod_reagent_number>


>  <Stereocenters>
0

>  <NB_Name reaction - KI/BB – Capping>
03-Amidation_Amine_Acid

$$$$
R-004945
Actelion Java MolfileCreator 2.0

  0  0  0  0  0  0              0 V3000
M  V30 BEGIN CTAB
M  V30 COUNTS 11 9 0 0 0
M  V30 BEGIN ATOM
M  V30 1 Cl 0.0 0.0 0.0 0
M  V30 2 O -5.734 -3.2492 0.0 0
M  V30 3 C -5.9729 -1.7202 0.0 0
M  V30 4 O -7.287 -1.0154 0.0 0
M  V30 5 C -4.8261 -0.7884 0.0 0
M  V30 6 C -3.4284 -1.3379 0.0 0
M  V30 7 N -2.2577 -0.3822 0.0 0
M  V30 8 C -0.8839 -0.9317 0.0 0
M  V30 9 C -2.4967 1.1468 0.0 0
M  V30 10 C -0.7287 -2.3891 0.0 0
M  V30 11 C -1.3498 2.0785 0.0 0
M  V30 END ATOM
M  V30 BEGIN BOND
M  V30 1 2 2 3
M  V30 2 1 3 4
M  V30 3 1 3 5
M  V30 4 1 5 6
M  V30 5 1 6 7
M  V30 6 1 7 8
M  V30 7 1 7 9
M  V30 8 1 8 10
M  V30 9 1 9 11
M  V30 END BOND
M  V30 END CTAB
M  END
>  <Dotmatics_CR>
R-004945

>  <CR_Set>
Acid

>  <Category>
Carboxylic Acids Non-Aromatic

>  <Reaction type>
Amidation

>  <KI/BB_Nature>
Amine

>  <Comments>


>  <Salt>
HCl

>  <CR_Chiral_Form>
Achiral

>  <Prod_total_used>
6

>  <PSR (%)>
83

>  <Article>
3-DIETHYLAMINOPROPIONIC ACID (HYDROCHLORIDE)

>  <CAS>
15674-67-6

>  <Density>
1

>  <Prod_reagent_number>


>  <Stereocenters>
0

>  <NB_Name reaction - KI/BB – Capping>
03-Amidation_Amine_Acid

$$$$
R-004500
Actelion Java MolfileCreator 2.0

  0  0  0  0  0  0              0 V3000
M  V30 BEGIN CTAB
M  V30 COUNTS 11 11 0 0 0
M  V30 BEGIN ATOM
M  V30 1 O 0.0 0.0 0.0 0
M  V30 2 C 1.3238 -0.7801 0.0 0
M  V30 3 O 2.624 -0.1418 0.0 0
M  V30 4 C 1.3238 -2.2694 0.0 0
M  V30 5 C 0.0 -3.0259 0.0 0
M  V30 6 C 0.0 -4.5153 0.0 0
M  V30 7 C -1.3356 -5.26 0.0 0
M  V30 8 C 1.3002 -5.26 0.0 0
M  V30 9 C -1.3593 -6.7493 0.0 0
M  V30 10 C 1.2765 -6.7493 0.0 0
M  V30 11 C -0.0709 -7.4704 0.0 0
M  V30 END ATOM
M  V30 BEGIN BOND
M  V30 1 2 1 2
M  V30 2 1 2 3
M  V30 3 1 2 4
M  V30 4 1 4 5
M  V30 5 1 5 6
M  V30 6 2 6 7
M  V30 7 1 6 8
M  V30 8 1 7 9
M  V30 9 2 8 10
M  V30 10 2 9 11
M  V30 11 1 10 11
M  V30 END BOND
M  V30 END CTAB
M  END
>  <Dotmatics_CR>
R-004500

>  <CR_Set>
Acid

>  <Category>
Carboxylic Acids Non-Aromatic

>  <Reaction type>
Amidation

>  <KI/BB_Nature>
Amine

>  <Comments>


>  <Salt>


>  <CR_Chiral_Form>
Achiral

>  <Prod_total_used>
8

>  <PSR (%)>
100

>  <Article>
HYDROCINNAMIC ACID (3-PHENYLPROPIONIC ACID)

>  <CAS>
501-52-0

>  <Density>
1.071

>  <Prod_reagent_number>
C034

>  <Stereocenters>
0

>  <NB_Name reaction - KI/BB – Capping>
03-Amidation_Amine_Acid

$$$$
R-004891
Actelion Java MolfileCreator 2.0

  0  0  0  0  0  0              0 V3000
M  V30 BEGIN CTAB
M  V30 COUNTS 11 11 0 0 0
M  V30 BEGIN ATOM
M  V30 1 O 0.0 0.0 0.0 0
M  V30 2 C 1.2614 0.7616 0.0 0
M  V30 3 O 2.5229 0.0357 0.0 0
M  V30 4 C 1.2376 2.273 0.0 0
M  V30 5 C 2.4991 3.0465 0.0 0
M  V30 6 C 2.4753 4.5579 0.0 0
M  V30 7 C 1.1662 5.3315 0.0 0
M  V30 8 C 3.7487 5.3315 0.0 0
M  V30 9 C 1.1424 6.8548 0.0 0
M  V30 10 C 3.7249 6.8548 0.0 0
M  V30 11 C 2.4039 7.6283 0.0 0
M  V30 END ATOM
M  V30 BEGIN BOND
M  V30 1 2 1 2
M  V30 2 1 2 3
M  V30 3 1 2 4
M  V30 4 1 4 5
M  V30 5 1 5 6
M  V30 6 1 6 7
M  V30 7 1 6 8
M  V30 8 1 7 9
M  V30 9 1 8 10
M  V30 10 1 9 11
M  V30 11 1 10 11
M  V30 END BOND
M  V30 END CTAB
M  END
>  <Dotmatics_CR>
R-004891

>  <CR_Set>
Acid

>  <Category>
Carboxylic Acids Non-Aromatic

>  <Reaction type>
Amidation

>  <KI/BB_Nature>
Amine

>  <Comments>


>  <Salt>


>  <CR_Chiral_Form>
Achiral

>  <Prod_total_used>
10

>  <PSR (%)>
90

>  <Article>
3-CYCLOHEXYL PROPIONIC ACID

>  <CAS>
701-97-3

>  <Density>
0.912

>  <Prod_reagent_number>
C035

>  <Stereocenters>
0

>  <NB_Name reaction - KI/BB – Capping>
03-Amidation_Amine_Acid

$$$$
R-006341
Actelion Java MolfileCreator 2.0

  0  0  0  0  0  0              0 V3000
M  V30 BEGIN CTAB
M  V30 COUNTS 11 11 0 0 0
M  V30 BEGIN ATOM
M  V30 1 O 0.0 0.0 0.0 0
M  V30 2 C -0.0237 1.5204 0.0 0
M  V30 3 O 1.2472 2.2806 0.0 0
M  V30 4 C -1.3422 2.2806 0.0 0
M  V30 5 C -2.6607 1.556 0.0 0
M  V30 6 C -2.6844 0.0831 0.0 0
M  V30 7 C -3.9791 2.3162 0.0 0
M  V30 8 C -4.0029 -0.6414 0.0 0
M  V30 9 C -5.2976 1.5916 0.0 0
M  V30 10 C -5.3214 0.1187 0.0 0
M  V30 11 C -4.0267 -2.1143 0.0 0
M  V30 END ATOM
M  V30 BEGIN BOND
M  V30 1 2 1 2
M  V30 2 1 2 3
M  V30 3 1 2 4
M  V30 4 1 4 5
M  V30 5 2 5 6
M  V30 6 1 5 7
M  V30 7 1 6 8
M  V30 8 2 7 9
M  V30 9 2 8 10
M  V30 10 1 8 11
M  V30 11 1 9 10
M  V30 END BOND
M  V30 END CTAB
M  END
>  <Dotmatics_CR>
R-006341

>  <CR_Set>
Acid

>  <Category>
Carboxylic Acids Non-Aromatic

>  <Reaction type>
Amidation

>  <KI/BB_Nature>
Amine

>  <Comments>


>  <Salt>


>  <CR_Chiral_Form>
Achiral

>  <Prod_total_used>
7

>  <PSR (%)>
86

>  <Article>
2-m-tolylacetic acid

>  <CAS>
621-36-3

>  <Density>
1

>  <Prod_reagent_number>


>  <Stereocenters>
0

>  <NB_Name reaction - KI/BB – Capping>
03-Amidation_Amine_Acid

$$$$
R-001449
Actelion Java MolfileCreator 2.0

  0  0  0  0  0  0              0 V3000
M  V30 BEGIN CTAB
M  V30 COUNTS 11 11 0 0 0
M  V30 BEGIN ATOM
M  V30 1 O 0.0 0.0 0.0 0
M  V30 2 C 1.3418 0.7955 0.0 0
M  V30 3 O 1.4487 2.2799 0.0 0
M  V30 4 C 2.6361 0.0949 0.0 0
M  V30 5 C 2.6361 -1.3893 0.0 0
M  V30 6 C 3.9423 -2.1136 0.0 0
M  V30 7 C 1.3062 -2.1136 0.0 0
M  V30 8 C 3.9067 -3.6098 0.0 0
M  V30 9 C 1.2824 -3.6098 0.0 0
M  V30 10 C 2.5649 -4.3342 0.0 0
M  V30 11 C 2.5174 -5.8304 0.0 0
M  V30 END ATOM
M  V30 BEGIN BOND
M  V30 1 2 1 2
M  V30 2 1 2 3
M  V30 3 1 2 4
M  V30 4 1 4 5
M  V30 5 2 5 6
M  V30 6 1 5 7
M  V30 7 1 6 8
M  V30 8 2 7 9
M  V30 9 2 8 10
M  V30 10 1 10 11
M  V30 11 1 9 10
M  V30 END BOND
M  V30 END CTAB
M  END
>  <Dotmatics_CR>
R-001449

>  <CR_Set>
Acid

>  <Category>
Carboxylic Acids Non-Aromatic

>  <Reaction type>
Amidation

>  <KI/BB_Nature>
Amine

>  <Comments>


>  <Salt>


>  <CR_Chiral_Form>
Achiral

>  <Prod_total_used>
2

>  <PSR (%)>
100

>  <Article>
p-TOLYLACETIC ACID

>  <CAS>
622-47-9

>  <Density>


>  <Prod_reagent_number>
C036

>  <Stereocenters>
0

>  <NB_Name reaction - KI/BB – Capping>
03-Amidation_Amine_Acid

$$$$
R-004881
Actelion Java MolfileCreator 2.0

  0  0  0  0  0  0              0 V3000
M  V30 BEGIN CTAB
M  V30 COUNTS 11 11 0 0 0
M  V30 BEGIN ATOM
M  V30 1 O 0.0 0.0 0.0 0
M  V30 2 C 1.3272 -0.7821 0.0 0
M  V30 3 O 2.6308 -0.1422 0.0 0
M  V30 4 C 1.3272 -2.2753 0.0 0
M  V30 5 C 2.6308 -3.01 0.0 0
M  V30 6 C -0.0118 -3.01 0.0 0
M  V30 7 C 2.5952 -4.5032 0.0 0
M  V30 8 C -0.0355 -4.5032 0.0 0
M  V30 9 C 1.2443 -5.2379 0.0 0
M  V30 10 C 3.8988 -5.2379 0.0 0
M  V30 11 C 1.2206 -6.7311 0.0 0
M  V30 END ATOM
M  V30 BEGIN BOND
M  V30 1 2 1 2
M  V30 2 1 2 3
M  V30 3 1 2 4
M  V30 4 2 4 5
M  V30 5 1 4 6
M  V30 6 1 5 7
M  V30 7 2 6 8
M  V30 8 2 7 9
M  V30 9 1 7 10
M  V30 10 1 9 11
M  V30 11 1 8 9
M  V30 END BOND
M  V30 END CTAB
M  END
>  <Dotmatics_CR>
R-004881

>  <CR_Set>
Acid

>  <Category>
Carboxylic Acids Aromatic

>  <Reaction type>
Amidation

>  <KI/BB_Nature>
Amine

>  <Comments>


>  <Salt>


>  <CR_Chiral_Form>
Achiral

>  <Prod_total_used>
1

>  <PSR (%)>
100

>  <Article>
3,4-DIMETHYLBENZOIC ACID

>  <CAS>
619-04-5

>  <Density>
1

>  <Prod_reagent_number>


>  <Stereocenters>
0

>  <NB_Name reaction - KI/BB – Capping>
03-Amidation_Amine_Acid

$$$$
R-004811
Actelion Java MolfileCreator 2.0

  0  0  0  0  0  0              0 V3000
M  V30 BEGIN CTAB
M  V30 COUNTS 11 11 0 0 0
M  V30 BEGIN ATOM
M  V30 1 Cl 0.0 0.0 0.0 0
M  V30 2 C -0.2347 -1.4788 0.0 0
M  V30 3 C 0.9389 -2.4178 0.0 0
M  V30 4 C -1.6549 -2.0187 0.0 0
M  V30 5 Cl 2.3122 -1.8779 0.0 0
M  V30 6 C 0.7042 -3.8732 0.0 0
M  V30 7 C -1.9131 -3.4976 0.0 0
M  V30 8 C -0.7159 -4.4366 0.0 0
M  V30 9 C -3.3568 -3.9906 0.0 0
M  V30 10 O -3.6619 -5.4695 0.0 0
M  V30 11 O -4.3662 -2.9577 0.0 0
M  V30 END ATOM
M  V30 BEGIN BOND
M  V30 1 1 1 2
M  V30 2 2 2 3
M  V30 3 1 2 4
M  V30 4 1 3 5
M  V30 5 1 3 6
M  V30 6 2 4 7
M  V30 7 2 6 8
M  V30 8 1 7 9
M  V30 9 2 9 10
M  V30 10 1 9 11
M  V30 11 1 7 8
M  V30 END BOND
M  V30 END CTAB
M  END
>  <Dotmatics_CR>
R-004811

>  <CR_Set>
Acid

>  <Category>
Carboxylic Acids Aromatic

>  <Reaction type>
Amidation

>  <KI/BB_Nature>
Amine

>  <Comments>


>  <Salt>


>  <CR_Chiral_Form>
Achiral

>  <Prod_total_used>
2

>  <PSR (%)>
100

>  <Article>
3,4-DICHLOROBENZOIC ACID

>  <CAS>
51-44-5

>  <Density>


>  <Prod_reagent_number>
C037

>  <Stereocenters>
0

>  <NB_Name reaction - KI/BB – Capping>
03-Amidation_Amine_Acid

$$$$
R-003716
Actelion Java MolfileCreator 2.0

  0  0  0  0  0  0              0 V3000
M  V30 BEGIN CTAB
M  V30 COUNTS 11 11 0 0 0
M  V30 BEGIN ATOM
M  V30 1 Cl 0.0 0.0 0.0 0
M  V30 2 C -0.7782 -1.293 0.0 0
M  V30 3 C -0.0359 -2.5741 0.0 0
M  V30 4 C -2.3107 -1.269 0.0 0
M  V30 5 C -0.8141 -3.8312 0.0 0
M  V30 6 C -3.0649 -2.5501 0.0 0
M  V30 7 Cl -0.0718 -5.1123 0.0 0
M  V30 8 C -2.3466 -3.8072 0.0 0
M  V30 9 C -4.5974 -2.5262 0.0 0
M  V30 10 O -5.3757 -1.1972 0.0 0
M  V30 11 O -5.3757 -3.7833 0.0 0
M  V30 END ATOM
M  V30 BEGIN BOND
M  V30 1 1 1 2
M  V30 2 2 2 3
M  V30 3 1 2 4
M  V30 4 1 3 5
M  V30 5 2 4 6
M  V30 6 1 5 7
M  V30 7 2 5 8
M  V30 8 1 6 9
M  V30 9 2 9 10
M  V30 10 1 9 11
M  V30 11 1 6 8
M  V30 END BOND
M  V30 END CTAB
M  END
>  <Dotmatics_CR>
R-003716

>  <CR_Set>
Acid

>  <Category>
Carboxylic Acids Aromatic

>  <Reaction type>
Amidation

>  <KI/BB_Nature>
Amine

>  <Comments>


>  <Salt>


>  <CR_Chiral_Form>
Achiral

>  <Prod_total_used>
7

>  <PSR (%)>
100

>  <Article>
3,5-DICHLOROBENZOIC ACID

>  <CAS>
51-36-5

>  <Density>
1

>  <Prod_reagent_number>


>  <Stereocenters>
0

>  <NB_Name reaction - KI/BB – Capping>
03-Amidation_Amine_Acid

$$$$
R-012056
Actelion Java MolfileCreator 2.0

  0  0  0  0  0  0              0 V3000
M  V30 BEGIN CTAB
M  V30 COUNTS 11 11 0 0 0
M  V30 BEGIN ATOM
M  V30 1 F 0.0 0.0 0.0 0
M  V30 2 C -0.0254 -1.2866 0.0 0
M  V30 3 C -1.4649 -2.0764 0.0 0
M  V30 4 C 1.363 -2.0764 0.0 0
M  V30 5 F -2.6242 -1.4012 0.0 0
M  V30 6 C -1.4904 -3.6815 0.0 0
M  V30 7 C 1.3375 -3.6815 0.0 0
M  V30 8 C -0.1019 -4.4713 0.0 0
M  V30 9 C 2.7261 -4.4713 0.0 0
M  V30 10 O 2.7006 -5.758 0.0 0
M  V30 11 O 3.8344 -3.7962 0.0 0
M  V30 END ATOM
M  V30 BEGIN BOND
M  V30 1 1 1 2
M  V30 2 2 2 3
M  V30 3 1 2 4
M  V30 4 1 3 5
M  V30 5 1 3 6
M  V30 6 2 4 7
M  V30 7 2 6 8
M  V30 8 1 7 9
M  V30 9 2 9 10
M  V30 10 1 9 11
M  V30 11 1 7 8
M  V30 END BOND
M  V30 END CTAB
M  END
>  <Dotmatics_CR>
R-012056

>  <CR_Set>
Acid

>  <Category>
Carboxylic Acids Aromatic

>  <Reaction type>
Amidation

>  <KI/BB_Nature>
Amine

>  <Comments>


>  <Salt>


>  <CR_Chiral_Form>
Achiral

>  <Prod_total_used>
8

>  <PSR (%)>
100

>  <Article>
3,4-difluorobenzoic acid

>  <CAS>
455-86-7

>  <Density>
1

>  <Prod_reagent_number>


>  <Stereocenters>
0

>  <NB_Name reaction - KI/BB – Capping>
03-Amidation_Amine_Acid

$$$$
R-012108
Actelion Java MolfileCreator 2.0

  0  0  0  0  0  0              0 V3000
M  V30 BEGIN CTAB
M  V30 COUNTS 11 11 0 0 0
M  V30 BEGIN ATOM
M  V30 1 F 0.0 0.0 0.0 0
M  V30 2 C -1.118 -0.6479 0.0 0
M  V30 3 F -1.1689 -1.9058 0.0 0
M  V30 4 C -1.1435 0.9783 0.0 0
M  V30 5 C -2.5284 -1.423 0.0 0
M  V30 6 C -2.5538 1.7914 0.0 0
M  V30 7 C -3.9387 -0.5971 0.0 0
M  V30 8 C -3.9641 1.0164 0.0 0
M  V30 9 C -5.3744 1.8296 0.0 0
M  V30 10 O -6.5052 1.207 0.0 0
M  V30 11 O -5.3998 3.1382 0.0 0
M  V30 END ATOM
M  V30 BEGIN BOND
M  V30 1 1 1 2
M  V30 2 1 2 3
M  V30 3 1 2 4
M  V30 4 1 2 5
M  V30 5 1 4 6
M  V30 6 1 5 7
M  V30 7 1 6 8
M  V30 8 1 8 9
M  V30 9 2 9 10
M  V30 10 1 9 11
M  V30 11 1 7 8
M  V30 END BOND
M  V30 END CTAB
M  END
>  <Dotmatics_CR>
R-012108

>  <CR_Set>
Acid

>  <Category>
Carboxylic Acids Non-Aromatic

>  <Reaction type>
Amidation

>  <KI/BB_Nature>
Amine

>  <Comments>


>  <Salt>


>  <CR_Chiral_Form>
Achiral

>  <Prod_total_used>
21

>  <PSR (%)>
76

>  <Article>
4,4-difluorocyclohexanecarboxylic acid

>  <CAS>
122665-97-8

>  <Density>
1

>  <Prod_reagent_number>


>  <Stereocenters>
0

>  <NB_Name reaction - KI/BB – Capping>
03-Amidation_Amine_Acid

$$$$
R-007315
Actelion Java MolfileCreator 2.0

  0  0  0  0  0  0              0 V3000
M  V30 BEGIN CTAB
M  V30 COUNTS 11 11 0 0 0
M  V30 BEGIN ATOM
M  V30 1 F 0.0 0.0 0.0 0
M  V30 2 C -0.0236 1.5132 0.0 0
M  V30 3 C -1.3358 2.2698 0.0 0
M  V30 4 C 1.2413 2.2698 0.0 0
M  V30 5 C -1.3595 3.783 0.0 0
M  V30 6 C 1.2176 3.783 0.0 0
M  V30 7 F -2.6717 4.5515 0.0 0
M  V30 8 C -0.0945 4.5515 0.0 0
M  V30 9 C 2.4826 4.5515 0.0 0
M  V30 10 O 2.4589 6.0647 0.0 0
M  V30 11 O 3.7476 3.8303 0.0 0
M  V30 END ATOM
M  V30 BEGIN BOND
M  V30 1 1 1 2
M  V30 2 2 2 3
M  V30 3 1 2 4
M  V30 4 1 3 5
M  V30 5 2 4 6
M  V30 6 1 5 7
M  V30 7 2 5 8
M  V30 8 1 6 9
M  V30 9 2 9 10
M  V30 10 1 9 11
M  V30 11 1 6 8
M  V30 END BOND
M  V30 END CTAB
M  END
>  <Dotmatics_CR>
R-007315

>  <CR_Set>
Acid

>  <Category>
Carboxylic Acids Aromatic

>  <Reaction type>
Amidation

>  <KI/BB_Nature>
Amine

>  <Comments>


>  <Salt>


>  <CR_Chiral_Form>
Achiral

>  <Prod_total_used>
1

>  <PSR (%)>
100

>  <Article>
3,5-DIFLUOROBENZOIC ACID

>  <CAS>
455-40-3

>  <Density>
1

>  <Prod_reagent_number>


>  <Stereocenters>
0

>  <NB_Name reaction - KI/BB – Capping>
03-Amidation_Amine_Acid

$$$$
R-012142
Actelion Java MolfileCreator 2.0

  0  0  0  0  0  0              0 V3000
M  V30 BEGIN CTAB
M  V30 COUNTS 11 11 0 0 0
M  V30 BEGIN ATOM
M  V30 1 F 0.0 0.0 0.0 0
M  V30 2 C -1.149 -0.6187 0.0 0
M  V30 3 C -1.1743 -2.2097 0.0 0
M  V30 4 C -2.5759 0.2272 0.0 0
M  V30 5 C -2.6012 -3.0053 0.0 0
M  V30 6 C 0.202 -3.0053 0.0 0
M  V30 7 C -4.0028 -0.5682 0.0 0
M  V30 8 F -2.6264 -4.2806 0.0 0
M  V30 9 C -4.0281 -2.1592 0.0 0
M  V30 10 O 0.1767 -4.2806 0.0 0
M  V30 11 O 1.3006 -2.336 0.0 0
M  V30 END ATOM
M  V30 BEGIN BOND
M  V30 1 1 1 2
M  V30 2 2 2 3
M  V30 3 1 2 4
M  V30 4 1 3 5
M  V30 5 1 3 6
M  V30 6 2 4 7
M  V30 7 1 5 8
M  V30 8 2 5 9
M  V30 9 2 6 10
M  V30 10 1 6 11
M  V30 11 1 7 9
M  V30 END BOND
M  V30 END CTAB
M  END
>  <Dotmatics_CR>
R-012142

>  <CR_Set>
Acid

>  <Category>
Carboxylic Acids Aromatic

>  <Reaction type>
Amidation

>  <KI/BB_Nature>
Amine

>  <Comments>


>  <Salt>


>  <CR_Chiral_Form>
Achiral

>  <Prod_total_used>
7

>  <PSR (%)>
71

>  <Article>
2,6-difluorobenzoic acid

>  <CAS>
385-00-2

>  <Density>
1

>  <Prod_reagent_number>


>  <Stereocenters>
0

>  <NB_Name reaction - KI/BB – Capping>
03-Amidation_Amine_Acid

$$$$
R-002036
Actelion Java MolfileCreator 2.0

  0  0  0  0  0  0              0 V3000
M  V30 BEGIN CTAB
M  V30 COUNTS 11 11 0 0 0
M  V30 BEGIN ATOM
M  V30 1 Cl 0.0 0.0 0.0 0
M  V30 2 C -1.3094 0.7549 0.0 0
M  V30 3 C -2.6188 0.0235 0.0 0
M  V30 4 C -1.333 2.2649 0.0 0
M  V30 5 C -2.6424 -1.4391 0.0 0
M  V30 6 C -3.9282 0.8021 0.0 0
M  V30 7 C -2.6424 3.0434 0.0 0
M  V30 8 O -1.3565 -2.1941 0.0 0
M  V30 9 O -3.9754 -2.0289 0.0 0
M  V30 10 C -3.9518 2.3121 0.0 0
M  V30 11 F -2.666 4.5534 0.0 0
M  V30 END ATOM
M  V30 BEGIN BOND
M  V30 1 1 1 2
M  V30 2 2 2 3
M  V30 3 1 2 4
M  V30 4 1 3 5
M  V30 5 1 3 6
M  V30 6 2 4 7
M  V30 7 2 5 8
M  V30 8 1 5 9
M  V30 9 2 6 10
M  V30 10 1 7 11
M  V30 11 1 7 10
M  V30 END BOND
M  V30 END CTAB
M  END
>  <Dotmatics_CR>
R-002036

>  <CR_Set>
Acid

>  <Category>
Carboxylic Acids Aromatic

>  <Reaction type>
Amidation

>  <KI/BB_Nature>
Amine

>  <Comments>


>  <Salt>


>  <CR_Chiral_Form>
Achiral

>  <Prod_total_used>
1

>  <PSR (%)>
100

>  <Article>
2-CHLORO-4-FLUOROBENZOIC ACID

>  <CAS>
2252-51-9

>  <Density>
1

>  <Prod_reagent_number>


>  <Stereocenters>
0

>  <NB_Name reaction - KI/BB – Capping>
03-Amidation_Amine_Acid

$$$$
R-009957
Actelion Java MolfileCreator 2.0

  0  0  0  0  0  0              0 V3000
M  V30 BEGIN CTAB
M  V30 COUNTS 11 11 0 0 0
M  V30 BEGIN ATOM
M  V30 1 S 0.0 0.0 0.0 0
M  V30 2 C 0.1302 1.5158 0.0 0
M  V30 3 C -1.4921 -0.2842 0.0 0
M  V30 4 C -1.2671 2.1553 0.0 0
M  V30 5 C 1.4092 2.2855 0.0 0
M  V30 6 C -2.2618 1.0421 0.0 0
M  V30 7 C 2.6882 1.5631 0.0 0
M  V30 8 C 3.9671 2.3329 0.0 0
M  V30 9 C 5.2461 1.6105 0.0 0
M  V30 10 O 6.5251 2.3803 0.0 0
M  V30 11 O 5.2224 0.1302 0.0 0
M  V30 END ATOM
M  V30 BEGIN BOND
M  V30 1 1 1 2
M  V30 2 1 1 3
M  V30 3 2 2 4
M  V30 4 1 2 5
M  V30 5 2 3 6
M  V30 6 1 5 7
M  V30 7 1 7 8
M  V30 8 1 8 9
M  V30 9 2 9 10
M  V30 10 1 9 11
M  V30 11 1 4 6
M  V30 END BOND
M  V30 END CTAB
M  END
>  <Dotmatics_CR>
R-009957

>  <CR_Set>
Acid

>  <Category>
Carboxylic Acids Non-Aromatic

>  <Reaction type>
Amidation

>  <KI/BB_Nature>
Amine

>  <Comments>


>  <Salt>


>  <CR_Chiral_Form>
Achiral

>  <Prod_total_used>
27

>  <PSR (%)>
81

>  <Article>
4-(2-Thienyl)butyric acid

>  <CAS>
4653-11-6

>  <Density>
1.169

>  <Prod_reagent_number>
C039

>  <Stereocenters>
0

>  <NB_Name reaction - KI/BB – Capping>
03-Amidation_Amine_Acid

$$$$
R-003321
Actelion Java MolfileCreator 2.0

  0  0  0  0  0  0              0 V3000
M  V30 BEGIN CTAB
M  V30 COUNTS 11 11 0 0 0
M  V30 BEGIN ATOM
M  V30 1 Cl 0.0 0.0 0.0 0
M  V30 2 C 1.0937 0.7988 0.0 0
M  V30 3 C 2.3965 0.0368 0.0 0
M  V30 4 C 1.0692 2.3719 0.0 0
M  V30 5 C 3.6992 0.8357 0.0 0
M  V30 6 C 2.3719 3.1584 0.0 0
M  V30 7 C 3.6746 2.4087 0.0 0
M  V30 8 C 4.7807 3.2322 0.0 0
M  V30 9 C 6.1571 2.6054 0.0 0
M  V30 10 O 6.28 1.0937 0.0 0
M  V30 11 O 7.3861 3.5148 0.0 0
M  V30 END ATOM
M  V30 BEGIN BOND
M  V30 1 1 1 2
M  V30 2 2 2 3
M  V30 3 1 2 4
M  V30 4 1 3 5
M  V30 5 2 4 6
M  V30 6 2 5 7
M  V30 7 1 7 8
M  V30 8 1 8 9
M  V30 9 2 9 10
M  V30 10 1 9 11
M  V30 11 1 6 7
M  V30 END BOND
M  V30 END CTAB
M  END
>  <Dotmatics_CR>
R-003321

>  <CR_Set>
Acid

>  <Category>
Carboxylic Acids Non-Aromatic

>  <Reaction type>
Amidation

>  <KI/BB_Nature>
Amine

>  <Comments>


>  <Salt>


>  <CR_Chiral_Form>
Achiral

>  <Prod_total_used>
1

>  <PSR (%)>
100

>  <Article>
4-CHLOROPHENYLACETIC ACID

>  <CAS>
1878-66-6

>  <Density>
1

>  <Prod_reagent_number>


>  <Stereocenters>
0

>  <NB_Name reaction - KI/BB – Capping>
03-Amidation_Amine_Acid

$$$$
R-004837
Actelion Java MolfileCreator 2.0

  0  0  0  0  0  0              0 V3000
M  V30 BEGIN CTAB
M  V30 COUNTS 11 11 0 0 0
M  V30 BEGIN ATOM
M  V30 1 Cl 0.0 0.0 0.0 0
M  V30 2 C -1.2517 -0.7703 0.0 0
M  V30 3 C -2.6118 -0.0722 0.0 0
M  V30 4 C -1.1675 -2.2146 0.0 0
M  V30 5 C -3.8635 -0.8425 0.0 0
M  V30 6 C -2.4433 -2.9849 0.0 0
M  V30 7 C -3.8154 -2.2868 0.0 0
M  V30 8 C -5.2236 -0.1444 0.0 0
M  V30 9 C -5.3199 1.3961 0.0 0
M  V30 10 O -6.7281 2.1424 0.0 0
M  V30 11 O -4.0561 2.0942 0.0 0
M  V30 END ATOM
M  V30 BEGIN BOND
M  V30 1 1 1 2
M  V30 2 2 2 3
M  V30 3 1 2 4
M  V30 4 1 3 5
M  V30 5 2 4 6
M  V30 6 2 5 7
M  V30 7 1 5 8
M  V30 8 1 8 9
M  V30 9 2 9 10
M  V30 10 1 9 11
M  V30 11 1 6 7
M  V30 END BOND
M  V30 END CTAB
M  END
>  <Dotmatics_CR>
R-004837

>  <CR_Set>
Acid

>  <Category>
Carboxylic Acids Non-Aromatic

>  <Reaction type>
Amidation

>  <KI/BB_Nature>
Amine

>  <Comments>


>  <Salt>


>  <CR_Chiral_Form>
Achiral

>  <Prod_total_used>
1

>  <PSR (%)>
100

>  <Article>
3-CHLOROPHENYLACETIC ACID

>  <CAS>
1878-65-5

>  <Density>
1

>  <Prod_reagent_number>


>  <Stereocenters>
0

>  <NB_Name reaction - KI/BB – Capping>
03-Amidation_Amine_Acid

$$$$
R-004859
Actelion Java MolfileCreator 2.0

  0  0  0  0  0  0              0 V3000
M  V30 BEGIN CTAB
M  V30 COUNTS 11 11 0 0 0
M  V30 BEGIN ATOM
M  V30 1 Cl 0.0 0.0 0.0 0
M  V30 2 C 0.1891 -1.4655 0.0 0
M  V30 3 C 1.5719 -2.0092 0.0 0
M  V30 4 C -1.0401 -2.3638 0.0 0
M  V30 5 C 1.7256 -3.4985 0.0 0
M  V30 6 C 2.7539 -1.0637 0.0 0
M  V30 7 C -0.8864 -3.853 0.0 0
M  V30 8 C 0.4964 -4.3967 0.0 0
M  V30 9 C 4.1367 -1.6074 0.0 0
M  V30 10 O 5.3896 -0.6618 0.0 0
M  V30 11 O 4.1131 -3.0493 0.0 0
M  V30 END ATOM
M  V30 BEGIN BOND
M  V30 1 1 1 2
M  V30 2 2 2 3
M  V30 3 1 2 4
M  V30 4 1 3 5
M  V30 5 1 3 6
M  V30 6 2 4 7
M  V30 7 2 5 8
M  V30 8 1 6 9
M  V30 9 2 9 10
M  V30 10 1 9 11
M  V30 11 1 7 8
M  V30 END BOND
M  V30 END CTAB
M  END
>  <Dotmatics_CR>
R-004859

>  <CR_Set>
Acid

>  <Category>
Carboxylic Acids Non-Aromatic

>  <Reaction type>
Amidation

>  <KI/BB_Nature>
Amine

>  <Comments>


>  <Salt>


>  <CR_Chiral_Form>
Achiral

>  <Prod_total_used>
1

>  <PSR (%)>
100

>  <Article>
2-CHLOROPHENYLACETIC ACID

>  <CAS>
2444-36-2

>  <Density>
1

>  <Prod_reagent_number>


>  <Stereocenters>
0

>  <NB_Name reaction - KI/BB – Capping>
03-Amidation_Amine_Acid

$$$$
R-009945
Actelion Java MolfileCreator 2.0

  0  0  0  0  0  0              0 V3000
M  V30 BEGIN CTAB
M  V30 COUNTS 11 11 0 0 0
M  V30 BEGIN ATOM
M  V30 1 F 0.0 0.0 0.0 0
M  V30 2 C -1.3056 0.7528 0.0 0
M  V30 3 C -1.3292 2.2584 0.0 0
M  V30 4 C -2.6113 0.0352 0.0 0
M  V30 5 C -2.6348 3.023 0.0 0
M  V30 6 C -3.917 0.7881 0.0 0
M  V30 7 C -2.6584 4.5287 0.0 0
M  V30 8 C -3.9405 2.3055 0.0 0
M  V30 9 C -5.2227 0.0705 0.0 0
M  V30 10 O -3.964 5.2815 0.0 0
M  V30 11 O -1.3997 5.2815 0.0 0
M  V30 END ATOM
M  V30 BEGIN BOND
M  V30 1 1 1 2
M  V30 2 2 2 3
M  V30 3 1 2 4
M  V30 4 1 3 5
M  V30 5 2 4 6
M  V30 6 1 5 7
M  V30 7 2 5 8
M  V30 8 1 6 9
M  V30 9 2 7 10
M  V30 10 1 7 11
M  V30 11 1 6 8
M  V30 END BOND
M  V30 END CTAB
M  END
>  <Dotmatics_CR>
R-009945

>  <CR_Set>
Acid

>  <Category>
Carboxylic Acids Aromatic

>  <Reaction type>
Amidation

>  <KI/BB_Nature>
Amine

>  <Comments>


>  <Salt>


>  <CR_Chiral_Form>
Achiral

>  <Prod_total_used>
11

>  <PSR (%)>
82

>  <Article>
3-Fluoro-5-methylbenzoic acid

>  <CAS>
518070-19-4

>  <Density>
1

>  <Prod_reagent_number>


>  <Stereocenters>
0

>  <NB_Name reaction - KI/BB – Capping>
03-Amidation_Amine_Acid

$$$$
R-002837
Actelion Java MolfileCreator 2.0

  0  0  0  0  0  0              0 V3000
M  V30 BEGIN CTAB
M  V30 COUNTS 11 11 0 0 0
M  V30 BEGIN ATOM
M  V30 1 F 0.0 0.0 0.0 0
M  V30 2 C 1.2854 0.7688 0.0 0
M  V30 3 C 2.5708 0.036 0.0 0
M  V30 4 C 1.2614 2.3065 0.0 0
M  V30 5 C 3.8563 0.8049 0.0 0
M  V30 6 C 2.5468 3.0754 0.0 0
M  V30 7 C 3.8322 2.3426 0.0 0
M  V30 8 C 5.1177 3.1114 0.0 0
M  V30 9 C 6.4031 2.3786 0.0 0
M  V30 10 O 6.3791 0.8889 0.0 0
M  V30 11 O 7.6886 3.1595 0.0 0
M  V30 END ATOM
M  V30 BEGIN BOND
M  V30 1 1 1 2
M  V30 2 2 2 3
M  V30 3 1 2 4
M  V30 4 1 3 5
M  V30 5 2 4 6
M  V30 6 2 5 7
M  V30 7 1 7 8
M  V30 8 1 8 9
M  V30 9 2 9 10
M  V30 10 1 9 11
M  V30 11 1 6 7
M  V30 END BOND
M  V30 END CTAB
M  END
>  <Dotmatics_CR>
R-002837

>  <CR_Set>
Acid

>  <Category>
Carboxylic Acids Non-Aromatic

>  <Reaction type>
Amidation

>  <KI/BB_Nature>
Amine

>  <Comments>


>  <Salt>


>  <CR_Chiral_Form>
Achiral

>  <Prod_total_used>
8

>  <PSR (%)>
88

>  <Article>
2-(4-fluorophenyl)acetic acid

>  <CAS>
405-50-5

>  <Density>
1

>  <Prod_reagent_number>
C040

>  <Stereocenters>
0

>  <NB_Name reaction - KI/BB – Capping>
03-Amidation_Amine_Acid

$$$$
R-003259
Actelion Java MolfileCreator 2.0

  0  0  0  0  0  0              0 V3000
M  V30 BEGIN CTAB
M  V30 COUNTS 11 11 0 0 0
M  V30 BEGIN ATOM
M  V30 1 F 0.0 0.0 0.0 0
M  V30 2 C 1.2932 -0.7304 0.0 0
M  V30 3 C 2.5745 0.0598 0.0 0
M  V30 4 C 1.2692 -2.2272 0.0 0
M  V30 5 C 3.8677 -0.6825 0.0 0
M  V30 6 C 2.5505 1.5926 0.0 0
M  V30 7 C 2.5505 -2.9576 0.0 0
M  V30 8 C 3.8438 -2.1793 0.0 0
M  V30 9 C 3.8318 2.3709 0.0 0
M  V30 10 O 3.8078 3.9036 0.0 0
M  V30 11 O 5.1131 1.6405 0.0 0
M  V30 END ATOM
M  V30 BEGIN BOND
M  V30 1 1 1 2
M  V30 2 2 2 3
M  V30 3 1 2 4
M  V30 4 1 3 5
M  V30 5 1 3 6
M  V30 6 2 4 7
M  V30 7 2 5 8
M  V30 8 1 6 9
M  V30 9 2 9 10
M  V30 10 1 9 11
M  V30 11 1 7 8
M  V30 END BOND
M  V30 END CTAB
M  END
>  <Dotmatics_CR>
R-003259

>  <CR_Set>
Acid

>  <Category>
Carboxylic Acids Non-Aromatic

>  <Reaction type>
Amidation

>  <KI/BB_Nature>
Amine

>  <Comments>


>  <Salt>


>  <CR_Chiral_Form>
Achiral

>  <Prod_total_used>
1

>  <PSR (%)>
100

>  <Article>
2-FLUOROPHENYLACETIC ACID

>  <CAS>
451-82-1

>  <Density>
1

>  <Prod_reagent_number>


>  <Stereocenters>
0

>  <NB_Name reaction - KI/BB – Capping>
03-Amidation_Amine_Acid

$$$$
R-009810
Actelion Java MolfileCreator 2.0

  0  0  0  0  0  0              0 V3000
M  V30 BEGIN CTAB
M  V30 COUNTS 11 11 0 0 0
M  V30 BEGIN ATOM
M  V30 1 Br 0.0 0.0 0.0 0
M  V30 2 C -0.0236 1.5137 0.0 0
M  V30 3 C 1.2417 2.2706 0.0 0
M  V30 4 C -1.3363 2.2706 0.0 0
M  V30 5 C 1.2181 3.7844 0.0 0
M  V30 6 C -1.36 3.7844 0.0 0
M  V30 7 C -0.0946 4.5413 0.0 0
M  V30 8 C 2.4835 4.5413 0.0 0
M  V30 9 C -0.1182 6.0551 0.0 0
M  V30 10 O -1.431 6.812 0.0 0
M  V30 11 O 1.1471 6.812 0.0 0
M  V30 END ATOM
M  V30 BEGIN BOND
M  V30 1 1 1 2
M  V30 2 2 2 3
M  V30 3 1 2 4
M  V30 4 1 3 5
M  V30 5 2 4 6
M  V30 6 2 5 7
M  V30 7 1 5 8
M  V30 8 1 7 9
M  V30 9 2 9 10
M  V30 10 1 9 11
M  V30 11 1 6 7
M  V30 END BOND
M  V30 END CTAB
M  END
>  <Dotmatics_CR>
R-009810

>  <CR_Set>
Acid

>  <Category>
Carboxylic Acids Aromatic

>  <Reaction type>
Amidation

>  <KI/BB_Nature>
Amine

>  <Comments>


>  <Salt>


>  <CR_Chiral_Form>
Achiral

>  <Prod_total_used>
9

>  <PSR (%)>
100

>  <Article>
4-Bromo-2-methylbenzoic acid

>  <CAS>
68837-59-2

>  <Density>
1

>  <Prod_reagent_number>


>  <Stereocenters>
0

>  <NB_Name reaction - KI/BB – Capping>
03-Amidation_Amine_Acid

$$$$
R-009721
Actelion Java MolfileCreator 2.0

  0  0  0  0  0  0              0 V3000
M  V30 BEGIN CTAB
M  V30 COUNTS 11 11 0 0 0
M  V30 BEGIN ATOM
M  V30 1 Cl 0.0 0.0 0.0 0
M  V30 2 C -1.3103 0.7555 0.0 0
M  V30 3 C -1.3339 2.2665 0.0 0
M  V30 4 C -2.6206 0.0354 0.0 0
M  V30 5 C -0.0708 3.022 0.0 0
M  V30 6 C -2.6443 3.022 0.0 0
M  V30 7 C -3.931 0.7909 0.0 0
M  V30 8 O 1.1922 2.3019 0.0 0
M  V30 9 O -0.0944 4.533 0.0 0
M  V30 10 C -3.9546 2.3019 0.0 0
M  V30 11 C -5.2649 3.0574 0.0 0
M  V30 END ATOM
M  V30 BEGIN BOND
M  V30 1 1 1 2
M  V30 2 2 2 3
M  V30 3 1 2 4
M  V30 4 1 3 5
M  V30 5 1 3 6
M  V30 6 2 4 7
M  V30 7 2 5 8
M  V30 8 1 5 9
M  V30 9 2 6 10
M  V30 10 1 10 11
M  V30 11 1 7 10
M  V30 END BOND
M  V30 END CTAB
M  END
>  <Dotmatics_CR>
R-009721

>  <CR_Set>
Acid

>  <Category>
Carboxylic Acids Aromatic

>  <Reaction type>
Amidation

>  <KI/BB_Nature>
Amine

>  <Comments>


>  <Salt>


>  <CR_Chiral_Form>
Achiral

>  <Prod_total_used>
13

>  <PSR (%)>
100

>  <Article>
2-Chloro-5-methylbenzoic acid

>  <CAS>
6342-60-5

>  <Density>
1

>  <Prod_reagent_number>


>  <Stereocenters>
0

>  <NB_Name reaction - KI/BB – Capping>
03-Amidation_Amine_Acid

$$$$
R-003289
Actelion Java MolfileCreator 2.0

  0  0  0  0  0  0              0 V3000
M  V30 BEGIN CTAB
M  V30 COUNTS 11 11 0 0 0
M  V30 BEGIN ATOM
M  V30 1 O 0.0 0.0 0.0 0
M  V30 2 C -0.0706 -1.4715 0.0 0
M  V30 3 O 1.1772 -2.2485 0.0 0
M  V30 4 C -1.4244 -2.1426 0.0 0
M  V30 5 O -2.7194 -1.3185 0.0 0
M  V30 6 C -4.038 -1.9778 0.0 0
M  V30 7 C -4.0615 -3.4611 0.0 0
M  V30 8 C -5.3565 -1.189 0.0 0
M  V30 9 C -5.3801 -4.1793 0.0 0
M  V30 10 C -6.6751 -1.9307 0.0 0
M  V30 11 C -6.6986 -3.4023 0.0 0
M  V30 END ATOM
M  V30 BEGIN BOND
M  V30 1 2 1 2
M  V30 2 1 2 3
M  V30 3 1 2 4
M  V30 4 1 4 5
M  V30 5 1 5 6
M  V30 6 2 6 7
M  V30 7 1 6 8
M  V30 8 1 7 9
M  V30 9 2 8 10
M  V30 10 2 9 11
M  V30 11 1 10 11
M  V30 END BOND
M  V30 END CTAB
M  END
>  <Dotmatics_CR>
R-003289

>  <CR_Set>
Acid

>  <Category>
Carboxylic Acids Non-Aromatic

>  <Reaction type>
Amidation

>  <KI/BB_Nature>
Amine

>  <Comments>


>  <Salt>


>  <CR_Chiral_Form>
Achiral

>  <Prod_total_used>
40

>  <PSR (%)>
93

>  <Article>
PHENOXYACETIC ACID

>  <CAS>
122-59-8

>  <Density>
1

>  <Prod_reagent_number>
C042

>  <Stereocenters>
0

>  <NB_Name reaction - KI/BB – Capping>
03-Amidation_Amine_Acid

$$$$
R-003417
Actelion Java MolfileCreator 2.0

  0  0  0  0  0  0              0 V3000
M  V30 BEGIN CTAB
M  V30 COUNTS 11 11 0 0 0
M  V30 BEGIN ATOM
M  V30 1 O 0.0 0.0 0.0 0
M  V30 2 C -0.0486 -1.5323 0.0 0
M  V30 3 O 1.1918 -2.2012 0.0 0
M  V30 4 C -1.3742 -2.2499 0.0 0
M  V30 5 C -2.6999 -1.4837 0.0 0
M  V30 6 C -1.3986 -3.7215 0.0 0
M  V30 7 C -4.0133 -2.2012 0.0 0
M  V30 8 C -2.7242 -4.439 0.0 0
M  V30 9 C -4.0377 -3.6728 0.0 0
M  V30 10 C -5.3633 -4.3904 0.0 0
M  V30 11 O -6.5308 -3.3809 0.0 0
M  V30 END ATOM
M  V30 BEGIN BOND
M  V30 1 2 1 2
M  V30 2 1 2 3
M  V30 3 1 2 4
M  V30 4 2 4 5
M  V30 5 1 4 6
M  V30 6 1 5 7
M  V30 7 2 6 8
M  V30 8 2 7 9
M  V30 9 1 9 10
M  V30 10 1 10 11
M  V30 11 1 8 9
M  V30 END BOND
M  V30 END CTAB
M  END
>  <Dotmatics_CR>
R-003417

>  <CR_Set>
Acid

>  <Category>
Carboxylic Acids Aromatic

>  <Reaction type>
Amidation

>  <KI/BB_Nature>
Amine

>  <Comments>


>  <Salt>


>  <CR_Chiral_Form>
Achiral

>  <Prod_total_used>
7

>  <PSR (%)>
100

>  <Article>
4-(HYDROXYMETHYL)BENZOIC ACID

>  <CAS>
3006-96-0

>  <Density>
1

>  <Prod_reagent_number>


>  <Stereocenters>
0

>  <NB_Name reaction - KI/BB – Capping>
03-Amidation_Amine_Acid

$$$$
R-004799
Actelion Java MolfileCreator 2.0

  0  0  0  0  0  0              0 V3000
M  V30 BEGIN CTAB
M  V30 COUNTS 11 11 0 0 0
M  V30 BEGIN ATOM
M  V30 1 O 0.0 0.0 0.0 0
M  V30 2 C -1.1239 -0.9701 0.0 0
M  V30 3 O -0.84 -2.4017 0.0 0
M  V30 4 C -2.5674 -0.485 0.0 0
M  V30 5 N -3.7978 -1.3251 0.0 0
M  V30 6 C -3.0643 0.9583 0.0 0
M  V30 7 N -5.0283 -0.4377 0.0 0
M  V30 8 C -3.8215 -2.7922 0.0 0
M  V30 9 C -4.5787 0.982 0.0 0
M  V30 10 C -5.1348 -3.5257 0.0 0
M  V30 11 C -5.4779 2.2124 0.0 0
M  V30 END ATOM
M  V30 BEGIN BOND
M  V30 1 2 1 2
M  V30 2 1 2 3
M  V30 3 1 2 4
M  V30 4 1 4 5
M  V30 5 2 4 6
M  V30 6 1 5 7
M  V30 7 1 5 8
M  V30 8 1 6 9
M  V30 9 1 8 10
M  V30 10 1 9 11
M  V30 11 2 7 9
M  V30 END BOND
M  V30 END CTAB
M  END
>  <Dotmatics_CR>
R-004799

>  <CR_Set>
Acid

>  <Category>
Carboxylic Acids Aromatic

>  <Reaction type>
Amidation

>  <KI/BB_Nature>
Amine

>  <Comments>


>  <Salt>


>  <CR_Chiral_Form>
Achiral

>  <Prod_total_used>
88

>  <PSR (%)>
89

>  <Article>
1-ETHYL-3-METHYL-1H-PYRAZOLE-5-CARBOXYLIC ACID

>  <CAS>
50920-65-5

>  <Density>
1

>  <Prod_reagent_number>
C045

>  <Stereocenters>
0

>  <NB_Name reaction - KI/BB – Capping>
03-Amidation_Amine_Acid

$$$$
R-006851
Actelion Java MolfileCreator 2.0

  0  0  0  0  0  0              0 V3000
M  V30 BEGIN CTAB
M  V30 COUNTS 11 11 0 0 0
M  V30 BEGIN ATOM
M  V30 1 O 0.0 0.0 0.0 0
M  V30 2 C 0.5081 1.4062 0.0 0
M  V30 3 O 1.9497 1.6661 0.0 0
M  V30 4 C -0.449 2.576 0.0 0
M  V30 5 N -1.9615 2.5169 0.0 0
M  V30 6 C -0.0827 4.0413 0.0 0
M  V30 7 N -2.5287 3.935 0.0 0
M  V30 8 C -2.7887 1.2998 0.0 0
M  V30 9 C -1.3589 4.8685 0.0 0
M  V30 10 C -1.4652 6.381 0.0 0
M  V30 11 C -0.2481 7.2082 0.0 0
M  V30 END ATOM
M  V30 BEGIN BOND
M  V30 1 2 1 2
M  V30 2 1 2 3
M  V30 3 1 2 4
M  V30 4 1 4 5
M  V30 5 2 4 6
M  V30 6 1 5 7
M  V30 7 1 5 8
M  V30 8 1 6 9
M  V30 9 1 9 10
M  V30 10 1 10 11
M  V30 11 2 7 9
M  V30 END BOND
M  V30 END CTAB
M  END
>  <Dotmatics_CR>
R-006851

>  <CR_Set>
Acid

>  <Category>
Carboxylic Acids Aromatic

>  <Reaction type>
Amidation

>  <KI/BB_Nature>
Amine

>  <Comments>


>  <Salt>


>  <CR_Chiral_Form>
Achiral

>  <Prod_total_used>
1

>  <PSR (%)>
100

>  <Article>
3-ethyl-1-methyl-1H-pyrazole-5-carboxylic acid

>  <CAS>
26308-42-9

>  <Density>
1

>  <Prod_reagent_number>


>  <Stereocenters>
0

>  <NB_Name reaction - KI/BB – Capping>
03-Amidation_Amine_Acid

$$$$
R-010372
Actelion Java MolfileCreator 2.0

  0  0  0  0  0  0              0 V3000
M  V30 BEGIN CTAB
M  V30 COUNTS 11 11 0 0 0
M  V30 BEGIN ATOM
M  V30 1 O 0.0 0.0 0.0 0
M  V30 2 C -0.0235 1.509 0.0 0
M  V30 3 O -1.3322 2.2754 0.0 0
M  V30 4 C 1.2379 2.2754 0.0 0
M  V30 5 N 1.2143 3.7845 0.0 0
M  V30 6 C -0.0943 4.539 0.0 0
M  V30 7 C 2.4758 4.539 0.0 0
M  V30 8 C -0.1178 6.0481 0.0 0
M  V30 9 C 2.4522 6.0481 0.0 0
M  V30 10 N 1.1436 6.8026 0.0 0
M  V30 11 C 1.12 8.3117 0.0 0
M  V30 END ATOM
M  V30 BEGIN BOND
M  V30 1 2 1 2
M  V30 2 1 2 3
M  V30 3 1 2 4
M  V30 4 1 4 5
M  V30 5 1 5 6
M  V30 6 1 5 7
M  V30 7 1 6 8
M  V30 8 1 7 9
M  V30 9 1 8 10
M  V30 10 1 10 11
M  V30 11 1 9 10
M  V30 END BOND
M  V30 END CTAB
M  END
>  <Dotmatics_CR>
R-010372

>  <CR_Set>
Acid

>  <Category>
Carboxylic Acids Non-Aromatic

>  <Reaction type>
Amidation

>  <KI/BB_Nature>
Amine

>  <Comments>


>  <Salt>


>  <CR_Chiral_Form>
Achiral

>  <Prod_total_used>
30

>  <PSR (%)>
77

>  <Article>
(4-Methyl-piperazin-1-yl)-acetic acid

>  <CAS>
54699-92-2

>  <Density>
1

>  <Prod_reagent_number>
C046

>  <Stereocenters>
0

>  <NB_Name reaction - KI/BB – Capping>
03-Amidation_Amine_Acid

$$$$
R-009928
Actelion Java MolfileCreator 2.0

  0  0  0  0  0  0              0 V3000
M  V30 BEGIN CTAB
M  V30 COUNTS 11 11 0 0 0
M  V30 BEGIN ATOM
M  V30 1 O 0.0 0.0 0.0 0
M  V30 2 C 1.2889 -0.7213 0.0 0
M  V30 3 O 2.5779 0.0591 0.0 0
M  V30 4 C 1.2653 -2.2113 0.0 0
M  V30 5 C -0.0709 -2.9326 0.0 0
M  V30 6 C 2.5542 -2.9326 0.0 0
M  V30 7 N -0.0946 -4.4226 0.0 0
M  V30 8 C -1.4072 -2.1522 0.0 0
M  V30 9 N 2.5306 -4.4226 0.0 0
M  V30 10 C 3.8432 -2.1522 0.0 0
M  V30 11 C 1.1943 -5.144 0.0 0
M  V30 END ATOM
M  V30 BEGIN BOND
M  V30 1 2 1 2
M  V30 2 1 2 3
M  V30 3 1 2 4
M  V30 4 2 4 5
M  V30 5 1 4 6
M  V30 6 1 5 7
M  V30 7 1 5 8
M  V30 8 2 6 9
M  V30 9 1 6 10
M  V30 10 2 7 11
M  V30 11 1 9 11
M  V30 END BOND
M  V30 END CTAB
M  END
>  <Dotmatics_CR>
R-009928

>  <CR_Set>
Acid

>  <Category>
Carboxylic Acids Aromatic

>  <Reaction type>
Amidation

>  <KI/BB_Nature>
Amine

>  <Comments>


>  <Salt>


>  <CR_Chiral_Form>
Achiral

>  <Prod_total_used>
18

>  <PSR (%)>
78

>  <Article>
4,6-Dimethylpyrimidine-5-carboxylic acid

>  <CAS>
157335-93-8

>  <Density>
1

>  <Prod_reagent_number>


>  <Stereocenters>
0

>  <NB_Name reaction - KI/BB – Capping>
03-Amidation_Amine_Acid

$$$$
R-005914
Actelion Java MolfileCreator 2.0

  0  0  0  0  0  0              0 V3000
M  V30 BEGIN CTAB
M  V30 COUNTS 11 11 0 0 0
M  V30 BEGIN ATOM
M  V30 1 Cl 0.0 0.0 0.0 0
M  V30 2 C 1.2035 -0.8731 0.0 0
M  V30 3 C 2.6195 -0.3893 0.0 0
M  V30 4 C 1.1799 -2.3599 0.0 0
M  V30 5 N 3.4927 -1.5929 0.0 0
M  V30 6 C 3.0561 1.0737 0.0 0
M  V30 7 N 2.5959 -2.7965 0.0 0
M  V30 8 C 4.9794 -1.5693 0.0 0
M  V30 9 C 5.6992 -0.2359 0.0 0
M  V30 10 O 7.186 -0.2123 0.0 0
M  V30 11 O 4.9204 1.0973 0.0 0
M  V30 END ATOM
M  V30 BEGIN BOND
M  V30 1 1 1 2
M  V30 2 2 2 3
M  V30 3 1 2 4
M  V30 4 1 3 5
M  V30 5 1 3 6
M  V30 6 2 4 7
M  V30 7 1 5 8
M  V30 8 1 8 9
M  V30 9 2 9 10
M  V30 10 1 9 11
M  V30 11 1 5 7
M  V30 END BOND
M  V30 END CTAB
M  END
>  <Dotmatics_CR>
R-005914

>  <CR_Set>
Acid

>  <Category>
Carboxylic Acids Non-Aromatic

>  <Reaction type>
Amidation

>  <KI/BB_Nature>
Amine

>  <Comments>


>  <Salt>


>  <CR_Chiral_Form>
Achiral

>  <Prod_total_used>
1

>  <PSR (%)>
100

>  <Article>
2-(4-chloro-5-methyl-1H-pyrazol-1-yl)acetic acid

>  <CAS>
180741-45-1

>  <Density>
1

>  <Prod_reagent_number>


>  <Stereocenters>
0

>  <NB_Name reaction - KI/BB – Capping>
03-Amidation_Amine_Acid

$$$$
R-005143
Actelion Java MolfileCreator 2.0

  0  0  0  0  0  0              0 V3000
M  V30 BEGIN CTAB
M  V30 COUNTS 11 11 0 0 0
M  V30 BEGIN ATOM
M  V30 1 Cl 0.0 0.0 0.0 0
M  V30 2 C -0.9106 -1.1691 0.0 0
M  V30 3 N -0.4799 -2.5351 0.0 0
M  V30 4 C -2.449 -1.1198 0.0 0
M  V30 5 N -1.7229 -3.3843 0.0 0
M  V30 6 C 0.9229 -2.9904 0.0 0
M  V30 7 C -2.9412 -2.5228 0.0 0
M  V30 8 C -3.3473 0.1107 0.0 0
M  V30 9 C -4.3934 -2.9781 0.0 0
M  V30 10 O -4.9226 0.0 0.0 0
M  V30 11 O -2.7935 1.4644 0.0 0
M  V30 END ATOM
M  V30 BEGIN BOND
M  V30 1 1 1 2
M  V30 2 1 2 3
M  V30 3 2 2 4
M  V30 4 1 3 5
M  V30 5 1 3 6
M  V30 6 1 4 7
M  V30 7 1 4 8
M  V30 8 1 7 9
M  V30 9 2 8 10
M  V30 10 1 8 11
M  V30 11 2 5 7
M  V30 END BOND
M  V30 END CTAB
M  END
>  <Dotmatics_CR>
R-005143

>  <CR_Set>
Acid

>  <Category>
Carboxylic Acids Aromatic

>  <Reaction type>
Amidation

>  <KI/BB_Nature>
Amine

>  <Comments>


>  <Salt>


>  <CR_Chiral_Form>
Achiral

>  <Prod_total_used>
1

>  <PSR (%)>
100

>  <Article>
5-CHLORO-1,3-DIMETHYLPYRAZOLE-4-CARBOXYLIC ACID

>  <CAS>
27006-82-2

>  <Density>
1

>  <Prod_reagent_number>


>  <Stereocenters>
0

>  <NB_Name reaction - KI/BB – Capping>
03-Amidation_Amine_Acid

$$$$
R-004416
Actelion Java MolfileCreator 2.0

  0  0  0  0  0  0              0 V3000
M  V30 BEGIN CTAB
M  V30 COUNTS 11 11 0 0 0
M  V30 BEGIN ATOM
M  V30 1 O 0.0 0.0 0.0 0
M  V30 2 C -0.0235 -1.4709 0.0 0
M  V30 3 O 1.2473 -2.1888 0.0 0
M  V30 4 C -1.3415 -2.1888 0.0 0
M  V30 5 C -2.6595 -1.4121 0.0 0
M  V30 6 C -3.9775 -2.1299 0.0 0
M  V30 7 C -4.001 -3.6127 0.0 0
M  V30 8 C -5.2955 -1.3533 0.0 0
M  V30 9 N -5.3308 -4.3305 0.0 0
M  V30 10 C -6.6135 -2.0711 0.0 0
M  V30 11 C -6.6488 -3.5539 0.0 0
M  V30 END ATOM
M  V30 BEGIN BOND
M  V30 1 2 1 2
M  V30 2 1 2 3
M  V30 3 1 2 4
M  V30 4 1 4 5
M  V30 5 1 5 6
M  V30 6 2 6 7
M  V30 7 1 6 8
M  V30 8 1 7 9
M  V30 9 2 8 10
M  V30 10 2 9 11
M  V30 11 1 10 11
M  V30 END BOND
M  V30 END CTAB
M  END
>  <Dotmatics_CR>
R-004416

>  <CR_Set>
Acid

>  <Category>
Carboxylic Acids Non-Aromatic

>  <Reaction type>
Amidation

>  <KI/BB_Nature>
Amine

>  <Comments>


>  <Salt>


>  <CR_Chiral_Form>
Achiral

>  <Prod_total_used>
43

>  <PSR (%)>
86

>  <Article>
3-(3-PYRIDYL)PROPIONIC ACID

>  <CAS>
3724-19-4

>  <Density>
1

>  <Prod_reagent_number>


>  <Stereocenters>
0

>  <NB_Name reaction - KI/BB – Capping>
03-Amidation_Amine_Acid

$$$$
R-002775
Actelion Java MolfileCreator 2.0

  0  0  0  0  0  0              0 V3000
M  V30 BEGIN CTAB
M  V30 COUNTS 11 11 0 0 0
M  V30 BEGIN ATOM
M  V30 1 O 0.0 0.0 0.0 0
M  V30 2 C -0.0244 -1.5398 0.0 0
M  V30 3 O 1.1609 -2.3464 0.0 0
M  V30 4 C -1.332 -2.3097 0.0 0
M  V30 5 C -1.332 -3.8007 0.0 0
M  V30 6 C -2.6763 -1.5642 0.0 0
M  V30 7 C -2.6519 -4.5339 0.0 0
M  V30 8 C -3.9962 -2.3097 0.0 0
M  V30 9 C -2.6519 -6.0126 0.0 0
M  V30 10 C -3.9962 -3.7762 0.0 0
M  V30 11 N -2.6519 -7.4791 0.0 0
M  V30 END ATOM
M  V30 BEGIN BOND
M  V30 1 2 1 2
M  V30 2 1 2 3
M  V30 3 1 2 4
M  V30 4 2 4 5
M  V30 5 1 4 6
M  V30 6 1 5 7
M  V30 7 2 6 8
M  V30 8 1 7 9
M  V30 9 2 7 10
M  V30 10 3 9 11
M  V30 11 1 8 10
M  V30 END BOND
M  V30 END CTAB
M  END
>  <Dotmatics_CR>
R-002775

>  <CR_Set>
Acid

>  <Category>
Carboxylic Acids Aromatic

>  <Reaction type>
Amidation

>  <KI/BB_Nature>
Amine

>  <Comments>


>  <Salt>


>  <CR_Chiral_Form>
Achiral

>  <Prod_total_used>
1

>  <PSR (%)>
100

>  <Article>
3-cyanobenzoic acid

>  <CAS>
1877-72-1

>  <Density>
1

>  <Prod_reagent_number>


>  <Stereocenters>
0

>  <NB_Name reaction - KI/BB – Capping>
03-Amidation_Amine_Acid

$$$$
R-008550
Actelion Java MolfileCreator 2.0

  0  0  0  0  0  0              0 V3000
M  V30 BEGIN CTAB
M  V30 COUNTS 11 11 0 0 0
M  V30 BEGIN ATOM
M  V30 1 F 0.0 0.0 0.0 0
M  V30 2 C 1.2826 -0.7432 0.0 0
M  V30 3 C 2.5652 0.0359 0.0 0
M  V30 4 C 1.2586 -2.2296 0.0 0
M  V30 5 C 3.8479 -0.7072 0.0 0
M  V30 6 C 2.5413 1.5703 0.0 0
M  V30 7 N 2.5413 -2.9728 0.0 0
M  V30 8 F 5.1305 0.0719 0.0 0
M  V30 9 C 3.8239 -2.1936 0.0 0
M  V30 10 O 3.8239 2.3495 0.0 0
M  V30 11 O 1.2107 2.3495 0.0 0
M  V30 END ATOM
M  V30 BEGIN BOND
M  V30 1 1 1 2
M  V30 2 2 2 3
M  V30 3 1 2 4
M  V30 4 1 3 5
M  V30 5 1 3 6
M  V30 6 2 4 7
M  V30 7 1 5 8
M  V30 8 2 5 9
M  V30 9 2 6 10
M  V30 10 1 6 11
M  V30 11 1 7 9
M  V30 END BOND
M  V30 END CTAB
M  END
>  <Dotmatics_CR>
R-008550

>  <CR_Set>
Acid

>  <Category>
Carboxylic Acids Aromatic

>  <Reaction type>
Amidation

>  <KI/BB_Nature>
Amine

>  <Comments>


>  <Salt>


>  <CR_Chiral_Form>
Achiral

>  <Prod_total_used>
92

>  <PSR (%)>
75

>  <Article>
3,5-Difluoroisonicotinic acid

>  <CAS>
903522-29-2

>  <Density>
1

>  <Prod_reagent_number>
C047

>  <Stereocenters>
0

>  <NB_Name reaction - KI/BB – Capping>
03-Amidation_Amine_Acid

$$$$
R-008261
Actelion Java MolfileCreator 2.0

  0  0  0  0  0  0              0 V3000
M  V30 BEGIN CTAB
M  V30 COUNTS 11 11 0 0 0
M  V30 BEGIN ATOM
M  V30 1 Cl 0.0 0.0 0.0 0
M  V30 2 C 1.2948 -0.7365 0.0 0
M  V30 3 C 1.2829 -2.2333 0.0 0
M  V30 4 C 2.5897 0.0237 0.0 0
M  V30 5 N -0.0356 -2.9698 0.0 0
M  V30 6 C 2.5778 -2.9817 0.0 0
M  V30 7 C 3.8845 -0.7246 0.0 0
M  V30 8 C 3.8727 -2.2214 0.0 0
M  V30 9 C 5.1794 0.0356 0.0 0
M  V30 10 O 5.1675 1.5562 0.0 0
M  V30 11 O 6.4743 -0.7008 0.0 0
M  V30 END ATOM
M  V30 BEGIN BOND
M  V30 1 1 1 2
M  V30 2 2 2 3
M  V30 3 1 2 4
M  V30 4 1 3 5
M  V30 5 1 3 6
M  V30 6 2 4 7
M  V30 7 2 6 8
M  V30 8 1 7 9
M  V30 9 2 9 10
M  V30 10 1 9 11
M  V30 11 1 7 8
M  V30 END BOND
M  V30 END CTAB
M  END
>  <Dotmatics_CR>
R-008261

>  <CR_Set>
Acid

>  <Category>
Carboxylic Acids Aromatic

>  <Reaction type>
Amidation

>  <KI/BB_Nature>
Amine

>  <Comments>


>  <Salt>


>  <CR_Chiral_Form>
Achiral

>  <Prod_total_used>
2

>  <PSR (%)>
100

>  <Article>
4-amino-3-chloro-benzoic acid

>  <CAS>
2486-71-7

>  <Density>


>  <Prod_reagent_number>
C048

>  <Stereocenters>
0

>  <NB_Name reaction - KI/BB – Capping>
03-Amidation_Amine_Acid

$$$$
R-010833
Actelion Java MolfileCreator 2.0

  0  0  0  0  0  0              0 V3000
M  V30 BEGIN CTAB
M  V30 COUNTS 11 11 0 0 0
M  V30 BEGIN ATOM
M  V30 1 Cl 0.0 0.0 0.0 0
M  V30 2 C -1.3151 -0.7227 0.0 0
M  V30 3 C -2.6303 0.0473 0.0 0
M  V30 4 C -1.3388 -2.1919 0.0 0
M  V30 5 C -3.9455 -0.6753 0.0 0
M  V30 6 C -2.654 -2.9147 0.0 0
M  V30 7 N -3.9692 -2.1445 0.0 0
M  V30 8 C -5.2607 0.0947 0.0 0
M  V30 9 C -2.6777 -4.3839 0.0 0
M  V30 10 O -5.2844 1.6113 0.0 0
M  V30 11 O -6.5758 -0.6279 0.0 0
M  V30 END ATOM
M  V30 BEGIN BOND
M  V30 1 1 1 2
M  V30 2 2 2 3
M  V30 3 1 2 4
M  V30 4 1 3 5
M  V30 5 2 4 6
M  V30 6 2 5 7
M  V30 7 1 5 8
M  V30 8 1 6 9
M  V30 9 2 8 10
M  V30 10 1 8 11
M  V30 11 1 6 7
M  V30 END BOND
M  V30 END CTAB
M  END
>  <Dotmatics_CR>
R-010833

>  <CR_Set>
Acid

>  <Category>
Carboxylic Acids Aromatic

>  <Reaction type>
Amidation

>  <KI/BB_Nature>
Amine

>  <Comments>


>  <Salt>


>  <CR_Chiral_Form>
Achiral

>  <Prod_total_used>
1

>  <PSR (%)>
100

>  <Article>
4-Chloro-6-methylpyridine-2-carboxylic acid

>  <CAS>
30235-19-9

>  <Density>
1

>  <Prod_reagent_number>


>  <Stereocenters>
0

>  <NB_Name reaction - KI/BB – Capping>
03-Amidation_Amine_Acid

$$$$
R-009920
Actelion Java MolfileCreator 2.0

  0  0  0  0  0  0              0 V3000
M  V30 BEGIN CTAB
M  V30 COUNTS 11 11 0 0 0
M  V30 BEGIN ATOM
M  V30 1 O 0.0 0.0 0.0 0
M  V30 2 C -0.0234 -1.4753 0.0 0
M  V30 3 O 1.2528 -2.1895 0.0 0
M  V30 4 C -1.3465 -2.1895 0.0 0
M  V30 5 O -2.6696 -1.4167 0.0 0
M  V30 6 C -3.9927 -2.131 0.0 0
M  V30 7 C -4.0161 -3.6063 0.0 0
M  V30 8 C -5.3157 -1.3582 0.0 0
M  V30 9 N -5.3392 -4.3205 0.0 0
M  V30 10 C -6.6388 -2.0724 0.0 0
M  V30 11 C -6.6623 -3.5477 0.0 0
M  V30 END ATOM
M  V30 BEGIN BOND
M  V30 1 2 1 2
M  V30 2 1 2 3
M  V30 3 1 2 4
M  V30 4 1 4 5
M  V30 5 1 5 6
M  V30 6 2 6 7
M  V30 7 1 6 8
M  V30 8 1 7 9
M  V30 9 2 8 10
M  V30 10 2 9 11
M  V30 11 1 10 11
M  V30 END BOND
M  V30 END CTAB
M  END
>  <Dotmatics_CR>
R-009920

>  <CR_Set>
Acid

>  <Category>
Carboxylic Acids Non-Aromatic

>  <Reaction type>
Amidation

>  <KI/BB_Nature>
Amine

>  <Comments>


>  <Salt>


>  <CR_Chiral_Form>
Achiral

>  <Prod_total_used>
5

>  <PSR (%)>
100

>  <Article>
(Pyridin-3-yloxy)-acetic acid

>  <CAS>
86649-57-2

>  <Density>
1

>  <Prod_reagent_number>


>  <Stereocenters>
0

>  <NB_Name reaction - KI/BB – Capping>
03-Amidation_Amine_Acid

$$$$
R-010362
Actelion Java MolfileCreator 2.0

  0  0  0  0  0  0              0 V3000
M  V30 BEGIN CTAB
M  V30 COUNTS 11 11 0 0 0
M  V30 BEGIN ATOM
M  V30 1 O 0.0 0.0 0.0 0
M  V30 2 C -0.1785 1.5116 0.0 0
M  V30 3 O -1.5711 2.1543 0.0 0
M  V30 4 C 1.0117 2.4161 0.0 0
M  V30 5 N 0.9878 3.9396 0.0 0
M  V30 6 C 2.4161 1.9757 0.0 0
M  V30 7 O 2.3923 4.4276 0.0 0
M  V30 8 C 3.2731 3.2136 0.0 0
M  V30 9 C 4.749 3.2374 0.0 0
M  V30 10 C 5.487 1.9638 0.0 0
M  V30 11 C 5.487 4.5586 0.0 0
M  V30 END ATOM
M  V30 BEGIN BOND
M  V30 1 2 1 2
M  V30 2 1 2 3
M  V30 3 1 2 4
M  V30 4 2 4 5
M  V30 5 1 4 6
M  V30 6 1 5 7
M  V30 7 2 6 8
M  V30 8 1 8 9
M  V30 9 1 9 10
M  V30 10 1 9 11
M  V30 11 1 7 8
M  V30 END BOND
M  V30 END CTAB
M  END
>  <Dotmatics_CR>
R-010362

>  <CR_Set>
Acid

>  <Category>
Carboxylic Acids Aromatic

>  <Reaction type>
Amidation

>  <KI/BB_Nature>
Amine

>  <Comments>


>  <Salt>


>  <CR_Chiral_Form>
Achiral

>  <Prod_total_used>
43

>  <PSR (%)>
70

>  <Article>
5-Isopropylisoxazole-3-carboxylic acid

>  <CAS>
89776-74-9

>  <Density>
1

>  <Prod_reagent_number>
C050

>  <Stereocenters>
0

>  <NB_Name reaction - KI/BB – Capping>
03-Amidation_Amine_Acid

$$$$
R-009812
Actelion Java MolfileCreator 2.0

  0  0  0  0  0  0              0 V3000
M  V30 BEGIN CTAB
M  V30 COUNTS 11 11 0 0 0
M  V30 BEGIN ATOM
M  V30 1 O 0.0 0.0 0.0 0
M  V30 2 C -1.3036 0.7516 0.0 0
M  V30 3 N -1.3153 2.2549 0.0 0
M  V30 4 C -2.6072 0.0117 0.0 0
M  V30 5 C -2.6189 3.0065 0.0 0
M  V30 6 C -3.9108 0.7633 0.0 0
M  V30 7 C -3.9225 2.2666 0.0 0
M  V30 8 C -2.6307 4.5098 0.0 0
M  V30 9 C -5.2144 0.0352 0.0 0
M  V30 10 O -5.2262 -1.4445 0.0 0
M  V30 11 O -6.518 0.7868 0.0 0
M  V30 END ATOM
M  V30 BEGIN BOND
M  V30 1 2 1 2
M  V30 2 1 2 3
M  V30 3 1 2 4
M  V30 4 1 3 5
M  V30 5 2 4 6
M  V30 6 2 5 7
M  V30 7 1 5 8
M  V30 8 1 6 9
M  V30 9 2 9 10
M  V30 10 1 9 11
M  V30 11 1 6 7
M  V30 END BOND
M  V30 END CTAB
M  END
>  <Dotmatics_CR>
R-009812

>  <CR_Set>
Acid

>  <Category>
Carboxylic Acids Aromatic

>  <Reaction type>
Amidation

>  <KI/BB_Nature>
Amine

>  <Comments>


>  <Salt>


>  <CR_Chiral_Form>
Achiral

>  <Prod_total_used>
51

>  <PSR (%)>
82

>  <Article>
1,2-dihydro-6-methyl-2-oxo-4-pyridinecarboxylic acid

>  <CAS>
86454-13-9

>  <Density>
1

>  <Prod_reagent_number>


>  <Stereocenters>
0

>  <NB_Name reaction - KI/BB – Capping>
03-Amidation_Amine_Acid

$$$$
R-000952
Actelion Java MolfileCreator 2.0

  0  0  0  0  0  0              0 V3000
M  V30 BEGIN CTAB
M  V30 COUNTS 11 11 0 0 0
M  V30 BEGIN ATOM
M  V30 1 O 0.0 0.0 0.0 0
M  V30 2 C -0.0236 1.5143 0.0 0
M  V30 3 N 1.2422 2.2715 0.0 0
M  V30 4 C -1.3368 2.2715 0.0 0
M  V30 5 C 1.2185 3.7858 0.0 0
M  V30 6 C 2.5081 1.5498 0.0 0
M  V30 7 C -1.3605 3.7858 0.0 0
M  V30 8 C -0.0946 4.5548 0.0 0
M  V30 9 C -0.1183 6.0691 0.0 0
M  V30 10 O -1.4315 6.8263 0.0 0
M  V30 11 O 1.1475 6.8263 0.0 0
M  V30 END ATOM
M  V30 BEGIN BOND
M  V30 1 2 1 2
M  V30 2 1 2 3
M  V30 3 1 2 4
M  V30 4 1 3 5
M  V30 5 1 3 6
M  V30 6 2 4 7
M  V30 7 2 5 8
M  V30 8 1 8 9
M  V30 9 2 9 10
M  V30 10 1 9 11
M  V30 11 1 7 8
M  V30 END BOND
M  V30 END CTAB
M  END
>  <Dotmatics_CR>
R-000952

>  <CR_Set>
Acid

>  <Category>
Carboxylic Acids Aromatic

>  <Reaction type>
Amidation

>  <KI/BB_Nature>
Amine

>  <Comments>


>  <Salt>


>  <CR_Chiral_Form>
Achiral

>  <Prod_total_used>
54

>  <PSR (%)>
89

>  <Article>
1,6-Dihydro-1-methyl-6-oxo-3-pyridinecarboxylic acid

>  <CAS>
3719-45-7

>  <Density>
1

>  <Prod_reagent_number>


>  <Stereocenters>
0

>  <NB_Name reaction - KI/BB – Capping>
03-Amidation_Amine_Acid

$$$$
R-008806
Actelion Java MolfileCreator 2.0

  0  0  0  0  0  0              0 V3000
M  V30 BEGIN CTAB
M  V30 COUNTS 11 11 0 0 0
M  V30 BEGIN ATOM
M  V30 1 O 0.0 0.0 0.0 0
M  V30 2 C 1.4807 0.1057 0.0 0
M  V30 3 O 2.1388 1.4689 0.0 0
M  V30 4 C 2.2798 -1.1399 0.0 0
M  V30 5 C 3.7605 -1.1986 0.0 0
M  V30 6 C 1.7157 -2.5266 0.0 0
M  V30 7 N 4.1248 -2.6323 0.0 0
M  V30 8 C 4.6889 0.0 0.0 0
M  V30 9 O 2.8674 -3.455 0.0 0
M  V30 10 C 0.235 -2.8909 0.0 0
M  V30 11 C 4.1248 1.4337 0.0 0
M  V30 END ATOM
M  V30 BEGIN BOND
M  V30 1 2 1 2
M  V30 2 1 2 3
M  V30 3 1 2 4
M  V30 4 1 4 5
M  V30 5 2 4 6
M  V30 6 2 5 7
M  V30 7 1 5 8
M  V30 8 1 6 9
M  V30 9 1 6 10
M  V30 10 1 8 11
M  V30 11 1 7 9
M  V30 END BOND
M  V30 END CTAB
M  END
>  <Dotmatics_CR>
R-008806

>  <CR_Set>
Acid

>  <Category>
Carboxylic Acids Aromatic

>  <Reaction type>
Amidation

>  <KI/BB_Nature>
Amine

>  <Comments>


>  <Salt>


>  <CR_Chiral_Form>
Achiral

>  <Prod_total_used>
107

>  <PSR (%)>
88

>  <Article>
3-Ethyl-5-methylisoxazole-4-carboxylic acid

>  <CAS>
17147-85-2

>  <Density>
1

>  <Prod_reagent_number>


>  <Stereocenters>
0

>  <NB_Name reaction - KI/BB – Capping>
03-Amidation_Amine_Acid

$$$$
R-008524
Actelion Java MolfileCreator 2.0

  0  0  0  0  0  0              0 V3000
M  V30 BEGIN CTAB
M  V30 COUNTS 11 11 0 0 0
M  V30 BEGIN ATOM
M  V30 1 O 0.0 0.0 0.0 0
M  V30 2 C -1.3329 -0.7313 0.0 0
M  V30 3 O -2.6658 0.0471 0.0 0
M  V30 4 C -1.3565 -2.2176 0.0 0
M  V30 5 C -2.6894 -2.9607 0.0 0
M  V30 6 C -0.0707 -2.9607 0.0 0
M  V30 7 N -2.713 -4.447 0.0 0
M  V30 8 C -0.0943 -4.447 0.0 0
M  V30 9 C -1.4273 -5.1784 0.0 0
M  V30 10 O -1.4509 -6.6647 0.0 0
M  V30 11 C -0.1651 -7.396 0.0 0
M  V30 END ATOM
M  V30 BEGIN BOND
M  V30 1 2 1 2
M  V30 2 1 2 3
M  V30 3 1 2 4
M  V30 4 2 4 5
M  V30 5 1 4 6
M  V30 6 1 5 7
M  V30 7 2 6 8
M  V30 8 2 7 9
M  V30 9 1 9 10
M  V30 10 1 10 11
M  V30 11 1 8 9
M  V30 END BOND
M  V30 END CTAB
M  END
>  <Dotmatics_CR>
R-008524

>  <CR_Set>
Acid

>  <Category>
Carboxylic Acids Aromatic

>  <Reaction type>
Amidation

>  <KI/BB_Nature>
Amine

>  <Comments>


>  <Salt>


>  <CR_Chiral_Form>
Achiral

>  <Prod_total_used>
28

>  <PSR (%)>
86

>  <Article>
6-Methoxynicotinic acid

>  <CAS>
66572-55-2

>  <Density>
1

>  <Prod_reagent_number>


>  <Stereocenters>
0

>  <NB_Name reaction - KI/BB – Capping>
03-Amidation_Amine_Acid

$$$$
R-008544
Actelion Java MolfileCreator 2.0

  0  0  0  0  0  0              0 V3000
M  V30 BEGIN CTAB
M  V30 COUNTS 11 11 0 0 0
M  V30 BEGIN ATOM
M  V30 1 O 0.0 0.0 0.0 0
M  V30 2 C 1.2944 -0.7244 0.0 0
M  V30 3 O 2.5889 0.0593 0.0 0
M  V30 4 C 1.2707 -2.2208 0.0 0
M  V30 5 C 2.5652 -2.9452 0.0 0
M  V30 6 C -0.0712 -2.9452 0.0 0
M  V30 7 C 2.5414 -4.4416 0.0 0
M  V30 8 C -0.095 -4.4416 0.0 0
M  V30 9 O 3.8359 -5.166 0.0 0
M  V30 10 N 1.1994 -5.166 0.0 0
M  V30 11 C 5.1304 -4.3822 0.0 0
M  V30 END ATOM
M  V30 BEGIN BOND
M  V30 1 2 1 2
M  V30 2 1 2 3
M  V30 3 1 2 4
M  V30 4 2 4 5
M  V30 5 1 4 6
M  V30 6 1 5 7
M  V30 7 2 6 8
M  V30 8 1 7 9
M  V30 9 2 7 10
M  V30 10 1 9 11
M  V30 11 1 8 10
M  V30 END BOND
M  V30 END CTAB
M  END
>  <Dotmatics_CR>
R-008544

>  <CR_Set>
Acid

>  <Category>
Carboxylic Acids Aromatic

>  <Reaction type>
Amidation

>  <KI/BB_Nature>
Amine

>  <Comments>


>  <Salt>


>  <CR_Chiral_Form>
Achiral

>  <Prod_total_used>
43

>  <PSR (%)>
91

>  <Article>
2-Methoxyisonicotinic acid

>  <CAS>
105596-63-2

>  <Density>
1

>  <Prod_reagent_number>
C051

>  <Stereocenters>
0

>  <NB_Name reaction - KI/BB – Capping>
03-Amidation_Amine_Acid

$$$$
R-005184
Actelion Java MolfileCreator 2.0

  0  0  0  0  0  0              0 V3000
M  V30 BEGIN CTAB
M  V30 COUNTS 11 11 0 0 0
M  V30 BEGIN ATOM
M  V30 1 O 0.0 0.0 0.0 0
M  V30 2 C 1.2833 0.7796 0.0 0
M  V30 3 O 1.2593 2.3148 0.0 0
M  V30 4 C 2.5666 0.0479 0.0 0
M  V30 5 C 3.85 0.8275 0.0 0
M  V30 6 C 2.5427 -1.4392 0.0 0
M  V30 7 O 3.826 2.3628 0.0 0
M  V30 8 N 5.1333 0.1079 0.0 0
M  V30 9 C 3.826 -2.1708 0.0 0
M  V30 10 C 5.1094 3.1424 0.0 0
M  V30 11 C 5.1214 -1.3912 0.0 0
M  V30 END ATOM
M  V30 BEGIN BOND
M  V30 1 2 1 2
M  V30 2 1 2 3
M  V30 3 1 2 4
M  V30 4 2 4 5
M  V30 5 1 4 6
M  V30 6 1 5 7
M  V30 7 1 5 8
M  V30 8 2 6 9
M  V30 9 1 7 10
M  V30 10 2 8 11
M  V30 11 1 9 11
M  V30 END BOND
M  V30 END CTAB
M  END
>  <Dotmatics_CR>
R-005184

>  <CR_Set>
Acid

>  <Category>
Carboxylic Acids Aromatic

>  <Reaction type>
Amidation

>  <KI/BB_Nature>
Amine

>  <Comments>


>  <Salt>


>  <CR_Chiral_Form>
Achiral

>  <Prod_total_used>
11

>  <PSR (%)>
91

>  <Article>
2-METHOXYNICOTINIC ACID

>  <CAS>
16498-81-0

>  <Density>
1

>  <Prod_reagent_number>


>  <Stereocenters>
0

>  <NB_Name reaction - KI/BB – Capping>
03-Amidation_Amine_Acid

$$$$
R-009921
Actelion Java MolfileCreator 2.0

  0  0  0  0  0  0              0 V3000
M  V30 BEGIN CTAB
M  V30 COUNTS 11 11 0 0 0
M  V30 BEGIN ATOM
M  V30 1 O 0.0 0.0 0.0 0
M  V30 2 C -0.0118 -1.4896 0.0 0
M  V30 3 O 1.2768 -2.2226 0.0 0
M  V30 4 C -1.3241 -2.2344 0.0 0
M  V30 5 C -1.3359 -3.7241 0.0 0
M  V30 6 C -2.6364 -1.4778 0.0 0
M  V30 7 O -0.0472 -4.4571 0.0 0
M  V30 8 N -2.6482 -4.4689 0.0 0
M  V30 9 C -3.9487 -2.2108 0.0 0
M  V30 10 C -3.9606 -3.7123 0.0 0
M  V30 11 C -5.2729 -4.4453 0.0 0
M  V30 END ATOM
M  V30 BEGIN BOND
M  V30 1 2 1 2
M  V30 2 1 2 3
M  V30 3 1 2 4
M  V30 4 2 4 5
M  V30 5 1 4 6
M  V30 6 1 5 7
M  V30 7 1 5 8
M  V30 8 2 6 9
M  V30 9 2 8 10
M  V30 10 1 10 11
M  V30 11 1 9 10
M  V30 END BOND
M  V30 END CTAB
M  END
>  <Dotmatics_CR>
R-009921

>  <CR_Set>
Acid

>  <Category>
Carboxylic Acids Aromatic

>  <Reaction type>
Amidation

>  <KI/BB_Nature>
Amine

>  <Comments>


>  <Salt>


>  <CR_Chiral_Form>
Achiral

>  <Prod_total_used>
6

>  <PSR (%)>
100

>  <Article>
2-Hydroxy-6-methylpyridine-3-carboxylic acid

>  <CAS>
38116-61-9

>  <Density>


>  <Prod_reagent_number>


>  <Stereocenters>
0

>  <NB_Name reaction - KI/BB – Capping>
03-Amidation_Amine_Acid

$$$$
R-008876
Actelion Java MolfileCreator 2.0

  0  0  0  0  0  0              0 V3000
M  V30 BEGIN CTAB
M  V30 COUNTS 12 12 0 0 0
M  V30 BEGIN ATOM
M  V30 1 O 0.0 0.0 0.0 0
M  V30 2 C -0.0236 -1.4661 0.0 0
M  V30 3 O 1.2414 -2.1873 0.0 0
M  V30 4 C -1.336 -2.1873 0.0 0
M  V30 5 C -2.6485 -1.4306 0.0 0
M  V30 6 C -3.9609 -2.1519 0.0 0
M  V30 7 C -5.2734 -1.3952 0.0 0
M  V30 8 C -5.297 0.1182 0.0 0
M  V30 9 C -6.5858 -2.1164 0.0 0
M  V30 10 C -6.6094 0.8749 0.0 0
M  V30 11 C -7.8982 -1.3597 0.0 0
M  V30 12 C -7.9219 0.1537 0.0 0
M  V30 END ATOM
M  V30 BEGIN BOND
M  V30 1 2 1 2
M  V30 2 1 2 3
M  V30 3 1 2 4
M  V30 4 1 4 5
M  V30 5 2 5 6
M  V30 6 1 6 7
M  V30 7 2 7 8
M  V30 8 1 7 9
M  V30 9 1 8 10
M  V30 10 2 9 11
M  V30 11 2 10 12
M  V30 12 1 11 12
M  V30 END BOND
M  V30 END CTAB
M  END
>  <Dotmatics_CR>
R-008876

>  <CR_Set>
Acid

>  <Category>
Carboxylic Acids Non-Aromatic

>  <Reaction type>
Amidation

>  <KI/BB_Nature>
Amine

>  <Comments>


>  <Salt>


>  <CR_Chiral_Form>
Achiral

>  <Prod_total_used>
11

>  <PSR (%)>
82

>  <Article>
trans-Styrylacetic acid

>  <CAS>
1914-58-5

>  <Density>
1

>  <Prod_reagent_number>


>  <Stereocenters>
0

>  <NB_Name reaction - KI/BB – Capping>
03-Amidation_Amine_Acid

$$$$
R-009171
Actelion Java MolfileCreator 2.0

  0  0  0  0  0  0              0 V3000
M  V30 BEGIN CTAB
M  V30 COUNTS 12 12 0 0 0
M  V30 BEGIN ATOM
M  V30 1 O 0.0 0.0 0.0 0
M  V30 2 C 1.2863 0.7814 0.0 0
M  V30 3 O 1.2623 2.3202 0.0 0
M  V30 4 C 2.5727 0.048 0.0 0
M  V30 5 C 2.5487 -1.4426 0.0 0
M  V30 6 C 3.8351 -2.176 0.0 0
M  V30 7 C 3.811 -3.6667 0.0 0
M  V30 8 C 2.4765 -4.4121 0.0 0
M  V30 9 C 5.0974 -4.4121 0.0 0
M  V30 10 C 2.4525 -5.9029 0.0 0
M  V30 11 C 5.0733 -5.9029 0.0 0
M  V30 12 C 3.7389 -6.6483 0.0 0
M  V30 END ATOM
M  V30 BEGIN BOND
M  V30 1 2 1 2
M  V30 2 1 2 3
M  V30 3 1 2 4
M  V30 4 1 4 5
M  V30 5 1 5 6
M  V30 6 1 6 7
M  V30 7 1 7 8
M  V30 8 1 7 9
M  V30 9 1 8 10
M  V30 10 1 9 11
M  V30 11 1 10 12
M  V30 12 1 11 12
M  V30 END BOND
M  V30 END CTAB
M  END
>  <Dotmatics_CR>
R-009171

>  <CR_Set>
Acid

>  <Category>
Carboxylic Acids Non-Aromatic

>  <Reaction type>
Amidation

>  <KI/BB_Nature>
Amine

>  <Comments>


>  <Salt>


>  <CR_Chiral_Form>
Achiral

>  <Prod_total_used>
16

>  <PSR (%)>
75

>  <Article>
4-Cyclohexanebutyric acid

>  <CAS>
4441-63-8

>  <Density>
1

>  <Prod_reagent_number>
C168

>  <Stereocenters>
0

>  <NB_Name reaction - KI/BB – Capping>
03-Amidation_Amine_Acid

$$$$
R-000785
Actelion Java MolfileCreator 2.0

  0  0  0  0  0  0              0 V3000
M  V30 BEGIN CTAB
M  V30 COUNTS 12 12 0 0 0
M  V30 BEGIN ATOM
M  V30 1 O 0.0 0.0 0.0 0
M  V30 2 C -0.0239 -1.4857 0.0 0
M  V30 3 O -1.3539 -2.2166 0.0 0
M  V30 4 C 1.258 -2.2166 0.0 0
M  V30 5 C 2.5401 -1.4498 0.0 0
M  V30 6 C 3.8222 -2.1806 0.0 0
M  V30 7 C 2.5161 0.0838 0.0 0
M  V30 8 C 5.1042 -1.4138 0.0 0
M  V30 9 C 3.7982 -3.6664 0.0 0
M  V30 10 C 3.7982 0.8507 0.0 0
M  V30 11 C 5.0802 0.1198 0.0 0
M  V30 12 C 3.7742 2.3843 0.0 0
M  V30 END ATOM
M  V30 BEGIN BOND
M  V30 1 2 1 2
M  V30 2 1 2 3
M  V30 3 1 2 4
M  V30 4 1 4 5
M  V30 5 2 5 6
M  V30 6 1 5 7
M  V30 7 1 6 8
M  V30 8 1 6 9
M  V30 9 2 7 10
M  V30 10 2 8 11
M  V30 11 1 10 12
M  V30 12 1 10 11
M  V30 END BOND
M  V30 END CTAB
M  END
>  <Dotmatics_CR>
R-000785

>  <CR_Set>
Acid

>  <Category>
Carboxylic Acids Non-Aromatic

>  <Reaction type>
Amidation

>  <KI/BB_Nature>
Amine

>  <Comments>


>  <Salt>


>  <CR_Chiral_Form>
Achiral

>  <Prod_total_used>
31

>  <PSR (%)>
77

>  <Article>
2,5-Dimethylphenylacetic acid

>  <CAS>
13612-34-5

>  <Density>
1

>  <Prod_reagent_number>
C052

>  <Stereocenters>
0

>  <NB_Name reaction - KI/BB – Capping>
03-Amidation_Amine_Acid

$$$$
R-009944
Actelion Java MolfileCreator 2.0

  0  0  0  0  0  0              0 V3000
M  V30 BEGIN CTAB
M  V30 COUNTS 12 12 0 0 0
M  V30 BEGIN ATOM
M  V30 1 Cl 0.0 0.0 0.0 0
M  V30 2 C 1.2788 0.7648 0.0 0
M  V30 3 C 2.5576 0.0358 0.0 0
M  V30 4 C 1.2549 2.2946 0.0 0
M  V30 5 C 3.8364 0.8007 0.0 0
M  V30 6 C 2.5337 3.0595 0.0 0
M  V30 7 F 5.1152 0.0717 0.0 0
M  V30 8 C 3.8125 2.3305 0.0 0
M  V30 9 C 5.0913 3.0954 0.0 0
M  V30 10 C 5.0674 4.6252 0.0 0
M  V30 11 O 3.7408 5.402 0.0 0
M  V30 12 O 6.3462 5.402 0.0 0
M  V30 END ATOM
M  V30 BEGIN BOND
M  V30 1 1 1 2
M  V30 2 2 2 3
M  V30 3 1 2 4
M  V30 4 1 3 5
M  V30 5 2 4 6
M  V30 6 1 5 7
M  V30 7 2 5 8
M  V30 8 1 8 9
M  V30 9 1 9 10
M  V30 10 2 10 11
M  V30 11 1 10 12
M  V30 12 1 6 8
M  V30 END BOND
M  V30 END CTAB
M  END
>  <Dotmatics_CR>
R-009944

>  <CR_Set>
Acid

>  <Category>
Carboxylic Acids Non-Aromatic

>  <Reaction type>
Amidation

>  <KI/BB_Nature>
Amine

>  <Comments>


>  <Salt>


>  <CR_Chiral_Form>
Achiral

>  <Prod_total_used>
25

>  <PSR (%)>
88

>  <Article>
4-Chloro-2-fluorophenylacetic acid

>  <CAS>
194240-75-0

>  <Density>
1

>  <Prod_reagent_number>
C053

>  <Stereocenters>
0

>  <NB_Name reaction - KI/BB – Capping>
03-Amidation_Amine_Acid

$$$$
R-008815
Actelion Java MolfileCreator 2.0

  0  0  0  0  0  0              0 V3000
M  V30 BEGIN CTAB
M  V30 COUNTS 12 12 0 0 0
M  V30 BEGIN ATOM
M  V30 1 F 0.0 0.0 0.0 0
M  V30 2 C -0.7677 -1.2836 0.0 0
M  V30 3 C -2.3033 -1.2596 0.0 0
M  V30 4 C -0.0359 -2.5672 0.0 0
M  V30 5 F -3.0711 0.0719 0.0 0
M  V30 6 C -3.0711 -2.5433 0.0 0
M  V30 7 C -0.8037 -3.8509 0.0 0
M  V30 8 C 1.4516 -2.5433 0.0 0
M  V30 9 C -2.3393 -3.8269 0.0 0
M  V30 10 C 2.1834 -3.8269 0.0 0
M  V30 11 O 3.6709 -3.8029 0.0 0
M  V30 12 O 1.4156 -5.1106 0.0 0
M  V30 END ATOM
M  V30 BEGIN BOND
M  V30 1 1 1 2
M  V30 2 2 2 3
M  V30 3 1 2 4
M  V30 4 1 3 5
M  V30 5 1 3 6
M  V30 6 2 4 7
M  V30 7 1 4 8
M  V30 8 2 6 9
M  V30 9 1 8 10
M  V30 10 2 10 11
M  V30 11 1 10 12
M  V30 12 1 7 9
M  V30 END BOND
M  V30 END CTAB
M  END
>  <Dotmatics_CR>
R-008815

>  <CR_Set>
Acid

>  <Category>
Carboxylic Acids Non-Aromatic

>  <Reaction type>
Amidation

>  <KI/BB_Nature>
Amine

>  <Comments>


>  <Salt>


>  <CR_Chiral_Form>
Achiral

>  <Prod_total_used>
23

>  <PSR (%)>
83

>  <Article>
2,3-Difluorophenylacetic acid

>  <CAS>
145689-41-4

>  <Density>
1

>  <Prod_reagent_number>
C054

>  <Stereocenters>
0

>  <NB_Name reaction - KI/BB – Capping>
03-Amidation_Amine_Acid

$$$$
R-003678
Actelion Java MolfileCreator 2.0

  0  0  0  0  0  0              0 V3000
M  V30 BEGIN CTAB
M  V30 COUNTS 12 12 0 0 0
M  V30 BEGIN ATOM
M  V30 1 F 0.0 0.0 0.0 0
M  V30 2 C 1.2815 -0.7305 0.0 0
M  V30 3 C 2.563 0.0359 0.0 0
M  V30 4 C 1.2575 -2.2157 0.0 0
M  V30 5 C 3.8445 -0.6946 0.0 0
M  V30 6 C 2.5391 1.5689 0.0 0
M  V30 7 C 2.5391 -2.9463 0.0 0
M  V30 8 F 5.1261 0.0718 0.0 0
M  V30 9 C 3.8206 -2.1797 0.0 0
M  V30 10 C 1.2096 2.3474 0.0 0
M  V30 11 O 1.1857 3.8805 0.0 0
M  V30 12 O -0.1197 1.6168 0.0 0
M  V30 END ATOM
M  V30 BEGIN BOND
M  V30 1 1 1 2
M  V30 2 2 2 3
M  V30 3 1 2 4
M  V30 4 1 3 5
M  V30 5 1 3 6
M  V30 6 2 4 7
M  V30 7 1 5 8
M  V30 8 2 5 9
M  V30 9 1 6 10
M  V30 10 2 10 11
M  V30 11 1 10 12
M  V30 12 1 7 9
M  V30 END BOND
M  V30 END CTAB
M  END
>  <Dotmatics_CR>
R-003678

>  <CR_Set>
Acid

>  <Category>
Carboxylic Acids Non-Aromatic

>  <Reaction type>
Amidation

>  <KI/BB_Nature>
Amine

>  <Comments>


>  <Salt>


>  <CR_Chiral_Form>
Achiral

>  <Prod_total_used>
13

>  <PSR (%)>
92

>  <Article>
2,6-DIFLUOROPHENYLACETIC ACID

>  <CAS>
85068-28-6

>  <Density>
1

>  <Prod_reagent_number>


>  <Stereocenters>
0

>  <NB_Name reaction - KI/BB – Capping>
03-Amidation_Amine_Acid

$$$$
R-008728
Actelion Java MolfileCreator 2.0

  0  0  0  0  0  0              0 V3000
M  V30 BEGIN CTAB
M  V30 COUNTS 12 12 0 0 0
M  V30 BEGIN ATOM
M  V30 1 O 0.0 0.0 0.0 0
M  V30 2 C -0.0236 1.5159 0.0 0
M  V30 3 O 1.2435 2.2738 0.0 0
M  V30 4 C -1.3382 2.2738 0.0 0
M  V30 5 O -2.6528 1.5514 0.0 0
M  V30 6 C -3.9674 2.3094 0.0 0
M  V30 7 C -5.282 1.5869 0.0 0
M  V30 8 C -6.5966 2.3449 0.0 0
M  V30 9 C -5.3057 0.1184 0.0 0
M  V30 10 C -7.9111 1.6225 0.0 0
M  V30 11 C -6.6202 -0.6039 0.0 0
M  V30 12 C -7.9348 0.1539 0.0 0
M  V30 END ATOM
M  V30 BEGIN BOND
M  V30 1 2 1 2
M  V30 2 1 2 3
M  V30 3 1 2 4
M  V30 4 1 4 5
M  V30 5 1 5 6
M  V30 6 1 6 7
M  V30 7 2 7 8
M  V30 8 1 7 9
M  V30 9 1 8 10
M  V30 10 2 9 11
M  V30 11 2 10 12
M  V30 12 1 11 12
M  V30 END BOND
M  V30 END CTAB
M  END
>  <Dotmatics_CR>
R-008728

>  <CR_Set>
Acid

>  <Category>
Carboxylic Acids Non-Aromatic

>  <Reaction type>
Amidation

>  <KI/BB_Nature>
Amine

>  <Comments>


>  <Salt>


>  <CR_Chiral_Form>
Achiral

>  <Prod_total_used>
19

>  <PSR (%)>
95

>  <Article>
Benzyloxyacetic acid

>  <CAS>
30379-55-6

>  <Density>
1.162

>  <Prod_reagent_number>
C056

>  <Stereocenters>
0

>  <NB_Name reaction - KI/BB – Capping>
03-Amidation_Amine_Acid

$$$$
R-011179
Actelion Java MolfileCreator 2.0

  0  0  0  0  0  0              0 V3000
M  V30 BEGIN CTAB
M  V30 COUNTS 12 12 0 0 0
M  V30 BEGIN ATOM
M  V30 1 O 0.0 0.0 0.0 0
M  V30 2 C -0.0234 -1.475 0.0 0
M  V30 3 O 1.2525 -2.1891 0.0 0
M  V30 4 C -1.3462 -2.1891 0.0 0
M  V30 5 O -2.669 -1.4164 0.0 0
M  V30 6 C -3.9919 -2.1305 0.0 0
M  V30 7 C -5.3147 -1.3579 0.0 0
M  V30 8 C -4.0153 -3.6055 0.0 0
M  V30 9 C -6.6375 -2.072 0.0 0
M  V30 10 C -5.3381 -4.3196 0.0 0
M  V30 11 C -6.6609 -3.547 0.0 0
M  V30 12 C -7.9838 -4.2611 0.0 0
M  V30 END ATOM
M  V30 BEGIN BOND
M  V30 1 2 1 2
M  V30 2 1 2 3
M  V30 3 1 2 4
M  V30 4 1 4 5
M  V30 5 1 5 6
M  V30 6 2 6 7
M  V30 7 1 6 8
M  V30 8 1 7 9
M  V30 9 2 8 10
M  V30 10 2 9 11
M  V30 11 1 11 12
M  V30 12 1 10 11
M  V30 END BOND
M  V30 END CTAB
M  END
>  <Dotmatics_CR>
R-011179

>  <CR_Set>
Acid

>  <Category>
Carboxylic Acids Non-Aromatic

>  <Reaction type>
Amidation

>  <KI/BB_Nature>
Amine

>  <Comments>


>  <Salt>


>  <CR_Chiral_Form>
Achiral

>  <Prod_total_used>
1

>  <PSR (%)>
100

>  <Article>
(4-Methylphenoxy)acetic acid

>  <CAS>
940-64-7

>  <Density>
1

>  <Prod_reagent_number>
C057

>  <Stereocenters>
0

>  <NB_Name reaction - KI/BB – Capping>
03-Amidation_Amine_Acid

$$$$
R-004903
Actelion Java MolfileCreator 2.0

  0  0  0  0  0  0              0 V3000
M  V30 BEGIN CTAB
M  V30 COUNTS 12 12 0 0 0
M  V30 BEGIN ATOM
M  V30 1 O 0.0 0.0 0.0 0
M  V30 2 C -0.0237 -1.4961 0.0 0
M  V30 3 O 1.2705 -2.2323 0.0 0
M  V30 4 C -1.3655 -2.2323 0.0 0
M  V30 5 C -1.3892 -3.7284 0.0 0
M  V30 6 C -2.731 -4.4527 0.0 0
M  V30 7 C -0.0949 -4.4527 0.0 0
M  V30 8 C -2.7547 -5.9488 0.0 0
M  V30 9 C -0.1187 -5.9488 0.0 0
M  V30 10 C -1.4604 -6.6731 0.0 0
M  V30 11 O -1.4842 -8.1692 0.0 0
M  V30 12 C -0.1899 -8.8936 0.0 0
M  V30 END ATOM
M  V30 BEGIN BOND
M  V30 1 2 1 2
M  V30 2 1 2 3
M  V30 3 1 2 4
M  V30 4 1 4 5
M  V30 5 2 5 6
M  V30 6 1 5 7
M  V30 7 1 6 8
M  V30 8 2 7 9
M  V30 9 2 8 10
M  V30 10 1 10 11
M  V30 11 1 11 12
M  V30 12 1 9 10
M  V30 END BOND
M  V30 END CTAB
M  END
>  <Dotmatics_CR>
R-004903

>  <CR_Set>
Acid

>  <Category>
Carboxylic Acids Non-Aromatic

>  <Reaction type>
Amidation

>  <KI/BB_Nature>
Amine

>  <Comments>


>  <Salt>


>  <CR_Chiral_Form>
Achiral

>  <Prod_total_used>
1

>  <PSR (%)>
100

>  <Article>
4-METHOXYPHENYLACETIC ACID

>  <CAS>
104-01-8

>  <Density>
1

>  <Prod_reagent_number>


>  <Stereocenters>
0

>  <NB_Name reaction - KI/BB – Capping>
03-Amidation_Amine_Acid

$$$$
R-005675
Actelion Java MolfileCreator 2.0

  0  0  0  0  0  0              0 V3000
M  V30 BEGIN CTAB
M  V30 COUNTS 12 12 0 0 0
M  V30 BEGIN ATOM
M  V30 1 O 0.0 0.0 0.0 0
M  V30 2 C -0.0245 -1.496 0.0 0
M  V30 3 O 1.1158 -2.2685 0.0 0
M  V30 4 C -1.2998 -2.244 0.0 0
M  V30 5 C -2.6119 -1.496 0.0 0
M  V30 6 C -1.2998 -3.7032 0.0 0
M  V30 7 C -3.8994 -2.2317 0.0 0
M  V30 8 C -2.5874 -4.4267 0.0 0
M  V30 9 C -3.8994 -3.6665 0.0 0
M  V30 10 C -5.1993 -1.496 0.0 0
M  V30 11 O -5.2483 -0.0122 0.0 0
M  V30 12 C -6.8179 0.8461 0.0 0
M  V30 END ATOM
M  V30 BEGIN BOND
M  V30 1 2 1 2
M  V30 2 1 2 3
M  V30 3 1 2 4
M  V30 4 2 4 5
M  V30 5 1 4 6
M  V30 6 1 5 7
M  V30 7 2 6 8
M  V30 8 2 7 9
M  V30 9 1 7 10
M  V30 10 1 10 11
M  V30 11 1 11 12
M  V30 12 1 8 9
M  V30 END BOND
M  V30 END CTAB
M  END
>  <Dotmatics_CR>
R-005675

>  <CR_Set>
Acid

>  <Category>
Carboxylic Acids Aromatic

>  <Reaction type>
Amidation

>  <KI/BB_Nature>
Amine

>  <Comments>


>  <Salt>


>  <CR_Chiral_Form>
Achiral

>  <Prod_total_used>
1

>  <PSR (%)>
100

>  <Article>
Benzoic acid, 3-(methoxymethyl)-

>  <CAS>
32194-76-6

>  <Density>
1

>  <Prod_reagent_number>


>  <Stereocenters>
0

>  <NB_Name reaction - KI/BB – Capping>
03-Amidation_Amine_Acid

$$$$
R-006349
Actelion Java MolfileCreator 2.0

  0  0  0  0  0  0              0 V3000
M  V30 BEGIN CTAB
M  V30 COUNTS 12 12 0 0 0
M  V30 BEGIN ATOM
M  V30 1 O 0.0 0.0 0.0 0
M  V30 2 C 1.2926 -0.7234 0.0 0
M  V30 3 O 2.5853 0.0592 0.0 0
M  V30 4 C 1.2689 -2.2177 0.0 0
M  V30 5 C 2.5616 -2.9411 0.0 0
M  V30 6 C -0.0711 -2.9411 0.0 0
M  V30 7 O 3.8543 -2.1584 0.0 0
M  V30 8 C 2.5379 -4.4354 0.0 0
M  V30 9 C -0.0948 -4.4354 0.0 0
M  V30 10 C 5.147 -2.8818 0.0 0
M  V30 11 C 1.1978 -5.1588 0.0 0
M  V30 12 C -1.435 -5.1588 0.0 0
M  V30 END ATOM
M  V30 BEGIN BOND
M  V30 1 2 1 2
M  V30 2 1 2 3
M  V30 3 1 2 4
M  V30 4 2 4 5
M  V30 5 1 4 6
M  V30 6 1 5 7
M  V30 7 1 5 8
M  V30 8 2 6 9
M  V30 9 1 7 10
M  V30 10 2 8 11
M  V30 11 1 9 12
M  V30 12 1 9 11
M  V30 END BOND
M  V30 END CTAB
M  END
>  <Dotmatics_CR>
R-006349

>  <CR_Set>
Acid

>  <Category>
Carboxylic Acids Aromatic

>  <Reaction type>
Amidation

>  <KI/BB_Nature>
Amine

>  <Comments>


>  <Salt>


>  <CR_Chiral_Form>
Achiral

>  <Prod_total_used>
1

>  <PSR (%)>
100

>  <Article>
2-methoxy-5-methylbenzoic acid

>  <CAS>
25045-36-7

>  <Density>
1

>  <Prod_reagent_number>


>  <Stereocenters>
0

>  <NB_Name reaction - KI/BB – Capping>
03-Amidation_Amine_Acid

$$$$
R-001142
Actelion Java MolfileCreator 2.0

  0  0  0  0  0  0              0 V3000
M  V30 BEGIN CTAB
M  V30 COUNTS 12 12 0 0 0
M  V30 BEGIN ATOM
M  V30 1 O 0.0 0.0 0.0 0
M  V30 2 C 1.3537 0.7837 0.0 0
M  V30 3 O 1.4606 2.2562 0.0 0
M  V30 4 C 2.6599 0.0712 0.0 0
M  V30 5 C 2.6599 -1.4249 0.0 0
M  V30 6 C 3.9662 -2.1493 0.0 0
M  V30 7 C 1.3181 -2.1493 0.0 0
M  V30 8 C 3.9305 -3.6337 0.0 0
M  V30 9 C 1.2943 -3.6337 0.0 0
M  V30 10 O 5.2249 -4.358 0.0 0
M  V30 11 C 2.5887 -4.3699 0.0 0
M  V30 12 C 5.213 -5.8424 0.0 0
M  V30 END ATOM
M  V30 BEGIN BOND
M  V30 1 2 1 2
M  V30 2 1 2 3
M  V30 3 1 2 4
M  V30 4 1 4 5
M  V30 5 2 5 6
M  V30 6 1 5 7
M  V30 7 1 6 8
M  V30 8 2 7 9
M  V30 9 1 8 10
M  V30 10 2 8 11
M  V30 11 1 10 12
M  V30 12 1 9 11
M  V30 END BOND
M  V30 END CTAB
M  END
>  <Dotmatics_CR>
R-001142

>  <CR_Set>
Acid

>  <Category>
Carboxylic Acids Non-Aromatic

>  <Reaction type>
Amidation

>  <KI/BB_Nature>
Amine

>  <Comments>


>  <Salt>


>  <CR_Chiral_Form>
Achiral

>  <Prod_total_used>
1

>  <PSR (%)>
100

>  <Article>
3-METHOXYPHENYLACETIC ACID

>  <CAS>
1798-09-0

>  <Density>
1

>  <Prod_reagent_number>


>  <Stereocenters>
0

>  <NB_Name reaction - KI/BB – Capping>
03-Amidation_Amine_Acid

$$$$
R-004883
Actelion Java MolfileCreator 2.0

  0  0  0  0  0  0              0 V3000
M  V30 BEGIN CTAB
M  V30 COUNTS 12 12 0 0 0
M  V30 BEGIN ATOM
M  V30 1 O 0.0 0.0 0.0 0
M  V30 2 C 1.3205 -0.7781 0.0 0
M  V30 3 O 2.6175 -0.1414 0.0 0
M  V30 4 C 1.3205 -2.2638 0.0 0
M  V30 5 C -0.0117 -3.0066 0.0 0
M  V30 6 C 2.6175 -3.0066 0.0 0
M  V30 7 C -0.0353 -4.4923 0.0 0
M  V30 8 C 2.5939 -4.4923 0.0 0
M  V30 9 C 1.2498 -5.2233 0.0 0
M  V30 10 O 1.2144 -6.709 0.0 0
M  V30 11 C -0.1296 -7.4164 0.0 0
M  V30 12 C -1.462 -6.6618 0.0 0
M  V30 END ATOM
M  V30 BEGIN BOND
M  V30 1 2 1 2
M  V30 2 1 2 3
M  V30 3 1 2 4
M  V30 4 2 4 5
M  V30 5 1 4 6
M  V30 6 1 5 7
M  V30 7 2 6 8
M  V30 8 2 7 9
M  V30 9 1 9 10
M  V30 10 1 10 11
M  V30 11 1 11 12
M  V30 12 1 8 9
M  V30 END BOND
M  V30 END CTAB
M  END
>  <Dotmatics_CR>
R-004883

>  <CR_Set>
Acid

>  <Category>
Carboxylic Acids Aromatic

>  <Reaction type>
Amidation

>  <KI/BB_Nature>
Amine

>  <Comments>


>  <Salt>


>  <CR_Chiral_Form>
Achiral

>  <Prod_total_used>
1

>  <PSR (%)>
100

>  <Article>
4-ETHOXYBENZOIC ACID

>  <CAS>
619-86-3

>  <Density>
1

>  <Prod_reagent_number>


>  <Stereocenters>
0

>  <NB_Name reaction - KI/BB – Capping>
03-Amidation_Amine_Acid

$$$$
R-005003
Actelion Java MolfileCreator 2.0

  0  0  0  0  0  0              0 V3000
M  V30 BEGIN CTAB
M  V30 COUNTS 12 12 0 0 0
M  V30 BEGIN ATOM
M  V30 1 O 0.0 0.0 0.0 0
M  V30 2 C 1.384 0.6333 0.0 0
M  V30 3 O 1.5364 2.1346 0.0 0
M  V30 4 C 2.5686 -0.2463 0.0 0
M  V30 5 C 3.9409 0.3753 0.0 0
M  V30 6 O 5.102 -0.5043 0.0 0
M  V30 7 C 6.486 0.129 0.0 0
M  V30 8 C 6.6502 1.6303 0.0 0
M  V30 9 C 7.6824 -0.7506 0.0 0
M  V30 10 C 8.0108 2.2636 0.0 0
M  V30 11 C 9.0547 -0.129 0.0 0
M  V30 12 C 9.2071 1.384 0.0 0
M  V30 END ATOM
M  V30 BEGIN BOND
M  V30 1 2 1 2
M  V30 2 1 2 3
M  V30 3 1 2 4
M  V30 4 1 4 5
M  V30 5 1 5 6
M  V30 6 1 6 7
M  V30 7 2 7 8
M  V30 8 1 7 9
M  V30 9 1 8 10
M  V30 10 2 9 11
M  V30 11 2 10 12
M  V30 12 1 11 12
M  V30 END BOND
M  V30 END CTAB
M  END
>  <Dotmatics_CR>
R-005003

>  <CR_Set>
Acid

>  <Category>
Carboxylic Acids Non-Aromatic

>  <Reaction type>
Amidation

>  <KI/BB_Nature>
Amine

>  <Comments>


>  <Salt>


>  <CR_Chiral_Form>
Achiral

>  <Prod_total_used>
1

>  <PSR (%)>
100

>  <Article>
3-PHENOXYPROPIONIC ACID

>  <CAS>
7170-38-9

>  <Density>
1

>  <Prod_reagent_number>


>  <Stereocenters>
0

>  <NB_Name reaction - KI/BB – Capping>
03-Amidation_Amine_Acid

$$$$
R-005790
Actelion Java MolfileCreator 2.0

  0  0  0  0  0  0              0 V3000
M  V30 BEGIN CTAB
M  V30 COUNTS 12 12 0 0 0
M  V30 BEGIN ATOM
M  V30 1 O 0.0 0.0 0.0 0
M  V30 2 C -0.0237 1.5225 0.0 0
M  V30 3 O 1.2489 2.2956 0.0 0
M  V30 4 C -1.344 2.2956 0.0 0
M  V30 5 C -2.6643 1.57 0.0 0
M  V30 6 C -2.6881 0.0951 0.0 0
M  V30 7 C -3.9847 2.3313 0.0 0
M  V30 8 O -1.4154 -0.6304 0.0 0
M  V30 9 C -4.0084 -0.6304 0.0 0
M  V30 10 C -5.305 1.6057 0.0 0
M  V30 11 C -1.4392 -2.1053 0.0 0
M  V30 12 C -5.3287 0.1308 0.0 0
M  V30 END ATOM
M  V30 BEGIN BOND
M  V30 1 2 1 2
M  V30 2 1 2 3
M  V30 3 1 2 4
M  V30 4 1 4 5
M  V30 5 2 5 6
M  V30 6 1 5 7
M  V30 7 1 6 8
M  V30 8 1 6 9
M  V30 9 2 7 10
M  V30 10 1 8 11
M  V30 11 2 9 12
M  V30 12 1 10 12
M  V30 END BOND
M  V30 END CTAB
M  END
>  <Dotmatics_CR>
R-005790

>  <CR_Set>
Acid

>  <Category>
Carboxylic Acids Non-Aromatic

>  <Reaction type>
Amidation

>  <KI/BB_Nature>
Amine

>  <Comments>


>  <Salt>


>  <CR_Chiral_Form>
Achiral

>  <Prod_total_used>
1

>  <PSR (%)>
100

>  <Article>
2-METHOXYPHENYLACETIC ACID

>  <CAS>
93-25-4

>  <Density>
1

>  <Prod_reagent_number>


>  <Stereocenters>
0

>  <NB_Name reaction - KI/BB – Capping>
03-Amidation_Amine_Acid

$$$$
R-008725
Actelion Java MolfileCreator 2.0

  0  0  0  0  0  0              0 V3000
M  V30 BEGIN CTAB
M  V30 COUNTS 12 12 0 0 0
M  V30 BEGIN ATOM
M  V30 1 F 0.0 0.0 0.0 0
M  V30 2 C 1.2851 0.7806 0.0 0
M  V30 3 C 2.5702 0.048 0.0 0
M  V30 4 C 1.2611 2.318 0.0 0
M  V30 5 C 3.8554 0.8167 0.0 0
M  V30 6 C 2.5462 3.0987 0.0 0
M  V30 7 C 3.8313 2.354 0.0 0
M  V30 8 C 5.1405 0.084 0.0 0
M  V30 9 O 5.1165 3.1347 0.0 0
M  V30 10 O 5.1165 -1.4052 0.0 0
M  V30 11 O 6.4256 0.8647 0.0 0
M  V30 12 C 6.4016 2.4021 0.0 0
M  V30 END ATOM
M  V30 BEGIN BOND
M  V30 1 1 1 2
M  V30 2 2 2 3
M  V30 3 1 2 4
M  V30 4 1 3 5
M  V30 5 2 4 6
M  V30 6 2 5 7
M  V30 7 1 5 8
M  V30 8 1 7 9
M  V30 9 2 8 10
M  V30 10 1 8 11
M  V30 11 1 9 12
M  V30 12 1 6 7
M  V30 END BOND
M  V30 END CTAB
M  END
>  <Dotmatics_CR>
R-008725

>  <CR_Set>
Acid

>  <Category>
Carboxylic Acids Aromatic

>  <Reaction type>
Amidation

>  <KI/BB_Nature>
Amine

>  <Comments>


>  <Salt>


>  <CR_Chiral_Form>
Achiral

>  <Prod_total_used>
12

>  <PSR (%)>
92

>  <Article>
5-Fluoro-2-methoxybenzoic acid

>  <CAS>
394-04-7

>  <Density>
1

>  <Prod_reagent_number>
C059

>  <Stereocenters>
0

>  <NB_Name reaction - KI/BB – Capping>
03-Amidation_Amine_Acid

$$$$
R-004659
Actelion Java MolfileCreator 2.0

  0  0  0  0  0  0              0 V3000
M  V30 BEGIN CTAB
M  V30 COUNTS 12 12 0 0 0
M  V30 BEGIN ATOM
M  V30 1 Cl 0.0 0.0 0.0 0
M  V30 2 C -1.3164 0.759 0.0 0
M  V30 3 C -1.3401 2.277 0.0 0
M  V30 4 C -2.6328 0.0355 0.0 0
M  V30 5 O -0.0711 3.0479 0.0 0
M  V30 6 C -2.6566 3.0479 0.0 0
M  V30 7 C -3.9374 0.7946 0.0 0
M  V30 8 C 1.1978 2.3245 0.0 0
M  V30 9 C -3.9612 2.3126 0.0 0
M  V30 10 C 2.4668 3.0954 0.0 0
M  V30 11 O 2.4431 4.6134 0.0 0
M  V30 12 O 3.7358 2.3719 0.0 0
M  V30 END ATOM
M  V30 BEGIN BOND
M  V30 1 1 1 2
M  V30 2 2 2 3
M  V30 3 1 2 4
M  V30 4 1 3 5
M  V30 5 1 3 6
M  V30 6 2 4 7
M  V30 7 1 5 8
M  V30 8 2 6 9
M  V30 9 1 8 10
M  V30 10 2 10 11
M  V30 11 1 10 12
M  V30 12 1 7 9
M  V30 END BOND
M  V30 END CTAB
M  END
>  <Dotmatics_CR>
R-004659

>  <CR_Set>
Acid

>  <Category>
Carboxylic Acids Non-Aromatic

>  <Reaction type>
Amidation

>  <KI/BB_Nature>
Amine

>  <Comments>


>  <Salt>


>  <CR_Chiral_Form>
Achiral

>  <Prod_total_used>
2

>  <PSR (%)>
100

>  <Article>
2-CHLOROPHENOXYACETIC ACID

>  <CAS>
614-61-9

>  <Density>


>  <Prod_reagent_number>
C060

>  <Stereocenters>
0

>  <NB_Name reaction - KI/BB – Capping>
03-Amidation_Amine_Acid

$$$$
R-000776
Actelion Java MolfileCreator 2.0

  0  0  0  0  0  0              0 V3000
M  V30 BEGIN CTAB
M  V30 COUNTS 12 12 0 0 0
M  V30 BEGIN ATOM
M  V30 1 F 0.0 0.0 0.0 0
M  V30 2 C -1.3203 -0.7255 0.0 0
M  V30 3 C -2.6406 0.0475 0.0 0
M  V30 4 C -1.3441 -2.2005 0.0 0
M  V30 5 O -2.6644 1.5701 0.0 0
M  V30 6 C -3.9609 -0.678 0.0 0
M  V30 7 C -0.0713 -2.9261 0.0 0
M  V30 8 C -2.6644 -2.9261 0.0 0
M  V30 9 C -3.9847 2.3313 0.0 0
M  V30 10 C -3.9847 -2.1529 0.0 0
M  V30 11 O -0.0951 -4.401 0.0 0
M  V30 12 O 1.2013 -2.1648 0.0 0
M  V30 END ATOM
M  V30 BEGIN BOND
M  V30 1 1 1 2
M  V30 2 2 2 3
M  V30 3 1 2 4
M  V30 4 1 3 5
M  V30 5 1 3 6
M  V30 6 1 4 7
M  V30 7 2 4 8
M  V30 8 1 5 9
M  V30 9 2 6 10
M  V30 10 2 7 11
M  V30 11 1 7 12
M  V30 12 1 8 10
M  V30 END BOND
M  V30 END CTAB
M  END
>  <Dotmatics_CR>
R-000776

>  <CR_Set>
Acid

>  <Category>
Carboxylic Acids Aromatic

>  <Reaction type>
Amidation

>  <KI/BB_Nature>
Amine

>  <Comments>


>  <Salt>


>  <CR_Chiral_Form>
Achiral

>  <Prod_total_used>
8

>  <PSR (%)>
88

>  <Article>
2-Fluoro-3-methoxybenzoic acid

>  <CAS>
137654-20-7

>  <Density>
1

>  <Prod_reagent_number>
C062

>  <Stereocenters>
0

>  <NB_Name reaction - KI/BB – Capping>
03-Amidation_Amine_Acid

$$$$
R-008752
Actelion Java MolfileCreator 2.0

  0  0  0  0  0  0              0 V3000
M  V30 BEGIN CTAB
M  V30 COUNTS 12 12 0 0 0
M  V30 BEGIN ATOM
M  V30 1 F 0.0 0.0 0.0 0
M  V30 2 C -1.3085 0.7662 0.0 0
M  V30 3 C -1.3321 2.2751 0.0 0
M  V30 4 C -2.617 0.0471 0.0 0
M  V30 5 O -0.0707 3.0414 0.0 0
M  V30 6 C -2.6406 3.0414 0.0 0
M  V30 7 C -3.9255 0.8134 0.0 0
M  V30 8 C 1.1906 2.3223 0.0 0
M  V30 9 C -3.9491 2.3223 0.0 0
M  V30 10 C -5.2576 3.0886 0.0 0
M  V30 11 O -6.5662 2.3694 0.0 0
M  V30 12 O -5.2812 4.5975 0.0 0
M  V30 END ATOM
M  V30 BEGIN BOND
M  V30 1 1 1 2
M  V30 2 2 2 3
M  V30 3 1 2 4
M  V30 4 1 3 5
M  V30 5 1 3 6
M  V30 6 2 4 7
M  V30 7 1 5 8
M  V30 8 2 6 9
M  V30 9 1 9 10
M  V30 10 2 10 11
M  V30 11 1 10 12
M  V30 12 1 7 9
M  V30 END BOND
M  V30 END CTAB
M  END
>  <Dotmatics_CR>
R-008752

>  <CR_Set>
Acid

>  <Category>
Carboxylic Acids Aromatic

>  <Reaction type>
Amidation

>  <KI/BB_Nature>
Amine

>  <Comments>


>  <Salt>


>  <CR_Chiral_Form>
Achiral

>  <Prod_total_used>
8

>  <PSR (%)>
75

>  <Article>
4-Fluoro-3-methoxybenzoic acid

>  <CAS>
82846-18-2

>  <Density>
1

>  <Prod_reagent_number>
C063

>  <Stereocenters>
0

>  <NB_Name reaction - KI/BB – Capping>
03-Amidation_Amine_Acid

$$$$
R-010365
Actelion Java MolfileCreator 2.0

  0  0  0  0  0  0              0 V3000
M  V30 BEGIN CTAB
M  V30 COUNTS 12 12 0 0 0
M  V30 BEGIN ATOM
M  V30 1 F 0.0 0.0 0.0 0
M  V30 2 C -1.3147 -0.7224 0.0 0
M  V30 3 C -1.3383 -2.1911 0.0 0
M  V30 4 C -2.6294 0.0473 0.0 0
M  V30 5 C -2.6531 -2.9136 0.0 0
M  V30 6 C -3.9441 -0.6751 0.0 0
M  V30 7 O -2.6767 -4.3823 0.0 0
M  V30 8 C -3.9678 -2.1438 0.0 0
M  V30 9 C -5.2588 0.0947 0.0 0
M  V30 10 C -3.9915 -5.1167 0.0 0
M  V30 11 O -6.5735 -0.6277 0.0 0
M  V30 12 O -5.2825 1.6108 0.0 0
M  V30 END ATOM
M  V30 BEGIN BOND
M  V30 1 1 1 2
M  V30 2 2 2 3
M  V30 3 1 2 4
M  V30 4 1 3 5
M  V30 5 2 4 6
M  V30 6 1 5 7
M  V30 7 2 5 8
M  V30 8 1 6 9
M  V30 9 1 7 10
M  V30 10 2 9 11
M  V30 11 1 9 12
M  V30 12 1 6 8
M  V30 END BOND
M  V30 END CTAB
M  END
>  <Dotmatics_CR>
R-010365

>  <CR_Set>
Acid

>  <Category>
Carboxylic Acids Aromatic

>  <Reaction type>
Amidation

>  <KI/BB_Nature>
Amine

>  <Comments>


>  <Salt>


>  <CR_Chiral_Form>
Achiral

>  <Prod_total_used>
31

>  <PSR (%)>
84

>  <Article>
3-Fluoro-5-methoxybenzoic acid

>  <CAS>
176548-72-4

>  <Density>
1

>  <Prod_reagent_number>


>  <Stereocenters>
0

>  <NB_Name reaction - KI/BB – Capping>
03-Amidation_Amine_Acid

$$$$
R-007531
Actelion Java MolfileCreator 2.0

  0  0  0  0  0  0              0 V3000
M  V30 BEGIN CTAB
M  V30 COUNTS 12 12 0 0 0
M  V30 BEGIN ATOM
M  V30 1 F 0.0 0.0 0.0 0
M  V30 2 C 1.283 0.7674 0.0 0
M  V30 3 C 2.566 0.0359 0.0 0
M  V30 4 C 1.259 2.3022 0.0 0
M  V30 5 C 3.8491 0.8033 0.0 0
M  V30 6 C 2.542 3.0816 0.0 0
M  V30 7 O 5.1321 0.0719 0.0 0
M  V30 8 C 3.8251 2.3382 0.0 0
M  V30 9 C 6.4151 0.8393 0.0 0
M  V30 10 C 5.1081 3.1056 0.0 0
M  V30 11 O 5.0841 4.6405 0.0 0
M  V30 12 O 6.3912 2.3742 0.0 0
M  V30 END ATOM
M  V30 BEGIN BOND
M  V30 1 1 1 2
M  V30 2 2 2 3
M  V30 3 1 2 4
M  V30 4 1 3 5
M  V30 5 2 4 6
M  V30 6 1 5 7
M  V30 7 2 5 8
M  V30 8 1 7 9
M  V30 9 1 8 10
M  V30 10 2 10 11
M  V30 11 1 10 12
M  V30 12 1 6 8
M  V30 END BOND
M  V30 END CTAB
M  END
>  <Dotmatics_CR>
R-007531

>  <CR_Set>
Acid

>  <Category>
Carboxylic Acids Aromatic

>  <Reaction type>
Amidation

>  <KI/BB_Nature>
Amine

>  <Comments>


>  <Salt>


>  <CR_Chiral_Form>
Achiral

>  <Prod_total_used>
1

>  <PSR (%)>
100

>  <Article>
4-FLUORO-2-METHOXYBENZOIC ACID

>  <CAS>
395-82-2

>  <Density>
1

>  <Prod_reagent_number>


>  <Stereocenters>
0

>  <NB_Name reaction - KI/BB – Capping>
03-Amidation_Amine_Acid

$$$$
R-011340
Actelion Java MolfileCreator 2.0

  0  0  0  0  0  0              0 V3000
M  V30 BEGIN CTAB
M  V30 COUNTS 12 12 0 0 0
M  V30 BEGIN ATOM
M  V30 1 F 0.0 0.0 0.0 0
M  V30 2 C -1.3236 -0.7145 0.0 0
M  V30 3 C -1.3471 -2.1905 0.0 0
M  V30 4 C -2.6473 0.0585 0.0 0
M  V30 5 C -0.0702 -2.905 0.0 0
M  V30 6 C -2.6707 -2.905 0.0 0
M  V30 7 C -3.971 -0.6559 0.0 0
M  V30 8 O 1.2065 -2.1319 0.0 0
M  V30 9 O -0.0937 -4.381 0.0 0
M  V30 10 C -3.9944 -2.1319 0.0 0
M  V30 11 O -5.2947 0.1171 0.0 0
M  V30 12 C -6.6184 -0.5974 0.0 0
M  V30 END ATOM
M  V30 BEGIN BOND
M  V30 1 1 1 2
M  V30 2 2 2 3
M  V30 3 1 2 4
M  V30 4 1 3 5
M  V30 5 1 3 6
M  V30 6 2 4 7
M  V30 7 2 5 8
M  V30 8 1 5 9
M  V30 9 2 6 10
M  V30 10 1 7 11
M  V30 11 1 11 12
M  V30 12 1 7 10
M  V30 END BOND
M  V30 END CTAB
M  END
>  <Dotmatics_CR>
R-011340

>  <CR_Set>
Acid

>  <Category>
Carboxylic Acids Aromatic

>  <Reaction type>
Amidation

>  <KI/BB_Nature>
Amine

>  <Comments>


>  <Salt>


>  <CR_Chiral_Form>
Achiral

>  <Prod_total_used>
1

>  <PSR (%)>
100

>  <Article>
2-Fluoro-4-methoxybenzoic acid

>  <CAS>
394-42-3

>  <Density>
1

>  <Prod_reagent_number>


>  <Stereocenters>
0

>  <NB_Name reaction - KI/BB – Capping>
03-Amidation_Amine_Acid

$$$$
R-008740
Actelion Java MolfileCreator 2.0

  0  0  0  0  0  0              0 V3000
M  V30 BEGIN CTAB
M  V30 COUNTS 12 12 0 0 0
M  V30 BEGIN ATOM
M  V30 1 F 0.0 0.0 0.0 0
M  V30 2 C -1.312 0.7564 0.0 0
M  V30 3 C -2.624 0.0354 0.0 0
M  V30 4 C -1.3356 2.2694 0.0 0
M  V30 5 C -3.936 0.7919 0.0 0
M  V30 6 C -2.6476 -1.4302 0.0 0
M  V30 7 C -2.6476 3.0258 0.0 0
M  V30 8 O -5.248 0.0709 0.0 0
M  V30 9 C -3.9596 2.3048 0.0 0
M  V30 10 O -3.9596 -2.1512 0.0 0
M  V30 11 O -1.3829 -2.1512 0.0 0
M  V30 12 C -6.56 0.8392 0.0 0
M  V30 END ATOM
M  V30 BEGIN BOND
M  V30 1 1 1 2
M  V30 2 2 2 3
M  V30 3 1 2 4
M  V30 4 1 3 5
M  V30 5 1 3 6
M  V30 6 2 4 7
M  V30 7 1 5 8
M  V30 8 2 5 9
M  V30 9 2 6 10
M  V30 10 1 6 11
M  V30 11 1 8 12
M  V30 12 1 7 9
M  V30 END BOND
M  V30 END CTAB
M  END
>  <Dotmatics_CR>
R-008740

>  <CR_Set>
Acid

>  <Category>
Carboxylic Acids Aromatic

>  <Reaction type>
Amidation

>  <KI/BB_Nature>
Amine

>  <Comments>


>  <Salt>


>  <CR_Chiral_Form>
Achiral

>  <Prod_total_used>
1

>  <PSR (%)>
100

>  <Article>
2-Fluoro-6-methoxybenzoic acid

>  <CAS>
137654-21-8

>  <Density>
1

>  <Prod_reagent_number>


>  <Stereocenters>
0

>  <NB_Name reaction - KI/BB – Capping>
03-Amidation_Amine_Acid

$$$$
R-004828
Actelion Java MolfileCreator 2.0

  0  0  0  0  0  0              0 V3000
M  V30 BEGIN CTAB
M  V30 COUNTS 12 12 0 0 0
M  V30 BEGIN ATOM
M  V30 1 O 0.0 0.0 0.0 0
M  V30 2 C 1.3257 -0.7812 0.0 0
M  V30 3 O 2.6278 -0.142 0.0 0
M  V30 4 C 1.3257 -2.2727 0.0 0
M  V30 5 C 2.6278 -3.0066 0.0 0
M  V30 6 C -0.0118 -3.0066 0.0 0
M  V30 7 C 2.6041 -4.498 0.0 0
M  V30 8 C -0.0355 -4.498 0.0 0
M  V30 9 C 1.2547 -5.2319 0.0 0
M  V30 10 N 1.2192 -6.7234 0.0 0
M  V30 11 C -0.1302 -7.4454 0.0 0
M  V30 12 C 2.5094 -7.4336 0.0 0
M  V30 END ATOM
M  V30 BEGIN BOND
M  V30 1 2 1 2
M  V30 2 1 2 3
M  V30 3 1 2 4
M  V30 4 2 4 5
M  V30 5 1 4 6
M  V30 6 1 5 7
M  V30 7 2 6 8
M  V30 8 2 7 9
M  V30 9 1 9 10
M  V30 10 1 10 11
M  V30 11 1 10 12
M  V30 12 1 8 9
M  V30 END BOND
M  V30 END CTAB
M  END
>  <Dotmatics_CR>
R-004828

>  <CR_Set>
Acid

>  <Category>
Carboxylic Acids Aromatic

>  <Reaction type>
Amidation

>  <KI/BB_Nature>
Amine

>  <Comments>


>  <Salt>


>  <CR_Chiral_Form>
Achiral

>  <Prod_total_used>
1

>  <PSR (%)>
100

>  <Article>
4-DIMETHYLAMINOBENZOIC ACID

>  <CAS>
619-84-1

>  <Density>
1

>  <Prod_reagent_number>


>  <Stereocenters>
0

>  <NB_Name reaction - KI/BB – Capping>
03-Amidation_Amine_Acid

$$$$
R-006330
Actelion Java MolfileCreator 2.0

  0  0  0  0  0  0              0 V3000
M  V30 BEGIN CTAB
M  V30 COUNTS 12 12 0 0 0
M  V30 BEGIN ATOM
M  V30 1 O 0.0 0.0 0.0 0
M  V30 2 C -0.0237 1.5201 0.0 0
M  V30 3 O 1.247 2.2921 0.0 0
M  V30 4 C -1.342 2.2921 0.0 0
M  V30 5 C -2.6603 1.5558 0.0 0
M  V30 6 C -2.684 0.0831 0.0 0
M  V30 7 C -3.9786 2.3277 0.0 0
M  V30 8 C -4.0023 -0.6413 0.0 0
M  V30 9 C -5.2968 1.5914 0.0 0
M  V30 10 C -4.0261 -2.114 0.0 0
M  V30 11 C -5.3206 0.1187 0.0 0
M  V30 12 N -4.0498 -3.5866 0.0 0
M  V30 END ATOM
M  V30 BEGIN BOND
M  V30 1 2 1 2
M  V30 2 1 2 3
M  V30 3 1 2 4
M  V30 4 1 4 5
M  V30 5 2 5 6
M  V30 6 1 5 7
M  V30 7 1 6 8
M  V30 8 2 7 9
M  V30 9 1 8 10
M  V30 10 2 8 11
M  V30 11 3 10 12
M  V30 12 1 9 11
M  V30 END BOND
M  V30 END CTAB
M  END
>  <Dotmatics_CR>
R-006330

>  <CR_Set>
Acid

>  <Category>
Carboxylic Acids Non-Aromatic

>  <Reaction type>
Amidation

>  <KI/BB_Nature>
Amine

>  <Comments>


>  <Salt>


>  <CR_Chiral_Form>
Achiral

>  <Prod_total_used>
7

>  <PSR (%)>
100

>  <Article>
2-(3-cyanophenyl)acetic acid

>  <CAS>
1878-71-3

>  <Density>


>  <Prod_reagent_number>
C067

>  <Stereocenters>
0

>  <NB_Name reaction - KI/BB – Capping>
03-Amidation_Amine_Acid

$$$$
R-008788
Actelion Java MolfileCreator 2.0

  0  0  0  0  0  0              0 V3000
M  V30 BEGIN CTAB
M  V30 COUNTS 12 12 0 0 0
M  V30 BEGIN ATOM
M  V30 1 F 0.0 0.0 0.0 0
M  V30 2 C -1.3125 -0.7331 0.0 0
M  V30 3 F -1.3361 -2.1993 0.0 0
M  V30 4 C -2.625 0.0354 0.0 0
M  V30 5 N -3.9376 -0.6976 0.0 0
M  V30 6 C -2.6487 1.549 0.0 0
M  V30 7 C -5.2501 0.0709 0.0 0
M  V30 8 C -1.3834 2.3058 0.0 0
M  V30 9 C -3.9612 2.3058 0.0 0
M  V30 10 C -5.2738 1.5845 0.0 0
M  V30 11 O -1.4071 3.8193 0.0 0
M  V30 12 O -0.1182 1.5845 0.0 0
M  V30 END ATOM
M  V30 BEGIN BOND
M  V30 1 1 1 2
M  V30 2 1 2 3
M  V30 3 1 2 4
M  V30 4 2 4 5
M  V30 5 1 4 6
M  V30 6 1 5 7
M  V30 7 1 6 8
M  V30 8 2 6 9
M  V30 9 2 7 10
M  V30 10 2 8 11
M  V30 11 1 8 12
M  V30 12 1 9 10
M  V30 END BOND
M  V30 END CTAB
M  END
>  <Dotmatics_CR>
R-008788

>  <CR_Set>
Acid

>  <Category>
Carboxylic Acids Aromatic

>  <Reaction type>
Amidation

>  <KI/BB_Nature>
Amine

>  <Comments>


>  <Salt>


>  <CR_Chiral_Form>
Achiral

>  <Prod_total_used>
1

>  <PSR (%)>
100

>  <Article>
2-(Difluoromethyl)nicotinic acid

>  <CAS>
1256809-21-8

>  <Density>
1

>  <Prod_reagent_number>


>  <Stereocenters>
0

>  <NB_Name reaction - KI/BB – Capping>
03-Amidation_Amine_Acid

$$$$
R-005047
Actelion Java MolfileCreator 2.0

  0  0  0  0  0  0              0 V3000
M  V30 BEGIN CTAB
M  V30 COUNTS 12 12 0 0 0
M  V30 BEGIN ATOM
M  V30 1 O 0.0 0.0 0.0 0
M  V30 2 C -0.7735 -1.2733 0.0 0
M  V30 3 O -0.0357 -2.5229 0.0 0
M  V30 4 C -2.2968 -1.2495 0.0 0
M  V30 5 C -3.0584 -2.4991 0.0 0
M  V30 6 C -3.0584 0.0714 0.0 0
M  V30 7 C -4.5698 -2.4753 0.0 0
M  V30 8 C -4.5698 0.0952 0.0 0
M  V30 9 N -5.3433 -1.1781 0.0 0
M  V30 10 C -6.8666 -1.1543 0.0 0
M  V30 11 O -7.6402 0.1666 0.0 0
M  V30 12 C -7.6402 -2.4039 0.0 0
M  V30 END ATOM
M  V30 BEGIN BOND
M  V30 1 2 1 2
M  V30 2 1 2 3
M  V30 3 1 2 4
M  V30 4 1 4 5
M  V30 5 1 4 6
M  V30 6 1 5 7
M  V30 7 1 6 8
M  V30 8 1 7 9
M  V30 9 1 9 10
M  V30 10 2 10 11
M  V30 11 1 10 12
M  V30 12 1 8 9
M  V30 END BOND
M  V30 END CTAB
M  END
>  <Dotmatics_CR>
R-005047

>  <CR_Set>
Acid

>  <Category>
Carboxylic Acids Non-Aromatic

>  <Reaction type>
Amidation

>  <KI/BB_Nature>
Amine

>  <Comments>


>  <Salt>


>  <CR_Chiral_Form>
Achiral

>  <Prod_total_used>
28

>  <PSR (%)>
86

>  <Article>
1-ACETYLPIPERIDINE-4-CARBOXYLIC ACID

>  <CAS>
25503-90-6

>  <Density>
1

>  <Prod_reagent_number>
C069

>  <Stereocenters>
0

>  <NB_Name reaction - KI/BB – Capping>
03-Amidation_Amine_Acid

$$$$
R-001332
Actelion Java MolfileCreator 2.0

  0  0  0  0  0  0              0 V3000
M  V30 BEGIN CTAB
M  V30 COUNTS 12 12 0 0 0
M  V30 BEGIN ATOM
M  V30 1 O 0.0 0.0 0.0 0
M  V30 2 C -0.024 -1.4925 0.0 0
M  V30 3 N 1.2638 -2.2268 0.0 0
M  V30 4 C -1.3601 -2.2268 0.0 0
M  V30 5 C 1.2397 -3.7193 0.0 0
M  V30 6 C 2.5518 -1.4564 0.0 0
M  V30 7 C -1.3842 -3.7193 0.0 0
M  V30 8 C -0.0962 -4.4536 0.0 0
M  V30 9 C 3.8397 -2.1907 0.0 0
M  V30 10 C 5.1277 -1.4203 0.0 0
M  V30 11 O 5.1036 0.1203 0.0 0
M  V30 12 O 6.4156 -2.1546 0.0 0
M  V30 END ATOM
M  V30 BEGIN BOND
M  V30 1 2 1 2
M  V30 2 1 2 3
M  V30 3 1 2 4
M  V30 4 1 3 5
M  V30 5 1 3 6
M  V30 6 1 4 7
M  V30 7 1 5 8
M  V30 8 1 6 9
M  V30 9 1 9 10
M  V30 10 2 10 11
M  V30 11 1 10 12
M  V30 12 1 7 8
M  V30 END BOND
M  V30 END CTAB
M  END
>  <Dotmatics_CR>
R-001332

>  <CR_Set>
Acid

>  <Category>
Carboxylic Acids Non-Aromatic

>  <Reaction type>
Amidation

>  <KI/BB_Nature>
Amine

>  <Comments>


>  <Salt>


>  <CR_Chiral_Form>
Achiral

>  <Prod_total_used>
12

>  <PSR (%)>
100

>  <Article>
3-(2-oxopiperidin-1-yl)propanoic acid

>  <CAS>
117705-04-1

>  <Density>
1

>  <Prod_reagent_number>


>  <Stereocenters>
0

>  <NB_Name reaction - KI/BB – Capping>
03-Amidation_Amine_Acid

$$$$
R-008472
Actelion Java MolfileCreator 2.0

  0  0  0  0  0  0              0 V3000
M  V30 BEGIN CTAB
M  V30 COUNTS 12 12 0 0 0
M  V30 BEGIN ATOM
M  V30 1 O 0.0 0.0 0.0 0
M  V30 2 C -0.0235 -1.4695 0.0 0
M  V30 3 O 1.2462 -2.1867 0.0 0
M  V30 4 C -1.3402 -2.1867 0.0 0
M  V30 5 C -2.6569 -1.4225 0.0 0
M  V30 6 C -3.9737 -2.1397 0.0 0
M  V30 7 O -3.9972 -3.6092 0.0 0
M  V30 8 N -5.2904 -1.3755 0.0 0
M  V30 9 C -5.4668 0.1293 0.0 0
M  V30 10 C -6.6777 -1.9633 0.0 0
M  V30 11 C -6.9481 0.4585 0.0 0
M  V30 12 C -7.7005 -0.8347 0.0 0
M  V30 END ATOM
M  V30 BEGIN BOND
M  V30 1 2 1 2
M  V30 2 1 2 3
M  V30 3 1 2 4
M  V30 4 1 4 5
M  V30 5 1 5 6
M  V30 6 2 6 7
M  V30 7 1 6 8
M  V30 8 1 8 9
M  V30 9 1 8 10
M  V30 10 1 9 11
M  V30 11 1 10 12
M  V30 12 1 11 12
M  V30 END BOND
M  V30 END CTAB
M  END
>  <Dotmatics_CR>
R-008472

>  <CR_Set>
Acid

>  <Category>
Carboxylic Acids Non-Aromatic

>  <Reaction type>
Amidation

>  <KI/BB_Nature>
Amine

>  <Comments>


>  <Salt>


>  <CR_Chiral_Form>
Achiral

>  <Prod_total_used>
1

>  <PSR (%)>
100

>  <Article>
4-Oxo-4-pyrrolidin-1-yl butyric acid

>  <CAS>
69338-35-8

>  <Density>
1

>  <Prod_reagent_number>


>  <Stereocenters>
0

>  <NB_Name reaction - KI/BB – Capping>
03-Amidation_Amine_Acid

$$$$
R-005185
Actelion Java MolfileCreator 2.0

  0  0  0  0  0  0              0 V3000
M  V30 BEGIN CTAB
M  V30 COUNTS 12 12 0 0 0
M  V30 BEGIN ATOM
M  V30 1 O 0.0 0.0 0.0 0
M  V30 2 C 1.2849 0.7805 0.0 0
M  V30 3 O 1.2609 2.3177 0.0 0
M  V30 4 C 2.5699 0.048 0.0 0
M  V30 5 C 3.8549 0.8286 0.0 0
M  V30 6 C 2.5459 -1.441 0.0 0
M  V30 7 O 3.8308 2.3657 0.0 0
M  V30 8 N 5.1398 0.108 0.0 0
M  V30 9 C 3.8308 -2.1736 0.0 0
M  V30 10 C 5.1158 3.1463 0.0 0
M  V30 11 C 5.1278 -1.393 0.0 0
M  V30 12 C 6.4008 2.4138 0.0 0
M  V30 END ATOM
M  V30 BEGIN BOND
M  V30 1 2 1 2
M  V30 2 1 2 3
M  V30 3 1 2 4
M  V30 4 2 4 5
M  V30 5 1 4 6
M  V30 6 1 5 7
M  V30 7 1 5 8
M  V30 8 2 6 9
M  V30 9 1 7 10
M  V30 10 2 8 11
M  V30 11 1 10 12
M  V30 12 1 9 11
M  V30 END BOND
M  V30 END CTAB
M  END
>  <Dotmatics_CR>
R-005185

>  <CR_Set>
Acid

>  <Category>
Carboxylic Acids Aromatic

>  <Reaction type>
Amidation

>  <KI/BB_Nature>
Amine

>  <Comments>


>  <Salt>


>  <CR_Chiral_Form>
Achiral

>  <Prod_total_used>
1

>  <PSR (%)>
100

>  <Article>
2-ETHOXYNICOTINIC ACID

>  <CAS>
35969-54-1

>  <Density>
1

>  <Prod_reagent_number>


>  <Stereocenters>
0

>  <NB_Name reaction - KI/BB – Capping>
03-Amidation_Amine_Acid

$$$$
R-008750
Actelion Java MolfileCreator 2.0

  0  0  0  0  0  0              0 V3000
M  V30 BEGIN CTAB
M  V30 COUNTS 12 12 0 0 0
M  V30 BEGIN ATOM
M  V30 1 Br 0.0 0.0 0.0 0
M  V30 2 C 1.2903 -0.7355 0.0 0
M  V30 3 C 1.2661 -2.2309 0.0 0
M  V30 4 C 2.5806 0.0482 0.0 0
M  V30 5 N 2.5565 -2.9665 0.0 0
M  V30 6 C 3.8709 -0.6873 0.0 0
M  V30 7 C 3.8468 -2.1826 0.0 0
M  V30 8 C 5.1612 0.0964 0.0 0
M  V30 9 O 5.1371 -2.9182 0.0 0
M  V30 10 O 5.1371 1.64 0.0 0
M  V30 11 O 6.4515 -0.6391 0.0 0
M  V30 12 C 6.4274 -2.1344 0.0 0
M  V30 END ATOM
M  V30 BEGIN BOND
M  V30 1 1 1 2
M  V30 2 2 2 3
M  V30 3 1 2 4
M  V30 4 1 3 5
M  V30 5 2 4 6
M  V30 6 2 5 7
M  V30 7 1 6 8
M  V30 8 1 7 9
M  V30 9 2 8 10
M  V30 10 1 8 11
M  V30 11 1 9 12
M  V30 12 1 6 7
M  V30 END BOND
M  V30 END CTAB
M  END
>  <Dotmatics_CR>
R-008750

>  <CR_Set>
Acid

>  <Category>
Carboxylic Acids Aromatic

>  <Reaction type>
Amidation

>  <KI/BB_Nature>
Amine

>  <Comments>


>  <Salt>


>  <CR_Chiral_Form>
Achiral

>  <Prod_total_used>
28

>  <PSR (%)>
86

>  <Article>
5-Bromo-2-methoxypyridine-3-carboxylic acid

>  <CAS>
54916-66-4

>  <Density>
1

>  <Prod_reagent_number>


>  <Stereocenters>
0

>  <NB_Name reaction - KI/BB – Capping>
03-Amidation_Amine_Acid

$$$$
R-004894
Actelion Java MolfileCreator 2.0

  0  0  0  0  0  0              0 V3000
M  V30 BEGIN CTAB
M  V30 COUNTS 12 13 0 0 0
M  V30 BEGIN ATOM
M  V30 1 O 0.0 0.0 0.0 0
M  V30 2 C -1.0457 -1.0457 0.0 0
M  V30 3 O -0.6417 -2.4481 0.0 0
M  V30 4 C -2.5194 -0.6892 0.0 0
M  V30 5 C -3.5652 -1.735 0.0 0
M  V30 6 C -2.9828 0.7724 0.0 0
M  V30 7 C -5.0269 -1.3547 0.0 0
M  V30 8 C -4.4446 1.1408 0.0 0
M  V30 9 O -6.2747 -2.1866 0.0 0
M  V30 10 C -5.4904 0.0831 0.0 0
M  V30 11 C -7.4869 -1.2597 0.0 0
M  V30 12 O -7.0115 0.1307 0.0 0
M  V30 END ATOM
M  V30 BEGIN BOND
M  V30 1 2 1 2
M  V30 2 1 2 3
M  V30 3 1 2 4
M  V30 4 2 4 5
M  V30 5 1 4 6
M  V30 6 1 5 7
M  V30 7 2 6 8
M  V30 8 1 7 9
M  V30 9 2 7 10
M  V30 10 1 9 11
M  V30 11 1 10 12
M  V30 12 1 8 10
M  V30 13 1 11 12
M  V30 END BOND
M  V30 END CTAB
M  END
>  <Dotmatics_CR>
R-004894

>  <CR_Set>
Acid

>  <Category>
Carboxylic Acids Aromatic

>  <Reaction type>
Amidation

>  <KI/BB_Nature>
Amine

>  <Comments>


>  <Salt>


>  <CR_Chiral_Form>
Achiral

>  <Prod_total_used>
78

>  <PSR (%)>
97

>  <Article>
PIPERONILIC ACID

>  <CAS>
94-53-1

>  <Density>
1

>  <Prod_reagent_number>


>  <Stereocenters>
0

>  <NB_Name reaction - KI/BB – Capping>
03-Amidation_Amine_Acid

$$$$
R-008818
Actelion Java MolfileCreator 2.0

  0  0  0  0  0  0              0 V3000
M  V30 BEGIN CTAB
M  V30 COUNTS 12 13 0 0 0
M  V30 BEGIN ATOM
M  V30 1 O 0.0 0.0 0.0 0
M  V30 2 C -1.1572 0.9801 0.0 0
M  V30 3 O -2.5743 0.4959 0.0 0
M  V30 4 C -0.9211 2.4681 0.0 0
M  V30 5 C -2.4326 2.4917 0.0 0
M  V30 6 C 0.5196 2.7515 0.0 0
M  V30 7 C -0.4369 3.8851 0.0 0
M  V30 8 C -3.2002 3.8025 0.0 0
M  V30 9 C -3.2002 1.2281 0.0 0
M  V30 10 C -4.7118 3.8261 0.0 0
M  V30 11 C -4.7118 1.2517 0.0 0
M  V30 12 C -5.4794 2.5625 0.0 0
M  V30 END ATOM
M  V30 BEGIN BOND
M  V30 1 2 1 2
M  V30 2 1 2 3
M  V30 3 1 2 4
M  V30 4 1 4 5
M  V30 5 1 4 6
M  V30 6 1 4 7
M  V30 7 2 5 8
M  V30 8 1 5 9
M  V30 9 1 8 10
M  V30 10 2 9 11
M  V30 11 2 10 12
M  V30 12 1 6 7
M  V30 13 1 11 12
M  V30 END BOND
M  V30 END CTAB
M  END
>  <Dotmatics_CR>
R-008818

>  <CR_Set>
Acid

>  <Category>
Carboxylic Acids Non-Aromatic

>  <Reaction type>
Amidation

>  <KI/BB_Nature>
Amine

>  <Comments>


>  <Salt>


>  <CR_Chiral_Form>
Achiral

>  <Prod_total_used>
19

>  <PSR (%)>
89

>  <Article>
1-Phenyl-1-cyclopropanecarboxylic acid

>  <CAS>
6120-95-2

>  <Density>
1

>  <Prod_reagent_number>
C071

>  <Stereocenters>
0

>  <NB_Name reaction - KI/BB – Capping>
03-Amidation_Amine_Acid

$$$$
R-003231
Actelion Java MolfileCreator 2.0

  0  0  0  0  0  0              0 V3000
M  V30 BEGIN CTAB
M  V30 COUNTS 12 13 0 0 0
M  V30 BEGIN ATOM
M  V30 1 S 0.0 0.0 0.0 0
M  V30 2 C -1.4519 -0.4332 0.0 0
M  V30 3 C 0.8664 -1.1943 0.0 0
M  V30 4 C -1.4753 -1.9085 0.0 0
M  V30 5 C -2.775 0.3512 0.0 0
M  V30 6 C 2.3301 -1.1709 0.0 0
M  V30 7 C -0.0468 -2.3886 0.0 0
M  V30 8 C -2.7984 -2.6462 0.0 0
M  V30 9 C -4.0981 -0.3864 0.0 0
M  V30 10 O 3.0443 0.1522 0.0 0
M  V30 11 O 3.056 -2.4472 0.0 0
M  V30 12 C -4.1216 -1.8734 0.0 0
M  V30 END ATOM
M  V30 BEGIN BOND
M  V30 1 1 1 2
M  V30 2 1 1 3
M  V30 3 2 2 4
M  V30 4 1 2 5
M  V30 5 1 3 6
M  V30 6 2 3 7
M  V30 7 1 4 8
M  V30 8 2 5 9
M  V30 9 2 6 10
M  V30 10 1 6 11
M  V30 11 2 8 12
M  V30 12 1 4 7
M  V30 13 1 9 12
M  V30 END BOND
M  V30 END CTAB
M  END
>  <Dotmatics_CR>
R-003231

>  <CR_Set>
Acid

>  <Category>
Carboxylic Acids Aromatic

>  <Reaction type>
Amidation

>  <KI/BB_Nature>
Amine

>  <Comments>


>  <Salt>


>  <CR_Chiral_Form>
Achiral

>  <Prod_total_used>
1

>  <PSR (%)>
100

>  <Article>
BENZO[b]THIOPHENE-2-CARBOXYLIC ACID

>  <CAS>
6314-28-9

>  <Density>
1

>  <Prod_reagent_number>


>  <Stereocenters>
0

>  <NB_Name reaction - KI/BB – Capping>
03-Amidation_Amine_Acid

$$$$
R-008682
Actelion Java MolfileCreator 2.0

  0  0  0  0  0  0              0 V3000
M  V30 BEGIN CTAB
M  V30 COUNTS 12 13 0 0 0
M  V30 BEGIN ATOM
M  V30 1 O 0.0 0.0 0.0 0
M  V30 2 C 0.9662 1.1194 0.0 0
M  V30 3 O 2.392 0.8366 0.0 0
M  V30 4 C 0.4831 2.557 0.0 0
M  V30 5 C -0.9544 3.0401 0.0 0
M  V30 6 C 1.3315 3.7825 0.0 0
M  V30 7 C -0.978 4.5484 0.0 0
M  V30 8 C -2.2624 2.3213 0.0 0
M  V30 9 O 0.4359 5.008 0.0 0
M  V30 10 C -2.286 5.3143 0.0 0
M  V30 11 C -3.5704 3.0755 0.0 0
M  V30 12 C -3.5939 4.5955 0.0 0
M  V30 END ATOM
M  V30 BEGIN BOND
M  V30 1 2 1 2
M  V30 2 1 2 3
M  V30 3 1 2 4
M  V30 4 1 4 5
M  V30 5 2 4 6
M  V30 6 2 5 7
M  V30 7 1 5 8
M  V30 8 1 6 9
M  V30 9 1 7 10
M  V30 10 2 8 11
M  V30 11 2 10 12
M  V30 12 1 7 9
M  V30 13 1 11 12
M  V30 END BOND
M  V30 END CTAB
M  END
>  <Dotmatics_CR>
R-008682

>  <CR_Set>
Acid

>  <Category>
Carboxylic Acids Aromatic

>  <Reaction type>
Amidation

>  <KI/BB_Nature>
Amine

>  <Comments>


>  <Salt>


>  <CR_Chiral_Form>
Achiral

>  <Prod_total_used>
2

>  <PSR (%)>
100

>  <Article>
1-Benzofuran-3-carboxylic acid

>  <CAS>
26537-68-8

>  <Density>


>  <Prod_reagent_number>
C072

>  <Stereocenters>
0

>  <NB_Name reaction - KI/BB – Capping>
03-Amidation_Amine_Acid

$$$$
R-007191
Actelion Java MolfileCreator 2.0

  0  0  0  0  0  0              0 V3000
M  V30 BEGIN CTAB
M  V30 COUNTS 12 13 0 0 0
M  V30 BEGIN ATOM
M  V30 1 O 0.0 0.0 0.0 0
M  V30 2 C -0.7706 -1.2685 0.0 0
M  V30 3 O -0.0474 -2.5371 0.0 0
M  V30 4 C -2.2881 -1.2448 0.0 0
M  V30 5 O -3.201 -2.4186 0.0 0
M  V30 6 C -3.201 -0.0237 0.0 0
M  V30 7 C -4.6238 -1.9443 0.0 0
M  V30 8 C -4.6238 -0.4505 0.0 0
M  V30 9 C -5.9398 -2.6675 0.0 0
M  V30 10 C -5.9398 0.3201 0.0 0
M  V30 11 C -7.2558 -1.8969 0.0 0
M  V30 12 C -7.2558 -0.4031 0.0 0
M  V30 END ATOM
M  V30 BEGIN BOND
M  V30 1 2 1 2
M  V30 2 1 2 3
M  V30 3 1 2 4
M  V30 4 1 4 5
M  V30 5 2 4 6
M  V30 6 1 5 7
M  V30 7 1 6 8
M  V30 8 1 7 9
M  V30 9 1 8 10
M  V30 10 2 9 11
M  V30 11 2 10 12
M  V30 12 2 7 8
M  V30 13 1 11 12
M  V30 END BOND
M  V30 END CTAB
M  END
>  <Dotmatics_CR>
R-007191

>  <CR_Set>
Acid

>  <Category>
Carboxylic Acids Aromatic

>  <Reaction type>
Amidation

>  <KI/BB_Nature>
Amine

>  <Comments>


>  <Salt>


>  <CR_Chiral_Form>
Achiral

>  <Prod_total_used>
1

>  <PSR (%)>
100

>  <Article>
2-BENZOFURANCARBOXYLIC ACID

>  <CAS>
496-41-3

>  <Density>
1

>  <Prod_reagent_number>
C073

>  <Stereocenters>
0

>  <NB_Name reaction - KI/BB – Capping>
03-Amidation_Amine_Acid

$$$$
R-005710
Actelion Java MolfileCreator 2.0

  0  0  0  0  0  0              0 V3000
M  V30 BEGIN CTAB
M  V30 COUNTS 12 13 0 0 0
M  V30 BEGIN ATOM
M  V30 1 O 0.0 0.0 0.0 0
M  V30 2 C -0.0238 1.5278 0.0 0
M  V30 3 O -1.3488 2.2917 0.0 0
M  V30 4 C 1.2533 2.2917 0.0 0
M  V30 5 C 2.5305 1.5636 0.0 0
M  V30 6 C 1.2294 3.8196 0.0 0
M  V30 7 C 3.8076 2.3395 0.0 0
M  V30 8 C 2.5066 4.5835 0.0 0
M  V30 9 C 3.7838 3.8673 0.0 0
M  V30 10 C 5.2161 1.8978 0.0 0
M  V30 11 O 5.1923 4.3567 0.0 0
M  V30 12 C 6.0756 3.1392 0.0 0
M  V30 END ATOM
M  V30 BEGIN BOND
M  V30 1 2 1 2
M  V30 2 1 2 3
M  V30 3 1 2 4
M  V30 4 2 4 5
M  V30 5 1 4 6
M  V30 6 1 5 7
M  V30 7 2 6 8
M  V30 8 2 7 9
M  V30 9 1 7 10
M  V30 10 1 9 11
M  V30 11 1 10 12
M  V30 12 1 8 9
M  V30 13 1 11 12
M  V30 END BOND
M  V30 END CTAB
M  END
>  <Dotmatics_CR>
R-005710

>  <CR_Set>
Acid

>  <Category>
Carboxylic Acids Aromatic

>  <Reaction type>
Amidation

>  <KI/BB_Nature>
Amine

>  <Comments>


>  <Salt>


>  <CR_Chiral_Form>
Achiral

>  <Prod_total_used>
1

>  <PSR (%)>
100

>  <Article>
2,3-DIHYDROBENZOFURAN-5-CARBOXYLIC ACID

>  <CAS>
76429-73-7

>  <Density>
1

>  <Prod_reagent_number>


>  <Stereocenters>
0

>  <NB_Name reaction - KI/BB – Capping>
03-Amidation_Amine_Acid

$$$$
R-009130
Actelion Java MolfileCreator 2.0

  0  0  0  0  0  0              0 V3000
M  V30 BEGIN CTAB
M  V30 COUNTS 12 13 0 0 0
M  V30 BEGIN ATOM
M  V30 1 O 0.0 0.0 0.0 0
M  V30 2 C -1.3326 -0.7311 0.0 0
M  V30 3 O -2.6653 0.0353 0.0 0
M  V30 4 C -1.3562 -2.2171 0.0 0
M  V30 5 C -0.0707 -2.9601 0.0 0
M  V30 6 C -2.6889 -2.9601 0.0 0
M  V30 7 O 1.3444 -2.4766 0.0 0
M  V30 8 C -0.0943 -4.4461 0.0 0
M  V30 9 C -2.7125 -4.4461 0.0 0
M  V30 10 C 2.2171 -3.6795 0.0 0
M  V30 11 C -1.427 -5.1891 0.0 0
M  V30 12 C 1.3208 -4.8825 0.0 0
M  V30 END ATOM
M  V30 BEGIN BOND
M  V30 1 2 1 2
M  V30 2 1 2 3
M  V30 3 1 2 4
M  V30 4 2 4 5
M  V30 5 1 4 6
M  V30 6 1 5 7
M  V30 7 1 5 8
M  V30 8 2 6 9
M  V30 9 1 7 10
M  V30 10 2 8 11
M  V30 11 1 8 12
M  V30 12 1 9 11
M  V30 13 1 10 12
M  V30 END BOND
M  V30 END CTAB
M  END
>  <Dotmatics_CR>
R-009130

>  <CR_Set>
Acid

>  <Category>
Carboxylic Acids Aromatic

>  <Reaction type>
Amidation

>  <KI/BB_Nature>
Amine

>  <Comments>


>  <Salt>


>  <CR_Chiral_Form>
Achiral

>  <Prod_total_used>
1

>  <PSR (%)>
100

>  <Article>
2,3-Dihydrobenzo[b]furan-7-carboxylic acid

>  <CAS>
35700-40-4

>  <Density>
1

>  <Prod_reagent_number>


>  <Stereocenters>
0

>  <NB_Name reaction - KI/BB – Capping>
03-Amidation_Amine_Acid

$$$$
R-008535
Actelion Java MolfileCreator 2.0

  0  0  0  0  0  0              0 V3000
M  V30 BEGIN CTAB
M  V30 COUNTS 12 13 0 0 0
M  V30 BEGIN ATOM
M  V30 1 O 0.0 0.0 0.0 0
M  V30 2 C -0.0234 -1.4752 0.0 0
M  V30 3 O 1.2527 -2.1893 0.0 0
M  V30 4 C -1.3464 -2.1893 0.0 0
M  V30 5 C -2.6694 -1.4166 0.0 0
M  V30 6 C -1.3698 -3.6645 0.0 0
M  V30 7 C -3.9924 -2.1308 0.0 0
M  V30 8 C -2.6928 -4.3787 0.0 0
M  V30 9 N -5.4442 -1.6508 0.0 0
M  V30 10 C -4.0158 -3.606 0.0 0
M  V30 11 C -6.3574 -2.845 0.0 0
M  V30 12 N -5.4676 -4.0392 0.0 0
M  V30 END ATOM
M  V30 BEGIN BOND
M  V30 1 2 1 2
M  V30 2 1 2 3
M  V30 3 1 2 4
M  V30 4 2 4 5
M  V30 5 1 4 6
M  V30 6 1 5 7
M  V30 7 2 6 8
M  V30 8 1 7 9
M  V30 9 2 7 10
M  V30 10 2 9 11
M  V30 11 1 10 12
M  V30 12 1 8 10
M  V30 13 1 11 12
M  V30 END BOND
M  V30 END CTAB
M  END
>  <Dotmatics_CR>
R-008535

>  <CR_Set>
Acid

>  <Category>
Carboxylic Acids Aromatic

>  <Reaction type>
Amidation

>  <KI/BB_Nature>
Amine

>  <Comments>


>  <Salt>


>  <CR_Chiral_Form>
Achiral

>  <Prod_total_used>
1

>  <PSR (%)>
100

>  <Article>
5-Benzimidazolecarboxylic acid

>  <CAS>
15788-16-6

>  <Density>
1

>  <Prod_reagent_number>


>  <Stereocenters>
0

>  <NB_Name reaction - KI/BB – Capping>
03-Amidation_Amine_Acid

$$$$
R-005140
Actelion Java MolfileCreator 2.0

  0  0  0  0  0  0              0 V3000
M  V30 BEGIN CTAB
M  V30 COUNTS 12 13 0 0 0
M  V30 BEGIN ATOM
M  V30 1 O 0.0 0.0 0.0 0
M  V30 2 C 1.0063 -1.101 0.0 0
M  V30 3 O 2.4269 -0.7695 0.0 0
M  V30 4 C 0.509 -2.5335 0.0 0
M  V30 5 N 1.3851 -3.7292 0.0 0
M  V30 6 C -0.9471 -2.9478 0.0 0
M  V30 7 N 0.4617 -4.9249 0.0 0
M  V30 8 C -0.9707 -4.4395 0.0 0
M  V30 9 C -2.273 -2.1901 0.0 0
M  V30 10 C -2.2967 -5.1617 0.0 0
M  V30 11 C -3.5871 -2.9242 0.0 0
M  V30 12 C -3.6108 -4.3685 0.0 0
M  V30 END ATOM
M  V30 BEGIN BOND
M  V30 1 2 1 2
M  V30 2 1 2 3
M  V30 3 1 2 4
M  V30 4 2 4 5
M  V30 5 1 4 6
M  V30 6 1 5 7
M  V30 7 2 6 8
M  V30 8 1 6 9
M  V30 9 1 8 10
M  V30 10 2 9 11
M  V30 11 2 10 12
M  V30 12 1 7 8
M  V30 13 1 11 12
M  V30 END BOND
M  V30 END CTAB
M  END
>  <Dotmatics_CR>
R-005140

>  <CR_Set>
Acid

>  <Category>
Carboxylic Acids Aromatic

>  <Reaction type>
Amidation

>  <KI/BB_Nature>
Amine

>  <Comments>


>  <Salt>


>  <CR_Chiral_Form>
Achiral

>  <Prod_total_used>
1

>  <PSR (%)>
100

>  <Article>
INDAZOLE-3-CARBOXYLIC ACID

>  <CAS>
4498-67-3

>  <Density>
1

>  <Prod_reagent_number>


>  <Stereocenters>
0

>  <NB_Name reaction - KI/BB – Capping>
03-Amidation_Amine_Acid

$$$$
R-010361
Actelion Java MolfileCreator 2.0

  0  0  0  0  0  0              0 V3000
M  V30 BEGIN CTAB
M  V30 COUNTS 12 13 0 0 0
M  V30 BEGIN ATOM
M  V30 1 O 0.0 0.0 0.0 0
M  V30 2 C -0.4854 -1.397 0.0 0
M  V30 3 O 0.4854 -2.4743 0.0 0
M  V30 4 C -1.9652 -1.6811 0.0 0
M  V30 5 N -2.6045 -3.0189 0.0 0
M  V30 6 C -3.0899 -0.6629 0.0 0
M  V30 7 N -4.1081 -2.8413 0.0 0
M  V30 8 C -4.4041 -1.397 0.0 0
M  V30 9 C -3.1136 0.8524 0.0 0
M  V30 10 C -5.7182 -0.6274 0.0 0
M  V30 11 C -4.4278 1.6101 0.0 0
M  V30 12 C -5.7419 0.8879 0.0 0
M  V30 END ATOM
M  V30 BEGIN BOND
M  V30 1 2 1 2
M  V30 2 1 2 3
M  V30 3 1 2 4
M  V30 4 2 4 5
M  V30 5 1 4 6
M  V30 6 1 5 7
M  V30 7 2 6 8
M  V30 8 1 6 9
M  V30 9 1 8 10
M  V30 10 1 9 11
M  V30 11 1 10 12
M  V30 12 1 7 8
M  V30 13 1 11 12
M  V30 END BOND
M  V30 END CTAB
M  END
>  <Dotmatics_CR>
R-010361

>  <CR_Set>
Acid

>  <Category>
Carboxylic Acids Aromatic

>  <Reaction type>
Amidation

>  <KI/BB_Nature>
Amine

>  <Comments>


>  <Salt>


>  <CR_Chiral_Form>
Achiral

>  <Prod_total_used>
40

>  <PSR (%)>
85

>  <Article>
4,5,6,7-Tetrahydro-1H-indazole-3-carboxylic acid

>  <CAS>
6076-13-7

>  <Density>
1

>  <Prod_reagent_number>


>  <Stereocenters>
0

>  <NB_Name reaction - KI/BB – Capping>
03-Amidation_Amine_Acid

$$$$
R-008693
Actelion Java MolfileCreator 2.0

  0  0  0  0  0  0              0 V3000
M  V30 BEGIN CTAB
M  V30 COUNTS 12 13 0 0 0
M  V30 BEGIN ATOM
M  V30 1 O 0.0 0.0 0.0 0
M  V30 2 C -0.7686 -1.2652 0.0 0
M  V30 3 O -0.0473 -2.5305 0.0 0
M  V30 4 C -2.2822 -1.2416 0.0 0
M  V30 5 N -3.1809 -2.4241 0.0 0
M  V30 6 N -3.1809 -0.0118 0.0 0
M  V30 7 C -4.6235 -1.9393 0.0 0
M  V30 8 C -4.6235 -0.4493 0.0 0
M  V30 9 C -5.9361 -2.6606 0.0 0
M  V30 10 C -5.9361 0.3192 0.0 0
M  V30 11 C -7.2487 -1.892 0.0 0
M  V30 12 C -7.2487 -0.4138 0.0 0
M  V30 END ATOM
M  V30 BEGIN BOND
M  V30 1 2 1 2
M  V30 2 1 2 3
M  V30 3 1 2 4
M  V30 4 2 4 5
M  V30 5 1 4 6
M  V30 6 1 5 7
M  V30 7 1 6 8
M  V30 8 1 7 9
M  V30 9 1 8 10
M  V30 10 2 9 11
M  V30 11 2 10 12
M  V30 12 2 7 8
M  V30 13 1 11 12
M  V30 END BOND
M  V30 END CTAB
M  END
>  <Dotmatics_CR>
R-008693

>  <CR_Set>
Acid

>  <Category>
Carboxylic Acids Aromatic

>  <Reaction type>
Amidation

>  <KI/BB_Nature>
Amine

>  <Comments>


>  <Salt>


>  <CR_Chiral_Form>
Achiral

>  <Prod_total_used>
1

>  <PSR (%)>
100

>  <Article>
1-H-benzimidazole-2-carboxylic acid

>  <CAS>
2849-93-6

>  <Density>
1

>  <Prod_reagent_number>


>  <Stereocenters>
0

>  <NB_Name reaction - KI/BB – Capping>
03-Amidation_Amine_Acid

$$$$
R-005139
Actelion Java MolfileCreator 2.0

  0  0  0  0  0  0              0 V3000
M  V30 BEGIN CTAB
M  V30 COUNTS 12 13 0 0 0
M  V30 BEGIN ATOM
M  V30 1 O 0.0 0.0 0.0 0
M  V30 2 C -0.0243 1.5613 0.0 0
M  V30 3 O -1.3539 2.342 0.0 0
M  V30 4 C 1.2442 2.342 0.0 0
M  V30 5 C 2.5128 1.6101 0.0 0
M  V30 6 C 1.2198 3.9033 0.0 0
M  V30 7 C 3.7935 2.3908 0.0 0
M  V30 8 C 2.4884 4.6718 0.0 0
M  V30 9 N 5.1841 1.976 0.0 0
M  V30 10 C 3.7692 3.9521 0.0 0
M  V30 11 C 6.0136 3.1714 0.0 0
M  V30 12 C 5.1597 4.4035 0.0 0
M  V30 END ATOM
M  V30 BEGIN BOND
M  V30 1 2 1 2
M  V30 2 1 2 3
M  V30 3 1 2 4
M  V30 4 2 4 5
M  V30 5 1 4 6
M  V30 6 1 5 7
M  V30 7 2 6 8
M  V30 8 1 7 9
M  V30 9 2 7 10
M  V30 10 1 9 11
M  V30 11 1 10 12
M  V30 12 1 8 10
M  V30 13 2 11 12
M  V30 END BOND
M  V30 END CTAB
M  END
>  <Dotmatics_CR>
R-005139

>  <CR_Set>
Acid

>  <Category>
Carboxylic Acids Aromatic

>  <Reaction type>
Amidation

>  <KI/BB_Nature>
Amine

>  <Comments>


>  <Salt>


>  <CR_Chiral_Form>
Achiral

>  <Prod_total_used>
1

>  <PSR (%)>
100

>  <Article>
INDOLE-6-CARBOXYLIC ACID

>  <CAS>
1670-81-1

>  <Density>
1

>  <Prod_reagent_number>


>  <Stereocenters>
0

>  <NB_Name reaction - KI/BB – Capping>
03-Amidation_Amine_Acid

$$$$
R-003383
Actelion Java MolfileCreator 2.0

  0  0  0  0  0  0              0 V3000
M  V30 BEGIN CTAB
M  V30 COUNTS 12 13 0 0 0
M  V30 BEGIN ATOM
M  V30 1 O 0.0 0.0 0.0 0
M  V30 2 C 0.9841 -1.0896 0.0 0
M  V30 3 O 2.4253 -0.7615 0.0 0
M  V30 4 C 0.5038 -2.4956 0.0 0
M  V30 5 C -0.949 -2.9291 0.0 0
M  V30 6 C 1.3708 -3.6906 0.0 0
M  V30 7 C -0.9724 -4.4053 0.0 0
M  V30 8 C -2.2729 -2.1441 0.0 0
M  V30 9 N 0.4569 -4.8857 0.0 0
M  V30 10 C -2.2964 -5.1435 0.0 0
M  V30 11 C -3.5969 -2.8822 0.0 0
M  V30 12 C -3.6203 -4.3585 0.0 0
M  V30 END ATOM
M  V30 BEGIN BOND
M  V30 1 2 1 2
M  V30 2 1 2 3
M  V30 3 1 2 4
M  V30 4 1 4 5
M  V30 5 2 4 6
M  V30 6 2 5 7
M  V30 7 1 5 8
M  V30 8 1 6 9
M  V30 9 1 7 10
M  V30 10 2 8 11
M  V30 11 2 10 12
M  V30 12 1 7 9
M  V30 13 1 11 12
M  V30 END BOND
M  V30 END CTAB
M  END
>  <Dotmatics_CR>
R-003383

>  <CR_Set>
Acid

>  <Category>
Carboxylic Acids Aromatic

>  <Reaction type>
Amidation

>  <KI/BB_Nature>
Amine

>  <Comments>


>  <Salt>


>  <CR_Chiral_Form>
Achiral

>  <Prod_total_used>
1

>  <PSR (%)>
100

>  <Article>
INDOLE-3-CARBOXYLIC ACID

>  <CAS>
771-50-6

>  <Density>
1

>  <Prod_reagent_number>


>  <Stereocenters>
0

>  <NB_Name reaction - KI/BB – Capping>
03-Amidation_Amine_Acid

$$$$
R-003372
Actelion Java MolfileCreator 2.0

  0  0  0  0  0  0              0 V3000
M  V30 BEGIN CTAB
M  V30 COUNTS 12 13 0 0 0
M  V30 BEGIN ATOM
M  V30 1 O 0.0 0.0 0.0 0
M  V30 2 C 0.0383 1.4173 0.0 0
M  V30 3 O 1.2258 2.0877 0.0 0
M  V30 4 C -1.2832 2.3175 0.0 0
M  V30 5 N -2.5282 1.6663 0.0 0
M  V30 6 C -1.3215 3.7348 0.0 0
M  V30 7 C -3.754 2.3941 0.0 0
M  V30 8 C -3.7731 3.7731 0.0 0
M  V30 9 C -4.999 1.7429 0.0 0
M  V30 10 C -5.0181 4.501 0.0 0
M  V30 11 C -6.2248 2.4707 0.0 0
M  V30 12 C -6.2439 3.8498 0.0 0
M  V30 END ATOM
M  V30 BEGIN BOND
M  V30 1 2 1 2
M  V30 2 1 2 3
M  V30 3 1 2 4
M  V30 4 1 4 5
M  V30 5 2 4 6
M  V30 6 1 5 7
M  V30 7 1 6 8
M  V30 8 1 7 9
M  V30 9 1 8 10
M  V30 10 2 9 11
M  V30 11 2 10 12
M  V30 12 2 7 8
M  V30 13 1 11 12
M  V30 END BOND
M  V30 END CTAB
M  END
>  <Dotmatics_CR>
R-003372

>  <CR_Set>
Acid

>  <Category>
Carboxylic Acids Aromatic

>  <Reaction type>
Amidation

>  <KI/BB_Nature>
Amine

>  <Comments>


>  <Salt>


>  <CR_Chiral_Form>
Achiral

>  <Prod_total_used>
1

>  <PSR (%)>
100

>  <Article>
2-INDOLECARBOXYLIC ACID

>  <CAS>
1477-50-5

>  <Density>
1

>  <Prod_reagent_number>


>  <Stereocenters>
0

>  <NB_Name reaction - KI/BB – Capping>
03-Amidation_Amine_Acid

$$$$
R-001688
Actelion Java MolfileCreator 2.0

  0  0  0  0  0  0              0 V3000
M  V30 BEGIN CTAB
M  V30 COUNTS 12 13 0 0 0
M  V30 BEGIN ATOM
M  V30 1 O 0.0 0.0 0.0 0
M  V30 2 C 1.2939 -0.7241 0.0 0
M  V30 3 O 2.5879 0.0593 0.0 0
M  V30 4 C 1.2702 -2.2199 0.0 0
M  V30 5 C 2.5641 -2.944 0.0 0
M  V30 6 C -0.0712 -2.944 0.0 0
M  V30 7 C 2.5404 -4.4398 0.0 0
M  V30 8 C 3.9887 -2.4573 0.0 0
M  V30 9 C -0.0949 -4.4398 0.0 0
M  V30 10 N 3.9649 -4.879 0.0 0
M  V30 11 C 1.1989 -5.1639 0.0 0
M  V30 12 C 4.8672 -3.6682 0.0 0
M  V30 END ATOM
M  V30 BEGIN BOND
M  V30 1 2 1 2
M  V30 2 1 2 3
M  V30 3 1 2 4
M  V30 4 2 4 5
M  V30 5 1 4 6
M  V30 6 1 5 7
M  V30 7 1 5 8
M  V30 8 2 6 9
M  V30 9 1 7 10
M  V30 10 2 7 11
M  V30 11 2 8 12
M  V30 12 1 9 11
M  V30 13 1 10 12
M  V30 END BOND
M  V30 END CTAB
M  END
>  <Dotmatics_CR>
R-001688

>  <CR_Set>
Acid

>  <Category>
Carboxylic Acids Aromatic

>  <Reaction type>
Amidation

>  <KI/BB_Nature>
Amine

>  <Comments>


>  <Salt>


>  <CR_Chiral_Form>
Achiral

>  <Prod_total_used>
1

>  <PSR (%)>
100

>  <Article>
INDOLE-4-CARBOXYLIC ACID

>  <CAS>
2124-55-2

>  <Density>
1

>  <Prod_reagent_number>


>  <Stereocenters>
0

>  <NB_Name reaction - KI/BB – Capping>
03-Amidation_Amine_Acid

$$$$
R-008845
Actelion Java MolfileCreator 2.0

  0  0  0  0  0  0              0 V3000
M  V30 BEGIN CTAB
M  V30 COUNTS 13 14 0 0 0
M  V30 BEGIN ATOM
M  V30 1 O 0.0 0.0 0.0 0
M  V30 2 C -1.3371 -0.7218 0.0 0
M  V30 3 O -2.6743 0.0591 0.0 0
M  V30 4 C -1.3608 -2.2128 0.0 0
M  V30 5 C -0.071 -2.9346 0.0 0
M  V30 6 C -2.698 -2.9346 0.0 0
M  V30 7 O 1.2188 -2.1536 0.0 0
M  V30 8 C -0.0946 -4.4256 0.0 0
M  V30 9 C -2.7216 -4.4256 0.0 0
M  V30 10 C 2.5086 -2.8755 0.0 0
M  V30 11 O 1.1951 -5.1475 0.0 0
M  V30 12 C -1.4318 -5.1475 0.0 0
M  V30 13 C 2.485 -4.3665 0.0 0
M  V30 END ATOM
M  V30 BEGIN BOND
M  V30 1 2 1 2
M  V30 2 1 2 3
M  V30 3 1 2 4
M  V30 4 2 4 5
M  V30 5 1 4 6
M  V30 6 1 5 7
M  V30 7 1 5 8
M  V30 8 2 6 9
M  V30 9 1 7 10
M  V30 10 1 8 11
M  V30 11 2 8 12
M  V30 12 1 10 13
M  V30 13 1 9 12
M  V30 14 1 11 13
M  V30 END BOND
M  V30 END CTAB
M  END
>  <Dotmatics_CR>
R-008845

>  <CR_Set>
Acid

>  <Category>
Carboxylic Acids Aromatic

>  <Reaction type>
Amidation

>  <KI/BB_Nature>
Amine

>  <Comments>


>  <Salt>


>  <CR_Chiral_Form>
Achiral

>  <Prod_total_used>
36

>  <PSR (%)>
86

>  <Article>
1,4-Benzodioxan-5-carboxylic acid

>  <CAS>
4442-53-9

>  <Density>
1

>  <Prod_reagent_number>


>  <Stereocenters>
0

>  <NB_Name reaction - KI/BB – Capping>
03-Amidation_Amine_Acid

$$$$
R-008715
Actelion Java MolfileCreator 2.0

  0  0  0  0  0  0              0 V3000
M  V30 BEGIN CTAB
M  V30 COUNTS 13 14 0 0 0
M  V30 BEGIN ATOM
M  V30 1 O 0.0 0.0 0.0 0
M  V30 2 C -0.024 1.539 0.0 0
M  V30 3 O -1.3586 2.3205 0.0 0
M  V30 4 C 1.2624 2.3205 0.0 0
M  V30 5 C 2.549 1.5871 0.0 0
M  V30 6 C 3.8355 2.3566 0.0 0
M  V30 7 C 2.5249 0.0961 0.0 0
M  V30 8 C 5.122 1.6231 0.0 0
M  V30 9 C 3.8114 -0.6372 0.0 0
M  V30 10 O 6.5408 2.1161 0.0 0
M  V30 11 C 5.098 0.1322 0.0 0
M  V30 12 C 7.4065 0.9137 0.0 0
M  V30 13 O 6.5168 -0.3126 0.0 0
M  V30 END ATOM
M  V30 BEGIN BOND
M  V30 1 2 1 2
M  V30 2 1 2 3
M  V30 3 1 2 4
M  V30 4 1 4 5
M  V30 5 2 5 6
M  V30 6 1 5 7
M  V30 7 1 6 8
M  V30 8 2 7 9
M  V30 9 1 8 10
M  V30 10 2 8 11
M  V30 11 1 10 12
M  V30 12 1 11 13
M  V30 13 1 9 11
M  V30 14 1 12 13
M  V30 END BOND
M  V30 END CTAB
M  END
>  <Dotmatics_CR>
R-008715

>  <CR_Set>
Acid

>  <Category>
Carboxylic Acids Non-Aromatic

>  <Reaction type>
Amidation

>  <KI/BB_Nature>
Amine

>  <Comments>


>  <Salt>


>  <CR_Chiral_Form>
Achiral

>  <Prod_total_used>
1

>  <PSR (%)>
100

>  <Article>
3,4-(methylenedioxy)phenylacetic acid

>  <CAS>
2861-28-1

>  <Density>
1

>  <Prod_reagent_number>


>  <Stereocenters>
0

>  <NB_Name reaction - KI/BB – Capping>
03-Amidation_Amine_Acid

$$$$
R-000765
Actelion Java MolfileCreator 2.0

  0  0  0  0  0  0              0 V3000
M  V30 BEGIN CTAB
M  V30 COUNTS 13 14 0 0 0
M  V30 BEGIN ATOM
M  V30 1 S 0.0 0.0 0.0 0
M  V30 2 C 0.8693 -1.1983 0.0 0
M  V30 3 C -1.4567 -0.4346 0.0 0
M  V30 4 C -0.0469 -2.3966 0.0 0
M  V30 5 C 2.3496 -1.1748 0.0 0
M  V30 6 C -1.4802 -1.9149 0.0 0
M  V30 7 C -2.7842 0.3406 0.0 0
M  V30 8 C 0.3876 -3.8063 0.0 0
M  V30 9 O 3.0662 0.1527 0.0 0
M  V30 10 O 3.0662 -2.4553 0.0 0
M  V30 11 C -2.8077 -2.6315 0.0 0
M  V30 12 C -4.1118 -0.3759 0.0 0
M  V30 13 C -4.1353 -1.8444 0.0 0
M  V30 END ATOM
M  V30 BEGIN BOND
M  V30 1 1 1 2
M  V30 2 1 1 3
M  V30 3 2 2 4
M  V30 4 1 2 5
M  V30 5 2 3 6
M  V30 6 1 3 7
M  V30 7 1 4 8
M  V30 8 2 5 9
M  V30 9 1 5 10
M  V30 10 1 6 11
M  V30 11 2 7 12
M  V30 12 2 11 13
M  V30 13 1 4 6
M  V30 14 1 12 13
M  V30 END BOND
M  V30 END CTAB
M  END
>  <Dotmatics_CR>
R-000765

>  <CR_Set>
Acid

>  <Category>
Carboxylic Acids Aromatic

>  <Reaction type>
Amidation

>  <KI/BB_Nature>
Amine

>  <Comments>


>  <Salt>


>  <CR_Chiral_Form>
Achiral

>  <Prod_total_used>
1

>  <PSR (%)>
100

>  <Article>
3-methylbenzothiophene-2-carboxylic acid

>  <CAS>
3133-78-6

>  <Density>
1

>  <Prod_reagent_number>


>  <Stereocenters>
0

>  <NB_Name reaction - KI/BB – Capping>
03-Amidation_Amine_Acid

$$$$
R-009964
Actelion Java MolfileCreator 2.0

  0  0  0  0  0  0              0 V3000
M  V30 BEGIN CTAB
M  V30 COUNTS 13 14 0 0 0
M  V30 BEGIN ATOM
M  V30 1 S 0.0 0.0 0.0 0
M  V30 2 C -1.4331 0.4816 0.0 0
M  V30 3 C 0.8457 1.2216 0.0 0
M  V30 4 C -1.4566 1.9852 0.0 0
M  V30 5 C -2.737 -0.2349 0.0 0
M  V30 6 C -0.0469 2.4433 0.0 0
M  V30 7 C -2.7605 2.7487 0.0 0
M  V30 8 C -4.0409 0.5168 0.0 0
M  V30 9 C 0.3876 3.8765 0.0 0
M  V30 10 C -4.0644 2.0322 0.0 0
M  V30 11 C -0.6225 4.9924 0.0 0
M  V30 12 O -0.1879 6.4256 0.0 0
M  V30 13 O -2.0909 4.7105 0.0 0
M  V30 END ATOM
M  V30 BEGIN BOND
M  V30 1 1 1 2
M  V30 2 1 1 3
M  V30 3 2 2 4
M  V30 4 1 2 5
M  V30 5 2 3 6
M  V30 6 1 4 7
M  V30 7 2 5 8
M  V30 8 1 6 9
M  V30 9 2 7 10
M  V30 10 1 9 11
M  V30 11 2 11 12
M  V30 12 1 11 13
M  V30 13 1 4 6
M  V30 14 1 8 10
M  V30 END BOND
M  V30 END CTAB
M  END
>  <Dotmatics_CR>
R-009964

>  <CR_Set>
Acid

>  <Category>
Carboxylic Acids Non-Aromatic

>  <Reaction type>
Amidation

>  <KI/BB_Nature>
Amine

>  <Comments>


>  <Salt>


>  <CR_Chiral_Form>
Achiral

>  <Prod_total_used>
7

>  <PSR (%)>
100

>  <Article>
(Benzo[b]thiophen-3-yl)acetic acid

>  <CAS>
1131-09-5

>  <Density>
1

>  <Prod_reagent_number>


>  <Stereocenters>
0

>  <NB_Name reaction - KI/BB – Capping>
03-Amidation_Amine_Acid

$$$$
R-002518
Actelion Java MolfileCreator 2.0

  0  0  0  0  0  0              0 V3000
M  V30 BEGIN CTAB
M  V30 COUNTS 13 14 0 0 0
M  V30 BEGIN ATOM
M  V30 1 Cl 0.0 0.0 0.0 0
M  V30 2 C 1.2159 -0.6755 0.0 0
M  V30 3 C 1.1822 -2.0941 0.0 0
M  V30 4 C 2.4488 0.0844 0.0 0
M  V30 5 C 2.415 -2.7697 0.0 0
M  V30 6 C 3.6817 -0.6079 0.0 0
M  V30 7 C 3.6479 -2.0266 0.0 0
M  V30 8 C 4.8639 -2.7021 0.0 0
M  V30 9 C 5.6746 -1.4862 0.0 0
M  V30 10 C 4.8301 -4.1208 0.0 0
M  V30 11 C 6.0799 -4.8301 0.0 0
M  V30 12 O 5.0666 -0.1182 0.0 0
M  V30 13 O 7.0763 -1.6044 0.0 0
M  V30 END ATOM
M  V30 BEGIN BOND
M  V30 1 1 1 2
M  V30 2 2 2 3
M  V30 3 1 2 4
M  V30 4 1 3 5
M  V30 5 2 4 6
M  V30 6 2 5 7
M  V30 7 1 7 8
M  V30 8 1 8 9
M  V30 9 1 8 10
M  V30 10 1 8 11
M  V30 11 2 9 12
M  V30 12 1 9 13
M  V30 13 1 6 7
M  V30 14 1 10 11
M  V30 END BOND
M  V30 END CTAB
M  END
>  <Dotmatics_CR>
R-002518

>  <CR_Set>
Acid

>  <Category>
Carboxylic Acids Non-Aromatic

>  <Reaction type>
Amidation

>  <KI/BB_Nature>
Amine

>  <Comments>


>  <Salt>


>  <CR_Chiral_Form>
Achiral

>  <Prod_total_used>
2

>  <PSR (%)>
100

>  <Article>
(4-CHLOROPHENYL)-1-CYCLOPROPANE CARBOXYLIC ACID

>  <CAS>
72934-37-3

>  <Density>


>  <Prod_reagent_number>
C076

>  <Stereocenters>
0

>  <NB_Name reaction - KI/BB – Capping>
03-Amidation_Amine_Acid

$$$$
R-011189
Actelion Java MolfileCreator 2.0

  0  0  0  0  0  0              0 V3000
M  V30 BEGIN CTAB
M  V30 COUNTS 13 14 0 0 0
M  V30 BEGIN ATOM
M  V30 1 O 0.0 0.0 0.0 0
M  V30 2 C -0.756 -1.264 0.0 0
M  V30 3 O -0.0354 -2.528 0.0 0
M  V30 4 C -2.2681 -1.2403 0.0 0
M  V30 5 O -3.1659 -2.4217 0.0 0
M  V30 6 C -3.1659 -0.0118 0.0 0
M  V30 7 C -4.6071 -1.9373 0.0 0
M  V30 8 C -4.6071 -0.4489 0.0 0
M  V30 9 C -5.9184 -2.6579 0.0 0
M  V30 10 C -5.9184 0.3189 0.0 0
M  V30 11 C -7.2296 -1.8901 0.0 0
M  V30 12 C -7.2296 -0.4016 0.0 0
M  V30 13 C -8.5409 0.3662 0.0 0
M  V30 END ATOM
M  V30 BEGIN BOND
M  V30 1 2 1 2
M  V30 2 1 2 3
M  V30 3 1 2 4
M  V30 4 1 4 5
M  V30 5 2 4 6
M  V30 6 1 5 7
M  V30 7 1 6 8
M  V30 8 1 7 9
M  V30 9 1 8 10
M  V30 10 2 9 11
M  V30 11 2 10 12
M  V30 12 1 12 13
M  V30 13 2 7 8
M  V30 14 1 11 12
M  V30 END BOND
M  V30 END CTAB
M  END
>  <Dotmatics_CR>
R-011189

>  <CR_Set>
Acid

>  <Category>
Carboxylic Acids Aromatic

>  <Reaction type>
Amidation

>  <KI/BB_Nature>
Amine

>  <Comments>


>  <Salt>


>  <CR_Chiral_Form>
Achiral

>  <Prod_total_used>
1

>  <PSR (%)>
100

>  <Article>
5-Methylbenzofuran-2-carboxylic acid

>  <CAS>
10242-09-8

>  <Density>
1

>  <Prod_reagent_number>
C077

>  <Stereocenters>
0

>  <NB_Name reaction - KI/BB – Capping>
03-Amidation_Amine_Acid

$$$$
R-008696
Actelion Java MolfileCreator 2.0

  0  0  0  0  0  0              0 V3000
M  V30 BEGIN CTAB
M  V30 COUNTS 13 14 0 0 0
M  V30 BEGIN ATOM
M  V30 1 O 0.0 0.0 0.0 0
M  V30 2 C -0.7691 -1.2661 0.0 0
M  V30 3 O -0.0473 -2.5322 0.0 0
M  V30 4 C -2.2837 -1.2424 0.0 0
M  V30 5 O -3.183 -0.0118 0.0 0
M  V30 6 C -3.183 -2.4257 0.0 0
M  V30 7 C -4.6266 -0.4496 0.0 0
M  V30 8 C -4.6266 -1.9405 0.0 0
M  V30 9 C -2.7452 -3.822 0.0 0
M  V30 10 C -5.9401 0.3194 0.0 0
M  V30 11 C -5.9401 -2.6742 0.0 0
M  V30 12 C -7.2535 -0.4023 0.0 0
M  V30 13 C -7.2535 -1.9051 0.0 0
M  V30 END ATOM
M  V30 BEGIN BOND
M  V30 1 2 1 2
M  V30 2 1 2 3
M  V30 3 1 2 4
M  V30 4 1 4 5
M  V30 5 2 4 6
M  V30 6 1 5 7
M  V30 7 1 6 8
M  V30 8 1 6 9
M  V30 9 1 7 10
M  V30 10 1 8 11
M  V30 11 2 10 12
M  V30 12 2 11 13
M  V30 13 2 7 8
M  V30 14 1 12 13
M  V30 END BOND
M  V30 END CTAB
M  END
>  <Dotmatics_CR>
R-008696

>  <CR_Set>
Acid

>  <Category>
Carboxylic Acids Aromatic

>  <Reaction type>
Amidation

>  <KI/BB_Nature>
Amine

>  <Comments>


>  <Salt>


>  <CR_Chiral_Form>
Achiral

>  <Prod_total_used>
1

>  <PSR (%)>
100

>  <Article>
3-Methylbenzofuran-2-carboxylic acid

>  <CAS>
24673-56-1

>  <Density>
1

>  <Prod_reagent_number>


>  <Stereocenters>
0

>  <NB_Name reaction - KI/BB – Capping>
03-Amidation_Amine_Acid

$$$$
R-008824
Actelion Java MolfileCreator 2.0

  0  0  0  0  0  0              0 V3000
M  V30 BEGIN CTAB
M  V30 COUNTS 13 14 0 0 0
M  V30 BEGIN ATOM
M  V30 1 O 0.0 0.0 0.0 0
M  V30 2 C -0.0236 -1.464 0.0 0
M  V30 3 O 1.2397 -2.1842 0.0 0
M  V30 4 C -1.3341 -2.1842 0.0 0
M  V30 5 C -2.6447 -1.4286 0.0 0
M  V30 6 C -3.9553 -2.1488 0.0 0
M  V30 7 C -2.6683 0.0826 0.0 0
M  V30 8 C -5.2658 -1.3814 0.0 0
M  V30 9 C -3.9789 0.8382 0.0 0
M  V30 10 C -5.2895 0.1298 0.0 0
M  V30 11 C -6.7063 -1.8182 0.0 0
M  V30 12 O -6.7299 0.6139 0.0 0
M  V30 13 C -7.6036 -0.5903 0.0 0
M  V30 END ATOM
M  V30 BEGIN BOND
M  V30 1 2 1 2
M  V30 2 1 2 3
M  V30 3 1 2 4
M  V30 4 1 4 5
M  V30 5 2 5 6
M  V30 6 1 5 7
M  V30 7 1 6 8
M  V30 8 2 7 9
M  V30 9 2 8 10
M  V30 10 1 8 11
M  V30 11 1 10 12
M  V30 12 1 11 13
M  V30 13 1 9 10
M  V30 14 1 12 13
M  V30 END BOND
M  V30 END CTAB
M  END
>  <Dotmatics_CR>
R-008824

>  <CR_Set>
Acid

>  <Category>
Carboxylic Acids Non-Aromatic

>  <Reaction type>
Amidation

>  <KI/BB_Nature>
Amine

>  <Comments>


>  <Salt>


>  <CR_Chiral_Form>
Achiral

>  <Prod_total_used>
34

>  <PSR (%)>
82

>  <Article>
2,3-Dihydrobenzofuranyl-5-acetic acid

>  <CAS>
69999-16-2

>  <Density>
1

>  <Prod_reagent_number>
C078

>  <Stereocenters>
0

>  <NB_Name reaction - KI/BB – Capping>
03-Amidation_Amine_Acid

$$$$
R-005015
Actelion Java MolfileCreator 2.0

  0  0  0  0  0  0              0 V3000
M  V30 BEGIN CTAB
M  V30 COUNTS 13 14 0 0 0
M  V30 BEGIN ATOM
M  V30 1 O 0.0 0.0 0.0 0
M  V30 2 C 1.45 -0.3858 0.0 0
M  V30 3 O 1.8242 -1.8242 0.0 0
M  V30 4 C 2.4907 0.7016 0.0 0
M  V30 5 C 3.9173 0.3391 0.0 0
M  V30 6 C 2.0697 2.1867 0.0 0
M  V30 7 C 4.9814 1.4149 0.0 0
M  V30 8 C 4.3032 -1.0992 0.0 0
M  V30 9 N 3.1222 3.2742 0.0 0
M  V30 10 N 4.5488 2.9117 0.0 0
M  V30 11 C 6.4198 1.0407 0.0 0
M  V30 12 C 5.7415 -1.4733 0.0 0
M  V30 13 C 6.7823 -0.3741 0.0 0
M  V30 END ATOM
M  V30 BEGIN BOND
M  V30 1 2 1 2
M  V30 2 1 2 3
M  V30 3 1 2 4
M  V30 4 1 4 5
M  V30 5 2 4 6
M  V30 6 1 5 7
M  V30 7 2 5 8
M  V30 8 1 6 9
M  V30 9 1 7 10
M  V30 10 2 7 11
M  V30 11 1 8 12
M  V30 12 1 11 13
M  V30 13 2 9 10
M  V30 14 2 12 13
M  V30 END BOND
M  V30 END CTAB
M  END
>  <Dotmatics_CR>
R-005015

>  <CR_Set>
Acid

>  <Category>
Carboxylic Acids Aromatic

>  <Reaction type>
Amidation

>  <KI/BB_Nature>
Amine

>  <Comments>


>  <Salt>


>  <CR_Chiral_Form>
Achiral

>  <Prod_total_used>
1

>  <PSR (%)>
100

>  <Article>
CINNOLINE-4-CARBOXYLIC ACID

>  <CAS>
21905-86-2

>  <Density>
1

>  <Prod_reagent_number>


>  <Stereocenters>
0

>  <NB_Name reaction - KI/BB – Capping>
03-Amidation_Amine_Acid

$$$$
R-008810
Actelion Java MolfileCreator 2.0

  0  0  0  0  0  0              0 V3000
M  V30 BEGIN CTAB
M  V30 COUNTS 13 14 0 0 0
M  V30 BEGIN ATOM
M  V30 1 O 0.0 0.0 0.0 0
M  V30 2 C 0.986 -1.0917 0.0 0
M  V30 3 O 2.4299 -0.763 0.0 0
M  V30 4 C 0.5047 -2.5004 0.0 0
M  V30 5 N 1.3734 -3.6977 0.0 0
M  V30 6 C -0.9508 -2.9347 0.0 0
M  V30 7 N 0.4578 -4.8951 0.0 0
M  V30 8 C -0.9743 -4.4138 0.0 0
M  V30 9 C -2.2773 -2.1482 0.0 0
M  V30 10 C 0.8921 -6.3038 0.0 0
M  V30 11 C -2.3008 -5.1416 0.0 0
M  V30 12 C -3.6038 -2.8877 0.0 0
M  V30 13 C -3.6273 -4.3669 0.0 0
M  V30 END ATOM
M  V30 BEGIN BOND
M  V30 1 2 1 2
M  V30 2 1 2 3
M  V30 3 1 2 4
M  V30 4 2 4 5
M  V30 5 1 4 6
M  V30 6 1 5 7
M  V30 7 2 6 8
M  V30 8 1 6 9
M  V30 9 1 7 10
M  V30 10 1 8 11
M  V30 11 2 9 12
M  V30 12 2 11 13
M  V30 13 1 7 8
M  V30 14 1 12 13
M  V30 END BOND
M  V30 END CTAB
M  END
>  <Dotmatics_CR>
R-008810

>  <CR_Set>
Acid

>  <Category>
Carboxylic Acids Aromatic

>  <Reaction type>
Amidation

>  <KI/BB_Nature>
Amine

>  <Comments>


>  <Salt>


>  <CR_Chiral_Form>
Achiral

>  <Prod_total_used>
4

>  <PSR (%)>
100

>  <Article>
1-Methylindazole-3-carboxylic acid

>  <CAS>
50890-83-0

>  <Density>
1

>  <Prod_reagent_number>
C080

>  <Stereocenters>
0

>  <NB_Name reaction - KI/BB – Capping>
03-Amidation_Amine_Acid

$$$$
R-008749
Actelion Java MolfileCreator 2.0

  0  0  0  0  0  0              0 V3000
M  V30 BEGIN CTAB
M  V30 COUNTS 13 14 0 0 0
M  V30 BEGIN ATOM
M  V30 1 O 0.0 0.0 0.0 0
M  V30 2 C -0.0234 -1.4776 0.0 0
M  V30 3 O 1.2548 -2.193 0.0 0
M  V30 4 C -1.3486 -2.193 0.0 0
M  V30 5 N -1.3721 -3.6707 0.0 0
M  V30 6 C -2.6739 -1.419 0.0 0
M  V30 7 C -2.6973 -4.3861 0.0 0
M  V30 8 N -3.9991 -2.1344 0.0 0
M  V30 9 C -4.0226 -3.6121 0.0 0
M  V30 10 C -2.7208 -5.8638 0.0 0
M  V30 11 C -5.3478 -4.3275 0.0 0
M  V30 12 C -4.046 -6.5909 0.0 0
M  V30 13 C -5.3713 -5.8052 0.0 0
M  V30 END ATOM
M  V30 BEGIN BOND
M  V30 1 2 1 2
M  V30 2 1 2 3
M  V30 3 1 2 4
M  V30 4 2 4 5
M  V30 5 1 4 6
M  V30 6 1 5 7
M  V30 7 2 6 8
M  V30 8 1 7 9
M  V30 9 2 7 10
M  V30 10 2 9 11
M  V30 11 1 10 12
M  V30 12 1 11 13
M  V30 13 1 8 9
M  V30 14 2 12 13
M  V30 END BOND
M  V30 END CTAB
M  END
>  <Dotmatics_CR>
R-008749

>  <CR_Set>
Acid

>  <Category>
Carboxylic Acids Aromatic

>  <Reaction type>
Amidation

>  <KI/BB_Nature>
Amine

>  <Comments>


>  <Salt>


>  <CR_Chiral_Form>
Achiral

>  <Prod_total_used>
17

>  <PSR (%)>
76

>  <Article>
2-Quinoxalinecarboxylic acid

>  <CAS>
879-65-2

>  <Density>
1

>  <Prod_reagent_number>


>  <Stereocenters>
0

>  <NB_Name reaction - KI/BB – Capping>
03-Amidation_Amine_Acid

$$$$
R-009480
Actelion Java MolfileCreator 2.0

  0  0  0  0  0  0              0 V3000
M  V30 BEGIN CTAB
M  V30 COUNTS 13 14 0 0 0
M  V30 BEGIN ATOM
M  V30 1 O 0.0 0.0 0.0 0
M  V30 2 C 0.9665 1.1198 0.0 0
M  V30 3 O 2.3929 0.8369 0.0 0
M  V30 4 C 0.4832 2.5579 0.0 0
M  V30 5 C -0.9548 3.0412 0.0 0
M  V30 6 C 1.332 3.7838 0.0 0
M  V30 7 C -0.9783 4.55 0.0 0
M  V30 8 C -2.2632 2.3221 0.0 0
M  V30 9 N 0.4361 5.0098 0.0 0
M  V30 10 C -2.2868 5.3162 0.0 0
M  V30 11 C -3.5717 3.0766 0.0 0
M  V30 12 C -3.5952 4.5972 0.0 0
M  V30 13 C -4.8801 2.3575 0.0 0
M  V30 END ATOM
M  V30 BEGIN BOND
M  V30 1 2 1 2
M  V30 2 1 2 3
M  V30 3 1 2 4
M  V30 4 1 4 5
M  V30 5 2 4 6
M  V30 6 2 5 7
M  V30 7 1 5 8
M  V30 8 1 6 9
M  V30 9 1 7 10
M  V30 10 2 8 11
M  V30 11 2 10 12
M  V30 12 1 11 13
M  V30 13 1 7 9
M  V30 14 1 11 12
M  V30 END BOND
M  V30 END CTAB
M  END
>  <Dotmatics_CR>
R-009480

>  <CR_Set>
Acid

>  <Category>
Carboxylic Acids Aromatic

>  <Reaction type>
Amidation

>  <KI/BB_Nature>
Amine

>  <Comments>


>  <Salt>


>  <CR_Chiral_Form>
Achiral

>  <Prod_total_used>
1

>  <PSR (%)>
100

>  <Article>
5-Methylindole-3-carboxylic acid

>  <CAS>
10242-02-1

>  <Density>
1

>  <Prod_reagent_number>


>  <Stereocenters>
0

>  <NB_Name reaction - KI/BB – Capping>
03-Amidation_Amine_Acid

$$$$
R-009482
Actelion Java MolfileCreator 2.0

  0  0  0  0  0  0              0 V3000
M  V30 BEGIN CTAB
M  V30 COUNTS 13 14 0 0 0
M  V30 BEGIN ATOM
M  V30 1 O 0.0 0.0 0.0 0
M  V30 2 C 0.9653 1.1183 0.0 0
M  V30 3 O 2.3897 0.8358 0.0 0
M  V30 4 C 0.4826 2.5545 0.0 0
M  V30 5 C -0.9535 3.0372 0.0 0
M  V30 6 C 1.3302 3.7789 0.0 0
M  V30 7 C -0.9771 4.5441 0.0 0
M  V30 8 C -2.2602 2.3073 0.0 0
M  V30 9 N 0.4355 5.0032 0.0 0
M  V30 10 C -2.2838 5.3093 0.0 0
M  V30 11 C -3.567 3.0725 0.0 0
M  V30 12 C -3.5905 4.5911 0.0 0
M  V30 13 C -2.3073 6.8161 0.0 0
M  V30 END ATOM
M  V30 BEGIN BOND
M  V30 1 2 1 2
M  V30 2 1 2 3
M  V30 3 1 2 4
M  V30 4 1 4 5
M  V30 5 2 4 6
M  V30 6 2 5 7
M  V30 7 1 5 8
M  V30 8 1 6 9
M  V30 9 1 7 10
M  V30 10 2 8 11
M  V30 11 2 10 12
M  V30 12 1 10 13
M  V30 13 1 7 9
M  V30 14 1 11 12
M  V30 END BOND
M  V30 END CTAB
M  END
>  <Dotmatics_CR>
R-009482

>  <CR_Set>
Acid

>  <Category>
Carboxylic Acids Aromatic

>  <Reaction type>
Amidation

>  <KI/BB_Nature>
Amine

>  <Comments>


>  <Salt>


>  <CR_Chiral_Form>
Achiral

>  <Prod_total_used>
1

>  <PSR (%)>
100

>  <Article>
7-Methylindole-3-carboxylic acid

>  <CAS>
30448-16-9

>  <Density>
1

>  <Prod_reagent_number>


>  <Stereocenters>
0

>  <NB_Name reaction - KI/BB – Capping>
03-Amidation_Amine_Acid

$$$$
R-009481
Actelion Java MolfileCreator 2.0

  0  0  0  0  0  0              0 V3000
M  V30 BEGIN CTAB
M  V30 COUNTS 13 14 0 0 0
M  V30 BEGIN ATOM
M  V30 1 O 0.0 0.0 0.0 0
M  V30 2 C 0.9658 1.1189 0.0 0
M  V30 3 O 2.3909 0.8362 0.0 0
M  V30 4 C 0.4829 2.5558 0.0 0
M  V30 5 C -0.954 3.0387 0.0 0
M  V30 6 C 1.3309 3.7807 0.0 0
M  V30 7 C -0.9775 4.5463 0.0 0
M  V30 8 C -2.2613 2.3202 0.0 0
M  V30 9 N 0.4357 5.0056 0.0 0
M  V30 10 C -2.2849 5.3119 0.0 0
M  V30 11 C -3.5687 3.074 0.0 0
M  V30 12 C -3.5923 4.5934 0.0 0
M  V30 13 C -4.8996 5.3472 0.0 0
M  V30 END ATOM
M  V30 BEGIN BOND
M  V30 1 2 1 2
M  V30 2 1 2 3
M  V30 3 1 2 4
M  V30 4 1 4 5
M  V30 5 2 4 6
M  V30 6 2 5 7
M  V30 7 1 5 8
M  V30 8 1 6 9
M  V30 9 1 7 10
M  V30 10 2 8 11
M  V30 11 2 10 12
M  V30 12 1 12 13
M  V30 13 1 7 9
M  V30 14 1 11 12
M  V30 END BOND
M  V30 END CTAB
M  END
>  <Dotmatics_CR>
R-009481

>  <CR_Set>
Acid

>  <Category>
Carboxylic Acids Aromatic

>  <Reaction type>
Amidation

>  <KI/BB_Nature>
Amine

>  <Comments>


>  <Salt>


>  <CR_Chiral_Form>
Achiral

>  <Prod_total_used>
1

>  <PSR (%)>
100

>  <Article>
6-Methylindole-3-carboxylic acid

>  <CAS>
209920-43-4

>  <Density>
1

>  <Prod_reagent_number>


>  <Stereocenters>
0

>  <NB_Name reaction - KI/BB – Capping>
03-Amidation_Amine_Acid

$$$$
R-009479
Actelion Java MolfileCreator 2.0

  0  0  0  0  0  0              0 V3000
M  V30 BEGIN CTAB
M  V30 COUNTS 13 14 0 0 0
M  V30 BEGIN ATOM
M  V30 1 O 0.0 0.0 0.0 0
M  V30 2 C 0.9677 1.1212 0.0 0
M  V30 3 O 2.3958 0.8379 0.0 0
M  V30 4 C 0.4838 2.561 0.0 0
M  V30 5 C -0.9559 3.0449 0.0 0
M  V30 6 C 1.3336 3.7884 0.0 0
M  V30 7 C -2.266 2.3132 0.0 0
M  V30 8 C -0.9795 4.5556 0.0 0
M  V30 9 N 0.4366 5.0159 0.0 0
M  V30 10 C -3.576 3.0803 0.0 0
M  V30 11 C -2.2896 0.8497 0.0 0
M  V30 12 C -2.2896 5.3227 0.0 0
M  V30 13 C -3.5996 4.591 0.0 0
M  V30 END ATOM
M  V30 BEGIN BOND
M  V30 1 2 1 2
M  V30 2 1 2 3
M  V30 3 1 2 4
M  V30 4 1 4 5
M  V30 5 2 4 6
M  V30 6 2 5 7
M  V30 7 1 5 8
M  V30 8 1 6 9
M  V30 9 1 7 10
M  V30 10 1 7 11
M  V30 11 2 8 12
M  V30 12 2 10 13
M  V30 13 1 8 9
M  V30 14 1 12 13
M  V30 END BOND
M  V30 END CTAB
M  END
>  <Dotmatics_CR>
R-009479

>  <CR_Set>
Acid

>  <Category>
Carboxylic Acids Aromatic

>  <Reaction type>
Amidation

>  <KI/BB_Nature>
Amine

>  <Comments>


>  <Salt>


>  <CR_Chiral_Form>
Achiral

>  <Prod_total_used>
1

>  <PSR (%)>
100

>  <Article>
4-Methylindole-3-carboxylic acid

>  <CAS>
858515-65-8

>  <Density>
1

>  <Prod_reagent_number>


>  <Stereocenters>
0

>  <NB_Name reaction - KI/BB – Capping>
03-Amidation_Amine_Acid

$$$$
R-009487
Actelion Java MolfileCreator 2.0

  0  0  0  0  0  0              0 V3000
M  V30 BEGIN CTAB
M  V30 COUNTS 13 14 0 0 0
M  V30 BEGIN ATOM
M  V30 1 O 0.0 0.0 0.0 0
M  V30 2 C 0.9674 1.1208 0.0 0
M  V30 3 O 2.3951 0.8377 0.0 0
M  V30 4 C 0.4837 2.5603 0.0 0
M  V30 5 C -0.9556 3.044 0.0 0
M  V30 6 C 1.3332 3.7873 0.0 0
M  V30 7 C -0.9792 4.5543 0.0 0
M  V30 8 C -2.2653 2.3125 0.0 0
M  V30 9 N 0.4365 5.0144 0.0 0
M  V30 10 C 2.7963 3.8109 0.0 0
M  V30 11 C -2.2889 5.3212 0.0 0
M  V30 12 C -3.575 3.0794 0.0 0
M  V30 13 C -3.5986 4.6015 0.0 0
M  V30 END ATOM
M  V30 BEGIN BOND
M  V30 1 2 1 2
M  V30 2 1 2 3
M  V30 3 1 2 4
M  V30 4 1 4 5
M  V30 5 2 4 6
M  V30 6 2 5 7
M  V30 7 1 5 8
M  V30 8 1 6 9
M  V30 9 1 6 10
M  V30 10 1 7 11
M  V30 11 2 8 12
M  V30 12 2 11 13
M  V30 13 1 7 9
M  V30 14 1 12 13
M  V30 END BOND
M  V30 END CTAB
M  END
>  <Dotmatics_CR>
R-009487

>  <CR_Set>
Acid

>  <Category>
Carboxylic Acids Aromatic

>  <Reaction type>
Amidation

>  <KI/BB_Nature>
Amine

>  <Comments>


>  <Salt>


>  <CR_Chiral_Form>
Achiral

>  <Prod_total_used>
1

>  <PSR (%)>
100

>  <Article>
2-Methylindole-3-carboxylic acid

>  <CAS>
63176-44-3

>  <Density>
1

>  <Prod_reagent_number>


>  <Stereocenters>
0

>  <NB_Name reaction - KI/BB – Capping>
03-Amidation_Amine_Acid

$$$$
R-003932
Actelion Java MolfileCreator 2.0

  0  0  0  0  0  0              0 V3000
M  V30 BEGIN CTAB
M  V30 COUNTS 13 14 0 0 0
M  V30 BEGIN ATOM
M  V30 1 O 0.0 0.0 0.0 0
M  V30 2 C 0.6161 1.3982 0.0 0
M  V30 3 O -0.2725 2.6425 0.0 0
M  V30 4 C 2.1092 1.5286 0.0 0
M  V30 5 N 2.8794 2.8439 0.0 0
M  V30 6 C 3.0809 0.4147 0.0 0
M  V30 7 C 4.3014 2.524 0.0 0
M  V30 8 C 4.4318 1.019 0.0 0
M  V30 9 C 5.5457 3.4245 0.0 0
M  V30 10 C 5.7826 0.4147 0.0 0
M  V30 11 C 6.8847 2.8084 0.0 0
M  V30 12 C 7.015 1.2916 0.0 0
M  V30 13 C 8.3541 0.6872 0.0 0
M  V30 END ATOM
M  V30 BEGIN BOND
M  V30 1 2 1 2
M  V30 2 1 2 3
M  V30 3 1 2 4
M  V30 4 1 4 5
M  V30 5 2 4 6
M  V30 6 1 5 7
M  V30 7 1 6 8
M  V30 8 1 7 9
M  V30 9 1 8 10
M  V30 10 2 9 11
M  V30 11 2 10 12
M  V30 12 1 12 13
M  V30 13 2 7 8
M  V30 14 1 11 12
M  V30 END BOND
M  V30 END CTAB
M  END
>  <Dotmatics_CR>
R-003932

>  <CR_Set>
Acid

>  <Category>
Carboxylic Acids Aromatic

>  <Reaction type>
Amidation

>  <KI/BB_Nature>
Amine

>  <Comments>


>  <Salt>


>  <CR_Chiral_Form>
Achiral

>  <Prod_total_used>
1

>  <PSR (%)>
100

>  <Article>
5-METHYLINDOLE-2-CARBOXYLIC ACID

>  <CAS>
10241-97-1

>  <Density>
1

>  <Prod_reagent_number>


>  <Stereocenters>
0

>  <NB_Name reaction - KI/BB – Capping>
03-Amidation_Amine_Acid

$$$$
R-008253
Actelion Java MolfileCreator 2.0

  0  0  0  0  0  0              0 V3000
M  V30 BEGIN CTAB
M  V30 COUNTS 13 14 0 0 0
M  V30 BEGIN ATOM
M  V30 1 O 0.0 0.0 0.0 0
M  V30 2 C -0.0233 -1.4712 0.0 0
M  V30 3 O 1.2494 -2.2069 0.0 0
M  V30 4 C -1.3428 -2.2069 0.0 0
M  V30 5 N -2.6623 -1.4245 0.0 0
M  V30 6 C -1.3662 -3.6782 0.0 0
M  V30 7 C -3.9818 -2.1485 0.0 0
M  V30 8 C -2.6857 -4.3905 0.0 0
M  V30 9 C -4.0052 -3.6198 0.0 0
M  V30 10 C -5.3013 -1.3662 0.0 0
M  V30 11 C -5.3247 -4.3321 0.0 0
M  V30 12 C -6.6208 -2.0901 0.0 0
M  V30 13 C -6.6442 -3.5614 0.0 0
M  V30 END ATOM
M  V30 BEGIN BOND
M  V30 1 2 1 2
M  V30 2 1 2 3
M  V30 3 1 2 4
M  V30 4 2 4 5
M  V30 5 1 4 6
M  V30 6 1 5 7
M  V30 7 2 6 8
M  V30 8 1 7 9
M  V30 9 2 7 10
M  V30 10 2 9 11
M  V30 11 1 10 12
M  V30 12 1 11 13
M  V30 13 1 8 9
M  V30 14 2 12 13
M  V30 END BOND
M  V30 END CTAB
M  END
>  <Dotmatics_CR>
R-008253

>  <CR_Set>
Acid

>  <Category>
Carboxylic Acids Aromatic

>  <Reaction type>
Amidation

>  <KI/BB_Nature>
Amine

>  <Comments>


>  <Salt>


>  <CR_Chiral_Form>
Achiral

>  <Prod_total_used>
23

>  <PSR (%)>
96

>  <Article>
quinoline-2-carboxylic acid

>  <CAS>
93-10-7

>  <Density>
1

>  <Prod_reagent_number>
C082

>  <Stereocenters>
0

>  <NB_Name reaction - KI/BB – Capping>
03-Amidation_Amine_Acid

$$$$
R-008702
Actelion Java MolfileCreator 2.0

  0  0  0  0  0  0              0 V3000
M  V30 BEGIN CTAB
M  V30 COUNTS 13 14 0 0 0
M  V30 BEGIN ATOM
M  V30 1 O 0.0 0.0 0.0 0
M  V30 2 C -0.7704 -1.2682 0.0 0
M  V30 3 O -0.0474 -2.5365 0.0 0
M  V30 4 C -2.2876 -1.2445 0.0 0
M  V30 5 N -3.1884 -0.0118 0.0 0
M  V30 6 C -3.1884 -2.4298 0.0 0
M  V30 7 C -4.6344 -0.4504 0.0 0
M  V30 8 C -4.6344 -1.9438 0.0 0
M  V30 9 C -2.7498 -3.8284 0.0 0
M  V30 10 C -5.9501 0.3081 0.0 0
M  V30 11 C -5.9501 -2.6668 0.0 0
M  V30 12 C -7.2658 -0.4148 0.0 0
M  V30 13 C -7.2658 -1.8964 0.0 0
M  V30 END ATOM
M  V30 BEGIN BOND
M  V30 1 2 1 2
M  V30 2 1 2 3
M  V30 3 1 2 4
M  V30 4 1 4 5
M  V30 5 2 4 6
M  V30 6 1 5 7
M  V30 7 1 6 8
M  V30 8 1 6 9
M  V30 9 1 7 10
M  V30 10 1 8 11
M  V30 11 2 10 12
M  V30 12 2 11 13
M  V30 13 2 7 8
M  V30 14 1 12 13
M  V30 END BOND
M  V30 END CTAB
M  END
>  <Dotmatics_CR>
R-008702

>  <CR_Set>
Acid

>  <Category>
Carboxylic Acids Aromatic

>  <Reaction type>
Amidation

>  <KI/BB_Nature>
Amine

>  <Comments>


>  <Salt>


>  <CR_Chiral_Form>
Achiral

>  <Prod_total_used>
1

>  <PSR (%)>
100

>  <Article>
3-Methyl-1H-indole-2-carboxylic acid

>  <CAS>
10590-73-5

>  <Density>
1

>  <Prod_reagent_number>


>  <Stereocenters>
0

>  <NB_Name reaction - KI/BB – Capping>
03-Amidation_Amine_Acid

$$$$
R-008698
Actelion Java MolfileCreator 2.0

  0  0  0  0  0  0              0 V3000
M  V30 BEGIN CTAB
M  V30 COUNTS 13 14 0 0 0
M  V30 BEGIN ATOM
M  V30 1 O 0.0 0.0 0.0 0
M  V30 2 C -0.7672 -1.263 0.0 0
M  V30 3 O -0.0354 -2.5261 0.0 0
M  V30 4 C -2.2782 -1.2394 0.0 0
M  V30 5 N -3.1753 -0.0118 0.0 0
M  V30 6 C -3.1753 -2.4198 0.0 0
M  V30 7 C -4.6154 -0.4485 0.0 0
M  V30 8 C -2.7385 1.4283 0.0 0
M  V30 9 C -4.6154 -1.9359 0.0 0
M  V30 10 C -5.9257 0.3187 0.0 0
M  V30 11 C -5.9257 -2.6677 0.0 0
M  V30 12 C -7.236 -0.4131 0.0 0
M  V30 13 C -7.236 -1.9122 0.0 0
M  V30 END ATOM
M  V30 BEGIN BOND
M  V30 1 2 1 2
M  V30 2 1 2 3
M  V30 3 1 2 4
M  V30 4 1 4 5
M  V30 5 2 4 6
M  V30 6 1 5 7
M  V30 7 1 5 8
M  V30 8 1 6 9
M  V30 9 1 7 10
M  V30 10 1 9 11
M  V30 11 2 10 12
M  V30 12 2 11 13
M  V30 13 2 7 9
M  V30 14 1 12 13
M  V30 END BOND
M  V30 END CTAB
M  END
>  <Dotmatics_CR>
R-008698

>  <CR_Set>
Acid

>  <Category>
Carboxylic Acids Aromatic

>  <Reaction type>
Amidation

>  <KI/BB_Nature>
Amine

>  <Comments>


>  <Salt>


>  <CR_Chiral_Form>
Achiral

>  <Prod_total_used>
1

>  <PSR (%)>
100

>  <Article>
1-Methylindole-2-carboxylic acid

>  <CAS>
16136-58-6

>  <Density>
1

>  <Prod_reagent_number>


>  <Stereocenters>
0

>  <NB_Name reaction - KI/BB – Capping>
03-Amidation_Amine_Acid

$$$$
R-003378
Actelion Java MolfileCreator 2.0

  0  0  0  0  0  0              0 V3000
M  V30 BEGIN CTAB
M  V30 COUNTS 13 14 0 0 0
M  V30 BEGIN ATOM
M  V30 1 O 0.0 0.0 0.0 0
M  V30 2 C -0.7101 -1.5979 0.0 0
M  V30 3 O 0.3297 -2.9802 0.0 0
M  V30 4 C -2.1939 -1.75 0.0 0
M  V30 5 C -2.7519 -3.0055 0.0 0
M  V30 6 C -4.1342 -3.4113 0.0 0
M  V30 7 C -1.8895 -4.0835 0.0 0
M  V30 8 C -4.1596 -4.8571 0.0 0
M  V30 9 C -5.4404 -2.6631 0.0 0
M  V30 10 N -2.7773 -5.3009 0.0 0
M  V30 11 C -5.4658 -5.5672 0.0 0
M  V30 12 C -6.7466 -3.3606 0.0 0
M  V30 13 C -6.772 -4.8063 0.0 0
M  V30 END ATOM
M  V30 BEGIN BOND
M  V30 1 2 1 2
M  V30 2 1 2 3
M  V30 3 1 2 4
M  V30 4 1 4 5
M  V30 5 1 5 6
M  V30 6 2 5 7
M  V30 7 2 6 8
M  V30 8 1 6 9
M  V30 9 1 7 10
M  V30 10 1 8 11
M  V30 11 2 9 12
M  V30 12 2 11 13
M  V30 13 1 8 10
M  V30 14 1 12 13
M  V30 END BOND
M  V30 END CTAB
M  END
>  <Dotmatics_CR>
R-003378

>  <CR_Set>
Acid

>  <Category>
Carboxylic Acids Non-Aromatic

>  <Reaction type>
Amidation

>  <KI/BB_Nature>
Amine

>  <Comments>


>  <Salt>


>  <CR_Chiral_Form>
Achiral

>  <Prod_total_used>
1

>  <PSR (%)>
100

>  <Article>
INDOLE-3-ACETIC ACID

>  <CAS>
87-51-4

>  <Density>
1

>  <Prod_reagent_number>


>  <Stereocenters>
0

>  <NB_Name reaction - KI/BB – Capping>
03-Amidation_Amine_Acid

$$$$
R-009484
Actelion Java MolfileCreator 2.0

  0  0  0  0  0  0              0 V3000
M  V30 BEGIN CTAB
M  V30 COUNTS 13 14 0 0 0
M  V30 BEGIN ATOM
M  V30 1 F 0.0 0.0 0.0 0
M  V30 2 C 1.283 0.7794 0.0 0
M  V30 3 C 2.5661 0.0359 0.0 0
M  V30 4 C 1.259 2.3143 0.0 0
M  V30 5 C 3.8492 0.8154 0.0 0
M  V30 6 C 2.5421 3.0817 0.0 0
M  V30 7 C 3.8252 2.3503 0.0 0
M  V30 8 C 5.2642 0.3717 0.0 0
M  V30 9 N 5.2402 2.8419 0.0 0
M  V30 10 C 5.7079 -1.0432 0.0 0
M  V30 11 C 6.1276 1.6188 0.0 0
M  V30 12 O 4.6766 -2.1344 0.0 0
M  V30 13 O 7.1588 -1.331 0.0 0
M  V30 END ATOM
M  V30 BEGIN BOND
M  V30 1 1 1 2
M  V30 2 2 2 3
M  V30 3 1 2 4
M  V30 4 1 3 5
M  V30 5 2 4 6
M  V30 6 2 5 7
M  V30 7 1 5 8
M  V30 8 1 7 9
M  V30 9 1 8 10
M  V30 10 2 8 11
M  V30 11 2 10 12
M  V30 12 1 10 13
M  V30 13 1 6 7
M  V30 14 1 9 11
M  V30 END BOND
M  V30 END CTAB
M  END
>  <Dotmatics_CR>
R-009484

>  <CR_Set>
Acid

>  <Category>
Carboxylic Acids Aromatic

>  <Reaction type>
Amidation

>  <KI/BB_Nature>
Amine

>  <Comments>


>  <Salt>


>  <CR_Chiral_Form>
Achiral

>  <Prod_total_used>
1

>  <PSR (%)>
100

>  <Article>
5-Fluoroindole-3-carboxylic acid

>  <CAS>
23077-43-2

>  <Density>
1

>  <Prod_reagent_number>


>  <Stereocenters>
0

>  <NB_Name reaction - KI/BB – Capping>
03-Amidation_Amine_Acid

$$$$
R-000427
Actelion Java MolfileCreator 2.0

  0  0  0  0  0  0              0 V3000
M  V30 BEGIN CTAB
M  V30 COUNTS 13 14 0 0 0
M  V30 BEGIN ATOM
M  V30 1 F 0.0 0.0 0.0 0
M  V30 2 C -1.3701 0.6732 0.0 0
M  V30 3 C -2.6222 -0.1535 0.0 0
M  V30 4 C -1.5355 2.1497 0.0 0
M  V30 5 C -3.9805 0.5197 0.0 0
M  V30 6 C -2.8939 2.823 0.0 0
M  V30 7 C -4.1341 2.008 0.0 0
M  V30 8 C -5.3507 -0.0354 0.0 0
M  V30 9 N -5.587 2.3859 0.0 0
M  V30 10 C -6.3429 1.0866 0.0 0
M  V30 11 C -7.8548 1.004 0.0 0
M  V30 12 O -8.5163 -0.3189 0.0 0
M  V30 13 O -8.7171 2.2324 0.0 0
M  V30 END ATOM
M  V30 BEGIN BOND
M  V30 1 1 1 2
M  V30 2 2 2 3
M  V30 3 1 2 4
M  V30 4 1 3 5
M  V30 5 2 4 6
M  V30 6 2 5 7
M  V30 7 1 5 8
M  V30 8 1 7 9
M  V30 9 2 8 10
M  V30 10 1 10 11
M  V30 11 2 11 12
M  V30 12 1 11 13
M  V30 13 1 6 7
M  V30 14 1 9 10
M  V30 END BOND
M  V30 END CTAB
M  END
>  <Dotmatics_CR>
R-000427

>  <CR_Set>
Acid

>  <Category>
Carboxylic Acids Aromatic

>  <Reaction type>
Amidation

>  <KI/BB_Nature>
Amine

>  <Comments>


>  <Salt>


>  <CR_Chiral_Form>
Achiral

>  <Prod_total_used>
1

>  <PSR (%)>
100

>  <Article>
5-FLUOROINDOLE-2-CARBOXYLIC ACID

>  <CAS>
399-76-8

>  <Density>
1

>  <Prod_reagent_number>


>  <Stereocenters>
0

>  <NB_Name reaction - KI/BB – Capping>
03-Amidation_Amine_Acid

$$$$
R-009486
Actelion Java MolfileCreator 2.0

  0  0  0  0  0  0              0 V3000
M  V30 BEGIN CTAB
M  V30 COUNTS 13 14 0 0 0
M  V30 BEGIN ATOM
M  V30 1 F 0.0 0.0 0.0 0
M  V30 2 C -0.0237 -1.4947 0.0 0
M  V30 3 C 1.2693 -2.2184 0.0 0
M  V30 4 C -1.3642 -2.2184 0.0 0
M  V30 5 N 2.6929 -1.732 0.0 0
M  V30 6 C 1.2456 -3.7131 0.0 0
M  V30 7 C -1.3879 -3.7131 0.0 0
M  V30 8 C 3.5708 -2.942 0.0 0
M  V30 9 C 2.6692 -4.152 0.0 0
M  V30 10 C -0.0949 -4.4486 0.0 0
M  V30 11 C 3.1081 -5.5756 0.0 0
M  V30 12 O 2.0641 -6.6789 0.0 0
M  V30 13 O 4.5673 -5.8603 0.0 0
M  V30 END ATOM
M  V30 BEGIN BOND
M  V30 1 1 1 2
M  V30 2 2 2 3
M  V30 3 1 2 4
M  V30 4 1 3 5
M  V30 5 1 3 6
M  V30 6 2 4 7
M  V30 7 1 5 8
M  V30 8 1 6 9
M  V30 9 2 6 10
M  V30 10 1 9 11
M  V30 11 2 11 12
M  V30 12 1 11 13
M  V30 13 1 7 10
M  V30 14 2 8 9
M  V30 END BOND
M  V30 END CTAB
M  END
>  <Dotmatics_CR>
R-009486

>  <CR_Set>
Acid

>  <Category>
Carboxylic Acids Aromatic

>  <Reaction type>
Amidation

>  <KI/BB_Nature>
Amine

>  <Comments>


>  <Salt>


>  <CR_Chiral_Form>
Achiral

>  <Prod_total_used>
1

>  <PSR (%)>
100

>  <Article>
7-Fluoroindole-3-carboxylic acid

>  <CAS>
858515-66-9

>  <Density>
1

>  <Prod_reagent_number>


>  <Stereocenters>
0

>  <NB_Name reaction - KI/BB – Capping>
03-Amidation_Amine_Acid

$$$$
R-009485
Actelion Java MolfileCreator 2.0

  0  0  0  0  0  0              0 V3000
M  V30 BEGIN CTAB
M  V30 COUNTS 13 14 0 0 0
M  V30 BEGIN ATOM
M  V30 1 F 0.0 0.0 0.0 0
M  V30 2 C 1.2953 -0.7248 0.0 0
M  V30 3 C 2.5906 0.0594 0.0 0
M  V30 4 C 1.2715 -2.2222 0.0 0
M  V30 5 C 3.8859 -0.6654 0.0 0
M  V30 6 C 2.5668 -2.959 0.0 0
M  V30 7 N 5.3119 -0.1782 0.0 0
M  V30 8 C 3.8621 -2.1628 0.0 0
M  V30 9 C 6.1913 -1.3903 0.0 0
M  V30 10 C 5.2881 -2.6024 0.0 0
M  V30 11 C 5.7278 -4.0285 0.0 0
M  V30 12 O 4.6821 -5.1336 0.0 0
M  V30 13 O 7.1895 -4.3137 0.0 0
M  V30 END ATOM
M  V30 BEGIN BOND
M  V30 1 1 1 2
M  V30 2 2 2 3
M  V30 3 1 2 4
M  V30 4 1 3 5
M  V30 5 2 4 6
M  V30 6 1 5 7
M  V30 7 2 5 8
M  V30 8 1 7 9
M  V30 9 1 8 10
M  V30 10 1 10 11
M  V30 11 2 11 12
M  V30 12 1 11 13
M  V30 13 1 6 8
M  V30 14 2 9 10
M  V30 END BOND
M  V30 END CTAB
M  END
>  <Dotmatics_CR>
R-009485

>  <CR_Set>
Acid

>  <Category>
Carboxylic Acids Aromatic

>  <Reaction type>
Amidation

>  <KI/BB_Nature>
Amine

>  <Comments>


>  <Salt>


>  <CR_Chiral_Form>
Achiral

>  <Prod_total_used>
1

>  <PSR (%)>
100

>  <Article>
6-Fluoroindole-3-carboxylic acid

>  <CAS>
23077-44-3

>  <Density>
1

>  <Prod_reagent_number>


>  <Stereocenters>
0

>  <NB_Name reaction - KI/BB – Capping>
03-Amidation_Amine_Acid

$$$$
R-009483
Actelion Java MolfileCreator 2.0

  0  0  0  0  0  0              0 V3000
M  V30 BEGIN CTAB
M  V30 COUNTS 13 14 0 0 0
M  V30 BEGIN ATOM
M  V30 1 F 0.0 0.0 0.0 0
M  V30 2 C -0.0238 1.5238 0.0 0
M  V30 3 C 1.2499 2.2976 0.0 0
M  V30 4 C -1.3452 2.2976 0.0 0
M  V30 5 C 1.2261 3.8214 0.0 0
M  V30 6 C 2.6547 1.8571 0.0 0
M  V30 7 C -1.369 3.8214 0.0 0
M  V30 8 N 2.6309 4.3095 0.0 0
M  V30 9 C -0.0952 4.5833 0.0 0
M  V30 10 C 3.0952 0.4523 0.0 0
M  V30 11 C 3.5118 3.0952 0.0 0
M  V30 12 O 2.0714 -0.6309 0.0 0
M  V30 13 O 4.5357 0.1666 0.0 0
M  V30 END ATOM
M  V30 BEGIN BOND
M  V30 1 1 1 2
M  V30 2 2 2 3
M  V30 3 1 2 4
M  V30 4 1 3 5
M  V30 5 1 3 6
M  V30 6 2 4 7
M  V30 7 1 5 8
M  V30 8 2 5 9
M  V30 9 1 6 10
M  V30 10 2 6 11
M  V30 11 2 10 12
M  V30 12 1 10 13
M  V30 13 1 7 9
M  V30 14 1 8 11
M  V30 END BOND
M  V30 END CTAB
M  END
>  <Dotmatics_CR>
R-009483

>  <CR_Set>
Acid

>  <Category>
Carboxylic Acids Aromatic

>  <Reaction type>
Amidation

>  <KI/BB_Nature>
Amine

>  <Comments>


>  <Salt>


>  <CR_Chiral_Form>
Achiral

>  <Prod_total_used>
1

>  <PSR (%)>
100

>  <Article>
4-Fluoroindole-3-carboxylic acid

>  <CAS>
23077-42-1

>  <Density>
1

>  <Prod_reagent_number>


>  <Stereocenters>
0

>  <NB_Name reaction - KI/BB – Capping>
03-Amidation_Amine_Acid

$$$$
R-003451
Actelion Java MolfileCreator 2.0

  0  0  0  0  0  0              0 V3000
M  V30 BEGIN CTAB
M  V30 COUNTS 13 14 0 0 0
M  V30 BEGIN ATOM
M  V30 1 S 0.0 0.0 0.0 0
M  V30 2 C 0.8596 1.2416 0.0 0
M  V30 3 C -1.4566 0.4895 0.0 0
M  V30 4 C 2.3401 1.2655 0.0 0
M  V30 5 C -0.0477 2.4833 0.0 0
M  V30 6 C -1.4804 2.0177 0.0 0
M  V30 7 O 3.1997 2.5072 0.0 0
M  V30 8 C 3.1997 0.0716 0.0 0
M  V30 9 N 4.6085 2.0655 0.0 0
M  V30 10 C 4.6085 0.5611 0.0 0
M  V30 11 C 5.8025 -0.2984 0.0 0
M  V30 12 O 5.6234 -1.767 0.0 0
M  V30 13 O 7.1516 0.3462 0.0 0
M  V30 END ATOM
M  V30 BEGIN BOND
M  V30 1 1 1 2
M  V30 2 1 1 3
M  V30 3 1 2 4
M  V30 4 2 2 5
M  V30 5 2 3 6
M  V30 6 1 4 7
M  V30 7 2 4 8
M  V30 8 1 7 9
M  V30 9 1 8 10
M  V30 10 1 10 11
M  V30 11 2 11 12
M  V30 12 1 11 13
M  V30 13 1 5 6
M  V30 14 2 9 10
M  V30 END BOND
M  V30 END CTAB
M  END
>  <Dotmatics_CR>
R-003451

>  <CR_Set>
Acid

>  <Category>
Carboxylic Acids Aromatic

>  <Reaction type>
Amidation

>  <KI/BB_Nature>
Amine

>  <Comments>


>  <Salt>


>  <CR_Chiral_Form>
Achiral

>  <Prod_total_used>
1

>  <PSR (%)>
100

>  <Article>
5-(2-thienyl)-3-isoxazolecarboxylic acid

>  <CAS>
763109-71-3

>  <Density>
1

>  <Prod_reagent_number>


>  <Stereocenters>
0

>  <NB_Name reaction - KI/BB – Capping>
03-Amidation_Amine_Acid

$$$$
R-005002
Actelion Java MolfileCreator 2.0

  0  0  0  0  0  0              0 V3000
M  V30 BEGIN CTAB
M  V30 COUNTS 13 13 0 0 0
M  V30 BEGIN ATOM
M  V30 1 O 0.0 0.0 0.0 0
M  V30 2 C 1.1237 -0.9715 0.0 0
M  V30 3 O 0.8076 -2.4347 0.0 0
M  V30 4 C 2.5401 -0.4565 0.0 0
M  V30 5 C 2.7976 1.0417 0.0 0
M  V30 6 C 3.6521 -1.428 0.0 0
M  V30 7 C 4.1788 1.5685 0.0 0
M  V30 8 C 5.045 -0.9013 0.0 0
M  V30 9 O 4.4481 3.0668 0.0 0
M  V30 10 C 5.3026 0.6203 0.0 0
M  V30 11 O 6.1571 -1.8611 0.0 0
M  V30 12 C 3.3009 4.0852 0.0 0
M  V30 13 C 7.5734 -1.3461 0.0 0
M  V30 END ATOM
M  V30 BEGIN BOND
M  V30 1 2 1 2
M  V30 2 1 2 3
M  V30 3 1 2 4
M  V30 4 2 4 5
M  V30 5 1 4 6
M  V30 6 1 5 7
M  V30 7 2 6 8
M  V30 8 1 7 9
M  V30 9 2 7 10
M  V30 10 1 8 11
M  V30 11 1 9 12
M  V30 12 1 11 13
M  V30 13 1 8 10
M  V30 END BOND
M  V30 END CTAB
M  END
>  <Dotmatics_CR>
R-005002

>  <CR_Set>
Acid

>  <Category>
Carboxylic Acids Aromatic

>  <Reaction type>
Amidation

>  <KI/BB_Nature>
Amine

>  <Comments>


>  <Salt>


>  <CR_Chiral_Form>
Achiral

>  <Prod_total_used>
1

>  <PSR (%)>
100

>  <Article>
3,5-DIMETHOXYBENZOIC ACID

>  <CAS>
1132-21-4

>  <Density>
1

>  <Prod_reagent_number>


>  <Stereocenters>
0

>  <NB_Name reaction - KI/BB – Capping>
03-Amidation_Amine_Acid

$$$$
R-001054
Actelion Java MolfileCreator 2.0

  0  0  0  0  0  0              0 V3000
M  V30 BEGIN CTAB
M  V30 COUNTS 13 13 0 0 0
M  V30 BEGIN ATOM
M  V30 1 O 0.0 0.0 0.0 0
M  V30 2 C -1.3108 -0.7321 0.0 0
M  V30 3 O -1.3344 -2.1965 0.0 0
M  V30 4 C -2.6216 0.0354 0.0 0
M  V30 5 C -3.9324 -0.6967 0.0 0
M  V30 6 C -2.6452 1.547 0.0 0
M  V30 7 O -3.956 -2.161 0.0 0
M  V30 8 C -5.2432 0.0708 0.0 0
M  V30 9 O -1.3816 2.3146 0.0 0
M  V30 10 C -3.956 2.3146 0.0 0
M  V30 11 C -5.2669 -2.8814 0.0 0
M  V30 12 C -5.2669 1.5824 0.0 0
M  V30 13 C -1.4052 3.8261 0.0 0
M  V30 END ATOM
M  V30 BEGIN BOND
M  V30 1 2 1 2
M  V30 2 1 2 3
M  V30 3 1 2 4
M  V30 4 2 4 5
M  V30 5 1 4 6
M  V30 6 1 5 7
M  V30 7 1 5 8
M  V30 8 1 6 9
M  V30 9 2 6 10
M  V30 10 1 7 11
M  V30 11 2 8 12
M  V30 12 1 9 13
M  V30 13 1 10 12
M  V30 END BOND
M  V30 END CTAB
M  END
>  <Dotmatics_CR>
R-001054

>  <CR_Set>
Acid

>  <Category>
Carboxylic Acids Aromatic

>  <Reaction type>
Amidation

>  <KI/BB_Nature>
Amine

>  <Comments>


>  <Salt>


>  <CR_Chiral_Form>
Achiral

>  <Prod_total_used>
7

>  <PSR (%)>
100

>  <Article>
2,6-DIMETHOXY BENZOIC ACID

>  <CAS>
1466-76-8

>  <Density>
1

>  <Prod_reagent_number>


>  <Stereocenters>
0

>  <NB_Name reaction - KI/BB – Capping>
03-Amidation_Amine_Acid

$$$$
R-004876
Actelion Java MolfileCreator 2.0

  0  0  0  0  0  0              0 V3000
M  V30 BEGIN CTAB
M  V30 COUNTS 13 13 0 0 0
M  V30 BEGIN ATOM
M  V30 1 O 0.0 0.0 0.0 0
M  V30 2 C -1.3303 -0.7245 0.0 0
M  V30 3 O -2.6607 0.0593 0.0 0
M  V30 4 C -1.3541 -2.2093 0.0 0
M  V30 5 C -0.0593 -2.9457 0.0 0
M  V30 6 C -2.6844 -2.9457 0.0 0
M  V30 7 O 1.2234 -2.1618 0.0 0
M  V30 8 C -0.0831 -4.4424 0.0 0
M  V30 9 C -2.7082 -4.4424 0.0 0
M  V30 10 C 2.5063 -2.8864 0.0 0
M  V30 11 O 1.1997 -5.167 0.0 0
M  V30 12 C -1.4253 -5.167 0.0 0
M  V30 13 C 2.4825 -4.383 0.0 0
M  V30 END ATOM
M  V30 BEGIN BOND
M  V30 1 2 1 2
M  V30 2 1 2 3
M  V30 3 1 2 4
M  V30 4 2 4 5
M  V30 5 1 4 6
M  V30 6 1 5 7
M  V30 7 1 5 8
M  V30 8 2 6 9
M  V30 9 1 7 10
M  V30 10 1 8 11
M  V30 11 2 8 12
M  V30 12 1 11 13
M  V30 13 1 9 12
M  V30 END BOND
M  V30 END CTAB
M  END
>  <Dotmatics_CR>
R-004876

>  <CR_Set>
Acid

>  <Category>
Carboxylic Acids Aromatic

>  <Reaction type>
Amidation

>  <KI/BB_Nature>
Amine

>  <Comments>


>  <Salt>


>  <CR_Chiral_Form>
Achiral

>  <Prod_total_used>
1

>  <PSR (%)>
100

>  <Article>
2,3-DIMETHOXYBENZOIC ACID

>  <CAS>
1521-38-6

>  <Density>
1

>  <Prod_reagent_number>


>  <Stereocenters>
0

>  <NB_Name reaction - KI/BB – Capping>
03-Amidation_Amine_Acid

$$$$
R-004816
Actelion Java MolfileCreator 2.0

  0  0  0  0  0  0              0 V3000
M  V30 BEGIN CTAB
M  V30 COUNTS 13 13 0 0 0
M  V30 BEGIN ATOM
M  V30 1 O 0.0 0.0 0.0 0
M  V30 2 C 1.3254 -0.781 0.0 0
M  V30 3 O 2.6272 -0.142 0.0 0
M  V30 4 C 1.3254 -2.2722 0.0 0
M  V30 5 C 2.6272 -2.9941 0.0 0
M  V30 6 C -0.0118 -2.9941 0.0 0
M  V30 7 O 3.9172 -2.213 0.0 0
M  V30 8 C 2.6036 -4.4853 0.0 0
M  V30 9 C -0.0355 -4.4853 0.0 0
M  V30 10 C 5.2072 -2.9468 0.0 0
M  V30 11 C 1.2544 -5.2308 0.0 0
M  V30 12 O 1.2189 -6.722 0.0 0
M  V30 13 C -0.1183 -7.4321 0.0 0
M  V30 END ATOM
M  V30 BEGIN BOND
M  V30 1 2 1 2
M  V30 2 1 2 3
M  V30 3 1 2 4
M  V30 4 2 4 5
M  V30 5 1 4 6
M  V30 6 1 5 7
M  V30 7 1 5 8
M  V30 8 2 6 9
M  V30 9 1 7 10
M  V30 10 2 8 11
M  V30 11 1 11 12
M  V30 12 1 12 13
M  V30 13 1 9 11
M  V30 END BOND
M  V30 END CTAB
M  END
>  <Dotmatics_CR>
R-004816

>  <CR_Set>
Acid

>  <Category>
Carboxylic Acids Aromatic

>  <Reaction type>
Amidation

>  <KI/BB_Nature>
Amine

>  <Comments>


>  <Salt>


>  <CR_Chiral_Form>
Achiral

>  <Prod_total_used>
1

>  <PSR (%)>
100

>  <Article>
2,4-DIMETHOXYBENZOIC ACID

>  <CAS>
91-52-1

>  <Density>
1

>  <Prod_reagent_number>


>  <Stereocenters>
0

>  <NB_Name reaction - KI/BB – Capping>
03-Amidation_Amine_Acid

$$$$
R-008840
Actelion Java MolfileCreator 2.0

  0  0  0  0  0  0              0 V3000
M  V30 BEGIN CTAB
M  V30 COUNTS 13 13 0 0 0
M  V30 BEGIN ATOM
M  V30 1 Cl 0.0 0.0 0.0 0
M  V30 2 C -0.0236 1.5104 0.0 0
M  V30 3 C -1.3334 2.2775 0.0 0
M  V30 4 C 1.239 2.2775 0.0 0
M  V30 5 C -1.357 3.7879 0.0 0
M  V30 6 C -2.6433 1.5458 0.0 0
M  V30 7 C 1.2154 3.7879 0.0 0
M  V30 8 C -0.0944 4.555 0.0 0
M  V30 9 C -3.9531 2.3129 0.0 0
M  V30 10 Cl 2.4781 4.555 0.0 0
M  V30 11 C -5.263 1.5812 0.0 0
M  V30 12 O -5.2866 0.118 0.0 0
M  V30 13 O -6.5729 2.3483 0.0 0
M  V30 END ATOM
M  V30 BEGIN BOND
M  V30 1 1 1 2
M  V30 2 2 2 3
M  V30 3 1 2 4
M  V30 4 1 3 5
M  V30 5 1 3 6
M  V30 6 2 4 7
M  V30 7 2 5 8
M  V30 8 1 6 9
M  V30 9 1 7 10
M  V30 10 1 9 11
M  V30 11 2 11 12
M  V30 12 1 11 13
M  V30 13 1 7 8
M  V30 END BOND
M  V30 END CTAB
M  END
>  <Dotmatics_CR>
R-008840

>  <CR_Set>
Acid

>  <Category>
Carboxylic Acids Non-Aromatic

>  <Reaction type>
Amidation

>  <KI/BB_Nature>
Amine

>  <Comments>


>  <Salt>


>  <CR_Chiral_Form>
Achiral

>  <Prod_total_used>
2

>  <PSR (%)>
100

>  <Article>
3-(2,4-Dichlorophenyl)propionic acid

>  <CAS>
55144-92-8

>  <Density>
1

>  <Prod_reagent_number>
C085

>  <Stereocenters>
0

>  <NB_Name reaction - KI/BB – Capping>
03-Amidation_Amine_Acid

$$$$
R-002163
Actelion Java MolfileCreator 2.0

  0  0  0  0  0  0              0 V3000
M  V30 BEGIN CTAB
M  V30 COUNTS 13 13 0 0 0
M  V30 BEGIN ATOM
M  V30 1 F 0.0 0.0 0.0 0
M  V30 2 C -1.3206 0.7733 0.0 0
M  V30 3 F -1.3444 2.2962 0.0 0
M  V30 4 F -0.0475 1.5348 0.0 0
M  V30 5 C -2.6413 0.0475 0.0 0
M  V30 6 C -2.6651 -1.4277 0.0 0
M  V30 7 C -3.9619 0.8209 0.0 0
M  V30 8 C -1.392 -2.1535 0.0 0
M  V30 9 C -3.9857 -2.1535 0.0 0
M  V30 10 C -5.2826 0.0951 0.0 0
M  V30 11 O -1.4158 -3.6288 0.0 0
M  V30 12 O -0.1189 -1.392 0.0 0
M  V30 13 C -5.3064 -1.392 0.0 0
M  V30 END ATOM
M  V30 BEGIN BOND
M  V30 1 1 1 2
M  V30 2 1 2 3
M  V30 3 1 2 4
M  V30 4 1 2 5
M  V30 5 2 5 6
M  V30 6 1 5 7
M  V30 7 1 6 8
M  V30 8 1 6 9
M  V30 9 2 7 10
M  V30 10 2 8 11
M  V30 11 1 8 12
M  V30 12 2 9 13
M  V30 13 1 10 13
M  V30 END BOND
M  V30 END CTAB
M  END
>  <Dotmatics_CR>
R-002163

>  <CR_Set>
Acid

>  <Category>
Carboxylic Acids Aromatic

>  <Reaction type>
Amidation

>  <KI/BB_Nature>
Amine

>  <Comments>


>  <Salt>


>  <CR_Chiral_Form>
Achiral

>  <Prod_total_used>
1

>  <PSR (%)>
100

>  <Article>
2-(trifluoromethyl)benzoic acid

>  <CAS>
433-97-6

>  <Density>
1

>  <Prod_reagent_number>


>  <Stereocenters>
0

>  <NB_Name reaction - KI/BB – Capping>
03-Amidation_Amine_Acid

$$$$
R-004850
Actelion Java MolfileCreator 2.0

  0  0  0  0  0  0              0 V3000
M  V30 BEGIN CTAB
M  V30 COUNTS 13 13 0 0 0
M  V30 BEGIN ATOM
M  V30 1 F 0.0 0.0 0.0 0
M  V30 2 C -0.0491 1.5 0.0 0
M  V30 3 F 1.4139 1.5492 0.0 0
M  V30 4 F -1.5615 1.5 0.0 0
M  V30 5 C -0.0983 3.0124 0.0 0
M  V30 6 C 1.1557 3.7993 0.0 0
M  V30 7 C -1.4262 3.7747 0.0 0
M  V30 8 C 1.1066 5.3239 0.0 0
M  V30 9 C -1.4754 5.2748 0.0 0
M  V30 10 C 2.3484 6.1232 0.0 0
M  V30 11 C -0.2213 6.074 0.0 0
M  V30 12 O 2.3238 7.697 0.0 0
M  V30 13 O 3.5165 5.3362 0.0 0
M  V30 END ATOM
M  V30 BEGIN BOND
M  V30 1 1 1 2
M  V30 2 1 2 3
M  V30 3 1 2 4
M  V30 4 1 2 5
M  V30 5 2 5 6
M  V30 6 1 5 7
M  V30 7 1 6 8
M  V30 8 2 7 9
M  V30 9 1 8 10
M  V30 10 2 8 11
M  V30 11 2 10 12
M  V30 12 1 10 13
M  V30 13 1 9 11
M  V30 END BOND
M  V30 END CTAB
M  END
>  <Dotmatics_CR>
R-004850

>  <CR_Set>
Acid

>  <Category>
Carboxylic Acids Aromatic

>  <Reaction type>
Amidation

>  <KI/BB_Nature>
Amine

>  <Comments>


>  <Salt>


>  <CR_Chiral_Form>
Achiral

>  <Prod_total_used>
15

>  <PSR (%)>
80

>  <Article>
3-(Trifluoromethyl)benzoic acid

>  <CAS>
454-92-2

>  <Density>
1

>  <Prod_reagent_number>
C086

>  <Stereocenters>
0

>  <NB_Name reaction - KI/BB – Capping>
03-Amidation_Amine_Acid

$$$$
R-004501
Actelion Java MolfileCreator 2.0

  0  0  0  0  0  0              0 V3000
M  V30 BEGIN CTAB
M  V30 COUNTS 13 13 0 0 0
M  V30 BEGIN ATOM
M  V30 1 F 0.0 0.0 0.0 0
M  V30 2 C -1.3214 -0.7341 0.0 0
M  V30 3 F -2.6428 0.0489 0.0 0
M  V30 4 F -1.3336 0.832 0.0 0
M  V30 5 C -1.3458 -2.2146 0.0 0
M  V30 6 C -2.6673 -2.9487 0.0 0
M  V30 7 C -0.0611 -2.9487 0.0 0
M  V30 8 C -2.6917 -4.4292 0.0 0
M  V30 9 C -0.0856 -4.4292 0.0 0
M  V30 10 C -1.4193 -5.1633 0.0 0
M  V30 11 C -1.4437 -6.6438 0.0 0
M  V30 12 O -0.1712 -7.3779 0.0 0
M  V30 13 O -2.7651 -7.3779 0.0 0
M  V30 END ATOM
M  V30 BEGIN BOND
M  V30 1 1 1 2
M  V30 2 1 2 3
M  V30 3 1 2 4
M  V30 4 1 2 5
M  V30 5 2 5 6
M  V30 6 1 5 7
M  V30 7 1 6 8
M  V30 8 2 7 9
M  V30 9 2 8 10
M  V30 10 1 10 11
M  V30 11 2 11 12
M  V30 12 1 11 13
M  V30 13 1 9 10
M  V30 END BOND
M  V30 END CTAB
M  END
>  <Dotmatics_CR>
R-004501

>  <CR_Set>
Acid

>  <Category>
Carboxylic Acids Aromatic

>  <Reaction type>
Amidation

>  <KI/BB_Nature>
Amine

>  <Comments>


>  <Salt>


>  <CR_Chiral_Form>
Achiral

>  <Prod_total_used>
1

>  <PSR (%)>
100

>  <Article>
a,a,a-TRIFLUORO-p-TOLUIC ACID

>  <CAS>
455-24-3

>  <Density>
1

>  <Prod_reagent_number>


>  <Stereocenters>
0

>  <NB_Name reaction - KI/BB – Capping>
03-Amidation_Amine_Acid

$$$$
R-004875
Actelion Java MolfileCreator 2.0

  0  0  0  0  0  0              0 V3000
M  V30 BEGIN CTAB
M  V30 COUNTS 13 13 0 0 0
M  V30 BEGIN ATOM
M  V30 1 O 0.0 0.0 0.0 0
M  V30 2 C -1.3125 0.7685 0.0 0
M  V30 3 O -1.3361 2.2821 0.0 0
M  V30 4 C -2.625 0.0472 0.0 0
M  V30 5 C -3.9375 0.8158 0.0 0
M  V30 6 C -5.25 0.0945 0.0 0
M  V30 7 C -5.2737 -1.3834 0.0 0
M  V30 8 C -6.5744 0.875 0.0 0
M  V30 9 O -4.0085 -2.1047 0.0 0
M  V30 10 C -6.598 -2.1047 0.0 0
M  V30 11 C -7.8869 0.1418 0.0 0
M  V30 12 C -4.0321 -3.571 0.0 0
M  V30 13 C -7.9106 -1.3361 0.0 0
M  V30 END ATOM
M  V30 BEGIN BOND
M  V30 1 2 1 2
M  V30 2 1 2 3
M  V30 3 1 2 4
M  V30 4 1 4 5
M  V30 5 1 5 6
M  V30 6 2 6 7
M  V30 7 1 6 8
M  V30 8 1 7 9
M  V30 9 1 7 10
M  V30 10 2 8 11
M  V30 11 1 9 12
M  V30 12 2 10 13
M  V30 13 1 11 13
M  V30 END BOND
M  V30 END CTAB
M  END
>  <Dotmatics_CR>
R-004875

>  <CR_Set>
Acid

>  <Category>
Carboxylic Acids Non-Aromatic

>  <Reaction type>
Amidation

>  <KI/BB_Nature>
Amine

>  <Comments>


>  <Salt>


>  <CR_Chiral_Form>
Achiral

>  <Prod_total_used>
2

>  <PSR (%)>
100

>  <Article>
3-(2-METHOXYPHENYL)PROPIONIC ACID

>  <CAS>
6342-77-4

>  <Density>


>  <Prod_reagent_number>
C087

>  <Stereocenters>
0

>  <NB_Name reaction - KI/BB – Capping>
03-Amidation_Amine_Acid

$$$$
R-009958
Actelion Java MolfileCreator 2.0

  0  0  0  0  0  0              0 V3000
M  V30 BEGIN CTAB
M  V30 COUNTS 13 13 0 0 0
M  V30 BEGIN ATOM
M  V30 1 O 0.0 0.0 0.0 0
M  V30 2 C -0.0234 -1.4768 0.0 0
M  V30 3 O 1.2541 -2.1918 0.0 0
M  V30 4 C -1.3479 -2.1918 0.0 0
M  V30 5 O -2.6724 -1.4182 0.0 0
M  V30 6 C -3.9969 -2.1332 0.0 0
M  V30 7 C -4.0204 -3.6101 0.0 0
M  V30 8 C -5.3215 -1.3596 0.0 0
M  V30 9 C -5.3449 -4.3251 0.0 0
M  V30 10 C -6.646 -2.0746 0.0 0
M  V30 11 C -6.6694 -3.5515 0.0 0
M  V30 12 C -5.3683 -5.802 0.0 0
M  V30 13 C -7.9939 -4.2665 0.0 0
M  V30 END ATOM
M  V30 BEGIN BOND
M  V30 1 2 1 2
M  V30 2 1 2 3
M  V30 3 1 2 4
M  V30 4 1 4 5
M  V30 5 1 5 6
M  V30 6 2 6 7
M  V30 7 1 6 8
M  V30 8 1 7 9
M  V30 9 2 8 10
M  V30 10 2 9 11
M  V30 11 1 9 12
M  V30 12 1 11 13
M  V30 13 1 10 11
M  V30 END BOND
M  V30 END CTAB
M  END
>  <Dotmatics_CR>
R-009958

>  <CR_Set>
Acid

>  <Category>
Carboxylic Acids Non-Aromatic

>  <Reaction type>
Amidation

>  <KI/BB_Nature>
Amine

>  <Comments>


>  <Salt>


>  <CR_Chiral_Form>
Achiral

>  <Prod_total_used>
30

>  <PSR (%)>
83

>  <Article>
3,4-Dimethylphenoxyacetic acid

>  <CAS>
13335-73-4

>  <Density>
1

>  <Prod_reagent_number>


>  <Stereocenters>
0

>  <NB_Name reaction - KI/BB – Capping>
03-Amidation_Amine_Acid

$$$$
R-006725
Actelion Java MolfileCreator 2.0

  0  0  0  0  0  0              0 V3000
M  V30 BEGIN CTAB
M  V30 COUNTS 13 13 0 0 0
M  V30 BEGIN ATOM
M  V30 1 O 0.0 0.0 0.0 0
M  V30 2 C -0.0233 -1.4726 0.0 0
M  V30 3 O 1.2505 -2.1855 0.0 0
M  V30 4 C -1.344 -2.1855 0.0 0
M  V30 5 C -2.6647 -1.4141 0.0 0
M  V30 6 C -3.9853 -2.127 0.0 0
M  V30 7 O -5.306 -1.3557 0.0 0
M  V30 8 C -6.6267 -2.0686 0.0 0
M  V30 9 C -7.9473 -1.2972 0.0 0
M  V30 10 C -6.65 -3.5412 0.0 0
M  V30 11 C -9.268 -2.0102 0.0 0
M  V30 12 C -7.9707 -4.2541 0.0 0
M  V30 13 C -9.2914 -3.4828 0.0 0
M  V30 END ATOM
M  V30 BEGIN BOND
M  V30 1 2 1 2
M  V30 2 1 2 3
M  V30 3 1 2 4
M  V30 4 1 4 5
M  V30 5 1 5 6
M  V30 6 1 6 7
M  V30 7 1 7 8
M  V30 8 2 8 9
M  V30 9 1 8 10
M  V30 10 1 9 11
M  V30 11 2 10 12
M  V30 12 2 11 13
M  V30 13 1 12 13
M  V30 END BOND
M  V30 END CTAB
M  END
>  <Dotmatics_CR>
R-006725

>  <CR_Set>
Acid

>  <Category>
Carboxylic Acids Non-Aromatic

>  <Reaction type>
Amidation

>  <KI/BB_Nature>
Amine

>  <Comments>


>  <Salt>


>  <CR_Chiral_Form>
Achiral

>  <Prod_total_used>
1

>  <PSR (%)>
100

>  <Article>
4-Phenoxybutyric acid RV1973

>  <CAS>
6303-58-8

>  <Density>
1

>  <Prod_reagent_number>


>  <Stereocenters>
0

>  <NB_Name reaction - KI/BB – Capping>
03-Amidation_Amine_Acid

$$$$
R-004964
Actelion Java MolfileCreator 2.0

  0  0  0  0  0  0              0 V3000
M  V30 BEGIN CTAB
M  V30 COUNTS 13 13 0 0 0
M  V30 BEGIN ATOM
M  V30 1 O 0.0 0.0 0.0 0
M  V30 2 C 1.2858 -0.7811 0.0 0
M  V30 3 O 2.5716 -0.1922 0.0 0
M  V30 4 C 1.2618 -2.2592 0.0 0
M  V30 5 C -0.06 -2.9802 0.0 0
M  V30 6 C -0.0841 -4.4824 0.0 0
M  V30 7 C 1.2137 -5.2274 0.0 0
M  V30 8 C -1.43 -5.2274 0.0 0
M  V30 9 C 1.1896 -6.7416 0.0 0
M  V30 10 C -1.454 -6.7416 0.0 0
M  V30 11 C -0.1562 -7.4746 0.0 0
M  V30 12 O -0.1802 -8.9768 0.0 0
M  V30 13 C -1.5021 -9.6978 0.0 0
M  V30 END ATOM
M  V30 BEGIN BOND
M  V30 1 2 1 2
M  V30 2 1 2 3
M  V30 3 1 2 4
M  V30 4 1 4 5
M  V30 5 1 5 6
M  V30 6 2 6 7
M  V30 7 1 6 8
M  V30 8 1 7 9
M  V30 9 2 8 10
M  V30 10 2 9 11
M  V30 11 1 11 12
M  V30 12 1 12 13
M  V30 13 1 10 11
M  V30 END BOND
M  V30 END CTAB
M  END
>  <Dotmatics_CR>
R-004964

>  <CR_Set>
Acid

>  <Category>
Carboxylic Acids Non-Aromatic

>  <Reaction type>
Amidation

>  <KI/BB_Nature>
Amine

>  <Comments>


>  <Salt>


>  <CR_Chiral_Form>
Achiral

>  <Prod_total_used>
1

>  <PSR (%)>
100

>  <Article>
3-(4-METHOXYPHENYL)PROPIONIC ACID

>  <CAS>
1929-29-9

>  <Density>
1

>  <Prod_reagent_number>


>  <Stereocenters>
0

>  <NB_Name reaction - KI/BB – Capping>
03-Amidation_Amine_Acid

$$$$
R-008735
Actelion Java MolfileCreator 2.0

  0  0  0  0  0  0              0 V3000
M  V30 BEGIN CTAB
M  V30 COUNTS 13 13 0 0 0
M  V30 BEGIN ATOM
M  V30 1 F 0.0 0.0 0.0 0
M  V30 2 C -0.0239 -1.4875 0.0 0
M  V30 3 C 1.2596 -2.2193 0.0 0
M  V30 4 C -1.3555 -2.2193 0.0 0
M  V30 5 C 1.2356 -3.7068 0.0 0
M  V30 6 C 2.5432 -1.4515 0.0 0
M  V30 7 C -1.3795 -3.7068 0.0 0
M  V30 8 F 2.5192 -4.4386 0.0 0
M  V30 9 C -0.0959 -4.4386 0.0 0
M  V30 10 O 2.5192 0.0839 0.0 0
M  V30 11 O 3.8267 -2.1833 0.0 0
M  V30 12 O -2.7111 -4.4386 0.0 0
M  V30 13 C -4.0427 -3.6708 0.0 0
M  V30 END ATOM
M  V30 BEGIN BOND
M  V30 1 1 1 2
M  V30 2 2 2 3
M  V30 3 1 2 4
M  V30 4 1 3 5
M  V30 5 1 3 6
M  V30 6 2 4 7
M  V30 7 1 5 8
M  V30 8 2 5 9
M  V30 9 2 6 10
M  V30 10 1 6 11
M  V30 11 1 7 12
M  V30 12 1 12 13
M  V30 13 1 7 9
M  V30 END BOND
M  V30 END CTAB
M  END
>  <Dotmatics_CR>
R-008735

>  <CR_Set>
Acid

>  <Category>
Carboxylic Acids Aromatic

>  <Reaction type>
Amidation

>  <KI/BB_Nature>
Amine

>  <Comments>


>  <Salt>


>  <CR_Chiral_Form>
Achiral

>  <Prod_total_used>
38

>  <PSR (%)>
97

>  <Article>
2,6-Difluoro-4-methoxybenzoic acid

>  <CAS>
123843-65-2

>  <Density>
1

>  <Prod_reagent_number>
C088

>  <Stereocenters>
0

>  <NB_Name reaction - KI/BB – Capping>
03-Amidation_Amine_Acid

$$$$
R-009965
Actelion Java MolfileCreator 2.0

  0  0  0  0  0  0              0 V3000
M  V30 BEGIN CTAB
M  V30 COUNTS 13 13 0 0 0
M  V30 BEGIN ATOM
M  V30 1 F 0.0 0.0 0.0 0
M  V30 2 C -0.0235 1.5096 0.0 0
M  V30 3 F 1.2383 2.2762 0.0 0
M  V30 4 O -1.3327 2.2762 0.0 0
M  V30 5 C -1.3563 3.7859 0.0 0
M  V30 6 C -2.6654 4.5407 0.0 0
M  V30 7 C -0.0943 4.5407 0.0 0
M  V30 8 C -2.689 6.0504 0.0 0
M  V30 9 C -0.1179 6.0504 0.0 0
M  V30 10 C -1.4271 6.817 0.0 0
M  V30 11 C -1.4506 8.3267 0.0 0
M  V30 12 O -2.7598 9.0815 0.0 0
M  V30 13 O -0.1887 9.0815 0.0 0
M  V30 END ATOM
M  V30 BEGIN BOND
M  V30 1 1 1 2
M  V30 2 1 2 3
M  V30 3 1 2 4
M  V30 4 1 4 5
M  V30 5 2 5 6
M  V30 6 1 5 7
M  V30 7 1 6 8
M  V30 8 2 7 9
M  V30 9 2 8 10
M  V30 10 1 10 11
M  V30 11 2 11 12
M  V30 12 1 11 13
M  V30 13 1 9 10
M  V30 END BOND
M  V30 END CTAB
M  END
>  <Dotmatics_CR>
R-009965

>  <CR_Set>
Acid

>  <Category>
Carboxylic Acids Aromatic

>  <Reaction type>
Amidation

>  <KI/BB_Nature>
Amine

>  <Comments>


>  <Salt>


>  <CR_Chiral_Form>
Achiral

>  <Prod_total_used>
6

>  <PSR (%)>
100

>  <Article>
4-(Difluoromethoxy)benzoic acid

>  <CAS>
4837-20-1

>  <Density>
1

>  <Prod_reagent_number>


>  <Stereocenters>
0

>  <NB_Name reaction - KI/BB – Capping>
03-Amidation_Amine_Acid

$$$$
R-008743
Actelion Java MolfileCreator 2.0

  0  0  0  0  0  0              0 V3000
M  V30 BEGIN CTAB
M  V30 COUNTS 13 13 0 0 0
M  V30 BEGIN ATOM
M  V30 1 F 0.0 0.0 0.0 0
M  V30 2 C -1.3113 0.7561 0.0 0
M  V30 3 C -1.335 2.2683 0.0 0
M  V30 4 C -2.6227 0.0354 0.0 0
M  V30 5 O -0.0708 3.0244 0.0 0
M  V30 6 C -2.6464 3.0244 0.0 0
M  V30 7 C -3.9341 0.8033 0.0 0
M  V30 8 C 1.1932 2.3037 0.0 0
M  V30 9 C -3.9577 2.3037 0.0 0
M  V30 10 C -5.2455 0.0827 0.0 0
M  V30 11 C -6.5569 0.8388 0.0 0
M  V30 12 O -6.5805 2.351 0.0 0
M  V30 13 O -7.8683 0.1181 0.0 0
M  V30 END ATOM
M  V30 BEGIN BOND
M  V30 1 1 1 2
M  V30 2 2 2 3
M  V30 3 1 2 4
M  V30 4 1 3 5
M  V30 5 1 3 6
M  V30 6 2 4 7
M  V30 7 1 5 8
M  V30 8 2 6 9
M  V30 9 1 7 10
M  V30 10 1 10 11
M  V30 11 2 11 12
M  V30 12 1 11 13
M  V30 13 1 7 9
M  V30 END BOND
M  V30 END CTAB
M  END
>  <Dotmatics_CR>
R-008743

>  <CR_Set>
Acid

>  <Category>
Carboxylic Acids Non-Aromatic

>  <Reaction type>
Amidation

>  <KI/BB_Nature>
Amine

>  <Comments>


>  <Salt>


>  <CR_Chiral_Form>
Achiral

>  <Prod_total_used>
29

>  <PSR (%)>
93

>  <Article>
3-Fluoro-4-methoxyphenylacetic acid

>  <CAS>
452-14-2

>  <Density>
1

>  <Prod_reagent_number>


>  <Stereocenters>
0

>  <NB_Name reaction - KI/BB – Capping>
03-Amidation_Amine_Acid

$$$$
R-011126
Actelion Java MolfileCreator 2.0

  0  0  0  0  0  0              0 V3000
M  V30 BEGIN CTAB
M  V30 COUNTS 13 13 0 0 0
M  V30 BEGIN ATOM
M  V30 1 F 0.0 0.0 0.0 0
M  V30 2 C 1.2974 -0.7261 0.0 0
M  V30 3 C 2.5949 0.0595 0.0 0
M  V30 4 C 1.2736 -2.2259 0.0 0
M  V30 5 C 3.8924 -0.6665 0.0 0
M  V30 6 C 2.5711 -2.952 0.0 0
M  V30 7 O 5.1898 0.119 0.0 0
M  V30 8 C 3.8686 -2.1664 0.0 0
M  V30 9 C 6.4873 -0.607 0.0 0
M  V30 10 C 5.166 -2.8925 0.0 0
M  V30 11 C 5.1422 -4.3923 0.0 0
M  V30 12 O 3.7971 -5.1184 0.0 0
M  V30 13 O 6.4397 -5.1184 0.0 0
M  V30 END ATOM
M  V30 BEGIN BOND
M  V30 1 1 1 2
M  V30 2 2 2 3
M  V30 3 1 2 4
M  V30 4 1 3 5
M  V30 5 2 4 6
M  V30 6 1 5 7
M  V30 7 2 5 8
M  V30 8 1 7 9
M  V30 9 1 8 10
M  V30 10 1 10 11
M  V30 11 2 11 12
M  V30 12 1 11 13
M  V30 13 1 6 8
M  V30 END BOND
M  V30 END CTAB
M  END
>  <Dotmatics_CR>
R-011126

>  <CR_Set>
Acid

>  <Category>
Carboxylic Acids Non-Aromatic

>  <Reaction type>
Amidation

>  <KI/BB_Nature>
Amine

>  <Comments>


>  <Salt>


>  <CR_Chiral_Form>
Achiral

>  <Prod_total_used>
4

>  <PSR (%)>
100

>  <Article>
4-Fluoro-2-methoxy-phenylacetic acid

>  <CAS>
886498-61-9

>  <Density>
1

>  <Prod_reagent_number>
C089

>  <Stereocenters>
0

>  <NB_Name reaction - KI/BB – Capping>
03-Amidation_Amine_Acid

$$$$
R-008738
Actelion Java MolfileCreator 2.0

  0  0  0  0  0  0              0 V3000
M  V30 BEGIN CTAB
M  V30 COUNTS 13 13 0 0 0
M  V30 BEGIN ATOM
M  V30 1 F 0.0 0.0 0.0 0
M  V30 2 C -1.3051 0.7642 0.0 0
M  V30 3 C -2.6102 0.047 0.0 0
M  V30 4 C -1.3286 2.2692 0.0 0
M  V30 5 C -3.9153 0.8112 0.0 0
M  V30 6 C -2.6337 3.0335 0.0 0
M  V30 7 C -3.9388 2.3163 0.0 0
M  V30 8 O -5.244 3.0805 0.0 0
M  V30 9 C -6.5491 2.3633 0.0 0
M  V30 10 C -7.8542 3.1275 0.0 0
M  V30 11 C -9.1593 2.4103 0.0 0
M  V30 12 O -10.4645 3.1746 0.0 0
M  V30 13 O -9.1829 0.9523 0.0 0
M  V30 END ATOM
M  V30 BEGIN BOND
M  V30 1 1 1 2
M  V30 2 2 2 3
M  V30 3 1 2 4
M  V30 4 1 3 5
M  V30 5 2 4 6
M  V30 6 2 5 7
M  V30 7 1 7 8
M  V30 8 1 8 9
M  V30 9 1 9 10
M  V30 10 1 10 11
M  V30 11 2 11 12
M  V30 12 1 11 13
M  V30 13 1 6 7
M  V30 END BOND
M  V30 END CTAB
M  END
>  <Dotmatics_CR>
R-008738

>  <CR_Set>
Acid

>  <Category>
Carboxylic Acids Non-Aromatic

>  <Reaction type>
Amidation

>  <KI/BB_Nature>
Amine

>  <Comments>


>  <Salt>


>  <CR_Chiral_Form>
Achiral

>  <Prod_total_used>
23

>  <PSR (%)>
74

>  <Article>
3-(4-Fluorophenoxy)propionic acid

>  <CAS>
1579-78-8

>  <Density>
1

>  <Prod_reagent_number>
C090

>  <Stereocenters>
0

>  <NB_Name reaction - KI/BB – Capping>
03-Amidation_Amine_Acid

$$$$
R-008525
Actelion Java MolfileCreator 2.0

  0  0  0  0  0  0              0 V3000
M  V30 BEGIN CTAB
M  V30 COUNTS 13 13 0 0 0
M  V30 BEGIN ATOM
M  V30 1 O 0.0 0.0 0.0 0
M  V30 2 C -1.3315 -0.7317 0.0 0
M  V30 3 O -2.6631 0.0359 0.0 0
M  V30 4 C -1.3555 -2.2193 0.0 0
M  V30 5 C -0.0719 -2.951 0.0 0
M  V30 6 C -2.6871 -2.951 0.0 0
M  V30 7 C -0.0959 -4.4386 0.0 0
M  V30 8 C -2.7111 -4.4386 0.0 0
M  V30 9 N -1.4275 -5.1703 0.0 0
M  V30 10 N 1.1876 -5.1703 0.0 0
M  V30 11 C 2.4712 -4.4026 0.0 0
M  V30 12 O 2.4472 -2.8671 0.0 0
M  V30 13 C 3.7548 -5.1343 0.0 0
M  V30 END ATOM
M  V30 BEGIN BOND
M  V30 1 2 1 2
M  V30 2 1 2 3
M  V30 3 1 2 4
M  V30 4 2 4 5
M  V30 5 1 4 6
M  V30 6 1 5 7
M  V30 7 2 6 8
M  V30 8 2 7 9
M  V30 9 1 7 10
M  V30 10 1 10 11
M  V30 11 2 11 12
M  V30 12 1 11 13
M  V30 13 1 8 9
M  V30 END BOND
M  V30 END CTAB
M  END
>  <Dotmatics_CR>
R-008525

>  <CR_Set>
Acid

>  <Category>
Carboxylic Acids Aromatic

>  <Reaction type>
Amidation

>  <KI/BB_Nature>
Amine

>  <Comments>


>  <Salt>


>  <CR_Chiral_Form>
Achiral

>  <Prod_total_used>
26

>  <PSR (%)>
92

>  <Article>
2-(acetylamino)isonicotinic acid

>  <CAS>
54221-95-3

>  <Density>
1

>  <Prod_reagent_number>
C091

>  <Stereocenters>
0

>  <NB_Name reaction - KI/BB – Capping>
03-Amidation_Amine_Acid

$$$$
R-001478
Actelion Java MolfileCreator 2.0

  0  0  0  0  0  0              0 V3000
M  V30 BEGIN CTAB
M  V30 COUNTS 13 13 0 0 0
M  V30 BEGIN ATOM
M  V30 1 O 0.0 0.0 0.0 0
M  V30 2 C -0.0236 -1.475 0.0 0
M  V30 3 O 1.2508 -2.1948 0.0 0
M  V30 4 C -1.3452 -2.1948 0.0 0
M  V30 5 C -1.3688 -3.6817 0.0 0
M  V30 6 C -2.6786 -1.4042 0.0 0
M  V30 7 O -0.0944 -4.4015 0.0 0
M  V30 8 N -2.7022 -4.4015 0.0 0
M  V30 9 C -4.0003 -2.1476 0.0 0
M  V30 10 C -0.118 -5.8765 0.0 0
M  V30 11 C -4.0239 -3.6227 0.0 0
M  V30 12 O -5.3455 -4.3425 0.0 0
M  V30 13 C -6.6672 -3.5637 0.0 0
M  V30 END ATOM
M  V30 BEGIN BOND
M  V30 1 2 1 2
M  V30 2 1 2 3
M  V30 3 1 2 4
M  V30 4 2 4 5
M  V30 5 1 4 6
M  V30 6 1 5 7
M  V30 7 1 5 8
M  V30 8 2 6 9
M  V30 9 1 7 10
M  V30 10 2 8 11
M  V30 11 1 11 12
M  V30 12 1 12 13
M  V30 13 1 9 11
M  V30 END BOND
M  V30 END CTAB
M  END
>  <Dotmatics_CR>
R-001478

>  <CR_Set>
Acid

>  <Category>
Carboxylic Acids Aromatic

>  <Reaction type>
Amidation

>  <KI/BB_Nature>
Amine

>  <Comments>


>  <Salt>


>  <CR_Chiral_Form>
Achiral

>  <Prod_total_used>
1

>  <PSR (%)>
100

>  <Article>
2,6-DIMETHOXYNICOTINIC ACID

>  <CAS>
16727-43-8

>  <Density>
1

>  <Prod_reagent_number>


>  <Stereocenters>
0

>  <NB_Name reaction - KI/BB – Capping>
03-Amidation_Amine_Acid

$$$$
R-007214
Actelion Java MolfileCreator 2.0

  0  0  0  0  0  0              0 V3000
M  V30 BEGIN CTAB
M  V30 COUNTS 13 13 0 0 0
M  V30 BEGIN ATOM
M  V30 1 O 0.0 0.0 0.0 0
M  V30 2 C -0.0236 1.5164 0.0 0
M  V30 3 O 1.2439 2.2865 0.0 0
M  V30 4 C -1.3387 2.2865 0.0 0
M  V30 5 C -2.6538 1.5638 0.0 0
M  V30 6 C -2.6775 0.0947 0.0 0
M  V30 7 C -3.9689 2.3339 0.0 0
M  V30 8 C -3.9926 -0.6279 0.0 0
M  V30 9 C -5.284 1.6112 0.0 0
M  V30 10 C -5.3077 0.1421 0.0 0
M  V30 11 N -6.6227 -0.5805 0.0 0
M  V30 12 C -7.9378 0.1777 0.0 0
M  V30 13 C -6.6464 -2.0496 0.0 0
M  V30 END ATOM
M  V30 BEGIN BOND
M  V30 1 2 1 2
M  V30 2 1 2 3
M  V30 3 1 2 4
M  V30 4 1 4 5
M  V30 5 2 5 6
M  V30 6 1 5 7
M  V30 7 1 6 8
M  V30 8 2 7 9
M  V30 9 2 8 10
M  V30 10 1 10 11
M  V30 11 1 11 12
M  V30 12 1 11 13
M  V30 13 1 9 10
M  V30 END BOND
M  V30 END CTAB
M  END
>  <Dotmatics_CR>
R-007214

>  <CR_Set>
Acid

>  <Category>
Carboxylic Acids Non-Aromatic

>  <Reaction type>
Amidation

>  <KI/BB_Nature>
Amine

>  <Comments>


>  <Salt>


>  <CR_Chiral_Form>
Achiral

>  <Prod_total_used>
1

>  <PSR (%)>
100

>  <Article>
4-(DIMETHYLAMINO)PHENYLACETIC ACID

>  <CAS>
17078-28-3

>  <Density>
1

>  <Prod_reagent_number>


>  <Stereocenters>
0

>  <NB_Name reaction - KI/BB – Capping>
03-Amidation_Amine_Acid

$$$$
R-005187
Actelion Java MolfileCreator 2.0

  0  0  0  0  0  0              0 V3000
M  V30 BEGIN CTAB
M  V30 COUNTS 13 13 0 0 0
M  V30 BEGIN ATOM
M  V30 1 F 0.0 0.0 0.0 0
M  V30 2 C -0.0119 -1.3472 0.0 0
M  V30 3 F 1.1683 -0.3218 0.0 0
M  V30 4 F -1.2637 -0.3338 0.0 0
M  V30 5 C -0.0357 -2.8255 0.0 0
M  V30 6 C -1.3591 -3.5528 0.0 0
M  V30 7 C 1.2399 -3.5408 0.0 0
M  V30 8 C -2.6824 -2.7778 0.0 0
M  V30 9 C -1.3829 -5.0311 0.0 0
M  V30 10 C 1.2279 -5.0311 0.0 0
M  V30 11 O -4.0058 -3.5051 0.0 0
M  V30 12 O -2.7063 -1.2518 0.0 0
M  V30 13 N -0.1072 -5.7584 0.0 0
M  V30 END ATOM
M  V30 BEGIN BOND
M  V30 1 1 1 2
M  V30 2 1 2 3
M  V30 3 1 2 4
M  V30 4 1 2 5
M  V30 5 2 5 6
M  V30 6 1 5 7
M  V30 7 1 6 8
M  V30 8 1 6 9
M  V30 9 2 7 10
M  V30 10 2 8 11
M  V30 11 1 8 12
M  V30 12 2 9 13
M  V30 13 1 10 13
M  V30 END BOND
M  V30 END CTAB
M  END
>  <Dotmatics_CR>
R-005187

>  <CR_Set>
Acid

>  <Category>
Carboxylic Acids Aromatic

>  <Reaction type>
Amidation

>  <KI/BB_Nature>
Amine

>  <Comments>


>  <Salt>


>  <CR_Chiral_Form>
Achiral

>  <Prod_total_used>
7

>  <PSR (%)>
100

>  <Article>
4-(TRIFLUOROMETHYL)PYRIDINE-3-CARBOXYLIC ACID

>  <CAS>
158063-66-2

>  <Density>
1

>  <Prod_reagent_number>


>  <Stereocenters>
0

>  <NB_Name reaction - KI/BB – Capping>
03-Amidation_Amine_Acid

$$$$
R-008753
Actelion Java MolfileCreator 2.0

  0  0  0  0  0  0              0 V3000
M  V30 BEGIN CTAB
M  V30 COUNTS 13 13 0 0 0
M  V30 BEGIN ATOM
M  V30 1 F 0.0 0.0 0.0 0
M  V30 2 C 1.2844 -0.7442 0.0 0
M  V30 3 F 2.5689 0.036 0.0 0
M  V30 4 F 1.2604 0.7923 0.0 0
M  V30 5 C 1.2604 -2.2328 0.0 0
M  V30 6 N -0.072 -2.9771 0.0 0
M  V30 7 C 2.5449 -2.9771 0.0 0
M  V30 8 C -0.096 -4.4657 0.0 0
M  V30 9 C 2.5209 -4.4657 0.0 0
M  V30 10 C 1.1884 -5.1979 0.0 0
M  V30 11 C 1.1644 -6.6865 0.0 0
M  V30 12 O 2.4489 -7.4308 0.0 0
M  V30 13 O -0.168 -7.4308 0.0 0
M  V30 END ATOM
M  V30 BEGIN BOND
M  V30 1 1 1 2
M  V30 2 1 2 3
M  V30 3 1 2 4
M  V30 4 1 2 5
M  V30 5 2 5 6
M  V30 6 1 5 7
M  V30 7 1 6 8
M  V30 8 2 7 9
M  V30 9 2 8 10
M  V30 10 1 10 11
M  V30 11 2 11 12
M  V30 12 1 11 13
M  V30 13 1 9 10
M  V30 END BOND
M  V30 END CTAB
M  END
>  <Dotmatics_CR>
R-008753

>  <CR_Set>
Acid

>  <Category>
Carboxylic Acids Aromatic

>  <Reaction type>
Amidation

>  <KI/BB_Nature>
Amine

>  <Comments>


>  <Salt>


>  <CR_Chiral_Form>
Achiral

>  <Prod_total_used>
2

>  <PSR (%)>
100

>  <Article>
6-(Trifluoromethyl)pyridine-3-carboxylic acid

>  <CAS>
231291-22-8

>  <Density>
1

>  <Prod_reagent_number>
C093

>  <Stereocenters>
0

>  <NB_Name reaction - KI/BB – Capping>
03-Amidation_Amine_Acid

$$$$
R-008746
Actelion Java MolfileCreator 2.0

  0  0  0  0  0  0              0 V3000
M  V30 BEGIN CTAB
M  V30 COUNTS 13 13 0 0 0
M  V30 BEGIN ATOM
M  V30 1 F 0.0 0.0 0.0 0
M  V30 2 C -1.3131 -0.7216 0.0 0
M  V30 3 F -1.3368 -2.1886 0.0 0
M  V30 4 F -1.3368 0.7926 0.0 0
M  V30 5 C -2.6263 0.0354 0.0 0
M  V30 6 N -3.9395 -0.6861 0.0 0
M  V30 7 C -2.65 1.5497 0.0 0
M  V30 8 C -5.2527 0.0709 0.0 0
M  V30 9 C -1.3841 2.3069 0.0 0
M  V30 10 C -3.9632 2.3069 0.0 0
M  V30 11 C -5.2764 1.5852 0.0 0
M  V30 12 O -1.4078 3.8212 0.0 0
M  V30 13 O -0.1183 1.5852 0.0 0
M  V30 END ATOM
M  V30 BEGIN BOND
M  V30 1 1 1 2
M  V30 2 1 2 3
M  V30 3 1 2 4
M  V30 4 1 2 5
M  V30 5 2 5 6
M  V30 6 1 5 7
M  V30 7 1 6 8
M  V30 8 1 7 9
M  V30 9 2 7 10
M  V30 10 2 8 11
M  V30 11 2 9 12
M  V30 12 1 9 13
M  V30 13 1 10 11
M  V30 END BOND
M  V30 END CTAB
M  END
>  <Dotmatics_CR>
R-008746

>  <CR_Set>
Acid

>  <Category>
Carboxylic Acids Aromatic

>  <Reaction type>
Amidation

>  <KI/BB_Nature>
Amine

>  <Comments>


>  <Salt>


>  <CR_Chiral_Form>
Achiral

>  <Prod_total_used>
11

>  <PSR (%)>
100

>  <Article>
2-(Trifluoromethyl)pyridine-3-carboxylic acid

>  <CAS>
131747-43-8

>  <Density>
1

>  <Prod_reagent_number>


>  <Stereocenters>
0

>  <NB_Name reaction - KI/BB – Capping>
03-Amidation_Amine_Acid

$$$$
R-008730
Actelion Java MolfileCreator 2.0

  0  0  0  0  0  0              0 V3000
M  V30 BEGIN CTAB
M  V30 COUNTS 13 13 0 0 0
M  V30 BEGIN ATOM
M  V30 1 F 0.0 0.0 0.0 0
M  V30 2 C 1.2906 0.7719 0.0 0
M  V30 3 F 1.2665 2.3159 0.0 0
M  V30 4 F 2.5812 1.556 0.0 0
M  V30 5 C 2.5812 0.0361 0.0 0
M  V30 6 C 2.5571 -1.4595 0.0 0
M  V30 7 C 3.8719 0.8081 0.0 0
M  V30 8 N 3.8477 -2.1952 0.0 0
M  V30 9 C 5.1625 0.0723 0.0 0
M  V30 10 C 5.1384 -1.4233 0.0 0
M  V30 11 C 6.429 -2.1591 0.0 0
M  V30 12 O 6.4049 -3.6547 0.0 0
M  V30 13 O 7.7196 -1.3871 0.0 0
M  V30 END ATOM
M  V30 BEGIN BOND
M  V30 1 1 1 2
M  V30 2 1 2 3
M  V30 3 1 2 4
M  V30 4 1 2 5
M  V30 5 2 5 6
M  V30 6 1 5 7
M  V30 7 1 6 8
M  V30 8 2 7 9
M  V30 9 2 8 10
M  V30 10 1 10 11
M  V30 11 2 11 12
M  V30 12 1 11 13
M  V30 13 1 9 10
M  V30 END BOND
M  V30 END CTAB
M  END
>  <Dotmatics_CR>
R-008730

>  <CR_Set>
Acid

>  <Category>
Carboxylic Acids Aromatic

>  <Reaction type>
Amidation

>  <KI/BB_Nature>
Amine

>  <Comments>


>  <Salt>


>  <CR_Chiral_Form>
Achiral

>  <Prod_total_used>
21

>  <PSR (%)>
95

>  <Article>
5-(Trifluoromethyl)pyridine-2-carboxylic acid

>  <CAS>
80194-69-0

>  <Density>
1

>  <Prod_reagent_number>
C094

>  <Stereocenters>
0

>  <NB_Name reaction - KI/BB – Capping>
03-Amidation_Amine_Acid

$$$$
R-008789
Actelion Java MolfileCreator 2.0

  0  0  0  0  0  0              0 V3000
M  V30 BEGIN CTAB
M  V30 COUNTS 13 13 0 0 0
M  V30 BEGIN ATOM
M  V30 1 F 0.0 0.0 0.0 0
M  V30 2 C -1.3186 0.7721 0.0 0
M  V30 3 F -1.3424 2.2928 0.0 0
M  V30 4 F -0.0475 1.5443 0.0 0
M  V30 5 C -2.6373 0.0356 0.0 0
M  V30 6 C -2.661 -1.4374 0.0 0
M  V30 7 C -3.9559 0.8078 0.0 0
M  V30 8 N -3.9797 -2.174 0.0 0
M  V30 9 C -1.3899 -2.174 0.0 0
M  V30 10 C -5.2746 0.0712 0.0 0
M  V30 11 C -5.2983 -1.4018 0.0 0
M  V30 12 O -1.4136 -3.6471 0.0 0
M  V30 13 O -0.1187 -1.4018 0.0 0
M  V30 END ATOM
M  V30 BEGIN BOND
M  V30 1 1 1 2
M  V30 2 1 2 3
M  V30 3 1 2 4
M  V30 4 1 2 5
M  V30 5 2 5 6
M  V30 6 1 5 7
M  V30 7 1 6 8
M  V30 8 1 6 9
M  V30 9 2 7 10
M  V30 10 2 8 11
M  V30 11 2 9 12
M  V30 12 1 9 13
M  V30 13 1 10 11
M  V30 END BOND
M  V30 END CTAB
M  END
>  <Dotmatics_CR>
R-008789

>  <CR_Set>
Acid

>  <Category>
Carboxylic Acids Aromatic

>  <Reaction type>
Amidation

>  <KI/BB_Nature>
Amine

>  <Comments>


>  <Salt>


>  <CR_Chiral_Form>
Achiral

>  <Prod_total_used>
1

>  <PSR (%)>
100

>  <Article>
3-(Trifluoromethyl)pyridine-2-carboxylic acid

>  <CAS>
87407-12-3

>  <Density>
1

>  <Prod_reagent_number>


>  <Stereocenters>
0

>  <NB_Name reaction - KI/BB – Capping>
03-Amidation_Amine_Acid

$$$$
R-005032
Actelion Java MolfileCreator 2.0

  0  0  0  0  0  0              0 V3000
M  V30 BEGIN CTAB
M  V30 COUNTS 13 13 0 0 0
M  V30 BEGIN ATOM
M  V30 1 O 0.0 0.0 0.0 0
M  V30 2 C 1.2322 -0.8335 0.0 0
M  V30 3 O 1.0631 -2.3316 0.0 0
M  V30 4 C 2.5853 -0.1812 0.0 0
M  V30 5 C 3.8055 -1.0027 0.0 0
M  V30 6 C 2.7061 1.3651 0.0 0
M  V30 7 C 5.1465 -0.3382 0.0 0
M  V30 8 C 4.0592 2.0417 0.0 0
M  V30 9 N 6.3667 -1.1718 0.0 0
M  V30 10 C 5.2431 1.1839 0.0 0
M  V30 11 C 7.7198 -0.5074 0.0 0
M  V30 12 O 8.9399 -1.353 0.0 0
M  V30 13 C 7.8285 1.0027 0.0 0
M  V30 END ATOM
M  V30 BEGIN BOND
M  V30 1 2 1 2
M  V30 2 1 2 3
M  V30 3 1 2 4
M  V30 4 2 4 5
M  V30 5 1 4 6
M  V30 6 1 5 7
M  V30 7 2 6 8
M  V30 8 1 7 9
M  V30 9 2 7 10
M  V30 10 1 9 11
M  V30 11 2 11 12
M  V30 12 1 11 13
M  V30 13 1 8 10
M  V30 END BOND
M  V30 END CTAB
M  END
>  <Dotmatics_CR>
R-005032

>  <CR_Set>
Acid

>  <Category>
Carboxylic Acids Aromatic

>  <Reaction type>
Amidation

>  <KI/BB_Nature>
Amine

>  <Comments>


>  <Salt>


>  <CR_Chiral_Form>
Achiral

>  <Prod_total_used>
1

>  <PSR (%)>
100

>  <Article>
3-ACETAMIDOBENZOIC ACID

>  <CAS>
587-48-4

>  <Density>
1

>  <Prod_reagent_number>


>  <Stereocenters>
0

>  <NB_Name reaction - KI/BB – Capping>
03-Amidation_Amine_Acid

$$$$
R-010566
Actelion Java MolfileCreator 2.0

  0  0  0  0  0  0              0 V3000
M  V30 BEGIN CTAB
M  V30 COUNTS 13 13 0 0 0
M  V30 BEGIN ATOM
M  V30 1 O 0.0 0.0 0.0 0
M  V30 2 C -0.0238 1.5283 0.0 0
M  V30 3 O -1.3492 2.3044 0.0 0
M  V30 4 C 1.2537 2.3044 0.0 0
M  V30 5 C 2.5313 1.5641 0.0 0
M  V30 6 C 1.2298 3.8327 0.0 0
M  V30 7 O 2.5074 0.0835 0.0 0
M  V30 8 C 3.8088 2.3402 0.0 0
M  V30 9 C 2.5074 4.6088 0.0 0
M  V30 10 C 3.785 -0.6567 0.0 0
M  V30 11 C 3.785 3.8685 0.0 0
M  V30 12 C 5.0626 4.6446 0.0 0
M  V30 13 N 6.3401 5.4088 0.0 0
M  V30 END ATOM
M  V30 BEGIN BOND
M  V30 1 2 1 2
M  V30 2 1 2 3
M  V30 3 1 2 4
M  V30 4 2 4 5
M  V30 5 1 4 6
M  V30 6 1 5 7
M  V30 7 1 5 8
M  V30 8 2 6 9
M  V30 9 1 7 10
M  V30 10 2 8 11
M  V30 11 1 11 12
M  V30 12 3 12 13
M  V30 13 1 9 11
M  V30 END BOND
M  V30 END CTAB
M  END
>  <Dotmatics_CR>
R-010566

>  <CR_Set>
Acid

>  <Category>
Carboxylic Acids Aromatic

>  <Reaction type>
Amidation

>  <KI/BB_Nature>
Amine

>  <Comments>


>  <Salt>


>  <CR_Chiral_Form>
Achiral

>  <Prod_total_used>
1

>  <PSR (%)>
100

>  <Article>
4-Cyano-2-methoxybenzoic acid

>  <CAS>
89469-52-3

>  <Density>
1

>  <Prod_reagent_number>


>  <Stereocenters>
0

>  <NB_Name reaction - KI/BB – Capping>
03-Amidation_Amine_Acid

$$$$
R-004868
Actelion Java MolfileCreator 2.0

  0  0  0  0  0  0              0 V3000
M  V30 BEGIN CTAB
M  V30 COUNTS 13 13 0 0 0
M  V30 BEGIN ATOM
M  V30 1 O 0.0 0.0 0.0 0
M  V30 2 C -1.3254 -0.735 0.0 0
M  V30 3 N -2.6389 0.0481 0.0 0
M  V30 4 C -1.3616 -2.2051 0.0 0
M  V30 5 C -3.9523 -0.6868 0.0 0
M  V30 6 C -2.6871 -2.9401 0.0 0
M  V30 7 C -0.0963 -2.9401 0.0 0
M  V30 8 C -5.2778 0.0843 0.0 0
M  V30 9 C -2.7112 -4.4102 0.0 0
M  V30 10 C -0.1204 -4.4102 0.0 0
M  V30 11 O -6.5912 -0.6506 0.0 0
M  V30 12 O -5.3019 1.6267 0.0 0
M  V30 13 C -1.4339 -5.1452 0.0 0
M  V30 END ATOM
M  V30 BEGIN BOND
M  V30 1 2 1 2
M  V30 2 1 2 3
M  V30 3 1 2 4
M  V30 4 1 3 5
M  V30 5 2 4 6
M  V30 6 1 4 7
M  V30 7 1 5 8
M  V30 8 1 6 9
M  V30 9 2 7 10
M  V30 10 2 8 11
M  V30 11 1 8 12
M  V30 12 2 9 13
M  V30 13 1 10 13
M  V30 END BOND
M  V30 END CTAB
M  END
>  <Dotmatics_CR>
R-004868

>  <CR_Set>
Acid

>  <Category>
Carboxylic Acids Non-Aromatic

>  <Reaction type>
Amidation

>  <KI/BB_Nature>
Amine

>  <Comments>


>  <Salt>


>  <CR_Chiral_Form>
Achiral

>  <Prod_total_used>
25

>  <PSR (%)>
92

>  <Article>
HIPPURIC ACID

>  <CAS>
495-69-2

>  <Density>
1

>  <Prod_reagent_number>
C095

>  <Stereocenters>
0

>  <NB_Name reaction - KI/BB – Capping>
03-Amidation_Amine_Acid

$$$$
R-008046
Actelion Java MolfileCreator 2.0

  0  0  0  0  0  0              0 V3000
M  V30 BEGIN CTAB
M  V30 COUNTS 13 13 0 0 0
M  V30 BEGIN ATOM
M  V30 1 S 0.0 0.0 0.0 0
M  V30 2 C 0.8755 -1.2068 0.0 0
M  V30 3 C -1.4671 -0.4377 0.0 0
M  V30 4 C 2.3662 -1.1831 0.0 0
M  V30 5 C -0.0473 -2.4136 0.0 0
M  V30 6 C -1.4907 -1.9285 0.0 0
M  V30 7 O 3.088 0.1538 0.0 0
M  V30 8 N 3.088 -2.4727 0.0 0
M  V30 9 C 4.5787 -2.4491 0.0 0
M  V30 10 C 5.3005 -3.7387 0.0 0
M  V30 11 C 6.7912 -3.715 0.0 0
M  V30 12 O 7.513 -2.3781 0.0 0
M  V30 13 O 7.513 -5.0047 0.0 0
M  V30 END ATOM
M  V30 BEGIN BOND
M  V30 1 1 1 2
M  V30 2 1 1 3
M  V30 3 1 2 4
M  V30 4 2 2 5
M  V30 5 2 3 6
M  V30 6 2 4 7
M  V30 7 1 4 8
M  V30 8 1 8 9
M  V30 9 1 9 10
M  V30 10 1 10 11
M  V30 11 2 11 12
M  V30 12 1 11 13
M  V30 13 1 5 6
M  V30 END BOND
M  V30 END CTAB
M  END
>  <Dotmatics_CR>
R-008046

>  <CR_Set>
Acid

>  <Category>
Carboxylic Acids Non-Aromatic

>  <Reaction type>
Amidation

>  <KI/BB_Nature>
Amine

>  <Comments>


>  <Salt>


>  <CR_Chiral_Form>
Achiral

>  <Prod_total_used>
1

>  <PSR (%)>
100

>  <Article>
-Alanine, N-(2-thienylcarbonyl)-

>  <CAS>
36855-32-0

>  <Density>
1

>  <Prod_reagent_number>


>  <Stereocenters>
0

>  <NB_Name reaction - KI/BB – Capping>
03-Amidation_Amine_Acid

$$$$
R-004355
Actelion Java MolfileCreator 2.0

  0  0  0  0  0  0              0 V3000
M  V30 BEGIN CTAB
M  V30 COUNTS 14 14 0 0 0
M  V30 BEGIN ATOM
M  V30 1 O 0.0 0.0 0.0 0
M  V30 2 C 1.2798 -0.7584 0.0 0
M  V30 3 O 2.5596 -0.1422 0.0 0
M  V30 4 C 1.2561 -2.2396 0.0 0
M  V30 5 C -0.0711 -2.9625 0.0 0
M  V30 6 C -1.3983 -2.1804 0.0 0
M  V30 7 C -0.0948 -4.4556 0.0 0
M  V30 8 C -2.7255 -2.9032 0.0 0
M  V30 9 C -1.422 -5.1784 0.0 0
M  V30 10 O -4.0408 -2.1448 0.0 0
M  V30 11 C -2.7492 -4.3963 0.0 0
M  V30 12 C -4.0645 -0.6517 0.0 0
M  V30 13 O -4.0645 -5.1073 0.0 0
M  V30 14 C -5.368 -4.3608 0.0 0
M  V30 END ATOM
M  V30 BEGIN BOND
M  V30 1 2 1 2
M  V30 2 1 2 3
M  V30 3 1 2 4
M  V30 4 1 4 5
M  V30 5 2 5 6
M  V30 6 1 5 7
M  V30 7 1 6 8
M  V30 8 2 7 9
M  V30 9 1 8 10
M  V30 10 2 8 11
M  V30 11 1 10 12
M  V30 12 1 11 13
M  V30 13 1 13 14
M  V30 14 1 9 11
M  V30 END BOND
M  V30 END CTAB
M  END
>  <Dotmatics_CR>
R-004355

>  <CR_Set>
Acid

>  <Category>
Carboxylic Acids Non-Aromatic

>  <Reaction type>
Amidation

>  <KI/BB_Nature>
Amine

>  <Comments>


>  <Salt>


>  <CR_Chiral_Form>
Achiral

>  <Prod_total_used>
1

>  <PSR (%)>
100

>  <Article>
(3,4-DIMETHOXYPHENYL)ACETIC ACID

>  <CAS>
93-40-3

>  <Density>
1

>  <Prod_reagent_number>


>  <Stereocenters>
0

>  <NB_Name reaction - KI/BB – Capping>
03-Amidation_Amine_Acid

$$$$
R-008720
Actelion Java MolfileCreator 2.0

  0  0  0  0  0  0              0 V3000
M  V30 BEGIN CTAB
M  V30 COUNTS 14 14 0 0 0
M  V30 BEGIN ATOM
M  V30 1 O 0.0 0.0 0.0 0
M  V30 2 C -0.0237 1.5177 0.0 0
M  V30 3 O 1.245 2.2766 0.0 0
M  V30 4 C -1.3398 2.2766 0.0 0
M  V30 5 C -2.656 1.5533 0.0 0
M  V30 6 C -3.9722 2.3121 0.0 0
M  V30 7 C -2.6797 0.083 0.0 0
M  V30 8 C -5.2883 1.5888 0.0 0
M  V30 9 C -3.9959 -0.6402 0.0 0
M  V30 10 O -6.6045 2.3596 0.0 0
M  V30 11 C -5.3121 0.1185 0.0 0
M  V30 12 O -4.0196 -2.1106 0.0 0
M  V30 13 C -7.9207 1.6363 0.0 0
M  V30 14 C -5.3358 -2.8339 0.0 0
M  V30 END ATOM
M  V30 BEGIN BOND
M  V30 1 2 1 2
M  V30 2 1 2 3
M  V30 3 1 2 4
M  V30 4 1 4 5
M  V30 5 2 5 6
M  V30 6 1 5 7
M  V30 7 1 6 8
M  V30 8 2 7 9
M  V30 9 1 8 10
M  V30 10 2 8 11
M  V30 11 1 9 12
M  V30 12 1 10 13
M  V30 13 1 12 14
M  V30 14 1 9 11
M  V30 END BOND
M  V30 END CTAB
M  END
>  <Dotmatics_CR>
R-008720

>  <CR_Set>
Acid

>  <Category>
Carboxylic Acids Non-Aromatic

>  <Reaction type>
Amidation

>  <KI/BB_Nature>
Amine

>  <Comments>


>  <Salt>


>  <CR_Chiral_Form>
Achiral

>  <Prod_total_used>
7

>  <PSR (%)>
100

>  <Article>
(3,5-Dimethoxyphenyl)acetic acid

>  <CAS>
4670-10-4

>  <Density>
1

>  <Prod_reagent_number>


>  <Stereocenters>
0

>  <NB_Name reaction - KI/BB – Capping>
03-Amidation_Amine_Acid

$$$$
R-008714
Actelion Java MolfileCreator 2.0

  0  0  0  0  0  0              0 V3000
M  V30 BEGIN CTAB
M  V30 COUNTS 14 14 0 0 0
M  V30 BEGIN ATOM
M  V30 1 O 0.0 0.0 0.0 0
M  V30 2 C -0.024 -1.4914 0.0 0
M  V30 3 O -1.3591 -2.2251 0.0 0
M  V30 4 C 1.2629 -2.2251 0.0 0
M  V30 5 C 2.5499 -1.4553 0.0 0
M  V30 6 O 3.8369 -2.189 0.0 0
M  V30 7 C 5.1239 -1.4192 0.0 0
M  V30 8 C 6.4108 -2.153 0.0 0
M  V30 9 C 5.0998 0.1202 0.0 0
M  V30 10 C 7.6978 -1.3832 0.0 0
M  V30 11 C 6.3868 0.89 0.0 0
M  V30 12 O 8.9848 -2.1169 0.0 0
M  V30 13 C 7.6738 0.1563 0.0 0
M  V30 14 C 10.2718 -1.3471 0.0 0
M  V30 END ATOM
M  V30 BEGIN BOND
M  V30 1 2 1 2
M  V30 2 1 2 3
M  V30 3 1 2 4
M  V30 4 1 4 5
M  V30 5 1 5 6
M  V30 6 1 6 7
M  V30 7 2 7 8
M  V30 8 1 7 9
M  V30 9 1 8 10
M  V30 10 2 9 11
M  V30 11 1 10 12
M  V30 12 2 10 13
M  V30 13 1 12 14
M  V30 14 1 11 13
M  V30 END BOND
M  V30 END CTAB
M  END
>  <Dotmatics_CR>
R-008714

>  <CR_Set>
Acid

>  <Category>
Carboxylic Acids Non-Aromatic

>  <Reaction type>
Amidation

>  <KI/BB_Nature>
Amine

>  <Comments>


>  <Salt>


>  <CR_Chiral_Form>
Achiral

>  <Prod_total_used>
9

>  <PSR (%)>
89

>  <Article>
3-(3-Methoxyphenoxy)propionic acid

>  <CAS>
49855-03-0

>  <Density>
1

>  <Prod_reagent_number>


>  <Stereocenters>
0

>  <NB_Name reaction - KI/BB – Capping>
03-Amidation_Amine_Acid

$$$$
R-009771
Actelion Java MolfileCreator 2.0

  0  0  0  0  0  0              0 V3000
M  V30 BEGIN CTAB
M  V30 COUNTS 14 14 0 0 0
M  V30 BEGIN ATOM
M  V30 1 Cl 0.0 0.0 0.0 0
M  V30 2 C -1.3109 0.7676 0.0 0
M  V30 3 C -1.3345 2.2794 0.0 0
M  V30 4 C -2.6219 0.0472 0.0 0
M  V30 5 C -2.6455 3.0352 0.0 0
M  V30 6 C -0.0708 3.0352 0.0 0
M  V30 7 C -3.9328 0.8149 0.0 0
M  V30 8 C -3.9564 2.3148 0.0 0
M  V30 9 F 1.1928 2.3148 0.0 0
M  V30 10 F -0.0944 4.5469 0.0 0
M  V30 11 F 1.1928 3.8029 0.0 0
M  V30 12 C -5.2674 3.0825 0.0 0
M  V30 13 O -5.291 4.5942 0.0 0
M  V30 14 O -6.5783 2.362 0.0 0
M  V30 END ATOM
M  V30 BEGIN BOND
M  V30 1 1 1 2
M  V30 2 2 2 3
M  V30 3 1 2 4
M  V30 4 1 3 5
M  V30 5 1 3 6
M  V30 6 2 4 7
M  V30 7 2 5 8
M  V30 8 1 6 9
M  V30 9 1 6 10
M  V30 10 1 6 11
M  V30 11 1 8 12
M  V30 12 2 12 13
M  V30 13 1 12 14
M  V30 14 1 7 8
M  V30 END BOND
M  V30 END CTAB
M  END
>  <Dotmatics_CR>
R-009771

>  <CR_Set>
Acid

>  <Category>
Carboxylic Acids Aromatic

>  <Reaction type>
Amidation

>  <KI/BB_Nature>
Amine

>  <Comments>


>  <Salt>


>  <CR_Chiral_Form>
Achiral

>  <Prod_total_used>
9

>  <PSR (%)>
89

>  <Article>
4-Chloro-3-(trifluoromethyl)benzoic acid

>  <CAS>
1737-36-6

>  <Density>
1

>  <Prod_reagent_number>


>  <Stereocenters>
0

>  <NB_Name reaction - KI/BB – Capping>
03-Amidation_Amine_Acid

$$$$
R-003254
Actelion Java MolfileCreator 2.0

  0  0  0  0  0  0              0 V3000
M  V30 BEGIN CTAB
M  V30 COUNTS 14 14 0 0 0
M  V30 BEGIN ATOM
M  V30 1 O 0.0 0.0 0.0 0
M  V30 2 C -0.0237 1.5184 0.0 0
M  V30 3 O 1.2455 2.2894 0.0 0
M  V30 4 C -1.3404 2.2894 0.0 0
M  V30 5 C -2.6572 1.5658 0.0 0
M  V30 6 C -3.9739 2.3369 0.0 0
M  V30 7 C -5.2907 1.6133 0.0 0
M  V30 8 C -5.3144 0.1304 0.0 0
M  V30 9 C -6.6193 2.3962 0.0 0
M  V30 10 C -6.643 -0.5931 0.0 0
M  V30 11 C -7.9361 1.6607 0.0 0
M  V30 12 C -7.9598 0.1779 0.0 0
M  V30 13 O -9.1698 -0.4151 0.0 0
M  V30 14 C -10.4628 0.4151 0.0 0
M  V30 END ATOM
M  V30 BEGIN BOND
M  V30 1 2 1 2
M  V30 2 1 2 3
M  V30 3 1 2 4
M  V30 4 1 4 5
M  V30 5 1 5 6
M  V30 6 1 6 7
M  V30 7 2 7 8
M  V30 8 1 7 9
M  V30 9 1 8 10
M  V30 10 2 9 11
M  V30 11 2 10 12
M  V30 12 1 12 13
M  V30 13 1 13 14
M  V30 14 1 11 12
M  V30 END BOND
M  V30 END CTAB
M  END
>  <Dotmatics_CR>
R-003254

>  <CR_Set>
Acid

>  <Category>
Carboxylic Acids Non-Aromatic

>  <Reaction type>
Amidation

>  <KI/BB_Nature>
Amine

>  <Comments>


>  <Salt>


>  <CR_Chiral_Form>
Achiral

>  <Prod_total_used>
1

>  <PSR (%)>
100

>  <Article>
4-(4-METHOXYPHENYL)BUTYRIC ACID

>  <CAS>
4521-28-2

>  <Density>
1

>  <Prod_reagent_number>


>  <Stereocenters>
0

>  <NB_Name reaction - KI/BB – Capping>
03-Amidation_Amine_Acid

$$$$
R-009953
Actelion Java MolfileCreator 2.0

  0  0  0  0  0  0              0 V3000
M  V30 BEGIN CTAB
M  V30 COUNTS 14 14 0 0 0
M  V30 BEGIN ATOM
M  V30 1 O 0.0 0.0 0.0 0
M  V30 2 C 1.2613 0.7662 0.0 0
M  V30 3 O 2.5227 0.0353 0.0 0
M  V30 4 C 1.2378 2.2752 0.0 0
M  V30 5 C -0.0707 3.0414 0.0 0
M  V30 6 C -0.0943 4.5504 0.0 0
M  V30 7 C 1.167 5.3166 0.0 0
M  V30 8 C -1.4028 5.3166 0.0 0
M  V30 9 C 1.1435 6.8256 0.0 0
M  V30 10 C -1.4264 6.8256 0.0 0
M  V30 11 C -0.165 7.5919 0.0 0
M  V30 12 O -0.1886 9.1008 0.0 0
M  V30 13 C -1.4971 9.8553 0.0 0
M  V30 14 C -1.5207 11.3642 0.0 0
M  V30 END ATOM
M  V30 BEGIN BOND
M  V30 1 2 1 2
M  V30 2 1 2 3
M  V30 3 1 2 4
M  V30 4 1 4 5
M  V30 5 1 5 6
M  V30 6 2 6 7
M  V30 7 1 6 8
M  V30 8 1 7 9
M  V30 9 2 8 10
M  V30 10 2 9 11
M  V30 11 1 11 12
M  V30 12 1 12 13
M  V30 13 1 13 14
M  V30 14 1 10 11
M  V30 END BOND
M  V30 END CTAB
M  END
>  <Dotmatics_CR>
R-009953

>  <CR_Set>
Acid

>  <Category>
Carboxylic Acids Non-Aromatic

>  <Reaction type>
Amidation

>  <KI/BB_Nature>
Amine

>  <Comments>


>  <Salt>


>  <CR_Chiral_Form>
Achiral

>  <Prod_total_used>
11

>  <PSR (%)>
82

>  <Article>
3-(4-Ethoxyphenyl)propanoic acid

>  <CAS>
4919-34-0

>  <Density>
1

>  <Prod_reagent_number>


>  <Stereocenters>
0

>  <NB_Name reaction - KI/BB – Capping>
03-Amidation_Amine_Acid

$$$$
R-005559
Actelion Java MolfileCreator 2.0

  0  0  0  0  0  0              0 V3000
M  V30 BEGIN CTAB
M  V30 COUNTS 14 14 0 0 0
M  V30 BEGIN ATOM
M  V30 1 Cl 0.0 0.0 0.0 0
M  V30 2 C -1.4974 -0.2807 0.0 0
M  V30 3 C -1.977 -1.6495 0.0 0
M  V30 4 C -2.5034 0.8422 0.0 0
M  V30 5 C -3.4627 -1.9419 0.0 0
M  V30 6 C -3.9892 0.5732 0.0 0
M  V30 7 C -4.4805 -0.7955 0.0 0
M  V30 8 O -5.9428 -1.0762 0.0 0
M  V30 9 C -6.9606 0.0467 0.0 0
M  V30 10 C -8.3176 -0.5732 0.0 0
M  V30 11 C -7.7795 1.3336 0.0 0
M  V30 12 C -5.7907 0.9709 0.0 0
M  V30 13 O -9.5928 0.2456 0.0 0
M  V30 14 O -8.4346 -2.0472 0.0 0
M  V30 END ATOM
M  V30 BEGIN BOND
M  V30 1 1 1 2
M  V30 2 2 2 3
M  V30 3 1 2 4
M  V30 4 1 3 5
M  V30 5 2 4 6
M  V30 6 2 5 7
M  V30 7 1 7 8
M  V30 8 1 8 9
M  V30 9 1 9 10
M  V30 10 1 9 11
M  V30 11 1 9 12
M  V30 12 2 10 13
M  V30 13 1 10 14
M  V30 14 1 6 7
M  V30 END BOND
M  V30 END CTAB
M  END
>  <Dotmatics_CR>
R-005559

>  <CR_Set>
Acid

>  <Category>
Carboxylic Acids Non-Aromatic

>  <Reaction type>
Amidation

>  <KI/BB_Nature>
Amine

>  <Comments>


>  <Salt>


>  <CR_Chiral_Form>
Achiral

>  <Prod_total_used>
5

>  <PSR (%)>
100

>  <Article>
Propanoic acid, 2-(4-chlorophenoxy)-2-methyl-

>  <CAS>
882-09-7

>  <Density>
1

>  <Prod_reagent_number>


>  <Stereocenters>
0

>  <NB_Name reaction - KI/BB – Capping>
03-Amidation_Amine_Acid

$$$$
R-003208
Actelion Java MolfileCreator 2.0

  0  0  0  0  0  0              0 V3000
M  V30 BEGIN CTAB
M  V30 COUNTS 14 14 0 0 0
M  V30 BEGIN ATOM
M  V30 1 F 0.0 0.0 0.0 0
M  V30 2 C -1.2447 -0.8061 0.0 0
M  V30 3 F -2.0153 0.4978 0.0 0
M  V30 4 F -0.3082 -1.9204 0.0 0
M  V30 5 O -2.6198 -1.4225 0.0 0
M  V30 6 C -3.8646 -0.5453 0.0 0
M  V30 7 C -5.216 -1.1617 0.0 0
M  V30 8 C -3.7698 0.9483 0.0 0
M  V30 9 C -6.4726 -0.3082 0.0 0
M  V30 10 C -4.9789 1.8137 0.0 0
M  V30 11 C -7.8478 -0.9009 0.0 0
M  V30 12 C -6.3659 1.2091 0.0 0
M  V30 13 O -9.1044 -0.0474 0.0 0
M  V30 14 O -8.0019 -2.3709 0.0 0
M  V30 END ATOM
M  V30 BEGIN BOND
M  V30 1 1 1 2
M  V30 2 1 2 3
M  V30 3 1 2 4
M  V30 4 1 2 5
M  V30 5 1 5 6
M  V30 6 2 6 7
M  V30 7 1 6 8
M  V30 8 1 7 9
M  V30 9 2 8 10
M  V30 10 1 9 11
M  V30 11 2 9 12
M  V30 12 2 11 13
M  V30 13 1 11 14
M  V30 14 1 10 12
M  V30 END BOND
M  V30 END CTAB
M  END
>  <Dotmatics_CR>
R-003208

>  <CR_Set>
Acid

>  <Category>
Carboxylic Acids Aromatic

>  <Reaction type>
Amidation

>  <KI/BB_Nature>
Amine

>  <Comments>


>  <Salt>


>  <CR_Chiral_Form>
Achiral

>  <Prod_total_used>
2

>  <PSR (%)>
100

>  <Article>
3-(TRIFLUOROMETHOXY)BENZOIC ACID

>  <CAS>
1014-81-9

>  <Density>


>  <Prod_reagent_number>
C100

>  <Stereocenters>
0

>  <NB_Name reaction - KI/BB – Capping>
03-Amidation_Amine_Acid

$$$$
R-009227
Actelion Java MolfileCreator 2.0

  0  0  0  0  0  0              0 V3000
M  V30 BEGIN CTAB
M  V30 COUNTS 14 14 0 0 0
M  V30 BEGIN ATOM
M  V30 1 O 0.0 0.0 0.0 0
M  V30 2 C 0.7221 -1.2666 0.0 0
M  V30 3 O 2.1899 -1.2429 0.0 0
M  V30 4 C -0.0355 -2.5332 0.0 0
M  V30 5 N -1.5507 -2.5096 0.0 0
M  V30 6 N -2.4504 -3.6933 0.0 0
M  V30 7 C -2.4504 -1.2784 0.0 0
M  V30 8 C -3.8946 -3.208 0.0 0
M  V30 9 C -3.8946 -1.7164 0.0 0
M  V30 10 C -2.0124 0.1657 0.0 0
M  V30 11 C -5.1257 -4.0603 0.0 0
M  V30 12 C -5.1257 -0.8168 0.0 0
M  V30 13 O -4.9955 0.6865 0.0 0
M  V30 14 C -6.5107 -1.4086 0.0 0
M  V30 END ATOM
M  V30 BEGIN BOND
M  V30 1 2 1 2
M  V30 2 1 2 3
M  V30 3 1 2 4
M  V30 4 1 4 5
M  V30 5 1 5 6
M  V30 6 1 5 7
M  V30 7 2 6 8
M  V30 8 2 7 9
M  V30 9 1 7 10
M  V30 10 1 8 11
M  V30 11 1 9 12
M  V30 12 2 12 13
M  V30 13 1 12 14
M  V30 14 1 8 9
M  V30 END BOND
M  V30 END CTAB
M  END
>  <Dotmatics_CR>
R-009227

>  <CR_Set>
Acid

>  <Category>
Carboxylic Acids Non-Aromatic

>  <Reaction type>
Amidation

>  <KI/BB_Nature>
Amine

>  <Comments>


>  <Salt>


>  <CR_Chiral_Form>
Achiral

>  <Prod_total_used>
33

>  <PSR (%)>
97

>  <Article>
(4-Acetyl-3,5-dimethyl-1H-pyrazol-1-yl)acetic acid

>  <CAS>
890092-87-2

>  <Density>
1

>  <Prod_reagent_number>
C159

>  <Stereocenters>
0

>  <NB_Name reaction - KI/BB – Capping>
03-Amidation_Amine_Acid

$$$$
R-009184
Actelion Java MolfileCreator 2.0

  0  0  0  0  0  0              0 V3000
M  V30 BEGIN CTAB
M  V30 COUNTS 14 14 0 0 0
M  V30 BEGIN ATOM
M  V30 1 O 0.0 0.0 0.0 0
M  V30 2 C -0.0237 -1.4754 0.0 0
M  V30 3 O 1.2493 -2.2012 0.0 0
M  V30 4 C -1.3445 -2.2012 0.0 0
M  V30 5 C -2.6652 -1.4397 0.0 0
M  V30 6 C -1.3683 -3.6766 0.0 0
M  V30 7 C -3.986 -2.1655 0.0 0
M  V30 8 C -2.689 -4.4024 0.0 0
M  V30 9 N -4.0098 -3.6409 0.0 0
M  V30 10 C -5.3305 -4.3667 0.0 0
M  V30 11 O -5.3543 -5.8421 0.0 0
M  V30 12 C -6.6512 -3.6052 0.0 0
M  V30 13 C -7.972 -4.331 0.0 0
M  V30 14 C -6.675 -2.0822 0.0 0
M  V30 END ATOM
M  V30 BEGIN BOND
M  V30 1 2 1 2
M  V30 2 1 2 3
M  V30 3 1 2 4
M  V30 4 1 4 5
M  V30 5 1 4 6
M  V30 6 1 5 7
M  V30 7 1 6 8
M  V30 8 1 7 9
M  V30 9 1 9 10
M  V30 10 2 10 11
M  V30 11 1 10 12
M  V30 12 1 12 13
M  V30 13 1 12 14
M  V30 14 1 8 9
M  V30 END BOND
M  V30 END CTAB
M  END
>  <Dotmatics_CR>
R-009184

>  <CR_Set>
Acid

>  <Category>
Carboxylic Acids Non-Aromatic

>  <Reaction type>
Amidation

>  <KI/BB_Nature>
Amine

>  <Comments>


>  <Salt>


>  <CR_Chiral_Form>
Achiral

>  <Prod_total_used>
53

>  <PSR (%)>
91

>  <Article>
1-Isobutyrylpiperidine-4-carboxylic acid

>  <CAS>
330985-26-7

>  <Density>
1

>  <Prod_reagent_number>
C101

>  <Stereocenters>
0

>  <NB_Name reaction - KI/BB – Capping>
03-Amidation_Amine_Acid

$$$$
R-007891
Actelion Java MolfileCreator 2.0

  0  0  0  0  0  0              0 V3000
M  V30 BEGIN CTAB
M  V30 COUNTS 14 14 0 0 0
M  V30 BEGIN ATOM
M  V30 1 O 0.0 0.0 0.0 0
M  V30 2 C -0.0237 -1.4707 0.0 0
M  V30 3 O 1.2453 -2.1942 0.0 0
M  V30 4 C -1.3402 -2.1942 0.0 0
M  V30 5 C -2.6568 -1.4232 0.0 0
M  V30 6 C -3.9733 -2.1468 0.0 0
M  V30 7 C -5.2899 -1.3877 0.0 0
M  V30 8 O -5.3136 0.1304 0.0 0
M  V30 9 N -6.6064 -2.1112 0.0 0
M  V30 10 C -7.923 -1.3402 0.0 0
M  V30 11 C -6.6301 -3.5819 0.0 0
M  V30 12 C -9.2395 -2.0637 0.0 0
M  V30 13 C -7.9467 -4.3054 0.0 0
M  V30 14 C -9.2632 -3.5345 0.0 0
M  V30 END ATOM
M  V30 BEGIN BOND
M  V30 1 2 1 2
M  V30 2 1 2 3
M  V30 3 1 2 4
M  V30 4 1 4 5
M  V30 5 1 5 6
M  V30 6 1 6 7
M  V30 7 2 7 8
M  V30 8 1 7 9
M  V30 9 1 9 10
M  V30 10 1 9 11
M  V30 11 1 10 12
M  V30 12 1 11 13
M  V30 13 1 12 14
M  V30 14 1 13 14
M  V30 END BOND
M  V30 END CTAB
M  END
>  <Dotmatics_CR>
R-007891

>  <CR_Set>
Acid

>  <Category>
Carboxylic Acids Non-Aromatic

>  <Reaction type>
Amidation

>  <KI/BB_Nature>
Amine

>  <Comments>


>  <Salt>


>  <CR_Chiral_Form>
Achiral

>  <Prod_total_used>
1

>  <PSR (%)>
100

>  <Article>
1-Piperidinepentanoic acid, -oxo-

>  <CAS>
347142-76-1

>  <Density>
1.152

>  <Prod_reagent_number>


>  <Stereocenters>
0

>  <NB_Name reaction - KI/BB – Capping>
03-Amidation_Amine_Acid

$$$$
R-009180
Actelion Java MolfileCreator 2.0

  0  0  0  0  0  0              0 V3000
M  V30 BEGIN CTAB
M  V30 COUNTS 14 14 0 0 0
M  V30 BEGIN ATOM
M  V30 1 O 0.0 0.0 0.0 0
M  V30 2 C -1.3118 -0.7327 0.0 0
M  V30 3 O -1.3236 -2.2218 0.0 0
M  V30 4 C -2.6236 0.0236 0.0 0
M  V30 5 C -3.9354 -0.709 0.0 0
M  V30 6 C -5.2473 0.059 0.0 0
M  V30 7 C -3.9473 -2.1981 0.0 0
M  V30 8 C -2.6472 -1.4536 0.0 0
M  V30 9 C -6.5591 -0.6736 0.0 0
M  V30 10 C -5.2591 -2.9309 0.0 0
M  V30 11 C -2.6591 -2.9427 0.0 0
M  V30 12 C -6.5709 -2.1627 0.0 0
M  V30 13 O -3.9709 -3.6754 0.0 0
M  V30 14 N -1.3709 -3.6873 0.0 0
M  V30 END ATOM
M  V30 BEGIN BOND
M  V30 1 2 1 2
M  V30 2 1 2 3
M  V30 3 1 2 4
M  V30 4 1 4 5
M  V30 5 1 5 6
M  V30 6 1 5 7
M  V30 7 1 5 8
M  V30 8 1 6 9
M  V30 9 1 7 10
M  V30 10 1 8 11
M  V30 11 1 9 12
M  V30 12 2 11 13
M  V30 13 1 11 14
M  V30 14 1 10 12
M  V30 END BOND
M  V30 END CTAB
M  END
>  <Dotmatics_CR>
R-009180

>  <CR_Set>
Acid

>  <Category>
Carboxylic Acids Non-Aromatic

>  <Reaction type>
Amidation

>  <KI/BB_Nature>
Amine

>  <Comments>


>  <Salt>


>  <CR_Chiral_Form>
Achiral

>  <Prod_total_used>
29

>  <PSR (%)>
79

>  <Article>
1-(2-amino-2-oxoethyl)-cyclohexaneacetic acid

>  <CAS>
99189-60-3

>  <Density>
1

>  <Prod_reagent_number>


>  <Stereocenters>
0

>  <NB_Name reaction - KI/BB – Capping>
03-Amidation_Amine_Acid

$$$$
R-005041
Actelion Java MolfileCreator 2.0

  0  0  0  0  0  0              0 V3000
M  V30 BEGIN CTAB
M  V30 COUNTS 14 14 0 0 0
M  V30 BEGIN ATOM
M  V30 1 Cl 0.0 0.0 0.0 0
M  V30 2 C -1.4149 -0.4639 0.0 0
M  V30 3 C -1.7164 -1.902 0.0 0
M  V30 4 C -2.5863 0.5219 0.0 0
M  V30 5 C -3.1545 -2.3659 0.0 0
M  V30 6 C -4.0012 0.0463 0.0 0
M  V30 7 C -4.3143 -1.3801 0.0 0
M  V30 8 C -5.7177 -1.844 0.0 0
M  V30 9 O -6.0192 -3.2937 0.0 0
M  V30 10 N -6.8774 -0.8698 0.0 0
M  V30 11 C -8.3156 -1.3221 0.0 0
M  V30 12 C -9.4753 -0.3363 0.0 0
M  V30 13 O -10.9135 -0.8118 0.0 0
M  V30 14 O -9.2202 1.1481 0.0 0
M  V30 END ATOM
M  V30 BEGIN BOND
M  V30 1 1 1 2
M  V30 2 2 2 3
M  V30 3 1 2 4
M  V30 4 1 3 5
M  V30 5 2 4 6
M  V30 6 2 5 7
M  V30 7 1 7 8
M  V30 8 2 8 9
M  V30 9 1 8 10
M  V30 10 1 10 11
M  V30 11 1 11 12
M  V30 12 2 12 13
M  V30 13 1 12 14
M  V30 14 1 6 7
M  V30 END BOND
M  V30 END CTAB
M  END
>  <Dotmatics_CR>
R-005041

>  <CR_Set>
Acid

>  <Category>
Carboxylic Acids Non-Aromatic

>  <Reaction type>
Amidation

>  <KI/BB_Nature>
Amine

>  <Comments>


>  <Salt>


>  <CR_Chiral_Form>
Achiral

>  <Prod_total_used>
2

>  <PSR (%)>
100

>  <Article>
(4-CHLORO-BENZOYLAMINO)-ACETIC ACID

>  <CAS>
13450-77-6

>  <Density>


>  <Prod_reagent_number>
C102

>  <Stereocenters>
0

>  <NB_Name reaction - KI/BB – Capping>
03-Amidation_Amine_Acid

$$$$
R-010664
Actelion Java MolfileCreator 2.0

  0  0  0  0  0  0              0 V3000
M  V30 BEGIN CTAB
M  V30 COUNTS 14 15 0 0 0
M  V30 BEGIN ATOM
M  V30 1 O 0.0 0.0 0.0 0
M  V30 2 C -1.31 0.7671 0.0 0
M  V30 3 O -2.6201 0.0354 0.0 0
M  V30 4 C -1.3336 2.2778 0.0 0
M  V30 5 C -0.0708 3.0332 0.0 0
M  V30 6 C -2.6437 3.0332 0.0 0
M  V30 7 C -0.0944 4.5439 0.0 0
M  V30 8 C -2.6673 4.5439 0.0 0
M  V30 9 O 1.1684 5.2992 0.0 0
M  V30 10 C -1.4044 5.2992 0.0 0
M  V30 11 O -3.7885 5.5589 0.0 0
M  V30 12 C 1.1448 6.8099 0.0 0
M  V30 13 C -1.7349 6.7745 0.0 0
M  V30 14 C -3.1984 6.9397 0.0 0
M  V30 END ATOM
M  V30 BEGIN BOND
M  V30 1 2 1 2
M  V30 2 1 2 3
M  V30 3 1 2 4
M  V30 4 2 4 5
M  V30 5 1 4 6
M  V30 6 1 5 7
M  V30 7 2 6 8
M  V30 8 1 7 9
M  V30 9 2 7 10
M  V30 10 1 8 11
M  V30 11 1 9 12
M  V30 12 1 10 13
M  V30 13 1 11 14
M  V30 14 1 8 10
M  V30 15 2 13 14
M  V30 END BOND
M  V30 END CTAB
M  END
>  <Dotmatics_CR>
R-010664

>  <CR_Set>
Acid

>  <Category>
Carboxylic Acids Aromatic

>  <Reaction type>
Amidation

>  <KI/BB_Nature>
Amine

>  <Comments>


>  <Salt>


>  <CR_Chiral_Form>
Achiral

>  <Prod_total_used>
1

>  <PSR (%)>
100

>  <Article>
4-Methoxy-1-benzofuran-6-carboxylic acid

>  <CAS>
18014-95-4

>  <Density>
1

>  <Prod_reagent_number>


>  <Stereocenters>
0

>  <NB_Name reaction - KI/BB – Capping>
03-Amidation_Amine_Acid

$$$$
R-008691
Actelion Java MolfileCreator 2.0

  0  0  0  0  0  0              0 V3000
M  V30 BEGIN CTAB
M  V30 COUNTS 14 15 0 0 0
M  V30 BEGIN ATOM
M  V30 1 O 0.0 0.0 0.0 0
M  V30 2 C 0.7212 -1.2887 0.0 0
M  V30 3 O -0.0591 -2.5774 0.0 0
M  V30 4 C 2.2109 -1.265 0.0 0
M  V30 5 O 3.0858 -2.471 0.0 0
M  V30 6 C 3.0858 -0.0118 0.0 0
M  V30 7 C 4.5046 -1.9863 0.0 0
M  V30 8 C 4.5046 -0.4492 0.0 0
M  V30 9 C 5.7934 -2.7075 0.0 0
M  V30 10 C 5.7934 0.331 0.0 0
M  V30 11 C 7.0821 -1.9271 0.0 0
M  V30 12 C 7.0821 -0.3901 0.0 0
M  V30 13 O 8.3708 -2.6484 0.0 0
M  V30 14 C 9.6596 -1.868 0.0 0
M  V30 END ATOM
M  V30 BEGIN BOND
M  V30 1 2 1 2
M  V30 2 1 2 3
M  V30 3 1 2 4
M  V30 4 1 4 5
M  V30 5 2 4 6
M  V30 6 1 5 7
M  V30 7 1 6 8
M  V30 8 1 7 9
M  V30 9 1 8 10
M  V30 10 2 9 11
M  V30 11 2 10 12
M  V30 12 1 11 13
M  V30 13 1 13 14
M  V30 14 2 7 8
M  V30 15 1 11 12
M  V30 END BOND
M  V30 END CTAB
M  END
>  <Dotmatics_CR>
R-008691

>  <CR_Set>
Acid

>  <Category>
Carboxylic Acids Aromatic

>  <Reaction type>
Amidation

>  <KI/BB_Nature>
Amine

>  <Comments>


>  <Salt>


>  <CR_Chiral_Form>
Achiral

>  <Prod_total_used>
1

>  <PSR (%)>
100

>  <Article>
6-Methoxybenzofuran-2-carboxylic acid

>  <CAS>
50551-61-6

>  <Density>
1

>  <Prod_reagent_number>


>  <Stereocenters>
0

>  <NB_Name reaction - KI/BB – Capping>
03-Amidation_Amine_Acid

$$$$
R-008809
Actelion Java MolfileCreator 2.0

  0  0  0  0  0  0              0 V3000
M  V30 BEGIN CTAB
M  V30 COUNTS 14 15 0 0 0
M  V30 BEGIN ATOM
M  V30 1 O 0.0 0.0 0.0 0
M  V30 2 C -0.7669 -1.2625 0.0 0
M  V30 3 O -0.0353 -2.5251 0.0 0
M  V30 4 C -2.2773 -1.2389 0.0 0
M  V30 5 O -3.1741 -0.0117 0.0 0
M  V30 6 C -3.1741 -2.4189 0.0 0
M  V30 7 C -4.6137 -0.4483 0.0 0
M  V30 8 C -4.6137 -1.9351 0.0 0
M  V30 9 C -5.9235 0.3185 0.0 0
M  V30 10 C -5.9235 -2.6667 0.0 0
M  V30 11 C -7.2333 -0.4129 0.0 0
M  V30 12 C -7.2333 -1.8997 0.0 0
M  V30 13 O -8.5431 -2.6313 0.0 0
M  V30 14 C -9.8528 -1.8643 0.0 0
M  V30 END ATOM
M  V30 BEGIN BOND
M  V30 1 2 1 2
M  V30 2 1 2 3
M  V30 3 1 2 4
M  V30 4 1 4 5
M  V30 5 2 4 6
M  V30 6 1 5 7
M  V30 7 1 6 8
M  V30 8 1 7 9
M  V30 9 1 8 10
M  V30 10 2 9 11
M  V30 11 2 10 12
M  V30 12 1 12 13
M  V30 13 1 13 14
M  V30 14 2 7 8
M  V30 15 1 11 12
M  V30 END BOND
M  V30 END CTAB
M  END
>  <Dotmatics_CR>
R-008809

>  <CR_Set>
Acid

>  <Category>
Carboxylic Acids Aromatic

>  <Reaction type>
Amidation

>  <KI/BB_Nature>
Amine

>  <Comments>


>  <Salt>


>  <CR_Chiral_Form>
Achiral

>  <Prod_total_used>
16

>  <PSR (%)>
100

>  <Article>
5-Methoxybenzofuran-2-carboxylic acid

>  <CAS>
10242-08-7

>  <Density>
1

>  <Prod_reagent_number>
C103

>  <Stereocenters>
0

>  <NB_Name reaction - KI/BB – Capping>
03-Amidation_Amine_Acid

$$$$
R-004885
Actelion Java MolfileCreator 2.0

  0  0  0  0  0  0              0 V3000
M  V30 BEGIN CTAB
M  V30 COUNTS 14 15 0 0 0
M  V30 BEGIN ATOM
M  V30 1 O 0.0 0.0 0.0 0
M  V30 2 C -0.0388 1.4382 0.0 0
M  V30 3 O 1.1467 2.1768 0.0 0
M  V30 4 C -1.2827 2.1768 0.0 0
M  V30 5 O -2.546 1.4965 0.0 0
M  V30 6 C -1.3216 3.615 0.0 0
M  V30 7 C -3.8094 2.2545 0.0 0
M  V30 8 C -3.8094 3.6539 0.0 0
M  V30 9 C -5.0727 1.5937 0.0 0
M  V30 10 C -5.0727 4.4119 0.0 0
M  V30 11 O -5.1116 0.2332 0.0 0
M  V30 12 C -6.336 2.3323 0.0 0
M  V30 13 C -6.336 3.7316 0.0 0
M  V30 14 C -6.3749 -0.4275 0.0 0
M  V30 END ATOM
M  V30 BEGIN BOND
M  V30 1 2 1 2
M  V30 2 1 2 3
M  V30 3 1 2 4
M  V30 4 1 4 5
M  V30 5 2 4 6
M  V30 6 1 5 7
M  V30 7 1 6 8
M  V30 8 1 7 9
M  V30 9 1 8 10
M  V30 10 1 9 11
M  V30 11 2 9 12
M  V30 12 2 10 13
M  V30 13 1 11 14
M  V30 14 2 7 8
M  V30 15 1 12 13
M  V30 END BOND
M  V30 END CTAB
M  END
>  <Dotmatics_CR>
R-004885

>  <CR_Set>
Acid

>  <Category>
Carboxylic Acids Aromatic

>  <Reaction type>
Amidation

>  <KI/BB_Nature>
Amine

>  <Comments>


>  <Salt>


>  <CR_Chiral_Form>
Achiral

>  <Prod_total_used>
8

>  <PSR (%)>
88

>  <Article>
7-METHOXY-2-BENZOFURANCARBOXYLIC ACID

>  <CAS>
4790-79-8

>  <Density>
1

>  <Prod_reagent_number>
C104

>  <Stereocenters>
0

>  <NB_Name reaction - KI/BB – Capping>
03-Amidation_Amine_Acid

$$$$
R-008717
Actelion Java MolfileCreator 2.0

  0  0  0  0  0  0              0 V3000
M  V30 BEGIN CTAB
M  V30 COUNTS 14 15 0 0 0
M  V30 BEGIN ATOM
M  V30 1 O 0.0 0.0 0.0 0
M  V30 2 C -1.3071 -0.7183 0.0 0
M  V30 3 O -1.3306 -2.1785 0.0 0
M  V30 4 C -2.6142 0.0471 0.0 0
M  V30 5 C -3.9213 -0.6712 0.0 0
M  V30 6 C -5.2284 0.0824 0.0 0
M  V30 7 C -6.5355 -0.6358 0.0 0
M  V30 8 C -5.2519 1.5897 0.0 0
M  V30 9 C -7.8426 0.1177 0.0 0
M  V30 10 C -6.559 2.3433 0.0 0
M  V30 11 O -9.2792 -0.3179 0.0 0
M  V30 12 C -7.8661 1.625 0.0 0
M  V30 13 C -10.1742 0.9067 0.0 0
M  V30 14 O -9.3028 2.1078 0.0 0
M  V30 END ATOM
M  V30 BEGIN BOND
M  V30 1 2 1 2
M  V30 2 1 2 3
M  V30 3 1 2 4
M  V30 4 1 4 5
M  V30 5 1 5 6
M  V30 6 2 6 7
M  V30 7 1 6 8
M  V30 8 1 7 9
M  V30 9 2 8 10
M  V30 10 1 9 11
M  V30 11 2 9 12
M  V30 12 1 11 13
M  V30 13 1 12 14
M  V30 14 1 10 12
M  V30 15 1 13 14
M  V30 END BOND
M  V30 END CTAB
M  END
>  <Dotmatics_CR>
R-008717

>  <CR_Set>
Acid

>  <Category>
Carboxylic Acids Non-Aromatic

>  <Reaction type>
Amidation

>  <KI/BB_Nature>
Amine

>  <Comments>


>  <Salt>


>  <CR_Chiral_Form>
Achiral

>  <Prod_total_used>
1

>  <PSR (%)>
100

>  <Article>
3-(3,4-Methylenedioxyphenyl)propionic acid

>  <CAS>
2815-95-4

>  <Density>
1

>  <Prod_reagent_number>


>  <Stereocenters>
0

>  <NB_Name reaction - KI/BB – Capping>
03-Amidation_Amine_Acid

$$$$
R-008694
Actelion Java MolfileCreator 2.0

  0  0  0  0  0  0              0 V3000
M  V30 BEGIN CTAB
M  V30 COUNTS 14 15 0 0 0
M  V30 BEGIN ATOM
M  V30 1 O 0.0 0.0 0.0 0
M  V30 2 C -0.7708 -1.269 0.0 0
M  V30 3 O -0.0474 -2.538 0.0 0
M  V30 4 C -2.2889 -1.2452 0.0 0
M  V30 5 O -3.1902 -2.4312 0.0 0
M  V30 6 C -3.1902 -0.0118 0.0 0
M  V30 7 C -4.6371 -1.945 0.0 0
M  V30 8 C -4.6371 -0.4506 0.0 0
M  V30 9 C -5.8706 -2.7989 0.0 0
M  V30 10 C -7.2582 -2.1584 0.0 0
M  V30 11 C -5.7401 -4.2576 0.0 0
M  V30 12 C -8.4916 -3.0123 0.0 0
M  V30 13 C -6.9735 -5.1115 0.0 0
M  V30 14 C -8.3611 -4.4711 0.0 0
M  V30 END ATOM
M  V30 BEGIN BOND
M  V30 1 2 1 2
M  V30 2 1 2 3
M  V30 3 1 2 4
M  V30 4 1 4 5
M  V30 5 2 4 6
M  V30 6 1 5 7
M  V30 7 1 6 8
M  V30 8 1 7 9
M  V30 9 2 9 10
M  V30 10 1 9 11
M  V30 11 1 10 12
M  V30 12 2 11 13
M  V30 13 2 12 14
M  V30 14 2 7 8
M  V30 15 1 13 14
M  V30 END BOND
M  V30 END CTAB
M  END
>  <Dotmatics_CR>
R-008694

>  <CR_Set>
Acid

>  <Category>
Carboxylic Acids Aromatic

>  <Reaction type>
Amidation

>  <KI/BB_Nature>
Amine

>  <Comments>


>  <Salt>


>  <CR_Chiral_Form>
Achiral

>  <Prod_total_used>
35

>  <PSR (%)>
86

>  <Article>
5-Phenyl-2-furoic acid

>  <CAS>
52938-97-3

>  <Density>
1

>  <Prod_reagent_number>


>  <Stereocenters>
0

>  <NB_Name reaction - KI/BB – Capping>
03-Amidation_Amine_Acid

$$$$
R-009937
Actelion Java MolfileCreator 2.0

  0  0  0  0  0  0              0 V3000
M  V30 BEGIN CTAB
M  V30 COUNTS 14 15 0 0 0
M  V30 BEGIN ATOM
M  V30 1 O 0.0 0.0 0.0 0
M  V30 2 C -0.4945 -1.4129 0.0 0
M  V30 3 O -2.0016 -1.7072 0.0 0
M  V30 4 C 0.4945 -2.5079 0.0 0
M  V30 5 C 0.0 -3.9208 0.0 0
M  V30 6 C 1.9074 -2.9553 0.0 0
M  V30 7 C 1.5895 -1.4717 0.0 0
M  V30 8 C -1.5071 -4.2152 0.0 0
M  V30 9 C 0.989 -5.0158 0.0 0
M  V30 10 C -2.0016 -5.6281 0.0 0
M  V30 11 C 0.4945 -6.4288 0.0 0
M  V30 12 C -1.0125 -6.7231 0.0 0
M  V30 13 O -1.5071 -8.1361 0.0 0
M  V30 14 C -0.4238 -9.1369 0.0 0
M  V30 END ATOM
M  V30 BEGIN BOND
M  V30 1 2 1 2
M  V30 2 1 2 3
M  V30 3 1 2 4
M  V30 4 1 4 5
M  V30 5 1 4 6
M  V30 6 1 4 7
M  V30 7 2 5 8
M  V30 8 1 5 9
M  V30 9 1 8 10
M  V30 10 2 9 11
M  V30 11 2 10 12
M  V30 12 1 12 13
M  V30 13 1 13 14
M  V30 14 1 6 7
M  V30 15 1 11 12
M  V30 END BOND
M  V30 END CTAB
M  END
>  <Dotmatics_CR>
R-009937

>  <CR_Set>
Acid

>  <Category>
Carboxylic Acids Non-Aromatic

>  <Reaction type>
Amidation

>  <KI/BB_Nature>
Amine

>  <Comments>


>  <Salt>


>  <CR_Chiral_Form>
Achiral

>  <Prod_total_used>
30

>  <PSR (%)>
93

>  <Article>
1-(4-Methoxyphenyl)cyclopropanecarboxylic acid

>  <CAS>
16728-01-1

>  <Density>
1

>  <Prod_reagent_number>
C106

>  <Stereocenters>
0

>  <NB_Name reaction - KI/BB – Capping>
03-Amidation_Amine_Acid

$$$$
R-005097
Actelion Java MolfileCreator 2.0

  0  0  0  0  0  0              0 V3000
M  V30 BEGIN CTAB
M  V30 COUNTS 14 15 0 0 0
M  V30 BEGIN ATOM
M  V30 1 O 0.0 0.0 0.0 0
M  V30 2 C 0.0 -1.4601 0.0 0
M  V30 3 O 1.267 -2.1841 0.0 0
M  V30 4 C -1.3153 -2.1961 0.0 0
M  V30 5 N -1.3394 -3.7166 0.0 0
M  V30 6 C -2.6547 -1.448 0.0 0
M  V30 7 N -2.6788 -4.4165 0.0 0
M  V30 8 N -3.97 -2.1599 0.0 0
M  V30 9 C -2.6788 0.0844 0.0 0
M  V30 10 C -3.9941 -3.6442 0.0 0
M  V30 11 N -5.418 -1.7014 0.0 0
M  V30 12 C -5.4422 -4.0665 0.0 0
M  V30 13 C -6.2869 -2.8598 0.0 0
M  V30 14 C -7.8073 -2.8236 0.0 0
M  V30 END ATOM
M  V30 BEGIN BOND
M  V30 1 2 1 2
M  V30 2 1 2 3
M  V30 3 1 2 4
M  V30 4 1 4 5
M  V30 5 2 4 6
M  V30 6 2 5 7
M  V30 7 1 6 8
M  V30 8 1 6 9
M  V30 9 1 7 10
M  V30 10 1 8 11
M  V30 11 2 10 12
M  V30 12 2 11 13
M  V30 13 1 13 14
M  V30 14 1 8 10
M  V30 15 1 12 13
M  V30 END BOND
M  V30 END CTAB
M  END
>  <Dotmatics_CR>
R-005097

>  <CR_Set>
Acid

>  <Category>
Carboxylic Acids Aromatic

>  <Reaction type>
Amidation

>  <KI/BB_Nature>
Amine

>  <Comments>


>  <Salt>


>  <CR_Chiral_Form>
Achiral

>  <Prod_total_used>
1

>  <PSR (%)>
100

>  <Article>
4,7-dimethylpyrazolo[5,1-c][1,2,4]triazine-3-carboxylic acid

>  <CAS>
175137-58-3

>  <Density>
1

>  <Prod_reagent_number>


>  <Stereocenters>
0

>  <NB_Name reaction - KI/BB – Capping>
03-Amidation_Amine_Acid

$$$$
R-008742
Actelion Java MolfileCreator 2.0

  0  0  0  0  0  0              0 V3000
M  V30 BEGIN CTAB
M  V30 COUNTS 14 15 0 0 0
M  V30 BEGIN ATOM
M  V30 1 O 0.0 0.0 0.0 0
M  V30 2 C -0.0235 -1.4701 0.0 0
M  V30 3 O 1.2466 -2.1875 0.0 0
M  V30 4 C -1.3407 -2.1875 0.0 0
M  V30 5 C -2.6579 -1.423 0.0 0
M  V30 6 C -1.3642 -3.6576 0.0 0
M  V30 7 C -3.9752 -2.1405 0.0 0
M  V30 8 C -2.6815 -4.3751 0.0 0
M  V30 9 N -5.2924 -1.376 0.0 0
M  V30 10 C -3.9987 -3.6106 0.0 0
M  V30 11 N -6.6802 -1.964 0.0 0
M  V30 12 C -5.4688 0.1293 0.0 0
M  V30 13 C -7.7034 -0.835 0.0 0
M  V30 14 C -6.9507 0.4586 0.0 0
M  V30 END ATOM
M  V30 BEGIN BOND
M  V30 1 2 1 2
M  V30 2 1 2 3
M  V30 3 1 2 4
M  V30 4 2 4 5
M  V30 5 1 4 6
M  V30 6 1 5 7
M  V30 7 2 6 8
M  V30 8 1 7 9
M  V30 9 2 7 10
M  V30 10 1 9 11
M  V30 11 1 9 12
M  V30 12 2 11 13
M  V30 13 2 12 14
M  V30 14 1 8 10
M  V30 15 1 13 14
M  V30 END BOND
M  V30 END CTAB
M  END
>  <Dotmatics_CR>
R-008742

>  <CR_Set>
Acid

>  <Category>
Carboxylic Acids Aromatic

>  <Reaction type>
Amidation

>  <KI/BB_Nature>
Amine

>  <Comments>


>  <Salt>


>  <CR_Chiral_Form>
Achiral

>  <Prod_total_used>
24

>  <PSR (%)>
92

>  <Article>
3-Pyrazol-1-yl-benzoic acid

>  <CAS>
264264-33-7

>  <Density>
1

>  <Prod_reagent_number>
C107

>  <Stereocenters>
0

>  <NB_Name reaction - KI/BB – Capping>
03-Amidation_Amine_Acid

$$$$
R-009332
Actelion Java MolfileCreator 2.0

  0  0  0  0  0  0              0 V3000
M  V30 BEGIN CTAB
M  V30 COUNTS 14 15 0 0 0
M  V30 BEGIN ATOM
M  V30 1 O 0.0 0.0 0.0 0
M  V30 2 C -1.3088 0.7664 0.0 0
M  V30 3 O -1.3324 2.2757 0.0 0
M  V30 4 C -2.6176 0.0471 0.0 0
M  V30 5 C -3.9265 0.8136 0.0 0
M  V30 6 C -2.6412 -1.4149 0.0 0
M  V30 7 C -5.2353 0.0943 0.0 0
M  V30 8 C -3.9501 -2.1342 0.0 0
M  V30 9 C -6.5442 0.8489 0.0 0
M  V30 10 C -5.2589 -1.3678 0.0 0
M  V30 11 C -7.9238 0.2594 0.0 0
M  V30 12 C -6.7211 2.3464 0.0 0
M  V30 13 N -8.9379 1.3795 0.0 0
M  V30 14 N -8.195 2.6766 0.0 0
M  V30 END ATOM
M  V30 BEGIN BOND
M  V30 1 2 1 2
M  V30 2 1 2 3
M  V30 3 1 2 4
M  V30 4 2 4 5
M  V30 5 1 4 6
M  V30 6 1 5 7
M  V30 7 2 6 8
M  V30 8 1 7 9
M  V30 9 2 7 10
M  V30 10 1 9 11
M  V30 11 2 9 12
M  V30 12 2 11 13
M  V30 13 1 12 14
M  V30 14 1 8 10
M  V30 15 1 13 14
M  V30 END BOND
M  V30 END CTAB
M  END
>  <Dotmatics_CR>
R-009332

>  <CR_Set>
Acid

>  <Category>
Carboxylic Acids Aromatic

>  <Reaction type>
Amidation

>  <KI/BB_Nature>
Amine

>  <Comments>


>  <Salt>


>  <CR_Chiral_Form>
Achiral

>  <Prod_total_used>
1

>  <PSR (%)>
100

>  <Article>
3-(1H-Pyrazol-4-yl)benzoic acid

>  <CAS>
1002535-21-8

>  <Density>
1

>  <Prod_reagent_number>


>  <Stereocenters>
0

>  <NB_Name reaction - KI/BB – Capping>
03-Amidation_Amine_Acid

$$$$
R-008660
Actelion Java MolfileCreator 2.0

  0  0  0  0  0  0              0 V3000
M  V30 BEGIN CTAB
M  V30 COUNTS 14 15 0 0 0
M  V30 BEGIN ATOM
M  V30 1 O 0.0 0.0 0.0 0
M  V30 2 C -1.3327 -0.7194 0.0 0
M  V30 3 O -2.6655 0.0589 0.0 0
M  V30 4 C -1.3563 -2.2055 0.0 0
M  V30 5 C -2.6891 -2.925 0.0 0
M  V30 6 C -0.0707 -2.925 0.0 0
M  V30 7 C -2.7127 -4.4111 0.0 0
M  V30 8 C -0.0943 -4.4111 0.0 0
M  V30 9 C -1.4271 -5.1306 0.0 0
M  V30 10 N -1.4507 -6.6167 0.0 0
M  V30 11 C -2.7009 -7.4895 0.0 0
M  V30 12 C -0.2476 -7.4895 0.0 0
M  V30 13 N -2.2645 -8.9048 0.0 0
M  V30 14 C -0.7312 -8.9048 0.0 0
M  V30 END ATOM
M  V30 BEGIN BOND
M  V30 1 2 1 2
M  V30 2 1 2 3
M  V30 3 1 2 4
M  V30 4 2 4 5
M  V30 5 1 4 6
M  V30 6 1 5 7
M  V30 7 2 6 8
M  V30 8 2 7 9
M  V30 9 1 9 10
M  V30 10 1 10 11
M  V30 11 1 10 12
M  V30 12 2 11 13
M  V30 13 2 12 14
M  V30 14 1 8 9
M  V30 15 1 13 14
M  V30 END BOND
M  V30 END CTAB
M  END
>  <Dotmatics_CR>
R-008660

>  <CR_Set>
Acid

>  <Category>
Carboxylic Acids Aromatic

>  <Reaction type>
Amidation

>  <KI/BB_Nature>
Amine

>  <Comments>


>  <Salt>


>  <CR_Chiral_Form>
Achiral

>  <Prod_total_used>
14

>  <PSR (%)>
79

>  <Article>
4-(1H-imidazol-1-yl)benzoic acid

>  <CAS>
17616-04-5

>  <Density>
1

>  <Prod_reagent_number>
C108

>  <Stereocenters>
0

>  <NB_Name reaction - KI/BB – Capping>
03-Amidation_Amine_Acid

$$$$
R-008703
Actelion Java MolfileCreator 2.0

  0  0  0  0  0  0              0 V3000
M  V30 BEGIN CTAB
M  V30 COUNTS 14 15 0 0 0
M  V30 BEGIN ATOM
M  V30 1 O 0.0 0.0 0.0 0
M  V30 2 C -0.77 -1.2676 0.0 0
M  V30 3 O -0.0473 -2.5352 0.0 0
M  V30 4 C -2.2864 -1.2439 0.0 0
M  V30 5 N -3.1868 -0.0118 0.0 0
M  V30 6 C -3.1868 -2.4286 0.0 0
M  V30 7 C -4.6321 -0.4501 0.0 0
M  V30 8 C -2.7485 1.4334 0.0 0
M  V30 9 C -4.6321 -1.9429 0.0 0
M  V30 10 C -2.7485 -3.8265 0.0 0
M  V30 11 C -5.9472 0.308 0.0 0
M  V30 12 C -5.9472 -2.6655 0.0 0
M  V30 13 C -7.2622 -0.4146 0.0 0
M  V30 14 C -7.2622 -1.8955 0.0 0
M  V30 END ATOM
M  V30 BEGIN BOND
M  V30 1 2 1 2
M  V30 2 1 2 3
M  V30 3 1 2 4
M  V30 4 1 4 5
M  V30 5 2 4 6
M  V30 6 1 5 7
M  V30 7 1 5 8
M  V30 8 1 6 9
M  V30 9 1 6 10
M  V30 10 1 7 11
M  V30 11 1 9 12
M  V30 12 2 11 13
M  V30 13 2 12 14
M  V30 14 2 7 9
M  V30 15 1 13 14
M  V30 END BOND
M  V30 END CTAB
M  END
>  <Dotmatics_CR>
R-008703

>  <CR_Set>
Acid

>  <Category>
Carboxylic Acids Aromatic

>  <Reaction type>
Amidation

>  <KI/BB_Nature>
Amine

>  <Comments>


>  <Salt>


>  <CR_Chiral_Form>
Achiral

>  <Prod_total_used>
1

>  <PSR (%)>
100

>  <Article>
1,3-Dimethyl-1H-indole-2-carboxylic acid

>  <CAS>
204919-54-0

>  <Density>
1

>  <Prod_reagent_number>


>  <Stereocenters>
0

>  <NB_Name reaction - KI/BB – Capping>
03-Amidation_Amine_Acid

$$$$
R-003385
Actelion Java MolfileCreator 2.0

  0  0  0  0  0  0              0 V3000
M  V30 BEGIN CTAB
M  V30 COUNTS 14 15 0 0 0
M  V30 BEGIN ATOM
M  V30 1 O 0.0 0.0 0.0 0
M  V30 2 C 0.5706 -1.3553 0.0 0
M  V30 3 O 2.0329 -1.5098 0.0 0
M  V30 4 C -0.3447 -2.5322 0.0 0
M  V30 5 C -1.8546 -2.3301 0.0 0
M  V30 6 C -2.77 -3.5071 0.0 0
M  V30 7 C -4.2918 -3.4596 0.0 0
M  V30 8 C -2.3539 -4.91 0.0 0
M  V30 9 C -4.803 -4.8505 0.0 0
M  V30 10 C -5.3023 -2.3064 0.0 0
M  V30 11 N -3.6022 -5.7422 0.0 0
M  V30 12 C -6.301 -5.1121 0.0 0
M  V30 13 C -6.8003 -2.5679 0.0 0
M  V30 14 C -7.3115 -3.9589 0.0 0
M  V30 END ATOM
M  V30 BEGIN BOND
M  V30 1 2 1 2
M  V30 2 1 2 3
M  V30 3 1 2 4
M  V30 4 1 4 5
M  V30 5 1 5 6
M  V30 6 1 6 7
M  V30 7 2 6 8
M  V30 8 2 7 9
M  V30 9 1 7 10
M  V30 10 1 8 11
M  V30 11 1 9 12
M  V30 12 2 10 13
M  V30 13 2 12 14
M  V30 14 1 9 11
M  V30 15 1 13 14
M  V30 END BOND
M  V30 END CTAB
M  END
>  <Dotmatics_CR>
R-003385

>  <CR_Set>
Acid

>  <Category>
Carboxylic Acids Non-Aromatic

>  <Reaction type>
Amidation

>  <KI/BB_Nature>
Amine

>  <Comments>


>  <Salt>


>  <CR_Chiral_Form>
Achiral

>  <Prod_total_used>
1

>  <PSR (%)>
100

>  <Article>
3-INDOLEPROPIONIC ACID

>  <CAS>
830-96-6

>  <Density>
1

>  <Prod_reagent_number>


>  <Stereocenters>
0

>  <NB_Name reaction - KI/BB – Capping>
03-Amidation_Amine_Acid

$$$$
R-011116
Actelion Java MolfileCreator 2.0

  0  0  0  0  0  0              0 V3000
M  V30 BEGIN CTAB
M  V30 COUNTS 14 15 0 0 0
M  V30 BEGIN ATOM
M  V30 1 O 0.0 0.0 0.0 0
M  V30 2 C -0.7224 -1.6254 0.0 0
M  V30 3 O 0.3354 -3.0315 0.0 0
M  V30 4 C -2.2317 -1.7802 0.0 0
M  V30 5 C -2.7993 -3.0573 0.0 0
M  V30 6 C -4.2183 -3.4701 0.0 0
M  V30 7 C -1.9221 -4.1538 0.0 0
M  V30 8 C -4.2441 -4.9407 0.0 0
M  V30 9 C -5.547 -2.709 0.0 0
M  V30 10 N -2.8251 -5.3922 0.0 0
M  V30 11 C -5.5728 -5.6631 0.0 0
M  V30 12 C -6.8757 -3.4185 0.0 0
M  V30 13 C -2.4768 -6.45 0.0 0
M  V30 14 C -6.9015 -4.8891 0.0 0
M  V30 END ATOM
M  V30 BEGIN BOND
M  V30 1 2 1 2
M  V30 2 1 2 3
M  V30 3 1 2 4
M  V30 4 1 4 5
M  V30 5 1 5 6
M  V30 6 2 5 7
M  V30 7 2 6 8
M  V30 8 1 6 9
M  V30 9 1 7 10
M  V30 10 1 8 11
M  V30 11 2 9 12
M  V30 12 1 10 13
M  V30 13 2 11 14
M  V30 14 1 8 10
M  V30 15 1 12 14
M  V30 END BOND
M  V30 END CTAB
M  END
>  <Dotmatics_CR>
R-011116

>  <CR_Set>
Acid

>  <Category>
Carboxylic Acids Non-Aromatic

>  <Reaction type>
Amidation

>  <KI/BB_Nature>
Amine

>  <Comments>


>  <Salt>


>  <CR_Chiral_Form>
Achiral

>  <Prod_total_used>
1

>  <PSR (%)>
100

>  <Article>
2-(1-Methyl-1H-indol-3-yl)acetic acid

>  <CAS>
1912-48-7

>  <Density>
1

>  <Prod_reagent_number>
C109

>  <Stereocenters>
0

>  <NB_Name reaction - KI/BB – Capping>
03-Amidation_Amine_Acid

$$$$
R-008846
Actelion Java MolfileCreator 2.0

  0  0  0  0  0  0              0 V3000
M  V30 BEGIN CTAB
M  V30 COUNTS 14 15 0 0 0
M  V30 BEGIN ATOM
M  V30 1 O 0.0 0.0 0.0 0
M  V30 2 C 1.2903 -0.722 0.0 0
M  V30 3 O 2.5806 0.0591 0.0 0
M  V30 4 C 1.2666 -2.2136 0.0 0
M  V30 5 C -0.071 -2.9357 0.0 0
M  V30 6 C 2.5569 -2.9357 0.0 0
M  V30 7 C -0.0947 -4.4272 0.0 0
M  V30 8 C 2.5332 -4.4272 0.0 0
M  V30 9 C 1.1956 -5.1493 0.0 0
M  V30 10 N 1.1719 -6.6409 0.0 0
M  V30 11 C -0.0828 -7.5169 0.0 0
M  V30 12 C 2.3793 -7.5169 0.0 0
M  V30 13 C 0.3551 -8.9374 0.0 0
M  V30 14 C 1.894 -8.9374 0.0 0
M  V30 END ATOM
M  V30 BEGIN BOND
M  V30 1 2 1 2
M  V30 2 1 2 3
M  V30 3 1 2 4
M  V30 4 2 4 5
M  V30 5 1 4 6
M  V30 6 1 5 7
M  V30 7 2 6 8
M  V30 8 2 7 9
M  V30 9 1 9 10
M  V30 10 1 10 11
M  V30 11 1 10 12
M  V30 12 2 11 13
M  V30 13 2 12 14
M  V30 14 1 8 9
M  V30 15 1 13 14
M  V30 END BOND
M  V30 END CTAB
M  END
>  <Dotmatics_CR>
R-008846

>  <CR_Set>
Acid

>  <Category>
Carboxylic Acids Aromatic

>  <Reaction type>
Amidation

>  <KI/BB_Nature>
Amine

>  <Comments>


>  <Salt>


>  <CR_Chiral_Form>
Achiral

>  <Prod_total_used>
2

>  <PSR (%)>
100

>  <Article>
4-(1H-Pyrrol-1-yl)benzoic acid

>  <CAS>
22106-33-8

>  <Density>
1

>  <Prod_reagent_number>
C110

>  <Stereocenters>
0

>  <NB_Name reaction - KI/BB – Capping>
03-Amidation_Amine_Acid

$$$$
R-003934
Actelion Java MolfileCreator 2.0

  0  0  0  0  0  0              0 V3000
M  V30 BEGIN CTAB
M  V30 COUNTS 14 15 0 0 0
M  V30 BEGIN ATOM
M  V30 1 O 0.0 0.0 0.0 0
M  V30 2 C 0.6136 1.3924 0.0 0
M  V30 3 O -0.2832 2.6432 0.0 0
M  V30 4 C 2.1004 1.5458 0.0 0
M  V30 5 N 2.8556 2.8674 0.0 0
M  V30 6 C 3.0681 0.4484 0.0 0
M  V30 7 C 4.3189 2.5606 0.0 0
M  V30 8 C 4.4487 1.062 0.0 0
M  V30 9 C 5.5107 3.4575 0.0 0
M  V30 10 C 5.7821 0.4484 0.0 0
M  V30 11 C 6.856 2.8438 0.0 0
M  V30 12 C 6.9976 1.357 0.0 0
M  V30 13 O 8.3546 0.7434 0.0 0
M  V30 14 C 9.5701 1.6402 0.0 0
M  V30 END ATOM
M  V30 BEGIN BOND
M  V30 1 2 1 2
M  V30 2 1 2 3
M  V30 3 1 2 4
M  V30 4 1 4 5
M  V30 5 2 4 6
M  V30 6 1 5 7
M  V30 7 1 6 8
M  V30 8 1 7 9
M  V30 9 1 8 10
M  V30 10 2 9 11
M  V30 11 2 10 12
M  V30 12 1 12 13
M  V30 13 1 13 14
M  V30 14 2 7 8
M  V30 15 1 11 12
M  V30 END BOND
M  V30 END CTAB
M  END
>  <Dotmatics_CR>
R-003934

>  <CR_Set>
Acid

>  <Category>
Carboxylic Acids Aromatic

>  <Reaction type>
Amidation

>  <KI/BB_Nature>
Amine

>  <Comments>


>  <Salt>


>  <CR_Chiral_Form>
Achiral

>  <Prod_total_used>
1

>  <PSR (%)>
100

>  <Article>
5-METHOXYINDOLE-2-CARBOXYLIC ACID

>  <CAS>
4382-54-1

>  <Density>
1

>  <Prod_reagent_number>


>  <Stereocenters>
0

>  <NB_Name reaction - KI/BB – Capping>
03-Amidation_Amine_Acid

$$$$
R-005581
Actelion Java MolfileCreator 2.0

  0  0  0  0  0  0              0 V3000
M  V30 BEGIN CTAB
M  V30 COUNTS 14 15 0 0 0
M  V30 BEGIN ATOM
M  V30 1 O 0.0 0.0 0.0 0
M  V30 2 C -0.0235 1.51 0.0 0
M  V30 3 N 1.2387 2.2769 0.0 0
M  V30 4 C -1.3331 2.2769 0.0 0
M  V30 5 C 1.2151 3.787 0.0 0
M  V30 6 C -1.3567 3.787 0.0 0
M  V30 7 C -2.6426 1.5572 0.0 0
M  V30 8 C 2.4774 4.5538 0.0 0
M  V30 9 C -0.0943 4.5538 0.0 0
M  V30 10 C -2.6662 4.5538 0.0 0
M  V30 11 C -3.9521 2.3123 0.0 0
M  V30 12 O 2.4538 6.0639 0.0 0
M  V30 13 O 3.7398 3.8342 0.0 0
M  V30 14 C -3.9757 3.8342 0.0 0
M  V30 END ATOM
M  V30 BEGIN BOND
M  V30 1 2 1 2
M  V30 2 1 2 3
M  V30 3 1 2 4
M  V30 4 1 3 5
M  V30 5 2 4 6
M  V30 6 1 4 7
M  V30 7 1 5 8
M  V30 8 2 5 9
M  V30 9 1 6 10
M  V30 10 2 7 11
M  V30 11 2 8 12
M  V30 12 1 8 13
M  V30 13 2 10 14
M  V30 14 1 6 9
M  V30 15 1 11 14
M  V30 END BOND
M  V30 END CTAB
M  END
>  <Dotmatics_CR>
R-005581

>  <CR_Set>
Acid

>  <Category>
Carboxylic Acids Aromatic

>  <Reaction type>
Amidation

>  <KI/BB_Nature>
Amine

>  <Comments>


>  <Salt>


>  <CR_Chiral_Form>
Achiral

>  <Prod_total_used>
1

>  <PSR (%)>
100

>  <Article>
3-Isoquinolinecarboxylic acid, 1,2-dihydro-1-oxo-

>  <CAS>
7509-13-9

>  <Density>
1

>  <Prod_reagent_number>


>  <Stereocenters>
0

>  <NB_Name reaction - KI/BB – Capping>
03-Amidation_Amine_Acid

$$$$
R-008690
Actelion Java MolfileCreator 2.0

  0  0  0  0  0  0              0 V3000
M  V30 BEGIN CTAB
M  V30 COUNTS 14 15 0 0 0
M  V30 BEGIN ATOM
M  V30 1 O 0.0 0.0 0.0 0
M  V30 2 C 0.72 -1.2866 0.0 0
M  V30 3 O -0.059 -2.5733 0.0 0
M  V30 4 C 2.2074 -1.263 0.0 0
M  V30 5 O 3.0809 -2.4671 0.0 0
M  V30 6 C 3.0809 -0.0118 0.0 0
M  V30 7 C 4.4974 -1.9831 0.0 0
M  V30 8 C 4.4974 -0.4485 0.0 0
M  V30 9 C 5.7841 -2.7032 0.0 0
M  V30 10 C 5.7841 0.3305 0.0 0
M  V30 11 C 7.0708 -1.9241 0.0 0
M  V30 12 C 7.0708 -0.3895 0.0 0
M  V30 13 C 8.3575 0.3895 0.0 0
M  V30 14 N 9.6442 1.1804 0.0 0
M  V30 END ATOM
M  V30 BEGIN BOND
M  V30 1 2 1 2
M  V30 2 1 2 3
M  V30 3 1 2 4
M  V30 4 1 4 5
M  V30 5 2 4 6
M  V30 6 1 5 7
M  V30 7 1 6 8
M  V30 8 1 7 9
M  V30 9 1 8 10
M  V30 10 2 9 11
M  V30 11 2 10 12
M  V30 12 1 12 13
M  V30 13 3 13 14
M  V30 14 2 7 8
M  V30 15 1 11 12
M  V30 END BOND
M  V30 END CTAB
M  END
>  <Dotmatics_CR>
R-008690

>  <CR_Set>
Acid

>  <Category>
Carboxylic Acids Aromatic

>  <Reaction type>
Amidation

>  <KI/BB_Nature>
Amine

>  <Comments>


>  <Salt>


>  <CR_Chiral_Form>
Achiral

>  <Prod_total_used>
1

>  <PSR (%)>
100

>  <Article>
5-Cyanobenzofuran-2-carboxylic acid

>  <CAS>
84102-75-0

>  <Density>
1

>  <Prod_reagent_number>


>  <Stereocenters>
0

>  <NB_Name reaction - KI/BB – Capping>
03-Amidation_Amine_Acid

$$$$
R-005196
Actelion Java MolfileCreator 2.0

  0  0  0  0  0  0              0 V3000
M  V30 BEGIN CTAB
M  V30 COUNTS 14 15 0 0 0
M  V30 BEGIN ATOM
M  V30 1 O 0.0 0.0 0.0 0
M  V30 2 C 1.2893 0.7712 0.0 0
M  V30 3 O 1.2652 2.3136 0.0 0
M  V30 4 C 2.5666 0.0361 0.0 0
M  V30 5 C 3.8439 0.8073 0.0 0
M  V30 6 C 2.5425 -1.458 0.0 0
M  V30 7 N 5.1333 0.0843 0.0 0
M  V30 8 C 3.8198 2.3497 0.0 0
M  V30 9 N 3.8319 -2.1931 0.0 0
M  V30 10 N 6.5552 0.5904 0.0 0
M  V30 11 C 5.1212 -1.4098 0.0 0
M  V30 12 C 7.4228 -0.6025 0.0 0
M  V30 13 C 6.5432 -1.8436 0.0 0
M  V30 14 C 8.917 -0.5663 0.0 0
M  V30 END ATOM
M  V30 BEGIN BOND
M  V30 1 2 1 2
M  V30 2 1 2 3
M  V30 3 1 2 4
M  V30 4 2 4 5
M  V30 5 1 4 6
M  V30 6 1 5 7
M  V30 7 1 5 8
M  V30 8 2 6 9
M  V30 9 1 7 10
M  V30 10 1 7 11
M  V30 11 2 10 12
M  V30 12 2 11 13
M  V30 13 1 12 14
M  V30 14 1 9 11
M  V30 15 1 12 13
M  V30 END BOND
M  V30 END CTAB
M  END
>  <Dotmatics_CR>
R-005196

>  <CR_Set>
Acid

>  <Category>
Carboxylic Acids Aromatic

>  <Reaction type>
Amidation

>  <KI/BB_Nature>
Amine

>  <Comments>


>  <Salt>


>  <CR_Chiral_Form>
Achiral

>  <Prod_total_used>
1

>  <PSR (%)>
100

>  <Article>
4,7-DIMETHYLPYRAZOLO(1,5-a)PYRIMIDINE-3-CARBOXYLIC ACID

>  <CAS>
175201-51-1

>  <Density>
1

>  <Prod_reagent_number>


>  <Stereocenters>
0

>  <NB_Name reaction - KI/BB – Capping>
03-Amidation_Amine_Acid

$$$$
R-005169
Actelion Java MolfileCreator 2.0

  0  0  0  0  0  0              0 V3000
M  V30 BEGIN CTAB
M  V30 COUNTS 14 15 0 0 0
M  V30 BEGIN ATOM
M  V30 1 O 0.0 0.0 0.0 0
M  V30 2 C 1.2936 0.7858 0.0 0
M  V30 3 O 1.2695 2.3334 0.0 0
M  V30 4 C 2.5752 0.0483 0.0 0
M  V30 5 C 3.8689 0.8342 0.0 0
M  V30 6 C 2.5511 -1.4508 0.0 0
M  V30 7 N 5.1747 0.1088 0.0 0
M  V30 8 C 3.8448 -2.1763 0.0 0
M  V30 9 C 5.1626 -1.4025 0.0 0
M  V30 10 N 6.4442 -2.14 0.0 0
M  V30 11 C 7.7984 -1.4992 0.0 0
M  V30 12 C 6.5772 -3.615 0.0 0
M  V30 13 N 8.7898 -2.5994 0.0 0
M  V30 14 C 8.0281 -3.9052 0.0 0
M  V30 END ATOM
M  V30 BEGIN BOND
M  V30 1 2 1 2
M  V30 2 1 2 3
M  V30 3 1 2 4
M  V30 4 2 4 5
M  V30 5 1 4 6
M  V30 6 1 5 7
M  V30 7 2 6 8
M  V30 8 2 7 9
M  V30 9 1 9 10
M  V30 10 1 10 11
M  V30 11 1 10 12
M  V30 12 2 11 13
M  V30 13 2 12 14
M  V30 14 1 8 9
M  V30 15 1 13 14
M  V30 END BOND
M  V30 END CTAB
M  END
>  <Dotmatics_CR>
R-005169

>  <CR_Set>
Acid

>  <Category>
Carboxylic Acids Aromatic

>  <Reaction type>
Amidation

>  <KI/BB_Nature>
Amine

>  <Comments>


>  <Salt>


>  <CR_Chiral_Form>
Achiral

>  <Prod_total_used>
1

>  <PSR (%)>
100

>  <Article>
6-(1-IMIDAZOLYL)NICOTINIC ACID

>  <CAS>
216955-75-8

>  <Density>
1

>  <Prod_reagent_number>


>  <Stereocenters>
0

>  <NB_Name reaction - KI/BB – Capping>
03-Amidation_Amine_Acid

$$$$
R-005121
Actelion Java MolfileCreator 2.0

  0  0  0  0  0  0              0 V3000
M  V30 BEGIN CTAB
M  V30 COUNTS 14 15 0 0 0
M  V30 BEGIN ATOM
M  V30 1 O 0.0 0.0 0.0 0
M  V30 2 C -0.0234 -1.4766 0.0 0
M  V30 3 O 1.2657 -2.1798 0.0 0
M  V30 4 C -1.3594 -2.1798 0.0 0
M  V30 5 C -1.3829 -3.6565 0.0 0
M  V30 6 C -2.6955 -1.4298 0.0 0
M  V30 7 N -2.7189 -4.3949 0.0 0
M  V30 8 C -4.0316 -2.133 0.0 0
M  V30 9 C -4.055 -3.6096 0.0 0
M  V30 10 N -5.3793 -4.3011 0.0 0
M  V30 11 N -5.5903 -5.7661 0.0 0
M  V30 12 C -6.7388 -3.6682 0.0 0
M  V30 13 C -7.0787 -6.0122 0.0 0
M  V30 14 C -7.8053 -4.6644 0.0 0
M  V30 END ATOM
M  V30 BEGIN BOND
M  V30 1 2 1 2
M  V30 2 1 2 3
M  V30 3 1 2 4
M  V30 4 2 4 5
M  V30 5 1 4 6
M  V30 6 1 5 7
M  V30 7 2 6 8
M  V30 8 2 7 9
M  V30 9 1 9 10
M  V30 10 1 10 11
M  V30 11 1 10 12
M  V30 12 2 11 13
M  V30 13 2 12 14
M  V30 14 1 8 9
M  V30 15 1 13 14
M  V30 END BOND
M  V30 END CTAB
M  END
>  <Dotmatics_CR>
R-005121

>  <CR_Set>
Acid

>  <Category>
Carboxylic Acids Aromatic

>  <Reaction type>
Amidation

>  <KI/BB_Nature>
Amine

>  <Comments>


>  <Salt>


>  <CR_Chiral_Form>
Achiral

>  <Prod_total_used>
1

>  <PSR (%)>
100

>  <Article>
6-(1-PYRAZOLE)NICOTINIC ACID

>  <CAS>
253315-22-9

>  <Density>
1

>  <Prod_reagent_number>
C111

>  <Stereocenters>
0

>  <NB_Name reaction - KI/BB – Capping>
03-Amidation_Amine_Acid

$$$$
R-004512
Actelion Java MolfileCreator 2.0

  0  0  0  0  0  0              0 V3000
M  V30 BEGIN CTAB
M  V30 COUNTS 14 16 0 0 0
M  V30 BEGIN ATOM
M  V30 1 O 0.0 0.0 0.0 0
M  V30 2 C -0.0236 -1.4889 0.0 0
M  V30 3 O 1.2644 -2.2215 0.0 0
M  V30 4 C -1.3589 -2.2097 0.0 0
M  V30 5 C -1.3825 -3.6986 0.0 0
M  V30 6 C 0.0472 -4.065 0.0 0
M  V30 7 C -2.1743 -4.9631 0.0 0
M  V30 8 C -2.8715 -4.065 0.0 0
M  V30 9 C 0.0236 -5.5539 0.0 0
M  V30 10 C -2.1979 -6.452 0.0 0
M  V30 11 C -2.8951 -5.5539 0.0 0
M  V30 12 C -0.7562 -6.8419 0.0 0
M  V30 13 C -1.4534 -5.9439 0.0 0
M  V30 14 C -3.675 -6.8419 0.0 0
M  V30 END ATOM
M  V30 BEGIN BOND
M  V30 1 2 1 2
M  V30 2 1 2 3
M  V30 3 1 2 4
M  V30 4 1 4 5
M  V30 5 1 5 6
M  V30 6 1 5 7
M  V30 7 1 5 8
M  V30 8 1 6 9
M  V30 9 1 7 10
M  V30 10 1 8 11
M  V30 11 1 9 12
M  V30 12 1 9 13
M  V30 13 1 10 14
M  V30 14 1 10 12
M  V30 15 1 11 13
M  V30 16 1 11 14
M  V30 END BOND
M  V30 END CTAB
M  END
>  <Dotmatics_CR>
R-004512

>  <CR_Set>
Acid

>  <Category>
Carboxylic Acids Non-Aromatic

>  <Reaction type>
Amidation

>  <KI/BB_Nature>
Amine

>  <Comments>


>  <Salt>


>  <CR_Chiral_Form>
Achiral

>  <Prod_total_used>
17

>  <PSR (%)>
76

>  <Article>
ADAMANTAN-1-YL- ACETIC ACID

>  <CAS>
4942-47-6

>  <Density>
1

>  <Prod_reagent_number>
C112

>  <Stereocenters>
0

>  <NB_Name reaction - KI/BB – Capping>
03-Amidation_Amine_Acid

$$$$
R-008808
Actelion Java MolfileCreator 2.0

  0  0  0  0  0  0              0 V3000
M  V30 BEGIN CTAB
M  V30 COUNTS 15 15 0 0 0
M  V30 BEGIN ATOM
M  V30 1 O 0.0 0.0 0.0 0
M  V30 2 C -0.0236 -1.4897 0.0 0
M  V30 3 O -1.3596 -2.2109 0.0 0
M  V30 4 C 1.265 -2.2109 0.0 0
M  V30 5 C 2.5538 -1.4306 0.0 0
M  V30 6 C 3.8425 -2.1518 0.0 0
M  V30 7 C 3.8189 -3.6415 0.0 0
M  V30 8 C 5.1312 -1.3714 0.0 0
M  V30 9 O 2.4828 -4.3627 0.0 0
M  V30 10 C 5.1076 -4.3627 0.0 0
M  V30 11 C 6.42 -2.0927 0.0 0
M  V30 12 C 1.1468 -3.5824 0.0 0
M  V30 13 O 5.0839 -5.8524 0.0 0
M  V30 14 C 6.3963 -3.5824 0.0 0
M  V30 15 C 3.7479 -6.5973 0.0 0
M  V30 END ATOM
M  V30 BEGIN BOND
M  V30 1 2 1 2
M  V30 2 1 2 3
M  V30 3 1 2 4
M  V30 4 1 4 5
M  V30 5 1 5 6
M  V30 6 2 6 7
M  V30 7 1 6 8
M  V30 8 1 7 9
M  V30 9 1 7 10
M  V30 10 2 8 11
M  V30 11 1 9 12
M  V30 12 1 10 13
M  V30 13 2 10 14
M  V30 14 1 13 15
M  V30 15 1 11 14
M  V30 END BOND
M  V30 END CTAB
M  END
>  <Dotmatics_CR>
R-008808

>  <CR_Set>
Acid

>  <Category>
Carboxylic Acids Non-Aromatic

>  <Reaction type>
Amidation

>  <KI/BB_Nature>
Amine

>  <Comments>


>  <Salt>


>  <CR_Chiral_Form>
Achiral

>  <Prod_total_used>
9

>  <PSR (%)>
89

>  <Article>
3-(2,3-Dimethoxyphenyl)propionic acid

>  <CAS>
10538-48-4

>  <Density>
1

>  <Prod_reagent_number>


>  <Stereocenters>
0

>  <NB_Name reaction - KI/BB – Capping>
03-Amidation_Amine_Acid

$$$$
R-008733
Actelion Java MolfileCreator 2.0

  0  0  0  0  0  0              0 V3000
M  V30 BEGIN CTAB
M  V30 COUNTS 15 15 0 0 0
M  V30 BEGIN ATOM
M  V30 1 O 0.0 0.0 0.0 0
M  V30 2 C -0.0236 -1.4921 0.0 0
M  V30 3 O -1.3618 -2.2145 0.0 0
M  V30 4 C 1.2671 -2.2145 0.0 0
M  V30 5 C 2.5579 -1.4329 0.0 0
M  V30 6 C 3.8487 -2.1552 0.0 0
M  V30 7 C 3.825 -3.6474 0.0 0
M  V30 8 C 5.1395 -1.3737 0.0 0
M  V30 9 O 2.4868 -4.3697 0.0 0
M  V30 10 C 5.1158 -4.3697 0.0 0
M  V30 11 C 6.4303 -2.096 0.0 0
M  V30 12 C 1.1486 -3.5882 0.0 0
M  V30 13 C 6.4066 -3.5882 0.0 0
M  V30 14 O 7.7211 -1.3144 0.0 0
M  V30 15 C 9.0119 -2.0368 0.0 0
M  V30 END ATOM
M  V30 BEGIN BOND
M  V30 1 2 1 2
M  V30 2 1 2 3
M  V30 3 1 2 4
M  V30 4 1 4 5
M  V30 5 1 5 6
M  V30 6 2 6 7
M  V30 7 1 6 8
M  V30 8 1 7 9
M  V30 9 1 7 10
M  V30 10 2 8 11
M  V30 11 1 9 12
M  V30 12 2 10 13
M  V30 13 1 11 14
M  V30 14 1 14 15
M  V30 15 1 11 13
M  V30 END BOND
M  V30 END CTAB
M  END
>  <Dotmatics_CR>
R-008733

>  <CR_Set>
Acid

>  <Category>
Carboxylic Acids Non-Aromatic

>  <Reaction type>
Amidation

>  <KI/BB_Nature>
Amine

>  <Comments>


>  <Salt>


>  <CR_Chiral_Form>
Achiral

>  <Prod_total_used>
8

>  <PSR (%)>
100

>  <Article>
3-(2,5-Dimethoxyphenyl)propionic acid

>  <CAS>
10538-49-5

>  <Density>
1

>  <Prod_reagent_number>
C114

>  <Stereocenters>
0

>  <NB_Name reaction - KI/BB – Capping>
03-Amidation_Amine_Acid

$$$$
R-008839
Actelion Java MolfileCreator 2.0

  0  0  0  0  0  0              0 V3000
M  V30 BEGIN CTAB
M  V30 COUNTS 15 15 0 0 0
M  V30 BEGIN ATOM
M  V30 1 O 0.0 0.0 0.0 0
M  V30 2 C -1.3311 -0.7185 0.0 0
M  V30 3 O -2.6622 0.0588 0.0 0
M  V30 4 C -1.3546 -2.2028 0.0 0
M  V30 5 C -2.6857 -2.9331 0.0 0
M  V30 6 C -0.0706 -2.9331 0.0 0
M  V30 7 C -2.7093 -4.4174 0.0 0
M  V30 8 C -0.0942 -4.4174 0.0 0
M  V30 9 O -4.0404 -5.1359 0.0 0
M  V30 10 C -1.4253 -5.1359 0.0 0
M  V30 11 C -5.3715 -4.3585 0.0 0
M  V30 12 O -1.4489 -6.6202 0.0 0
M  V30 13 C -6.7026 -5.077 0.0 0
M  V30 14 C -0.1649 -7.3505 0.0 0
M  V30 15 C -0.1884 -8.8348 0.0 0
M  V30 END ATOM
M  V30 BEGIN BOND
M  V30 1 2 1 2
M  V30 2 1 2 3
M  V30 3 1 2 4
M  V30 4 2 4 5
M  V30 5 1 4 6
M  V30 6 1 5 7
M  V30 7 2 6 8
M  V30 8 1 7 9
M  V30 9 2 7 10
M  V30 10 1 9 11
M  V30 11 1 10 12
M  V30 12 1 11 13
M  V30 13 1 12 14
M  V30 14 1 14 15
M  V30 15 1 8 10
M  V30 END BOND
M  V30 END CTAB
M  END
>  <Dotmatics_CR>
R-008839

>  <CR_Set>
Acid

>  <Category>
Carboxylic Acids Aromatic

>  <Reaction type>
Amidation

>  <KI/BB_Nature>
Amine

>  <Comments>


>  <Salt>


>  <CR_Chiral_Form>
Achiral

>  <Prod_total_used>
10

>  <PSR (%)>
90

>  <Article>
3,4-Diethoxybenzoic acid

>  <CAS>
5409-31-4

>  <Density>
1

>  <Prod_reagent_number>


>  <Stereocenters>
0

>  <NB_Name reaction - KI/BB – Capping>
03-Amidation_Amine_Acid

$$$$
R-004537
Actelion Java MolfileCreator 2.0

  0  0  0  0  0  0              0 V3000
M  V30 BEGIN CTAB
M  V30 COUNTS 15 15 0 0 0
M  V30 BEGIN ATOM
M  V30 1 O 0.0 0.0 0.0 0
M  V30 2 C -0.0237 -1.4962 0.0 0
M  V30 3 O 1.128 -2.2918 0.0 0
M  V30 4 C -1.3299 -2.2205 0.0 0
M  V30 5 C -2.6361 -1.4605 0.0 0
M  V30 6 C -3.9542 -2.1849 0.0 0
M  V30 7 C -5.2723 -1.413 0.0 0
M  V30 8 C -3.9779 -3.6692 0.0 0
M  V30 9 C -6.5904 -2.1374 0.0 0
M  V30 10 C -5.296 -4.3936 0.0 0
M  V30 11 O -7.9084 -1.3537 0.0 0
M  V30 12 C -6.6141 -3.6217 0.0 0
M  V30 13 C -7.9322 0.1543 0.0 0
M  V30 14 O -7.9322 -4.3461 0.0 0
M  V30 15 C -9.2384 -3.5742 0.0 0
M  V30 END ATOM
M  V30 BEGIN BOND
M  V30 1 2 1 2
M  V30 2 1 2 3
M  V30 3 1 2 4
M  V30 4 1 4 5
M  V30 5 1 5 6
M  V30 6 2 6 7
M  V30 7 1 6 8
M  V30 8 1 7 9
M  V30 9 2 8 10
M  V30 10 1 9 11
M  V30 11 2 9 12
M  V30 12 1 11 13
M  V30 13 1 12 14
M  V30 14 1 14 15
M  V30 15 1 10 12
M  V30 END BOND
M  V30 END CTAB
M  END
>  <Dotmatics_CR>
R-004537

>  <CR_Set>
Acid

>  <Category>
Carboxylic Acids Non-Aromatic

>  <Reaction type>
Amidation

>  <KI/BB_Nature>
Amine

>  <Comments>


>  <Salt>


>  <CR_Chiral_Form>
Achiral

>  <Prod_total_used>
11

>  <PSR (%)>
100

>  <Article>
3-(3,4-DIMETHOXYPHENYL)PROPIONIC ACID

>  <CAS>
2107-70-2

>  <Density>
1

>  <Prod_reagent_number>


>  <Stereocenters>
0

>  <NB_Name reaction - KI/BB – Capping>
03-Amidation_Amine_Acid

$$$$
R-004486
Actelion Java MolfileCreator 2.0

  0  0  0  0  0  0              0 V3000
M  V30 BEGIN CTAB
M  V30 COUNTS 15 15 0 0 0
M  V30 BEGIN ATOM
M  V30 1 O 0.0 0.0 0.0 0
M  V30 2 C -0.0236 -1.4755 0.0 0
M  V30 3 O -1.3457 -2.2074 0.0 0
M  V30 4 N 1.2512 -2.2074 0.0 0
M  V30 5 C -2.6678 -1.4283 0.0 0
M  V30 6 C 1.2276 -3.683 0.0 0
M  V30 7 C -3.9899 -2.1602 0.0 0
M  V30 8 C 2.5025 -4.4031 0.0 0
M  V30 9 C -5.3238 -1.3693 0.0 0
M  V30 10 C -4.0135 -3.6476 0.0 0
M  V30 11 O 2.4789 -5.8787 0.0 0
M  V30 12 O 3.7774 -3.624 0.0 0
M  V30 13 C -6.646 -2.113 0.0 0
M  V30 14 C -5.3475 -4.3677 0.0 0
M  V30 15 C -6.6696 -3.6004 0.0 0
M  V30 END ATOM
M  V30 BEGIN BOND
M  V30 1 2 1 2
M  V30 2 1 2 3
M  V30 3 1 2 4
M  V30 4 1 3 5
M  V30 5 1 4 6
M  V30 6 1 5 7
M  V30 7 1 6 8
M  V30 8 2 7 9
M  V30 9 1 7 10
M  V30 10 2 8 11
M  V30 11 1 8 12
M  V30 12 1 9 13
M  V30 13 2 10 14
M  V30 14 2 13 15
M  V30 15 1 14 15
M  V30 END BOND
M  V30 END CTAB
M  END
>  <Dotmatics_CR>
R-004486

>  <CR_Set>
Acid

>  <Category>
Carboxylic Acids Non-Aromatic

>  <Reaction type>
Amidation

>  <KI/BB_Nature>
Amine

>  <Comments>


>  <Salt>


>  <CR_Chiral_Form>
Achiral

>  <Prod_total_used>
2

>  <PSR (%)>
100

>  <Article>
CARBOBENZYLOXYGLYCINE

>  <CAS>
1138-80-3

>  <Density>


>  <Prod_reagent_number>
C115

>  <Stereocenters>
0

>  <NB_Name reaction - KI/BB – Capping>
03-Amidation_Amine_Acid

$$$$
R-008734
Actelion Java MolfileCreator 2.0

  0  0  0  0  0  0              0 V3000
M  V30 BEGIN CTAB
M  V30 COUNTS 15 16 0 0 0
M  V30 BEGIN ATOM
M  V30 1 O 0.0 0.0 0.0 0
M  V30 2 C 1.4399 0.3277 0.0 0
M  V30 3 O 1.8731 1.7794 0.0 0
M  V30 4 C 2.4233 -0.7609 0.0 0
M  V30 5 C 1.9433 -2.1657 0.0 0
M  V30 6 C 0.4916 -2.5989 0.0 0
M  V30 7 C 2.8096 -3.3598 0.0 0
M  V30 8 C 0.4682 -4.074 0.0 0
M  V30 9 C -0.8311 -1.8262 0.0 0
M  V30 10 O 1.8965 -4.5539 0.0 0
M  V30 11 C -0.8546 -4.7881 0.0 0
M  V30 12 C -2.154 -2.5404 0.0 0
M  V30 13 C -2.1774 -4.0154 0.0 0
M  V30 14 O -3.5003 -4.7295 0.0 0
M  V30 15 C -4.8232 -3.9569 0.0 0
M  V30 END ATOM
M  V30 BEGIN BOND
M  V30 1 2 1 2
M  V30 2 1 2 3
M  V30 3 1 2 4
M  V30 4 1 4 5
M  V30 5 1 5 6
M  V30 6 2 5 7
M  V30 7 2 6 8
M  V30 8 1 6 9
M  V30 9 1 7 10
M  V30 10 1 8 11
M  V30 11 2 9 12
M  V30 12 2 11 13
M  V30 13 1 13 14
M  V30 14 1 14 15
M  V30 15 1 8 10
M  V30 16 1 12 13
M  V30 END BOND
M  V30 END CTAB
M  END
>  <Dotmatics_CR>
R-008734

>  <CR_Set>
Acid

>  <Category>
Carboxylic Acids Non-Aromatic

>  <Reaction type>
Amidation

>  <KI/BB_Nature>
Amine

>  <Comments>


>  <Salt>


>  <CR_Chiral_Form>
Achiral

>  <Prod_total_used>
3

>  <PSR (%)>
100

>  <Article>
2-(6-Methoxybenzofuran-3-yl)acetic acid

>  <CAS>
69716-05-8

>  <Density>
1

>  <Prod_reagent_number>
C119

>  <Stereocenters>
0

>  <NB_Name reaction - KI/BB – Capping>
03-Amidation_Amine_Acid

$$$$
R-002547
Actelion Java MolfileCreator 2.0

  0  0  0  0  0  0              0 V3000
M  V30 BEGIN CTAB
M  V30 COUNTS 15 16 0 0 0
M  V30 BEGIN ATOM
M  V30 1 Cl 0.0 0.0 0.0 0
M  V30 2 C -0.0226 1.4479 0.0 0
M  V30 3 C -1.2782 2.1832 0.0 0
M  V30 4 C 1.1877 2.1832 0.0 0
M  V30 5 C -1.3009 3.6312 0.0 0
M  V30 6 C 1.1651 3.6312 0.0 0
M  V30 7 C -0.0904 4.3665 0.0 0
M  V30 8 C -0.1131 5.8144 0.0 0
M  V30 9 C -1.5384 5.5882 0.0 0
M  V30 10 C -0.6221 7.1719 0.0 0
M  V30 11 C 1.2669 5.5882 0.0 0
M  V30 12 O -2.0475 4.276 0.0 0
M  V30 13 O -2.4773 6.6968 0.0 0
M  V30 14 C 0.2714 8.2805 0.0 0
M  V30 15 C 2.1606 6.6968 0.0 0
M  V30 END ATOM
M  V30 BEGIN BOND
M  V30 1 1 1 2
M  V30 2 2 2 3
M  V30 3 1 2 4
M  V30 4 1 3 5
M  V30 5 2 4 6
M  V30 6 2 5 7
M  V30 7 1 7 8
M  V30 8 1 8 9
M  V30 9 1 8 10
M  V30 10 1 8 11
M  V30 11 2 9 12
M  V30 12 1 9 13
M  V30 13 1 10 14
M  V30 14 1 11 15
M  V30 15 1 6 7
M  V30 16 1 14 15
M  V30 END BOND
M  V30 END CTAB
M  END
>  <Dotmatics_CR>
R-002547

>  <CR_Set>
Acid

>  <Category>
Carboxylic Acids Non-Aromatic

>  <Reaction type>
Amidation

>  <KI/BB_Nature>
Amine

>  <Comments>


>  <Salt>


>  <CR_Chiral_Form>
Achiral

>  <Prod_total_used>
2

>  <PSR (%)>
100

>  <Article>
1-(-4-CHLOROPHENYL)-1-CYCLOPENTANE CARBOXYLIC ACID

>  <CAS>
80789-69-1

>  <Density>
1

>  <Prod_reagent_number>
C120

>  <Stereocenters>
0

>  <NB_Name reaction - KI/BB – Capping>
03-Amidation_Amine_Acid

$$$$
R-000917
Actelion Java MolfileCreator 2.0

  0  0  0  0  0  0              0 V3000
M  V30 BEGIN CTAB
M  V30 COUNTS 15 16 0 0 0
M  V30 BEGIN ATOM
M  V30 1 O 0.0 0.0 0.0 0
M  V30 2 C 1.4436 0.3286 0.0 0
M  V30 3 O 1.8778 1.7839 0.0 0
M  V30 4 C 2.4294 -0.7628 0.0 0
M  V30 5 C 1.9482 -2.1712 0.0 0
M  V30 6 C 2.9341 -3.2627 0.0 0
M  V30 7 C 2.4529 -4.6712 0.0 0
M  V30 8 C 0.9976 -5.1054 0.0 0
M  V30 9 C 3.3214 -5.8683 0.0 0
M  V30 10 C 0.9741 -6.5842 0.0 0
M  V30 11 C -0.3286 -4.3308 0.0 0
M  V30 12 N 2.406 -7.0654 0.0 0
M  V30 13 C -0.3521 -7.3236 0.0 0
M  V30 14 C -1.6548 -5.0585 0.0 0
M  V30 15 C -1.6783 -6.5373 0.0 0
M  V30 END ATOM
M  V30 BEGIN BOND
M  V30 1 2 1 2
M  V30 2 1 2 3
M  V30 3 1 2 4
M  V30 4 1 4 5
M  V30 5 1 5 6
M  V30 6 1 6 7
M  V30 7 1 7 8
M  V30 8 2 7 9
M  V30 9 2 8 10
M  V30 10 1 8 11
M  V30 11 1 9 12
M  V30 12 1 10 13
M  V30 13 2 11 14
M  V30 14 2 13 15
M  V30 15 1 10 12
M  V30 16 1 14 15
M  V30 END BOND
M  V30 END CTAB
M  END
>  <Dotmatics_CR>
R-000917

>  <CR_Set>
Acid

>  <Category>
Carboxylic Acids Non-Aromatic

>  <Reaction type>
Amidation

>  <KI/BB_Nature>
Amine

>  <Comments>


>  <Salt>


>  <CR_Chiral_Form>
Achiral

>  <Prod_total_used>
2

>  <PSR (%)>
100

>  <Article>
Indole-3-butyric acid

>  <CAS>
133-32-4

>  <Density>
1

>  <Prod_reagent_number>


>  <Stereocenters>
0

>  <NB_Name reaction - KI/BB – Capping>
03-Amidation_Amine_Acid

$$$$
R-005354
Actelion Java MolfileCreator 2.0

  0  0  0  0  0  0              0 V3000
M  V30 BEGIN CTAB
M  V30 COUNTS 15 16 0 0 0
M  V30 BEGIN ATOM
M  V30 1 O 0.0 0.0 0.0 0
M  V30 2 C -0.0236 1.5153 0.0 0
M  V30 3 N 1.243 2.2848 0.0 0
M  V30 4 C -1.3377 2.2848 0.0 0
M  V30 5 C 1.2193 3.8001 0.0 0
M  V30 6 C 2.5097 1.5626 0.0 0
M  V30 7 C -1.3614 3.8001 0.0 0
M  V30 8 C -2.6518 1.5626 0.0 0
M  V30 9 C 2.486 4.5577 0.0 0
M  V30 10 C -0.0947 4.5577 0.0 0
M  V30 11 C -2.6754 4.5577 0.0 0
M  V30 12 C -3.9658 2.3203 0.0 0
M  V30 13 O 2.4623 6.0731 0.0 0
M  V30 14 O 3.7527 3.8356 0.0 0
M  V30 15 C -3.9895 3.8356 0.0 0
M  V30 END ATOM
M  V30 BEGIN BOND
M  V30 1 2 1 2
M  V30 2 1 2 3
M  V30 3 1 2 4
M  V30 4 1 3 5
M  V30 5 1 3 6
M  V30 6 2 4 7
M  V30 7 1 4 8
M  V30 8 1 5 9
M  V30 9 2 5 10
M  V30 10 1 7 11
M  V30 11 2 8 12
M  V30 12 2 9 13
M  V30 13 1 9 14
M  V30 14 2 11 15
M  V30 15 1 7 10
M  V30 16 1 12 15
M  V30 END BOND
M  V30 END CTAB
M  END
>  <Dotmatics_CR>
R-005354

>  <CR_Set>
Acid

>  <Category>
Carboxylic Acids Aromatic

>  <Reaction type>
Amidation

>  <KI/BB_Nature>
Amine

>  <Comments>


>  <Salt>


>  <CR_Chiral_Form>
Achiral

>  <Prod_total_used>
6

>  <PSR (%)>
100

>  <Article>
2-METHYL-1-OXO-1,2-DIHYDROISOQUINOLINE-3-CARBOXYLIC ACID

>  <CAS>
89806-32-6

>  <Density>
1.378

>  <Prod_reagent_number>


>  <Stereocenters>
0

>  <NB_Name reaction - KI/BB – Capping>
03-Amidation_Amine_Acid

$$$$
R-005398
Actelion Java MolfileCreator 2.0

  0  0  0  0  0  0              0 V3000
M  V30 BEGIN CTAB
M  V30 COUNTS 15 16 0 0 0
M  V30 BEGIN ATOM
M  V30 1 O 0.0 0.0 0.0 0
M  V30 2 C -1.3595 0.7093 0.0 0
M  V30 3 O -2.6364 -0.0827 0.0 0
M  V30 4 C -1.466 2.2226 0.0 0
M  V30 5 C -0.3192 3.1921 0.0 0
M  V30 6 C -2.7428 3.062 0.0 0
M  V30 7 N -0.8866 4.6108 0.0 0
M  V30 8 C 1.0995 2.8256 0.0 0
M  V30 9 O -2.3763 4.5398 0.0 0
M  V30 10 C -4.1733 2.53 0.0 0
M  V30 11 C 1.4541 1.4068 0.0 0
M  V30 12 C 2.128 3.9014 0.0 0
M  V30 13 C 2.8965 1.0285 0.0 0
M  V30 14 C 3.5586 3.5231 0.0 0
M  V30 15 C 3.9369 2.1162 0.0 0
M  V30 END ATOM
M  V30 BEGIN BOND
M  V30 1 2 1 2
M  V30 2 1 2 3
M  V30 3 1 2 4
M  V30 4 1 4 5
M  V30 5 2 4 6
M  V30 6 2 5 7
M  V30 7 1 5 8
M  V30 8 1 6 9
M  V30 9 1 6 10
M  V30 10 2 8 11
M  V30 11 1 8 12
M  V30 12 1 11 13
M  V30 13 2 12 14
M  V30 14 2 13 15
M  V30 15 1 7 9
M  V30 16 1 14 15
M  V30 END BOND
M  V30 END CTAB
M  END
>  <Dotmatics_CR>
R-005398

>  <CR_Set>
Acid

>  <Category>
Carboxylic Acids Aromatic

>  <Reaction type>
Amidation

>  <KI/BB_Nature>
Amine

>  <Comments>


>  <Salt>


>  <CR_Chiral_Form>
Achiral

>  <Prod_total_used>
16

>  <PSR (%)>
88

>  <Article>
5-METHYL-3-PHENYLISOXAZOLE-4-CARBOXYLIC ACID

>  <CAS>
1136-45-4

>  <Density>
1

>  <Prod_reagent_number>


>  <Stereocenters>
0

>  <NB_Name reaction - KI/BB – Capping>
03-Amidation_Amine_Acid

$$$$
R-005010
Actelion Java MolfileCreator 2.0

  0  0  0  0  0  0              0 V3000
M  V30 BEGIN CTAB
M  V30 COUNTS 15 16 0 0 0
M  V30 BEGIN ATOM
M  V30 1 O 0.0 0.0 0.0 0
M  V30 2 C 0.8797 1.2551 0.0 0
M  V30 3 O 0.2346 2.6393 0.0 0
M  V30 4 C 2.3578 1.1261 0.0 0
M  V30 5 C 3.2141 2.3578 0.0 0
M  V30 6 C 4.6922 2.393 0.0 0
M  V30 7 C 2.7332 3.8241 0.0 0
M  V30 8 C 5.1028 3.8476 0.0 0
M  V30 9 C 5.6776 1.302 0.0 0
M  V30 10 N 3.9297 4.7391 0.0 0
M  V30 11 C 6.5691 4.1878 0.0 0
M  V30 12 C 7.1439 1.6422 0.0 0
M  V30 13 C 7.5662 3.0734 0.0 0
M  V30 14 O 8.1292 0.5513 0.0 0
M  V30 15 C 9.5956 0.8915 0.0 0
M  V30 END ATOM
M  V30 BEGIN BOND
M  V30 1 2 1 2
M  V30 2 1 2 3
M  V30 3 1 2 4
M  V30 4 1 4 5
M  V30 5 1 5 6
M  V30 6 2 5 7
M  V30 7 2 6 8
M  V30 8 1 6 9
M  V30 9 1 7 10
M  V30 10 1 8 11
M  V30 11 2 9 12
M  V30 12 2 11 13
M  V30 13 1 12 14
M  V30 14 1 14 15
M  V30 15 1 8 10
M  V30 16 1 12 13
M  V30 END BOND
M  V30 END CTAB
M  END
>  <Dotmatics_CR>
R-005010

>  <CR_Set>
Acid

>  <Category>
Carboxylic Acids Non-Aromatic

>  <Reaction type>
Amidation

>  <KI/BB_Nature>
Amine

>  <Comments>


>  <Salt>


>  <CR_Chiral_Form>
Achiral

>  <Prod_total_used>
2

>  <PSR (%)>
100

>  <Article>
5-METHOXYINDOLE-3-ACETIC ACID

>  <CAS>
3471-31-6

>  <Density>


>  <Prod_reagent_number>
C123

>  <Stereocenters>
0

>  <NB_Name reaction - KI/BB – Capping>
03-Amidation_Amine_Acid

$$$$
R-010665
Actelion Java MolfileCreator 2.0

  0  0  0  0  0  0              0 V3000
M  V30 BEGIN CTAB
M  V30 COUNTS 16 17 0 0 0
M  V30 BEGIN ATOM
M  V30 1 O 0.0 0.0 0.0 0
M  V30 2 C -1.3085 0.7662 0.0 0
M  V30 3 O -2.6171 0.0471 0.0 0
M  V30 4 C -1.3321 2.2752 0.0 0
M  V30 5 C -0.0707 3.0415 0.0 0
M  V30 6 C -2.6407 3.0415 0.0 0
M  V30 7 C -0.0943 4.5505 0.0 0
M  V30 8 C -2.6643 4.5505 0.0 0
M  V30 9 O 1.2614 5.1164 0.0 0
M  V30 10 C -1.4028 5.3168 0.0 0
M  V30 11 O -3.9728 5.3168 0.0 0
M  V30 12 C 1.674 6.5546 0.0 0
M  V30 13 O -1.6504 6.814 0.0 0
M  V30 14 C -5.2814 4.5976 0.0 0
M  V30 15 C 0.8134 7.8042 0.0 0
M  V30 16 C -0.6719 7.9221 0.0 0
M  V30 END ATOM
M  V30 BEGIN BOND
M  V30 1 2 1 2
M  V30 2 1 2 3
M  V30 3 1 2 4
M  V30 4 2 4 5
M  V30 5 1 4 6
M  V30 6 1 5 7
M  V30 7 2 6 8
M  V30 8 1 7 9
M  V30 9 2 7 10
M  V30 10 1 8 11
M  V30 11 1 9 12
M  V30 12 1 10 13
M  V30 13 1 11 14
M  V30 14 1 12 15
M  V30 15 1 13 16
M  V30 16 1 8 10
M  V30 17 1 15 16
M  V30 END BOND
M  V30 END CTAB
M  END
>  <Dotmatics_CR>
R-010665

>  <CR_Set>
Acid

>  <Category>
Carboxylic Acids Aromatic

>  <Reaction type>
Amidation

>  <KI/BB_Nature>
Amine

>  <Comments>


>  <Salt>


>  <CR_Chiral_Form>
Achiral

>  <Prod_total_used>
6

>  <PSR (%)>
100

>  <Article>
9-Methoxy-3,4-dihydro-2H-1,5-benzodioxepine-7-carboxylic acid

>  <CAS>
1010933-59-1

>  <Density>
1.298

>  <Prod_reagent_number>


>  <Stereocenters>
0

>  <NB_Name reaction - KI/BB – Capping>
03-Amidation_Amine_Acid

$$$$
R-007781
Actelion Java MolfileCreator 2.0

  0  0  0  0  0  0              0 V3000
M  V30 BEGIN CTAB
M  V30 COUNTS 16 17 0 0 0
M  V30 BEGIN ATOM
M  V30 1 O 0.0 0.0 0.0 0
M  V30 2 C 1.2923 0.7851 0.0 0
M  V30 3 O 1.2682 2.3311 0.0 0
M  V30 4 C 2.5847 0.0483 0.0 0
M  V30 5 C 3.8771 0.8213 0.0 0
M  V30 6 C 2.5606 -1.4494 0.0 0
M  V30 7 C 5.1695 0.0845 0.0 0
M  V30 8 C 3.853 -2.1862 0.0 0
M  V30 9 O 6.4619 0.8575 0.0 0
M  V30 10 C 5.1454 -1.4131 0.0 0
M  V30 11 C 7.7543 0.1207 0.0 0
M  V30 12 C 7.7302 -1.3769 0.0 0
M  V30 13 C 9.0467 0.8938 0.0 0
M  V30 14 C 9.0226 -2.1137 0.0 0
M  V30 15 C 10.3391 0.157 0.0 0
M  V30 16 C 10.315 -1.3286 0.0 0
M  V30 END ATOM
M  V30 BEGIN BOND
M  V30 1 2 1 2
M  V30 2 1 2 3
M  V30 3 1 2 4
M  V30 4 2 4 5
M  V30 5 1 4 6
M  V30 6 1 5 7
M  V30 7 2 6 8
M  V30 8 1 7 9
M  V30 9 2 7 10
M  V30 10 1 9 11
M  V30 11 2 11 12
M  V30 12 1 11 13
M  V30 13 1 12 14
M  V30 14 2 13 15
M  V30 15 2 14 16
M  V30 16 1 8 10
M  V30 17 1 15 16
M  V30 END BOND
M  V30 END CTAB
M  END
>  <Dotmatics_CR>
R-007781

>  <CR_Set>
Acid

>  <Category>
Carboxylic Acids Aromatic

>  <Reaction type>
Amidation

>  <KI/BB_Nature>
Amine

>  <Comments>


>  <Salt>


>  <CR_Chiral_Form>
Achiral

>  <Prod_total_used>
2

>  <PSR (%)>
100

>  <Article>
3-phenoxybenzoic acid

>  <CAS>
3739-38-6

>  <Density>


>  <Prod_reagent_number>
C125

>  <Stereocenters>
0

>  <NB_Name reaction - KI/BB – Capping>
03-Amidation_Amine_Acid

$$$$
R-006540
Actelion Java MolfileCreator 2.0

  0  0  0  0  0  0              0 V3000
M  V30 BEGIN CTAB
M  V30 COUNTS 16 17 0 0 0
M  V30 BEGIN ATOM
M  V30 1 O 0.0 0.0 0.0 0
M  V30 2 C -0.0236 -1.464 0.0 0
M  V30 3 O 1.2397 -2.1961 0.0 0
M  V30 4 C -1.3341 -2.1961 0.0 0
M  V30 5 C -2.6447 -1.4286 0.0 0
M  V30 6 C -3.9553 -2.1606 0.0 0
M  V30 7 O -5.1832 -1.2633 0.0 0
M  V30 8 N -4.4394 -3.5539 0.0 0
M  V30 9 C -6.4112 -2.1134 0.0 0
M  V30 10 C -5.9507 -3.5302 0.0 0
M  V30 11 C -7.7217 -1.3459 0.0 0
M  V30 12 C -7.7453 0.1652 0.0 0
M  V30 13 C -9.0323 -2.0662 0.0 0
M  V30 14 C -9.0559 0.9327 0.0 0
M  V30 15 C -10.3429 -1.2987 0.0 0
M  V30 16 C -10.3665 0.2007 0.0 0
M  V30 END ATOM
M  V30 BEGIN BOND
M  V30 1 2 1 2
M  V30 2 1 2 3
M  V30 3 1 2 4
M  V30 4 1 4 5
M  V30 5 1 5 6
M  V30 6 1 6 7
M  V30 7 2 6 8
M  V30 8 1 7 9
M  V30 9 1 8 10
M  V30 10 1 9 11
M  V30 11 2 11 12
M  V30 12 1 11 13
M  V30 13 1 12 14
M  V30 14 2 13 15
M  V30 15 2 14 16
M  V30 16 2 9 10
M  V30 17 1 15 16
M  V30 END BOND
M  V30 END CTAB
M  END
>  <Dotmatics_CR>
R-006540

>  <CR_Set>
Acid

>  <Category>
Carboxylic Acids Non-Aromatic

>  <Reaction type>
Amidation

>  <KI/BB_Nature>
Amine

>  <Comments>


>  <Salt>


>  <CR_Chiral_Form>
Achiral

>  <Prod_total_used>
2

>  <PSR (%)>
100

>  <Article>
5-PHENYLOXAZOLE-2-PROPIONIC ACID

>  <CAS>
23485-68-9

>  <Density>


>  <Prod_reagent_number>
C126

>  <Stereocenters>
0

>  <NB_Name reaction - KI/BB – Capping>
03-Amidation_Amine_Acid

$$$$
R-008745
Actelion Java MolfileCreator 2.0

  0  0  0  0  0  0              0 V3000
M  V30 BEGIN CTAB
M  V30 COUNTS 17 18 0 0 0
M  V30 BEGIN ATOM
M  V30 1 O 0.0 0.0 0.0 0
M  V30 2 C -1.3128 0.7569 0.0 0
M  V30 3 N -1.3364 2.2708 0.0 0
M  V30 4 C -2.6256 0.0354 0.0 0
M  V30 5 C -2.6492 3.0277 0.0 0
M  V30 6 C -0.0709 3.0277 0.0 0
M  V30 7 C -3.9384 0.7924 0.0 0
M  V30 8 C -2.6492 -1.431 0.0 0
M  V30 9 C -2.6729 4.5416 0.0 0
M  V30 10 C -0.0946 4.5416 0.0 0
M  V30 11 C -5.2512 0.0709 0.0 0
M  V30 12 C -3.9621 -2.1525 0.0 0
M  V30 13 C -1.4074 5.2985 0.0 0
M  V30 14 C -5.2749 -1.3956 0.0 0
M  V30 15 C -1.431 6.8124 0.0 0
M  V30 16 O -0.1655 7.5693 0.0 0
M  V30 17 O -2.7439 7.5693 0.0 0
M  V30 END ATOM
M  V30 BEGIN BOND
M  V30 1 2 1 2
M  V30 2 1 2 3
M  V30 3 1 2 4
M  V30 4 1 3 5
M  V30 5 1 3 6
M  V30 6 2 4 7
M  V30 7 1 4 8
M  V30 8 1 5 9
M  V30 9 1 6 10
M  V30 10 1 7 11
M  V30 11 2 8 12
M  V30 12 1 9 13
M  V30 13 2 11 14
M  V30 14 1 13 15
M  V30 15 2 15 16
M  V30 16 1 15 17
M  V30 17 1 10 13
M  V30 18 1 12 14
M  V30 END BOND
M  V30 END CTAB
M  END
>  <Dotmatics_CR>
R-008745

>  <CR_Set>
Acid

>  <Category>
Carboxylic Acids Non-Aromatic

>  <Reaction type>
Amidation

>  <KI/BB_Nature>
Amine

>  <Comments>


>  <Salt>


>  <CR_Chiral_Form>
Achiral

>  <Prod_total_used>
13

>  <PSR (%)>
100

>  <Article>
1-Benzoylpiperidine-4-carboxylic acid

>  <CAS>
5274-99-7

>  <Density>
1

>  <Prod_reagent_number>
C129

>  <Stereocenters>
0

>  <NB_Name reaction - KI/BB – Capping>
03-Amidation_Amine_Acid

$$$$
R-000671
Actelion Java MolfileCreator 2.0

  0  0  0  0  0  0              0 V3000
M  V30 BEGIN CTAB
M  V30 COUNTS 15 15 0 0 0
M  V30 BEGIN ATOM
M  V30 1 O 0.0 0.0 0.0 0
M  V30 2 C -0.0235 -1.485 0.0 0
M  V30 3 O 1.261 -2.2275 0.0 0
M  V30 4 C -1.3553 -2.2275 0.0 0 CFG=1
M  V30 5 N -2.6871 -1.4378 0.0 0
M  V30 6 C -1.3789 -3.7125 0.0 0
M  V30 7 C -4.0189 -2.1803 0.0 0
M  V30 8 C -0.0942 -4.4314 0.0 0
M  V30 9 O -4.0425 -3.6653 0.0 0
M  V30 10 C -5.3507 -1.3907 0.0 0
M  V30 11 C 1.1903 -3.6536 0.0 0
M  V30 12 C -0.1178 -5.9164 0.0 0
M  V30 13 C 2.475 -4.3725 0.0 0
M  V30 14 C 1.1667 -6.6589 0.0 0
M  V30 15 C 2.4514 -5.8575 0.0 0
M  V30 END ATOM
M  V30 BEGIN BOND
M  V30 1 2 1 2
M  V30 2 1 2 3
M  V30 3 1 2 4
M  V30 4 1 4 5 CFG=3
M  V30 5 1 4 6
M  V30 6 1 5 7
M  V30 7 1 6 8
M  V30 8 2 7 9
M  V30 9 1 7 10
M  V30 10 2 8 11
M  V30 11 1 8 12
M  V30 12 1 11 13
M  V30 13 2 12 14
M  V30 14 2 13 15
M  V30 15 1 14 15
M  V30 END BOND
M  V30 BEGIN COLLECTION
M  V30 MDLV30/STEABS ATOMS=(1 4)
M  V30 END COLLECTION
M  V30 END CTAB
M  END
>  <Dotmatics_CR>
R-000671

>  <CR_Set>
Acid

>  <Category>
Carboxylic Acids Non-Aromatic

>  <Reaction type>
Amidation

>  <KI/BB_Nature>
Amine

>  <Comments>


>  <Salt>


>  <CR_Chiral_Form>
Absolute

>  <Prod_total_used>
2

>  <PSR (%)>
100

>  <Article>
N-ACETYL-L-PHENYLALANINE

>  <CAS>
2018-61-3

>  <Density>


>  <Prod_reagent_number>
C118

>  <Stereocenters>
1

>  <NB_Name reaction - KI/BB – Capping>
03-Amidation_Amine_Acid

$$$$
R-010326
Actelion Java MolfileCreator 2.0

  0  0  0  0  0  0              0 V3000
M  V30 BEGIN CTAB
M  V30 COUNTS 18 19 0 0 0
M  V30 BEGIN ATOM
M  V30 1 O 0.0 0.0 0.0 0
M  V30 2 C 1.2784 -0.7288 0.0 0
M  V30 3 O 2.5568 0.0477 0.0 0
M  V30 4 N 1.2545 -2.2103 0.0 0
M  V30 5 C 2.5329 1.5771 0.0 0
M  V30 6 C 0.0119 -3.0706 0.0 0 CFG=1
M  V30 7 C 2.4493 -3.0706 0.0 0
M  V30 8 C 3.8114 2.3537 0.0 0
M  V30 9 C -1.4457 -2.5807 0.0 0
M  V30 10 C 0.454 -4.4805 0.0 0
M  V30 11 C 1.9594 -4.4805 0.0 0
M  V30 12 C 5.0898 1.6249 0.0 0
M  V30 13 C 3.7875 3.8831 0.0 0
M  V30 14 O -1.7802 -1.0872 0.0 0
M  V30 15 O -2.5329 -3.6202 0.0 0
M  V30 16 C 6.3683 2.3896 0.0 0
M  V30 17 C 5.0659 4.6597 0.0 0
M  V30 18 C 6.3444 3.9189 0.0 0
M  V30 END ATOM
M  V30 BEGIN BOND
M  V30 1 2 1 2
M  V30 2 1 2 3
M  V30 3 1 2 4
M  V30 4 1 3 5
M  V30 5 1 4 6
M  V30 6 1 4 7
M  V30 7 1 5 8
M  V30 8 1 6 9 CFG=3
M  V30 9 1 6 10
M  V30 10 1 7 11
M  V30 11 2 8 12
M  V30 12 1 8 13
M  V30 13 2 9 14
M  V30 14 1 9 15
M  V30 15 1 12 16
M  V30 16 2 13 17
M  V30 17 2 16 18
M  V30 18 1 10 11
M  V30 19 1 17 18
M  V30 END BOND
M  V30 BEGIN COLLECTION
M  V30 MDLV30/STEABS ATOMS=(1 6)
M  V30 END COLLECTION
M  V30 END CTAB
M  END
>  <Dotmatics_CR>
R-010326

>  <CR_Set>
Acid

>  <Category>
Carboxylic Acids Non-Aromatic

>  <Reaction type>
Amidation

>  <KI/BB_Nature>
Amine

>  <Comments>


>  <Salt>


>  <CR_Chiral_Form>
Absolute

>  <Prod_total_used>
2

>  <PSR (%)>
100

>  <Article>
Z-Pro-OH

>  <CAS>
1148-11-4

>  <Density>


>  <Prod_reagent_number>


>  <Stereocenters>
1

>  <NB_Name reaction - KI/BB – Capping>
03-Amidation_Amine_Acid

$$$$
