R-008837
Actelion Java MolfileCreator 2.0

  0  0  0  0  0  0              0 V3000
M  V30 BEGIN CTAB
M  V30 COUNTS 9 9 0 0 0
M  V30 BEGIN ATOM
M  V30 1 Cl 0.0 0.0 0.0 0
M  V30 2 C -1.314 0.7576 0.0 0
M  V30 3 O -1.3376 2.2728 0.0 0
M  V30 4 C -2.628 0.0355 0.0 0
M  V30 5 C -3.942 0.7931 0.0 0
M  V30 6 C -2.6516 -1.4323 0.0 0
M  V30 7 C -5.256 0.071 0.0 0
M  V30 8 C -3.9656 -2.1544 0.0 0
M  V30 9 O -5.2797 -1.3968 0.0 0
M  V30 END ATOM
M  V30 BEGIN BOND
M  V30 1 1 1 2
M  V30 2 2 2 3
M  V30 3 1 2 4
M  V30 4 1 4 5
M  V30 5 1 4 6
M  V30 6 1 5 7
M  V30 7 1 6 8
M  V30 8 1 7 9
M  V30 9 1 8 9
M  V30 END BOND
M  V30 END CTAB
M  END
>  <Dotmatics_CR>
R-008837

>  <CR_Set>
Acyl_chloride

>  <Category>
Carbonyl Chlorides Non-Aromatic

>  <Reaction type>
Amidation

>  <KI/BB_Nature>
Amine

>  <Comments>


>  <Salt>


>  <CR_Chiral_Form>


>  <Prod_total_used>
5

>  <PSR (%)>
100

>  <Article>
Tetrahydro-2H-pyran-4-carbonyl chloride

>  <CAS>
40191-32-0

>  <Density>
1.201

>  <Prod_reagent_number>
E050

>  <Stereocenters>
0

>  <NB_Name reaction - KI/BB – Capping>
05-Amidation_Amine_Acyl_chloride

$$$$
R-008511
Actelion Java MolfileCreator 2.0

  0  0  0  0  0  0              0 V3000
M  V30 BEGIN CTAB
M  V30 COUNTS 10 10 0 0 0
M  V30 BEGIN ATOM
M  V30 1 Cl 0.0 0.0 0.0 0
M  V30 2 C -1.415 0.566 0.0 0
M  V30 3 N -2.6885 -0.2122 0.0 0
M  V30 4 C -1.8277 2.0282 0.0 0
M  V30 5 N -3.8677 0.7428 0.0 0
M  V30 6 C -2.7947 -1.6744 0.0 0
M  V30 7 C -0.9197 3.2074 0.0 0
M  V30 8 C -3.3371 2.1343 0.0 0
M  V30 9 Cl 0.5306 2.9951 0.0 0
M  V30 10 O -1.4857 4.6224 0.0 0
M  V30 END ATOM
M  V30 BEGIN BOND
M  V30 1 1 1 2
M  V30 2 1 2 3
M  V30 3 2 2 4
M  V30 4 1 3 5
M  V30 5 1 3 6
M  V30 6 1 4 7
M  V30 7 1 4 8
M  V30 8 1 7 9
M  V30 9 2 7 10
M  V30 10 2 5 8
M  V30 END BOND
M  V30 END CTAB
M  END
>  <Dotmatics_CR>
R-008511

>  <CR_Set>
Acyl_chloride

>  <Category>
Carbonyl Chlorides Aromatic

>  <Reaction type>
Amidation

>  <KI/BB_Nature>
Amine

>  <Comments>


>  <Salt>


>  <CR_Chiral_Form>


>  <Prod_total_used>
31

>  <PSR (%)>
100

>  <Article>
5-Chloro-1-methylpyrazole-4-carbonyl chloride

>  <CAS>
110763-09-2

>  <Density>
1

>  <Prod_reagent_number>
E047

>  <Stereocenters>
0

>  <NB_Name reaction - KI/BB – Capping>
05-Amidation_Amine_Acyl_chloride

$$$$
R-000324
Actelion Java MolfileCreator 2.0

  0  0  0  0  0  0              0 V3000
M  V30 BEGIN CTAB
M  V30 COUNTS 10 10 0 0 0
M  V30 BEGIN ATOM
M  V30 1 Cl 0.0 0.0 0.0 0
M  V30 2 C 1.351 -0.5978 0.0 0
M  V30 3 O 1.4825 -2.0683 0.0 0
M  V30 4 C 2.5466 0.3108 0.0 0
M  V30 5 C 2.5227 1.8412 0.0 0
M  V30 6 C 3.9574 -0.1315 0.0 0
M  V30 7 O 3.9335 2.3314 0.0 0
M  V30 8 C 1.2792 2.7498 0.0 0
M  V30 9 C 4.8182 1.1119 0.0 0
M  V30 10 C 6.3008 1.1358 0.0 0
M  V30 END ATOM
M  V30 BEGIN BOND
M  V30 1 1 1 2
M  V30 2 2 2 3
M  V30 3 1 2 4
M  V30 4 2 4 5
M  V30 5 1 4 6
M  V30 6 1 5 7
M  V30 7 1 5 8
M  V30 8 2 6 9
M  V30 9 1 9 10
M  V30 10 1 7 9
M  V30 END BOND
M  V30 END CTAB
M  END
>  <Dotmatics_CR>
R-000324

>  <CR_Set>
Acyl_chloride

>  <Category>
Carbonyl Chlorides Aromatic

>  <Reaction type>
Amidation

>  <KI/BB_Nature>
Amine

>  <Comments>


>  <Salt>


>  <CR_Chiral_Form>


>  <Prod_total_used>
1

>  <PSR (%)>
100

>  <Article>
2,5-DIMETHYLFURAN-3-CARBONYL CHLORIDE

>  <CAS>
50990-93-7

>  <Density>
1.19

>  <Prod_reagent_number>
E046

>  <Stereocenters>
0

>  <NB_Name reaction - KI/BB – Capping>
05-Amidation_Amine_Acyl_chloride

$$$$
R-000535
Actelion Java MolfileCreator 2.0

  0  0  0  0  0  0              0 V3000
M  V30 BEGIN CTAB
M  V30 COUNTS 9 9 0 0 0
M  V30 BEGIN ATOM
M  V30 1 Cl 0.0 0.0 0.0 0
M  V30 2 C -1.4058 0.5623 0.0 0
M  V30 3 O -1.6636 2.0502 0.0 0
M  V30 4 C -2.5774 -0.3397 0.0 0
M  V30 5 C -3.9833 0.2225 0.0 0
M  V30 6 S -5.2486 -0.5506 0.0 0
M  V30 7 C -4.3933 1.6753 0.0 0
M  V30 8 C -6.4202 0.3983 0.0 0
M  V30 9 C -5.8929 1.7807 0.0 0
M  V30 END ATOM
M  V30 BEGIN BOND
M  V30 1 1 1 2
M  V30 2 2 2 3
M  V30 3 1 2 4
M  V30 4 1 4 5
M  V30 5 1 5 6
M  V30 6 2 5 7
M  V30 7 1 6 8
M  V30 8 1 7 9
M  V30 9 2 8 9
M  V30 END BOND
M  V30 END CTAB
M  END
>  <Dotmatics_CR>
R-000535

>  <CR_Set>
Acyl_chloride

>  <Category>
Carbonyl Chlorides Non-Aromatic

>  <Reaction type>
Amidation

>  <KI/BB_Nature>
Amine

>  <Comments>


>  <Salt>


>  <CR_Chiral_Form>


>  <Prod_total_used>
1

>  <PSR (%)>
100

>  <Article>
2-THIOPHENEACETYL CHLORIDE

>  <CAS>
39098-97-0

>  <Density>
1.303

>  <Prod_reagent_number>
E044

>  <Stereocenters>
0

>  <NB_Name reaction - KI/BB – Capping>
05-Amidation_Amine_Acyl_chloride

$$$$
R-000126
Actelion Java MolfileCreator 2.0

  0  0  0  0  0  0              0 V3000
M  V30 BEGIN CTAB
M  V30 COUNTS 8 8 0 0 0
M  V30 BEGIN ATOM
M  V30 1 Cl 0.0 0.0 0.0 0
M  V30 2 C -0.8118 -1.2844 0.0 0
M  V30 3 O -2.3628 -1.2359 0.0 0
M  V30 4 C -0.0969 -2.6052 0.0 0
M  V30 5 S 1.3571 -2.7385 0.0 0
M  V30 6 C -0.7633 -3.9502 0.0 0
M  V30 7 C 1.6237 -4.2168 0.0 0
M  V30 8 C 0.315 -4.9438 0.0 0
M  V30 END ATOM
M  V30 BEGIN BOND
M  V30 1 1 1 2
M  V30 2 2 2 3
M  V30 3 1 2 4
M  V30 4 1 4 5
M  V30 5 2 4 6
M  V30 6 1 5 7
M  V30 7 1 6 8
M  V30 8 2 7 8
M  V30 END BOND
M  V30 END CTAB
M  END
>  <Dotmatics_CR>
R-000126

>  <CR_Set>
Acyl_chloride

>  <Category>
Carbonyl Chlorides Aromatic

>  <Reaction type>
Amidation

>  <KI/BB_Nature>
Amine

>  <Comments>


>  <Salt>


>  <CR_Chiral_Form>


>  <Prod_total_used>
1

>  <PSR (%)>
100

>  <Article>
2-THIOPHENECARBONYL CHLORIDE

>  <CAS>
5271-67-0

>  <Density>
1.371

>  <Prod_reagent_number>
E041

>  <Stereocenters>
0

>  <NB_Name reaction - KI/BB – Capping>
05-Amidation_Amine_Acyl_chloride

$$$$
R-000233
Actelion Java MolfileCreator 2.0

  0  0  0  0  0  0              0 V3000
M  V30 BEGIN CTAB
M  V30 COUNTS 7 7 0 0 0
M  V30 BEGIN ATOM
M  V30 1 Cl 0.0 0.0 0.0 0
M  V30 2 C -1.4667 0.414 0.0 0
M  V30 3 O -1.8808 1.8808 0.0 0
M  V30 4 C -2.5432 -0.6151 0.0 0
M  V30 5 C -4.0573 -0.5914 0.0 0
M  V30 6 C -2.5668 -2.0819 0.0 0
M  V30 7 C -4.081 -2.0582 0.0 0
M  V30 END ATOM
M  V30 BEGIN BOND
M  V30 1 1 1 2
M  V30 2 2 2 3
M  V30 3 1 2 4
M  V30 4 1 4 5
M  V30 5 1 4 6
M  V30 6 1 5 7
M  V30 7 1 6 7
M  V30 END BOND
M  V30 END CTAB
M  END
>  <Dotmatics_CR>
R-000233

>  <CR_Set>
Acyl_chloride

>  <Category>
Carbonyl Chlorides Non-Aromatic

>  <Reaction type>
Amidation

>  <KI/BB_Nature>
Amine

>  <Comments>


>  <Salt>


>  <CR_Chiral_Form>


>  <Prod_total_used>
20

>  <PSR (%)>
90

>  <Article>
CYCLOBUTYLCARBONYL CHLORIDE

>  <CAS>
5006-22-4

>  <Density>
1.039

>  <Prod_reagent_number>
E039

>  <Stereocenters>
0

>  <NB_Name reaction - KI/BB – Capping>
05-Amidation_Amine_Acyl_chloride

$$$$
R-003427
Actelion Java MolfileCreator 2.0

  0  0  0  0  0  0              0 V3000
M  V30 BEGIN CTAB
M  V30 COUNTS 9 9 0 0 0
M  V30 BEGIN ATOM
M  V30 1 Cl 0.0 0.0 0.0 0
M  V30 2 C -1.3038 0.7635 0.0 0
M  V30 3 O -1.3273 2.2671 0.0 0
M  V30 4 C -2.6195 0.0469 0.0 0
M  V30 5 C -3.9351 0.8222 0.0 0
M  V30 6 C -2.643 -1.4213 0.0 0
M  V30 7 C -5.2507 0.0939 0.0 0
M  V30 8 C -3.9586 -2.1379 0.0 0
M  V30 9 C -5.2742 -1.3743 0.0 0
M  V30 END ATOM
M  V30 BEGIN BOND
M  V30 1 1 1 2
M  V30 2 2 2 3
M  V30 3 1 2 4
M  V30 4 2 4 5
M  V30 5 1 4 6
M  V30 6 1 5 7
M  V30 7 2 6 8
M  V30 8 2 7 9
M  V30 9 1 8 9
M  V30 END BOND
M  V30 END CTAB
M  END
>  <Dotmatics_CR>
R-003427

>  <CR_Set>
Acyl_chloride

>  <Category>
Carbonyl Chlorides Aromatic

>  <Reaction type>
Amidation

>  <KI/BB_Nature>
Amine

>  <Comments>


>  <Salt>


>  <CR_Chiral_Form>


>  <Prod_total_used>
1

>  <PSR (%)>
100

>  <Article>
CHLORURE DE BENZOYLE

>  <CAS>
98-88-4

>  <Density>
1.211

>  <Prod_reagent_number>
E038

>  <Stereocenters>
0

>  <NB_Name reaction - KI/BB – Capping>
05-Amidation_Amine_Acyl_chloride

$$$$
R-006353
Actelion Java MolfileCreator 2.0

  0  0  0  0  0  0              0 V3000
M  V30 BEGIN CTAB
M  V30 COUNTS 9 9 0 0 0
M  V30 BEGIN ATOM
M  V30 1 Cl 0.0 0.0 0.0 0
M  V30 2 C 0.7293 1.3058 0.0 0
M  V30 3 O 2.1881 1.3293 0.0 0
M  V30 4 C -0.0352 2.6117 0.0 0
M  V30 5 N 0.3999 4.0469 0.0 0
M  V30 6 C -1.5411 2.6352 0.0 0
M  V30 7 O -0.8235 4.941 0.0 0
M  V30 8 C -2.0234 4.0704 0.0 0
M  V30 9 C -3.4587 4.5528 0.0 0
M  V30 END ATOM
M  V30 BEGIN BOND
M  V30 1 1 1 2
M  V30 2 2 2 3
M  V30 3 1 2 4
M  V30 4 2 4 5
M  V30 5 1 4 6
M  V30 6 1 5 7
M  V30 7 2 6 8
M  V30 8 1 8 9
M  V30 9 1 7 8
M  V30 END BOND
M  V30 END CTAB
M  END
>  <Dotmatics_CR>
R-006353

>  <CR_Set>
Acyl_chloride

>  <Category>
Carbonyl Chlorides Aromatic

>  <Reaction type>
Amidation

>  <KI/BB_Nature>
Amine

>  <Comments>


>  <Salt>


>  <CR_Chiral_Form>


>  <Prod_total_used>
14

>  <PSR (%)>
100

>  <Article>
5-METHYLISOXAZOLE-3-CARBONYL CHLORIDE

>  <CAS>
39499-34-8

>  <Density>
1.345

>  <Prod_reagent_number>
E037

>  <Stereocenters>
0

>  <NB_Name reaction - KI/BB – Capping>
05-Amidation_Amine_Acyl_chloride

$$$$
R-000429
Actelion Java MolfileCreator 2.0

  0  0  0  0  0  0              0 V3000
M  V30 BEGIN CTAB
M  V30 COUNTS 6 6 0 0 0
M  V30 BEGIN ATOM
M  V30 1 Cl 0.0 0.0 0.0 0
M  V30 2 C 0.7443 1.3143 0.0 0
M  V30 3 O -0.0465 2.6518 0.0 0
M  V30 4 C 2.2098 1.3375 0.0 0
M  V30 5 C 3.5009 0.628 0.0 0
M  V30 6 C 3.5009 2.1168 0.0 0
M  V30 END ATOM
M  V30 BEGIN BOND
M  V30 1 1 1 2
M  V30 2 2 2 3
M  V30 3 1 2 4
M  V30 4 1 4 5
M  V30 5 1 4 6
M  V30 6 1 5 6
M  V30 END BOND
M  V30 END CTAB
M  END
>  <Dotmatics_CR>
R-000429

>  <CR_Set>
Acyl_chloride

>  <Category>
Carbonyl Chlorides Non-Aromatic

>  <Reaction type>
Amidation

>  <KI/BB_Nature>
Amine

>  <Comments>


>  <Salt>


>  <CR_Chiral_Form>


>  <Prod_total_used>
48

>  <PSR (%)>
98

>  <Article>
CYCLOPROPANECARBONYL CHLORIDE

>  <CAS>
4023-34-1

>  <Density>
1.152

>  <Prod_reagent_number>
E035

>  <Stereocenters>
0

>  <NB_Name reaction - KI/BB – Capping>
05-Amidation_Amine_Acyl_chloride

$$$$
R-001947
Actelion Java MolfileCreator 2.0

  0  0  0  0  0  0              0 V3000
M  V30 BEGIN CTAB
M  V30 COUNTS 6 5 0 0 0
M  V30 BEGIN ATOM
M  V30 1 Cl 0.0 0.0 0.0 0
M  V30 2 C -1.2961 0.761 0.0 0
M  V30 3 O -1.3199 2.2831 0.0 0
M  V30 4 C -2.5922 0.0118 0.0 0
M  V30 5 C -3.8884 0.7729 0.0 0
M  V30 6 C -2.5803 -1.4626 0.0 0
M  V30 END ATOM
M  V30 BEGIN BOND
M  V30 1 1 1 2
M  V30 2 2 2 3
M  V30 3 1 2 4
M  V30 4 1 4 5
M  V30 5 1 4 6
M  V30 END BOND
M  V30 END CTAB
M  END
>  <Dotmatics_CR>
R-001947

>  <CR_Set>
Acyl_chloride

>  <Category>
Carbonyl Chlorides Non-Aromatic

>  <Reaction type>
Amidation

>  <KI/BB_Nature>
Amine

>  <Comments>


>  <Salt>


>  <CR_Chiral_Form>


>  <Prod_total_used>
51

>  <PSR (%)>
98

>  <Article>
ISOBUTYRYL CHLORIDE

>  <CAS>
79-30-1

>  <Density>
1.017

>  <Prod_reagent_number>
E034

>  <Stereocenters>
0

>  <NB_Name reaction - KI/BB – Capping>
05-Amidation_Amine_Acyl_chloride

$$$$
R-000228
Actelion Java MolfileCreator 2.0

  0  0  0  0  0  0              0 V3000
M  V30 BEGIN CTAB
M  V30 COUNTS 6 5 0 0 0
M  V30 BEGIN ATOM
M  V30 1 Cl 0.0 0.0 0.0 0
M  V30 2 C -1.3016 0.7622 0.0 0
M  V30 3 O -1.3251 2.2632 0.0 0
M  V30 4 C -2.6033 0.0351 0.0 0
M  V30 5 O -3.905 0.7974 0.0 0
M  V30 6 C -5.2066 0.0703 0.0 0
M  V30 END ATOM
M  V30 BEGIN BOND
M  V30 1 1 1 2
M  V30 2 2 2 3
M  V30 3 1 2 4
M  V30 4 1 4 5
M  V30 5 1 5 6
M  V30 END BOND
M  V30 END CTAB
M  END
>  <Dotmatics_CR>
R-000228

>  <CR_Set>
Acyl_chloride

>  <Category>
Carbonyl Chlorides Non-Aromatic

>  <Reaction type>
Amidation

>  <KI/BB_Nature>
Amine

>  <Comments>


>  <Salt>


>  <CR_Chiral_Form>


>  <Prod_total_used>
83

>  <PSR (%)>
95

>  <Article>
METHOXYACETYL CHLORIDE

>  <CAS>
38870-89-2

>  <Density>
1.187

>  <Prod_reagent_number>
E033

>  <Stereocenters>
0

>  <NB_Name reaction - KI/BB – Capping>
05-Amidation_Amine_Acyl_chloride

$$$$
R-001291
Actelion Java MolfileCreator 2.0

  0  0  0  0  0  0              0 V3000
M  V30 BEGIN CTAB
M  V30 COUNTS 4 3 0 0 0
M  V30 BEGIN ATOM
M  V30 1 Cl 0.0 0.0 0.0 0
M  V30 2 C -1.3014 0.7621 0.0 0
M  V30 3 O -1.3249 2.2629 0.0 0
M  V30 4 C -2.6029 0.0351 0.0 0
M  V30 END ATOM
M  V30 BEGIN BOND
M  V30 1 1 1 2
M  V30 2 2 2 3
M  V30 3 1 2 4
M  V30 END BOND
M  V30 END CTAB
M  END
>  <Dotmatics_CR>
R-001291

>  <CR_Set>
Acyl_chloride

>  <Category>
Carbonyl Chlorides Non-Aromatic

>  <Reaction type>
Amidation

>  <KI/BB_Nature>
Amine

>  <Comments>


>  <Salt>


>  <CR_Chiral_Form>


>  <Prod_total_used>
105

>  <PSR (%)>
77

>  <Article>
ACETYL CHLORIDE

>  <CAS>
75-36-5

>  <Density>
1.104

>  <Prod_reagent_number>
E031

>  <Stereocenters>
0

>  <NB_Name reaction - KI/BB – Capping>
05-Amidation_Amine_Acyl_chloride

$$$$
R-005161
Actelion Java MolfileCreator 2.0

  0  0  0  0  0  0              0 V3000
M  V30 BEGIN CTAB
M  V30 COUNTS 11 11 0 0 0
M  V30 BEGIN ATOM
M  V30 1 Cl 0.0 0.0 0.0 0
M  V30 2 C -0.024 -1.4899 0.0 0
M  V30 3 O -1.3578 -2.2229 0.0 0
M  V30 4 C 1.2616 -2.2229 0.0 0
M  V30 5 C 2.5474 -1.4419 0.0 0
M  V30 6 C 1.2376 -3.7129 0.0 0
M  V30 7 S 2.5233 0.0961 0.0 0
M  V30 8 N 3.8331 -2.1628 0.0 0
M  V30 9 C 2.5233 -4.4459 0.0 0
M  V30 10 C 3.809 0.8771 0.0 0
M  V30 11 C 3.8211 -3.6649 0.0 0
M  V30 END ATOM
M  V30 BEGIN BOND
M  V30 1 1 1 2
M  V30 2 2 2 3
M  V30 3 1 2 4
M  V30 4 2 4 5
M  V30 5 1 4 6
M  V30 6 1 5 7
M  V30 7 1 5 8
M  V30 8 2 6 9
M  V30 9 1 7 10
M  V30 10 2 8 11
M  V30 11 1 9 11
M  V30 END BOND
M  V30 END CTAB
M  END
>  <Dotmatics_CR>
R-005161

>  <CR_Set>
Acyl_chloride

>  <Category>
Carbonyl Chlorides Aromatic

>  <Reaction type>
Amidation

>  <KI/BB_Nature>
Amine

>  <Comments>


>  <Salt>


>  <CR_Chiral_Form>


>  <Prod_total_used>


>  <PSR (%)>


>  <Article>
2-(METHYLTHIO)NICOTINOYL CHLORIDE

>  <CAS>
97936-43-1

>  <Density>


>  <Prod_reagent_number>


>  <Stereocenters>
0

>  <NB_Name reaction - KI/BB – Capping>
05-Amidation_Amine_Acyl_chloride

$$$$
R-008260
Actelion Java MolfileCreator 2.0

  0  0  0  0  0  0              0 V3000
M  V30 BEGIN CTAB
M  V30 COUNTS 13 14 0 0 0
M  V30 BEGIN ATOM
M  V30 1 Cl 0.0 0.0 0.0 0
M  V30 2 C -1.3264 -0.716 0.0 0
M  V30 3 O -2.6528 0.0704 0.0 0
M  V30 4 C -1.3498 -2.195 0.0 0
M  V30 5 C -2.6762 -2.911 0.0 0
M  V30 6 C -0.0704 -2.911 0.0 0
M  V30 7 C -2.6997 -4.39 0.0 0
M  V30 8 C -4.0027 -2.1363 0.0 0
M  V30 9 C -0.0939 -4.39 0.0 0
M  V30 10 C -1.4203 -5.106 0.0 0
M  V30 11 C -4.0261 -5.106 0.0 0
M  V30 12 C -5.3291 -2.8523 0.0 0
M  V30 13 C -5.3525 -4.3313 0.0 0
M  V30 END ATOM
M  V30 BEGIN BOND
M  V30 1 1 1 2
M  V30 2 2 2 3
M  V30 3 1 2 4
M  V30 4 1 4 5
M  V30 5 2 4 6
M  V30 6 1 5 7
M  V30 7 2 5 8
M  V30 8 1 6 9
M  V30 9 1 7 10
M  V30 10 2 7 11
M  V30 11 1 8 12
M  V30 12 1 11 13
M  V30 13 2 9 10
M  V30 14 2 12 13
M  V30 END BOND
M  V30 END CTAB
M  END
>  <Dotmatics_CR>
R-008260

>  <CR_Set>
Acyl_chloride

>  <Category>
Carbonyl Chlorides Aromatic

>  <Reaction type>
Amidation

>  <KI/BB_Nature>
Amine

>  <Comments>


>  <Salt>


>  <CR_Chiral_Form>


>  <Prod_total_used>
1

>  <PSR (%)>
0

>  <Article>
1-naphtoyl chloride

>  <CAS>
879-18-5

>  <Density>
1.265

>  <Prod_reagent_number>


>  <Stereocenters>
0

>  <NB_Name reaction - KI/BB – Capping>
05-Amidation_Amine_Acyl_chloride

$$$$
R-008459
Actelion Java MolfileCreator 2.0

  0  0  0  0  0  0              0 V3000
M  V30 BEGIN CTAB
M  V30 COUNTS 5 4 0 0 0
M  V30 BEGIN ATOM
M  V30 1 Cl 0.0 0.0 0.0 0
M  V30 2 C -1.308 0.7729 0.0 0
M  V30 3 O -1.3317 2.2949 0.0 0
M  V30 4 C -2.616 0.0475 0.0 0
M  V30 5 C -2.6398 -1.415 0.0 0
M  V30 END ATOM
M  V30 BEGIN BOND
M  V30 1 1 1 2
M  V30 2 2 2 3
M  V30 3 1 2 4
M  V30 4 1 4 5
M  V30 END BOND
M  V30 END CTAB
M  END
>  <Dotmatics_CR>
R-008459

>  <CR_Set>
Acyl_chloride

>  <Category>
Carbonyl Chlorides Non-Aromatic

>  <Reaction type>
Amidation

>  <KI/BB_Nature>
Amine

>  <Comments>


>  <Salt>


>  <CR_Chiral_Form>


>  <Prod_total_used>
58

>  <PSR (%)>
97

>  <Article>
Propionyl chloride

>  <CAS>
79-03-8

>  <Density>
1.059

>  <Prod_reagent_number>


>  <Stereocenters>
0

>  <NB_Name reaction - KI/BB – Capping>
05-Amidation_Amine_Acyl_chloride

$$$$
R-003579
Actelion Java MolfileCreator 2.0

  0  0  0  0  0  0              0 V3000
M  V30 BEGIN CTAB
M  V30 COUNTS 11 11 0 0 0
M  V30 BEGIN ATOM
M  V30 1 Cl 0.0 0.0 0.0 0
M  V30 2 C 0.8172 1.2791 0.0 0
M  V30 3 O 0.1065 2.6531 0.0 0
M  V30 4 C 2.3096 1.2199 0.0 0
M  V30 5 C 2.961 -0.0947 0.0 0
M  V30 6 C 3.115 2.5109 0.0 0
M  V30 7 F 2.1082 -1.3502 0.0 0
M  V30 8 C 4.4297 -0.1539 0.0 0
M  V30 9 C 4.5837 2.4517 0.0 0
M  V30 10 C 5.247 1.1252 0.0 0
M  V30 11 F 6.7394 1.0541 0.0 0
M  V30 END ATOM
M  V30 BEGIN BOND
M  V30 1 1 1 2
M  V30 2 2 2 3
M  V30 3 1 2 4
M  V30 4 2 4 5
M  V30 5 1 4 6
M  V30 6 1 5 7
M  V30 7 1 5 8
M  V30 8 2 6 9
M  V30 9 2 8 10
M  V30 10 1 10 11
M  V30 11 1 9 10
M  V30 END BOND
M  V30 END CTAB
M  END
>  <Dotmatics_CR>
R-003579

>  <CR_Set>
Acyl_chloride

>  <Category>
Carbonyl Chlorides Aromatic

>  <Reaction type>
Amidation

>  <KI/BB_Nature>
Amine

>  <Comments>


>  <Salt>


>  <CR_Chiral_Form>


>  <Prod_total_used>
1

>  <PSR (%)>
0

>  <Article>
2,4-DIFLUOROBENZOYL CHLORIDE

>  <CAS>
72482-64-5

>  <Density>
1.437

>  <Prod_reagent_number>


>  <Stereocenters>
0

>  <NB_Name reaction - KI/BB – Capping>
05-Amidation_Amine_Acyl_chloride

$$$$
R-000287
Actelion Java MolfileCreator 2.0

  0  0  0  0  0  0              0 V3000
M  V30 BEGIN CTAB
M  V30 COUNTS 8 7 0 0 0
M  V30 BEGIN ATOM
M  V30 1 Cl 0.0 0.0 0.0 0
M  V30 2 C 0.0 1.5118 0.0 0
M  V30 3 O 1.2992 2.2678 0.0 0
M  V30 4 C -1.2874 2.3032 0.0 0
M  V30 5 C -2.6221 1.5827 0.0 0
M  V30 6 C -3.6851 2.6812 0.0 0
M  V30 7 C -3.8033 0.685 0.0 0
M  V30 8 C -1.8071 0.3897 0.0 0
M  V30 END ATOM
M  V30 BEGIN BOND
M  V30 1 1 1 2
M  V30 2 2 2 3
M  V30 3 1 2 4
M  V30 4 1 4 5
M  V30 5 1 5 6
M  V30 6 1 5 7
M  V30 7 1 5 8
M  V30 END BOND
M  V30 END CTAB
M  END
>  <Dotmatics_CR>
R-000287

>  <CR_Set>
Acyl_chloride

>  <Category>
Carbonyl Chlorides Non-Aromatic

>  <Reaction type>
Amidation

>  <KI/BB_Nature>
Amine

>  <Comments>


>  <Salt>


>  <CR_Chiral_Form>


>  <Prod_total_used>
7

>  <PSR (%)>
100

>  <Article>
TERT-BUTYLACETYL CHLORIDE

>  <CAS>
7065-46-5

>  <Density>
0.969

>  <Prod_reagent_number>


>  <Stereocenters>
0

>  <NB_Name reaction - KI/BB – Capping>
05-Amidation_Amine_Acyl_chloride

$$$$
R-005114
Actelion Java MolfileCreator 2.0

  0  0  0  0  0  0              0 V3000
M  V30 BEGIN CTAB
M  V30 COUNTS 8 8 0 0 0
M  V30 BEGIN ATOM
M  V30 1 Cl 0.0 0.0 0.0 0
M  V30 2 C -0.7647 1.3059 0.0 0
M  V30 3 O -0.047 2.6119 0.0 0
M  V30 4 C -2.2707 1.3295 0.0 0
M  V30 5 O -3.1649 0.1529 0.0 0
M  V30 6 C -3.1649 2.5531 0.0 0
M  V30 7 N -4.6004 0.6353 0.0 0
M  V30 8 C -4.6004 2.1178 0.0 0
M  V30 END ATOM
M  V30 BEGIN BOND
M  V30 1 1 1 2
M  V30 2 2 2 3
M  V30 3 1 2 4
M  V30 4 1 4 5
M  V30 5 2 4 6
M  V30 6 1 5 7
M  V30 7 1 6 8
M  V30 8 2 7 8
M  V30 END BOND
M  V30 END CTAB
M  END
>  <Dotmatics_CR>
R-005114

>  <CR_Set>
Acyl_chloride

>  <Category>
Carbonyl Chlorides Aromatic

>  <Reaction type>
Amidation

>  <KI/BB_Nature>
Amine

>  <Comments>


>  <Salt>


>  <CR_Chiral_Form>


>  <Prod_total_used>
2

>  <PSR (%)>
50

>  <Article>
ISOXAZOLE-5-CARBONYL CHLORIDE

>  <CAS>
62348-13-4

>  <Density>
1.362

>  <Prod_reagent_number>


>  <Stereocenters>
0

>  <NB_Name reaction - KI/BB – Capping>
05-Amidation_Amine_Acyl_chloride

$$$$
R-003961
Actelion Java MolfileCreator 2.0

  0  0  0  0  0  0              0 V3000
M  V30 BEGIN CTAB
M  V30 COUNTS 10 10 0 0 0
M  V30 BEGIN ATOM
M  V30 1 Cl 0.0 0.0 0.0 0
M  V30 2 C -1.0747 1.0747 0.0 0
M  V30 3 C -2.5381 0.7088 0.0 0
M  V30 4 C -0.7088 2.5152 0.0 0
M  V30 5 C -3.59 1.7607 0.0 0
M  V30 6 C -1.7835 3.59 0.0 0
M  V30 7 C -5.0534 1.4177 0.0 0
M  V30 8 C -3.2241 3.2241 0.0 0
M  V30 9 Cl -5.465 0.0 0.0 0
M  V30 10 O -6.1281 2.4695 0.0 0
M  V30 END ATOM
M  V30 BEGIN BOND
M  V30 1 1 1 2
M  V30 2 2 2 3
M  V30 3 1 2 4
M  V30 4 1 3 5
M  V30 5 2 4 6
M  V30 6 1 5 7
M  V30 7 2 5 8
M  V30 8 1 7 9
M  V30 9 2 7 10
M  V30 10 1 6 8
M  V30 END BOND
M  V30 END CTAB
M  END
>  <Dotmatics_CR>
R-003961

>  <CR_Set>
Acyl_chloride

>  <Category>
Carbonyl Chlorides Aromatic

>  <Reaction type>
Amidation

>  <KI/BB_Nature>
Amine

>  <Comments>


>  <Salt>


>  <CR_Chiral_Form>


>  <Prod_total_used>
1

>  <PSR (%)>
100

>  <Article>
3-CHLOROBENZOYL CHLORIDE

>  <CAS>
618-46-2

>  <Density>
1.367

>  <Prod_reagent_number>


>  <Stereocenters>
0

>  <NB_Name reaction - KI/BB – Capping>
05-Amidation_Amine_Acyl_chloride

$$$$
R-000578
Actelion Java MolfileCreator 2.0

  0  0  0  0  0  0              0 V3000
M  V30 BEGIN CTAB
M  V30 COUNTS 8 8 0 0 0
M  V30 BEGIN ATOM
M  V30 1 Cl 0.0 0.0 0.0 0
M  V30 2 C -0.7647 1.3059 0.0 0
M  V30 3 O -0.047 2.6119 0.0 0
M  V30 4 C -2.2707 1.3295 0.0 0
M  V30 5 O -3.1649 0.1529 0.0 0
M  V30 6 C -3.1649 2.5531 0.0 0
M  V30 7 C -4.6004 0.6353 0.0 0
M  V30 8 C -4.6004 2.1178 0.0 0
M  V30 END ATOM
M  V30 BEGIN BOND
M  V30 1 1 1 2
M  V30 2 2 2 3
M  V30 3 1 2 4
M  V30 4 1 4 5
M  V30 5 2 4 6
M  V30 6 1 5 7
M  V30 7 1 6 8
M  V30 8 2 7 8
M  V30 END BOND
M  V30 END CTAB
M  END
>  <Dotmatics_CR>
R-000578

>  <CR_Set>
Acyl_chloride

>  <Category>
Carbonyl Chlorides Aromatic

>  <Reaction type>
Amidation

>  <KI/BB_Nature>
Amine

>  <Comments>


>  <Salt>


>  <CR_Chiral_Form>


>  <Prod_total_used>
1

>  <PSR (%)>
100

>  <Article>
furan-2-carbonyl chloride

>  <CAS>
527-69-5

>  <Density>
1.324

>  <Prod_reagent_number>


>  <Stereocenters>
0

>  <NB_Name reaction - KI/BB – Capping>
05-Amidation_Amine_Acyl_chloride

$$$$
R-000191
Actelion Java MolfileCreator 2.0

  0  0  0  0  0  0              0 V3000
M  V30 BEGIN CTAB
M  V30 COUNTS 11 11 0 0 0
M  V30 BEGIN ATOM
M  V30 1 Cl 0.0 0.0 0.0 0
M  V30 2 C -1.3198 -0.7124 0.0 0
M  V30 3 O -1.3431 -2.1841 0.0 0
M  V30 4 C -2.6396 0.0583 0.0 0
M  V30 5 C -3.9594 -0.654 0.0 0
M  V30 6 C -3.9827 -2.1257 0.0 0
M  V30 7 C -5.2792 0.1167 0.0 0
M  V30 8 C -5.3026 -2.8381 0.0 0
M  V30 9 C -6.599 -0.5956 0.0 0
M  V30 10 C -6.6224 -2.0673 0.0 0
M  V30 11 F -7.9422 -2.7797 0.0 0
M  V30 END ATOM
M  V30 BEGIN BOND
M  V30 1 1 1 2
M  V30 2 2 2 3
M  V30 3 1 2 4
M  V30 4 1 4 5
M  V30 5 2 5 6
M  V30 6 1 5 7
M  V30 7 1 6 8
M  V30 8 2 7 9
M  V30 9 2 8 10
M  V30 10 1 10 11
M  V30 11 1 9 10
M  V30 END BOND
M  V30 END CTAB
M  END
>  <Dotmatics_CR>
R-000191

>  <CR_Set>
Acyl_chloride

>  <Category>
Carbonyl Chlorides Non-Aromatic

>  <Reaction type>
Amidation

>  <KI/BB_Nature>
Amine

>  <Comments>


>  <Salt>


>  <CR_Chiral_Form>


>  <Prod_total_used>
1

>  <PSR (%)>
100

>  <Article>
4-FLUOROPHENYLACETYL CHLORIDE

>  <CAS>
459-04-1

>  <Density>
1.259

>  <Prod_reagent_number>


>  <Stereocenters>
0

>  <NB_Name reaction - KI/BB – Capping>
05-Amidation_Amine_Acyl_chloride

$$$$
R-006360
Actelion Java MolfileCreator 2.0

  0  0  0  0  0  0              0 V3000
M  V30 BEGIN CTAB
M  V30 COUNTS 13 14 0 0 0
M  V30 BEGIN ATOM
M  V30 1 Cl 0.0 0.0 0.0 0
M  V30 2 C -1.3128 0.7687 0.0 0
M  V30 3 O -1.3365 2.2827 0.0 0
M  V30 4 C -2.6257 0.0473 0.0 0
M  V30 5 C -3.9386 0.8042 0.0 0
M  V30 6 C -2.6493 -1.4193 0.0 0
M  V30 7 C -5.2514 0.0827 0.0 0
M  V30 8 O -3.9622 -2.1408 0.0 0
M  V30 9 C -5.2751 -1.3838 0.0 0
M  V30 10 C -6.5643 0.8515 0.0 0
M  V30 11 C -6.588 -2.1053 0.0 0
M  V30 12 C -7.8772 0.1301 0.0 0
M  V30 13 C -7.9008 -1.3365 0.0 0
M  V30 END ATOM
M  V30 BEGIN BOND
M  V30 1 1 1 2
M  V30 2 2 2 3
M  V30 3 1 2 4
M  V30 4 2 4 5
M  V30 5 1 4 6
M  V30 6 1 5 7
M  V30 7 1 6 8
M  V30 8 2 7 9
M  V30 9 1 7 10
M  V30 10 1 9 11
M  V30 11 2 10 12
M  V30 12 2 11 13
M  V30 13 1 8 9
M  V30 14 1 12 13
M  V30 END BOND
M  V30 END CTAB
M  END
>  <Dotmatics_CR>
R-006360

>  <CR_Set>
Acyl_chloride

>  <Category>
Carbonyl Chlorides Aromatic

>  <Reaction type>
Amidation

>  <KI/BB_Nature>
Amine

>  <Comments>


>  <Salt>


>  <CR_Chiral_Form>


>  <Prod_total_used>


>  <PSR (%)>


>  <Article>
2H-chromene-3-carbonyl chloride

>  <CAS>
41873-72-7

>  <Density>


>  <Prod_reagent_number>


>  <Stereocenters>
0

>  <NB_Name reaction - KI/BB – Capping>
05-Amidation_Amine_Acyl_chloride

$$$$
R-000903
Actelion Java MolfileCreator 2.0

  0  0  0  0  0  0              0 V3000
M  V30 BEGIN CTAB
M  V30 COUNTS 5 4 0 0 0
M  V30 BEGIN ATOM
M  V30 1 Cl 0.0 0.0 0.0 0
M  V30 2 C -1.3022 0.7625 0.0 0
M  V30 3 O -1.3256 2.2642 0.0 0
M  V30 4 C -2.6044 0.0469 0.0 0
M  V30 5 F -3.9066 0.7977 0.0 0
M  V30 END ATOM
M  V30 BEGIN BOND
M  V30 1 1 1 2
M  V30 2 2 2 3
M  V30 3 1 2 4
M  V30 4 1 4 5
M  V30 END BOND
M  V30 END CTAB
M  END
>  <Dotmatics_CR>
R-000903

>  <CR_Set>
Acyl_chloride

>  <Category>
Carbonyl Chlorides Non-Aromatic

>  <Reaction type>
Amidation

>  <KI/BB_Nature>
Amine

>  <Comments>


>  <Salt>


>  <CR_Chiral_Form>


>  <Prod_total_used>
18

>  <PSR (%)>
67

>  <Article>
Fluoroacetyl chloride

>  <CAS>
359-06-8

>  <Density>
1.381

>  <Prod_reagent_number>


>  <Stereocenters>
0

>  <NB_Name reaction - KI/BB – Capping>
05-Amidation_Amine_Acyl_chloride

$$$$
R-003147
Actelion Java MolfileCreator 2.0

  0  0  0  0  0  0              0 V3000
M  V30 BEGIN CTAB
M  V30 COUNTS 7 6 0 0 0
M  V30 BEGIN ATOM
M  V30 1 Cl 0.0 0.0 0.0 0
M  V30 2 C -0.8226 1.2691 0.0 0
M  V30 3 O -0.1527 2.6206 0.0 0
M  V30 4 C -2.3268 1.2339 0.0 0
M  V30 5 C -2.7969 2.6676 0.0 0
M  V30 6 C -3.8075 0.9401 0.0 0
M  V30 7 C -2.1505 -0.2115 0.0 0
M  V30 END ATOM
M  V30 BEGIN BOND
M  V30 1 1 1 2
M  V30 2 2 2 3
M  V30 3 1 2 4
M  V30 4 1 4 5
M  V30 5 1 4 6
M  V30 6 1 4 7
M  V30 END BOND
M  V30 END CTAB
M  END
>  <Dotmatics_CR>
R-003147

>  <CR_Set>
Acyl_chloride

>  <Category>
Carbonyl Chlorides Non-Aromatic

>  <Reaction type>
Amidation

>  <KI/BB_Nature>
Amine

>  <Comments>


>  <Salt>


>  <CR_Chiral_Form>


>  <Prod_total_used>
18

>  <PSR (%)>
100

>  <Article>
PIVALOYL CHLORIDE ou TRIMETHYLACETYL CHLORIDE

>  <CAS>
3282-30-2

>  <Density>
0.979

>  <Prod_reagent_number>


>  <Stereocenters>
0

>  <NB_Name reaction - KI/BB – Capping>
05-Amidation_Amine_Acyl_chloride

$$$$
R-005857
Actelion Java MolfileCreator 2.0

  0  0  0  0  0  0              0 V3000
M  V30 BEGIN CTAB
M  V30 COUNTS 8 7 0 0 0
M  V30 BEGIN ATOM
M  V30 1 Cl 0.0 0.0 0.0 0
M  V30 2 C -1.3172 0.7595 0.0 0
M  V30 3 O -1.341 2.2785 0.0 0
M  V30 4 C -2.6345 0.0356 0.0 0
M  V30 5 C -3.9518 0.7951 0.0 0
M  V30 6 C -2.6583 -1.4359 0.0 0
M  V30 7 C -5.2691 0.0712 0.0 0
M  V30 8 C -1.3884 -2.1598 0.0 0
M  V30 END ATOM
M  V30 BEGIN BOND
M  V30 1 1 1 2
M  V30 2 2 2 3
M  V30 3 1 2 4
M  V30 4 1 4 5
M  V30 5 1 4 6
M  V30 6 1 5 7
M  V30 7 1 6 8
M  V30 END BOND
M  V30 END CTAB
M  END
>  <Dotmatics_CR>
R-005857

>  <CR_Set>
Acyl_chloride

>  <Category>
Carbonyl Chlorides Non-Aromatic

>  <Reaction type>
Amidation

>  <KI/BB_Nature>
Amine

>  <Comments>


>  <Salt>


>  <CR_Chiral_Form>


>  <Prod_total_used>
1

>  <PSR (%)>
0

>  <Article>
2-ethylbutanoyl chloride

>  <CAS>
2736-40-5

>  <Density>
0.982

>  <Prod_reagent_number>


>  <Stereocenters>
0

>  <NB_Name reaction - KI/BB – Capping>
05-Amidation_Amine_Acyl_chloride

$$$$
R-003721
Actelion Java MolfileCreator 2.0

  0  0  0  0  0  0              0 V3000
M  V30 BEGIN CTAB
M  V30 COUNTS 11 11 0 0 0
M  V30 BEGIN ATOM
M  V30 1 Cl 0.0 0.0 0.0 0
M  V30 2 C 1.2854 0.7688 0.0 0
M  V30 3 C 2.5708 0.036 0.0 0
M  V30 4 C 1.2614 2.3065 0.0 0
M  V30 5 C 3.8563 0.8049 0.0 0
M  V30 6 C 2.5468 3.0754 0.0 0
M  V30 7 C 3.8322 2.3426 0.0 0
M  V30 8 C 5.1177 3.1114 0.0 0
M  V30 9 C 6.4031 2.3786 0.0 0
M  V30 10 Cl 6.3791 0.8889 0.0 0
M  V30 11 O 7.6886 3.1595 0.0 0
M  V30 END ATOM
M  V30 BEGIN BOND
M  V30 1 1 1 2
M  V30 2 2 2 3
M  V30 3 1 2 4
M  V30 4 1 3 5
M  V30 5 2 4 6
M  V30 6 2 5 7
M  V30 7 1 7 8
M  V30 8 1 8 9
M  V30 9 1 9 10
M  V30 10 2 9 11
M  V30 11 1 6 7
M  V30 END BOND
M  V30 END CTAB
M  END
>  <Dotmatics_CR>
R-003721

>  <CR_Set>
Acyl_chloride

>  <Category>
Carbonyl Chlorides Non-Aromatic

>  <Reaction type>
Amidation

>  <KI/BB_Nature>
Amine

>  <Comments>


>  <Salt>


>  <CR_Chiral_Form>


>  <Prod_total_used>
1

>  <PSR (%)>
100

>  <Article>
4-CHLOROPHENYLACETYL CHLORIDE

>  <CAS>
25026-34-0

>  <Density>
1.292

>  <Prod_reagent_number>


>  <Stereocenters>
0

>  <NB_Name reaction - KI/BB – Capping>
05-Amidation_Amine_Acyl_chloride

$$$$
R-006557
Actelion Java MolfileCreator 2.0

  0  0  0  0  0  0              0 V3000
M  V30 BEGIN CTAB
M  V30 COUNTS 11 11 0 0 0
M  V30 BEGIN ATOM
M  V30 1 Cl 0.0 0.0 0.0 0
M  V30 2 C -1.3196 0.7658 0.0 0
M  V30 3 O -1.3431 2.2739 0.0 0
M  V30 4 C -2.6392 0.0471 0.0 0
M  V30 5 C -2.6627 -1.4138 0.0 0
M  V30 6 C -3.9588 0.8129 0.0 0
M  V30 7 O -1.3902 -2.1443 0.0 0
M  V30 8 C -3.9823 -2.1443 0.0 0
M  V30 9 C -5.2901 0.0824 0.0 0
M  V30 10 C -0.1178 -1.3785 0.0 0
M  V30 11 C -5.3137 -1.3785 0.0 0
M  V30 END ATOM
M  V30 BEGIN BOND
M  V30 1 1 1 2
M  V30 2 2 2 3
M  V30 3 1 2 4
M  V30 4 2 4 5
M  V30 5 1 4 6
M  V30 6 1 5 7
M  V30 7 1 5 8
M  V30 8 2 6 9
M  V30 9 1 7 10
M  V30 10 2 8 11
M  V30 11 1 9 11
M  V30 END BOND
M  V30 END CTAB
M  END
>  <Dotmatics_CR>
R-006557

>  <CR_Set>
Acyl_chloride

>  <Category>
Carbonyl Chlorides Aromatic

>  <Reaction type>
Amidation

>  <KI/BB_Nature>
Amine

>  <Comments>


>  <Salt>


>  <CR_Chiral_Form>


>  <Prod_total_used>
1

>  <PSR (%)>
0

>  <Article>
2-METHOXYBENZOYL CHLORIDE

>  <CAS>
21615-34-9

>  <Density>
1.146

>  <Prod_reagent_number>


>  <Stereocenters>
0

>  <NB_Name reaction - KI/BB – Capping>
05-Amidation_Amine_Acyl_chloride

$$$$
R-006012
Actelion Java MolfileCreator 2.0

  0  0  0  0  0  0              0 V3000
M  V30 BEGIN CTAB
M  V30 COUNTS 10 10 0 0 0
M  V30 BEGIN ATOM
M  V30 1 Cl 0.0 0.0 0.0 0
M  V30 2 C -1.3327 -0.7194 0.0 0
M  V30 3 O -2.6655 0.0589 0.0 0
M  V30 4 C -1.3563 -2.2055 0.0 0
M  V30 5 C -0.0707 -2.9367 0.0 0
M  V30 6 C -2.6891 -2.9367 0.0 0
M  V30 7 C -0.0943 -4.4228 0.0 0
M  V30 8 C -2.7127 -4.4228 0.0 0
M  V30 9 F 1.1912 -5.1423 0.0 0
M  V30 10 C -1.4271 -5.1659 0.0 0
M  V30 END ATOM
M  V30 BEGIN BOND
M  V30 1 1 1 2
M  V30 2 2 2 3
M  V30 3 1 2 4
M  V30 4 2 4 5
M  V30 5 1 4 6
M  V30 6 1 5 7
M  V30 7 2 6 8
M  V30 8 1 7 9
M  V30 9 2 7 10
M  V30 10 1 8 10
M  V30 END BOND
M  V30 END CTAB
M  END
>  <Dotmatics_CR>
R-006012

>  <CR_Set>
Acyl_chloride

>  <Category>
Carbonyl Chlorides Aromatic

>  <Reaction type>
Amidation

>  <KI/BB_Nature>
Amine

>  <Comments>


>  <Salt>


>  <CR_Chiral_Form>


>  <Prod_total_used>
1

>  <PSR (%)>
0

>  <Article>
3-FLUOROBENZOYL CHLORIDE

>  <CAS>
1711-07-5

>  <Density>
1.304

>  <Prod_reagent_number>


>  <Stereocenters>
0

>  <NB_Name reaction - KI/BB – Capping>
05-Amidation_Amine_Acyl_chloride

$$$$
R-003130
Actelion Java MolfileCreator 2.0

  0  0  0  0  0  0              0 V3000
M  V30 BEGIN CTAB
M  V30 COUNTS 10 10 0 0 0
M  V30 BEGIN ATOM
M  V30 1 Cl 0.0 0.0 0.0 0
M  V30 2 C 1.2802 -0.7367 0.0 0
M  V30 3 O 1.256 -2.2223 0.0 0
M  V30 4 C 2.5604 0.0483 0.0 0
M  V30 5 C 3.8407 -0.6884 0.0 0
M  V30 6 C 2.5363 1.5942 0.0 0
M  V30 7 C 5.133 0.0845 0.0 0
M  V30 8 C 3.8165 2.3672 0.0 0
M  V30 9 C 5.1088 1.6304 0.0 0
M  V30 10 C 6.4132 -0.6521 0.0 0
M  V30 END ATOM
M  V30 BEGIN BOND
M  V30 1 1 1 2
M  V30 2 2 2 3
M  V30 3 1 2 4
M  V30 4 2 4 5
M  V30 5 1 4 6
M  V30 6 1 5 7
M  V30 7 2 6 8
M  V30 8 2 7 9
M  V30 9 1 7 10
M  V30 10 1 8 9
M  V30 END BOND
M  V30 END CTAB
M  END
>  <Dotmatics_CR>
R-003130

>  <CR_Set>
Acyl_chloride

>  <Category>
Carbonyl Chlorides Aromatic

>  <Reaction type>
Amidation

>  <KI/BB_Nature>
Amine

>  <Comments>


>  <Salt>


>  <CR_Chiral_Form>


>  <Prod_total_used>
1

>  <PSR (%)>
100

>  <Article>
M-TOLUYL CHLORIDE

>  <CAS>
1711-06-4

>  <Density>
1.173

>  <Prod_reagent_number>


>  <Stereocenters>
0

>  <NB_Name reaction - KI/BB – Capping>
05-Amidation_Amine_Acyl_chloride

$$$$
R-008899
Actelion Java MolfileCreator 2.0

  0  0  0  0  0  0              0 V3000
M  V30 BEGIN CTAB
M  V30 COUNTS 11 11 0 0 0
M  V30 BEGIN ATOM
M  V30 1 Cl 0.0 0.0 0.0 0
M  V30 2 C -1.3175 0.7715 0.0 0
M  V30 3 O -1.3412 2.2908 0.0 0
M  V30 4 C -2.635 0.0474 0.0 0
M  V30 5 C -2.6588 -1.4243 0.0 0
M  V30 6 C -3.9526 0.819 0.0 0
M  V30 7 C -3.9763 -2.1484 0.0 0
M  V30 8 C -5.2701 0.0949 0.0 0
M  V30 9 O -4.0 -3.6202 0.0 0
M  V30 10 C -5.2938 -1.3887 0.0 0
M  V30 11 C -2.73 -4.3561 0.0 0
M  V30 END ATOM
M  V30 BEGIN BOND
M  V30 1 1 1 2
M  V30 2 2 2 3
M  V30 3 1 2 4
M  V30 4 2 4 5
M  V30 5 1 4 6
M  V30 6 1 5 7
M  V30 7 2 6 8
M  V30 8 1 7 9
M  V30 9 2 7 10
M  V30 10 1 9 11
M  V30 11 1 8 10
M  V30 END BOND
M  V30 END CTAB
M  END
>  <Dotmatics_CR>
R-008899

>  <CR_Set>
Acyl_chloride

>  <Category>
Carbonyl Chlorides Aromatic

>  <Reaction type>
Amidation

>  <KI/BB_Nature>
Amine

>  <Comments>


>  <Salt>


>  <CR_Chiral_Form>


>  <Prod_total_used>
1

>  <PSR (%)>
0

>  <Article>
3-Methoxybenzoyl chloride

>  <CAS>
1711-05-3

>  <Density>
1.214

>  <Prod_reagent_number>


>  <Stereocenters>
0

>  <NB_Name reaction - KI/BB – Capping>
05-Amidation_Amine_Acyl_chloride

$$$$
R-001691
Actelion Java MolfileCreator 2.0

  0  0  0  0  0  0              0 V3000
M  V30 BEGIN CTAB
M  V30 COUNTS 13 13 0 0 0
M  V30 BEGIN ATOM
M  V30 1 Cl 0.0 0.0 0.0 0
M  V30 2 C -1.3116 0.7562 0.0 0
M  V30 3 O -1.3352 2.2688 0.0 0
M  V30 4 C -2.6233 0.0354 0.0 0
M  V30 5 C -3.9349 0.8035 0.0 0
M  V30 6 C -2.6469 -1.4298 0.0 0
M  V30 7 C -5.2466 0.0827 0.0 0
M  V30 8 C -3.9585 -2.1624 0.0 0
M  V30 9 C -5.2702 -1.3825 0.0 0
M  V30 10 C -6.5818 -2.1151 0.0 0
M  V30 11 C -7.8935 -1.3471 0.0 0
M  V30 12 C -6.6055 -3.5804 0.0 0
M  V30 13 C -6.6055 -0.6026 0.0 0
M  V30 END ATOM
M  V30 BEGIN BOND
M  V30 1 1 1 2
M  V30 2 2 2 3
M  V30 3 1 2 4
M  V30 4 2 4 5
M  V30 5 1 4 6
M  V30 6 1 5 7
M  V30 7 2 6 8
M  V30 8 2 7 9
M  V30 9 1 9 10
M  V30 10 1 10 11
M  V30 11 1 10 12
M  V30 12 1 10 13
M  V30 13 1 8 9
M  V30 END BOND
M  V30 END CTAB
M  END
>  <Dotmatics_CR>
R-001691

>  <CR_Set>
Acyl_chloride

>  <Category>
Carbonyl Chlorides Aromatic

>  <Reaction type>
Amidation

>  <KI/BB_Nature>
Amine

>  <Comments>


>  <Salt>


>  <CR_Chiral_Form>


>  <Prod_total_used>
1

>  <PSR (%)>
100

>  <Article>
4-tert-butylbenzoyl chloride

>  <CAS>
1710-98-1

>  <Density>
1.007

>  <Prod_reagent_number>


>  <Stereocenters>
0

>  <NB_Name reaction - KI/BB – Capping>
05-Amidation_Amine_Acyl_chloride

$$$$
R-001814
Actelion Java MolfileCreator 2.0

  0  0  0  0  0  0              0 V3000
M  V30 BEGIN CTAB
M  V30 COUNTS 13 13 0 0 0
M  V30 BEGIN ATOM
M  V30 1 Cl 0.0 0.0 0.0 0
M  V30 2 C -1.3107 -0.7203 0.0 0
M  V30 3 O -1.3343 -2.1845 0.0 0
M  V30 4 C -2.6215 0.0354 0.0 0
M  V30 5 C -3.9322 -0.6849 0.0 0
M  V30 6 C -2.6451 1.5469 0.0 0
M  V30 7 C -5.243 0.0708 0.0 0
M  V30 8 C -3.9558 2.3026 0.0 0
M  V30 9 C -5.2666 1.5823 0.0 0
M  V30 10 N -6.5774 2.3381 0.0 0
M  V30 11 C -7.8881 1.6177 0.0 0
M  V30 12 O -7.9117 0.1535 0.0 0
M  V30 13 C -9.1989 2.3735 0.0 0
M  V30 END ATOM
M  V30 BEGIN BOND
M  V30 1 1 1 2
M  V30 2 2 2 3
M  V30 3 1 2 4
M  V30 4 2 4 5
M  V30 5 1 4 6
M  V30 6 1 5 7
M  V30 7 2 6 8
M  V30 8 2 7 9
M  V30 9 1 9 10
M  V30 10 1 10 11
M  V30 11 2 11 12
M  V30 12 1 11 13
M  V30 13 1 8 9
M  V30 END BOND
M  V30 END CTAB
M  END
>  <Dotmatics_CR>
R-001814

>  <CR_Set>
Acyl_chloride

>  <Category>
Carbonyl Chlorides Aromatic

>  <Reaction type>
Amidation

>  <KI/BB_Nature>
Amine

>  <Comments>


>  <Salt>


>  <CR_Chiral_Form>


>  <Prod_total_used>
1

>  <PSR (%)>
0

>  <Article>
4-ACETAMIDOBENZOYL CHLORIDE

>  <CAS>
16331-48-9

>  <Density>
1

>  <Prod_reagent_number>


>  <Stereocenters>
0

>  <NB_Name reaction - KI/BB – Capping>
05-Amidation_Amine_Acyl_chloride

$$$$
R-005792
Actelion Java MolfileCreator 2.0

  0  0  0  0  0  0              0 V3000
M  V30 BEGIN CTAB
M  V30 COUNTS 11 11 0 0 0
M  V30 BEGIN ATOM
M  V30 1 Cl 0.0 0.0 0.0 0
M  V30 2 C -1.3127 0.7568 0.0 0
M  V30 3 O -1.3363 2.2706 0.0 0
M  V30 4 C -2.6254 0.0354 0.0 0
M  V30 5 C -2.649 -1.4309 0.0 0
M  V30 6 C -3.9381 0.7923 0.0 0
M  V30 7 C -3.9618 -2.1523 0.0 0
M  V30 8 C -5.2508 0.0709 0.0 0
M  V30 9 C -5.2745 -1.3955 0.0 0
M  V30 10 S -6.5872 -2.1169 0.0 0
M  V30 11 C -7.8999 -1.36 0.0 0
M  V30 END ATOM
M  V30 BEGIN BOND
M  V30 1 1 1 2
M  V30 2 2 2 3
M  V30 3 1 2 4
M  V30 4 2 4 5
M  V30 5 1 4 6
M  V30 6 1 5 7
M  V30 7 2 6 8
M  V30 8 2 7 9
M  V30 9 1 9 10
M  V30 10 1 10 11
M  V30 11 1 8 9
M  V30 END BOND
M  V30 END CTAB
M  END
>  <Dotmatics_CR>
R-005792

>  <CR_Set>
Acyl_chloride

>  <Category>
Carbonyl Chlorides Aromatic

>  <Reaction type>
Amidation

>  <KI/BB_Nature>
Amine

>  <Comments>


>  <Salt>


>  <CR_Chiral_Form>


>  <Prod_total_used>


>  <PSR (%)>


>  <Article>
4-(methylthio)benzoyl chloride

>  <CAS>
1442-06-4

>  <Density>


>  <Prod_reagent_number>


>  <Stereocenters>
0

>  <NB_Name reaction - KI/BB – Capping>
05-Amidation_Amine_Acyl_chloride

$$$$
R-008790
Actelion Java MolfileCreator 2.0

  0  0  0  0  0  0              0 V3000
M  V30 BEGIN CTAB
M  V30 COUNTS 12 12 0 0 0
M  V30 BEGIN ATOM
M  V30 1 Cl 0.0 0.0 0.0 0
M  V30 2 C 1.3555 0.6421 0.0 0
M  V30 3 O 1.4863 2.1641 0.0 0
M  V30 4 C 2.5565 -0.2259 0.0 0
M  V30 5 C 3.9715 0.2616 0.0 0
M  V30 6 C 2.5327 -1.7123 0.0 0
M  V30 7 N 4.8396 -0.9393 0.0 0
M  V30 8 C 4.4115 1.7241 0.0 0
M  V30 9 N 3.9478 -2.1522 0.0 0
M  V30 10 F 3.377 2.8657 0.0 0
M  V30 11 F 5.8622 2.0571 0.0 0
M  V30 12 C 4.3877 -3.5672 0.0 0
M  V30 END ATOM
M  V30 BEGIN BOND
M  V30 1 1 1 2
M  V30 2 2 2 3
M  V30 3 1 2 4
M  V30 4 1 4 5
M  V30 5 2 4 6
M  V30 6 2 5 7
M  V30 7 1 5 8
M  V30 8 1 6 9
M  V30 9 1 8 10
M  V30 10 1 8 11
M  V30 11 1 9 12
M  V30 12 1 7 9
M  V30 END BOND
M  V30 END CTAB
M  END
>  <Dotmatics_CR>
R-008790

>  <CR_Set>
Acyl_chloride

>  <Category>
Carbonyl Chlorides Aromatic

>  <Reaction type>
Amidation

>  <KI/BB_Nature>
Amine

>  <Comments>


>  <Salt>


>  <CR_Chiral_Form>


>  <Prod_total_used>
6

>  <PSR (%)>
100

>  <Article>
3-(Difluoromethyl)-1-methyl-1H-pyrazole-4-carbonyl chloride

>  <CAS>
141573-96-8

>  <Density>


>  <Prod_reagent_number>


>  <Stereocenters>
0

>  <NB_Name reaction - KI/BB – Capping>
05-Amidation_Amine_Acyl_chloride

$$$$
R-008805
Actelion Java MolfileCreator 2.0

  0  0  0  0  0  0              0 V3000
M  V30 BEGIN CTAB
M  V30 COUNTS 7 6 0 0 0
M  V30 BEGIN ATOM
M  V30 1 Cl 0.0 0.0 0.0 0
M  V30 2 C -1.3004 0.7615 0.0 0
M  V30 3 O -1.3238 2.2611 0.0 0
M  V30 4 C -2.6009 0.0351 0.0 0
M  V30 5 O -3.9013 0.7966 0.0 0
M  V30 6 C -5.2018 0.0702 0.0 0
M  V30 7 C -6.5022 0.8318 0.0 0
M  V30 END ATOM
M  V30 BEGIN BOND
M  V30 1 1 1 2
M  V30 2 2 2 3
M  V30 3 1 2 4
M  V30 4 1 4 5
M  V30 5 1 5 6
M  V30 6 1 6 7
M  V30 END BOND
M  V30 END CTAB
M  END
>  <Dotmatics_CR>
R-008805

>  <CR_Set>
Acyl_chloride

>  <Category>
Carbonyl Chlorides Non-Aromatic

>  <Reaction type>
Amidation

>  <KI/BB_Nature>
Amine

>  <Comments>


>  <Salt>


>  <CR_Chiral_Form>


>  <Prod_total_used>
46

>  <PSR (%)>
100

>  <Article>
2-Ethoxyacetyl chloride

>  <CAS>
14077-58-8

>  <Density>
1.119

>  <Prod_reagent_number>


>  <Stereocenters>
0

>  <NB_Name reaction - KI/BB – Capping>
05-Amidation_Amine_Acyl_chloride

$$$$
R-007505
Actelion Java MolfileCreator 2.0

  0  0  0  0  0  0              0 V3000
M  V30 BEGIN CTAB
M  V30 COUNTS 7 6 0 0 0
M  V30 BEGIN ATOM
M  V30 1 Cl 0.0 0.0 0.0 0
M  V30 2 C -1.3048 0.7523 0.0 0
M  V30 3 O -1.3283 2.257 0.0 0
M  V30 4 C -2.6097 0.0352 0.0 0
M  V30 5 C -3.9145 0.7876 0.0 0
M  V30 6 C -5.2194 0.0705 0.0 0
M  V30 7 C -3.938 2.2923 0.0 0
M  V30 END ATOM
M  V30 BEGIN BOND
M  V30 1 1 1 2
M  V30 2 2 2 3
M  V30 3 1 2 4
M  V30 4 1 4 5
M  V30 5 1 5 6
M  V30 6 1 5 7
M  V30 END BOND
M  V30 END CTAB
M  END
>  <Dotmatics_CR>
R-007505

>  <CR_Set>
Acyl_chloride

>  <Category>
Carbonyl Chlorides Non-Aromatic

>  <Reaction type>
Amidation

>  <KI/BB_Nature>
Amine

>  <Comments>


>  <Salt>


>  <CR_Chiral_Form>


>  <Prod_total_used>
42

>  <PSR (%)>
93

>  <Article>
ISOVALERYL CHLORIDE

>  <CAS>
108-12-3

>  <Density>
0.989

>  <Prod_reagent_number>


>  <Stereocenters>
0

>  <NB_Name reaction - KI/BB – Capping>
05-Amidation_Amine_Acyl_chloride

$$$$
R-007689
Actelion Java MolfileCreator 2.0

  0  0  0  0  0  0              0 V3000
M  V30 BEGIN CTAB
M  V30 COUNTS 10 10 0 0 0
M  V30 BEGIN ATOM
M  V30 1 Cl 0.0 0.0 0.0 0
M  V30 2 C -0.7655 1.3073 0.0 0
M  V30 3 O -0.0353 2.6146 0.0 0
M  V30 4 C -2.273 1.3308 0.0 0
M  V30 5 C -3.0386 0.0706 0.0 0
M  V30 6 C -4.5461 0.0942 0.0 0
M  V30 7 C -5.4412 1.319 0.0 0
M  V30 8 C -5.4412 -1.0835 0.0 0
M  V30 9 C -6.8781 0.8833 0.0 0
M  V30 10 C -6.8781 -0.6006 0.0 0
M  V30 END ATOM
M  V30 BEGIN BOND
M  V30 1 1 1 2
M  V30 2 2 2 3
M  V30 3 1 2 4
M  V30 4 1 4 5
M  V30 5 1 5 6
M  V30 6 1 6 7
M  V30 7 1 6 8
M  V30 8 1 7 9
M  V30 9 1 8 10
M  V30 10 1 9 10
M  V30 END BOND
M  V30 END CTAB
M  END
>  <Dotmatics_CR>
R-007689

>  <CR_Set>
Acyl_chloride

>  <Category>
Carbonyl Chlorides Non-Aromatic

>  <Reaction type>
Amidation

>  <KI/BB_Nature>
Amine

>  <Comments>


>  <Salt>


>  <CR_Chiral_Form>


>  <Prod_total_used>
1

>  <PSR (%)>
100

>  <Article>
cyclopentanepropionyl chloride

>  <CAS>
104-97-2

>  <Density>
1.049

>  <Prod_reagent_number>


>  <Stereocenters>
0

>  <NB_Name reaction - KI/BB – Capping>
05-Amidation_Amine_Acyl_chloride

$$$$
R-001270
Actelion Java MolfileCreator 2.0

  0  0  0  0  0  0              0 V3000
M  V30 BEGIN CTAB
M  V30 COUNTS 11 11 0 0 0
M  V30 BEGIN ATOM
M  V30 1 Cl 0.0 0.0 0.0 0
M  V30 2 C 1.2978 0.7811 0.0 0
M  V30 3 O 1.2738 2.3192 0.0 0
M  V30 4 C 2.5956 0.036 0.0 0
M  V30 5 C 2.5476 -1.454 0.0 0
M  V30 6 C 3.9055 0.8051 0.0 0
M  V30 7 C 3.8334 -2.2111 0.0 0
M  V30 8 C 5.1913 0.06 0.0 0
M  V30 9 C 5.1312 -1.442 0.0 0
M  V30 10 O 6.393 -2.1991 0.0 0
M  V30 11 C 6.3449 -3.6772 0.0 0
M  V30 END ATOM
M  V30 BEGIN BOND
M  V30 1 1 1 2
M  V30 2 2 2 3
M  V30 3 1 2 4
M  V30 4 2 4 5
M  V30 5 1 4 6
M  V30 6 1 5 7
M  V30 7 2 6 8
M  V30 8 2 7 9
M  V30 9 1 9 10
M  V30 10 1 10 11
M  V30 11 1 8 9
M  V30 END BOND
M  V30 END CTAB
M  END
>  <Dotmatics_CR>
R-001270

>  <CR_Set>
Acyl_chloride

>  <Category>
Carbonyl Chlorides Aromatic

>  <Reaction type>
Amidation

>  <KI/BB_Nature>
Amine

>  <Comments>


>  <Salt>


>  <CR_Chiral_Form>


>  <Prod_total_used>
1

>  <PSR (%)>
100

>  <Article>
p-ANISOYL CHLORIDE

>  <CAS>
100-07-2

>  <Density>
1

>  <Prod_reagent_number>


>  <Stereocenters>
0

>  <NB_Name reaction - KI/BB – Capping>
05-Amidation_Amine_Acyl_chloride

$$$$
