ctx_ref.pdb
 OpenBabel08272609323D

 73 78  0  0  0  0  0  0  0  0999 V2000
   26.9470    0.3540  -27.3300 C   0  0  0  0  0  0  0  0  0  0  0  0
   29.8250    4.9020  -22.3860 C   0  0  0  0  0  0  0  0  0  0  0  0
   30.8430    5.9470  -22.4770 C   0  0  0  0  0  0  0  0  0  0  0  0
   31.2020    8.3460  -22.8270 C   0  0  0  0  0  0  0  0  0  0  0  0
   32.2700    8.3030  -23.8870 C   0  0  0  0  0  0  0  0  0  0  0  0
   32.0290    7.7170  -25.1190 C   0  0  0  0  0  0  0  0  0  0  0  0
   33.0080    7.6670  -26.0860 C   0  0  0  0  0  0  0  0  0  0  0  0
   34.2710    8.1990  -25.8400 C   0  0  0  0  0  0  0  0  0  0  0  0
   35.0710    8.7310  -28.1420 C   0  0  0  0  0  0  0  0  0  0  0  0
   36.0940    8.1960  -29.1140 C   0  0  0  0  0  0  0  0  0  0  0  0
   38.4270    7.6480  -29.3690 C   0  0  0  0  0  0  0  0  0  0  0  0
   26.2700    1.6820  -27.4130 C   0  0  0  0  0  0  0  0  0  0  0  0
   37.6270    8.5250  -27.2540 C   0  0  0  0  0  0  0  0  0  0  0  0
   36.6010    7.6670  -26.5560 C   0  0  0  0  0  0  0  0  0  0  0  0
   34.5060    8.7930  -24.6020 C   0  0  0  0  0  0  0  0  0  0  0  0
   33.5220    8.8320  -23.6400 C   0  0  0  0  0  0  0  0  0  0  0  0
   27.8490    3.9970  -23.1470 C   0  0  0  0  0  0  0  0  0  0  0  0
   26.7260    4.0550  -24.1530 C   0  0  0  0  0  0  0  0  0  0  0  0
   25.4430    3.6200  -28.2350 C   0  0  0  0  0  0  0  0  0  0  0  0
   25.1130    4.6370  -29.1050 C   0  0  0  0  0  0  0  0  0  0  0  0
   25.5190    4.4740  -30.4090 C   0  0  0  0  0  0  0  0  0  0  0  0
   26.2170    3.3450  -30.8170 C   0  0  0  0  0  0  0  0  0  0  0  0
   25.6560    2.3880  -26.4310 C   0  0  0  0  0  0  0  0  0  0  0  0
   26.5310    2.3400  -29.9350 C   0  0  0  0  0  0  0  0  0  0  0  0
   26.1380    2.4780  -28.6040 C   0  0  0  0  0  0  0  0  0  0  0  0
   25.4990    2.0520  -25.0560 C   0  0  0  0  0  0  0  0  0  0  0  0
   25.5300    2.5380  -22.6500 C   0  0  0  0  0  0  0  0  0  0  0  0
   26.7880    1.9710  -22.0500 C   0  0  0  0  0  0  0  0  0  0  0  0
   27.8800    2.9940  -22.1750 C   0  0  0  0  0  0  0  0  0  0  0  0
   28.9380    2.9900  -21.2810 C   0  0  0  0  0  0  0  0  0  0  0  0
   29.9270    3.9370  -21.3670 C   0  0  0  0  0  0  0  0  0  0  0  0
   25.8620    2.8690  -24.0380 N   0  0  0  0  0  0  0  0  0  0  0  0
   30.3790    7.1480  -22.8190 N   0  0  0  0  0  0  0  0  0  0  0  0
   35.2500    8.1760  -26.7970 N   0  0  0  0  0  0  0  0  0  0  0  0
   37.4620    8.5250  -28.7100 N   0  3  0  0  0  0  0  0  0  0  0  0
   28.8120    4.9270  -23.2350 N   0  0  0  0  0  0  0  0  0  0  0  0
   25.0460    0.9370  -24.8260 O   0  0  0  0  0  0  0  0  0  0  0  0
   32.0130    5.7190  -22.1870 O   0  0  0  0  0  0  0  0  0  0  0  0
   25.1410    3.5860  -26.9030 O   0  0  0  0  0  0  0  0  0  0  0  0
   27.3264    0.0862  -28.2940 H   0  0  0  0  0  0  0  0  0  0  0  0
   26.2444   -0.3848  -27.0053 H   0  0  0  0  0  0  0  0  0  0  0  0
   27.7554    0.4088  -26.6312 H   0  0  0  0  0  0  0  0  0  0  0  0
   30.5736    9.1931  -23.0069 H   0  0  0  0  0  0  0  0  0  0  0  0
   31.6889    8.4130  -21.8766 H   0  0  0  0  0  0  0  0  0  0  0  0
   31.1006    7.3113  -25.3152 H   0  0  0  0  0  0  0  0  0  0  0  0
   32.8042    7.2322  -26.9995 H   0  0  0  0  0  0  0  0  0  0  0  0
   34.0933    8.4758  -28.4939 H   0  0  0  0  0  0  0  0  0  0  0  0
   35.1953    9.7920  -28.0814 H   0  0  0  0  0  0  0  0  0  0  0  0
   35.9963    7.1318  -29.1668 H   0  0  0  0  0  0  0  0  0  0  0  0
   35.9132    8.6501  -30.0659 H   0  0  0  0  0  0  0  0  0  0  0  0
   38.2716    7.6780  -30.4272 H   0  0  0  0  0  0  0  0  0  0  0  0
   38.2963    6.6459  -29.0175 H   0  0  0  0  0  0  0  0  0  0  0  0
   39.4199    7.9779  -29.1449 H   0  0  0  0  0  0  0  0  0  0  0  0
   37.5334    9.5297  -26.8981 H   0  0  0  0  0  0  0  0  0  0  0  0
   38.5927    8.1188  -27.0364 H   0  0  0  0  0  0  0  0  0  0  0  0
   36.7958    7.6725  -25.5039 H   0  0  0  0  0  0  0  0  0  0  0  0
   36.6668    6.6708  -26.9408 H   0  0  0  0  0  0  0  0  0  0  0  0
   35.4293    9.2090  -24.4035 H   0  0  0  0  0  0  0  0  0  0  0  0
   33.7221    9.2616  -22.7233 H   0  0  0  0  0  0  0  0  0  0  0  0
   26.1415    4.9337  -23.9765 H   0  0  0  0  0  0  0  0  0  0  0  0
   27.1465    4.0799  -25.1366 H   0  0  0  0  0  0  0  0  0  0  0  0
   24.5916    5.4722  -28.7959 H   0  0  0  0  0  0  0  0  0  0  0  0
   25.2997    5.2080  -31.1005 H   0  0  0  0  0  0  0  0  0  0  0  0
   26.5060    3.2592  -31.8040 H   0  0  0  0  0  0  0  0  0  0  0  0
   27.0455    1.5026  -30.2497 H   0  0  0  0  0  0  0  0  0  0  0  0
   24.7430    1.8138  -22.6179 H   0  0  0  0  0  0  0  0  0  0  0  0
   25.1902    3.3977  -22.1112 H   0  0  0  0  0  0  0  0  0  0  0  0
   27.0670    1.0799  -22.5725 H   0  0  0  0  0  0  0  0  0  0  0  0
   26.6267    1.7317  -21.0196 H   0  0  0  0  0  0  0  0  0  0  0  0
   28.9827    2.2688  -20.5442 H   0  0  0  0  0  0  0  0  0  0  0  0
   30.7196    3.9414  -20.7061 H   0  0  0  0  0  0  0  0  0  0  0  0
   29.4328    7.2280  -23.0789 H   0  0  0  0  0  0  0  0  0  0  0  0
   37.6487    9.4792  -29.0184 H   0  0  0  0  0  0  0  0  0  0  0  0
  1 40  1  0  0  0  0
  1 41  1  0  0  0  0
  1 42  1  0  0  0  0
  2 31  1  0  0  0  0
  3  2  1  0  0  0  0
  3 38  2  0  0  0  0
  4 33  1  0  0  0  0
  4 43  1  0  0  0  0
  4 44  1  0  0  0  0
  5 16  1  0  0  0  0
  5  4  1  0  0  0  0
  6  5  2  0  0  0  0
  6 45  1  0  0  0  0
  7  8  2  0  0  0  0
  7  6  1  0  0  0  0
  7 46  1  0  0  0  0
  8 15  1  0  0  0  0
  9 34  1  0  0  0  0
  9 47  1  0  0  0  0
  9 48  1  0  0  0  0
 10 35  1  0  0  0  0
 10  9  1  0  0  0  0
 10 49  1  0  0  0  0
 10 50  1  0  0  0  0
 11 35  1  0  0  0  0
 11 51  1  0  0  0  0
 11 52  1  0  0  0  0
 11 53  1  0  0  0  0
 12  1  1  0  0  0  0
 12 23  2  0  0  0  0
 13 14  1  0  0  0  0
 13 54  1  0  0  0  0
 13 55  1  0  0  0  0
 14 56  1  0  0  0  0
 14 57  1  0  0  0  0
 15 16  2  0  0  0  0
 15 58  1  0  0  0  0
 16 59  1  0  0  0  0
 17 29  2  0  0  0  0
 18 32  1  0  0  0  0
 18 17  1  0  0  0  0
 18 60  1  0  0  0  0
 18 61  1  0  0  0  0
 19 39  1  0  0  0  0
 20 19  2  0  0  0  0
 20 62  1  0  0  0  0
 21 20  1  0  0  0  0
 21 63  1  0  0  0  0
 22 21  2  0  0  0  0
 22 24  1  0  0  0  0
 22 64  1  0  0  0  0
 23 26  1  0  0  0  0
 24 25  2  0  0  0  0
 24 65  1  0  0  0  0
 25 19  1  0  0  0  0
 25 12  1  0  0  0  0
 26 37  2  0  0  0  0
 26 32  1  0  0  0  0
 27 28  1  0  0  0  0
 27 66  1  0  0  0  0
 27 67  1  0  0  0  0
 28 68  1  0  0  0  0
 28 69  1  0  0  0  0
 29 28  1  0  0  0  0
 29 30  1  0  0  0  0
 30 70  1  0  0  0  0
 31 30  2  0  0  0  0
 31 71  1  0  0  0  0
 32 27  1  0  0  0  0
 33  3  1  0  0  0  0
 33 72  1  0  0  0  0
 34 14  1  0  0  0  0
 34  8  1  0  0  0  0
 35 13  1  0  0  0  0
 35 73  1  0  0  0  0
 36 17  1  0  0  0  0
 36  2  2  0  0  0  0
 39 23  1  0  0  0  0
M  CHG  1  35   1
M  END
$$$$
