CDK2-CCNE_ligand_pose1
     RDKit          3D

 73 78  0  0  0  0  0  0  0  0999 V2000
   23.4460   -0.0490  -18.9360 C   0  0  0  0  0  0  0  0  0  0  0  0
   23.2870   -0.7190  -20.2480 C   0  0  0  0  0  0  0  0  0  0  0  0
   23.9290   -0.5380  -21.4810 C   0  0  0  0  0  0  0  0  0  0  0  0
   23.5320    0.3140  -22.6280 C   0  0  0  0  0  0  0  0  0  0  0  0
   22.3690    0.3760  -23.0270 O   0  0  0  0  0  0  0  0  0  0  0  0
   24.5780    0.8820  -23.3750 N   0  0  0  0  0  0  0  0  0  0  0  0
   24.6790    0.7640  -24.8230 C   0  0  0  0  0  0  0  0  0  0  0  0
   25.0930    2.0880  -25.4700 C   0  0  0  0  0  0  0  0  0  0  0  0
   26.1700    2.8230  -24.7030 C   0  0  0  0  0  0  0  0  0  0  0  0
   26.8160    3.9170  -25.2880 C   0  0  0  0  0  0  0  0  0  0  0  0
   27.7810    4.6110  -24.5640 C   0  0  0  0  0  0  0  0  0  0  0  0
   28.0900    4.1890  -23.2740 C   0  0  0  0  0  0  0  0  0  0  0  0
   29.1890    4.9100  -22.5170 C   0  0  0  0  0  0  0  0  0  0  0  0
   29.6780    4.4140  -21.5190 O   0  0  0  0  0  0  0  0  0  0  0  0
   29.5670    6.1410  -23.0150 N   0  0  0  0  0  0  0  0  0  0  0  0
   30.5660    6.9810  -22.3770 C   0  0  0  0  0  0  0  0  0  0  0  0
   31.6790    7.3580  -23.3240 C   0  0  0  0  0  0  0  0  0  0  0  0
   31.4500    7.5360  -24.6920 C   0  0  0  0  0  0  0  0  0  0  0  0
   32.5060    7.8680  -25.5480 C   0  0  0  0  0  0  0  0  0  0  0  0
   33.8150    8.0400  -25.0740 C   0  0  0  0  0  0  0  0  0  0  0  0
   34.8200    8.3680  -25.9820 N   0  0  0  0  0  0  0  0  0  0  0  0
   36.2270    8.2780  -25.5570 C   0  0  0  0  0  0  0  0  0  0  0  0
   37.1050    9.0710  -26.5550 C   0  0  0  0  0  0  0  0  0  0  0  0
   36.9530    8.5980  -27.9520 N   0  0  0  0  0  4  0  0  0  0  0  0
   37.7520    9.4150  -28.8600 C   0  0  0  0  0  0  0  0  0  0  0  0
   35.5190    8.6500  -28.3290 C   0  0  0  0  0  0  0  0  0  0  0  0
   34.6210    7.8500  -27.3530 C   0  0  0  0  0  0  0  0  0  0  0  0
   34.0240    7.9060  -23.6980 C   0  0  0  0  0  0  0  0  0  0  0  0
   32.9730    7.5690  -22.8350 C   0  0  0  0  0  0  0  0  0  0  0  0
   27.4720    3.1320  -22.6660 N   0  0  0  0  0  0  0  0  0  0  0  0
   26.5070    2.4760  -23.3820 C   0  0  0  0  0  0  0  0  0  0  0  0
   25.8080    1.3000  -22.7020 C   0  0  0  0  0  0  0  0  0  0  0  0
   24.2470   -1.8310  -21.8850 O   0  0  0  0  0  0  0  0  0  0  0  0
   23.1930   -2.5680  -21.4540 C   0  0  0  0  0  0  0  0  0  0  0  0
   22.8540   -3.8290  -21.9270 C   0  0  0  0  0  0  0  0  0  0  0  0
   21.6820   -4.3640  -21.4000 C   0  0  0  0  0  0  0  0  0  0  0  0
   20.9360   -3.6960  -20.4230 C   0  0  0  0  0  0  0  0  0  0  0  0
   21.3470   -2.4530  -19.9220 C   0  0  0  0  0  0  0  0  0  0  0  0
   22.4880   -1.8700  -20.4830 C   0  0  0  0  0  0  0  0  0  0  0  0
   23.2733   -0.7767  -18.1294 H   0  0  0  0  0  0  0  0  0  0  0  0
   24.4652    0.3562  -18.8523 H   0  0  0  0  0  0  0  0  0  0  0  0
   22.7175    0.7709  -18.8523 H   0  0  0  0  0  0  0  0  0  0  0  0
   25.4295   -0.0023  -25.0670 H   0  0  0  0  0  0  0  0  0  0  0  0
   23.6898    0.4848  -25.2147 H   0  0  0  0  0  0  0  0  0  0  0  0
   25.4679    1.8785  -26.4827 H   0  0  0  0  0  0  0  0  0  0  0  0
   24.2037    2.7354  -25.4803 H   0  0  0  0  0  0  0  0  0  0  0  0
   26.5632    4.2266  -26.3128 H   0  0  0  0  0  0  0  0  0  0  0  0
   28.2918    5.4799  -25.0045 H   0  0  0  0  0  0  0  0  0  0  0  0
   29.1400    6.4650  -23.8410 H   0  0  0  0  0  0  0  0  0  0  0  0
   30.0797    7.8998  -22.0174 H   0  0  0  0  0  0  0  0  0  0  0  0
   31.0068    6.4113  -21.5456 H   0  0  0  0  0  0  0  0  0  0  0  0
   30.4346    7.4144  -25.0972 H   0  0  0  0  0  0  0  0  0  0  0  0
   32.3042    7.9976  -26.6215 H   0  0  0  0  0  0  0  0  0  0  0  0
   36.3362    8.7051  -24.5492 H   0  0  0  0  0  0  0  0  0  0  0  0
   36.5435    7.2247  -25.5381 H   0  0  0  0  0  0  0  0  0  0  0  0
   36.8186   10.1321  -26.5096 H   0  0  0  0  0  0  0  0  0  0  0  0
   38.1555    8.9205  -26.2657 H   0  0  0  0  0  0  0  0  0  0  0  0
   37.2850    7.6360  -28.0210 H   0  0  0  0  0  0  0  0  0  0  0  0
   38.4038   10.0815  -28.2761 H   0  0  0  0  0  0  0  0  0  0  0  0
   38.3693    8.7616  -29.4941 H   0  0  0  0  0  0  0  0  0  0  0  0
   37.0851   10.0176  -29.4941 H   0  0  0  0  0  0  0  0  0  0  0  0
   35.1919    9.7003  -28.3292 H   0  0  0  0  0  0  0  0  0  0  0  0
   35.4182    8.1954  -29.3256 H   0  0  0  0  0  0  0  0  0  0  0  0
   33.5662    7.9671  -27.6421 H   0  0  0  0  0  0  0  0  0  0  0  0
   34.8890    6.7838  -27.3902 H   0  0  0  0  0  0  0  0  0  0  0  0
   35.0310    8.0680  -23.2859 H   0  0  0  0  0  0  0  0  0  0  0  0
   33.1679    7.4688  -21.7571 H   0  0  0  0  0  0  0  0  0  0  0  0
   26.5017    0.4465  -22.6834 H   0  0  0  0  0  0  0  0  0  0  0  0
   25.5265    1.6320  -21.6918 H   0  0  0  0  0  0  0  0  0  0  0  0
   23.4676   -4.3664  -22.6651 H   0  0  0  0  0  0  0  0  0  0  0  0
   21.3318   -5.3416  -21.7627 H   0  0  0  0  0  0  0  0  0  0  0  0
   20.0114   -4.1539  -20.0416 H   0  0  0  0  0  0  0  0  0  0  0  0
   20.7911   -1.9531  -19.1151 H   0  0  0  0  0  0  0  0  0  0  0  0
  1  2  1  0
  2  3  2  0
  3  4  1  0
  4  5  2  0
  4  6  1  0
  6  7  1  0
  7  8  1  0
  8  9  1  0
  9 10  2  0
 10 11  1  0
 11 12  2  0
 12 13  1  0
 13 14  2  0
 13 15  1  0
 15 16  1  0
 16 17  1  0
 17 18  2  0
 18 19  1  0
 19 20  2  0
 20 21  1  0
 21 22  1  0
 22 23  1  0
 23 24  1  0
 24 25  1  0
 24 26  1  0
 26 27  1  0
 20 28  1  0
 28 29  2  0
 12 30  1  0
 30 31  2  0
 31 32  1  0
  3 33  1  0
 33 34  1  0
 34 35  2  0
 35 36  1  0
 36 37  2  0
 37 38  1  0
 38 39  2  0
 39  2  1  0
 32  6  1  0
 39 34  1  0
 31  9  1  0
 29 17  1  0
 27 21  1  0
  1 40  1  0
  1 41  1  0
  1 42  1  0
  7 43  1  0
  7 44  1  0
  8 45  1  0
  8 46  1  0
 10 47  1  0
 11 48  1  0
 15 49  1  0
 16 50  1  0
 16 51  1  0
 18 52  1  0
 19 53  1  0
 22 54  1  0
 22 55  1  0
 23 56  1  0
 23 57  1  0
 24 58  1  0
 25 59  1  0
 25 60  1  0
 25 61  1  0
 26 62  1  0
 26 63  1  0
 27 64  1  0
 27 65  1  0
 28 66  1  0
 29 67  1  0
 32 68  1  0
 32 69  1  0
 35 70  1  0
 36 71  1  0
 37 72  1  0
 38 73  1  0
M  CHG  1  24   1
M  END
>  <meeko>  (1) 
{"is_sidechain": false}

>  <Vina_affinity_kcal_mol>  (1) 
-12.61

$$$$
CDK2-CCNE_ligand_pose2
     RDKit          3D

 73 78  0  0  0  0  0  0  0  0999 V2000
   23.4460   -0.0490  -18.9360 C   0  0  0  0  0  0  0  0  0  0  0  0
   23.2870   -0.7190  -20.2480 C   0  0  0  0  0  0  0  0  0  0  0  0
   23.9290   -0.5380  -21.4810 C   0  0  0  0  0  0  0  0  0  0  0  0
   23.5320    0.3140  -22.6280 C   0  0  0  0  0  0  0  0  0  0  0  0
   22.3690    0.3760  -23.0270 O   0  0  0  0  0  0  0  0  0  0  0  0
   24.5780    0.8820  -23.3750 N   0  0  0  0  0  0  0  0  0  0  0  0
   24.6790    0.7640  -24.8230 C   0  0  0  0  0  0  0  0  0  0  0  0
   25.0930    2.0880  -25.4700 C   0  0  0  0  0  0  0  0  0  0  0  0
   26.1700    2.8230  -24.7030 C   0  0  0  0  0  0  0  0  0  0  0  0
   26.8160    3.9170  -25.2880 C   0  0  0  0  0  0  0  0  0  0  0  0
   27.7810    4.6110  -24.5640 C   0  0  0  0  0  0  0  0  0  0  0  0
   28.0900    4.1890  -23.2740 C   0  0  0  0  0  0  0  0  0  0  0  0
   29.1890    4.9100  -22.5170 C   0  0  0  0  0  0  0  0  0  0  0  0
   29.6780    4.4140  -21.5190 O   0  0  0  0  0  0  0  0  0  0  0  0
   29.5670    6.1410  -23.0150 N   0  0  0  0  0  0  0  0  0  0  0  0
   30.5660    6.9810  -22.3770 C   0  0  0  0  0  0  0  0  0  0  0  0
   31.6790    7.3580  -23.3240 C   0  0  0  0  0  0  0  0  0  0  0  0
   31.4500    7.5360  -24.6920 C   0  0  0  0  0  0  0  0  0  0  0  0
   32.5060    7.8680  -25.5480 C   0  0  0  0  0  0  0  0  0  0  0  0
   33.8150    8.0400  -25.0740 C   0  0  0  0  0  0  0  0  0  0  0  0
   34.8200    8.3680  -25.9820 N   0  0  0  0  0  0  0  0  0  0  0  0
   36.2270    8.2780  -25.5570 C   0  0  0  0  0  0  0  0  0  0  0  0
   37.1050    9.0710  -26.5550 C   0  0  0  0  0  0  0  0  0  0  0  0
   36.9530    8.5980  -27.9520 N   0  0  0  0  0  4  0  0  0  0  0  0
   37.7520    9.4150  -28.8600 C   0  0  0  0  0  0  0  0  0  0  0  0
   35.5190    8.6500  -28.3290 C   0  0  0  0  0  0  0  0  0  0  0  0
   34.6210    7.8500  -27.3530 C   0  0  0  0  0  0  0  0  0  0  0  0
   34.0240    7.9060  -23.6980 C   0  0  0  0  0  0  0  0  0  0  0  0
   32.9730    7.5690  -22.8350 C   0  0  0  0  0  0  0  0  0  0  0  0
   27.4720    3.1320  -22.6660 N   0  0  0  0  0  0  0  0  0  0  0  0
   26.5070    2.4760  -23.3820 C   0  0  0  0  0  0  0  0  0  0  0  0
   25.8080    1.3000  -22.7020 C   0  0  0  0  0  0  0  0  0  0  0  0
   24.2470   -1.8310  -21.8850 O   0  0  0  0  0  0  0  0  0  0  0  0
   23.1930   -2.5680  -21.4540 C   0  0  0  0  0  0  0  0  0  0  0  0
   22.8540   -3.8290  -21.9270 C   0  0  0  0  0  0  0  0  0  0  0  0
   21.6820   -4.3640  -21.4000 C   0  0  0  0  0  0  0  0  0  0  0  0
   20.9360   -3.6960  -20.4230 C   0  0  0  0  0  0  0  0  0  0  0  0
   21.3470   -2.4530  -19.9220 C   0  0  0  0  0  0  0  0  0  0  0  0
   22.4880   -1.8700  -20.4830 C   0  0  0  0  0  0  0  0  0  0  0  0
   23.2733   -0.7767  -18.1294 H   0  0  0  0  0  0  0  0  0  0  0  0
   24.4652    0.3562  -18.8523 H   0  0  0  0  0  0  0  0  0  0  0  0
   22.7175    0.7709  -18.8523 H   0  0  0  0  0  0  0  0  0  0  0  0
   25.4295   -0.0023  -25.0670 H   0  0  0  0  0  0  0  0  0  0  0  0
   23.6898    0.4848  -25.2147 H   0  0  0  0  0  0  0  0  0  0  0  0
   25.4679    1.8785  -26.4827 H   0  0  0  0  0  0  0  0  0  0  0  0
   24.2037    2.7354  -25.4803 H   0  0  0  0  0  0  0  0  0  0  0  0
   26.5632    4.2266  -26.3128 H   0  0  0  0  0  0  0  0  0  0  0  0
   28.2918    5.4799  -25.0045 H   0  0  0  0  0  0  0  0  0  0  0  0
   29.1400    6.4650  -23.8410 H   0  0  0  0  0  0  0  0  0  0  0  0
   30.0797    7.8998  -22.0174 H   0  0  0  0  0  0  0  0  0  0  0  0
   31.0068    6.4113  -21.5456 H   0  0  0  0  0  0  0  0  0  0  0  0
   30.4346    7.4144  -25.0972 H   0  0  0  0  0  0  0  0  0  0  0  0
   32.3042    7.9976  -26.6215 H   0  0  0  0  0  0  0  0  0  0  0  0
   36.3362    8.7051  -24.5492 H   0  0  0  0  0  0  0  0  0  0  0  0
   36.5435    7.2247  -25.5381 H   0  0  0  0  0  0  0  0  0  0  0  0
   36.8186   10.1321  -26.5096 H   0  0  0  0  0  0  0  0  0  0  0  0
   38.1555    8.9205  -26.2657 H   0  0  0  0  0  0  0  0  0  0  0  0
   37.2850    7.6360  -28.0210 H   0  0  0  0  0  0  0  0  0  0  0  0
   38.4038   10.0815  -28.2761 H   0  0  0  0  0  0  0  0  0  0  0  0
   38.3693    8.7616  -29.4941 H   0  0  0  0  0  0  0  0  0  0  0  0
   37.0851   10.0176  -29.4941 H   0  0  0  0  0  0  0  0  0  0  0  0
   35.1919    9.7003  -28.3292 H   0  0  0  0  0  0  0  0  0  0  0  0
   35.4182    8.1954  -29.3256 H   0  0  0  0  0  0  0  0  0  0  0  0
   33.5662    7.9671  -27.6421 H   0  0  0  0  0  0  0  0  0  0  0  0
   34.8890    6.7838  -27.3902 H   0  0  0  0  0  0  0  0  0  0  0  0
   35.0310    8.0680  -23.2859 H   0  0  0  0  0  0  0  0  0  0  0  0
   33.1679    7.4688  -21.7571 H   0  0  0  0  0  0  0  0  0  0  0  0
   26.5017    0.4465  -22.6834 H   0  0  0  0  0  0  0  0  0  0  0  0
   25.5265    1.6320  -21.6918 H   0  0  0  0  0  0  0  0  0  0  0  0
   23.4676   -4.3664  -22.6651 H   0  0  0  0  0  0  0  0  0  0  0  0
   21.3318   -5.3416  -21.7627 H   0  0  0  0  0  0  0  0  0  0  0  0
   20.0114   -4.1539  -20.0416 H   0  0  0  0  0  0  0  0  0  0  0  0
   20.7911   -1.9531  -19.1151 H   0  0  0  0  0  0  0  0  0  0  0  0
  1  2  1  0
  2  3  2  0
  3  4  1  0
  4  5  2  0
  4  6  1  0
  6  7  1  0
  7  8  1  0
  8  9  1  0
  9 10  2  0
 10 11  1  0
 11 12  2  0
 12 13  1  0
 13 14  2  0
 13 15  1  0
 15 16  1  0
 16 17  1  0
 17 18  2  0
 18 19  1  0
 19 20  2  0
 20 21  1  0
 21 22  1  0
 22 23  1  0
 23 24  1  0
 24 25  1  0
 24 26  1  0
 26 27  1  0
 20 28  1  0
 28 29  2  0
 12 30  1  0
 30 31  2  0
 31 32  1  0
  3 33  1  0
 33 34  1  0
 34 35  2  0
 35 36  1  0
 36 37  2  0
 37 38  1  0
 38 39  2  0
 39  2  1  0
 32  6  1  0
 39 34  1  0
 31  9  1  0
 29 17  1  0
 27 21  1  0
  1 40  1  0
  1 41  1  0
  1 42  1  0
  7 43  1  0
  7 44  1  0
  8 45  1  0
  8 46  1  0
 10 47  1  0
 11 48  1  0
 15 49  1  0
 16 50  1  0
 16 51  1  0
 18 52  1  0
 19 53  1  0
 22 54  1  0
 22 55  1  0
 23 56  1  0
 23 57  1  0
 24 58  1  0
 25 59  1  0
 25 60  1  0
 25 61  1  0
 26 62  1  0
 26 63  1  0
 27 64  1  0
 27 65  1  0
 28 66  1  0
 29 67  1  0
 32 68  1  0
 32 69  1  0
 35 70  1  0
 36 71  1  0
 37 72  1  0
 38 73  1  0
M  CHG  1  24   1
M  END
>  <meeko>  (2) 
{"is_sidechain": false}

>  <Vina_affinity_kcal_mol>  (2) 
-12.2

$$$$
CDK2-CCNE_ligand_pose3
     RDKit          3D

 73 78  0  0  0  0  0  0  0  0999 V2000
   23.4460   -0.0490  -18.9360 C   0  0  0  0  0  0  0  0  0  0  0  0
   23.2870   -0.7190  -20.2480 C   0  0  0  0  0  0  0  0  0  0  0  0
   23.9290   -0.5380  -21.4810 C   0  0  0  0  0  0  0  0  0  0  0  0
   23.5320    0.3140  -22.6280 C   0  0  0  0  0  0  0  0  0  0  0  0
   22.3690    0.3760  -23.0270 O   0  0  0  0  0  0  0  0  0  0  0  0
   24.5780    0.8820  -23.3750 N   0  0  0  0  0  0  0  0  0  0  0  0
   24.6790    0.7640  -24.8230 C   0  0  0  0  0  0  0  0  0  0  0  0
   25.0930    2.0880  -25.4700 C   0  0  0  0  0  0  0  0  0  0  0  0
   26.1700    2.8230  -24.7030 C   0  0  0  0  0  0  0  0  0  0  0  0
   26.8160    3.9170  -25.2880 C   0  0  0  0  0  0  0  0  0  0  0  0
   27.7810    4.6110  -24.5640 C   0  0  0  0  0  0  0  0  0  0  0  0
   28.0900    4.1890  -23.2740 C   0  0  0  0  0  0  0  0  0  0  0  0
   29.1890    4.9100  -22.5170 C   0  0  0  0  0  0  0  0  0  0  0  0
   29.6780    4.4140  -21.5190 O   0  0  0  0  0  0  0  0  0  0  0  0
   29.5670    6.1410  -23.0150 N   0  0  0  0  0  0  0  0  0  0  0  0
   30.5660    6.9810  -22.3770 C   0  0  0  0  0  0  0  0  0  0  0  0
   31.6790    7.3580  -23.3240 C   0  0  0  0  0  0  0  0  0  0  0  0
   31.4500    7.5360  -24.6920 C   0  0  0  0  0  0  0  0  0  0  0  0
   32.5060    7.8680  -25.5480 C   0  0  0  0  0  0  0  0  0  0  0  0
   33.8150    8.0400  -25.0740 C   0  0  0  0  0  0  0  0  0  0  0  0
   34.8200    8.3680  -25.9820 N   0  0  0  0  0  0  0  0  0  0  0  0
   36.2270    8.2780  -25.5570 C   0  0  0  0  0  0  0  0  0  0  0  0
   37.1050    9.0710  -26.5550 C   0  0  0  0  0  0  0  0  0  0  0  0
   36.9530    8.5980  -27.9520 N   0  0  0  0  0  4  0  0  0  0  0  0
   37.7520    9.4150  -28.8600 C   0  0  0  0  0  0  0  0  0  0  0  0
   35.5190    8.6500  -28.3290 C   0  0  0  0  0  0  0  0  0  0  0  0
   34.6210    7.8500  -27.3530 C   0  0  0  0  0  0  0  0  0  0  0  0
   34.0240    7.9060  -23.6980 C   0  0  0  0  0  0  0  0  0  0  0  0
   32.9730    7.5690  -22.8350 C   0  0  0  0  0  0  0  0  0  0  0  0
   27.4720    3.1320  -22.6660 N   0  0  0  0  0  0  0  0  0  0  0  0
   26.5070    2.4760  -23.3820 C   0  0  0  0  0  0  0  0  0  0  0  0
   25.8080    1.3000  -22.7020 C   0  0  0  0  0  0  0  0  0  0  0  0
   24.2470   -1.8310  -21.8850 O   0  0  0  0  0  0  0  0  0  0  0  0
   23.1930   -2.5680  -21.4540 C   0  0  0  0  0  0  0  0  0  0  0  0
   22.8540   -3.8290  -21.9270 C   0  0  0  0  0  0  0  0  0  0  0  0
   21.6820   -4.3640  -21.4000 C   0  0  0  0  0  0  0  0  0  0  0  0
   20.9360   -3.6960  -20.4230 C   0  0  0  0  0  0  0  0  0  0  0  0
   21.3470   -2.4530  -19.9220 C   0  0  0  0  0  0  0  0  0  0  0  0
   22.4880   -1.8700  -20.4830 C   0  0  0  0  0  0  0  0  0  0  0  0
   23.2733   -0.7767  -18.1294 H   0  0  0  0  0  0  0  0  0  0  0  0
   24.4652    0.3562  -18.8523 H   0  0  0  0  0  0  0  0  0  0  0  0
   22.7175    0.7709  -18.8523 H   0  0  0  0  0  0  0  0  0  0  0  0
   25.4295   -0.0023  -25.0670 H   0  0  0  0  0  0  0  0  0  0  0  0
   23.6898    0.4848  -25.2147 H   0  0  0  0  0  0  0  0  0  0  0  0
   25.4679    1.8785  -26.4827 H   0  0  0  0  0  0  0  0  0  0  0  0
   24.2037    2.7354  -25.4803 H   0  0  0  0  0  0  0  0  0  0  0  0
   26.5632    4.2266  -26.3128 H   0  0  0  0  0  0  0  0  0  0  0  0
   28.2918    5.4799  -25.0045 H   0  0  0  0  0  0  0  0  0  0  0  0
   29.1400    6.4650  -23.8410 H   0  0  0  0  0  0  0  0  0  0  0  0
   30.0797    7.8998  -22.0174 H   0  0  0  0  0  0  0  0  0  0  0  0
   31.0068    6.4113  -21.5456 H   0  0  0  0  0  0  0  0  0  0  0  0
   30.4346    7.4144  -25.0972 H   0  0  0  0  0  0  0  0  0  0  0  0
   32.3042    7.9976  -26.6215 H   0  0  0  0  0  0  0  0  0  0  0  0
   36.3362    8.7051  -24.5492 H   0  0  0  0  0  0  0  0  0  0  0  0
   36.5435    7.2247  -25.5381 H   0  0  0  0  0  0  0  0  0  0  0  0
   36.8186   10.1321  -26.5096 H   0  0  0  0  0  0  0  0  0  0  0  0
   38.1555    8.9205  -26.2657 H   0  0  0  0  0  0  0  0  0  0  0  0
   37.2850    7.6360  -28.0210 H   0  0  0  0  0  0  0  0  0  0  0  0
   38.4038   10.0815  -28.2761 H   0  0  0  0  0  0  0  0  0  0  0  0
   38.3693    8.7616  -29.4941 H   0  0  0  0  0  0  0  0  0  0  0  0
   37.0851   10.0176  -29.4941 H   0  0  0  0  0  0  0  0  0  0  0  0
   35.1919    9.7003  -28.3292 H   0  0  0  0  0  0  0  0  0  0  0  0
   35.4182    8.1954  -29.3256 H   0  0  0  0  0  0  0  0  0  0  0  0
   33.5662    7.9671  -27.6421 H   0  0  0  0  0  0  0  0  0  0  0  0
   34.8890    6.7838  -27.3902 H   0  0  0  0  0  0  0  0  0  0  0  0
   35.0310    8.0680  -23.2859 H   0  0  0  0  0  0  0  0  0  0  0  0
   33.1679    7.4688  -21.7571 H   0  0  0  0  0  0  0  0  0  0  0  0
   26.5017    0.4465  -22.6834 H   0  0  0  0  0  0  0  0  0  0  0  0
   25.5265    1.6320  -21.6918 H   0  0  0  0  0  0  0  0  0  0  0  0
   23.4676   -4.3664  -22.6651 H   0  0  0  0  0  0  0  0  0  0  0  0
   21.3318   -5.3416  -21.7627 H   0  0  0  0  0  0  0  0  0  0  0  0
   20.0114   -4.1539  -20.0416 H   0  0  0  0  0  0  0  0  0  0  0  0
   20.7911   -1.9531  -19.1151 H   0  0  0  0  0  0  0  0  0  0  0  0
  1  2  1  0
  2  3  2  0
  3  4  1  0
  4  5  2  0
  4  6  1  0
  6  7  1  0
  7  8  1  0
  8  9  1  0
  9 10  2  0
 10 11  1  0
 11 12  2  0
 12 13  1  0
 13 14  2  0
 13 15  1  0
 15 16  1  0
 16 17  1  0
 17 18  2  0
 18 19  1  0
 19 20  2  0
 20 21  1  0
 21 22  1  0
 22 23  1  0
 23 24  1  0
 24 25  1  0
 24 26  1  0
 26 27  1  0
 20 28  1  0
 28 29  2  0
 12 30  1  0
 30 31  2  0
 31 32  1  0
  3 33  1  0
 33 34  1  0
 34 35  2  0
 35 36  1  0
 36 37  2  0
 37 38  1  0
 38 39  2  0
 39  2  1  0
 32  6  1  0
 39 34  1  0
 31  9  1  0
 29 17  1  0
 27 21  1  0
  1 40  1  0
  1 41  1  0
  1 42  1  0
  7 43  1  0
  7 44  1  0
  8 45  1  0
  8 46  1  0
 10 47  1  0
 11 48  1  0
 15 49  1  0
 16 50  1  0
 16 51  1  0
 18 52  1  0
 19 53  1  0
 22 54  1  0
 22 55  1  0
 23 56  1  0
 23 57  1  0
 24 58  1  0
 25 59  1  0
 25 60  1  0
 25 61  1  0
 26 62  1  0
 26 63  1  0
 27 64  1  0
 27 65  1  0
 28 66  1  0
 29 67  1  0
 32 68  1  0
 32 69  1  0
 35 70  1  0
 36 71  1  0
 37 72  1  0
 38 73  1  0
M  CHG  1  24   1
M  END
>  <meeko>  (3) 
{"is_sidechain": false}

>  <Vina_affinity_kcal_mol>  (3) 
-11.14

$$$$
CDK2-CCNE_ligand_pose4
     RDKit          3D

 73 78  0  0  0  0  0  0  0  0999 V2000
   23.4460   -0.0490  -18.9360 C   0  0  0  0  0  0  0  0  0  0  0  0
   23.2870   -0.7190  -20.2480 C   0  0  0  0  0  0  0  0  0  0  0  0
   23.9290   -0.5380  -21.4810 C   0  0  0  0  0  0  0  0  0  0  0  0
   23.5320    0.3140  -22.6280 C   0  0  0  0  0  0  0  0  0  0  0  0
   22.3690    0.3760  -23.0270 O   0  0  0  0  0  0  0  0  0  0  0  0
   24.5780    0.8820  -23.3750 N   0  0  0  0  0  0  0  0  0  0  0  0
   24.6790    0.7640  -24.8230 C   0  0  0  0  0  0  0  0  0  0  0  0
   25.0930    2.0880  -25.4700 C   0  0  0  0  0  0  0  0  0  0  0  0
   26.1700    2.8230  -24.7030 C   0  0  0  0  0  0  0  0  0  0  0  0
   26.8160    3.9170  -25.2880 C   0  0  0  0  0  0  0  0  0  0  0  0
   27.7810    4.6110  -24.5640 C   0  0  0  0  0  0  0  0  0  0  0  0
   28.0900    4.1890  -23.2740 C   0  0  0  0  0  0  0  0  0  0  0  0
   29.1890    4.9100  -22.5170 C   0  0  0  0  0  0  0  0  0  0  0  0
   29.6780    4.4140  -21.5190 O   0  0  0  0  0  0  0  0  0  0  0  0
   29.5670    6.1410  -23.0150 N   0  0  0  0  0  0  0  0  0  0  0  0
   30.5660    6.9810  -22.3770 C   0  0  0  0  0  0  0  0  0  0  0  0
   31.6790    7.3580  -23.3240 C   0  0  0  0  0  0  0  0  0  0  0  0
   31.4500    7.5360  -24.6920 C   0  0  0  0  0  0  0  0  0  0  0  0
   32.5060    7.8680  -25.5480 C   0  0  0  0  0  0  0  0  0  0  0  0
   33.8150    8.0400  -25.0740 C   0  0  0  0  0  0  0  0  0  0  0  0
   34.8200    8.3680  -25.9820 N   0  0  0  0  0  0  0  0  0  0  0  0
   36.2270    8.2780  -25.5570 C   0  0  0  0  0  0  0  0  0  0  0  0
   37.1050    9.0710  -26.5550 C   0  0  0  0  0  0  0  0  0  0  0  0
   36.9530    8.5980  -27.9520 N   0  0  0  0  0  4  0  0  0  0  0  0
   37.7520    9.4150  -28.8600 C   0  0  0  0  0  0  0  0  0  0  0  0
   35.5190    8.6500  -28.3290 C   0  0  0  0  0  0  0  0  0  0  0  0
   34.6210    7.8500  -27.3530 C   0  0  0  0  0  0  0  0  0  0  0  0
   34.0240    7.9060  -23.6980 C   0  0  0  0  0  0  0  0  0  0  0  0
   32.9730    7.5690  -22.8350 C   0  0  0  0  0  0  0  0  0  0  0  0
   27.4720    3.1320  -22.6660 N   0  0  0  0  0  0  0  0  0  0  0  0
   26.5070    2.4760  -23.3820 C   0  0  0  0  0  0  0  0  0  0  0  0
   25.8080    1.3000  -22.7020 C   0  0  0  0  0  0  0  0  0  0  0  0
   24.2470   -1.8310  -21.8850 O   0  0  0  0  0  0  0  0  0  0  0  0
   23.1930   -2.5680  -21.4540 C   0  0  0  0  0  0  0  0  0  0  0  0
   22.8540   -3.8290  -21.9270 C   0  0  0  0  0  0  0  0  0  0  0  0
   21.6820   -4.3640  -21.4000 C   0  0  0  0  0  0  0  0  0  0  0  0
   20.9360   -3.6960  -20.4230 C   0  0  0  0  0  0  0  0  0  0  0  0
   21.3470   -2.4530  -19.9220 C   0  0  0  0  0  0  0  0  0  0  0  0
   22.4880   -1.8700  -20.4830 C   0  0  0  0  0  0  0  0  0  0  0  0
   23.2733   -0.7767  -18.1294 H   0  0  0  0  0  0  0  0  0  0  0  0
   24.4652    0.3562  -18.8523 H   0  0  0  0  0  0  0  0  0  0  0  0
   22.7175    0.7709  -18.8523 H   0  0  0  0  0  0  0  0  0  0  0  0
   25.4295   -0.0023  -25.0670 H   0  0  0  0  0  0  0  0  0  0  0  0
   23.6898    0.4848  -25.2147 H   0  0  0  0  0  0  0  0  0  0  0  0
   25.4679    1.8785  -26.4827 H   0  0  0  0  0  0  0  0  0  0  0  0
   24.2037    2.7354  -25.4803 H   0  0  0  0  0  0  0  0  0  0  0  0
   26.5632    4.2266  -26.3128 H   0  0  0  0  0  0  0  0  0  0  0  0
   28.2918    5.4799  -25.0045 H   0  0  0  0  0  0  0  0  0  0  0  0
   29.1400    6.4650  -23.8410 H   0  0  0  0  0  0  0  0  0  0  0  0
   30.0797    7.8998  -22.0174 H   0  0  0  0  0  0  0  0  0  0  0  0
   31.0068    6.4113  -21.5456 H   0  0  0  0  0  0  0  0  0  0  0  0
   30.4346    7.4144  -25.0972 H   0  0  0  0  0  0  0  0  0  0  0  0
   32.3042    7.9976  -26.6215 H   0  0  0  0  0  0  0  0  0  0  0  0
   36.3362    8.7051  -24.5492 H   0  0  0  0  0  0  0  0  0  0  0  0
   36.5435    7.2247  -25.5381 H   0  0  0  0  0  0  0  0  0  0  0  0
   36.8186   10.1321  -26.5096 H   0  0  0  0  0  0  0  0  0  0  0  0
   38.1555    8.9205  -26.2657 H   0  0  0  0  0  0  0  0  0  0  0  0
   37.2850    7.6360  -28.0210 H   0  0  0  0  0  0  0  0  0  0  0  0
   38.4038   10.0815  -28.2761 H   0  0  0  0  0  0  0  0  0  0  0  0
   38.3693    8.7616  -29.4941 H   0  0  0  0  0  0  0  0  0  0  0  0
   37.0851   10.0176  -29.4941 H   0  0  0  0  0  0  0  0  0  0  0  0
   35.1919    9.7003  -28.3292 H   0  0  0  0  0  0  0  0  0  0  0  0
   35.4182    8.1954  -29.3256 H   0  0  0  0  0  0  0  0  0  0  0  0
   33.5662    7.9671  -27.6421 H   0  0  0  0  0  0  0  0  0  0  0  0
   34.8890    6.7838  -27.3902 H   0  0  0  0  0  0  0  0  0  0  0  0
   35.0310    8.0680  -23.2859 H   0  0  0  0  0  0  0  0  0  0  0  0
   33.1679    7.4688  -21.7571 H   0  0  0  0  0  0  0  0  0  0  0  0
   26.5017    0.4465  -22.6834 H   0  0  0  0  0  0  0  0  0  0  0  0
   25.5265    1.6320  -21.6918 H   0  0  0  0  0  0  0  0  0  0  0  0
   23.4676   -4.3664  -22.6651 H   0  0  0  0  0  0  0  0  0  0  0  0
   21.3318   -5.3416  -21.7627 H   0  0  0  0  0  0  0  0  0  0  0  0
   20.0114   -4.1539  -20.0416 H   0  0  0  0  0  0  0  0  0  0  0  0
   20.7911   -1.9531  -19.1151 H   0  0  0  0  0  0  0  0  0  0  0  0
  1  2  1  0
  2  3  2  0
  3  4  1  0
  4  5  2  0
  4  6  1  0
  6  7  1  0
  7  8  1  0
  8  9  1  0
  9 10  2  0
 10 11  1  0
 11 12  2  0
 12 13  1  0
 13 14  2  0
 13 15  1  0
 15 16  1  0
 16 17  1  0
 17 18  2  0
 18 19  1  0
 19 20  2  0
 20 21  1  0
 21 22  1  0
 22 23  1  0
 23 24  1  0
 24 25  1  0
 24 26  1  0
 26 27  1  0
 20 28  1  0
 28 29  2  0
 12 30  1  0
 30 31  2  0
 31 32  1  0
  3 33  1  0
 33 34  1  0
 34 35  2  0
 35 36  1  0
 36 37  2  0
 37 38  1  0
 38 39  2  0
 39  2  1  0
 32  6  1  0
 39 34  1  0
 31  9  1  0
 29 17  1  0
 27 21  1  0
  1 40  1  0
  1 41  1  0
  1 42  1  0
  7 43  1  0
  7 44  1  0
  8 45  1  0
  8 46  1  0
 10 47  1  0
 11 48  1  0
 15 49  1  0
 16 50  1  0
 16 51  1  0
 18 52  1  0
 19 53  1  0
 22 54  1  0
 22 55  1  0
 23 56  1  0
 23 57  1  0
 24 58  1  0
 25 59  1  0
 25 60  1  0
 25 61  1  0
 26 62  1  0
 26 63  1  0
 27 64  1  0
 27 65  1  0
 28 66  1  0
 29 67  1  0
 32 68  1  0
 32 69  1  0
 35 70  1  0
 36 71  1  0
 37 72  1  0
 38 73  1  0
M  CHG  1  24   1
M  END
>  <meeko>  (4) 
{"is_sidechain": false}

>  <Vina_affinity_kcal_mol>  (4) 
-10.66

$$$$
CDK2-CCNE_ligand_pose5
     RDKit          3D

 73 78  0  0  0  0  0  0  0  0999 V2000
   23.4460   -0.0490  -18.9360 C   0  0  0  0  0  0  0  0  0  0  0  0
   23.2870   -0.7190  -20.2480 C   0  0  0  0  0  0  0  0  0  0  0  0
   23.9290   -0.5380  -21.4810 C   0  0  0  0  0  0  0  0  0  0  0  0
   23.5320    0.3140  -22.6280 C   0  0  0  0  0  0  0  0  0  0  0  0
   22.3690    0.3760  -23.0270 O   0  0  0  0  0  0  0  0  0  0  0  0
   24.5780    0.8820  -23.3750 N   0  0  0  0  0  0  0  0  0  0  0  0
   24.6790    0.7640  -24.8230 C   0  0  0  0  0  0  0  0  0  0  0  0
   25.0930    2.0880  -25.4700 C   0  0  0  0  0  0  0  0  0  0  0  0
   26.1700    2.8230  -24.7030 C   0  0  0  0  0  0  0  0  0  0  0  0
   26.8160    3.9170  -25.2880 C   0  0  0  0  0  0  0  0  0  0  0  0
   27.7810    4.6110  -24.5640 C   0  0  0  0  0  0  0  0  0  0  0  0
   28.0900    4.1890  -23.2740 C   0  0  0  0  0  0  0  0  0  0  0  0
   29.1890    4.9100  -22.5170 C   0  0  0  0  0  0  0  0  0  0  0  0
   29.6780    4.4140  -21.5190 O   0  0  0  0  0  0  0  0  0  0  0  0
   29.5670    6.1410  -23.0150 N   0  0  0  0  0  0  0  0  0  0  0  0
   30.5660    6.9810  -22.3770 C   0  0  0  0  0  0  0  0  0  0  0  0
   31.6790    7.3580  -23.3240 C   0  0  0  0  0  0  0  0  0  0  0  0
   31.4500    7.5360  -24.6920 C   0  0  0  0  0  0  0  0  0  0  0  0
   32.5060    7.8680  -25.5480 C   0  0  0  0  0  0  0  0  0  0  0  0
   33.8150    8.0400  -25.0740 C   0  0  0  0  0  0  0  0  0  0  0  0
   34.8200    8.3680  -25.9820 N   0  0  0  0  0  0  0  0  0  0  0  0
   36.2270    8.2780  -25.5570 C   0  0  0  0  0  0  0  0  0  0  0  0
   37.1050    9.0710  -26.5550 C   0  0  0  0  0  0  0  0  0  0  0  0
   36.9530    8.5980  -27.9520 N   0  0  0  0  0  4  0  0  0  0  0  0
   37.7520    9.4150  -28.8600 C   0  0  0  0  0  0  0  0  0  0  0  0
   35.5190    8.6500  -28.3290 C   0  0  0  0  0  0  0  0  0  0  0  0
   34.6210    7.8500  -27.3530 C   0  0  0  0  0  0  0  0  0  0  0  0
   34.0240    7.9060  -23.6980 C   0  0  0  0  0  0  0  0  0  0  0  0
   32.9730    7.5690  -22.8350 C   0  0  0  0  0  0  0  0  0  0  0  0
   27.4720    3.1320  -22.6660 N   0  0  0  0  0  0  0  0  0  0  0  0
   26.5070    2.4760  -23.3820 C   0  0  0  0  0  0  0  0  0  0  0  0
   25.8080    1.3000  -22.7020 C   0  0  0  0  0  0  0  0  0  0  0  0
   24.2470   -1.8310  -21.8850 O   0  0  0  0  0  0  0  0  0  0  0  0
   23.1930   -2.5680  -21.4540 C   0  0  0  0  0  0  0  0  0  0  0  0
   22.8540   -3.8290  -21.9270 C   0  0  0  0  0  0  0  0  0  0  0  0
   21.6820   -4.3640  -21.4000 C   0  0  0  0  0  0  0  0  0  0  0  0
   20.9360   -3.6960  -20.4230 C   0  0  0  0  0  0  0  0  0  0  0  0
   21.3470   -2.4530  -19.9220 C   0  0  0  0  0  0  0  0  0  0  0  0
   22.4880   -1.8700  -20.4830 C   0  0  0  0  0  0  0  0  0  0  0  0
   23.2733   -0.7767  -18.1294 H   0  0  0  0  0  0  0  0  0  0  0  0
   24.4652    0.3562  -18.8523 H   0  0  0  0  0  0  0  0  0  0  0  0
   22.7175    0.7709  -18.8523 H   0  0  0  0  0  0  0  0  0  0  0  0
   25.4295   -0.0023  -25.0670 H   0  0  0  0  0  0  0  0  0  0  0  0
   23.6898    0.4848  -25.2147 H   0  0  0  0  0  0  0  0  0  0  0  0
   25.4679    1.8785  -26.4827 H   0  0  0  0  0  0  0  0  0  0  0  0
   24.2037    2.7354  -25.4803 H   0  0  0  0  0  0  0  0  0  0  0  0
   26.5632    4.2266  -26.3128 H   0  0  0  0  0  0  0  0  0  0  0  0
   28.2918    5.4799  -25.0045 H   0  0  0  0  0  0  0  0  0  0  0  0
   29.1400    6.4650  -23.8410 H   0  0  0  0  0  0  0  0  0  0  0  0
   30.0797    7.8998  -22.0174 H   0  0  0  0  0  0  0  0  0  0  0  0
   31.0068    6.4113  -21.5456 H   0  0  0  0  0  0  0  0  0  0  0  0
   30.4346    7.4144  -25.0972 H   0  0  0  0  0  0  0  0  0  0  0  0
   32.3042    7.9976  -26.6215 H   0  0  0  0  0  0  0  0  0  0  0  0
   36.3362    8.7051  -24.5492 H   0  0  0  0  0  0  0  0  0  0  0  0
   36.5435    7.2247  -25.5381 H   0  0  0  0  0  0  0  0  0  0  0  0
   36.8186   10.1321  -26.5096 H   0  0  0  0  0  0  0  0  0  0  0  0
   38.1555    8.9205  -26.2657 H   0  0  0  0  0  0  0  0  0  0  0  0
   37.2850    7.6360  -28.0210 H   0  0  0  0  0  0  0  0  0  0  0  0
   38.4038   10.0815  -28.2761 H   0  0  0  0  0  0  0  0  0  0  0  0
   38.3693    8.7616  -29.4941 H   0  0  0  0  0  0  0  0  0  0  0  0
   37.0851   10.0176  -29.4941 H   0  0  0  0  0  0  0  0  0  0  0  0
   35.1919    9.7003  -28.3292 H   0  0  0  0  0  0  0  0  0  0  0  0
   35.4182    8.1954  -29.3256 H   0  0  0  0  0  0  0  0  0  0  0  0
   33.5662    7.9671  -27.6421 H   0  0  0  0  0  0  0  0  0  0  0  0
   34.8890    6.7838  -27.3902 H   0  0  0  0  0  0  0  0  0  0  0  0
   35.0310    8.0680  -23.2859 H   0  0  0  0  0  0  0  0  0  0  0  0
   33.1679    7.4688  -21.7571 H   0  0  0  0  0  0  0  0  0  0  0  0
   26.5017    0.4465  -22.6834 H   0  0  0  0  0  0  0  0  0  0  0  0
   25.5265    1.6320  -21.6918 H   0  0  0  0  0  0  0  0  0  0  0  0
   23.4676   -4.3664  -22.6651 H   0  0  0  0  0  0  0  0  0  0  0  0
   21.3318   -5.3416  -21.7627 H   0  0  0  0  0  0  0  0  0  0  0  0
   20.0114   -4.1539  -20.0416 H   0  0  0  0  0  0  0  0  0  0  0  0
   20.7911   -1.9531  -19.1151 H   0  0  0  0  0  0  0  0  0  0  0  0
  1  2  1  0
  2  3  2  0
  3  4  1  0
  4  5  2  0
  4  6  1  0
  6  7  1  0
  7  8  1  0
  8  9  1  0
  9 10  2  0
 10 11  1  0
 11 12  2  0
 12 13  1  0
 13 14  2  0
 13 15  1  0
 15 16  1  0
 16 17  1  0
 17 18  2  0
 18 19  1  0
 19 20  2  0
 20 21  1  0
 21 22  1  0
 22 23  1  0
 23 24  1  0
 24 25  1  0
 24 26  1  0
 26 27  1  0
 20 28  1  0
 28 29  2  0
 12 30  1  0
 30 31  2  0
 31 32  1  0
  3 33  1  0
 33 34  1  0
 34 35  2  0
 35 36  1  0
 36 37  2  0
 37 38  1  0
 38 39  2  0
 39  2  1  0
 32  6  1  0
 39 34  1  0
 31  9  1  0
 29 17  1  0
 27 21  1  0
  1 40  1  0
  1 41  1  0
  1 42  1  0
  7 43  1  0
  7 44  1  0
  8 45  1  0
  8 46  1  0
 10 47  1  0
 11 48  1  0
 15 49  1  0
 16 50  1  0
 16 51  1  0
 18 52  1  0
 19 53  1  0
 22 54  1  0
 22 55  1  0
 23 56  1  0
 23 57  1  0
 24 58  1  0
 25 59  1  0
 25 60  1  0
 25 61  1  0
 26 62  1  0
 26 63  1  0
 27 64  1  0
 27 65  1  0
 28 66  1  0
 29 67  1  0
 32 68  1  0
 32 69  1  0
 35 70  1  0
 36 71  1  0
 37 72  1  0
 38 73  1  0
M  CHG  1  24   1
M  END
>  <meeko>  (5) 
{"is_sidechain": false}

>  <Vina_affinity_kcal_mol>  (5) 
-10.39

$$$$
