@<TRIPOS>MOLECULE
LIG
   73    78     1     0     0
SMALL
bcc


@<TRIPOS>ATOM
      1 O1           1.3640    -0.6190     0.2420 o          1 LIG      -0.612100
      2 C1           2.3260     0.1000     0.0470 c          1 LIG       0.570600
      3 N1           2.8370     0.3570    -1.2090 ns         1 LIG      -0.541900
      4 C2           3.0480     0.7500     1.2110 ca         1 LIG       0.349800
      5 C3           2.2940    -0.2310    -2.4220 c3         1 LIG       0.127300
      6 N2           4.1640     1.4940     0.9470 nb         1 LIG      -0.659000
      7 C4           2.5650     0.5350     2.4990 ca         1 LIG      -0.182300
      8 C5           1.8640     0.8180    -3.4180 ca         1 LIG      -0.106300
      9 C6           4.8180     2.0430     2.0170 ca         1 LIG       0.384600
     10 C7           3.2570     1.0780     3.5780 ca         1 LIG      -0.102000
     11 C8           2.4640     0.9250    -4.6770 ca         1 LIG      -0.094500
     12 C9           0.8190     1.6950    -3.1040 ca         1 LIG      -0.094500
     13 C10          4.4090     1.8360     3.3470 ca         1 LIG      -0.154600
     14 C11          6.0600     2.8820     1.7240 c6         1 LIG       0.027700
     15 C12          2.0550     1.9200    -5.5720 ca         1 LIG      -0.142500
     16 C13          0.4130     2.6850    -4.0080 ca         1 LIG      -0.142500
     17 C14          5.1440     2.4610     4.5120 c6         1 LIG      -0.067100
     18 N3           6.4900     3.7050     2.8550 n          1 LIG      -0.442800
     19 C15          1.0380     2.8310    -5.2500 ca         1 LIG       0.077600
     20 C16          6.5200     3.0180     4.1380 c6         1 LIG       0.083000
     21 C17          7.1450     4.9260     2.6200 c          1 LIG       0.705300
     22 N4           0.6820     3.7980    -6.1880 nh         1 LIG      -0.635000
     23 O2           7.5840     5.1980     1.5020 o          1 LIG      -0.590100
     24 C18          7.0760     5.9310     3.7070 cc         1 LIG      -0.059100
     25 C19         -0.6880     4.3380    -6.1760 c6         1 LIG       0.156800
     26 C20          1.6920     4.8550    -6.4150 c6         1 LIG       0.156800
     27 O3           5.9020     5.8130     4.4450 os         1 LIG      -0.204200
     28 C21          7.3000     7.3140     3.6510 cd         1 LIG      -0.021400
     29 C22         -0.9600     5.0490    -7.5230 c6         1 LIG       0.104800
     30 C23          1.3900     5.5590    -7.7610 c6         1 LIG       0.104800
     31 C24          5.1700     6.8860     4.0530 ca         1 LIG       0.074100
     32 C25          5.9910     7.8300     3.4530 ca         1 LIG      -0.122800
     33 C26          8.5110     8.1360     3.8850 c3         1 LIG      -0.052900
     34 N5           0.0200     6.1250    -7.8100 nx         1 LIG      -0.683400
     35 C27          3.7960     7.0160     4.2110 ca         1 LIG      -0.130000
     36 C28          5.4230     9.0090     2.9590 ca         1 LIG      -0.068000
     37 C29         -0.2420     6.7220    -9.1160 c3         1 LIG       0.084100
     38 C30          3.2430     8.1670     3.6590 ca         1 LIG      -0.096000
     39 C31          4.0300     9.1450     3.0400 ca         1 LIG      -0.149000
     40 H1           3.6050     0.9680    -1.2880 hn         1 LIG       0.327500
     41 H2           1.4460    -0.8310    -2.1650 h1         1 LIG       0.077200
     42 H3           3.0630    -0.8200    -2.8750 h1         1 LIG       0.077200
     43 H4           1.7070    -0.0180     2.6510 ha         1 LIG       0.171000
     44 H5           2.9220     0.9220     4.5410 ha         1 LIG       0.151000
     45 H6           3.2120     0.2670    -4.9460 ha         1 LIG       0.161500
     46 H7           0.3400     1.6110    -2.1940 ha         1 LIG       0.161500
     47 H8           5.8450     3.5270     0.8980 h1         1 LIG       0.089700
     48 H9           6.8560     2.2000     1.5120 h1         1 LIG       0.089700
     49 H10          2.5140     1.9860    -6.4940 ha         1 LIG       0.135000
     50 H11         -0.3620     3.3170    -3.7530 ha         1 LIG       0.135000
     51 H12          5.2740     1.7170     5.2700 hc         1 LIG       0.073700
     52 H13          4.5520     3.2860     4.8510 hc         1 LIG       0.073700
     53 H14          7.2180     2.2090     4.0820 h1         1 LIG       0.071200
     54 H15          6.8110     3.7230     4.8880 h1         1 LIG       0.071200
     55 H16         -0.7910     5.0370    -5.3730 h1         1 LIG       0.080700
     56 H17         -1.3890     3.5410    -6.0390 h1         1 LIG       0.080700
     57 H18          2.6680     4.4170    -6.4510 h1         1 LIG       0.080700
     58 H19          1.6560     5.5670    -5.6180 h1         1 LIG       0.080700
     59 H20         -1.9400     5.4780    -7.4920 hx         1 LIG       0.108450
     60 H21         -0.8740     4.3170    -8.2990 hx         1 LIG       0.108450
     61 H22          1.4960     4.8470    -8.5520 hx         1 LIG       0.108450
     62 H23          2.0810     6.3690    -7.8660 hx         1 LIG       0.108450
     63 H24          9.3600     7.4960     4.0010 hc         1 LIG       0.061033
     64 H25          8.3800     8.7200     4.7720 hc         1 LIG       0.061033
     65 H26          8.6670     8.7870     3.0500 hc         1 LIG       0.061033
     66 H27         -0.0680     6.8580    -7.1060 hn         1 LIG       0.445800
     67 H28          3.2270     6.3090     4.7020 ha         1 LIG       0.152000
     68 H29          6.0090     9.7530     2.5500 ha         1 LIG       0.144000
     69 H30         -0.1560     5.9730    -9.8750 hx         1 LIG       0.104700
     70 H31          0.4690     7.5000    -9.3020 hx         1 LIG       0.104700
     71 H32         -1.2300     7.1320    -9.1290 hx         1 LIG       0.104700
     72 H33          2.2210     8.3040     3.7080 ha         1 LIG       0.142000
     73 H34          3.5770     9.9790     2.6360 ha         1 LIG       0.141000
@<TRIPOS>BOND
     1     1     2 2   
     2     2     3 1   
     3     2     4 1   
     4     3     5 1   
     5     3    40 1   
     6     4     6 ar  
     7     4     7 ar  
     8     5     8 1   
     9     5    41 1   
    10     5    42 1   
    11     6     9 ar  
    12     7    10 ar  
    13     7    43 1   
    14     8    11 ar  
    15     8    12 ar  
    16     9    13 ar  
    17     9    14 1   
    18    10    13 ar  
    19    10    44 1   
    20    11    15 ar  
    21    11    45 1   
    22    12    16 ar  
    23    12    46 1   
    24    13    17 1   
    25    14    18 1   
    26    14    47 1   
    27    14    48 1   
    28    15    19 ar  
    29    15    49 1   
    30    16    19 ar  
    31    16    50 1   
    32    17    20 1   
    33    17    51 1   
    34    17    52 1   
    35    18    21 1   
    36    18    20 1   
    37    19    22 1   
    38    20    53 1   
    39    20    54 1   
    40    21    23 2   
    41    21    24 1   
    42    22    25 1   
    43    22    26 1   
    44    24    27 1   
    45    24    28 2   
    46    25    29 1   
    47    25    55 1   
    48    25    56 1   
    49    26    30 1   
    50    26    57 1   
    51    26    58 1   
    52    27    31 1   
    53    28    32 1   
    54    28    33 1   
    55    29    34 1   
    56    29    59 1   
    57    29    60 1   
    58    30    34 1   
    59    30    61 1   
    60    30    62 1   
    61    31    35 ar  
    62    31    32 ar  
    63    32    36 ar  
    64    33    63 1   
    65    33    64 1   
    66    33    65 1   
    67    34    37 1   
    68    34    66 1   
    69    35    38 ar  
    70    35    67 1   
    71    36    39 ar  
    72    36    68 1   
    73    37    69 1   
    74    37    70 1   
    75    37    71 1   
    76    38    39 ar  
    77    38    72 1   
    78    39    73 1   
@<TRIPOS>SUBSTRUCTURE
     1 LIG         1 TEMP              0 ****  ****    0 ROOT
