@<TRIPOS>MOLECULE
LIG
   73    90     1     0     0
SMALL
bcc


@<TRIPOS>ATOM
      1 C           23.4460    -0.0490   -18.9360 c3         1 LIG      -0.056100
      2 C1          23.2870    -0.7190   -20.2480 c3         1 LIG      -0.032000
      3 C2          23.9290    -0.5380   -21.4810 c3         1 LIG      -0.011200
      4 C3          23.5320     0.3140   -22.6280 c3         1 LIG       0.681800
      5 O           22.3690     0.3760   -23.0270 os         1 LIG      -0.496600
      6 N           24.5780     0.8820   -23.3750 n3         1 LIG      -0.774600
      7 C4          24.6790     0.7640   -24.8230 c6         1 LIG       0.201800
      8 C5          25.0930     2.0880   -25.4700 c6         1 LIG      -0.075400
      9 C6          26.1700     2.8230   -24.7030 c6         1 LIG      -0.087000
     10 C7          26.8160     3.9170   -25.2880 c3         1 LIG      -0.060700
     11 C8          27.7810     4.6110   -24.5640 c3         1 LIG      -0.079700
     12 C9          28.0900     4.1890   -23.2740 c3         1 LIG       0.091200
     13 C10         29.1890     4.9100   -22.5170 c3         1 LIG       0.655800
     14 O1          29.6780     4.4140   -21.5190 os         1 LIG      -0.514600
     15 N1          29.5670     6.1410   -23.0150 n7         1 LIG      -0.872200
     16 C11         30.5660     6.9810   -22.3770 c3         1 LIG       0.238800
     17 C12         31.6790     7.3580   -23.3240 c3         1 LIG      -0.086000
     18 C13         31.4500     7.5360   -24.6920 c3         1 LIG      -0.074700
     19 C14         32.5060     7.8680   -25.5480 c3         1 LIG      -0.055700
     20 C15         33.8150     8.0400   -25.0740 c3         1 LIG       0.121200
     21 N2          34.8200     8.3680   -25.9820 n3         1 LIG      -0.695600
     22 C16         36.2270     8.2780   -25.5570 c6         1 LIG       0.146300
     23 C17         37.1050     9.0710   -26.5550 c6         1 LIG       0.106800
     24 N3          36.9530     8.5980   -27.9520 nx         1 LIG      -0.683400
     25 C18         37.7520     9.4150   -28.8600 c3         1 LIG       0.084100
     26 C19         35.5190     8.6500   -28.3290 c6         1 LIG       0.106800
     27 C20         34.6210     7.8500   -27.3530 c6         1 LIG       0.146300
     28 C21         34.0240     7.9060   -23.6980 c3         1 LIG      -0.111700
     29 C22         32.9730     7.5690   -22.8350 c3         1 LIG      -0.058700
     30 N4          27.4720     3.1320   -22.6660 n3         1 LIG      -0.607600
     31 C23         26.5070     2.4760   -23.3820 c6         1 LIG       0.282400
     32 C24         25.8080     1.3000   -22.7020 c6         1 LIG       0.240800
     33 O2          24.2470    -1.8310   -21.8850 os         1 LIG      -0.245600
     34 C25         23.1930    -2.5680   -21.4540 c3         1 LIG       0.101800
     35 C26         22.8540    -3.8290   -21.9270 c3         1 LIG      -0.087700
     36 C27         21.6820    -4.3640   -21.4000 c3         1 LIG      -0.056700
     37 C28         20.9360    -3.6960   -20.4230 c3         1 LIG      -0.109700
     38 C29         21.3470    -2.4530   -19.9220 c3         1 LIG      -0.030700
     39 C30         22.4880    -1.8700   -20.4830 c3         1 LIG      -0.115000
     40 H           23.2730    -0.7770   -18.1290 hc         1 LIG       0.060367
     41 H1          24.4650     0.3560   -18.8520 hc         1 LIG       0.060367
     42 H2          22.7180     0.7710   -18.8520 hc         1 LIG       0.060367
     43 H3          25.4300    -0.0020   -25.0670 h1         1 LIG       0.074200
     44 H4          23.6900     0.4850   -25.2150 h1         1 LIG       0.074200
     45 H5          25.4680     1.8790   -26.4830 hc         1 LIG       0.068700
     46 H6          24.2040     2.7350   -25.4800 hc         1 LIG       0.068700
     47 H7          26.5630     4.2270   -26.3130 hc         1 LIG       0.111700
     48 H8          28.2920     5.4800   -25.0050 hc         1 LIG       0.130700
     49 H9          29.1400     6.4650   -23.8410 hn         1 LIG       0.445800
     50 H10         30.0800     7.9000   -22.0170 h1         1 LIG       0.077700
     51 H11         31.0070     6.4110   -21.5460 h1         1 LIG       0.077700
     52 H12         30.4350     7.4140   -25.0970 hc         1 LIG       0.108700
     53 H13         32.3040     7.9980   -26.6220 hc         1 LIG       0.108700
     54 H14         36.3360     8.7050   -24.5490 h1         1 LIG       0.081200
     55 H15         36.5440     7.2250   -25.5380 h1         1 LIG       0.081200
     56 H16         36.8190    10.1320   -26.5100 hx         1 LIG       0.108450
     57 H17         38.1560     8.9210   -26.2660 hx         1 LIG       0.108450
     58 H18         37.2850     7.6360   -28.0210 hn         1 LIG       0.445800
     59 H19         38.4040    10.0820   -28.2760 hx         1 LIG       0.104700
     60 H20         38.3690     8.7620   -29.4940 hx         1 LIG       0.104700
     61 H21         37.0850    10.0180   -29.4940 hx         1 LIG       0.104700
     62 H22         35.1920     9.7000   -28.3290 hx         1 LIG       0.108450
     63 H23         35.4180     8.1950   -29.3260 hx         1 LIG       0.108450
     64 H24         33.5660     7.9670   -27.6420 h1         1 LIG       0.081200
     65 H25         34.8890     6.7840   -27.3900 h1         1 LIG       0.081200
     66 H26         35.0310     8.0680   -23.2860 hc         1 LIG       0.088700
     67 H27         33.1680     7.4690   -21.7570 hc         1 LIG       0.136700
     68 H28         26.5020     0.4470   -22.6830 h1         1 LIG       0.090700
     69 H29         25.5260     1.6320   -21.6920 h1         1 LIG       0.090700
     70 H30         23.4680    -4.3660   -22.6650 hc         1 LIG       0.115700
     71 H31         21.3320    -5.3420   -21.7630 hc         1 LIG       0.103700
     72 H32         20.0110    -4.1540   -20.0420 hc         1 LIG       0.101700
     73 H33         20.7910    -1.9530   -19.1150 hc         1 LIG       0.103700
@<TRIPOS>BOND
     1     1     2 1   
     2     1    40 1   
     3     1    41 1   
     4     1    42 1   
     5     2     3 1   
     6     2     3 1   
     7     2    39 1   
     8     3     4 1   
     9     3    33 1   
    10     4     5 1   
    11     4     5 1   
    12     4     6 1   
    13     6     7 1   
    14     6    32 1   
    15     7     8 1   
    16     7    43 1   
    17     7    44 1   
    18     8     9 1   
    19     8    45 1   
    20     8    46 1   
    21     9    10 1   
    22     9    10 1   
    23     9    31 1   
    24    10    11 1   
    25    10    47 1   
    26    11    12 1   
    27    11    12 1   
    28    11    48 1   
    29    12    13 1   
    30    12    30 1   
    31    13    14 1   
    32    13    14 1   
    33    13    15 1   
    34    15    16 1   
    35    15    49 1   
    36    16    17 1   
    37    16    50 1   
    38    16    51 1   
    39    17    18 1   
    40    17    18 1   
    41    17    29 1   
    42    18    19 1   
    43    18    52 1   
    44    19    20 1   
    45    19    20 1   
    46    19    53 1   
    47    20    21 1   
    48    20    28 1   
    49    21    22 1   
    50    21    27 1   
    51    22    23 1   
    52    22    54 1   
    53    22    55 1   
    54    23    24 1   
    55    23    56 1   
    56    23    57 1   
    57    24    25 1   
    58    24    26 1   
    59    24    58 1   
    60    25    59 1   
    61    25    60 1   
    62    25    61 1   
    63    26    27 1   
    64    26    62 1   
    65    26    63 1   
    66    27    64 1   
    67    27    65 1   
    68    28    29 1   
    69    28    29 1   
    70    28    66 1   
    71    29    67 1   
    72    30    31 1   
    73    30    31 1   
    74    31    32 1   
    75    32    68 1   
    76    32    69 1   
    77    33    34 1   
    78    34    35 1   
    79    34    35 1   
    80    34    39 1   
    81    35    36 1   
    82    35    70 1   
    83    36    37 1   
    84    36    37 1   
    85    36    71 1   
    86    37    38 1   
    87    37    72 1   
    88    38    39 1   
    89    38    39 1   
    90    38    73 1   
@<TRIPOS>SUBSTRUCTURE
     1 LIG         1 TEMP              0 ****  ****    0 ROOT
