@<TRIPOS>MOLECULE
LIG
   73    78     1     0     0
SMALL
bcc


@<TRIPOS>ATOM
      1 O1          29.6780     4.4140   -21.5190  o  1  LIG  -0.612100
      2 C1          29.1890     4.9100   -22.5170  c  1  LIG  0.570600
      3 N1          29.5670     6.1410   -23.0150  ns  1  LIG  -0.541900
      4 C2          28.0900     4.1890   -23.2740  ca  1  LIG  0.349800
      5 C3          30.5660     6.9810   -22.3770  c3  1  LIG  0.127300
      6 N2          27.4720     3.1320   -22.6660  nb  1  LIG  -0.659000
      7 C4          27.7810     4.6110   -24.5640  ca  1  LIG  -0.182300
      8 C5          31.6790     7.3580   -23.3240  ca  1  LIG  -0.106300
      9 C6          26.5070     2.4760   -23.3820  ca  1  LIG  0.384600
     10 C7          26.8160     3.9170   -25.2880  ca  1  LIG  -0.102000
     11 C8          31.4500     7.5360   -24.6920  ca  1  LIG  -0.094500
     12 C9          32.9730     7.5690   -22.8350  ca  1  LIG  -0.094500
     13 C10         26.1700     2.8230   -24.7030  ca  1  LIG  -0.154600
     14 C11         25.8080     1.3000   -22.7020  c6  1  LIG  0.027700
     15 C12         32.5060     7.8680   -25.5480  ca  1  LIG  -0.142500
     16 C13         34.0240     7.9060   -23.6980  ca  1  LIG  -0.142500
     17 C14         25.0930     2.0880   -25.4700  c6  1  LIG  -0.067100
     18 N3          24.5780     0.8820   -23.3750  n  1  LIG  -0.442800
     19 C15         33.8150     8.0400   -25.0740  ca  1  LIG  0.077600
     20 C16         24.6790     0.7640   -24.8230  c6  1  LIG  0.083000
     21 C17         23.5320     0.3140   -22.6280  c  1  LIG  0.705300
     22 N4          34.8200     8.3680   -25.9820  nh  1  LIG  -0.635000
     23 O2          22.3690     0.3760   -23.0270  o  1  LIG  -0.590100
     24 C18         23.9290    -0.5380   -21.4810  cc  1  LIG  -0.059100
     25 C19         36.2270     8.2780   -25.5570  c6  1  LIG  0.156800
     26 C20         34.6210     7.8500   -27.3530  c6  1  LIG  0.156800
     27 O3          24.2470    -1.8310   -21.8850  os  1  LIG  -0.204200
     28 C21         23.2870    -0.7190   -20.2480  cd  1  LIG  -0.021400
     29 C22         37.1050     9.0710   -26.5550  c6  1  LIG  0.104800
     30 C23         35.5190     8.6500   -28.3290  c6  1  LIG  0.104800
     31 C24         23.1930    -2.5680   -21.4540  ca  1  LIG  0.074100
     32 C25         22.4880    -1.8700   -20.4830  ca  1  LIG  -0.122800
     33 C26         23.4460    -0.0490   -18.9360  c3  1  LIG  -0.052900
     34 N5          36.9530     8.5980   -27.9520  nx  1  LIG  -0.683400
     35 C27         22.8540    -3.8290   -21.9270  ca  1  LIG  -0.130000
     36 C28         21.3470    -2.4530   -19.9220  ca  1  LIG  -0.068000
     37 C29         37.7520     9.4150   -28.8600  c3  1  LIG  0.084100
     38 C30         21.6820    -4.3640   -21.4000  ca  1  LIG  -0.096000
     39 C31         20.9360    -3.6960   -20.4230  ca  1  LIG  -0.149000
     40 H1          29.1400     6.4650   -23.8410  hn  1  LIG  0.327500
     41 H2          30.0797     7.8998   -22.0174  h1  1  LIG  0.077200
     42 H3          30.0797     7.8998   -22.0174  h1  1  LIG  0.077200
     43 H4          28.2918     5.4799   -25.0045  ha  1  LIG  0.171000
     44 H5          26.5632     4.2266   -26.3128  ha  1  LIG  0.151000
     45 H6          30.4346     7.4144   -25.0972  ha  1  LIG  0.161500
     46 H7          33.1679     7.4688   -21.7571  ha  1  LIG  0.161500
     47 H8          26.5017     0.4465   -22.6834  h1  1  LIG  0.089700
     48 H9          26.5017     0.4465   -22.6834  h1  1  LIG  0.089700
     49 H10         32.3042     7.9976   -26.6215  ha  1  LIG  0.135000
     50 H11         35.0310     8.0680   -23.2859  ha  1  LIG  0.135000
     51 H12         25.4679     1.8785   -26.4827  hc  1  LIG  0.073700
     52 H13         25.4679     1.8785   -26.4827  hc  1  LIG  0.073700
     53 H14         25.4295    -0.0023   -25.0670  h1  1  LIG  0.071200
     54 H15         25.4295    -0.0023   -25.0670  h1  1  LIG  0.071200
     55 H16         36.3362     8.7051   -24.5492  h1  1  LIG  0.080700
     56 H17         36.3362     8.7051   -24.5492  h1  1  LIG  0.080700
     57 H18         33.5662     7.9671   -27.6421  h1  1  LIG  0.080700
     58 H19         33.5662     7.9671   -27.6421  h1  1  LIG  0.080700
     59 H20         36.8186    10.1321   -26.5096  hx  1  LIG  0.108450
     60 H21         36.8186    10.1321   -26.5096  hx  1  LIG  0.108450
     61 H22         35.1919     9.7003   -28.3292  hx  1  LIG  0.108450
     62 H23         35.1919     9.7003   -28.3292  hx  1  LIG  0.108450
     63 H24         23.2733    -0.7767   -18.1294  hc  1  LIG  0.061033
     64 H25         23.2733    -0.7767   -18.1294  hc  1  LIG  0.061033
     65 H26         23.2733    -0.7767   -18.1294  hc  1  LIG  0.061033
     66 H27         37.2850     7.6360   -28.0210  hn  1  LIG  0.445800
     67 H28         23.4676    -4.3664   -22.6651  ha  1  LIG  0.152000
     68 H29         20.7911    -1.9531   -19.1151  ha  1  LIG  0.144000
     69 H30         38.4038    10.0815   -28.2761  hx  1  LIG  0.104700
     70 H31         38.4038    10.0815   -28.2761  hx  1  LIG  0.104700
     71 H32         38.4038    10.0815   -28.2761  hx  1  LIG  0.104700
     72 H33         21.3318    -5.3416   -21.7627  ha  1  LIG  0.142000
     73 H34         20.0114    -4.1539   -20.0416  ha  1  LIG  0.141000
@<TRIPOS>BOND
     1     1     2 2   
     2     2     3 1   
     3     2     4 1   
     4     3     5 1   
     5     3    40 1   
     6     4     6 ar  
     7     4     7 ar  
     8     5     8 1   
     9     5    41 1   
    10     5    42 1   
    11     6     9 ar  
    12     7    10 ar  
    13     7    43 1   
    14     8    11 ar  
    15     8    12 ar  
    16     9    13 ar  
    17     9    14 1   
    18    10    13 ar  
    19    10    44 1   
    20    11    15 ar  
    21    11    45 1   
    22    12    16 ar  
    23    12    46 1   
    24    13    17 1   
    25    14    18 1   
    26    14    47 1   
    27    14    48 1   
    28    15    19 ar  
    29    15    49 1   
    30    16    19 ar  
    31    16    50 1   
    32    17    20 1   
    33    17    51 1   
    34    17    52 1   
    35    18    21 1   
    36    18    20 1   
    37    19    22 1   
    38    20    53 1   
    39    20    54 1   
    40    21    23 2   
    41    21    24 1   
    42    22    25 1   
    43    22    26 1   
    44    24    27 1   
    45    24    28 2   
    46    25    29 1   
    47    25    55 1   
    48    25    56 1   
    49    26    30 1   
    50    26    57 1   
    51    26    58 1   
    52    27    31 1   
    53    28    32 1   
    54    28    33 1   
    55    29    34 1   
    56    29    59 1   
    57    29    60 1   
    58    30    34 1   
    59    30    61 1   
    60    30    62 1   
    61    31    35 ar  
    62    31    32 ar  
    63    32    36 ar  
    64    33    63 1   
    65    33    64 1   
    66    33    65 1   
    67    34    37 1   
    68    34    66 1   
    69    35    38 ar  
    70    35    67 1   
    71    36    39 ar  
    72    36    68 1   
    73    37    69 1   
    74    37    70 1   
    75    37    71 1   
    76    38    39 ar  
    77    38    72 1   
    78    39    73 1   
@<TRIPOS>SUBSTRUCTURE
     1 LIG         1 TEMP              0 ****  ****    0 ROOT
