CDK2-CCNE_ligand
 OpenBabel08272609313D

 73 78  0  0  0  0  0  0  0  0999 V2000
    1.3642   -0.6188    0.2421 O   0  0  0  0  0  0  0  0  0  0  0  0
    2.3265    0.0997    0.0472 C   0  0  0  0  0  0  0  0  0  0  0  0
    2.8366    0.3573   -1.2094 N   0  0  0  0  0  0  0  0  0  0  0  0
    3.0476    0.7500    1.2108 C   0  0  0  0  0  0  0  0  0  0  0  0
    2.2940   -0.2306   -2.4219 C   0  0  0  0  0  0  0  0  0  0  0  0
    4.1641    1.4938    0.9467 N   0  0  0  0  0  0  0  0  0  0  0  0
    2.5647    0.5351    2.4986 C   0  0  0  0  0  0  0  0  0  0  0  0
    1.8638    0.8180   -3.4176 C   0  0  0  0  0  0  0  0  0  0  0  0
    4.8183    2.0428    2.0165 C   0  0  0  0  0  0  0  0  0  0  0  0
    3.2569    1.0778    3.5779 C   0  0  0  0  0  0  0  0  0  0  0  0
    2.4641    0.9250   -4.6766 C   0  0  0  0  0  0  0  0  0  0  0  0
    0.8186    1.6950   -3.1043 C   0  0  0  0  0  0  0  0  0  0  0  0
    4.4093    1.8356    3.3474 C   0  0  0  0  0  0  0  0  0  0  0  0
    6.0599    2.8818    1.7243 C   0  0  0  0  0  0  0  0  0  0  0  0
    2.0551    1.9204   -5.5724 C   0  0  0  0  0  0  0  0  0  0  0  0
    0.4127    2.6849   -4.0084 C   0  0  0  0  0  0  0  0  0  0  0  0
    5.1436    2.4613    4.5121 C   0  0  0  0  0  0  0  0  0  0  0  0
    6.4902    3.7055    2.8552 N   0  0  0  0  0  0  0  0  0  0  0  0
    1.0377    2.8311   -5.2501 C   0  0  0  0  0  0  0  0  0  0  0  0
    6.5199    3.0178    4.1376 C   0  0  0  0  0  0  0  0  0  0  0  0
    7.1451    4.9261    2.6199 C   0  0  0  0  0  0  0  0  0  0  0  0
    0.6819    3.7977   -6.1876 N   0  0  0  0  0  0  0  0  0  0  0  0
    7.5836    5.1978    1.5018 O   0  0  0  0  0  0  0  0  0  0  0  0
    7.0763    5.9313    3.7068 C   0  0  0  0  0  0  0  0  0  0  0  0
   -0.6878    4.3375   -6.1760 C   0  0  0  0  0  0  0  0  0  0  0  0
    1.6923    4.8547   -6.4154 C   0  0  0  0  0  0  0  0  0  0  0  0
    5.9025    5.8132    4.4448 O   0  0  0  0  0  0  0  0  0  0  0  0
    7.3002    7.3137    3.6508 C   0  0  0  0  0  0  0  0  0  0  0  0
   -0.9604    5.0490   -7.5232 C   0  0  0  0  0  0  0  0  0  0  0  0
    1.3903    5.5589   -7.7606 C   0  0  0  0  0  0  0  0  0  0  0  0
    5.1695    6.8864    4.0532 C   0  0  0  0  0  0  0  0  0  0  0  0
    5.9911    7.8305    3.4534 C   0  0  0  0  0  0  0  0  0  0  0  0
    8.5110    8.1363    3.8846 C   0  0  0  0  0  0  0  0  0  0  0  0
    0.0200    6.1246   -7.8097 N   0  3  0  0  0  0  0  0  0  0  0  0
    3.7962    7.0160    4.2110 C   0  0  0  0  0  0  0  0  0  0  0  0
    5.4230    9.0088    2.9594 C   0  0  0  0  0  0  0  0  0  0  0  0
   -0.2420    6.7222   -9.1163 C   0  0  0  0  0  0  0  0  0  0  0  0
    3.2426    8.1667    3.6593 C   0  0  0  0  0  0  0  0  0  0  0  0
    4.0299    9.1445    3.0398 C   0  0  0  0  0  0  0  0  0  0  0  0
    3.6046    0.9684   -1.2876 H   0  0  0  0  0  0  0  0  0  0  0  0
    1.4462   -0.8307   -2.1648 H   0  0  0  0  0  0  0  0  0  0  0  0
    3.0634   -0.8198   -2.8754 H   0  0  0  0  0  0  0  0  0  0  0  0
    1.7068   -0.0179    2.6510 H   0  0  0  0  0  0  0  0  0  0  0  0
    2.9218    0.9219    4.5414 H   0  0  0  0  0  0  0  0  0  0  0  0
    3.2121    0.2672   -4.9464 H   0  0  0  0  0  0  0  0  0  0  0  0
    0.3401    1.6110   -2.1938 H   0  0  0  0  0  0  0  0  0  0  0  0
    5.8454    3.5271    0.8982 H   0  0  0  0  0  0  0  0  0  0  0  0
    6.8565    2.1998    1.5119 H   0  0  0  0  0  0  0  0  0  0  0  0
    2.5143    1.9859   -6.4943 H   0  0  0  0  0  0  0  0  0  0  0  0
   -0.3617    3.3175   -3.7532 H   0  0  0  0  0  0  0  0  0  0  0  0
    5.2738    1.7170    5.2697 H   0  0  0  0  0  0  0  0  0  0  0  0
    4.5520    3.2858    4.8512 H   0  0  0  0  0  0  0  0  0  0  0  0
    7.2178    2.2087    4.0815 H   0  0  0  0  0  0  0  0  0  0  0  0
    6.8107    3.7227    4.8882 H   0  0  0  0  0  0  0  0  0  0  0  0
   -0.7907    5.0375   -5.3733 H   0  0  0  0  0  0  0  0  0  0  0  0
   -1.3891    3.5410   -6.0394 H   0  0  0  0  0  0  0  0  0  0  0  0
    2.6680    4.4168   -6.4507 H   0  0  0  0  0  0  0  0  0  0  0  0
    1.6561    5.5674   -5.6180 H   0  0  0  0  0  0  0  0  0  0  0  0
   -1.9402    5.4780   -7.4919 H   0  0  0  0  0  0  0  0  0  0  0  0
   -0.8742    4.3172   -8.2991 H   0  0  0  0  0  0  0  0  0  0  0  0
    1.4964    4.8469   -8.5522 H   0  0  0  0  0  0  0  0  0  0  0  0
    2.0809    6.3694   -7.8658 H   0  0  0  0  0  0  0  0  0  0  0  0
    9.3603    7.4958    4.0007 H   0  0  0  0  0  0  0  0  0  0  0  0
    8.3802    8.7195    4.7722 H   0  0  0  0  0  0  0  0  0  0  0  0
    8.6667    8.7872    3.0498 H   0  0  0  0  0  0  0  0  0  0  0  0
   -0.0678    6.8582   -7.1065 H   0  0  0  0  0  0  0  0  0  0  0  0
    3.2269    6.3092    4.7023 H   0  0  0  0  0  0  0  0  0  0  0  0
    6.0090    9.7529    2.5496 H   0  0  0  0  0  0  0  0  0  0  0  0
   -0.1563    5.9726   -9.8750 H   0  0  0  0  0  0  0  0  0  0  0  0
    0.4689    7.5002   -9.3016 H   0  0  0  0  0  0  0  0  0  0  0  0
   -1.2304    7.1317   -9.1294 H   0  0  0  0  0  0  0  0  0  0  0  0
    2.2209    8.3037    3.7081 H   0  0  0  0  0  0  0  0  0  0  0  0
    3.5773    9.9792    2.6356 H   0  0  0  0  0  0  0  0  0  0  0  0
  1  2  2  0  0  0  0
  2  3  1  0  0  0  0
  2  4  1  0  0  0  0
  3  5  1  0  0  0  0
  3 40  1  0  0  0  0
  4  6  2  0  0  0  0
  4  7  1  0  0  0  0
  5  8  1  0  0  0  0
  5 41  1  0  0  0  0
  5 42  1  0  0  0  0
  6  9  1  0  0  0  0
  7 10  2  0  0  0  0
  7 43  1  0  0  0  0
  8 11  2  0  0  0  0
  8 12  1  0  0  0  0
  9 13  2  0  0  0  0
  9 14  1  0  0  0  0
 10 13  1  0  0  0  0
 10 44  1  0  0  0  0
 11 15  1  0  0  0  0
 11 45  1  0  0  0  0
 12 16  2  0  0  0  0
 12 46  1  0  0  0  0
 13 17  1  0  0  0  0
 14 18  1  0  0  0  0
 14 47  1  0  0  0  0
 14 48  1  0  0  0  0
 15 19  2  0  0  0  0
 15 49  1  0  0  0  0
 16 19  1  0  0  0  0
 16 50  1  0  0  0  0
 17 20  1  0  0  0  0
 17 51  1  0  0  0  0
 17 52  1  0  0  0  0
 18 21  1  0  0  0  0
 18 20  1  0  0  0  0
 19 22  1  0  0  0  0
 20 53  1  0  0  0  0
 20 54  1  0  0  0  0
 21 23  2  0  0  0  0
 21 24  1  0  0  0  0
 22 25  1  0  0  0  0
 22 26  1  0  0  0  0
 24 27  1  0  0  0  0
 24 28  2  0  0  0  0
 25 29  1  0  0  0  0
 25 55  1  0  0  0  0
 25 56  1  0  0  0  0
 26 30  1  0  0  0  0
 26 57  1  0  0  0  0
 26 58  1  0  0  0  0
 27 31  1  0  0  0  0
 28 32  1  0  0  0  0
 28 33  1  0  0  0  0
 29 34  1  0  0  0  0
 29 59  1  0  0  0  0
 29 60  1  0  0  0  0
 30 34  1  0  0  0  0
 30 61  1  0  0  0  0
 30 62  1  0  0  0  0
 31 35  2  0  0  0  0
 31 32  1  0  0  0  0
 32 36  2  0  0  0  0
 33 63  1  0  0  0  0
 33 64  1  0  0  0  0
 33 65  1  0  0  0  0
 34 37  1  0  0  0  0
 34 66  1  0  0  0  0
 35 38  1  0  0  0  0
 35 67  1  0  0  0  0
 36 39  1  0  0  0  0
 36 68  1  0  0  0  0
 37 69  1  0  0  0  0
 37 70  1  0  0  0  0
 37 71  1  0  0  0  0
 38 39  2  0  0  0  0
 38 72  1  0  0  0  0
 39 73  1  0  0  0  0
M  CHG  1  34   1
M  END
$$$$
