EDS01357518_ent1
     RDKit          3D

  0  0  0  0  0  0  0  0  0  0999 V3000
M  V30 BEGIN CTAB
M  V30 COUNTS 61 64 0 0 0
M  V30 BEGIN ATOM
M  V30 1 S 3.456780 -2.412664 1.649469 0
M  V30 2 C 4.404443 -0.999538 1.879548 0
M  V30 3 C 4.563278 -2.954225 0.456368 0
M  V30 4 C 5.499612 -1.029533 1.030498 0
M  V30 5 C 4.000348 0.036012 2.873129 0
M  V30 6 N 5.579360 -2.153966 0.222483 0
M  V30 7 C 4.337690 -4.250993 -0.236205 0
M  V30 8 C 6.557399 0.007845 0.900062 0
M  V30 9 N 3.230558 1.044291 2.191266 0
M  V30 10 C 3.732465 2.283076 1.862588 0
M  V30 11 O 4.830506 2.697270 2.214887 0
M  V30 12 C 2.816233 3.106921 1.008155 0
M  V30 13 N 1.645712 2.509897 0.638511 0
M  V30 14 C 3.182607 4.390810 0.635415 0
M  V30 15 C 0.803124 3.221670 -0.152070 0
M  V30 16 C 2.302491 5.111421 -0.161506 0
M  V30 17 C 1.101686 4.525073 -0.557622 0
M  V30 18 C -0.514727 2.581968 -0.572116 0 CFG=1
M  V30 19 O -0.724128 2.822061 -1.984024 0
M  V30 20 C -0.601049 1.090360 -0.175453 0
M  V30 21 C -1.196609 1.685506 -2.712380 0
M  V30 22 N -1.833537 0.460310 -0.661936 0
M  V30 23 C -2.305072 0.940729 -1.963262 0
M  V30 24 C -2.251727 -0.723631 -0.055893 0
M  V30 25 O -1.552776 -1.264570 0.800471 0
M  V30 26 C -3.518876 -1.294238 -0.457941 0
M  V30 27 N -3.790785 -2.642244 -0.457697 0
M  V30 28 C -4.713915 -0.701115 -0.828854 0
M  V30 29 N -5.034980 -2.946913 -0.877433 0
M  V30 30 C -2.892073 -3.715851 -0.096846 0
M  V30 31 C -5.612135 -1.760388 -1.082899 0
M  V30 32 C -7.035605 -1.674832 -1.516712 0
M  V30 33 C -7.997029 -1.630354 -0.339051 0
M  V30 34 H 3.364353 -0.384886 3.658937 0
M  V30 35 H 4.877301 0.479491 3.355369 0
M  V30 36 H 5.134497 -4.440319 -0.962674 0
M  V30 37 H 3.385228 -4.243927 -0.775629 0
M  V30 38 H 4.331280 -5.079014 0.479696 0
M  V30 39 H 6.175897 0.870049 0.344991 0
M  V30 40 H 6.899988 0.344991 1.883000 0
M  V30 41 H 7.424314 -0.387117 0.360819 0
M  V30 42 H 2.341391 0.790609 1.770414 0
M  V30 43 H 4.127455 4.817205 0.956000 0
M  V30 44 H 2.549753 6.121394 -0.477503 0
M  V30 45 H 0.408943 5.077293 -1.187632 0
M  V30 46 H -1.318308 3.120318 -0.052907 0
M  V30 47 H 0.231021 0.521497 -0.611379 0
M  V30 48 H -0.541213 0.975667 0.913655 0
M  V30 49 H -0.345598 1.025938 -2.918870 0
M  V30 50 H -1.572656 2.045653 -3.675157 0
M  V30 51 H -3.132042 1.629890 -1.761727 0
M  V30 52 H -2.665150 0.105385 -2.570586 0
M  V30 53 H -4.924574 0.356715 -0.888930 0
M  V30 54 H -2.764364 -3.705789 0.988100 0
M  V30 55 H -3.323346 -4.670422 -0.410679 0
M  V30 56 H -1.938130 -3.565096 -0.607911 0
M  V30 57 H -7.175833 -0.777312 -2.131056 0
M  V30 58 H -7.282268 -2.532093 -2.154830 0
M  V30 59 H -7.800323 -0.762579 0.299757 0
M  V30 60 H -9.030148 -1.564079 -0.694437 0
M  V30 61 H -7.906735 -2.529624 0.279760 0
M  V30 END ATOM
M  V30 BEGIN BOND
M  V30 1 4 1 2
M  V30 2 4 1 3
M  V30 3 4 2 4
M  V30 4 1 2 5
M  V30 5 4 3 6
M  V30 6 1 3 7
M  V30 7 1 4 8
M  V30 8 1 5 9
M  V30 9 1 9 10
M  V30 10 2 10 11
M  V30 11 1 10 12
M  V30 12 4 12 13
M  V30 13 4 12 14
M  V30 14 4 13 15
M  V30 15 4 14 16
M  V30 16 4 15 17
M  V30 17 1 18 15
M  V30 18 1 18 19
M  V30 19 1 18 20
M  V30 20 1 19 21
M  V30 21 1 20 22
M  V30 22 1 21 23
M  V30 23 1 22 24
M  V30 24 2 24 25
M  V30 25 1 24 26
M  V30 26 4 26 27
M  V30 27 4 26 28
M  V30 28 4 27 29
M  V30 29 1 27 30
M  V30 30 4 28 31
M  V30 31 1 31 32
M  V30 32 1 32 33
M  V30 33 4 4 6
M  V30 34 4 16 17
M  V30 35 1 22 23
M  V30 36 4 29 31
M  V30 37 1 5 34
M  V30 38 1 5 35
M  V30 39 1 7 36
M  V30 40 1 7 37
M  V30 41 1 7 38
M  V30 42 1 8 39
M  V30 43 1 8 40
M  V30 44 1 8 41
M  V30 45 1 9 42
M  V30 46 1 14 43
M  V30 47 1 16 44
M  V30 48 1 17 45
M  V30 49 1 18 46 CFG=1
M  V30 50 1 20 47
M  V30 51 1 20 48
M  V30 52 1 21 49
M  V30 53 1 21 50
M  V30 54 1 23 51
M  V30 55 1 23 52
M  V30 56 1 28 53
M  V30 57 1 30 54
M  V30 58 1 30 55
M  V30 59 1 30 56
M  V30 60 1 32 57
M  V30 61 1 32 58
M  V30 62 1 33 59
M  V30 63 1 33 60
M  V30 64 1 33 61
M  V30 END BOND
M  V30 BEGIN COLLECTION
M  V30 MDLV30/STERAC1 ATOMS=(1 18)
M  V30 END COLLECTION
M  V30 END CTAB
M  END
>  <ID>  (1) 
EDS01357518

>  <MMFF94_energy_kcal_mol>  (1) 
77.479

$$$$
EDS01357518_ent2
     RDKit          3D

  0  0  0  0  0  0  0  0  0  0999 V3000
M  V30 BEGIN CTAB
M  V30 COUNTS 61 64 0 0 0
M  V30 BEGIN ATOM
M  V30 1 S 2.623916 1.590442 -1.051484 0
M  V30 2 C 2.959464 1.663769 0.632181 0
M  V30 3 C 1.728627 3.048761 -0.932296 0
M  V30 4 C 2.365356 2.791437 1.176633 0
M  V30 5 C 3.773363 0.603231 1.294603 0
M  V30 6 N 1.665245 3.573020 0.271580 0
M  V30 7 C 1.094098 3.643224 -2.139360 0
M  V30 8 C 2.387062 3.224029 2.599535 0
M  V30 9 N 2.893394 -0.465680 1.687565 0
M  V30 10 C 2.307323 -0.530918 2.931601 0
M  V30 11 O 2.620235 0.180398 3.878785 0
M  V30 12 C 1.210408 -1.546903 3.031078 0
M  V30 13 N 0.927209 -2.231979 1.884808 0
M  V30 14 C 0.540550 -1.724588 4.231112 0
M  V30 15 C -0.077413 -3.142180 1.935471 0
M  V30 16 C -0.482088 -2.661533 4.268276 0
M  V30 17 C -0.794608 -3.377494 3.114080 0
M  V30 18 C -0.431659 -3.939273 0.679398 0 CFG=2
M  V30 19 O 0.605751 -3.962351 -0.332575 0
M  V30 20 C -1.806404 -3.579964 0.066194 0
M  V30 21 C 0.641841 -2.786257 -1.155145 0
M  V30 22 N -1.746206 -2.389710 -0.782433 0
M  V30 23 C -0.711425 -2.500295 -1.813925 0
M  V30 24 C -2.114889 -1.164427 -0.218233 0
M  V30 25 O -2.429574 -1.080797 0.967381 0
M  V30 26 C -2.160597 -0.016886 -1.093752 0
M  V30 27 N -1.856408 1.268754 -0.718520 0
M  V30 28 C -2.585613 0.090708 -2.406926 0
M  V30 29 N -1.980375 2.166220 -1.719672 0
M  V30 30 C -1.406906 1.714085 0.582066 0
M  V30 31 C -2.453792 1.453766 -2.745658 0
M  V30 32 C -2.783981 2.113008 -4.041274 0
M  V30 33 C -1.698046 1.915767 -5.087536 0
M  V30 34 H 4.518483 0.183721 0.610649 0
M  V30 35 H 4.303152 0.997115 2.167609 0
M  V30 36 H 0.266476 4.299065 -1.851326 0
M  V30 37 H 0.698506 2.872797 -2.807285 0
M  V30 38 H 1.824348 4.241154 -2.693543 0
M  V30 39 H 1.615373 2.694576 3.166108 0
M  V30 40 H 3.359972 3.030102 3.060337 0
M  V30 41 H 2.189746 4.297968 2.678909 0
M  V30 42 H 2.474815 -1.057803 0.976309 0
M  V30 43 H 0.803948 -1.145052 5.109537 0
M  V30 44 H -1.037971 -2.829825 5.186696 0
M  V30 45 H -1.597976 -4.108208 3.141412 0
M  V30 46 H -0.495524 -4.982671 1.015756 0
M  V30 47 H -2.115321 -4.397336 -0.598087 0
M  V30 48 H -2.584927 -3.476783 0.829519 0
M  V30 49 H 1.397068 -2.955983 -1.929361 0
M  V30 50 H 0.973067 -1.926088 -0.567490 0
M  V30 51 H -0.626315 -1.600502 -2.423843 0
M  V30 52 H -0.997197 -3.333885 -2.465537 0
M  V30 53 H -2.958121 -0.709593 -3.031033 0
M  V30 54 H -1.108421 2.763565 0.523367 0
M  V30 55 H -2.236077 1.608393 1.285511 0
M  V30 56 H -0.555012 1.101390 0.886698 0
M  V30 57 H -3.729377 1.707328 -4.421198 0
M  V30 58 H -2.944555 3.186884 -3.886285 0
M  V30 59 H -1.537101 0.852850 -5.297370 0
M  V30 60 H -1.979597 2.407801 -6.023868 0
M  V30 61 H -0.745320 2.339636 -4.754212 0
M  V30 END ATOM
M  V30 BEGIN BOND
M  V30 1 4 1 2
M  V30 2 4 1 3
M  V30 3 4 2 4
M  V30 4 1 2 5
M  V30 5 4 3 6
M  V30 6 1 3 7
M  V30 7 1 4 8
M  V30 8 1 5 9
M  V30 9 1 9 10
M  V30 10 2 10 11
M  V30 11 1 10 12
M  V30 12 4 12 13
M  V30 13 4 12 14
M  V30 14 4 13 15
M  V30 15 4 14 16
M  V30 16 4 15 17
M  V30 17 1 18 15
M  V30 18 1 18 19
M  V30 19 1 18 20
M  V30 20 1 19 21
M  V30 21 1 20 22
M  V30 22 1 21 23
M  V30 23 1 22 24
M  V30 24 2 24 25
M  V30 25 1 24 26
M  V30 26 4 26 27
M  V30 27 4 26 28
M  V30 28 4 27 29
M  V30 29 1 27 30
M  V30 30 4 28 31
M  V30 31 1 31 32
M  V30 32 1 32 33
M  V30 33 4 4 6
M  V30 34 4 16 17
M  V30 35 1 22 23
M  V30 36 4 29 31
M  V30 37 1 5 34
M  V30 38 1 5 35
M  V30 39 1 7 36
M  V30 40 1 7 37
M  V30 41 1 7 38
M  V30 42 1 8 39
M  V30 43 1 8 40
M  V30 44 1 8 41
M  V30 45 1 9 42
M  V30 46 1 14 43
M  V30 47 1 16 44
M  V30 48 1 17 45
M  V30 49 1 18 46 CFG=1
M  V30 50 1 20 47
M  V30 51 1 20 48
M  V30 52 1 21 49
M  V30 53 1 21 50
M  V30 54 1 23 51
M  V30 55 1 23 52
M  V30 56 1 28 53
M  V30 57 1 30 54
M  V30 58 1 30 55
M  V30 59 1 30 56
M  V30 60 1 32 57
M  V30 61 1 32 58
M  V30 62 1 33 59
M  V30 63 1 33 60
M  V30 64 1 33 61
M  V30 END BOND
M  V30 BEGIN COLLECTION
M  V30 MDLV30/STERAC1 ATOMS=(1 18)
M  V30 END COLLECTION
M  V30 END CTAB
M  END
>  <ID>  (2) 
EDS01357518

>  <MMFF94_energy_kcal_mol>  (2) 
73.675

$$$$
EDS01806218_ent1
     RDKit          3D

  0  0  0  0  0  0  0  0  0  0999 V3000
M  V30 BEGIN CTAB
M  V30 COUNTS 61 66 0 0 0
M  V30 BEGIN ATOM
M  V30 1 S 1.918523 0.499143 2.254952 0 VAL=6
M  V30 2 O 0.872930 -0.263182 2.901675 0
M  V30 3 O 2.245075 1.840954 2.688556 0
M  V30 4 N 1.582555 0.556150 0.594503 0
M  V30 5 C 3.397917 -0.453259 2.345690 0
M  V30 6 C 1.160941 -0.724744 -0.060604 0
M  V30 7 C 2.483777 1.381649 -0.258870 0
M  V30 8 C 3.315030 -1.821445 2.529974 0
M  V30 9 C 4.653466 0.150715 2.302735 0
M  V30 10 C 0.567207 -0.447507 -1.469061 0 CFG=2
M  V30 11 C 1.908738 1.577335 -1.684078 0 CFG=1
M  V30 12 N 4.403970 -2.623145 2.610701 0
M  V30 13 C 5.786495 -0.651782 2.400329 0
M  V30 14 N 1.556999 0.281789 -2.284819 0
M  V30 15 C -0.686972 0.385875 -1.335507 0
M  V30 16 C 0.667747 2.489913 -1.715240 0
M  V30 17 C 5.613312 -2.020308 2.547142 0
M  V30 18 C 1.753905 0.099458 -3.642835 0
M  V30 19 C -1.916964 -0.162051 -1.010918 0
M  V30 20 C -0.621461 1.772903 -1.380291 0
M  V30 21 O 2.363802 0.915603 -4.332755 0
M  V30 22 C 1.211609 -1.164184 -4.258512 0
M  V30 23 N -2.992352 0.607308 -0.789645 0
M  V30 24 N -2.038141 -1.565085 -0.948343 0
M  V30 25 N -1.697057 2.554136 -1.167069 0
M  V30 26 C -2.856483 1.946339 -0.857881 0
M  V30 27 C -3.226637 -2.065852 -0.258518 0
M  V30 28 C -4.067276 2.804897 -0.589147 0
M  V30 29 C -3.050624 -1.934529 1.225990 0
M  V30 30 C -4.877547 2.605174 0.672774 0
M  V30 31 C -4.033967 3.834906 0.518203 0
M  V30 32 C -2.055576 -2.796277 1.964131 0
M  V30 33 C -3.530005 -3.014213 2.164207 0
M  V30 34 H 2.037813 -1.374460 -0.165077 0
M  V30 35 H 0.421714 -1.238007 0.562534 0
M  V30 36 H 3.450977 0.871847 -0.340512 0
M  V30 37 H 2.649060 2.362372 0.198652 0
M  V30 38 H 2.361547 -2.336518 2.615739 0
M  V30 39 H 4.753891 1.228593 2.203640 0
M  V30 40 H 0.338192 -1.402501 -1.947464 0
M  V30 41 H 2.695454 2.062124 -2.275258 0
M  V30 42 H 6.782081 -0.221721 2.370999 0
M  V30 43 H 0.803733 3.348566 -1.047738 0
M  V30 44 H 0.549549 2.884811 -2.732853 0
M  V30 45 H 6.467652 -2.687382 2.627680 0
M  V30 46 H 0.118761 -1.148315 -4.249514 0
M  V30 47 H 1.590504 -2.039764 -3.724824 0
M  V30 48 H 1.545970 -1.231976 -5.298341 0
M  V30 49 H -2.017340 -1.912617 -1.903811 0
M  V30 50 H -4.148912 -1.576914 -0.594120 0
M  V30 51 H -3.334794 -3.125377 -0.521222 0
M  V30 52 H -4.626366 3.078065 -1.478971 0
M  V30 53 H -3.158939 -0.906018 1.554328 0
M  V30 54 H -4.550928 1.850505 1.380164 0
M  V30 55 H -5.953488 2.709714 0.601777 0
M  V30 56 H -4.532168 4.780403 0.340532 0
M  V30 57 H -3.134190 3.914381 1.118919 0
M  V30 58 H -1.490800 -2.328711 2.763853 0
M  V30 59 H -1.499868 -3.538987 1.404463 0
M  V30 60 H -3.969663 -3.913518 1.749411 0
M  V30 61 H -3.962375 -2.705277 3.109542 0
M  V30 END ATOM
M  V30 BEGIN BOND
M  V30 1 2 1 2
M  V30 2 2 1 3
M  V30 3 1 1 4
M  V30 4 1 1 5
M  V30 5 1 4 6
M  V30 6 1 4 7
M  V30 7 4 5 8
M  V30 8 4 5 9
M  V30 9 1 6 10
M  V30 10 1 7 11
M  V30 11 4 8 12
M  V30 12 4 9 13
M  V30 13 1 10 14
M  V30 14 1 10 15
M  V30 15 1 11 16
M  V30 16 4 12 17
M  V30 17 1 14 18
M  V30 18 4 15 19
M  V30 19 4 15 20
M  V30 20 2 18 21
M  V30 21 1 18 22
M  V30 22 4 19 23
M  V30 23 1 19 24
M  V30 24 4 20 25
M  V30 25 4 23 26
M  V30 26 1 24 27
M  V30 27 1 26 28
M  V30 28 1 27 29
M  V30 29 1 28 30
M  V30 30 1 28 31
M  V30 31 1 29 32
M  V30 32 1 29 33
M  V30 33 1 11 14
M  V30 34 4 13 17
M  V30 35 1 16 20
M  V30 36 4 25 26
M  V30 37 1 30 31
M  V30 38 1 32 33
M  V30 39 1 6 34
M  V30 40 1 6 35
M  V30 41 1 7 36
M  V30 42 1 7 37
M  V30 43 1 8 38
M  V30 44 1 9 39
M  V30 45 1 10 40 CFG=3
M  V30 46 1 11 41 CFG=3
M  V30 47 1 13 42
M  V30 48 1 16 43
M  V30 49 1 16 44
M  V30 50 1 17 45
M  V30 51 1 22 46
M  V30 52 1 22 47
M  V30 53 1 22 48
M  V30 54 1 24 49
M  V30 55 1 27 50
M  V30 56 1 27 51
M  V30 57 1 28 52
M  V30 58 1 29 53
M  V30 59 1 30 54
M  V30 60 1 30 55
M  V30 61 1 31 56
M  V30 62 1 31 57
M  V30 63 1 32 58
M  V30 64 1 32 59
M  V30 65 1 33 60
M  V30 66 1 33 61
M  V30 END BOND
M  V30 BEGIN COLLECTION
M  V30 MDLV30/STERAC1 ATOMS=(2 10 11)
M  V30 END COLLECTION
M  V30 END CTAB
M  END
>  <ID>  (3) 
EDS01806218

>  <MMFF94_energy_kcal_mol>  (3) 
-25.934

$$$$
EDS01806218_ent2
     RDKit          3D

  0  0  0  0  0  0  0  0  0  0999 V3000
M  V30 BEGIN CTAB
M  V30 COUNTS 61 66 0 0 0
M  V30 BEGIN ATOM
M  V30 1 S 3.982366 0.104926 0.979910 0 VAL=6
M  V30 2 O 3.836885 -0.953434 1.953764 0
M  V30 3 O 4.785651 1.272832 1.273713 0
M  V30 4 N 2.418700 0.641062 0.558346 0
M  V30 5 C 4.591233 -0.574437 -0.519918 0
M  V30 6 C 1.450707 -0.415200 0.050575 0
M  V30 7 C 1.822868 1.610862 1.532645 0
M  V30 8 C 4.903481 -1.918787 -0.593862 0
M  V30 9 C 4.778458 0.233922 -1.639908 0
M  V30 10 C 0.243432 -0.670426 0.993047 0 CFG=1
M  V30 11 C 0.960337 0.945255 2.650240 0 CFG=2
M  V30 12 N 5.371593 -2.503293 -1.723371 0
M  V30 13 C 5.264660 -0.344737 -2.807936 0
M  V30 14 N 0.694293 -0.469572 2.366884 0
M  V30 15 C -0.933891 0.236527 0.686225 0
M  V30 16 C -0.408813 1.636117 2.726798 0
M  V30 17 C 5.543129 -1.703844 -2.801452 0
M  V30 18 C 1.051301 -1.556812 3.138234 0
M  V30 19 C -1.743715 0.059856 -0.426970 0
M  V30 20 C -1.224142 1.338244 1.486077 0
M  V30 21 O 0.911705 -2.712925 2.738265 0
M  V30 22 C 1.587223 -1.278108 4.517809 0
M  V30 23 N -2.722057 0.930587 -0.721519 0
M  V30 24 N -1.503121 -1.027326 -1.285634 0
M  V30 25 N -2.220938 2.198713 1.212164 0
M  V30 26 C -2.943961 1.973437 0.101362 0
M  V30 27 C -2.356181 -1.129938 -2.468015 0
M  V30 28 C -4.062420 2.928111 -0.234242 0
M  V30 29 C -3.652651 -1.802048 -2.121113 0
M  V30 30 C -3.773157 4.400807 -0.422692 0
M  V30 31 C -4.140652 3.558334 -1.607192 0
M  V30 32 C -3.713411 -3.291104 -1.882200 0
M  V30 33 C -4.340893 -2.702822 -3.115929 0
M  V30 34 H 1.986261 -1.365023 -0.058767 0
M  V30 35 H 1.138680 -0.122124 -0.957800 0
M  V30 36 H 2.599105 2.225730 2.002039 0
M  V30 37 H 1.242148 2.329164 0.939800 0
M  V30 38 H 4.785428 -2.589522 0.253543 0
M  V30 39 H 4.552723 1.296569 -1.602527 0
M  V30 40 H -0.090843 -1.706907 0.871371 0
M  V30 41 H 1.475188 1.062617 3.607412 0
M  V30 42 H 5.426613 0.248038 -3.701692 0
M  V30 43 H -0.968434 1.260617 3.592517 0
M  V30 44 H -0.287342 2.718667 2.848993 0
M  V30 45 H 5.925415 -2.201152 -3.688962 0
M  V30 46 H 1.715151 -2.223482 5.053789 0
M  V30 47 H 0.880679 -0.662005 5.080362 0
M  V30 48 H 2.559688 -0.784236 4.454856 0
M  V30 49 H -1.548497 -1.894324 -0.754317 0
M  V30 50 H -2.529809 -0.159693 -2.948688 0
M  V30 51 H -1.813769 -1.734818 -3.204763 0
M  V30 52 H -5.011420 2.683314 0.233682 0
M  V30 53 H -4.287324 -1.164353 -1.514875 0
M  V30 54 H -2.746424 4.738839 -0.336497 0
M  V30 55 H -4.504644 5.107981 -0.049891 0
M  V30 56 H -5.123353 3.689253 -2.044506 0
M  V30 57 H -3.363948 3.322456 -2.326425 0
M  V30 58 H -4.372054 -3.650314 -1.099216 0
M  V30 59 H -2.812137 -3.880354 -2.007886 0
M  V30 60 H -3.861521 -2.893903 -4.069301 0
M  V30 61 H -5.423581 -2.665817 -3.166354 0
M  V30 END ATOM
M  V30 BEGIN BOND
M  V30 1 2 1 2
M  V30 2 2 1 3
M  V30 3 1 1 4
M  V30 4 1 1 5
M  V30 5 1 4 6
M  V30 6 1 4 7
M  V30 7 4 5 8
M  V30 8 4 5 9
M  V30 9 1 6 10
M  V30 10 1 7 11
M  V30 11 4 8 12
M  V30 12 4 9 13
M  V30 13 1 10 14
M  V30 14 1 10 15
M  V30 15 1 11 16
M  V30 16 4 12 17
M  V30 17 1 14 18
M  V30 18 4 15 19
M  V30 19 4 15 20
M  V30 20 2 18 21
M  V30 21 1 18 22
M  V30 22 4 19 23
M  V30 23 1 19 24
M  V30 24 4 20 25
M  V30 25 4 23 26
M  V30 26 1 24 27
M  V30 27 1 26 28
M  V30 28 1 27 29
M  V30 29 1 28 30
M  V30 30 1 28 31
M  V30 31 1 29 32
M  V30 32 1 29 33
M  V30 33 1 11 14
M  V30 34 4 13 17
M  V30 35 1 16 20
M  V30 36 4 25 26
M  V30 37 1 30 31
M  V30 38 1 32 33
M  V30 39 1 6 34
M  V30 40 1 6 35
M  V30 41 1 7 36
M  V30 42 1 7 37
M  V30 43 1 8 38
M  V30 44 1 9 39
M  V30 45 1 10 40 CFG=1
M  V30 46 1 11 41 CFG=1
M  V30 47 1 13 42
M  V30 48 1 16 43
M  V30 49 1 16 44
M  V30 50 1 17 45
M  V30 51 1 22 46
M  V30 52 1 22 47
M  V30 53 1 22 48
M  V30 54 1 24 49
M  V30 55 1 27 50
M  V30 56 1 27 51
M  V30 57 1 28 52
M  V30 58 1 29 53
M  V30 59 1 30 54
M  V30 60 1 30 55
M  V30 61 1 31 56
M  V30 62 1 31 57
M  V30 63 1 32 58
M  V30 64 1 32 59
M  V30 65 1 33 60
M  V30 66 1 33 61
M  V30 END BOND
M  V30 BEGIN COLLECTION
M  V30 MDLV30/STERAC1 ATOMS=(2 10 11)
M  V30 END COLLECTION
M  V30 END CTAB
M  END
>  <ID>  (4) 
EDS01806218

>  <MMFF94_energy_kcal_mol>  (4) 
-18.278

$$$$
EDS01889984
     RDKit          3D

 61 65  0  0  0  0  0  0  0  0999 V2000
    6.3357    1.0009    3.2199 S   0  0  0  0  0  0  0  0  0  0  0  0
    5.0337    2.0097    2.7594 C   0  0  0  0  0  0  0  0  0  0  0  0
    6.1571    0.0483    1.8158 C   0  0  0  0  0  0  0  0  0  0  0  0
    4.4642    1.6197    1.5641 C   0  0  0  0  0  0  0  0  0  0  0  0
    5.0950    0.4482    1.0218 C   0  0  0  0  0  0  0  0  0  0  0  0
    3.4478    2.2526    0.9191 O   0  0  0  0  0  0  0  0  0  0  0  0
    4.7848   -0.2452   -0.2271 C   0  0  0  0  0  0  0  0  0  0  0  0
    2.7943    3.2797    1.6544 C   0  0  0  0  0  0  0  0  0  0  0  0
    5.6903   -0.5295   -1.0124 O   0  0  0  0  0  0  0  0  0  0  0  0
    3.4614   -0.6129   -0.4851 N   0  0  0  0  0  0  0  0  0  0  0  0
    2.3851   -0.6363    0.5132 C   0  0  0  0  0  0  0  0  0  0  0  0
    3.1742   -1.1980   -1.7893 C   0  0  0  0  0  0  0  0  0  0  0  0
    1.5521   -1.9101    0.3871 C   0  0  0  0  0  0  0  0  0  0  0  0
    1.6826   -1.2488   -2.0835 C   0  0  0  0  0  0  0  0  0  0  0  0
    0.9383   -2.0688   -1.0176 C   0  0  0  0  0  0  0  0  0  0  0  0
   -0.5343   -1.7255   -1.0493 C   0  0  0  0  0  0  0  0  0  0  0  0
   -0.9372   -0.5837   -0.4197 N   0  0  0  0  0  0  0  0  0  0  0  0
   -1.5051   -2.4759   -1.7194 C   0  0  0  0  0  0  0  0  0  0  0  0
   -2.2294   -0.1944   -0.4268 C   0  0  0  0  0  0  0  0  0  0  0  0
   -2.7990   -1.9889   -1.6633 C   0  0  0  0  0  0  0  0  0  0  0  0
   -1.5429   -3.6684   -2.4935 C   0  0  0  0  0  0  0  0  0  0  0  0
   -3.2094   -0.8769   -1.0387 N   0  0  0  0  0  0  0  0  0  0  0  0
   -2.5691    0.9584    0.2709 N   0  0  0  0  0  0  0  0  0  0  0  0
   -3.6027   -2.8494   -2.3665 N   0  0  0  0  0  0  0  0  0  0  0  0
   -2.8513   -3.8754   -2.8793 C   0  0  0  0  0  0  0  0  0  0  0  0
   -1.5049    1.9366    0.5043 C   0  0  0  0  0  0  0  0  0  0  0  0
   -3.9341    1.4395    0.1112 C   0  0  0  0  0  0  0  0  0  0  0  0
   -5.0267   -2.6827   -2.5337 C   0  0  0  0  0  0  0  0  0  0  0  0
   -1.3274    2.2565    1.9935 C   0  0  0  0  0  0  0  0  0  0  0  0
   -4.2812    2.5303    1.1236 C   0  0  0  0  0  0  0  0  0  0  0  0
   -0.2095    2.3936    2.4991 O   0  0  0  0  0  0  0  0  0  0  0  0
   -2.4176    2.5207    2.7801 N   0  0  0  0  0  0  0  0  0  0  0  0
   -3.8015    2.1709    2.5216 C   0  0  0  0  0  0  0  0  0  0  0  0
    4.7754    2.8438    3.3950 H   0  0  0  0  0  0  0  0  0  0  0  0
    6.8328   -0.7770    1.6322 H   0  0  0  0  0  0  0  0  0  0  0  0
    2.4156    2.9079    2.6120 H   0  0  0  0  0  0  0  0  0  0  0  0
    3.4602    4.1361    1.8038 H   0  0  0  0  0  0  0  0  0  0  0  0
    1.9402    3.6225    1.0627 H   0  0  0  0  0  0  0  0  0  0  0  0
    1.7608    0.2487    0.3513 H   0  0  0  0  0  0  0  0  0  0  0  0
    2.7956   -0.5853    1.5250 H   0  0  0  0  0  0  0  0  0  0  0  0
    3.6901   -0.6170   -2.5626 H   0  0  0  0  0  0  0  0  0  0  0  0
    3.6006   -2.2087   -1.8007 H   0  0  0  0  0  0  0  0  0  0  0  0
    0.7891   -1.9449    1.1737 H   0  0  0  0  0  0  0  0  0  0  0  0
    2.2169   -2.7659    0.5691 H   0  0  0  0  0  0  0  0  0  0  0  0
    1.5089   -1.6824   -3.0760 H   0  0  0  0  0  0  0  0  0  0  0  0
    1.2955   -0.2214   -2.1241 H   0  0  0  0  0  0  0  0  0  0  0  0
    1.0349   -3.1317   -1.2772 H   0  0  0  0  0  0  0  0  0  0  0  0
   -0.7071   -4.3092   -2.7425 H   0  0  0  0  0  0  0  0  0  0  0  0
   -3.2998   -4.6632   -3.4710 H   0  0  0  0  0  0  0  0  0  0  0  0
   -1.7254    2.8759   -0.0180 H   0  0  0  0  0  0  0  0  0  0  0  0
   -0.5239    1.6189    0.1326 H   0  0  0  0  0  0  0  0  0  0  0  0
   -4.6480    0.6199    0.2684 H   0  0  0  0  0  0  0  0  0  0  0  0
   -4.0919    1.8237   -0.9044 H   0  0  0  0  0  0  0  0  0  0  0  0
   -5.2070   -1.7340   -3.0459 H   0  0  0  0  0  0  0  0  0  0  0  0
   -5.4237   -3.5072   -3.1314 H   0  0  0  0  0  0  0  0  0  0  0  0
   -5.4945   -2.6832   -1.5459 H   0  0  0  0  0  0  0  0  0  0  0  0
   -5.3716    2.6484    1.1314 H   0  0  0  0  0  0  0  0  0  0  0  0
   -3.8658    3.4959    0.8108 H   0  0  0  0  0  0  0  0  0  0  0  0
   -2.1511    2.6591    3.7474 H   0  0  0  0  0  0  0  0  0  0  0  0
   -3.9313    1.1049    2.7385 H   0  0  0  0  0  0  0  0  0  0  0  0
   -4.3891    2.7307    3.2575 H   0  0  0  0  0  0  0  0  0  0  0  0
  1  2  4  0
  1  3  4  0
  2  4  4  0
  3  5  4  0
  4  6  1  0
  5  7  1  0
  6  8  1  0
  7  9  2  0
  7 10  1  0
 10 11  1  0
 10 12  1  0
 11 13  1  0
 12 14  1  0
 13 15  1  0
 15 16  1  0
 16 17  4  0
 16 18  4  0
 17 19  4  0
 18 20  4  0
 18 21  4  0
 19 22  4  0
 19 23  1  0
 20 24  4  0
 21 25  4  0
 23 26  1  0
 23 27  1  0
 24 28  1  0
 26 29  1  0
 27 30  1  0
 29 31  2  0
 29 32  1  0
 30 33  1  0
  4  5  4  0
 14 15  1  0
 20 22  4  0
 24 25  4  0
 32 33  1  0
  2 34  1  0
  3 35  1  0
  8 36  1  0
  8 37  1  0
  8 38  1  0
 11 39  1  0
 11 40  1  0
 12 41  1  0
 12 42  1  0
 13 43  1  0
 13 44  1  0
 14 45  1  0
 14 46  1  0
 15 47  1  0
 21 48  1  0
 25 49  1  0
 26 50  1  0
 26 51  1  0
 27 52  1  0
 27 53  1  0
 28 54  1  0
 28 55  1  0
 28 56  1  0
 30 57  1  0
 30 58  1  0
 32 59  1  0
 33 60  1  0
 33 61  1  0
M  END
>  <ID>  (5) 
EDS01889984

>  <MMFF94_energy_kcal_mol>  (5) 
-27.711

$$$$
