
     RDKit          2D

 26 28  0  0  0  0  0  0  0  0999 V2000
   -7.4825    3.5797    0.0000 C   0  0  0  0  0  0  0  0  0  0  0  0
   -6.6172    2.3544    0.0000 C   0  0  0  0  0  0  0  0  0  0  0  0
   -5.1234    2.4912    0.0000 C   0  0  0  0  0  0  0  0  0  0  0  0
   -4.2581    1.2659    0.0000 N   0  0  0  0  0  0  0  0  0  0  0  0
   -4.8866   -0.0961    0.0000 C   0  0  0  0  0  0  0  0  0  0  0  0
   -4.0213   -1.3214    0.0000 C   0  0  0  0  0  0  0  0  0  0  0  0
   -2.5275   -1.1846    0.0000 N   0  0  0  0  0  0  0  0  0  0  0  0
   -1.6622   -2.4099    0.0000 C   0  0  0  0  0  0  0  0  0  0  0  0
   -2.2907   -3.7719    0.0000 O   0  0  0  0  0  0  0  0  0  0  0  0
   -0.1685   -2.2732    0.0000 C   0  0  0  0  0  0  0  0  0  0  0  0
    0.6968   -3.4984    0.0000 C   0  0  0  0  0  0  0  0  0  0  0  0
    2.1906   -3.3617    0.0000 C   0  0  0  0  0  0  0  0  0  0  0  0
    2.8190   -1.9997    0.0000 C   0  0  0  0  0  0  0  0  0  0  0  0
    1.9537   -0.7744    0.0000 C   0  0  0  0  0  0  0  0  0  0  0  0
    0.4600   -0.9112    0.0000 N   0  0  0  0  0  0  0  0  0  0  0  0
    2.5822    0.5876    0.0000 C   0  0  0  0  0  0  0  0  0  0  0  0
    4.0759    0.7243    0.0000 N   0  0  0  0  0  0  0  0  0  0  0  0
    4.7044    2.0863    0.0000 C   0  0  0  0  0  0  0  0  0  0  0  0
    3.8391    3.3116    0.0000 O   0  0  0  0  0  0  0  0  0  0  0  0
    6.1982    2.2230    0.0000 C   0  0  0  0  0  0  0  0  0  0  0  0
    6.8266    3.5850    0.0000 C   0  0  0  0  0  0  0  0  0  0  0  0
    7.0635    0.9978    0.0000 C   0  0  0  0  0  0  0  0  0  0  0  0
    4.9412   -0.5010    0.0000 C   0  0  0  0  0  0  0  0  0  0  0  0
    4.3128   -1.8630    0.0000 C   0  0  0  0  0  0  0  0  0  0  0  0
   -6.3803   -0.2328    0.0000 C   0  0  0  0  0  0  0  0  0  0  0  0
   -7.2456    0.9924    0.0000 N   0  0  0  0  0  0  0  0  0  0  0  0
  1  2  1  0
  2  3  2  0
  3  4  1  0
  4  5  2  0
  5  6  1  0
  6  7  1  0
  7  8  1  0
  8  9  2  0
  8 10  1  0
 10 11  2  0
 11 12  1  0
 12 13  2  0
 13 14  1  0
 14 15  2  0
 14 16  1  0
 16 17  1  0
 17 18  1  0
 18 19  2  0
 18 20  1  0
 20 21  1  0
 20 22  1  0
 17 23  1  0
 23 24  1  0
  5 25  1  0
 25 26  2  0
 26  2  1  0
 15 10  1  0
 24 13  1  0
M  END
>  <Compound_ID>  (1) 
LIB001

>  <SMILES>  (1) 
Cc1cnc(CNC(=O)c2ccc3c(n2)CN(C(=O)C(C)C)CC3)cn1

>  <R1_reagent>  (1) 
CC(C)C(=O)Cl

>  <R1_ID>  (1) 
R-001947

>  <N_reaction>  (1) 
Amidation

>  <R2_amine>  (1) 
Cc1cnc(CN)cn1

>  <R2_ID>  (1) 
R-000616

>  <MW>  (1) 
353.4

>  <LogP>  (1) 
1.65

>  <HBD>  (1) 
1

>  <HBA>  (1) 
5

>  <RotB>  (1) 
4

>  <ASMS_similarity>  (1) 
1.0

>  <Priority_tier>  (1) 
Tier1_high

>  <Scaffold>  (1) 
OC(=O)c1ccc2CCNCc2n1

$$$$

     RDKit          2D

 34 37  0  0  0  0  0  0  0  0999 V2000
   -9.4951    4.2580    0.0000 C   0  0  0  0  0  0  0  0  0  0  0  0
   -8.7841    2.9373    0.0000 C   0  0  0  0  0  0  0  0  0  0  0  0
   -7.2848    2.8926    0.0000 C   0  0  0  0  0  0  0  0  0  0  0  0
   -6.5738    1.5718    0.0000 N   0  0  0  0  0  0  0  0  0  0  0  0
   -7.3621    0.2957    0.0000 C   0  0  0  0  0  0  0  0  0  0  0  0
   -6.6511   -1.0251    0.0000 C   0  0  0  0  0  0  0  0  0  0  0  0
   -5.1518   -1.0698    0.0000 N   0  0  0  0  0  0  0  0  0  0  0  0
   -4.4408   -2.3905    0.0000 C   0  0  0  0  0  0  0  0  0  0  0  0
   -5.2291   -3.6667    0.0000 O   0  0  0  0  0  0  0  0  0  0  0  0
   -2.9414   -2.4352    0.0000 C   0  0  0  0  0  0  0  0  0  0  0  0
   -2.2304   -3.7560    0.0000 C   0  0  0  0  0  0  0  0  0  0  0  0
   -0.7311   -3.8006    0.0000 C   0  0  0  0  0  0  0  0  0  0  0  0
    0.0572   -2.5245    0.0000 C   0  0  0  0  0  0  0  0  0  0  0  0
   -0.6538   -1.2037    0.0000 C   0  0  0  0  0  0  0  0  0  0  0  0
   -2.1531   -1.1590    0.0000 N   0  0  0  0  0  0  0  0  0  0  0  0
    0.1346    0.0724    0.0000 C   0  0  0  0  0  0  0  0  0  0  0  0
    1.6339    0.0278    0.0000 N   0  0  0  0  0  0  0  0  0  0  0  0
    2.4222    1.3039    0.0000 C   0  0  0  0  0  0  0  0  0  0  0  0
    1.7112    2.6247    0.0000 O   0  0  0  0  0  0  0  0  0  0  0  0
    3.9216    1.2593    0.0000 C   0  0  0  0  0  0  0  0  0  0  0  0
    4.6326   -0.0615    0.0000 C   0  0  0  0  0  0  0  0  0  0  0  0
    6.1319   -0.1062    0.0000 C   0  0  0  0  0  0  0  0  0  0  0  0
    6.9202    1.1700    0.0000 N   0  0  0  0  0  0  0  0  0  0  0  0
    8.4196    1.1253    0.0000 C   0  0  0  0  0  0  0  0  0  0  0  0
    9.2079    2.4015    0.0000 O   0  0  0  0  0  0  0  0  0  0  0  0
    9.1306   -0.1955    0.0000 C   0  0  0  0  0  0  0  0  0  0  0  0
   10.6299   -0.2401    0.0000 C   0  0  0  0  0  0  0  0  0  0  0  0
    8.3422   -1.4716    0.0000 C   0  0  0  0  0  0  0  0  0  0  0  0
    6.2092    2.4908    0.0000 C   0  0  0  0  0  0  0  0  0  0  0  0
    4.7099    2.5354    0.0000 C   0  0  0  0  0  0  0  0  0  0  0  0
    2.3449   -1.2930    0.0000 C   0  0  0  0  0  0  0  0  0  0  0  0
    1.5566   -2.5691    0.0000 C   0  0  0  0  0  0  0  0  0  0  0  0
   -8.8614    0.3403    0.0000 C   0  0  0  0  0  0  0  0  0  0  0  0
   -9.5724    1.6611    0.0000 N   0  0  0  0  0  0  0  0  0  0  0  0
  1  2  1  0
  2  3  2  0
  3  4  1  0
  4  5  2  0
  5  6  1  0
  6  7  1  0
  7  8  1  0
  8  9  2  0
  8 10  1  0
 10 11  2  0
 11 12  1  0
 12 13  2  0
 13 14  1  0
 14 15  2  0
 14 16  1  0
 16 17  1  0
 17 18  1  0
 18 19  2  0
 18 20  1  0
 20 21  1  0
 21 22  1  0
 22 23  1  0
 23 24  1  0
 24 25  2  0
 24 26  1  0
 26 27  1  0
 26 28  1  0
 23 29  1  0
 29 30  1  0
 17 31  1  0
 31 32  1  0
  5 33  1  0
 33 34  2  0
 34  2  1  0
 15 10  1  0
 30 20  1  0
 32 13  1  0
M  END
>  <Compound_ID>  (2) 
LIB002

>  <SMILES>  (2) 
Cc1cnc(CNC(=O)c2ccc3c(n2)CN(C(=O)C2CCN(C(=O)C(C)C)CC2)CC3)cn1

>  <R1_reagent>  (2) 
CC(C)C(=O)N1CCC(C(=O)O)CC1

>  <R1_ID>  (2) 
R-009184

>  <N_reaction>  (2) 
Amidation

>  <R2_amine>  (2) 
Cc1cnc(CN)cn1

>  <R2_ID>  (2) 
R-000616

>  <MW>  (2) 
464.6

>  <LogP>  (2) 
1.89

>  <HBD>  (2) 
1

>  <HBA>  (2) 
6

>  <RotB>  (2) 
5

>  <ASMS_similarity>  (2) 
0.85

>  <Priority_tier>  (2) 
Tier1_high

>  <Scaffold>  (2) 
OC(=O)c1ccc2CCNCc2n1

$$$$

     RDKit          2D

 25 28  0  0  0  0  0  0  0  0999 V2000
   -5.9466   -1.3551    0.0000 O   0  0  0  0  0  0  0  0  0  0  0  0
   -4.8039   -0.3834    0.0000 C   0  0  0  0  0  0  0  0  0  0  0  0
   -5.0740    1.0921    0.0000 N   0  0  0  0  0  0  0  0  0  0  0  0
   -6.4869    1.5959    0.0000 C   0  0  0  0  0  0  0  0  0  0  0  0
   -7.9624    1.3257    0.0000 C   0  0  0  0  0  0  0  0  0  0  0  0
   -7.4586    2.7386    0.0000 C   0  0  0  0  0  0  0  0  0  0  0  0
   -3.3910   -0.8872    0.0000 C   0  0  0  0  0  0  0  0  0  0  0  0
   -3.1209   -2.3627    0.0000 C   0  0  0  0  0  0  0  0  0  0  0  0
   -1.7080   -2.8664    0.0000 C   0  0  0  0  0  0  0  0  0  0  0  0
   -0.5653   -1.8947    0.0000 C   0  0  0  0  0  0  0  0  0  0  0  0
   -0.8354   -0.4193    0.0000 C   0  0  0  0  0  0  0  0  0  0  0  0
   -2.2483    0.0845    0.0000 N   0  0  0  0  0  0  0  0  0  0  0  0
    0.3073    0.5524    0.0000 C   0  0  0  0  0  0  0  0  0  0  0  0
    1.7202    0.0486    0.0000 N   0  0  0  0  0  0  0  0  0  0  0  0
    2.8629    1.0203    0.0000 C   0  0  0  0  0  0  0  0  0  0  0  0
    2.5928    2.4958    0.0000 O   0  0  0  0  0  0  0  0  0  0  0  0
    4.2758    0.5165    0.0000 C   0  0  0  0  0  0  0  0  0  0  0  0
    4.5459   -0.9589    0.0000 N   0  0  0  0  0  0  0  0  0  0  0  0
    5.9588   -1.4627    0.0000 C   0  0  0  0  0  0  0  0  0  0  0  0
    7.1015   -0.4910    0.0000 C   0  0  0  0  0  0  0  0  0  0  0  0
    6.8314    0.9844    0.0000 C   0  0  0  0  0  0  0  0  0  0  0  0
    5.4185    1.4882    0.0000 C   0  0  0  0  0  0  0  0  0  0  0  0
    5.1483    2.9637    0.0000 Cl  0  0  0  0  0  0  0  0  0  0  0  0
    1.9903   -1.4268    0.0000 C   0  0  0  0  0  0  0  0  0  0  0  0
    0.8476   -2.3985    0.0000 C   0  0  0  0  0  0  0  0  0  0  0  0
  1  2  2  0
  2  3  1  0
  3  4  1  0
  4  5  1  0
  5  6  1  0
  2  7  1  0
  7  8  2  0
  8  9  1  0
  9 10  2  0
 10 11  1  0
 11 12  2  0
 11 13  1  0
 13 14  1  0
 14 15  1  0
 15 16  2  0
 15 17  1  0
 17 18  2  0
 18 19  1  0
 19 20  2  0
 20 21  1  0
 21 22  2  0
 22 23  1  0
 14 24  1  0
 24 25  1  0
  6  4  1  0
 12  7  1  0
 22 17  1  0
 25 10  1  0
M  END
>  <Compound_ID>  (3) 
LIB003

>  <SMILES>  (3) 
O=C(NC1CC1)c1ccc2c(n1)CN(C(=O)c1ncccc1Cl)CC2

>  <R1_reagent>  (3) 
O=C(O)c1ncccc1Cl

>  <R1_ID>  (3) 
R-008821

>  <N_reaction>  (3) 
Amidation

>  <R2_amine>  (3) 
NC1CC1

>  <R2_ID>  (3) 
R-004669

>  <MW>  (3) 
356.8

>  <LogP>  (3) 
2.22

>  <HBD>  (3) 
1

>  <HBA>  (3) 
4

>  <RotB>  (3) 
3

>  <ASMS_similarity>  (3) 
0.8448

>  <Priority_tier>  (3) 
Tier1_high

>  <Scaffold>  (3) 
OC(=O)c1ccc2CCNCc2n1

$$$$

     RDKit          2D

 26 28  0  0  0  0  0  0  0  0999 V2000
   -7.4825    3.5797    0.0000 C   0  0  0  0  0  0  0  0  0  0  0  0
   -6.6172    2.3544    0.0000 C   0  0  0  0  0  0  0  0  0  0  0  0
   -5.1234    2.4912    0.0000 C   0  0  0  0  0  0  0  0  0  0  0  0
   -4.2581    1.2659    0.0000 N   0  0  0  0  0  0  0  0  0  0  0  0
   -4.8866   -0.0961    0.0000 C   0  0  0  0  0  0  0  0  0  0  0  0
   -4.0213   -1.3214    0.0000 C   0  0  0  0  0  0  0  0  0  0  0  0
   -2.5275   -1.1846    0.0000 N   0  0  0  0  0  0  0  0  0  0  0  0
   -1.6622   -2.4099    0.0000 C   0  0  0  0  0  0  0  0  0  0  0  0
   -2.2907   -3.7719    0.0000 O   0  0  0  0  0  0  0  0  0  0  0  0
   -0.1685   -2.2732    0.0000 C   0  0  0  0  0  0  0  0  0  0  0  0
    0.6968   -3.4984    0.0000 C   0  0  0  0  0  0  0  0  0  0  0  0
    2.1906   -3.3617    0.0000 C   0  0  0  0  0  0  0  0  0  0  0  0
    2.8190   -1.9997    0.0000 C   0  0  0  0  0  0  0  0  0  0  0  0
    1.9537   -0.7744    0.0000 C   0  0  0  0  0  0  0  0  0  0  0  0
    0.4600   -0.9112    0.0000 N   0  0  0  0  0  0  0  0  0  0  0  0
    2.5822    0.5876    0.0000 C   0  0  0  0  0  0  0  0  0  0  0  0
    4.0759    0.7243    0.0000 N   0  0  0  0  0  0  0  0  0  0  0  0
    4.7044    2.0863    0.0000 C   0  0  0  0  0  0  0  0  0  0  0  0
    3.8391    3.3116    0.0000 O   0  0  0  0  0  0  0  0  0  0  0  0
    6.1982    2.2230    0.0000 C   0  0  0  0  0  0  0  0  0  0  0  0
    6.8266    3.5850    0.0000 F   0  0  0  0  0  0  0  0  0  0  0  0
    7.0635    0.9978    0.0000 F   0  0  0  0  0  0  0  0  0  0  0  0
    4.9412   -0.5010    0.0000 C   0  0  0  0  0  0  0  0  0  0  0  0
    4.3128   -1.8630    0.0000 C   0  0  0  0  0  0  0  0  0  0  0  0
   -6.3803   -0.2328    0.0000 C   0  0  0  0  0  0  0  0  0  0  0  0
   -7.2456    0.9924    0.0000 N   0  0  0  0  0  0  0  0  0  0  0  0
  1  2  1  0
  2  3  2  0
  3  4  1  0
  4  5  2  0
  5  6  1  0
  6  7  1  0
  7  8  1  0
  8  9  2  0
  8 10  1  0
 10 11  2  0
 11 12  1  0
 12 13  2  0
 13 14  1  0
 14 15  2  0
 14 16  1  0
 16 17  1  0
 17 18  1  0
 18 19  2  0
 18 20  1  0
 20 21  1  0
 20 22  1  0
 17 23  1  0
 23 24  1  0
  5 25  1  0
 25 26  2  0
 26  2  1  0
 15 10  1  0
 24 13  1  0
M  END
>  <Compound_ID>  (4) 
LIB004

>  <SMILES>  (4) 
Cc1cnc(CNC(=O)c2ccc3c(n2)CN(C(=O)C(F)F)CC3)cn1

>  <R1_reagent>  (4) 
O=C(O)C(F)F

>  <R1_ID>  (4) 
R-008826

>  <N_reaction>  (4) 
Amidation

>  <R2_amine>  (4) 
Cc1cnc(CN)cn1

>  <R2_ID>  (4) 
R-000616

>  <MW>  (4) 
361.4

>  <LogP>  (4) 
1.26

>  <HBD>  (4) 
1

>  <HBA>  (4) 
5

>  <RotB>  (4) 
4

>  <ASMS_similarity>  (4) 
0.8421

>  <Priority_tier>  (4) 
Tier1_high

>  <Scaffold>  (4) 
OC(=O)c1ccc2CCNCc2n1

$$$$

     RDKit          2D

 27 30  0  0  0  0  0  0  0  0999 V2000
   -5.2368   -1.8279    0.0000 O   0  0  0  0  0  0  0  0  0  0  0  0
   -4.1525   -0.7914    0.0000 C   0  0  0  0  0  0  0  0  0  0  0  0
   -4.5079    0.6659    0.0000 N   0  0  0  0  0  0  0  0  0  0  0  0
   -5.9477    1.0867    0.0000 C   0  0  0  0  0  0  0  0  0  0  0  0
   -7.1344    0.1692    0.0000 C   0  0  0  0  0  0  0  0  0  0  0  0
   -8.3737    1.0143    0.0000 C   0  0  0  0  0  0  0  0  0  0  0  0
   -7.9529    2.4541    0.0000 C   0  0  0  0  0  0  0  0  0  0  0  0
   -6.4535    2.4988    0.0000 C   0  0  0  0  0  0  0  0  0  0  0  0
   -2.7127   -1.2122    0.0000 C   0  0  0  0  0  0  0  0  0  0  0  0
   -2.3572   -2.6695    0.0000 C   0  0  0  0  0  0  0  0  0  0  0  0
   -0.9175   -3.0903    0.0000 C   0  0  0  0  0  0  0  0  0  0  0  0
    0.1668   -2.0538    0.0000 C   0  0  0  0  0  0  0  0  0  0  0  0
   -0.1886   -0.5965    0.0000 C   0  0  0  0  0  0  0  0  0  0  0  0
   -1.6284   -0.1757    0.0000 N   0  0  0  0  0  0  0  0  0  0  0  0
    0.8957    0.4400    0.0000 C   0  0  0  0  0  0  0  0  0  0  0  0
    2.3355    0.0192    0.0000 N   0  0  0  0  0  0  0  0  0  0  0  0
    3.4198    1.0557    0.0000 C   0  0  0  0  0  0  0  0  0  0  0  0
    3.0643    2.5129    0.0000 O   0  0  0  0  0  0  0  0  0  0  0  0
    4.8595    0.6349    0.0000 C   0  0  0  0  0  0  0  0  0  0  0  0
    5.2150   -0.8224    0.0000 N   0  0  0  0  0  0  0  0  0  0  0  0
    6.6548   -1.2432    0.0000 C   0  0  0  0  0  0  0  0  0  0  0  0
    7.7391   -0.2067    0.0000 C   0  0  0  0  0  0  0  0  0  0  0  0
    7.3836    1.2506    0.0000 C   0  0  0  0  0  0  0  0  0  0  0  0
    5.9438    1.6713    0.0000 C   0  0  0  0  0  0  0  0  0  0  0  0
    5.5884    3.1286    0.0000 Cl  0  0  0  0  0  0  0  0  0  0  0  0
    2.6909   -1.4381    0.0000 C   0  0  0  0  0  0  0  0  0  0  0  0
    1.6066   -2.4746    0.0000 C   0  0  0  0  0  0  0  0  0  0  0  0
  1  2  2  0
  2  3  1  0
  3  4  1  0
  4  5  1  0
  5  6  1  0
  6  7  1  0
  7  8  1  0
  2  9  1  0
  9 10  2  0
 10 11  1  0
 11 12  2  0
 12 13  1  0
 13 14  2  0
 13 15  1  0
 15 16  1  0
 16 17  1  0
 17 18  2  0
 17 19  1  0
 19 20  2  0
 20 21  1  0
 21 22  2  0
 22 23  1  0
 23 24  2  0
 24 25  1  0
 16 26  1  0
 26 27  1  0
  8  4  1  0
 14  9  1  0
 24 19  1  0
 27 12  1  0
M  END
>  <Compound_ID>  (5) 
LIB005

>  <SMILES>  (5) 
O=C(NC1CCCC1)c1ccc2c(n1)CN(C(=O)c1ncccc1Cl)CC2

>  <R1_reagent>  (5) 
O=C(O)c1ncccc1Cl

>  <R1_ID>  (5) 
R-008821

>  <N_reaction>  (5) 
Amidation

>  <R2_amine>  (5) 
NC1CCCC1

>  <R2_ID>  (5) 
R-004298

>  <MW>  (5) 
384.9

>  <LogP>  (5) 
3.0

>  <HBD>  (5) 
1

>  <HBA>  (5) 
4

>  <RotB>  (5) 
3

>  <ASMS_similarity>  (5) 
0.8305

>  <Priority_tier>  (5) 
Tier1_high

>  <Scaffold>  (5) 
OC(=O)c1ccc2CCNCc2n1

$$$$

     RDKit          2D

 28 30  0  0  0  0  0  0  0  0999 V2000
   -7.9445   -3.0061    0.0000 C   0  0  0  0  0  0  0  0  0  0  0  0
   -6.4449   -2.9730    0.0000 C   0  0  0  0  0  0  0  0  0  0  0  0
   -5.7237   -1.6577    0.0000 C   0  0  0  0  0  0  0  0  0  0  0  0
   -6.5022   -0.3756    0.0000 C   0  0  0  0  0  0  0  0  0  0  0  0
   -8.0019   -0.4087    0.0000 C   0  0  0  0  0  0  0  0  0  0  0  0
   -4.2241   -1.6246    0.0000 C   0  0  0  0  0  0  0  0  0  0  0  0
   -3.4456   -2.9068    0.0000 O   0  0  0  0  0  0  0  0  0  0  0  0
   -3.5030   -0.3094    0.0000 N   0  0  0  0  0  0  0  0  0  0  0  0
   -4.2814    0.9728    0.0000 C   0  0  0  0  0  0  0  0  0  0  0  0
   -3.5603    2.2881    0.0000 C   0  0  0  0  0  0  0  0  0  0  0  0
   -2.0607    2.3212    0.0000 C   0  0  0  0  0  0  0  0  0  0  0  0
   -1.3395    3.6365    0.0000 C   0  0  0  0  0  0  0  0  0  0  0  0
    0.1601    3.6696    0.0000 C   0  0  0  0  0  0  0  0  0  0  0  0
    0.9386    2.3874    0.0000 C   0  0  0  0  0  0  0  0  0  0  0  0
    2.4382    2.4205    0.0000 C   0  0  0  0  0  0  0  0  0  0  0  0
    3.1594    3.7358    0.0000 O   0  0  0  0  0  0  0  0  0  0  0  0
    3.2167    1.1383    0.0000 N   0  0  0  0  0  0  0  0  0  0  0  0
    4.7164    1.1715    0.0000 C   0  0  0  0  0  0  0  0  0  0  0  0
    5.4949   -0.1107    0.0000 C   0  0  0  0  0  0  0  0  0  0  0  0
    4.7737   -1.4260    0.0000 C   0  0  0  0  0  0  0  0  0  0  0  0
    5.5522   -2.7082    0.0000 N   0  0  0  0  0  0  0  0  0  0  0  0
    7.0518   -2.6751    0.0000 C   0  0  0  0  0  0  0  0  0  0  0  0
    7.8303   -3.9572    0.0000 C   0  0  0  0  0  0  0  0  0  0  0  0
    7.7730   -1.3598    0.0000 C   0  0  0  0  0  0  0  0  0  0  0  0
    6.9945   -0.0776    0.0000 N   0  0  0  0  0  0  0  0  0  0  0  0
    0.2175    1.0721    0.0000 N   0  0  0  0  0  0  0  0  0  0  0  0
   -1.2822    1.0390    0.0000 C   0  0  0  0  0  0  0  0  0  0  0  0
   -2.0033   -0.2763    0.0000 C   0  0  0  0  0  0  0  0  0  0  0  0
  1  2  1  0
  2  3  1  0
  3  4  1  0
  4  5  1  0
  3  6  1  0
  6  7  2  0
  6  8  1  0
  8  9  1  0
  9 10  1  0
 10 11  1  0
 11 12  2  0
 12 13  1  0
 13 14  2  0
 14 15  1  0
 15 16  2  0
 15 17  1  0
 17 18  1  0
 18 19  1  0
 19 20  2  0
 20 21  1  0
 21 22  2  0
 22 23  1  0
 22 24  1  0
 24 25  2  0
 14 26  1  0
 26 27  2  0
 27 28  1  0
 28  8  1  0
 27 11  1  0
 25 19  1  0
M  END
>  <Compound_ID>  (6) 
LIB006

>  <SMILES>  (6) 
CCC(CC)C(=O)N1CCc2ccc(C(=O)NCc3cnc(C)cn3)nc2C1

>  <R1_reagent>  (6) 
CCC(CC)C(=O)Cl

>  <R1_ID>  (6) 
R-005857

>  <N_reaction>  (6) 
Amidation

>  <R2_amine>  (6) 
Cc1cnc(CN)cn1

>  <R2_ID>  (6) 
R-000616

>  <MW>  (6) 
381.5

>  <LogP>  (6) 
2.43

>  <HBD>  (6) 
1

>  <HBA>  (6) 
5

>  <RotB>  (6) 
6

>  <ASMS_similarity>  (6) 
0.8276

>  <Priority_tier>  (6) 
Tier1_high

>  <Scaffold>  (6) 
OC(=O)c1ccc2CCNCc2n1

$$$$

     RDKit          2D

 33 36  0  0  0  0  0  0  0  0999 V2000
   -9.5613    0.2282    0.0000 C   0  0  0  0  0  0  0  0  0  0  0  0
   -8.1317   -0.2259    0.0000 O   0  0  0  0  0  0  0  0  0  0  0  0
   -7.0237    0.7852    0.0000 C   0  0  0  0  0  0  0  0  0  0  0  0
   -7.3452    2.2503    0.0000 C   0  0  0  0  0  0  0  0  0  0  0  0
   -6.2372    3.2614    0.0000 C   0  0  0  0  0  0  0  0  0  0  0  0
   -4.8076    2.8073    0.0000 C   0  0  0  0  0  0  0  0  0  0  0  0
   -3.6995    3.8184    0.0000 C   0  0  0  0  0  0  0  0  0  0  0  0
   -4.4860    1.3422    0.0000 C   0  0  0  0  0  0  0  0  0  0  0  0
   -5.5940    0.3311    0.0000 C   0  0  0  0  0  0  0  0  0  0  0  0
   -5.2725   -1.1340    0.0000 C   0  0  0  0  0  0  0  0  0  0  0  0
   -6.3805   -2.1451    0.0000 O   0  0  0  0  0  0  0  0  0  0  0  0
   -3.8428   -1.5881    0.0000 N   0  0  0  0  0  0  0  0  0  0  0  0
   -3.5212   -3.0532    0.0000 C   0  0  0  0  0  0  0  0  0  0  0  0
   -2.0916   -3.5072    0.0000 C   0  0  0  0  0  0  0  0  0  0  0  0
   -0.9836   -2.4962    0.0000 C   0  0  0  0  0  0  0  0  0  0  0  0
    0.4461   -2.9502    0.0000 C   0  0  0  0  0  0  0  0  0  0  0  0
    1.5541   -1.9392    0.0000 C   0  0  0  0  0  0  0  0  0  0  0  0
    1.2325   -0.4741    0.0000 C   0  0  0  0  0  0  0  0  0  0  0  0
    2.3405    0.5370    0.0000 C   0  0  0  0  0  0  0  0  0  0  0  0
    2.0190    2.0021    0.0000 O   0  0  0  0  0  0  0  0  0  0  0  0
    3.7702    0.0829    0.0000 N   0  0  0  0  0  0  0  0  0  0  0  0
    4.8782    1.0940    0.0000 C   0  0  0  0  0  0  0  0  0  0  0  0
    6.3078    0.6399    0.0000 C   0  0  0  0  0  0  0  0  0  0  0  0
    6.6294   -0.8252    0.0000 C   0  0  0  0  0  0  0  0  0  0  0  0
    8.0590   -1.2792    0.0000 C   0  0  0  0  0  0  0  0  0  0  0  0
    9.1671   -0.2682    0.0000 C   0  0  0  0  0  0  0  0  0  0  0  0
   10.5967   -0.7222    0.0000 C   0  0  0  0  0  0  0  0  0  0  0  0
    8.8455    1.1969    0.0000 C   0  0  0  0  0  0  0  0  0  0  0  0
    9.9535    2.2080    0.0000 C   0  0  0  0  0  0  0  0  0  0  0  0
    7.4159    1.6510    0.0000 C   0  0  0  0  0  0  0  0  0  0  0  0
   -0.1971   -0.0200    0.0000 N   0  0  0  0  0  0  0  0  0  0  0  0
   -1.3052   -1.0311    0.0000 C   0  0  0  0  0  0  0  0  0  0  0  0
   -2.7348   -0.5770    0.0000 C   0  0  0  0  0  0  0  0  0  0  0  0
  1  2  1  0
  2  3  1  0
  3  4  2  0
  4  5  1  0
  5  6  2  0
  6  7  1  0
  6  8  1  0
  8  9  2  0
  9 10  1  0
 10 11  2  0
 10 12  1  0
 12 13  1  0
 13 14  1  0
 14 15  1  0
 15 16  2  0
 16 17  1  0
 17 18  2  0
 18 19  1  0
 19 20  2  0
 19 21  1  0
 21 22  1  0
 22 23  1  0
 23 24  2  0
 24 25  1  0
 25 26  2  0
 26 27  1  0
 26 28  1  0
 28 29  1  0
 28 30  2  0
 18 31  1  0
 31 32  2  0
 32 33  1  0
  9  3  1  0
 33 12  1  0
 32 15  1  0
 30 23  1  0
M  END
>  <Compound_ID>  (7) 
LIB007

>  <SMILES>  (7) 
COc1ccc(C)cc1C(=O)N1CCc2ccc(C(=O)NCc3ccc(C)c(C)c3)nc2C1

>  <R1_reagent>  (7) 
COc1ccc(C)cc1C(=O)O

>  <R1_ID>  (7) 
R-006349

>  <N_reaction>  (7) 
Amidation

>  <R2_amine>  (7) 
Cc1ccc(CN)cc1C

>  <R2_ID>  (7) 
R-008930

>  <MW>  (7) 
443.5

>  <LogP>  (7) 
4.14

>  <HBD>  (7) 
1

>  <HBA>  (7) 
4

>  <RotB>  (7) 
5

>  <ASMS_similarity>  (7) 
0.791

>  <Priority_tier>  (7) 
Tier1_high

>  <Scaffold>  (7) 
OC(=O)c1ccc2CCNCc2n1

$$$$

     RDKit          2D

 31 33  0  0  0  0  0  0  0  0999 V2000
  -12.0134   -2.5618    0.0000 C   0  0  0  0  0  0  0  0  0  0  0  0
  -10.5343   -2.8115    0.0000 C   0  0  0  0  0  0  0  0  0  0  0  0
   -9.5785   -1.6554    0.0000 C   0  0  0  0  0  0  0  0  0  0  0  0
   -8.0994   -1.9051    0.0000 C   0  0  0  0  0  0  0  0  0  0  0  0
   -7.1437   -0.7490    0.0000 C   0  0  0  0  0  0  0  0  0  0  0  0
   -5.6646   -0.9987    0.0000 C   0  0  0  0  0  0  0  0  0  0  0  0
   -5.1413   -2.4044    0.0000 O   0  0  0  0  0  0  0  0  0  0  0  0
   -4.7088    0.1574    0.0000 N   0  0  0  0  0  0  0  0  0  0  0  0
   -5.2322    1.5632    0.0000 C   0  0  0  0  0  0  0  0  0  0  0  0
   -4.2764    2.7192    0.0000 C   0  0  0  0  0  0  0  0  0  0  0  0
   -2.7973    2.4696    0.0000 C   0  0  0  0  0  0  0  0  0  0  0  0
   -1.8416    3.6257    0.0000 C   0  0  0  0  0  0  0  0  0  0  0  0
   -0.3625    3.3760    0.0000 C   0  0  0  0  0  0  0  0  0  0  0  0
    0.1608    1.9702    0.0000 C   0  0  0  0  0  0  0  0  0  0  0  0
    1.6399    1.7206    0.0000 C   0  0  0  0  0  0  0  0  0  0  0  0
    2.5957    2.8766    0.0000 O   0  0  0  0  0  0  0  0  0  0  0  0
    2.1632    0.3148    0.0000 N   0  0  0  0  0  0  0  0  0  0  0  0
    3.6423    0.0651    0.0000 C   0  0  0  0  0  0  0  0  0  0  0  0
    4.1656   -1.3406    0.0000 C   0  0  0  0  0  0  0  0  0  0  0  0
    5.6447   -1.5903    0.0000 C   0  0  0  0  0  0  0  0  0  0  0  0
    6.6004   -0.4342    0.0000 N   0  0  0  0  0  0  0  0  0  0  0  0
    8.0795   -0.6839    0.0000 C   0  0  0  0  0  0  0  0  0  0  0  0
    9.0353    0.4722    0.0000 O   0  0  0  0  0  0  0  0  0  0  0  0
    8.6028   -2.0896    0.0000 O   0  0  0  0  0  0  0  0  0  0  0  0
   10.0819   -2.3393    0.0000 C   0  0  0  0  0  0  0  0  0  0  0  0
   10.6052   -3.7451    0.0000 C   0  0  0  0  0  0  0  0  0  0  0  0
    6.0771    0.9715    0.0000 C   0  0  0  0  0  0  0  0  0  0  0  0
    4.5981    1.2212    0.0000 C   0  0  0  0  0  0  0  0  0  0  0  0
   -0.7949    0.8141    0.0000 N   0  0  0  0  0  0  0  0  0  0  0  0
   -2.2740    1.0638    0.0000 C   0  0  0  0  0  0  0  0  0  0  0  0
   -3.2298   -0.0923    0.0000 C   0  0  0  0  0  0  0  0  0  0  0  0
  1  2  1  0
  2  3  1  0
  3  4  1  0
  4  5  1  0
  5  6  1  0
  6  7  2  0
  6  8  1  0
  8  9  1  0
  9 10  1  0
 10 11  1  0
 11 12  2  0
 12 13  1  0
 13 14  2  0
 14 15  1  0
 15 16  2  0
 15 17  1  0
 17 18  1  0
 18 19  1  0
 19 20  1  0
 20 21  1  0
 21 22  1  0
 22 23  2  0
 22 24  1  0
 24 25  1  0
 25 26  1  0
 21 27  1  0
 27 28  1  0
 14 29  1  0
 29 30  2  0
 30 31  1  0
 31  8  1  0
 30 11  1  0
 28 18  1  0
M  END
>  <Compound_ID>  (8) 
LIB008

>  <SMILES>  (8) 
CCCCCC(=O)N1CCc2ccc(C(=O)NC3CCN(C(=O)OCC)CC3)nc2C1

>  <R1_reagent>  (8) 
CCCCCC(=O)O

>  <R1_ID>  (8) 
R-009172

>  <N_reaction>  (8) 
Amidation

>  <R2_amine>  (8) 
CCOC(=O)N1CCC(N)CC1

>  <R2_ID>  (8) 
R-002204

>  <MW>  (8) 
430.5

>  <LogP>  (8) 
2.9

>  <HBD>  (8) 
1

>  <HBA>  (8) 
5

>  <RotB>  (8) 
7

>  <ASMS_similarity>  (8) 
0.791

>  <Priority_tier>  (8) 
Tier1_high

>  <Scaffold>  (8) 
OC(=O)c1ccc2CCNCc2n1

$$$$

     RDKit          2D

 29 32  0  0  0  0  0  0  0  0999 V2000
   -9.7181    1.7287    0.0000 C   0  0  0  0  0  0  0  0  0  0  0  0
   -8.2593    1.3793    0.0000 N   0  0  0  0  0  0  0  0  0  0  0  0
   -7.2274    2.4680    0.0000 C   0  0  0  0  0  0  0  0  0  0  0  0
   -5.7686    2.1186    0.0000 C   0  0  0  0  0  0  0  0  0  0  0  0
   -5.3418    0.6806    0.0000 C   0  0  0  0  0  0  0  0  0  0  0  0
   -3.8831    0.3312    0.0000 N   0  0  0  0  0  0  0  0  0  0  0  0
   -3.4563   -1.1068    0.0000 C   0  0  0  0  0  0  0  0  0  0  0  0
   -4.4882   -2.1954    0.0000 O   0  0  0  0  0  0  0  0  0  0  0  0
   -1.9976   -1.4562    0.0000 C   0  0  0  0  0  0  0  0  0  0  0  0
   -1.5707   -2.8941    0.0000 C   0  0  0  0  0  0  0  0  0  0  0  0
   -0.1120   -3.2435    0.0000 C   0  0  0  0  0  0  0  0  0  0  0  0
    0.9199   -2.1549    0.0000 C   0  0  0  0  0  0  0  0  0  0  0  0
    0.4931   -0.7169    0.0000 C   0  0  0  0  0  0  0  0  0  0  0  0
   -0.9656   -0.3675    0.0000 N   0  0  0  0  0  0  0  0  0  0  0  0
    1.5251    0.3717    0.0000 C   0  0  0  0  0  0  0  0  0  0  0  0
    2.9838    0.0223    0.0000 N   0  0  0  0  0  0  0  0  0  0  0  0
    4.0158    1.1110    0.0000 C   0  0  0  0  0  0  0  0  0  0  0  0
    3.5890    2.5490    0.0000 O   0  0  0  0  0  0  0  0  0  0  0  0
    5.4745    0.7616    0.0000 C   0  0  0  0  0  0  0  0  0  0  0  0
    5.9013   -0.6764    0.0000 N   0  0  0  0  0  0  0  0  0  0  0  0
    7.3601   -1.0258    0.0000 C   0  0  0  0  0  0  0  0  0  0  0  0
    8.3920    0.0628    0.0000 C   0  0  0  0  0  0  0  0  0  0  0  0
    7.9652    1.5008    0.0000 C   0  0  0  0  0  0  0  0  0  0  0  0
    6.5064    1.8502    0.0000 C   0  0  0  0  0  0  0  0  0  0  0  0
    6.0796    3.2882    0.0000 Cl  0  0  0  0  0  0  0  0  0  0  0  0
    3.4106   -1.4157    0.0000 C   0  0  0  0  0  0  0  0  0  0  0  0
    2.3787   -2.5043    0.0000 C   0  0  0  0  0  0  0  0  0  0  0  0
   -6.3738   -0.4080    0.0000 C   0  0  0  0  0  0  0  0  0  0  0  0
   -7.8325   -0.0586    0.0000 C   0  0  0  0  0  0  0  0  0  0  0  0
  1  2  1  0
  2  3  1  0
  3  4  1  0
  4  5  1  0
  5  6  1  0
  6  7  1  0
  7  8  2  0
  7  9  1  0
  9 10  2  0
 10 11  1  0
 11 12  2  0
 12 13  1  0
 13 14  2  0
 13 15  1  0
 15 16  1  0
 16 17  1  0
 17 18  2  0
 17 19  1  0
 19 20  2  0
 20 21  1  0
 21 22  2  0
 22 23  1  0
 23 24  2  0
 24 25  1  0
 16 26  1  0
 26 27  1  0
  5 28  1  0
 28 29  1  0
 29  2  1  0
 14  9  1  0
 24 19  1  0
 27 12  1  0
M  END
>  <Compound_ID>  (9) 
LIB009

>  <SMILES>  (9) 
CN1CCC(NC(=O)c2ccc3c(n2)CN(C(=O)c2ncccc2Cl)CC3)CC1

>  <R1_reagent>  (9) 
O=C(O)c1ncccc1Cl

>  <R1_ID>  (9) 
R-008821

>  <N_reaction>  (9) 
Amidation

>  <R2_amine>  (9) 
CN1CCC(N)CC1

>  <R2_ID>  (9) 
R-000447

>  <MW>  (9) 
413.9

>  <LogP>  (9) 
2.15

>  <HBD>  (9) 
1

>  <HBA>  (9) 
5

>  <RotB>  (9) 
3

>  <ASMS_similarity>  (9) 
0.7903

>  <Priority_tier>  (9) 
Tier1_high

>  <Scaffold>  (9) 
OC(=O)c1ccc2CCNCc2n1

$$$$

     RDKit          2D

 36 39  0  0  0  0  0  0  0  0999 V2000
  -12.2489    4.3002    0.0000 C   0  0  0  0  0  0  0  0  0  0  0  0
  -11.8254    2.8612    0.0000 C   0  0  0  0  0  0  0  0  0  0  0  0
  -10.3675    2.5085    0.0000 O   0  0  0  0  0  0  0  0  0  0  0  0
   -9.9440    1.0695    0.0000 C   0  0  0  0  0  0  0  0  0  0  0  0
  -10.9785   -0.0167    0.0000 O   0  0  0  0  0  0  0  0  0  0  0  0
   -8.4861    0.7168    0.0000 N   0  0  0  0  0  0  0  0  0  0  0  0
   -7.4516    1.8030    0.0000 C   0  0  0  0  0  0  0  0  0  0  0  0
   -5.9937    1.4502    0.0000 C   0  0  0  0  0  0  0  0  0  0  0  0
   -5.5702    0.0112    0.0000 C   0  0  0  0  0  0  0  0  0  0  0  0
   -4.1123   -0.3415    0.0000 N   0  0  0  0  0  0  0  0  0  0  0  0
   -3.6888   -1.7805    0.0000 C   0  0  0  0  0  0  0  0  0  0  0  0
   -4.7233   -2.8667    0.0000 O   0  0  0  0  0  0  0  0  0  0  0  0
   -2.2309   -2.1333    0.0000 C   0  0  0  0  0  0  0  0  0  0  0  0
   -1.8074   -3.5722    0.0000 C   0  0  0  0  0  0  0  0  0  0  0  0
   -0.3495   -3.9250    0.0000 C   0  0  0  0  0  0  0  0  0  0  0  0
    0.6849   -2.8388    0.0000 C   0  0  0  0  0  0  0  0  0  0  0  0
    0.2615   -1.3998    0.0000 C   0  0  0  0  0  0  0  0  0  0  0  0
   -1.1965   -1.0470    0.0000 N   0  0  0  0  0  0  0  0  0  0  0  0
    1.2959   -0.3136    0.0000 C   0  0  0  0  0  0  0  0  0  0  0  0
    2.7539   -0.6663    0.0000 N   0  0  0  0  0  0  0  0  0  0  0  0
    3.7883    0.4199    0.0000 C   0  0  0  0  0  0  0  0  0  0  0  0
    3.3649    1.8589    0.0000 O   0  0  0  0  0  0  0  0  0  0  0  0
    5.2463    0.0672    0.0000 C   0  0  0  0  0  0  0  0  0  0  0  0
    6.2807    1.1534    0.0000 C   0  0  0  0  0  0  0  0  0  0  0  0
    7.7387    0.8006    0.0000 C   0  0  0  0  0  0  0  0  0  0  0  0
    8.7731    1.8869    0.0000 O   0  0  0  0  0  0  0  0  0  0  0  0
   10.2310    1.5341    0.0000 C   0  0  0  0  0  0  0  0  0  0  0  0
   10.6545    0.0951    0.0000 C   0  0  0  0  0  0  0  0  0  0  0  0
   12.1124   -0.2576    0.0000 C   0  0  0  0  0  0  0  0  0  0  0  0
   13.1469    0.8286    0.0000 C   0  0  0  0  0  0  0  0  0  0  0  0
   12.7234    2.2676    0.0000 C   0  0  0  0  0  0  0  0  0  0  0  0
   11.2655    2.6203    0.0000 C   0  0  0  0  0  0  0  0  0  0  0  0
    3.1773   -2.1053    0.0000 C   0  0  0  0  0  0  0  0  0  0  0  0
    2.1429   -3.1915    0.0000 C   0  0  0  0  0  0  0  0  0  0  0  0
   -6.6047   -1.0750    0.0000 C   0  0  0  0  0  0  0  0  0  0  0  0
   -8.0626   -0.7222    0.0000 C   0  0  0  0  0  0  0  0  0  0  0  0
  1  2  1  0
  2  3  1  0
  3  4  1  0
  4  5  2  0
  4  6  1  0
  6  7  1  0
  7  8  1  0
  8  9  1  0
  9 10  1  0
 10 11  1  0
 11 12  2  0
 11 13  1  0
 13 14  2  0
 14 15  1  0
 15 16  2  0
 16 17  1  0
 17 18  2  0
 17 19  1  0
 19 20  1  0
 20 21  1  0
 21 22  2  0
 21 23  1  0
 23 24  1  0
 24 25  1  0
 25 26  1  0
 26 27  1  0
 27 28  2  0
 28 29  1  0
 29 30  2  0
 30 31  1  0
 31 32  2  0
 20 33  1  0
 33 34  1  0
  9 35  1  0
 35 36  1  0
 36  6  1  0
 18 13  1  0
 32 27  1  0
 34 16  1  0
M  END
>  <Compound_ID>  (10) 
LIB010

>  <SMILES>  (10) 
CCOC(=O)N1CCC(NC(=O)c2ccc3c(n2)CN(C(=O)CCCOc2ccccc2)CC3)CC1

>  <R1_reagent>  (10) 
O=C(O)CCCOc1ccccc1

>  <R1_ID>  (10) 
R-006725

>  <N_reaction>  (10) 
Amidation

>  <R2_amine>  (10) 
CCOC(=O)N1CCC(N)CC1

>  <R2_ID>  (10) 
R-002204

>  <MW>  (10) 
494.6

>  <LogP>  (10) 
3.18

>  <HBD>  (10) 
1

>  <HBA>  (10) 
6

>  <RotB>  (10) 
8

>  <ASMS_similarity>  (10) 
0.7887

>  <Priority_tier>  (10) 
Tier1_high

>  <Scaffold>  (10) 
OC(=O)c1ccc2CCNCc2n1

$$$$

     RDKit          2D

 37 40  0  0  0  0  0  0  0  0999 V2000
  -12.4161    4.3798    0.0000 C   0  0  0  0  0  0  0  0  0  0  0  0
  -12.0123    2.9352    0.0000 C   0  0  0  0  0  0  0  0  0  0  0  0
  -10.5593    2.5626    0.0000 O   0  0  0  0  0  0  0  0  0  0  0  0
  -10.1554    1.1180    0.0000 C   0  0  0  0  0  0  0  0  0  0  0  0
  -11.2046    0.0460    0.0000 O   0  0  0  0  0  0  0  0  0  0  0  0
   -8.7024    0.7454    0.0000 N   0  0  0  0  0  0  0  0  0  0  0  0
   -7.6533    1.8175    0.0000 C   0  0  0  0  0  0  0  0  0  0  0  0
   -6.2003    1.4449    0.0000 C   0  0  0  0  0  0  0  0  0  0  0  0
   -5.7964    0.0003    0.0000 C   0  0  0  0  0  0  0  0  0  0  0  0
   -4.3435   -0.3723    0.0000 N   0  0  0  0  0  0  0  0  0  0  0  0
   -3.9396   -1.8169    0.0000 C   0  0  0  0  0  0  0  0  0  0  0  0
   -4.9888   -2.8890    0.0000 O   0  0  0  0  0  0  0  0  0  0  0  0
   -2.4866   -2.1895    0.0000 C   0  0  0  0  0  0  0  0  0  0  0  0
   -2.0828   -3.6341    0.0000 C   0  0  0  0  0  0  0  0  0  0  0  0
   -0.6298   -4.0067    0.0000 C   0  0  0  0  0  0  0  0  0  0  0  0
    0.4194   -2.9346    0.0000 C   0  0  0  0  0  0  0  0  0  0  0  0
    0.0155   -1.4900    0.0000 C   0  0  0  0  0  0  0  0  0  0  0  0
   -1.4375   -1.1174    0.0000 N   0  0  0  0  0  0  0  0  0  0  0  0
    1.0647   -0.4180    0.0000 C   0  0  0  0  0  0  0  0  0  0  0  0
    2.5177   -0.7906    0.0000 N   0  0  0  0  0  0  0  0  0  0  0  0
    3.5668    0.2815    0.0000 C   0  0  0  0  0  0  0  0  0  0  0  0
    3.1630    1.7261    0.0000 O   0  0  0  0  0  0  0  0  0  0  0  0
    5.0198   -0.0911    0.0000 C   0  0  0  0  0  0  0  0  0  0  0  0
    6.0690    0.9809    0.0000 C   0  0  0  0  0  0  0  0  0  0  0  0
    7.5220    0.6084    0.0000 C   0  0  0  0  0  0  0  0  0  0  0  0
    8.5711    1.6804    0.0000 C   0  0  0  0  0  0  0  0  0  0  0  0
    8.1673    3.1250    0.0000 O   0  0  0  0  0  0  0  0  0  0  0  0
   10.0241    1.3078    0.0000 N   0  0  0  0  0  0  0  0  0  0  0  0
   10.4280   -0.1368    0.0000 C   0  0  0  0  0  0  0  0  0  0  0  0
   11.8809   -0.5094    0.0000 C   0  0  0  0  0  0  0  0  0  0  0  0
   12.9301    0.5627    0.0000 C   0  0  0  0  0  0  0  0  0  0  0  0
   12.5263    2.0073    0.0000 C   0  0  0  0  0  0  0  0  0  0  0  0
   11.0733    2.3799    0.0000 C   0  0  0  0  0  0  0  0  0  0  0  0
    2.9215   -2.2352    0.0000 C   0  0  0  0  0  0  0  0  0  0  0  0
    1.8724   -3.3072    0.0000 C   0  0  0  0  0  0  0  0  0  0  0  0
   -6.8456   -1.0718    0.0000 C   0  0  0  0  0  0  0  0  0  0  0  0
   -8.2986   -0.6992    0.0000 C   0  0  0  0  0  0  0  0  0  0  0  0
  1  2  1  0
  2  3  1  0
  3  4  1  0
  4  5  2  0
  4  6  1  0
  6  7  1  0
  7  8  1  0
  8  9  1  0
  9 10  1  0
 10 11  1  0
 11 12  2  0
 11 13  1  0
 13 14  2  0
 14 15  1  0
 15 16  2  0
 16 17  1  0
 17 18  2  0
 17 19  1  0
 19 20  1  0
 20 21  1  0
 21 22  2  0
 21 23  1  0
 23 24  1  0
 24 25  1  0
 25 26  1  0
 26 27  2  0
 26 28  1  0
 28 29  1  0
 29 30  1  0
 30 31  1  0
 31 32  1  0
 32 33  1  0
 20 34  1  0
 34 35  1  0
  9 36  1  0
 36 37  1  0
 37  6  1  0
 18 13  1  0
 33 28  1  0
 35 16  1  0
M  END
>  <Compound_ID>  (11) 
LIB011

>  <SMILES>  (11) 
CCOC(=O)N1CCC(NC(=O)c2ccc3c(n2)CN(C(=O)CCCC(=O)N2CCCCC2)CC3)CC1

>  <R1_reagent>  (11) 
O=C(O)CCCC(=O)N1CCCCC1

>  <R1_ID>  (11) 
R-007891

>  <N_reaction>  (11) 
Amidation

>  <R2_amine>  (11) 
CCOC(=O)N1CCC(N)CC1

>  <R2_ID>  (11) 
R-002204

>  <MW>  (11) 
513.6

>  <LogP>  (11) 
2.5

>  <HBD>  (11) 
1

>  <HBA>  (11) 
6

>  <RotB>  (11) 
7

>  <ASMS_similarity>  (11) 
0.7826

>  <Priority_tier>  (11) 
Tier1_high

>  <Scaffold>  (11) 
OC(=O)c1ccc2CCNCc2n1

$$$$

     RDKit          2D

 34 37  0  0  0  0  0  0  0  0999 V2000
  -11.5718    3.8266    0.0000 C   0  0  0  0  0  0  0  0  0  0  0  0
  -11.0634    2.4154    0.0000 C   0  0  0  0  0  0  0  0  0  0  0  0
   -9.5870    2.1501    0.0000 O   0  0  0  0  0  0  0  0  0  0  0  0
   -9.0787    0.7388    0.0000 C   0  0  0  0  0  0  0  0  0  0  0  0
  -10.0466   -0.4070    0.0000 O   0  0  0  0  0  0  0  0  0  0  0  0
   -7.6023    0.4735    0.0000 N   0  0  0  0  0  0  0  0  0  0  0  0
   -6.6343    1.6194    0.0000 C   0  0  0  0  0  0  0  0  0  0  0  0
   -5.1580    1.3540    0.0000 C   0  0  0  0  0  0  0  0  0  0  0  0
   -4.6496   -0.0572    0.0000 C   0  0  0  0  0  0  0  0  0  0  0  0
   -3.1733   -0.3225    0.0000 N   0  0  0  0  0  0  0  0  0  0  0  0
   -2.6649   -1.7337    0.0000 C   0  0  0  0  0  0  0  0  0  0  0  0
   -3.6329   -2.8796    0.0000 O   0  0  0  0  0  0  0  0  0  0  0  0
   -1.1885   -1.9991    0.0000 C   0  0  0  0  0  0  0  0  0  0  0  0
   -0.6802   -3.4103    0.0000 C   0  0  0  0  0  0  0  0  0  0  0  0
    0.7962   -3.6756    0.0000 C   0  0  0  0  0  0  0  0  0  0  0  0
    1.7641   -2.5298    0.0000 C   0  0  0  0  0  0  0  0  0  0  0  0
    1.2558   -1.1185    0.0000 C   0  0  0  0  0  0  0  0  0  0  0  0
   -0.2206   -0.8532    0.0000 N   0  0  0  0  0  0  0  0  0  0  0  0
    2.2237    0.0273    0.0000 C   0  0  0  0  0  0  0  0  0  0  0  0
    3.7001   -0.2380    0.0000 N   0  0  0  0  0  0  0  0  0  0  0  0
    4.6680    0.9079    0.0000 C   0  0  0  0  0  0  0  0  0  0  0  0
    4.1597    2.3191    0.0000 O   0  0  0  0  0  0  0  0  0  0  0  0
    6.1444    0.6425    0.0000 C   0  0  0  0  0  0  0  0  0  0  0  0
    7.1123    1.7884    0.0000 C   0  0  0  0  0  0  0  0  0  0  0  0
    8.5887    1.5231    0.0000 C   0  0  0  0  0  0  0  0  0  0  0  0
    9.0971    0.1119    0.0000 C   0  0  0  0  0  0  0  0  0  0  0  0
   10.5734   -0.1535    0.0000 C   0  0  0  0  0  0  0  0  0  0  0  0
   11.5414    0.9924    0.0000 C   0  0  0  0  0  0  0  0  0  0  0  0
   11.0330    2.4036    0.0000 C   0  0  0  0  0  0  0  0  0  0  0  0
    9.5567    2.6690    0.0000 C   0  0  0  0  0  0  0  0  0  0  0  0
    4.2085   -1.6492    0.0000 C   0  0  0  0  0  0  0  0  0  0  0  0
    3.2405   -2.7951    0.0000 C   0  0  0  0  0  0  0  0  0  0  0  0
   -5.6176   -1.2031    0.0000 C   0  0  0  0  0  0  0  0  0  0  0  0
   -7.0939   -0.9377    0.0000 C   0  0  0  0  0  0  0  0  0  0  0  0
  1  2  1  0
  2  3  1  0
  3  4  1  0
  4  5  2  0
  4  6  1  0
  6  7  1  0
  7  8  1  0
  8  9  1  0
  9 10  1  0
 10 11  1  0
 11 12  2  0
 11 13  1  0
 13 14  2  0
 14 15  1  0
 15 16  2  0
 16 17  1  0
 17 18  2  0
 17 19  1  0
 19 20  1  0
 20 21  1  0
 21 22  2  0
 21 23  1  0
 23 24  1  0
 24 25  1  0
 25 26  2  0
 26 27  1  0
 27 28  2  0
 28 29  1  0
 29 30  2  0
 20 31  1  0
 31 32  1  0
  9 33  1  0
 33 34  1  0
 34  6  1  0
 18 13  1  0
 30 25  1  0
 32 16  1  0
M  END
>  <Compound_ID>  (12) 
LIB012

>  <SMILES>  (12) 
CCOC(=O)N1CCC(NC(=O)c2ccc3c(n2)CN(C(=O)CCc2ccccc2)CC3)CC1

>  <R1_reagent>  (12) 
O=C(Cl)CCc1ccccc1

>  <R1_ID>  (12) 
R-004770

>  <N_reaction>  (12) 
Amidation

>  <R2_amine>  (12) 
CCOC(=O)N1CCC(N)CC1

>  <R2_ID>  (12) 
R-002204

>  <MW>  (12) 
464.6

>  <LogP>  (12) 
2.95

>  <HBD>  (12) 
1

>  <HBA>  (12) 
5

>  <RotB>  (12) 
6

>  <ASMS_similarity>  (12) 
0.7714

>  <Priority_tier>  (12) 
Tier1_high

>  <Scaffold>  (12) 
OC(=O)c1ccc2CCNCc2n1

$$$$

     RDKit          2D

 33 37  0  0  0  0  0  0  0  0999 V2000
   -8.5721    4.1430    0.0000 C   0  0  0  0  0  0  0  0  0  0  0  0
   -7.8594    2.8231    0.0000 C   0  0  0  0  0  0  0  0  0  0  0  0
   -6.3600    2.7804    0.0000 C   0  0  0  0  0  0  0  0  0  0  0  0
   -5.6473    1.4605    0.0000 C   0  0  0  0  0  0  0  0  0  0  0  0
   -6.4340    0.1833    0.0000 C   0  0  0  0  0  0  0  0  0  0  0  0
   -5.7213   -1.1365    0.0000 C   0  0  0  0  0  0  0  0  0  0  0  0
   -4.2219   -1.1793    0.0000 N   0  0  0  0  0  0  0  0  0  0  0  0
   -3.5092   -2.4991    0.0000 C   0  0  0  0  0  0  0  0  0  0  0  0
   -4.2959   -3.7763    0.0000 O   0  0  0  0  0  0  0  0  0  0  0  0
   -2.0098   -2.5419    0.0000 C   0  0  0  0  0  0  0  0  0  0  0  0
   -1.2971   -3.8617    0.0000 C   0  0  0  0  0  0  0  0  0  0  0  0
    0.2023   -3.9045    0.0000 C   0  0  0  0  0  0  0  0  0  0  0  0
    0.9890   -2.6273    0.0000 C   0  0  0  0  0  0  0  0  0  0  0  0
    0.2763   -1.3074    0.0000 C   0  0  0  0  0  0  0  0  0  0  0  0
   -1.2231   -1.2647    0.0000 N   0  0  0  0  0  0  0  0  0  0  0  0
    1.0630   -0.0303    0.0000 C   0  0  0  0  0  0  0  0  0  0  0  0
    2.5624   -0.0730    0.0000 N   0  0  0  0  0  0  0  0  0  0  0  0
    3.3491    1.2041    0.0000 C   0  0  0  0  0  0  0  0  0  0  0  0
    2.6364    2.5240    0.0000 O   0  0  0  0  0  0  0  0  0  0  0  0
    4.8485    1.1614    0.0000 C   0  0  0  0  0  0  0  0  0  0  0  0
    5.6952   -0.0767    0.0000 C   0  0  0  0  0  0  0  0  0  0  0  0
    7.1344    0.3460    0.0000 C   0  0  0  0  0  0  0  0  0  0  0  0
    8.4116   -0.4407    0.0000 C   0  0  0  0  0  0  0  0  0  0  0  0
    9.7315    0.2720    0.0000 C   0  0  0  0  0  0  0  0  0  0  0  0
    9.7742    1.7714    0.0000 C   0  0  0  0  0  0  0  0  0  0  0  0
    8.4970    2.5581    0.0000 C   0  0  0  0  0  0  0  0  0  0  0  0
    7.1772    1.8454    0.0000 C   0  0  0  0  0  0  0  0  0  0  0  0
    5.7644    2.3493    0.0000 S   0  0  0  0  0  0  0  0  0  0  0  0
    3.2751   -1.3929    0.0000 C   0  0  0  0  0  0  0  0  0  0  0  0
    2.4884   -2.6700    0.0000 C   0  0  0  0  0  0  0  0  0  0  0  0
   -7.9334    0.2261    0.0000 C   0  0  0  0  0  0  0  0  0  0  0  0
   -8.6461    1.5459    0.0000 C   0  0  0  0  0  0  0  0  0  0  0  0
  -10.1454    1.5887    0.0000 C   0  0  0  0  0  0  0  0  0  0  0  0
  1  2  1  0
  2  3  2  0
  3  4  1  0
  4  5  2  0
  5  6  1  0
  6  7  1  0
  7  8  1  0
  8  9  2  0
  8 10  1  0
 10 11  2  0
 11 12  1  0
 12 13  2  0
 13 14  1  0
 14 15  2  0
 14 16  1  0
 16 17  1  0
 17 18  1  0
 18 19  2  0
 18 20  1  0
 20 21  2  0
 21 22  1  0
 22 23  2  0
 23 24  1  0
 24 25  2  0
 25 26  1  0
 26 27  2  0
 27 28  1  0
 17 29  1  0
 29 30  1  0
  5 31  1  0
 31 32  2  0
 32 33  1  0
 32  2  1  0
 15 10  1  0
 28 20  1  0
 30 13  1  0
 27 22  1  0
M  END
>  <Compound_ID>  (13) 
LIB013

>  <SMILES>  (13) 
Cc1ccc(CNC(=O)c2ccc3c(n2)CN(C(=O)c2cc4ccccc4s2)CC3)cc1C

>  <R1_reagent>  (13) 
O=C(Cl)c1cc2ccccc2s1

>  <R1_ID>  (13) 
R-005865

>  <N_reaction>  (13) 
Amidation

>  <R2_amine>  (13) 
Cc1ccc(CN)cc1C

>  <R2_ID>  (13) 
R-008930

>  <MW>  (13) 
455.6

>  <LogP>  (13) 
5.04

>  <HBD>  (13) 
1

>  <HBA>  (13) 
4

>  <RotB>  (13) 
4

>  <ASMS_similarity>  (13) 
0.7714

>  <Priority_tier>  (13) 
Tier1_high

>  <Scaffold>  (13) 
OC(=O)c1ccc2CCNCc2n1

$$$$

     RDKit          2D

 35 38  0  0  0  0  0  0  0  0999 V2000
  -10.1216    0.6640    0.0000 C   0  0  0  0  0  0  0  0  0  0  0  0
   -8.7254    0.1159    0.0000 O   0  0  0  0  0  0  0  0  0  0  0  0
   -7.5525    1.0510    0.0000 C   0  0  0  0  0  0  0  0  0  0  0  0
   -7.7760    2.5343    0.0000 C   0  0  0  0  0  0  0  0  0  0  0  0
   -6.6031    3.4694    0.0000 C   0  0  0  0  0  0  0  0  0  0  0  0
   -5.2069    2.9213    0.0000 C   0  0  0  0  0  0  0  0  0  0  0  0
   -4.0341    3.8564    0.0000 C   0  0  0  0  0  0  0  0  0  0  0  0
   -4.9834    1.4380    0.0000 C   0  0  0  0  0  0  0  0  0  0  0  0
   -6.1563    0.5029    0.0000 C   0  0  0  0  0  0  0  0  0  0  0  0
   -5.9328   -0.9804    0.0000 C   0  0  0  0  0  0  0  0  0  0  0  0
   -7.1057   -1.9155    0.0000 O   0  0  0  0  0  0  0  0  0  0  0  0
   -4.5366   -1.5285    0.0000 N   0  0  0  0  0  0  0  0  0  0  0  0
   -4.3131   -3.0118    0.0000 C   0  0  0  0  0  0  0  0  0  0  0  0
   -2.9169   -3.5599    0.0000 C   0  0  0  0  0  0  0  0  0  0  0  0
   -1.7441   -2.6248    0.0000 C   0  0  0  0  0  0  0  0  0  0  0  0
   -0.3478   -3.1729    0.0000 C   0  0  0  0  0  0  0  0  0  0  0  0
    0.8250   -2.2378    0.0000 C   0  0  0  0  0  0  0  0  0  0  0  0
    0.6016   -0.7545    0.0000 C   0  0  0  0  0  0  0  0  0  0  0  0
    1.7744    0.1806    0.0000 C   0  0  0  0  0  0  0  0  0  0  0  0
    1.5510    1.6639    0.0000 O   0  0  0  0  0  0  0  0  0  0  0  0
    3.1707   -0.3675    0.0000 N   0  0  0  0  0  0  0  0  0  0  0  0
    4.3435    0.5676    0.0000 C   0  0  0  0  0  0  0  0  0  0  0  0
    5.7398    0.0195    0.0000 C   0  0  0  0  0  0  0  0  0  0  0  0
    5.9632   -1.4638    0.0000 C   0  0  0  0  0  0  0  0  0  0  0  0
    7.3595   -2.0119    0.0000 C   0  0  0  0  0  0  0  0  0  0  0  0
    8.5323   -1.0768    0.0000 C   0  0  0  0  0  0  0  0  0  0  0  0
    8.3089    0.4065    0.0000 C   0  0  0  0  0  0  0  0  0  0  0  0
    9.4817    1.3416    0.0000 C   0  0  0  0  0  0  0  0  0  0  0  0
   10.6545    2.2767    0.0000 F   0  0  0  0  0  0  0  0  0  0  0  0
   10.4168    0.1688    0.0000 F   0  0  0  0  0  0  0  0  0  0  0  0
    8.5466    2.5144    0.0000 F   0  0  0  0  0  0  0  0  0  0  0  0
    6.9126    0.9546    0.0000 C   0  0  0  0  0  0  0  0  0  0  0  0
   -0.7947   -0.2064    0.0000 N   0  0  0  0  0  0  0  0  0  0  0  0
   -1.9675   -1.1415    0.0000 C   0  0  0  0  0  0  0  0  0  0  0  0
   -3.3638   -0.5934    0.0000 C   0  0  0  0  0  0  0  0  0  0  0  0
  1  2  1  0
  2  3  1  0
  3  4  2  0
  4  5  1  0
  5  6  2  0
  6  7  1  0
  6  8  1  0
  8  9  2  0
  9 10  1  0
 10 11  2  0
 10 12  1  0
 12 13  1  0
 13 14  1  0
 14 15  1  0
 15 16  2  0
 16 17  1  0
 17 18  2  0
 18 19  1  0
 19 20  2  0
 19 21  1  0
 21 22  1  0
 22 23  1  0
 23 24  2  0
 24 25  1  0
 25 26  2  0
 26 27  1  0
 27 28  1  0
 28 29  1  0
 28 30  1  0
 28 31  1  0
 27 32  2  0
 18 33  1  0
 33 34  2  0
 34 35  1  0
  9  3  1  0
 35 12  1  0
 34 15  1  0
 32 23  1  0
M  END
>  <Compound_ID>  (14) 
LIB014

>  <SMILES>  (14) 
COc1ccc(C)cc1C(=O)N1CCc2ccc(C(=O)NCc3cccc(C(F)(F)F)c3)nc2C1

>  <R1_reagent>  (14) 
COc1ccc(C)cc1C(=O)O

>  <R1_ID>  (14) 
R-006349

>  <N_reaction>  (14) 
Amidation

>  <R2_amine>  (14) 
NCc1cccc(C(F)(F)F)c1

>  <R2_ID>  (14) 
R-002810

>  <MW>  (14) 
483.5

>  <LogP>  (14) 
4.55

>  <HBD>  (14) 
1

>  <HBA>  (14) 
4

>  <RotB>  (14) 
5

>  <ASMS_similarity>  (14) 
0.7703

>  <Priority_tier>  (14) 
Tier1_high

>  <Scaffold>  (14) 
OC(=O)c1ccc2CCNCc2n1

$$$$

     RDKit          2D

 31 34  0  0  0  0  0  0  0  0999 V2000
   -8.3905    3.2103    0.0000 C   0  0  0  0  0  0  0  0  0  0  0  0
   -7.2509    2.2350    0.0000 C   0  0  0  0  0  0  0  0  0  0  0  0
   -7.3701    0.7397    0.0000 C   0  0  0  0  0  0  0  0  0  0  0  0
   -5.9849    0.1643    0.0000 C   0  0  0  0  0  0  0  0  0  0  0  0
   -5.6363   -1.2947    0.0000 C   0  0  0  0  0  0  0  0  0  0  0  0
   -6.7254   -2.3261    0.0000 O   0  0  0  0  0  0  0  0  0  0  0  0
   -4.1985   -1.7222    0.0000 N   0  0  0  0  0  0  0  0  0  0  0  0
   -3.8498   -3.1811    0.0000 C   0  0  0  0  0  0  0  0  0  0  0  0
   -2.4120   -3.6086    0.0000 C   0  0  0  0  0  0  0  0  0  0  0  0
   -1.3229   -2.5772    0.0000 C   0  0  0  0  0  0  0  0  0  0  0  0
    0.1149   -3.0047    0.0000 C   0  0  0  0  0  0  0  0  0  0  0  0
    1.2040   -1.9733    0.0000 C   0  0  0  0  0  0  0  0  0  0  0  0
    0.8554   -0.5144    0.0000 C   0  0  0  0  0  0  0  0  0  0  0  0
    1.9445    0.5170    0.0000 C   0  0  0  0  0  0  0  0  0  0  0  0
    1.5959    1.9759    0.0000 O   0  0  0  0  0  0  0  0  0  0  0  0
    3.3823    0.0895    0.0000 N   0  0  0  0  0  0  0  0  0  0  0  0
    4.4714    1.1209    0.0000 C   0  0  0  0  0  0  0  0  0  0  0  0
    5.9092    0.6933    0.0000 C   0  0  0  0  0  0  0  0  0  0  0  0
    6.2579   -0.7656    0.0000 C   0  0  0  0  0  0  0  0  0  0  0  0
    7.6956   -1.1931    0.0000 C   0  0  0  0  0  0  0  0  0  0  0  0
    8.7848   -0.1617    0.0000 C   0  0  0  0  0  0  0  0  0  0  0  0
   10.2226   -0.5892    0.0000 Cl  0  0  0  0  0  0  0  0  0  0  0  0
    8.4361    1.2972    0.0000 C   0  0  0  0  0  0  0  0  0  0  0  0
    6.9983    1.7247    0.0000 C   0  0  0  0  0  0  0  0  0  0  0  0
    6.6497    3.1837    0.0000 Cl  0  0  0  0  0  0  0  0  0  0  0  0
   -0.5824   -0.0869    0.0000 N   0  0  0  0  0  0  0  0  0  0  0  0
   -1.6716   -1.1183    0.0000 C   0  0  0  0  0  0  0  0  0  0  0  0
   -3.1093   -0.6908    0.0000 C   0  0  0  0  0  0  0  0  0  0  0  0
   -5.0095    1.3039    0.0000 N   0  0  0  0  0  0  0  0  0  0  0  0
   -5.7920    2.5836    0.0000 N   0  0  0  0  0  0  0  0  0  0  0  0
   -5.2165    3.9689    0.0000 C   0  0  0  0  0  0  0  0  0  0  0  0
  1  2  1  0
  2  3  2  0
  3  4  1  0
  4  5  1  0
  5  6  2  0
  5  7  1  0
  7  8  1  0
  8  9  1  0
  9 10  1  0
 10 11  2  0
 11 12  1  0
 12 13  2  0
 13 14  1  0
 14 15  2  0
 14 16  1  0
 16 17  1  0
 17 18  1  0
 18 19  2  0
 19 20  1  0
 20 21  2  0
 21 22  1  0
 21 23  1  0
 23 24  2  0
 24 25  1  0
 13 26  1  0
 26 27  2  0
 27 28  1  0
  4 29  2  0
 29 30  1  0
 30 31  1  0
 30  2  1  0
 28  7  1  0
 27 10  1  0
 24 18  1  0
M  END
>  <Compound_ID>  (15) 
LIB015

>  <SMILES>  (15) 
Cc1cc(C(=O)N2CCc3ccc(C(=O)NCc4ccc(Cl)cc4Cl)nc3C2)nn1C

>  <R1_reagent>  (15) 
Cc1cc(C(=O)O)nn1C

>  <R1_ID>  (15) 
R-005202

>  <N_reaction>  (15) 
Amidation

>  <R2_amine>  (15) 
NCc1ccc(Cl)cc1Cl

>  <R2_ID>  (15) 
R-004462

>  <MW>  (15) 
458.3

>  <LogP>  (15) 
3.56

>  <HBD>  (15) 
1

>  <HBA>  (15) 
5

>  <RotB>  (15) 
4

>  <ASMS_similarity>  (15) 
0.7647

>  <Priority_tier>  (15) 
Tier1_high

>  <Scaffold>  (15) 
OC(=O)c1ccc2CCNCc2n1

$$$$

     RDKit          2D

 34 38  0  0  0  0  0  0  0  0999 V2000
   -8.6494    4.1999    0.0000 C   0  0  0  0  0  0  0  0  0  0  0  0
   -7.9624    2.8664    0.0000 C   0  0  0  0  0  0  0  0  0  0  0  0
   -6.4641    2.7947    0.0000 C   0  0  0  0  0  0  0  0  0  0  0  0
   -5.7772    1.4612    0.0000 C   0  0  0  0  0  0  0  0  0  0  0  0
   -6.5884    0.1996    0.0000 C   0  0  0  0  0  0  0  0  0  0  0  0
   -5.9015   -1.1339    0.0000 C   0  0  0  0  0  0  0  0  0  0  0  0
   -4.4032   -1.2056    0.0000 N   0  0  0  0  0  0  0  0  0  0  0  0
   -3.7162   -2.5390    0.0000 C   0  0  0  0  0  0  0  0  0  0  0  0
   -4.5275   -3.8007    0.0000 O   0  0  0  0  0  0  0  0  0  0  0  0
   -2.2179   -2.6108    0.0000 C   0  0  0  0  0  0  0  0  0  0  0  0
   -1.5309   -3.9442    0.0000 C   0  0  0  0  0  0  0  0  0  0  0  0
   -0.0326   -4.0160    0.0000 C   0  0  0  0  0  0  0  0  0  0  0  0
    0.7787   -2.7543    0.0000 C   0  0  0  0  0  0  0  0  0  0  0  0
    0.0917   -1.4209    0.0000 C   0  0  0  0  0  0  0  0  0  0  0  0
   -1.4066   -1.3491    0.0000 N   0  0  0  0  0  0  0  0  0  0  0  0
    0.9030   -0.1592    0.0000 C   0  0  0  0  0  0  0  0  0  0  0  0
    2.4012   -0.2310    0.0000 N   0  0  0  0  0  0  0  0  0  0  0  0
    3.2125    1.0307    0.0000 C   0  0  0  0  0  0  0  0  0  0  0  0
    2.5255    2.3641    0.0000 O   0  0  0  0  0  0  0  0  0  0  0  0
    4.7108    0.9589    0.0000 C   0  0  0  0  0  0  0  0  0  0  0  0
    5.5334   -0.2954    0.0000 O   0  0  0  0  0  0  0  0  0  0  0  0
    6.9806    0.0993    0.0000 C   0  0  0  0  0  0  0  0  0  0  0  0
    8.2422   -0.7120    0.0000 C   0  0  0  0  0  0  0  0  0  0  0  0
    9.5757   -0.0250    0.0000 C   0  0  0  0  0  0  0  0  0  0  0  0
    9.6474    1.4733    0.0000 C   0  0  0  0  0  0  0  0  0  0  0  0
    8.3858    2.2846    0.0000 C   0  0  0  0  0  0  0  0  0  0  0  0
    7.0523    1.5976    0.0000 C   0  0  0  0  0  0  0  0  0  0  0  0
    5.6495    2.1289    0.0000 C   0  0  0  0  0  0  0  0  0  0  0  0
    5.2548    3.5760    0.0000 C   0  0  0  0  0  0  0  0  0  0  0  0
    3.0882   -1.5644    0.0000 C   0  0  0  0  0  0  0  0  0  0  0  0
    2.2769   -2.8261    0.0000 C   0  0  0  0  0  0  0  0  0  0  0  0
   -8.0867    0.2713    0.0000 C   0  0  0  0  0  0  0  0  0  0  0  0
   -8.7737    1.6048    0.0000 C   0  0  0  0  0  0  0  0  0  0  0  0
  -10.2720    1.6765    0.0000 C   0  0  0  0  0  0  0  0  0  0  0  0
  1  2  1  0
  2  3  2  0
  3  4  1  0
  4  5  2  0
  5  6  1  0
  6  7  1  0
  7  8  1  0
  8  9  2  0
  8 10  1  0
 10 11  2  0
 11 12  1  0
 12 13  2  0
 13 14  1  0
 14 15  2  0
 14 16  1  0
 16 17  1  0
 17 18  1  0
 18 19  2  0
 18 20  1  0
 20 21  1  0
 21 22  1  0
 22 23  2  0
 23 24  1  0
 24 25  2  0
 25 26  1  0
 26 27  2  0
 27 28  1  0
 28 29  1  0
 17 30  1  0
 30 31  1  0
  5 32  1  0
 32 33  2  0
 33 34  1  0
 33  2  1  0
 15 10  1  0
 28 20  2  0
 31 13  1  0
 27 22  1  0
M  END
>  <Compound_ID>  (16) 
LIB016

>  <SMILES>  (16) 
Cc1ccc(CNC(=O)c2ccc3c(n2)CN(C(=O)c2oc4ccccc4c2C)CC3)cc1C

>  <R1_reagent>  (16) 
Cc1c(C(=O)O)oc2ccccc12

>  <R1_ID>  (16) 
R-008696

>  <N_reaction>  (16) 
Amidation

>  <R2_amine>  (16) 
Cc1ccc(CN)cc1C

>  <R2_ID>  (16) 
R-008930

>  <MW>  (16) 
453.5

>  <LogP>  (16) 
4.88

>  <HBD>  (16) 
1

>  <HBA>  (16) 
4

>  <RotB>  (16) 
4

>  <ASMS_similarity>  (16) 
0.7647

>  <Priority_tier>  (16) 
Tier1_high

>  <Scaffold>  (16) 
OC(=O)c1ccc2CCNCc2n1

$$$$

     RDKit          2D

 34 38  0  0  0  0  0  0  0  0999 V2000
   -8.8282    5.7077    0.0000 C   0  0  0  0  0  0  0  0  0  0  0  0
   -8.0071    4.4523    0.0000 C   0  0  0  0  0  0  0  0  0  0  0  0
   -8.6838    3.1136    0.0000 O   0  0  0  0  0  0  0  0  0  0  0  0
   -7.8627    1.8583    0.0000 C   0  0  0  0  0  0  0  0  0  0  0  0
   -6.3650    1.9416    0.0000 C   0  0  0  0  0  0  0  0  0  0  0  0
   -5.5440    0.6863    0.0000 C   0  0  0  0  0  0  0  0  0  0  0  0
   -6.2206   -0.6524    0.0000 C   0  0  0  0  0  0  0  0  0  0  0  0
   -5.3996   -1.9078    0.0000 C   0  0  0  0  0  0  0  0  0  0  0  0
   -3.9019   -1.8244    0.0000 N   0  0  0  0  0  0  0  0  0  0  0  0
   -3.0809   -3.0797    0.0000 C   0  0  0  0  0  0  0  0  0  0  0  0
   -3.7575   -4.4185    0.0000 O   0  0  0  0  0  0  0  0  0  0  0  0
   -1.5832   -2.9964    0.0000 C   0  0  0  0  0  0  0  0  0  0  0  0
   -0.7621   -4.2517    0.0000 C   0  0  0  0  0  0  0  0  0  0  0  0
    0.7356   -4.1683    0.0000 C   0  0  0  0  0  0  0  0  0  0  0  0
    1.4122   -2.8296    0.0000 C   0  0  0  0  0  0  0  0  0  0  0  0
    0.5911   -1.5743    0.0000 C   0  0  0  0  0  0  0  0  0  0  0  0
   -0.9065   -1.6576    0.0000 N   0  0  0  0  0  0  0  0  0  0  0  0
    1.2678   -0.2356    0.0000 C   0  0  0  0  0  0  0  0  0  0  0  0
    2.7655   -0.1522    0.0000 N   0  0  0  0  0  0  0  0  0  0  0  0
    3.4421    1.1865    0.0000 C   0  0  0  0  0  0  0  0  0  0  0  0
    2.6211    2.4419    0.0000 O   0  0  0  0  0  0  0  0  0  0  0  0
    4.9398    1.2699    0.0000 C   0  0  0  0  0  0  0  0  0  0  0  0
    5.8875    0.1073    0.0000 C   0  0  0  0  0  0  0  0  0  0  0  0
    7.2862    0.6494    0.0000 C   0  0  0  0  0  0  0  0  0  0  0  0
    8.6249   -0.0273    0.0000 C   0  0  0  0  0  0  0  0  0  0  0  0
    9.8802    0.7938    0.0000 C   0  0  0  0  0  0  0  0  0  0  0  0
    9.7968    2.2915    0.0000 C   0  0  0  0  0  0  0  0  0  0  0  0
    8.4581    2.9681    0.0000 C   0  0  0  0  0  0  0  0  0  0  0  0
    7.2028    2.1471    0.0000 C   0  0  0  0  0  0  0  0  0  0  0  0
    5.7526    2.5306    0.0000 S   0  0  0  0  0  0  0  0  0  0  0  0
    3.5865   -1.4075    0.0000 C   0  0  0  0  0  0  0  0  0  0  0  0
    2.9099   -2.7462    0.0000 C   0  0  0  0  0  0  0  0  0  0  0  0
   -7.7183   -0.7358    0.0000 C   0  0  0  0  0  0  0  0  0  0  0  0
   -8.5393    0.5195    0.0000 C   0  0  0  0  0  0  0  0  0  0  0  0
  1  2  1  0
  2  3  1  0
  3  4  1  0
  4  5  2  0
  5  6  1  0
  6  7  2  0
  7  8  1  0
  8  9  1  0
  9 10  1  0
 10 11  2  0
 10 12  1  0
 12 13  2  0
 13 14  1  0
 14 15  2  0
 15 16  1  0
 16 17  2  0
 16 18  1  0
 18 19  1  0
 19 20  1  0
 20 21  2  0
 20 22  1  0
 22 23  2  0
 23 24  1  0
 24 25  2  0
 25 26  1  0
 26 27  2  0
 27 28  1  0
 28 29  2  0
 29 30  1  0
 19 31  1  0
 31 32  1  0
  7 33  1  0
 33 34  2  0
 34  4  1  0
 17 12  1  0
 30 22  1  0
 32 15  1  0
 29 24  1  0
M  END
>  <Compound_ID>  (17) 
LIB017

>  <SMILES>  (17) 
CCOc1ccc(CNC(=O)c2ccc3c(n2)CN(C(=O)c2cc4ccccc4s2)CC3)cc1

>  <R1_reagent>  (17) 
O=C(Cl)c1cc2ccccc2s1

>  <R1_ID>  (17) 
R-005865

>  <N_reaction>  (17) 
Amidation

>  <R2_amine>  (17) 
CCOc1ccc(CN)cc1

>  <R2_ID>  (17) 
R-009128

>  <MW>  (17) 
471.6

>  <LogP>  (17) 
4.82

>  <HBD>  (17) 
1

>  <HBA>  (17) 
5

>  <RotB>  (17) 
6

>  <ASMS_similarity>  (17) 
0.7534

>  <Priority_tier>  (17) 
Tier1_high

>  <Scaffold>  (17) 
OC(=O)c1ccc2CCNCc2n1

$$$$

     RDKit          2D

 33 36  0  0  0  0  0  0  0  0999 V2000
   -8.3786    3.6362    0.0000 C   0  0  0  0  0  0  0  0  0  0  0  0
   -7.3325    2.5612    0.0000 C   0  0  0  0  0  0  0  0  0  0  0  0
   -7.5872    1.0830    0.0000 C   0  0  0  0  0  0  0  0  0  0  0  0
   -6.2601    0.3839    0.0000 C   0  0  0  0  0  0  0  0  0  0  0  0
   -6.0456   -1.1007    0.0000 C   0  0  0  0  0  0  0  0  0  0  0  0
   -7.2241   -2.0288    0.0000 O   0  0  0  0  0  0  0  0  0  0  0  0
   -4.6527   -1.6573    0.0000 N   0  0  0  0  0  0  0  0  0  0  0  0
   -4.4382   -3.1418    0.0000 C   0  0  0  0  0  0  0  0  0  0  0  0
   -3.0453   -3.6984    0.0000 C   0  0  0  0  0  0  0  0  0  0  0  0
   -1.8668   -2.7704    0.0000 C   0  0  0  0  0  0  0  0  0  0  0  0
   -0.4739   -3.3269    0.0000 C   0  0  0  0  0  0  0  0  0  0  0  0
    0.7045   -2.3989    0.0000 C   0  0  0  0  0  0  0  0  0  0  0  0
    0.4900   -0.9143    0.0000 C   0  0  0  0  0  0  0  0  0  0  0  0
    1.6685    0.0138    0.0000 C   0  0  0  0  0  0  0  0  0  0  0  0
    1.4540    1.4983    0.0000 O   0  0  0  0  0  0  0  0  0  0  0  0
    3.0614   -0.5428    0.0000 N   0  0  0  0  0  0  0  0  0  0  0  0
    4.2399    0.3853    0.0000 C   0  0  0  0  0  0  0  0  0  0  0  0
    5.6328   -0.1713    0.0000 C   0  0  0  0  0  0  0  0  0  0  0  0
    5.8473   -1.6559    0.0000 C   0  0  0  0  0  0  0  0  0  0  0  0
    7.2402   -2.2124    0.0000 C   0  0  0  0  0  0  0  0  0  0  0  0
    8.4187   -1.2844    0.0000 C   0  0  0  0  0  0  0  0  0  0  0  0
    8.2042    0.2002    0.0000 C   0  0  0  0  0  0  0  0  0  0  0  0
    6.8113    0.7567    0.0000 C   0  0  0  0  0  0  0  0  0  0  0  0
    6.5968    2.2413    0.0000 C   0  0  0  0  0  0  0  0  0  0  0  0
    6.3823    3.7259    0.0000 F   0  0  0  0  0  0  0  0  0  0  0  0
    8.0814    2.4558    0.0000 F   0  0  0  0  0  0  0  0  0  0  0  0
    5.1122    2.0269    0.0000 F   0  0  0  0  0  0  0  0  0  0  0  0
   -0.9029   -0.3577    0.0000 N   0  0  0  0  0  0  0  0  0  0  0  0
   -2.0813   -1.2858    0.0000 C   0  0  0  0  0  0  0  0  0  0  0  0
   -3.4743   -0.7292    0.0000 C   0  0  0  0  0  0  0  0  0  0  0  0
   -5.1851    1.4300    0.0000 N   0  0  0  0  0  0  0  0  0  0  0  0
   -5.8479    2.7757    0.0000 N   0  0  0  0  0  0  0  0  0  0  0  0
   -5.1488    4.1028    0.0000 C   0  0  0  0  0  0  0  0  0  0  0  0
  1  2  1  0
  2  3  2  0
  3  4  1  0
  4  5  1  0
  5  6  2  0
  5  7  1  0
  7  8  1  0
  8  9  1  0
  9 10  1  0
 10 11  2  0
 11 12  1  0
 12 13  2  0
 13 14  1  0
 14 15  2  0
 14 16  1  0
 16 17  1  0
 17 18  1  0
 18 19  2  0
 19 20  1  0
 20 21  2  0
 21 22  1  0
 22 23  2  0
 23 24  1  0
 24 25  1  0
 24 26  1  0
 24 27  1  0
 13 28  1  0
 28 29  2  0
 29 30  1  0
  4 31  2  0
 31 32  1  0
 32 33  1  0
 32  2  1  0
 30  7  1  0
 29 10  1  0
 23 18  1  0
M  END
>  <Compound_ID>  (18) 
LIB018

>  <SMILES>  (18) 
Cc1cc(C(=O)N2CCc3ccc(C(=O)NCc4ccccc4C(F)(F)F)nc3C2)nn1C

>  <R1_reagent>  (18) 
Cc1cc(C(=O)O)nn1C

>  <R1_ID>  (18) 
R-005202

>  <N_reaction>  (18) 
Amidation

>  <R2_amine>  (18) 
NCc1ccccc1C(F)(F)F

>  <R2_ID>  (18) 
R-002526

>  <MW>  (18) 
457.5

>  <LogP>  (18) 
3.27

>  <HBD>  (18) 
1

>  <HBA>  (18) 
5

>  <RotB>  (18) 
4

>  <ASMS_similarity>  (18) 
0.75

>  <Priority_tier>  (18) 
Tier1_high

>  <Scaffold>  (18) 
OC(=O)c1ccc2CCNCc2n1

$$$$

     RDKit          2D

 36 39  0  0  0  0  0  0  0  0999 V2000
  -10.5539    0.6092    0.0000 C   0  0  0  0  0  0  0  0  0  0  0  0
   -9.1516    0.0770    0.0000 O   0  0  0  0  0  0  0  0  0  0  0  0
   -7.9894    1.0253    0.0000 C   0  0  0  0  0  0  0  0  0  0  0  0
   -8.2296    2.5060    0.0000 C   0  0  0  0  0  0  0  0  0  0  0  0
   -7.0675    3.4543    0.0000 C   0  0  0  0  0  0  0  0  0  0  0  0
   -5.6651    2.9221    0.0000 C   0  0  0  0  0  0  0  0  0  0  0  0
   -4.5030    3.8704    0.0000 C   0  0  0  0  0  0  0  0  0  0  0  0
   -5.4249    1.4414    0.0000 C   0  0  0  0  0  0  0  0  0  0  0  0
   -6.5870    0.4931    0.0000 C   0  0  0  0  0  0  0  0  0  0  0  0
   -6.3468   -0.9876    0.0000 C   0  0  0  0  0  0  0  0  0  0  0  0
   -7.5089   -1.9359    0.0000 O   0  0  0  0  0  0  0  0  0  0  0  0
   -4.9444   -1.5198    0.0000 N   0  0  0  0  0  0  0  0  0  0  0  0
   -4.7042   -3.0005    0.0000 C   0  0  0  0  0  0  0  0  0  0  0  0
   -3.3018   -3.5327    0.0000 C   0  0  0  0  0  0  0  0  0  0  0  0
   -2.1396   -2.5844    0.0000 C   0  0  0  0  0  0  0  0  0  0  0  0
   -0.7372   -3.1166    0.0000 C   0  0  0  0  0  0  0  0  0  0  0  0
    0.4249   -2.1683    0.0000 C   0  0  0  0  0  0  0  0  0  0  0  0
    0.1847   -0.6876    0.0000 C   0  0  0  0  0  0  0  0  0  0  0  0
    1.3468    0.2607    0.0000 C   0  0  0  0  0  0  0  0  0  0  0  0
    1.1066    1.7414    0.0000 O   0  0  0  0  0  0  0  0  0  0  0  0
    2.7492   -0.2715    0.0000 N   0  0  0  0  0  0  0  0  0  0  0  0
    3.9114    0.6768    0.0000 C   0  0  0  0  0  0  0  0  0  0  0  0
    5.3138    0.1446    0.0000 C   0  0  0  0  0  0  0  0  0  0  0  0
    5.5540   -1.3361    0.0000 C   0  0  0  0  0  0  0  0  0  0  0  0
    6.9564   -1.8683    0.0000 C   0  0  0  0  0  0  0  0  0  0  0  0
    8.1185   -0.9200    0.0000 C   0  0  0  0  0  0  0  0  0  0  0  0
    7.8783    0.5607    0.0000 C   0  0  0  0  0  0  0  0  0  0  0  0
    9.0404    1.5090    0.0000 O   0  0  0  0  0  0  0  0  0  0  0  0
   10.4428    0.9768    0.0000 C   0  0  0  0  0  0  0  0  0  0  0  0
   11.8452    0.4445    0.0000 F   0  0  0  0  0  0  0  0  0  0  0  0
   10.9751    2.3792    0.0000 F   0  0  0  0  0  0  0  0  0  0  0  0
    9.9106   -0.4256    0.0000 F   0  0  0  0  0  0  0  0  0  0  0  0
    6.4759    1.0929    0.0000 C   0  0  0  0  0  0  0  0  0  0  0  0
   -1.2177   -0.1554    0.0000 N   0  0  0  0  0  0  0  0  0  0  0  0
   -2.3799   -1.1037    0.0000 C   0  0  0  0  0  0  0  0  0  0  0  0
   -3.7822   -0.5715    0.0000 C   0  0  0  0  0  0  0  0  0  0  0  0
  1  2  1  0
  2  3  1  0
  3  4  2  0
  4  5  1  0
  5  6  2  0
  6  7  1  0
  6  8  1  0
  8  9  2  0
  9 10  1  0
 10 11  2  0
 10 12  1  0
 12 13  1  0
 13 14  1  0
 14 15  1  0
 15 16  2  0
 16 17  1  0
 17 18  2  0
 18 19  1  0
 19 20  2  0
 19 21  1  0
 21 22  1  0
 22 23  1  0
 23 24  2  0
 24 25  1  0
 25 26  2  0
 26 27  1  0
 27 28  1  0
 28 29  1  0
 29 30  1  0
 29 31  1  0
 29 32  1  0
 27 33  2  0
 18 34  1  0
 34 35  2  0
 35 36  1  0
  9  3  1  0
 36 12  1  0
 35 15  1  0
 33 23  1  0
M  END
>  <Compound_ID>  (19) 
LIB019

>  <SMILES>  (19) 
COc1ccc(C)cc1C(=O)N1CCc2ccc(C(=O)NCc3cccc(OC(F)(F)F)c3)nc2C1

>  <R1_reagent>  (19) 
COc1ccc(C)cc1C(=O)O

>  <R1_ID>  (19) 
R-006349

>  <N_reaction>  (19) 
Amidation

>  <R2_amine>  (19) 
NCc1cccc(OC(F)(F)F)c1

>  <R2_ID>  (19) 
R-003869

>  <MW>  (19) 
499.5

>  <LogP>  (19) 
4.43

>  <HBD>  (19) 
1

>  <HBA>  (19) 
5

>  <RotB>  (19) 
6

>  <ASMS_similarity>  (19) 
0.75

>  <Priority_tier>  (19) 
Tier1_high

>  <Scaffold>  (19) 
OC(=O)c1ccc2CCNCc2n1

$$$$

     RDKit          2D

 35 39  0  0  0  0  0  0  0  0999 V2000
   -8.8622    5.7755    0.0000 C   0  0  0  0  0  0  0  0  0  0  0  0
   -8.0667    4.5038    0.0000 C   0  0  0  0  0  0  0  0  0  0  0  0
   -8.7702    3.1791    0.0000 O   0  0  0  0  0  0  0  0  0  0  0  0
   -7.9747    1.9074    0.0000 C   0  0  0  0  0  0  0  0  0  0  0  0
   -6.4756    1.9605    0.0000 C   0  0  0  0  0  0  0  0  0  0  0  0
   -5.6801    0.6889    0.0000 C   0  0  0  0  0  0  0  0  0  0  0  0
   -6.3836   -0.6359    0.0000 C   0  0  0  0  0  0  0  0  0  0  0  0
   -5.5881   -1.9076    0.0000 C   0  0  0  0  0  0  0  0  0  0  0  0
   -4.0890   -1.8545    0.0000 N   0  0  0  0  0  0  0  0  0  0  0  0
   -3.2935   -3.1261    0.0000 C   0  0  0  0  0  0  0  0  0  0  0  0
   -3.9970   -4.4509    0.0000 O   0  0  0  0  0  0  0  0  0  0  0  0
   -1.7945   -3.0730    0.0000 C   0  0  0  0  0  0  0  0  0  0  0  0
   -0.9989   -4.3447    0.0000 C   0  0  0  0  0  0  0  0  0  0  0  0
    0.5001   -4.2916    0.0000 C   0  0  0  0  0  0  0  0  0  0  0  0
    1.2037   -2.9668    0.0000 C   0  0  0  0  0  0  0  0  0  0  0  0
    0.4081   -1.6951    0.0000 C   0  0  0  0  0  0  0  0  0  0  0  0
   -1.0909   -1.7482    0.0000 N   0  0  0  0  0  0  0  0  0  0  0  0
    1.1117   -0.3703    0.0000 C   0  0  0  0  0  0  0  0  0  0  0  0
    2.6107   -0.3172    0.0000 N   0  0  0  0  0  0  0  0  0  0  0  0
    3.3142    1.0076    0.0000 C   0  0  0  0  0  0  0  0  0  0  0  0
    2.5187    2.2792    0.0000 O   0  0  0  0  0  0  0  0  0  0  0  0
    4.8133    1.0607    0.0000 C   0  0  0  0  0  0  0  0  0  0  0  0
    5.7374   -0.1209    0.0000 O   0  0  0  0  0  0  0  0  0  0  0  0
    7.1467    0.3929    0.0000 C   0  0  0  0  0  0  0  0  0  0  0  0
    8.4715   -0.3106    0.0000 C   0  0  0  0  0  0  0  0  0  0  0  0
    9.7431    0.4849    0.0000 C   0  0  0  0  0  0  0  0  0  0  0  0
    9.6900    1.9840    0.0000 C   0  0  0  0  0  0  0  0  0  0  0  0
    8.3652    2.6875    0.0000 C   0  0  0  0  0  0  0  0  0  0  0  0
    7.0936    1.8920    0.0000 C   0  0  0  0  0  0  0  0  0  0  0  0
    5.6515    2.3047    0.0000 C   0  0  0  0  0  0  0  0  0  0  0  0
    5.1377    3.7139    0.0000 C   0  0  0  0  0  0  0  0  0  0  0  0
    3.4063   -1.5889    0.0000 C   0  0  0  0  0  0  0  0  0  0  0  0
    2.7027   -2.9137    0.0000 C   0  0  0  0  0  0  0  0  0  0  0  0
   -7.8827   -0.6890    0.0000 C   0  0  0  0  0  0  0  0  0  0  0  0
   -8.6782    0.5826    0.0000 C   0  0  0  0  0  0  0  0  0  0  0  0
  1  2  1  0
  2  3  1  0
  3  4  1  0
  4  5  2  0
  5  6  1  0
  6  7  2  0
  7  8  1  0
  8  9  1  0
  9 10  1  0
 10 11  2  0
 10 12  1  0
 12 13  2  0
 13 14  1  0
 14 15  2  0
 15 16  1  0
 16 17  2  0
 16 18  1  0
 18 19  1  0
 19 20  1  0
 20 21  2  0
 20 22  1  0
 22 23  1  0
 23 24  1  0
 24 25  2  0
 25 26  1  0
 26 27  2  0
 27 28  1  0
 28 29  2  0
 29 30  1  0
 30 31  1  0
 19 32  1  0
 32 33  1  0
  7 34  1  0
 34 35  2  0
 35  4  1  0
 17 12  1  0
 30 22  2  0
 33 15  1  0
 29 24  1  0
M  END
>  <Compound_ID>  (20) 
LIB020

>  <SMILES>  (20) 
CCOc1ccc(CNC(=O)c2ccc3c(n2)CN(C(=O)c2oc4ccccc4c2C)CC3)cc1

>  <R1_reagent>  (20) 
Cc1c(C(=O)O)oc2ccccc12

>  <R1_ID>  (20) 
R-008696

>  <N_reaction>  (20) 
Amidation

>  <R2_amine>  (20) 
CCOc1ccc(CN)cc1

>  <R2_ID>  (20) 
R-009128

>  <MW>  (20) 
469.5

>  <LogP>  (20) 
4.66

>  <HBD>  (20) 
1

>  <HBA>  (20) 
5

>  <RotB>  (20) 
6

>  <ASMS_similarity>  (20) 
0.7465

>  <Priority_tier>  (20) 
Tier2_medium

>  <Scaffold>  (20) 
OC(=O)c1ccc2CCNCc2n1

$$$$

     RDKit          2D

 25 27  0  0  0  0  0  0  0  0999 V2000
   -7.4420    3.4800    0.0000 C   0  0  0  0  0  0  0  0  0  0  0  0
   -6.5386    2.2825    0.0000 C   0  0  0  0  0  0  0  0  0  0  0  0
   -5.0499    2.4661    0.0000 C   0  0  0  0  0  0  0  0  0  0  0  0
   -4.1465    1.2687    0.0000 N   0  0  0  0  0  0  0  0  0  0  0  0
   -4.7318   -0.1124    0.0000 C   0  0  0  0  0  0  0  0  0  0  0  0
   -3.8284   -1.3099    0.0000 C   0  0  0  0  0  0  0  0  0  0  0  0
   -2.3397   -1.1263    0.0000 N   0  0  0  0  0  0  0  0  0  0  0  0
   -1.4363   -2.3237    0.0000 C   0  0  0  0  0  0  0  0  0  0  0  0
   -2.0217   -3.7048    0.0000 O   0  0  0  0  0  0  0  0  0  0  0  0
    0.0524   -2.1401    0.0000 C   0  0  0  0  0  0  0  0  0  0  0  0
    0.9557   -3.3376    0.0000 C   0  0  0  0  0  0  0  0  0  0  0  0
    2.4445   -3.1539    0.0000 C   0  0  0  0  0  0  0  0  0  0  0  0
    3.0298   -1.7729    0.0000 C   0  0  0  0  0  0  0  0  0  0  0  0
    2.1264   -0.5754    0.0000 C   0  0  0  0  0  0  0  0  0  0  0  0
    0.6377   -0.7590    0.0000 N   0  0  0  0  0  0  0  0  0  0  0  0
    2.7118    0.8057    0.0000 C   0  0  0  0  0  0  0  0  0  0  0  0
    4.2005    0.9893    0.0000 N   0  0  0  0  0  0  0  0  0  0  0  0
    4.7858    2.3704    0.0000 C   0  0  0  0  0  0  0  0  0  0  0  0
    6.2745    2.5540    0.0000 C   0  0  0  0  0  0  0  0  0  0  0  0
    6.8599    3.9351    0.0000 C   0  0  0  0  0  0  0  0  0  0  0  0
    7.1779    1.3565    0.0000 C   0  0  0  0  0  0  0  0  0  0  0  0
    5.1039   -0.2082    0.0000 C   0  0  0  0  0  0  0  0  0  0  0  0
    4.5185   -1.5893    0.0000 C   0  0  0  0  0  0  0  0  0  0  0  0
   -6.2205   -0.2960    0.0000 C   0  0  0  0  0  0  0  0  0  0  0  0
   -7.1239    0.9014    0.0000 N   0  0  0  0  0  0  0  0  0  0  0  0
  1  2  1  0
  2  3  2  0
  3  4  1  0
  4  5  2  0
  5  6  1  0
  6  7  1  0
  7  8  1  0
  8  9  2  0
  8 10  1  0
 10 11  2  0
 11 12  1  0
 12 13  2  0
 13 14  1  0
 14 15  2  0
 14 16  1  0
 16 17  1  0
 17 18  1  0
 18 19  1  0
 19 20  1  0
 19 21  1  0
 17 22  1  0
 22 23  1  0
  5 24  1  0
 24 25  2  0
 25  2  1  0
 15 10  1  0
 23 13  1  0
M  END
>  <Compound_ID>  (21) 
LIB021

>  <SMILES>  (21) 
Cc1cnc(CNC(=O)c2ccc3c(n2)CN(CC(C)C)CC3)cn1

>  <R1_reagent>  (21) 
CC(C)C=O

>  <R1_ID>  (21) 
R-000542

>  <N_reaction>  (21) 
Reductive_amination

>  <R2_amine>  (21) 
Cc1cnc(CN)cn1

>  <R2_ID>  (21) 
R-000616

>  <MW>  (21) 
339.4

>  <LogP>  (21) 
2.12

>  <HBD>  (21) 
1

>  <HBA>  (21) 
5

>  <RotB>  (21) 
5

>  <ASMS_similarity>  (21) 
0.7333

>  <Priority_tier>  (21) 
Tier2_medium

>  <Scaffold>  (21) 
OC(=O)c1ccc2CCNCc2n1

$$$$

     RDKit          2D

 25 27  0  0  0  0  0  0  0  0999 V2000
   -6.7818   -3.2424    0.0000 C   0  0  0  0  0  0  0  0  0  0  0  0
   -6.0557   -1.9299    0.0000 C   0  0  0  0  0  0  0  0  0  0  0  0
   -6.8293   -0.6448    0.0000 C   0  0  0  0  0  0  0  0  0  0  0  0
   -4.5559   -1.9024    0.0000 C   0  0  0  0  0  0  0  0  0  0  0  0
   -3.7823   -3.1875    0.0000 O   0  0  0  0  0  0  0  0  0  0  0  0
   -3.8298   -0.5898    0.0000 N   0  0  0  0  0  0  0  0  0  0  0  0
   -4.6035    0.6952    0.0000 C   0  0  0  0  0  0  0  0  0  0  0  0
   -3.8774    2.0078    0.0000 C   0  0  0  0  0  0  0  0  0  0  0  0
   -2.3777    2.0353    0.0000 C   0  0  0  0  0  0  0  0  0  0  0  0
   -1.6516    3.3478    0.0000 C   0  0  0  0  0  0  0  0  0  0  0  0
   -0.1518    3.3753    0.0000 C   0  0  0  0  0  0  0  0  0  0  0  0
    0.6218    2.0902    0.0000 C   0  0  0  0  0  0  0  0  0  0  0  0
    2.1216    2.1177    0.0000 C   0  0  0  0  0  0  0  0  0  0  0  0
    2.8477    3.4302    0.0000 O   0  0  0  0  0  0  0  0  0  0  0  0
    2.8952    0.8326    0.0000 N   0  0  0  0  0  0  0  0  0  0  0  0
    4.3950    0.8601    0.0000 C   0  0  0  0  0  0  0  0  0  0  0  0
    5.1687   -0.4250    0.0000 C   0  0  0  0  0  0  0  0  0  0  0  0
    4.4426   -1.7376    0.0000 C   0  0  0  0  0  0  0  0  0  0  0  0
    5.2162   -3.0227    0.0000 C   0  0  0  0  0  0  0  0  0  0  0  0
    6.7160   -2.9952    0.0000 C   0  0  0  0  0  0  0  0  0  0  0  0
    7.4421   -1.6826    0.0000 C   0  0  0  0  0  0  0  0  0  0  0  0
    6.6684   -0.3976    0.0000 N   0  0  0  0  0  0  0  0  0  0  0  0
   -0.1043    0.7776    0.0000 N   0  0  0  0  0  0  0  0  0  0  0  0
   -1.6040    0.7502    0.0000 C   0  0  0  0  0  0  0  0  0  0  0  0
   -2.3301   -0.5624    0.0000 C   0  0  0  0  0  0  0  0  0  0  0  0
  1  2  1  0
  2  3  1  0
  2  4  1  0
  4  5  2  0
  4  6  1  0
  6  7  1  0
  7  8  1  0
  8  9  1  0
  9 10  2  0
 10 11  1  0
 11 12  2  0
 12 13  1  0
 13 14  2  0
 13 15  1  0
 15 16  1  0
 16 17  1  0
 17 18  2  0
 18 19  1  0
 19 20  2  0
 20 21  1  0
 21 22  2  0
 12 23  1  0
 23 24  2  0
 24 25  1  0
 25  6  1  0
 24  9  1  0
 22 17  1  0
M  END
>  <Compound_ID>  (22) 
LIB022

>  <SMILES>  (22) 
CC(C)C(=O)N1CCc2ccc(C(=O)NCc3ccccn3)nc2C1

>  <R1_reagent>  (22) 
CC(C)C(=O)Cl

>  <R1_ID>  (22) 
R-001947

>  <N_reaction>  (22) 
Amidation

>  <R2_amine>  (22) 
NCc1ccccn1

>  <R2_ID>  (22) 
R-004572

>  <MW>  (22) 
338.4

>  <LogP>  (22) 
1.95

>  <HBD>  (22) 
1

>  <HBA>  (22) 
4

>  <RotB>  (22) 
4

>  <ASMS_similarity>  (22) 
0.7333

>  <Priority_tier>  (22) 
Tier2_medium

>  <Scaffold>  (22) 
OC(=O)c1ccc2CCNCc2n1

$$$$

     RDKit          2D

 31 35  0  0  0  0  0  0  0  0999 V2000
   -7.0214   -1.0511    0.0000 C   0  0  0  0  0  0  0  0  0  0  0  0
   -5.8341   -0.1344    0.0000 C   0  0  0  0  0  0  0  0  0  0  0  0
   -4.3946   -0.5562    0.0000 C   0  0  0  0  0  0  0  0  0  0  0  0
   -3.8897   -1.9687    0.0000 C   0  0  0  0  0  0  0  0  0  0  0  0
   -4.8605   -3.1122    0.0000 O   0  0  0  0  0  0  0  0  0  0  0  0
   -2.4141   -2.2378    0.0000 N   0  0  0  0  0  0  0  0  0  0  0  0
   -1.9092   -3.6502    0.0000 C   0  0  0  0  0  0  0  0  0  0  0  0
   -0.4335   -3.9193    0.0000 C   0  0  0  0  0  0  0  0  0  0  0  0
    0.5373   -2.7758    0.0000 C   0  0  0  0  0  0  0  0  0  0  0  0
    2.0130   -3.0448    0.0000 C   0  0  0  0  0  0  0  0  0  0  0  0
    2.9838   -1.9013    0.0000 C   0  0  0  0  0  0  0  0  0  0  0  0
    2.4789   -0.4889    0.0000 C   0  0  0  0  0  0  0  0  0  0  0  0
    3.4498    0.6546    0.0000 C   0  0  0  0  0  0  0  0  0  0  0  0
    2.9449    2.0671    0.0000 O   0  0  0  0  0  0  0  0  0  0  0  0
    4.9254    0.3856    0.0000 N   0  0  0  0  0  0  0  0  0  0  0  0
    5.8963    1.5290    0.0000 C   0  0  0  0  0  0  0  0  0  0  0  0
    7.3719    1.2600    0.0000 C   0  0  0  0  0  0  0  0  0  0  0  0
    8.4570    2.2957    0.0000 C   0  0  0  0  0  0  0  0  0  0  0  0
    9.7773    1.5839    0.0000 C   0  0  0  0  0  0  0  0  0  0  0  0
    9.5083    0.1082    0.0000 C   0  0  0  0  0  0  0  0  0  0  0  0
    8.0217   -0.0920    0.0000 S   0  0  0  0  0  0  0  0  0  0  0  0
    1.0033   -0.2198    0.0000 N   0  0  0  0  0  0  0  0  0  0  0  0
    0.0324   -1.3633    0.0000 C   0  0  0  0  0  0  0  0  0  0  0  0
   -1.4432   -1.0943    0.0000 C   0  0  0  0  0  0  0  0  0  0  0  0
   -3.5486    0.6824    0.0000 O   0  0  0  0  0  0  0  0  0  0  0  0
   -4.4652    1.8698    0.0000 C   0  0  0  0  0  0  0  0  0  0  0  0
   -4.1962    3.3455    0.0000 C   0  0  0  0  0  0  0  0  0  0  0  0
   -5.3397    4.3163    0.0000 C   0  0  0  0  0  0  0  0  0  0  0  0
   -6.7522    3.8114    0.0000 C   0  0  0  0  0  0  0  0  0  0  0  0
   -7.0212    2.3357    0.0000 C   0  0  0  0  0  0  0  0  0  0  0  0
   -5.8777    1.3649    0.0000 C   0  0  0  0  0  0  0  0  0  0  0  0
  1  2  1  0
  2  3  2  0
  3  4  1  0
  4  5  2  0
  4  6  1  0
  6  7  1  0
  7  8  1  0
  8  9  1  0
  9 10  2  0
 10 11  1  0
 11 12  2  0
 12 13  1  0
 13 14  2  0
 13 15  1  0
 15 16  1  0
 16 17  1  0
 17 18  2  0
 18 19  1  0
 19 20  2  0
 20 21  1  0
 12 22  1  0
 22 23  2  0
 23 24  1  0
  3 25  1  0
 25 26  1  0
 26 27  2  0
 27 28  1  0
 28 29  2  0
 29 30  1  0
 30 31  2  0
 31  2  1  0
 24  6  1  0
 31 26  1  0
 23  9  1  0
 21 17  1  0
M  END
>  <Compound_ID>  (23) 
LIB023

>  <SMILES>  (23) 
Cc1c(C(=O)N2CCc3ccc(C(=O)NCc4cccs4)nc3C2)oc2ccccc12

>  <R1_reagent>  (23) 
Cc1c(C(=O)O)oc2ccccc12

>  <R1_ID>  (23) 
R-008696

>  <N_reaction>  (23) 
Amidation

>  <R2_amine>  (23) 
NCc1cccs1

>  <R2_ID>  (23) 
R-003865

>  <MW>  (23) 
431.5

>  <LogP>  (23) 
4.33

>  <HBD>  (23) 
1

>  <HBA>  (23) 
5

>  <RotB>  (23) 
4

>  <ASMS_similarity>  (23) 
0.7286

>  <Priority_tier>  (23) 
Tier2_medium

>  <Scaffold>  (23) 
OC(=O)c1ccc2CCNCc2n1

$$$$

     RDKit          2D

 29 32  0  0  0  0  0  0  0  0999 V2000
   -6.5128    4.5122    0.0000 C   0  0  0  0  0  0  0  0  0  0  0  0
   -6.7661    3.0337    0.0000 C   0  0  0  0  0  0  0  0  0  0  0  0
   -8.1112    2.3697    0.0000 C   0  0  0  0  0  0  0  0  0  0  0  0
   -7.8953    0.8853    0.0000 C   0  0  0  0  0  0  0  0  0  0  0  0
   -6.4168    0.6320    0.0000 C   0  0  0  0  0  0  0  0  0  0  0  0
   -5.7528   -0.7131    0.0000 C   0  0  0  0  0  0  0  0  0  0  0  0
   -4.2560   -0.8105    0.0000 N   0  0  0  0  0  0  0  0  0  0  0  0
   -3.5920   -2.1555    0.0000 C   0  0  0  0  0  0  0  0  0  0  0  0
   -4.4248   -3.4031    0.0000 O   0  0  0  0  0  0  0  0  0  0  0  0
   -2.0951   -2.2530    0.0000 C   0  0  0  0  0  0  0  0  0  0  0  0
   -1.4311   -3.5980    0.0000 C   0  0  0  0  0  0  0  0  0  0  0  0
    0.0657   -3.6955    0.0000 C   0  0  0  0  0  0  0  0  0  0  0  0
    0.8985   -2.4479    0.0000 C   0  0  0  0  0  0  0  0  0  0  0  0
    0.2345   -1.1029    0.0000 C   0  0  0  0  0  0  0  0  0  0  0  0
   -1.2623   -1.0054    0.0000 N   0  0  0  0  0  0  0  0  0  0  0  0
    1.0673    0.1447    0.0000 C   0  0  0  0  0  0  0  0  0  0  0  0
    2.5642    0.0472    0.0000 N   0  0  0  0  0  0  0  0  0  0  0  0
    3.3970    1.2948    0.0000 C   0  0  0  0  0  0  0  0  0  0  0  0
    2.7330    2.6398    0.0000 O   0  0  0  0  0  0  0  0  0  0  0  0
    4.8938    1.1973    0.0000 C   0  0  0  0  0  0  0  0  0  0  0  0
    5.8525    2.3510    0.0000 C   0  0  0  0  0  0  0  0  0  0  0  0
    7.2459    1.7958    0.0000 C   0  0  0  0  0  0  0  0  0  0  0  0
    8.5142    2.5967    0.0000 C   0  0  0  0  0  0  0  0  0  0  0  0
    7.1485    0.2989    0.0000 N   0  0  0  0  0  0  0  0  0  0  0  0
    8.3021   -0.6597    0.0000 C   0  0  0  0  0  0  0  0  0  0  0  0
    5.6948   -0.0709    0.0000 N   0  0  0  0  0  0  0  0  0  0  0  0
    3.2282   -1.2978    0.0000 C   0  0  0  0  0  0  0  0  0  0  0  0
    2.3954   -2.5454    0.0000 C   0  0  0  0  0  0  0  0  0  0  0  0
   -5.7190    1.9597    0.0000 O   0  0  0  0  0  0  0  0  0  0  0  0
  1  2  1  0
  2  3  2  0
  3  4  1  0
  4  5  2  0
  5  6  1  0
  6  7  1  0
  7  8  1  0
  8  9  2  0
  8 10  1  0
 10 11  2  0
 11 12  1  0
 12 13  2  0
 13 14  1  0
 14 15  2  0
 14 16  1  0
 16 17  1  0
 17 18  1  0
 18 19  2  0
 18 20  1  0
 20 21  1  0
 21 22  2  0
 22 23  1  0
 22 24  1  0
 24 25  1  0
 24 26  1  0
 17 27  1  0
 27 28  1  0
  5 29  1  0
 29  2  1  0
 15 10  1  0
 26 20  2  0
 28 13  1  0
M  END
>  <Compound_ID>  (24) 
LIB024

>  <SMILES>  (24) 
Cc1ccc(CNC(=O)c2ccc3c(n2)CN(C(=O)c2cc(C)n(C)n2)CC3)o1

>  <R1_reagent>  (24) 
Cc1cc(C(=O)O)nn1C

>  <R1_ID>  (24) 
R-005202

>  <N_reaction>  (24) 
Amidation

>  <R2_amine>  (24) 
Cc1ccc(CN)o1

>  <R2_ID>  (24) 
R-003437

>  <MW>  (24) 
393.4

>  <LogP>  (24) 
2.15

>  <HBD>  (24) 
1

>  <HBA>  (24) 
6

>  <RotB>  (24) 
4

>  <ASMS_similarity>  (24) 
0.7286

>  <Priority_tier>  (24) 
Tier2_medium

>  <Scaffold>  (24) 
OC(=O)c1ccc2CCNCc2n1

$$$$

     RDKit          2D

 26 29  0  0  0  0  0  0  0  0999 V2000
   -8.1817   -2.6081    0.0000 C   0  0  0  0  0  0  0  0  0  0  0  0
   -6.6824   -2.6559    0.0000 C   0  0  0  0  0  0  0  0  0  0  0  0
   -5.8914   -1.3815    0.0000 N   0  0  0  0  0  0  0  0  0  0  0  0
   -4.3922   -1.4293    0.0000 C   0  0  0  0  0  0  0  0  0  0  0  0
   -3.6840   -2.7516    0.0000 O   0  0  0  0  0  0  0  0  0  0  0  0
   -3.6011   -0.1548    0.0000 C   0  0  0  0  0  0  0  0  0  0  0  0
   -4.3093    1.1675    0.0000 C   0  0  0  0  0  0  0  0  0  0  0  0
   -3.5183    2.4419    0.0000 C   0  0  0  0  0  0  0  0  0  0  0  0
   -2.0191    2.3941    0.0000 C   0  0  0  0  0  0  0  0  0  0  0  0
   -1.3109    1.0718    0.0000 C   0  0  0  0  0  0  0  0  0  0  0  0
   -2.1019   -0.2027    0.0000 N   0  0  0  0  0  0  0  0  0  0  0  0
    0.1884    1.0240    0.0000 C   0  0  0  0  0  0  0  0  0  0  0  0
    0.9794    2.2985    0.0000 N   0  0  0  0  0  0  0  0  0  0  0  0
    2.4786    2.2506    0.0000 C   0  0  0  0  0  0  0  0  0  0  0  0
    3.2697    3.5251    0.0000 O   0  0  0  0  0  0  0  0  0  0  0  0
    3.1868    0.9283    0.0000 C   0  0  0  0  0  0  0  0  0  0  0  0
    2.5334   -0.4218    0.0000 C   0  0  0  0  0  0  0  0  0  0  0  0
    3.6155   -1.4605    0.0000 C   0  0  0  0  0  0  0  0  0  0  0  0
    3.5677   -2.9598    0.0000 C   0  0  0  0  0  0  0  0  0  0  0  0
    4.8422   -3.7508    0.0000 C   0  0  0  0  0  0  0  0  0  0  0  0
    6.1645   -3.0426    0.0000 C   0  0  0  0  0  0  0  0  0  0  0  0
    6.2123   -1.5434    0.0000 C   0  0  0  0  0  0  0  0  0  0  0  0
    4.9378   -0.7523    0.0000 C   0  0  0  0  0  0  0  0  0  0  0  0
    4.6729    0.7241    0.0000 S   0  0  0  0  0  0  0  0  0  0  0  0
    0.2712    3.6207    0.0000 C   0  0  0  0  0  0  0  0  0  0  0  0
   -1.2280    3.6686    0.0000 C   0  0  0  0  0  0  0  0  0  0  0  0
  1  2  1  0
  2  3  1  0
  3  4  1  0
  4  5  2  0
  4  6  1  0
  6  7  2  0
  7  8  1  0
  8  9  2  0
  9 10  1  0
 10 11  2  0
 10 12  1  0
 12 13  1  0
 13 14  1  0
 14 15  2  0
 14 16  1  0
 16 17  2  0
 17 18  1  0
 18 19  2  0
 19 20  1  0
 20 21  2  0
 21 22  1  0
 22 23  2  0
 23 24  1  0
 13 25  1  0
 25 26  1  0
 11  6  1  0
 24 16  1  0
 26  9  1  0
 23 18  1  0
M  END
>  <Compound_ID>  (25) 
LIB025

>  <SMILES>  (25) 
CCNC(=O)c1ccc2c(n1)CN(C(=O)c1cc3ccccc3s1)CC2

>  <R1_reagent>  (25) 
O=C(Cl)c1cc2ccccc2s1

>  <R1_ID>  (25) 
R-005865

>  <N_reaction>  (25) 
Amidation

>  <R2_amine>  (25) 
CCN

>  <R2_ID>  (25) 
R-000959

>  <MW>  (25) 
365.5

>  <LogP>  (25) 
3.24

>  <HBD>  (25) 
1

>  <HBA>  (25) 
4

>  <RotB>  (25) 
3

>  <ASMS_similarity>  (25) 
0.7206

>  <Priority_tier>  (25) 
Tier2_medium

>  <Scaffold>  (25) 
OC(=O)c1ccc2CCNCc2n1

$$$$

     RDKit          2D

 28 31  0  0  0  0  0  0  0  0999 V2000
   -1.7390    2.6828    0.0000 C   0  0  0  0  0  0  0  0  0  0  0  0
   -2.6754    1.5110    0.0000 O   0  0  0  0  0  0  0  0  0  0  0  0
   -4.1584    1.7360    0.0000 C   0  0  0  0  0  0  0  0  0  0  0  0
   -4.8480    3.0681    0.0000 C   0  0  0  0  0  0  0  0  0  0  0  0
   -6.3280    2.8239    0.0000 S   0  0  0  0  0  0  0  0  0  0  0  0
   -6.5531    1.3408    0.0000 C   0  0  0  0  0  0  0  0  0  0  0  0
   -5.2122    0.6685    0.0000 C   0  0  0  0  0  0  0  0  0  0  0  0
   -4.9680   -0.8115    0.0000 C   0  0  0  0  0  0  0  0  0  0  0  0
   -6.1275   -1.7630    0.0000 O   0  0  0  0  0  0  0  0  0  0  0  0
   -3.5641   -1.3399    0.0000 N   0  0  0  0  0  0  0  0  0  0  0  0
   -3.3199   -2.8199    0.0000 C   0  0  0  0  0  0  0  0  0  0  0  0
   -1.9161   -3.3484    0.0000 C   0  0  0  0  0  0  0  0  0  0  0  0
   -0.7565   -2.3969    0.0000 C   0  0  0  0  0  0  0  0  0  0  0  0
    0.6473   -2.9254    0.0000 C   0  0  0  0  0  0  0  0  0  0  0  0
    1.8069   -1.9739    0.0000 C   0  0  0  0  0  0  0  0  0  0  0  0
    1.5627   -0.4939    0.0000 C   0  0  0  0  0  0  0  0  0  0  0  0
    2.7223    0.4576    0.0000 C   0  0  0  0  0  0  0  0  0  0  0  0
    2.4780    1.9376    0.0000 O   0  0  0  0  0  0  0  0  0  0  0  0
    4.1261   -0.0709    0.0000 N   0  0  0  0  0  0  0  0  0  0  0  0
    5.2857    0.8806    0.0000 C   0  0  0  0  0  0  0  0  0  0  0  0
    6.6895    0.3521    0.0000 C   0  0  0  0  0  0  0  0  0  0  0  0
    6.1610   -1.0517    0.0000 C   0  0  0  0  0  0  0  0  0  0  0  0
    7.2180    1.7560    0.0000 C   0  0  0  0  0  0  0  0  0  0  0  0
    8.6218    1.2275    0.0000 O   0  0  0  0  0  0  0  0  0  0  0  0
    8.0933   -0.1763    0.0000 C   0  0  0  0  0  0  0  0  0  0  0  0
    0.1589    0.0346    0.0000 N   0  0  0  0  0  0  0  0  0  0  0  0
   -1.0007   -0.9169    0.0000 C   0  0  0  0  0  0  0  0  0  0  0  0
   -2.4045   -0.3884    0.0000 C   0  0  0  0  0  0  0  0  0  0  0  0
  1  2  1  0
  2  3  1  0
  3  4  2  0
  4  5  1  0
  5  6  1  0
  6  7  2  0
  7  8  1  0
  8  9  2  0
  8 10  1  0
 10 11  1  0
 11 12  1  0
 12 13  1  0
 13 14  2  0
 14 15  1  0
 15 16  2  0
 16 17  1  0
 17 18  2  0
 17 19  1  0
 19 20  1  0
 20 21  1  0
 21 22  1  0
 21 23  1  0
 23 24  1  0
 24 25  1  0
 16 26  1  0
 26 27  2  0
 27 28  1  0
  7  3  1  0
 28 10  1  0
 27 13  1  0
 25 21  1  0
M  END
>  <Compound_ID>  (26) 
LIB026

>  <SMILES>  (26) 
COc1cscc1C(=O)N1CCc2ccc(C(=O)NCC3(C)COC3)nc2C1

>  <R1_reagent>  (26) 
COc1cscc1C(=O)O

>  <R1_ID>  (26) 
R-005100

>  <N_reaction>  (26) 
Amidation

>  <R2_amine>  (26) 
CC1(CN)COC1

>  <R2_ID>  (26) 
R-011779

>  <MW>  (26) 
401.5

>  <LogP>  (26) 
2.12

>  <HBD>  (26) 
1

>  <HBA>  (26) 
6

>  <RotB>  (26) 
5

>  <ASMS_similarity>  (26) 
0.72

>  <Priority_tier>  (26) 
Tier2_medium

>  <Scaffold>  (26) 
OC(=O)c1ccc2CCNCc2n1

$$$$

     RDKit          2D

 25 28  0  0  0  0  0  0  0  0999 V2000
   -5.9466   -1.3551    0.0000 O   0  0  0  0  0  0  0  0  0  0  0  0
   -4.8039   -0.3834    0.0000 C   0  0  0  0  0  0  0  0  0  0  0  0
   -5.0740    1.0921    0.0000 N   0  0  0  0  0  0  0  0  0  0  0  0
   -6.4869    1.5959    0.0000 C   0  0  0  0  0  0  0  0  0  0  0  0
   -7.9624    1.3257    0.0000 C   0  0  0  0  0  0  0  0  0  0  0  0
   -7.4586    2.7386    0.0000 C   0  0  0  0  0  0  0  0  0  0  0  0
   -3.3910   -0.8872    0.0000 C   0  0  0  0  0  0  0  0  0  0  0  0
   -3.1209   -2.3627    0.0000 C   0  0  0  0  0  0  0  0  0  0  0  0
   -1.7080   -2.8664    0.0000 C   0  0  0  0  0  0  0  0  0  0  0  0
   -0.5653   -1.8947    0.0000 C   0  0  0  0  0  0  0  0  0  0  0  0
   -0.8354   -0.4193    0.0000 C   0  0  0  0  0  0  0  0  0  0  0  0
   -2.2483    0.0845    0.0000 N   0  0  0  0  0  0  0  0  0  0  0  0
    0.3073    0.5524    0.0000 C   0  0  0  0  0  0  0  0  0  0  0  0
    1.7202    0.0486    0.0000 N   0  0  0  0  0  0  0  0  0  0  0  0
    2.8629    1.0203    0.0000 C   0  0  0  0  0  0  0  0  0  0  0  0
    2.5928    2.4958    0.0000 O   0  0  0  0  0  0  0  0  0  0  0  0
    4.2758    0.5165    0.0000 C   0  0  0  0  0  0  0  0  0  0  0  0
    4.5459   -0.9589    0.0000 N   0  0  0  0  0  0  0  0  0  0  0  0
    5.9588   -1.4627    0.0000 C   0  0  0  0  0  0  0  0  0  0  0  0
    7.1015   -0.4910    0.0000 C   0  0  0  0  0  0  0  0  0  0  0  0
    6.8314    0.9844    0.0000 C   0  0  0  0  0  0  0  0  0  0  0  0
    5.4185    1.4882    0.0000 C   0  0  0  0  0  0  0  0  0  0  0  0
    5.1483    2.9637    0.0000 F   0  0  0  0  0  0  0  0  0  0  0  0
    1.9903   -1.4268    0.0000 C   0  0  0  0  0  0  0  0  0  0  0  0
    0.8476   -2.3985    0.0000 C   0  0  0  0  0  0  0  0  0  0  0  0
  1  2  2  0
  2  3  1  0
  3  4  1  0
  4  5  1  0
  5  6  1  0
  2  7  1  0
  7  8  2  0
  8  9  1  0
  9 10  2  0
 10 11  1  0
 11 12  2  0
 11 13  1  0
 13 14  1  0
 14 15  1  0
 15 16  2  0
 15 17  1  0
 17 18  2  0
 18 19  1  0
 19 20  2  0
 20 21  1  0
 21 22  2  0
 22 23  1  0
 14 24  1  0
 24 25  1  0
  6  4  1  0
 12  7  1  0
 22 17  1  0
 25 10  1  0
M  END
>  <Compound_ID>  (27) 
LIB027

>  <SMILES>  (27) 
O=C(NC1CC1)c1ccc2c(n1)CN(C(=O)c1ncccc1F)CC2

>  <R1_reagent>  (27) 
O=C(O)c1ncccc1F

>  <R1_ID>  (27) 
R-011410

>  <N_reaction>  (27) 
Amidation

>  <R2_amine>  (27) 
NC1CC1

>  <R2_ID>  (27) 
R-004669

>  <MW>  (27) 
340.4

>  <LogP>  (27) 
1.71

>  <HBD>  (27) 
1

>  <HBA>  (27) 
4

>  <RotB>  (27) 
3

>  <ASMS_similarity>  (27) 
0.7143

>  <Priority_tier>  (27) 
Tier2_medium

>  <Scaffold>  (27) 
OC(=O)c1ccc2CCNCc2n1

$$$$

     RDKit          2D

 29 32  0  0  0  0  0  0  0  0999 V2000
   -8.2350    4.2022    0.0000 C   0  0  0  0  0  0  0  0  0  0  0  0
   -7.4978    2.8958    0.0000 C   0  0  0  0  0  0  0  0  0  0  0  0
   -5.9979    2.8811    0.0000 C   0  0  0  0  0  0  0  0  0  0  0  0
   -5.2606    1.5748    0.0000 N   0  0  0  0  0  0  0  0  0  0  0  0
   -6.0234    0.2832    0.0000 C   0  0  0  0  0  0  0  0  0  0  0  0
   -5.2862   -1.0232    0.0000 C   0  0  0  0  0  0  0  0  0  0  0  0
   -3.7862   -1.0379    0.0000 N   0  0  0  0  0  0  0  0  0  0  0  0
   -3.0490   -2.3443    0.0000 C   0  0  0  0  0  0  0  0  0  0  0  0
   -3.8118   -3.6359    0.0000 O   0  0  0  0  0  0  0  0  0  0  0  0
   -1.5491   -2.3590    0.0000 C   0  0  0  0  0  0  0  0  0  0  0  0
   -0.8119   -3.6653    0.0000 C   0  0  0  0  0  0  0  0  0  0  0  0
    0.6880   -3.6801    0.0000 C   0  0  0  0  0  0  0  0  0  0  0  0
    1.4507   -2.3885    0.0000 C   0  0  0  0  0  0  0  0  0  0  0  0
    0.7135   -1.0821    0.0000 C   0  0  0  0  0  0  0  0  0  0  0  0
   -0.7864   -1.0674    0.0000 N   0  0  0  0  0  0  0  0  0  0  0  0
    1.4763    0.2095    0.0000 C   0  0  0  0  0  0  0  0  0  0  0  0
    2.9762    0.1947    0.0000 N   0  0  0  0  0  0  0  0  0  0  0  0
    3.7389    1.4864    0.0000 C   0  0  0  0  0  0  0  0  0  0  0  0
    5.2388    1.4716    0.0000 C   0  0  0  0  0  0  0  0  0  0  0  0
    5.9760    0.1653    0.0000 C   0  0  0  0  0  0  0  0  0  0  0  0
    7.4760    0.1505    0.0000 N   0  0  0  0  0  0  0  0  0  0  0  0
    8.2387    1.4422    0.0000 C   0  0  0  0  0  0  0  0  0  0  0  0
    9.7386    1.4274    0.0000 C   0  0  0  0  0  0  0  0  0  0  0  0
    7.5015    2.7485    0.0000 C   0  0  0  0  0  0  0  0  0  0  0  0
    6.0016    2.7632    0.0000 N   0  0  0  0  0  0  0  0  0  0  0  0
    3.7134   -1.1116    0.0000 C   0  0  0  0  0  0  0  0  0  0  0  0
    2.9507   -2.4032    0.0000 C   0  0  0  0  0  0  0  0  0  0  0  0
   -7.5233    0.2979    0.0000 C   0  0  0  0  0  0  0  0  0  0  0  0
   -8.2605    1.6042    0.0000 N   0  0  0  0  0  0  0  0  0  0  0  0
  1  2  1  0
  2  3  2  0
  3  4  1  0
  4  5  2  0
  5  6  1  0
  6  7  1  0
  7  8  1  0
  8  9  2  0
  8 10  1  0
 10 11  2  0
 11 12  1  0
 12 13  2  0
 13 14  1  0
 14 15  2  0
 14 16  1  0
 16 17  1  0
 17 18  1  0
 18 19  1  0
 19 20  2  0
 20 21  1  0
 21 22  2  0
 22 23  1  0
 22 24  1  0
 24 25  2  0
 17 26  1  0
 26 27  1  0
  5 28  1  0
 28 29  2  0
 29  2  1  0
 15 10  1  0
 25 19  1  0
 27 13  1  0
M  END
>  <Compound_ID>  (28) 
LIB028

>  <SMILES>  (28) 
Cc1cnc(CNC(=O)c2ccc3c(n2)CN(Cc2cnc(C)cn2)CC3)cn1

>  <R1_reagent>  (28) 
Cc1cnc(C=O)cn1

>  <R1_ID>  (28) 
R-011808

>  <N_reaction>  (28) 
Reductive_amination

>  <R2_amine>  (28) 
Cc1cnc(CN)cn1

>  <R2_ID>  (28) 
R-000616

>  <MW>  (28) 
389.5

>  <LogP>  (28) 
1.77

>  <HBD>  (28) 
1

>  <HBA>  (28) 
7

>  <RotB>  (28) 
5

>  <ASMS_similarity>  (28) 
0.7119

>  <Priority_tier>  (28) 
Tier2_medium

>  <Scaffold>  (28) 
OC(=O)c1ccc2CCNCc2n1

$$$$

     RDKit          2D

 26 28  0  0  0  0  0  0  0  0999 V2000
   -7.2802    4.0774    0.0000 C   0  0  0  0  0  0  0  0  0  0  0  0
   -6.5267    2.7804    0.0000 C   0  0  0  0  0  0  0  0  0  0  0  0
   -5.0267    2.7844    0.0000 C   0  0  0  0  0  0  0  0  0  0  0  0
   -4.2732    1.4874    0.0000 N   0  0  0  0  0  0  0  0  0  0  0  0
   -5.0197    0.1864    0.0000 C   0  0  0  0  0  0  0  0  0  0  0  0
   -4.2663   -1.1107    0.0000 C   0  0  0  0  0  0  0  0  0  0  0  0
   -2.7663   -1.1066    0.0000 N   0  0  0  0  0  0  0  0  0  0  0  0
   -2.0128   -2.4036    0.0000 C   0  0  0  0  0  0  0  0  0  0  0  0
   -2.7593   -3.7047    0.0000 O   0  0  0  0  0  0  0  0  0  0  0  0
   -0.5128   -2.3996    0.0000 C   0  0  0  0  0  0  0  0  0  0  0  0
    0.2407   -3.6966    0.0000 C   0  0  0  0  0  0  0  0  0  0  0  0
    1.7407   -3.6926    0.0000 C   0  0  0  0  0  0  0  0  0  0  0  0
    2.4872   -2.3916    0.0000 C   0  0  0  0  0  0  0  0  0  0  0  0
    1.7337   -1.0945    0.0000 C   0  0  0  0  0  0  0  0  0  0  0  0
    0.2337   -1.0986    0.0000 N   0  0  0  0  0  0  0  0  0  0  0  0
    2.4802    0.2065    0.0000 C   0  0  0  0  0  0  0  0  0  0  0  0
    3.9802    0.2105    0.0000 N   0  0  0  0  0  0  0  0  0  0  0  0
    4.7267    1.5116    0.0000 C   0  0  0  0  0  0  0  0  0  0  0  0
    6.2267    1.5156    0.0000 C   0  0  0  0  0  0  0  0  0  0  0  0
    6.9732    2.8167    0.0000 C   0  0  0  0  0  0  0  0  0  0  0  0
    8.4732    2.8207    0.0000 C   0  0  0  0  0  0  0  0  0  0  0  0
    6.2197    4.1137    0.0000 C   0  0  0  0  0  0  0  0  0  0  0  0
    4.7337   -1.0865    0.0000 C   0  0  0  0  0  0  0  0  0  0  0  0
    3.9872   -2.3875    0.0000 C   0  0  0  0  0  0  0  0  0  0  0  0
   -6.5197    0.1823    0.0000 C   0  0  0  0  0  0  0  0  0  0  0  0
   -7.2732    1.4794    0.0000 N   0  0  0  0  0  0  0  0  0  0  0  0
  1  2  1  0
  2  3  2  0
  3  4  1  0
  4  5  2  0
  5  6  1  0
  6  7  1  0
  7  8  1  0
  8  9  2  0
  8 10  1  0
 10 11  2  0
 11 12  1  0
 12 13  2  0
 13 14  1  0
 14 15  2  0
 14 16  1  0
 16 17  1  0
 17 18  1  0
 18 19  1  0
 19 20  1  0
 20 21  1  0
 20 22  1  0
 17 23  1  0
 23 24  1  0
  5 25  1  0
 25 26  2  0
 26  2  1  0
 15 10  1  0
 24 13  1  0
M  END
>  <Compound_ID>  (29) 
LIB029

>  <SMILES>  (29) 
Cc1cnc(CNC(=O)c2ccc3c(n2)CN(CCC(C)C)CC3)cn1

>  <R1_reagent>  (29) 
CC(C)CC=O

>  <R1_ID>  (29) 
R-000380

>  <N_reaction>  (29) 
Reductive_amination

>  <R2_amine>  (29) 
Cc1cnc(CN)cn1

>  <R2_ID>  (29) 
R-000616

>  <MW>  (29) 
353.5

>  <LogP>  (29) 
2.51

>  <HBD>  (29) 
1

>  <HBA>  (29) 
5

>  <RotB>  (29) 
6

>  <ASMS_similarity>  (29) 
0.7097

>  <Priority_tier>  (29) 
Tier2_medium

>  <Scaffold>  (29) 
OC(=O)c1ccc2CCNCc2n1

$$$$

     RDKit          2D

 30 33  0  0  0  0  0  0  0  0999 V2000
   -2.2184    2.6006    0.0000 C   0  0  0  0  0  0  0  0  0  0  0  0
   -3.2991    1.5605    0.0000 O   0  0  0  0  0  0  0  0  0  0  0  0
   -4.7403    1.9764    0.0000 C   0  0  0  0  0  0  0  0  0  0  0  0
   -5.2510    3.3868    0.0000 C   0  0  0  0  0  0  0  0  0  0  0  0
   -6.7501    3.3370    0.0000 S   0  0  0  0  0  0  0  0  0  0  0  0
   -7.1660    1.8958    0.0000 C   0  0  0  0  0  0  0  0  0  0  0  0
   -5.9239    1.0549    0.0000 C   0  0  0  0  0  0  0  0  0  0  0  0
   -5.8741   -0.4442    0.0000 C   0  0  0  0  0  0  0  0  0  0  0  0
   -7.1475   -1.2369    0.0000 O   0  0  0  0  0  0  0  0  0  0  0  0
   -4.5509   -1.1507    0.0000 N   0  0  0  0  0  0  0  0  0  0  0  0
   -4.5011   -2.6499    0.0000 C   0  0  0  0  0  0  0  0  0  0  0  0
   -3.1779   -3.3563    0.0000 C   0  0  0  0  0  0  0  0  0  0  0  0
   -1.9045   -2.5636    0.0000 C   0  0  0  0  0  0  0  0  0  0  0  0
   -0.5812   -3.2701    0.0000 C   0  0  0  0  0  0  0  0  0  0  0  0
    0.6922   -2.4774    0.0000 C   0  0  0  0  0  0  0  0  0  0  0  0
    0.6424   -0.9782    0.0000 C   0  0  0  0  0  0  0  0  0  0  0  0
    1.9158   -0.1855    0.0000 C   0  0  0  0  0  0  0  0  0  0  0  0
    1.8660    1.3137    0.0000 O   0  0  0  0  0  0  0  0  0  0  0  0
    3.2390   -0.8920    0.0000 N   0  0  0  0  0  0  0  0  0  0  0  0
    4.5125   -0.0993    0.0000 C   0  0  0  0  0  0  0  0  0  0  0  0
    5.8357   -0.8057    0.0000 C   0  0  0  0  0  0  0  0  0  0  0  0
    7.1091   -0.0130    0.0000 N   0  0  0  0  0  0  0  0  0  0  0  0
    8.4323   -0.7195    0.0000 C   0  0  0  0  0  0  0  0  0  0  0  0
    9.7057    0.0732    0.0000 C   0  0  0  0  0  0  0  0  0  0  0  0
    9.6560    1.5724    0.0000 O   0  0  0  0  0  0  0  0  0  0  0  0
    8.3327    2.2789    0.0000 C   0  0  0  0  0  0  0  0  0  0  0  0
    7.0593    1.4862    0.0000 C   0  0  0  0  0  0  0  0  0  0  0  0
   -0.6808   -0.2717    0.0000 N   0  0  0  0  0  0  0  0  0  0  0  0
   -1.9543   -1.0645    0.0000 C   0  0  0  0  0  0  0  0  0  0  0  0
   -3.2775   -0.3580    0.0000 C   0  0  0  0  0  0  0  0  0  0  0  0
  1  2  1  0
  2  3  1  0
  3  4  2  0
  4  5  1  0
  5  6  1  0
  6  7  2  0
  7  8  1  0
  8  9  2  0
  8 10  1  0
 10 11  1  0
 11 12  1  0
 12 13  1  0
 13 14  2  0
 14 15  1  0
 15 16  2  0
 16 17  1  0
 17 18  2  0
 17 19  1  0
 19 20  1  0
 20 21  1  0
 21 22  1  0
 22 23  1  0
 23 24  1  0
 24 25  1  0
 25 26  1  0
 26 27  1  0
 16 28  1  0
 28 29  2  0
 29 30  1  0
  7  3  1  0
 30 10  1  0
 29 13  1  0
 27 22  1  0
M  END
>  <Compound_ID>  (30) 
LIB030

>  <SMILES>  (30) 
COc1cscc1C(=O)N1CCc2ccc(C(=O)NCCN3CCOCC3)nc2C1

>  <R1_reagent>  (30) 
COc1cscc1C(=O)O

>  <R1_ID>  (30) 
R-005100

>  <N_reaction>  (30) 
Amidation

>  <R2_amine>  (30) 
NCCN1CCOCC1

>  <R2_ID>  (30) 
R-002761

>  <MW>  (30) 
430.5

>  <LogP>  (30) 
1.41

>  <HBD>  (30) 
1

>  <HBA>  (30) 
7

>  <RotB>  (30) 
6

>  <ASMS_similarity>  (30) 
0.7067

>  <Priority_tier>  (30) 
Tier2_medium

>  <Scaffold>  (30) 
OC(=O)c1ccc2CCNCc2n1

$$$$

     RDKit          2D

 27 30  0  0  0  0  0  0  0  0999 V2000
   -5.2368   -1.8279    0.0000 O   0  0  0  0  0  0  0  0  0  0  0  0
   -4.1525   -0.7914    0.0000 C   0  0  0  0  0  0  0  0  0  0  0  0
   -4.5079    0.6659    0.0000 N   0  0  0  0  0  0  0  0  0  0  0  0
   -5.9477    1.0867    0.0000 C   0  0  0  0  0  0  0  0  0  0  0  0
   -7.1344    0.1692    0.0000 C   0  0  0  0  0  0  0  0  0  0  0  0
   -8.3737    1.0143    0.0000 C   0  0  0  0  0  0  0  0  0  0  0  0
   -7.9529    2.4541    0.0000 C   0  0  0  0  0  0  0  0  0  0  0  0
   -6.4535    2.4988    0.0000 C   0  0  0  0  0  0  0  0  0  0  0  0
   -2.7127   -1.2122    0.0000 C   0  0  0  0  0  0  0  0  0  0  0  0
   -2.3572   -2.6695    0.0000 C   0  0  0  0  0  0  0  0  0  0  0  0
   -0.9175   -3.0903    0.0000 C   0  0  0  0  0  0  0  0  0  0  0  0
    0.1668   -2.0538    0.0000 C   0  0  0  0  0  0  0  0  0  0  0  0
   -0.1886   -0.5965    0.0000 C   0  0  0  0  0  0  0  0  0  0  0  0
   -1.6284   -0.1757    0.0000 N   0  0  0  0  0  0  0  0  0  0  0  0
    0.8957    0.4400    0.0000 C   0  0  0  0  0  0  0  0  0  0  0  0
    2.3355    0.0192    0.0000 N   0  0  0  0  0  0  0  0  0  0  0  0
    3.4198    1.0557    0.0000 C   0  0  0  0  0  0  0  0  0  0  0  0
    3.0643    2.5129    0.0000 O   0  0  0  0  0  0  0  0  0  0  0  0
    4.8595    0.6349    0.0000 C   0  0  0  0  0  0  0  0  0  0  0  0
    5.2150   -0.8224    0.0000 N   0  0  0  0  0  0  0  0  0  0  0  0
    6.6548   -1.2432    0.0000 C   0  0  0  0  0  0  0  0  0  0  0  0
    7.7391   -0.2067    0.0000 C   0  0  0  0  0  0  0  0  0  0  0  0
    7.3836    1.2506    0.0000 C   0  0  0  0  0  0  0  0  0  0  0  0
    5.9438    1.6713    0.0000 C   0  0  0  0  0  0  0  0  0  0  0  0
    5.5884    3.1286    0.0000 F   0  0  0  0  0  0  0  0  0  0  0  0
    2.6909   -1.4381    0.0000 C   0  0  0  0  0  0  0  0  0  0  0  0
    1.6066   -2.4746    0.0000 C   0  0  0  0  0  0  0  0  0  0  0  0
  1  2  2  0
  2  3  1  0
  3  4  1  0
  4  5  1  0
  5  6  1  0
  6  7  1  0
  7  8  1  0
  2  9  1  0
  9 10  2  0
 10 11  1  0
 11 12  2  0
 12 13  1  0
 13 14  2  0
 13 15  1  0
 15 16  1  0
 16 17  1  0
 17 18  2  0
 17 19  1  0
 19 20  2  0
 20 21  1  0
 21 22  2  0
 22 23  1  0
 23 24  2  0
 24 25  1  0
 16 26  1  0
 26 27  1  0
  8  4  1  0
 14  9  1  0
 24 19  1  0
 27 12  1  0
M  END
>  <Compound_ID>  (31) 
LIB031

>  <SMILES>  (31) 
O=C(NC1CCCC1)c1ccc2c(n1)CN(C(=O)c1ncccc1F)CC2

>  <R1_reagent>  (31) 
O=C(O)c1ncccc1F

>  <R1_ID>  (31) 
R-011410

>  <N_reaction>  (31) 
Amidation

>  <R2_amine>  (31) 
NC1CCCC1

>  <R2_ID>  (31) 
R-004298

>  <MW>  (31) 
368.4

>  <LogP>  (31) 
2.49

>  <HBD>  (31) 
1

>  <HBA>  (31) 
4

>  <RotB>  (31) 
3

>  <ASMS_similarity>  (31) 
0.7031

>  <Priority_tier>  (31) 
Tier2_medium

>  <Scaffold>  (31) 
OC(=O)c1ccc2CCNCc2n1

$$$$

     RDKit          2D

 34 38  0  0  0  0  0  0  0  0999 V2000
  -10.1741    0.5772    0.0000 C   0  0  0  0  0  0  0  0  0  0  0  0
   -8.7050    0.2742    0.0000 O   0  0  0  0  0  0  0  0  0  0  0  0
   -7.7080    1.3949    0.0000 C   0  0  0  0  0  0  0  0  0  0  0  0
   -8.1801    2.8187    0.0000 C   0  0  0  0  0  0  0  0  0  0  0  0
   -7.1831    3.9394    0.0000 C   0  0  0  0  0  0  0  0  0  0  0  0
   -5.7141    3.6364    0.0000 C   0  0  0  0  0  0  0  0  0  0  0  0
   -5.2420    2.2126    0.0000 C   0  0  0  0  0  0  0  0  0  0  0  0
   -6.2389    1.0919    0.0000 C   0  0  0  0  0  0  0  0  0  0  0  0
   -5.7668   -0.3319    0.0000 C   0  0  0  0  0  0  0  0  0  0  0  0
   -4.2978   -0.6349    0.0000 N   0  0  0  0  0  0  0  0  0  0  0  0
   -3.8257   -2.0587    0.0000 C   0  0  0  0  0  0  0  0  0  0  0  0
   -4.8226   -3.1794    0.0000 O   0  0  0  0  0  0  0  0  0  0  0  0
   -2.3566   -2.3617    0.0000 C   0  0  0  0  0  0  0  0  0  0  0  0
   -1.8845   -3.7855    0.0000 C   0  0  0  0  0  0  0  0  0  0  0  0
   -0.4154   -4.0885    0.0000 C   0  0  0  0  0  0  0  0  0  0  0  0
    0.5816   -2.9678    0.0000 C   0  0  0  0  0  0  0  0  0  0  0  0
    0.1095   -1.5440    0.0000 C   0  0  0  0  0  0  0  0  0  0  0  0
   -1.3596   -1.2410    0.0000 N   0  0  0  0  0  0  0  0  0  0  0  0
    1.1064   -0.4233    0.0000 C   0  0  0  0  0  0  0  0  0  0  0  0
    2.5755   -0.7263    0.0000 N   0  0  0  0  0  0  0  0  0  0  0  0
    3.5725    0.3944    0.0000 C   0  0  0  0  0  0  0  0  0  0  0  0
    3.1004    1.8182    0.0000 O   0  0  0  0  0  0  0  0  0  0  0  0
    5.0415    0.0914    0.0000 C   0  0  0  0  0  0  0  0  0  0  0  0
    5.5136   -1.3324    0.0000 C   0  0  0  0  0  0  0  0  0  0  0  0
    6.9827   -1.6354    0.0000 C   0  0  0  0  0  0  0  0  0  0  0  0
    7.9797   -0.5147    0.0000 C   0  0  0  0  0  0  0  0  0  0  0  0
    7.5076    0.9091    0.0000 C   0  0  0  0  0  0  0  0  0  0  0  0
    8.5045    2.0298    0.0000 C   0  0  0  0  0  0  0  0  0  0  0  0
    8.0324    3.4536    0.0000 C   0  0  0  0  0  0  0  0  0  0  0  0
    6.5634    3.7566    0.0000 C   0  0  0  0  0  0  0  0  0  0  0  0
    5.5664    2.6359    0.0000 C   0  0  0  0  0  0  0  0  0  0  0  0
    6.0385    1.2121    0.0000 C   0  0  0  0  0  0  0  0  0  0  0  0
    3.0476   -2.1501    0.0000 C   0  0  0  0  0  0  0  0  0  0  0  0
    2.0506   -3.2708    0.0000 C   0  0  0  0  0  0  0  0  0  0  0  0
  1  2  1  0
  2  3  1  0
  3  4  2  0
  4  5  1  0
  5  6  2  0
  6  7  1  0
  7  8  2  0
  8  9  1  0
  9 10  1  0
 10 11  1  0
 11 12  2  0
 11 13  1  0
 13 14  2  0
 14 15  1  0
 15 16  2  0
 16 17  1  0
 17 18  2  0
 17 19  1  0
 19 20  1  0
 20 21  1  0
 21 22  2  0
 21 23  1  0
 23 24  2  0
 24 25  1  0
 25 26  2  0
 26 27  1  0
 27 28  2  0
 28 29  1  0
 29 30  2  0
 30 31  1  0
 31 32  2  0
 20 33  1  0
 33 34  1  0
  8  3  1  0
 18 13  1  0
 32 23  1  0
 34 16  1  0
 32 27  1  0
M  END
>  <Compound_ID>  (32) 
LIB032

>  <SMILES>  (32) 
COc1ccccc1CNC(=O)c1ccc2c(n1)CN(C(=O)c1cccc3ccccc13)CC2

>  <R1_reagent>  (32) 
O=C(Cl)c1cccc2ccccc12

>  <R1_ID>  (32) 
R-008260

>  <N_reaction>  (32) 
Amidation

>  <R2_amine>  (32) 
COc1ccccc1CN

>  <R2_ID>  (32) 
R-003963

>  <MW>  (32) 
451.5

>  <LogP>  (32) 
4.37

>  <HBD>  (32) 
1

>  <HBA>  (32) 
4

>  <RotB>  (32) 
5

>  <ASMS_similarity>  (32) 
0.7015

>  <Priority_tier>  (32) 
Tier2_medium

>  <Scaffold>  (32) 
OC(=O)c1ccc2CCNCc2n1

$$$$

     RDKit          2D

 28 31  0  0  0  0  0  0  0  0999 V2000
   -5.6075   -1.8729    0.0000 O   0  0  0  0  0  0  0  0  0  0  0  0
   -4.5596   -0.7996    0.0000 C   0  0  0  0  0  0  0  0  0  0  0  0
   -4.9651    0.6445    0.0000 N   0  0  0  0  0  0  0  0  0  0  0  0
   -6.4185    1.0154    0.0000 C   0  0  0  0  0  0  0  0  0  0  0  0
   -7.5729    0.0576    0.0000 C   0  0  0  0  0  0  0  0  0  0  0  0
   -8.8406    0.8594    0.0000 C   0  0  0  0  0  0  0  0  0  0  0  0
   -8.4697    2.3128    0.0000 C   0  0  0  0  0  0  0  0  0  0  0  0
   -6.9728    2.4092    0.0000 C   0  0  0  0  0  0  0  0  0  0  0  0
   -3.1061   -1.1705    0.0000 C   0  0  0  0  0  0  0  0  0  0  0  0
   -2.7006   -2.6146    0.0000 C   0  0  0  0  0  0  0  0  0  0  0  0
   -1.2472   -2.9855    0.0000 C   0  0  0  0  0  0  0  0  0  0  0  0
   -0.1993   -1.9123    0.0000 C   0  0  0  0  0  0  0  0  0  0  0  0
   -0.6048   -0.4681    0.0000 C   0  0  0  0  0  0  0  0  0  0  0  0
   -2.0582   -0.0972    0.0000 N   0  0  0  0  0  0  0  0  0  0  0  0
    0.4431    0.6051    0.0000 C   0  0  0  0  0  0  0  0  0  0  0  0
    1.8965    0.2343    0.0000 N   0  0  0  0  0  0  0  0  0  0  0  0
    2.9444    1.3075    0.0000 C   0  0  0  0  0  0  0  0  0  0  0  0
    2.5389    2.7517    0.0000 O   0  0  0  0  0  0  0  0  0  0  0  0
    4.3978    0.9367    0.0000 C   0  0  0  0  0  0  0  0  0  0  0  0
    4.8034   -0.5075    0.0000 C   0  0  0  0  0  0  0  0  0  0  0  0
    6.2568   -0.8784    0.0000 C   0  0  0  0  0  0  0  0  0  0  0  0
    7.3047    0.1949    0.0000 C   0  0  0  0  0  0  0  0  0  0  0  0
    8.6565    0.8450    0.0000 F   0  0  0  0  0  0  0  0  0  0  0  0
    8.1797   -1.0235    0.0000 F   0  0  0  0  0  0  0  0  0  0  0  0
    6.8992    1.6390    0.0000 C   0  0  0  0  0  0  0  0  0  0  0  0
    5.4457    2.0099    0.0000 C   0  0  0  0  0  0  0  0  0  0  0  0
    2.3020   -1.2099    0.0000 C   0  0  0  0  0  0  0  0  0  0  0  0
    1.2541   -2.2831    0.0000 C   0  0  0  0  0  0  0  0  0  0  0  0
  1  2  2  0
  2  3  1  0
  3  4  1  0
  4  5  1  0
  5  6  1  0
  6  7  1  0
  7  8  1  0
  2  9  1  0
  9 10  2  0
 10 11  1  0
 11 12  2  0
 12 13  1  0
 13 14  2  0
 13 15  1  0
 15 16  1  0
 16 17  1  0
 17 18  2  0
 17 19  1  0
 19 20  1  0
 20 21  1  0
 21 22  1  0
 22 23  1  0
 22 24  1  0
 22 25  1  0
 25 26  1  0
 16 27  1  0
 27 28  1  0
  8  4  1  0
 14  9  1  0
 26 19  1  0
 28 12  1  0
M  END
>  <Compound_ID>  (33) 
LIB033

>  <SMILES>  (33) 
O=C(NC1CCCC1)c1ccc2c(n1)CN(C(=O)C1CCC(F)(F)CC1)CC2

>  <R1_reagent>  (33) 
O=C(O)C1CCC(F)(F)CC1

>  <R1_ID>  (33) 
R-012108

>  <N_reaction>  (33) 
Amidation

>  <R2_amine>  (33) 
NC1CCCC1

>  <R2_ID>  (33) 
R-004298

>  <MW>  (33) 
391.5

>  <LogP>  (33) 
3.46

>  <HBD>  (33) 
1

>  <HBA>  (33) 
3

>  <RotB>  (33) 
3

>  <ASMS_similarity>  (33) 
0.6984

>  <Priority_tier>  (33) 
Tier2_medium

>  <Scaffold>  (33) 
OC(=O)c1ccc2CCNCc2n1

$$$$

     RDKit          2D

 29 32  0  0  0  0  0  0  0  0999 V2000
   -2.2538    2.7049    0.0000 C   0  0  0  0  0  0  0  0  0  0  0  0
   -3.1431    1.4970    0.0000 O   0  0  0  0  0  0  0  0  0  0  0  0
   -4.6339    1.6632    0.0000 C   0  0  0  0  0  0  0  0  0  0  0  0
   -5.3757    2.9669    0.0000 C   0  0  0  0  0  0  0  0  0  0  0  0
   -6.8448    2.6644    0.0000 S   0  0  0  0  0  0  0  0  0  0  0  0
   -7.0111    1.1736    0.0000 C   0  0  0  0  0  0  0  0  0  0  0  0
   -5.6446    0.5548    0.0000 C   0  0  0  0  0  0  0  0  0  0  0  0
   -5.3420   -0.9143    0.0000 C   0  0  0  0  0  0  0  0  0  0  0  0
   -6.4631   -1.9110    0.0000 O   0  0  0  0  0  0  0  0  0  0  0  0
   -3.9184   -1.3869    0.0000 N   0  0  0  0  0  0  0  0  0  0  0  0
   -3.6158   -2.8560    0.0000 C   0  0  0  0  0  0  0  0  0  0  0  0
   -2.1922   -3.3286    0.0000 C   0  0  0  0  0  0  0  0  0  0  0  0
   -1.0712   -2.3319    0.0000 C   0  0  0  0  0  0  0  0  0  0  0  0
    0.3525   -2.8045    0.0000 C   0  0  0  0  0  0  0  0  0  0  0  0
    1.4735   -1.8079    0.0000 C   0  0  0  0  0  0  0  0  0  0  0  0
    1.1709   -0.3387    0.0000 C   0  0  0  0  0  0  0  0  0  0  0  0
    2.2920    0.6579    0.0000 C   0  0  0  0  0  0  0  0  0  0  0  0
    1.9894    2.1271    0.0000 O   0  0  0  0  0  0  0  0  0  0  0  0
    3.7156    0.1854    0.0000 N   0  0  0  0  0  0  0  0  0  0  0  0
    4.8366    1.1820    0.0000 C   0  0  0  0  0  0  0  0  0  0  0  0
    6.2602    0.7095    0.0000 C   0  0  0  0  0  0  0  0  0  0  0  0
    6.5628   -0.7597    0.0000 C   0  0  0  0  0  0  0  0  0  0  0  0
    7.9865   -1.2322    0.0000 C   0  0  0  0  0  0  0  0  0  0  0  0
    9.1075   -0.2356    0.0000 O   0  0  0  0  0  0  0  0  0  0  0  0
    8.8049    1.2336    0.0000 C   0  0  0  0  0  0  0  0  0  0  0  0
    7.3813    1.7061    0.0000 C   0  0  0  0  0  0  0  0  0  0  0  0
   -0.2527    0.1338    0.0000 N   0  0  0  0  0  0  0  0  0  0  0  0
   -1.3738   -0.8628    0.0000 C   0  0  0  0  0  0  0  0  0  0  0  0
   -2.7974   -0.3902    0.0000 C   0  0  0  0  0  0  0  0  0  0  0  0
  1  2  1  0
  2  3  1  0
  3  4  2  0
  4  5  1  0
  5  6  1  0
  6  7  2  0
  7  8  1  0
  8  9  2  0
  8 10  1  0
 10 11  1  0
 11 12  1  0
 12 13  1  0
 13 14  2  0
 14 15  1  0
 15 16  2  0
 16 17  1  0
 17 18  2  0
 17 19  1  0
 19 20  1  0
 20 21  1  0
 21 22  1  0
 22 23  1  0
 23 24  1  0
 24 25  1  0
 25 26  1  0
 16 27  1  0
 27 28  2  0
 28 29  1  0
  7  3  1  0
 29 10  1  0
 28 13  1  0
 26 21  1  0
M  END
>  <Compound_ID>  (34) 
LIB034

>  <SMILES>  (34) 
COc1cscc1C(=O)N1CCc2ccc(C(=O)NCC3CCOCC3)nc2C1

>  <R1_reagent>  (34) 
COc1cscc1C(=O)O

>  <R1_ID>  (34) 
R-005100

>  <N_reaction>  (34) 
Amidation

>  <R2_amine>  (34) 
NCC1CCOCC1

>  <R2_ID>  (34) 
R-004523

>  <MW>  (34) 
415.5

>  <LogP>  (34) 
2.51

>  <HBD>  (34) 
1

>  <HBA>  (34) 
6

>  <RotB>  (34) 
5

>  <ASMS_similarity>  (34) 
0.6974

>  <Priority_tier>  (34) 
Tier2_medium

>  <Scaffold>  (34) 
OC(=O)c1ccc2CCNCc2n1

$$$$

     RDKit          2D

 20 21  0  0  0  0  0  0  0  0999 V2000
   -7.4649   -0.3697    0.0000 C   0  0  0  0  0  0  0  0  0  0  0  0
   -6.1072   -1.0072    0.0000 C   0  0  0  0  0  0  0  0  0  0  0  0
   -4.8761   -0.1501    0.0000 N   0  0  0  0  0  0  0  0  0  0  0  0
   -3.5184   -0.7877    0.0000 C   0  0  0  0  0  0  0  0  0  0  0  0
   -3.3916   -2.2823    0.0000 O   0  0  0  0  0  0  0  0  0  0  0  0
   -2.2874    0.0694    0.0000 C   0  0  0  0  0  0  0  0  0  0  0  0
   -2.4141    1.5641    0.0000 C   0  0  0  0  0  0  0  0  0  0  0  0
   -1.1831    2.4212    0.0000 C   0  0  0  0  0  0  0  0  0  0  0  0
    0.1746    1.7836    0.0000 C   0  0  0  0  0  0  0  0  0  0  0  0
    0.3014    0.2890    0.0000 C   0  0  0  0  0  0  0  0  0  0  0  0
   -0.9296   -0.5681    0.0000 N   0  0  0  0  0  0  0  0  0  0  0  0
    1.6592   -0.3485    0.0000 C   0  0  0  0  0  0  0  0  0  0  0  0
    2.8902    0.5086    0.0000 N   0  0  0  0  0  0  0  0  0  0  0  0
    4.2480   -0.1290    0.0000 C   0  0  0  0  0  0  0  0  0  0  0  0
    5.4790    0.7281    0.0000 O   0  0  0  0  0  0  0  0  0  0  0  0
    4.3747   -1.6236    0.0000 C   0  0  0  0  0  0  0  0  0  0  0  0
    5.7325   -2.2611    0.0000 C   0  0  0  0  0  0  0  0  0  0  0  0
    3.1437   -2.4807    0.0000 C   0  0  0  0  0  0  0  0  0  0  0  0
    2.7634    2.0032    0.0000 C   0  0  0  0  0  0  0  0  0  0  0  0
    1.4057    2.6407    0.0000 C   0  0  0  0  0  0  0  0  0  0  0  0
  1  2  1  0
  2  3  1  0
  3  4  1  0
  4  5  2  0
  4  6  1  0
  6  7  2  0
  7  8  1  0
  8  9  2  0
  9 10  1  0
 10 11  2  0
 10 12  1  0
 12 13  1  0
 13 14  1  0
 14 15  2  0
 14 16  1  0
 16 17  1  0
 16 18  1  0
 13 19  1  0
 19 20  1  0
 11  6  1  0
 20  9  1  0
M  END
>  <Compound_ID>  (35) 
LIB035

>  <SMILES>  (35) 
CCNC(=O)c1ccc2c(n1)CN(C(=O)C(C)C)CC2

>  <R1_reagent>  (35) 
CC(C)C(=O)Cl

>  <R1_ID>  (35) 
R-001947

>  <N_reaction>  (35) 
Amidation

>  <R2_amine>  (35) 
CCN

>  <R2_ID>  (35) 
R-000959

>  <MW>  (35) 
275.4

>  <LogP>  (35) 
1.37

>  <HBD>  (35) 
1

>  <HBA>  (35) 
3

>  <RotB>  (35) 
3

>  <ASMS_similarity>  (35) 
0.6964

>  <Priority_tier>  (35) 
Tier2_medium

>  <Scaffold>  (35) 
OC(=O)c1ccc2CCNCc2n1

$$$$

     RDKit          2D

 34 37  0  0  0  0  0  0  0  0999 V2000
   -5.7775    5.3652    0.0000 C   0  0  0  0  0  0  0  0  0  0  0  0
   -6.9176    4.3904    0.0000 O   0  0  0  0  0  0  0  0  0  0  0  0
   -6.6434    2.9157    0.0000 C   0  0  0  0  0  0  0  0  0  0  0  0
   -5.2291    2.4158    0.0000 C   0  0  0  0  0  0  0  0  0  0  0  0
   -4.9550    0.9410    0.0000 C   0  0  0  0  0  0  0  0  0  0  0  0
   -6.0950   -0.0338    0.0000 C   0  0  0  0  0  0  0  0  0  0  0  0
   -5.8208   -1.5085    0.0000 C   0  0  0  0  0  0  0  0  0  0  0  0
   -6.9609   -2.4833    0.0000 O   0  0  0  0  0  0  0  0  0  0  0  0
   -4.4066   -2.0084    0.0000 N   0  0  0  0  0  0  0  0  0  0  0  0
   -4.1324   -3.4832    0.0000 C   0  0  0  0  0  0  0  0  0  0  0  0
   -2.7182   -3.9831    0.0000 C   0  0  0  0  0  0  0  0  0  0  0  0
   -1.5781   -3.0083    0.0000 C   0  0  0  0  0  0  0  0  0  0  0  0
   -0.1639   -3.5082    0.0000 C   0  0  0  0  0  0  0  0  0  0  0  0
    0.9762   -2.5334    0.0000 C   0  0  0  0  0  0  0  0  0  0  0  0
    0.7020   -1.0586    0.0000 C   0  0  0  0  0  0  0  0  0  0  0  0
    1.8421   -0.0838    0.0000 C   0  0  0  0  0  0  0  0  0  0  0  0
    1.5679    1.3909    0.0000 O   0  0  0  0  0  0  0  0  0  0  0  0
    3.2563   -0.5837    0.0000 N   0  0  0  0  0  0  0  0  0  0  0  0
    4.3964    0.3911    0.0000 C   0  0  0  0  0  0  0  0  0  0  0  0
    5.8106   -0.1088    0.0000 C   0  0  0  0  0  0  0  0  0  0  0  0
    6.0848   -1.5836    0.0000 C   0  0  0  0  0  0  0  0  0  0  0  0
    7.4991   -2.0835    0.0000 C   0  0  0  0  0  0  0  0  0  0  0  0
    8.6391   -1.1087    0.0000 C   0  0  0  0  0  0  0  0  0  0  0  0
    8.3649    0.3661    0.0000 C   0  0  0  0  0  0  0  0  0  0  0  0
    6.9507    0.8660    0.0000 C   0  0  0  0  0  0  0  0  0  0  0  0
    6.6765    2.3407    0.0000 C   0  0  0  0  0  0  0  0  0  0  0  0
    6.4023    3.8154    0.0000 F   0  0  0  0  0  0  0  0  0  0  0  0
    8.1512    2.6149    0.0000 F   0  0  0  0  0  0  0  0  0  0  0  0
    5.2018    2.0665    0.0000 F   0  0  0  0  0  0  0  0  0  0  0  0
   -0.7122   -0.5587    0.0000 N   0  0  0  0  0  0  0  0  0  0  0  0
   -1.8523   -1.5335    0.0000 C   0  0  0  0  0  0  0  0  0  0  0  0
   -3.2665   -1.0336    0.0000 C   0  0  0  0  0  0  0  0  0  0  0  0
   -7.5093    0.4661    0.0000 C   0  0  0  0  0  0  0  0  0  0  0  0
   -7.7834    1.9409    0.0000 N   0  0  0  0  0  0  0  0  0  0  0  0
  1  2  1  0
  2  3  1  0
  3  4  2  0
  4  5  1  0
  5  6  2  0
  6  7  1  0
  7  8  2  0
  7  9  1  0
  9 10  1  0
 10 11  1  0
 11 12  1  0
 12 13  2  0
 13 14  1  0
 14 15  2  0
 15 16  1  0
 16 17  2  0
 16 18  1  0
 18 19  1  0
 19 20  1  0
 20 21  2  0
 21 22  1  0
 22 23  2  0
 23 24  1  0
 24 25  2  0
 25 26  1  0
 26 27  1  0
 26 28  1  0
 26 29  1  0
 15 30  1  0
 30 31  2  0
 31 32  1  0
  6 33  1  0
 33 34  2  0
 34  3  1  0
 32  9  1  0
 31 12  1  0
 25 20  1  0
M  END
>  <Compound_ID>  (36) 
LIB036

>  <SMILES>  (36) 
COc1ccc(C(=O)N2CCc3ccc(C(=O)NCc4ccccc4C(F)(F)F)nc3C2)cn1

>  <R1_reagent>  (36) 
COc1ccc(C(=O)O)cn1

>  <R1_ID>  (36) 
R-008524

>  <N_reaction>  (36) 
Amidation

>  <R2_amine>  (36) 
NCc1ccccc1C(F)(F)F

>  <R2_ID>  (36) 
R-002526

>  <MW>  (36) 
470.5

>  <LogP>  (36) 
3.63

>  <HBD>  (36) 
1

>  <HBA>  (36) 
5

>  <RotB>  (36) 
5

>  <ASMS_similarity>  (36) 
0.6962

>  <Priority_tier>  (36) 
Tier2_medium

>  <Scaffold>  (36) 
OC(=O)c1ccc2CCNCc2n1

$$$$

     RDKit          2D

 26 29  0  0  0  0  0  0  0  0999 V2000
   -6.3157   -1.4730    0.0000 O   0  0  0  0  0  0  0  0  0  0  0  0
   -5.2201   -0.4485    0.0000 C   0  0  0  0  0  0  0  0  0  0  0  0
   -5.5595    1.0126    0.0000 N   0  0  0  0  0  0  0  0  0  0  0  0
   -6.9945    1.4492    0.0000 C   0  0  0  0  0  0  0  0  0  0  0  0
   -8.4556    1.1098    0.0000 C   0  0  0  0  0  0  0  0  0  0  0  0
   -8.0190    2.5449    0.0000 C   0  0  0  0  0  0  0  0  0  0  0  0
   -3.7850   -0.8851    0.0000 C   0  0  0  0  0  0  0  0  0  0  0  0
   -3.4456   -2.3462    0.0000 C   0  0  0  0  0  0  0  0  0  0  0  0
   -2.0106   -2.7829    0.0000 C   0  0  0  0  0  0  0  0  0  0  0  0
   -0.9149   -1.7584    0.0000 C   0  0  0  0  0  0  0  0  0  0  0  0
   -1.2543   -0.2973    0.0000 C   0  0  0  0  0  0  0  0  0  0  0  0
   -2.6894    0.1393    0.0000 N   0  0  0  0  0  0  0  0  0  0  0  0
   -0.1587    0.7272    0.0000 C   0  0  0  0  0  0  0  0  0  0  0  0
    1.2764    0.2906    0.0000 N   0  0  0  0  0  0  0  0  0  0  0  0
    2.3720    1.3150    0.0000 C   0  0  0  0  0  0  0  0  0  0  0  0
    2.0326    2.7761    0.0000 O   0  0  0  0  0  0  0  0  0  0  0  0
    3.8071    0.8784    0.0000 C   0  0  0  0  0  0  0  0  0  0  0  0
    4.1465   -0.5827    0.0000 C   0  0  0  0  0  0  0  0  0  0  0  0
    5.5815   -1.0193    0.0000 C   0  0  0  0  0  0  0  0  0  0  0  0
    6.6772    0.0052    0.0000 C   0  0  0  0  0  0  0  0  0  0  0  0
    8.0571    0.5931    0.0000 F   0  0  0  0  0  0  0  0  0  0  0  0
    7.4958   -1.2517    0.0000 F   0  0  0  0  0  0  0  0  0  0  0  0
    6.3378    1.4663    0.0000 C   0  0  0  0  0  0  0  0  0  0  0  0
    4.9027    1.9029    0.0000 C   0  0  0  0  0  0  0  0  0  0  0  0
    1.6158   -1.1705    0.0000 C   0  0  0  0  0  0  0  0  0  0  0  0
    0.5201   -2.1950    0.0000 C   0  0  0  0  0  0  0  0  0  0  0  0
  1  2  2  0
  2  3  1  0
  3  4  1  0
  4  5  1  0
  5  6  1  0
  2  7  1  0
  7  8  2  0
  8  9  1  0
  9 10  2  0
 10 11  1  0
 11 12  2  0
 11 13  1  0
 13 14  1  0
 14 15  1  0
 15 16  2  0
 15 17  1  0
 17 18  1  0
 18 19  1  0
 19 20  1  0
 20 21  1  0
 20 22  1  0
 20 23  1  0
 23 24  1  0
 14 25  1  0
 25 26  1  0
  6  4  1  0
 12  7  1  0
 24 17  1  0
 26 10  1  0
M  END
>  <Compound_ID>  (37) 
LIB037

>  <SMILES>  (37) 
O=C(NC1CC1)c1ccc2c(n1)CN(C(=O)C1CCC(F)(F)CC1)CC2

>  <R1_reagent>  (37) 
O=C(O)C1CCC(F)(F)CC1

>  <R1_ID>  (37) 
R-012108

>  <N_reaction>  (37) 
Amidation

>  <R2_amine>  (37) 
NC1CC1

>  <R2_ID>  (37) 
R-004669

>  <MW>  (37) 
363.4

>  <LogP>  (37) 
2.68

>  <HBD>  (37) 
1

>  <HBA>  (37) 
3

>  <RotB>  (37) 
3

>  <ASMS_similarity>  (37) 
0.6935

>  <Priority_tier>  (37) 
Tier2_medium

>  <Scaffold>  (37) 
OC(=O)c1ccc2CCNCc2n1

$$$$

     RDKit          2D

 35 39  0  0  0  0  0  0  0  0999 V2000
   -8.1876    6.0867    0.0000 C   0  0  0  0  0  0  0  0  0  0  0  0
   -7.4845    4.7617    0.0000 C   0  0  0  0  0  0  0  0  0  0  0  0
   -8.2805    3.4903    0.0000 O   0  0  0  0  0  0  0  0  0  0  0  0
   -7.5774    2.1652    0.0000 C   0  0  0  0  0  0  0  0  0  0  0  0
   -6.0784    2.1116    0.0000 C   0  0  0  0  0  0  0  0  0  0  0  0
   -5.3753    0.7866    0.0000 C   0  0  0  0  0  0  0  0  0  0  0  0
   -6.1713   -0.4848    0.0000 C   0  0  0  0  0  0  0  0  0  0  0  0
   -5.4682   -1.8098    0.0000 C   0  0  0  0  0  0  0  0  0  0  0  0
   -3.9692   -1.8635    0.0000 N   0  0  0  0  0  0  0  0  0  0  0  0
   -3.2661   -3.1885    0.0000 C   0  0  0  0  0  0  0  0  0  0  0  0
   -4.0621   -4.4599    0.0000 O   0  0  0  0  0  0  0  0  0  0  0  0
   -1.7671   -3.2421    0.0000 C   0  0  0  0  0  0  0  0  0  0  0  0
   -1.0640   -4.5672    0.0000 C   0  0  0  0  0  0  0  0  0  0  0  0
    0.4350   -4.6208    0.0000 C   0  0  0  0  0  0  0  0  0  0  0  0
    1.2310   -3.3494    0.0000 C   0  0  0  0  0  0  0  0  0  0  0  0
    0.5279   -2.0244    0.0000 C   0  0  0  0  0  0  0  0  0  0  0  0
   -0.9711   -1.9708    0.0000 N   0  0  0  0  0  0  0  0  0  0  0  0
    1.3239   -0.7530    0.0000 C   0  0  0  0  0  0  0  0  0  0  0  0
    2.8230   -0.8067    0.0000 N   0  0  0  0  0  0  0  0  0  0  0  0
    3.6189    0.4647    0.0000 C   0  0  0  0  0  0  0  0  0  0  0  0
    2.9159    1.7898    0.0000 O   0  0  0  0  0  0  0  0  0  0  0  0
    5.1180    0.4111    0.0000 C   0  0  0  0  0  0  0  0  0  0  0  0
    5.8210   -0.9139    0.0000 C   0  0  0  0  0  0  0  0  0  0  0  0
    7.3201   -0.9676    0.0000 C   0  0  0  0  0  0  0  0  0  0  0  0
    8.1161    0.3038    0.0000 C   0  0  0  0  0  0  0  0  0  0  0  0
    7.4130    1.6288    0.0000 C   0  0  0  0  0  0  0  0  0  0  0  0
    8.2090    2.9002    0.0000 C   0  0  0  0  0  0  0  0  0  0  0  0
    7.5059    4.2252    0.0000 C   0  0  0  0  0  0  0  0  0  0  0  0
    6.0069    4.2789    0.0000 C   0  0  0  0  0  0  0  0  0  0  0  0
    5.2109    3.0075    0.0000 C   0  0  0  0  0  0  0  0  0  0  0  0
    5.9140    1.6825    0.0000 C   0  0  0  0  0  0  0  0  0  0  0  0
    3.5260   -2.1317    0.0000 C   0  0  0  0  0  0  0  0  0  0  0  0
    2.7300   -3.4031    0.0000 C   0  0  0  0  0  0  0  0  0  0  0  0
   -7.6703   -0.4312    0.0000 C   0  0  0  0  0  0  0  0  0  0  0  0
   -8.3734    0.8939    0.0000 C   0  0  0  0  0  0  0  0  0  0  0  0
  1  2  1  0
  2  3  1  0
  3  4  1  0
  4  5  2  0
  5  6  1  0
  6  7  2  0
  7  8  1  0
  8  9  1  0
  9 10  1  0
 10 11  2  0
 10 12  1  0
 12 13  2  0
 13 14  1  0
 14 15  2  0
 15 16  1  0
 16 17  2  0
 16 18  1  0
 18 19  1  0
 19 20  1  0
 20 21  2  0
 20 22  1  0
 22 23  2  0
 23 24  1  0
 24 25  2  0
 25 26  1  0
 26 27  2  0
 27 28  1  0
 28 29  2  0
 29 30  1  0
 30 31  2  0
 19 32  1  0
 32 33  1  0
  7 34  1  0
 34 35  2  0
 35  4  1  0
 17 12  1  0
 31 22  1  0
 33 15  1  0
 31 26  1  0
M  END
>  <Compound_ID>  (38) 
LIB038

>  <SMILES>  (38) 
CCOc1ccc(CNC(=O)c2ccc3c(n2)CN(C(=O)c2cccc4ccccc24)CC3)cc1

>  <R1_reagent>  (38) 
O=C(Cl)c1cccc2ccccc12

>  <R1_ID>  (38) 
R-008260

>  <N_reaction>  (38) 
Amidation

>  <R2_amine>  (38) 
CCOc1ccc(CN)cc1

>  <R2_ID>  (38) 
R-009128

>  <MW>  (38) 
465.6

>  <LogP>  (38) 
4.76

>  <HBD>  (38) 
1

>  <HBA>  (38) 
4

>  <RotB>  (38) 
6

>  <ASMS_similarity>  (38) 
0.6912

>  <Priority_tier>  (38) 
Tier2_medium

>  <Scaffold>  (38) 
OC(=O)c1ccc2CCNCc2n1

$$$$

     RDKit          2D

 29 32  0  0  0  0  0  0  0  0999 V2000
  -10.8545   -1.4634    0.0000 C   0  0  0  0  0  0  0  0  0  0  0  0
   -9.4123   -1.8756    0.0000 O   0  0  0  0  0  0  0  0  0  0  0  0
   -8.3341   -0.8326    0.0000 C   0  0  0  0  0  0  0  0  0  0  0  0
   -6.8919   -1.2448    0.0000 C   0  0  0  0  0  0  0  0  0  0  0  0
   -5.8138   -0.2019    0.0000 N   0  0  0  0  0  0  0  0  0  0  0  0
   -4.3715   -0.6141    0.0000 C   0  0  0  0  0  0  0  0  0  0  0  0
   -4.0074   -2.0692    0.0000 O   0  0  0  0  0  0  0  0  0  0  0  0
   -3.2934    0.4288    0.0000 C   0  0  0  0  0  0  0  0  0  0  0  0
   -3.6576    1.8839    0.0000 C   0  0  0  0  0  0  0  0  0  0  0  0
   -2.5795    2.9269    0.0000 C   0  0  0  0  0  0  0  0  0  0  0  0
   -1.1372    2.5147    0.0000 C   0  0  0  0  0  0  0  0  0  0  0  0
   -0.7731    1.0595    0.0000 C   0  0  0  0  0  0  0  0  0  0  0  0
   -1.8512    0.0166    0.0000 N   0  0  0  0  0  0  0  0  0  0  0  0
    0.6692    0.6473    0.0000 C   0  0  0  0  0  0  0  0  0  0  0  0
    1.7473    1.6903    0.0000 N   0  0  0  0  0  0  0  0  0  0  0  0
    3.1895    1.2781    0.0000 C   0  0  0  0  0  0  0  0  0  0  0  0
    4.2676    2.3210    0.0000 O   0  0  0  0  0  0  0  0  0  0  0  0
    3.5537   -0.1771    0.0000 C   0  0  0  0  0  0  0  0  0  0  0  0
    2.4756   -1.2200    0.0000 C   0  0  0  0  0  0  0  0  0  0  0  0
    2.8397   -2.6751    0.0000 C   0  0  0  0  0  0  0  0  0  0  0  0
    4.2820   -3.0873    0.0000 C   0  0  0  0  0  0  0  0  0  0  0  0
    5.3601   -2.0444    0.0000 C   0  0  0  0  0  0  0  0  0  0  0  0
    6.8023   -2.4566    0.0000 C   0  0  0  0  0  0  0  0  0  0  0  0
    7.8804   -1.4137    0.0000 C   0  0  0  0  0  0  0  0  0  0  0  0
    7.5163    0.0414    0.0000 C   0  0  0  0  0  0  0  0  0  0  0  0
    6.0740    0.4536    0.0000 C   0  0  0  0  0  0  0  0  0  0  0  0
    4.9959   -0.5893    0.0000 C   0  0  0  0  0  0  0  0  0  0  0  0
    1.3831    3.1454    0.0000 C   0  0  0  0  0  0  0  0  0  0  0  0
   -0.0591    3.5576    0.0000 C   0  0  0  0  0  0  0  0  0  0  0  0
  1  2  1  0
  2  3  1  0
  3  4  1  0
  4  5  1  0
  5  6  1  0
  6  7  2  0
  6  8  1  0
  8  9  2  0
  9 10  1  0
 10 11  2  0
 11 12  1  0
 12 13  2  0
 12 14  1  0
 14 15  1  0
 15 16  1  0
 16 17  2  0
 16 18  1  0
 18 19  2  0
 19 20  1  0
 20 21  2  0
 21 22  1  0
 22 23  2  0
 23 24  1  0
 24 25  2  0
 25 26  1  0
 26 27  2  0
 15 28  1  0
 28 29  1  0
 13  8  1  0
 27 18  1  0
 29 11  1  0
 27 22  1  0
M  END
>  <Compound_ID>  (39) 
LIB039

>  <SMILES>  (39) 
COCCNC(=O)c1ccc2c(n1)CN(C(=O)c1cccc3ccccc13)CC2

>  <R1_reagent>  (39) 
O=C(Cl)c1cccc2ccccc12

>  <R1_ID>  (39) 
R-008260

>  <N_reaction>  (39) 
Amidation

>  <R2_amine>  (39) 
COCCN

>  <R2_ID>  (39) 
R-005403

>  <MW>  (39) 
389.5

>  <LogP>  (39) 
2.81

>  <HBD>  (39) 
1

>  <HBA>  (39) 
4

>  <RotB>  (39) 
5

>  <ASMS_similarity>  (39) 
0.6875

>  <Priority_tier>  (39) 
Tier2_medium

>  <Scaffold>  (39) 
OC(=O)c1ccc2CCNCc2n1

$$$$

     RDKit          2D

 33 36  0  0  0  0  0  0  0  0999 V2000
   -9.5613    0.2282    0.0000 C   0  0  0  0  0  0  0  0  0  0  0  0
   -8.1317   -0.2259    0.0000 O   0  0  0  0  0  0  0  0  0  0  0  0
   -7.0237    0.7852    0.0000 C   0  0  0  0  0  0  0  0  0  0  0  0
   -7.3452    2.2503    0.0000 C   0  0  0  0  0  0  0  0  0  0  0  0
   -6.2372    3.2614    0.0000 C   0  0  0  0  0  0  0  0  0  0  0  0
   -4.8076    2.8073    0.0000 C   0  0  0  0  0  0  0  0  0  0  0  0
   -3.6995    3.8184    0.0000 F   0  0  0  0  0  0  0  0  0  0  0  0
   -4.4860    1.3422    0.0000 C   0  0  0  0  0  0  0  0  0  0  0  0
   -5.5940    0.3311    0.0000 C   0  0  0  0  0  0  0  0  0  0  0  0
   -5.2725   -1.1340    0.0000 C   0  0  0  0  0  0  0  0  0  0  0  0
   -6.3805   -2.1451    0.0000 O   0  0  0  0  0  0  0  0  0  0  0  0
   -3.8428   -1.5881    0.0000 N   0  0  0  0  0  0  0  0  0  0  0  0
   -3.5212   -3.0532    0.0000 C   0  0  0  0  0  0  0  0  0  0  0  0
   -2.0916   -3.5072    0.0000 C   0  0  0  0  0  0  0  0  0  0  0  0
   -0.9836   -2.4962    0.0000 C   0  0  0  0  0  0  0  0  0  0  0  0
    0.4461   -2.9502    0.0000 C   0  0  0  0  0  0  0  0  0  0  0  0
    1.5541   -1.9392    0.0000 C   0  0  0  0  0  0  0  0  0  0  0  0
    1.2325   -0.4741    0.0000 C   0  0  0  0  0  0  0  0  0  0  0  0
    2.3405    0.5370    0.0000 C   0  0  0  0  0  0  0  0  0  0  0  0
    2.0190    2.0021    0.0000 O   0  0  0  0  0  0  0  0  0  0  0  0
    3.7702    0.0829    0.0000 N   0  0  0  0  0  0  0  0  0  0  0  0
    4.8782    1.0940    0.0000 C   0  0  0  0  0  0  0  0  0  0  0  0
    6.3078    0.6399    0.0000 C   0  0  0  0  0  0  0  0  0  0  0  0
    6.6294   -0.8252    0.0000 C   0  0  0  0  0  0  0  0  0  0  0  0
    8.0590   -1.2792    0.0000 C   0  0  0  0  0  0  0  0  0  0  0  0
    9.1671   -0.2682    0.0000 C   0  0  0  0  0  0  0  0  0  0  0  0
   10.5967   -0.7222    0.0000 C   0  0  0  0  0  0  0  0  0  0  0  0
    8.8455    1.1969    0.0000 C   0  0  0  0  0  0  0  0  0  0  0  0
    9.9535    2.2080    0.0000 C   0  0  0  0  0  0  0  0  0  0  0  0
    7.4159    1.6510    0.0000 C   0  0  0  0  0  0  0  0  0  0  0  0
   -0.1971   -0.0200    0.0000 N   0  0  0  0  0  0  0  0  0  0  0  0
   -1.3052   -1.0311    0.0000 C   0  0  0  0  0  0  0  0  0  0  0  0
   -2.7348   -0.5770    0.0000 C   0  0  0  0  0  0  0  0  0  0  0  0
  1  2  1  0
  2  3  1  0
  3  4  2  0
  4  5  1  0
  5  6  2  0
  6  7  1  0
  6  8  1  0
  8  9  2  0
  9 10  1  0
 10 11  2  0
 10 12  1  0
 12 13  1  0
 13 14  1  0
 14 15  1  0
 15 16  2  0
 16 17  1  0
 17 18  2  0
 18 19  1  0
 19 20  2  0
 19 21  1  0
 21 22  1  0
 22 23  1  0
 23 24  2  0
 24 25  1  0
 25 26  2  0
 26 27  1  0
 26 28  1  0
 28 29  1  0
 28 30  2  0
 18 31  1  0
 31 32  2  0
 32 33  1  0
  9  3  1  0
 33 12  1  0
 32 15  1  0
 30 23  1  0
M  END
>  <Compound_ID>  (40) 
LIB040

>  <SMILES>  (40) 
COc1ccc(F)cc1C(=O)N1CCc2ccc(C(=O)NCc3ccc(C)c(C)c3)nc2C1

>  <R1_reagent>  (40) 
COc1ccc(F)cc1C(=O)O

>  <R1_ID>  (40) 
R-008725

>  <N_reaction>  (40) 
Amidation

>  <R2_amine>  (40) 
Cc1ccc(CN)cc1C

>  <R2_ID>  (40) 
R-008930

>  <MW>  (40) 
447.5

>  <LogP>  (40) 
3.97

>  <HBD>  (40) 
1

>  <HBA>  (40) 
4

>  <RotB>  (40) 
5

>  <ASMS_similarity>  (40) 
0.6849

>  <Priority_tier>  (40) 
Tier2_medium

>  <Scaffold>  (40) 
OC(=O)c1ccc2CCNCc2n1

$$$$

     RDKit          2D

 28 31  0  0  0  0  0  0  0  0999 V2000
   -6.6213   -1.1122    0.0000 O   0  0  0  0  0  0  0  0  0  0  0  0
   -5.3928   -0.2514    0.0000 C   0  0  0  0  0  0  0  0  0  0  0  0
   -5.5241    1.2428    0.0000 N   0  0  0  0  0  0  0  0  0  0  0  0
   -6.8838    1.8763    0.0000 C   0  0  0  0  0  0  0  0  0  0  0  0
   -8.3780    1.7450    0.0000 C   0  0  0  0  0  0  0  0  0  0  0  0
   -7.7446    3.1047    0.0000 C   0  0  0  0  0  0  0  0  0  0  0  0
   -4.0332   -0.8849    0.0000 C   0  0  0  0  0  0  0  0  0  0  0  0
   -3.9019   -2.3791    0.0000 C   0  0  0  0  0  0  0  0  0  0  0  0
   -2.5422   -3.0126    0.0000 C   0  0  0  0  0  0  0  0  0  0  0  0
   -1.3138   -2.1518    0.0000 C   0  0  0  0  0  0  0  0  0  0  0  0
   -1.4451   -0.6575    0.0000 C   0  0  0  0  0  0  0  0  0  0  0  0
   -2.8047   -0.0241    0.0000 N   0  0  0  0  0  0  0  0  0  0  0  0
   -0.2166    0.2033    0.0000 C   0  0  0  0  0  0  0  0  0  0  0  0
    1.1431   -0.4302    0.0000 N   0  0  0  0  0  0  0  0  0  0  0  0
    2.3715    0.4306    0.0000 C   0  0  0  0  0  0  0  0  0  0  0  0
    2.2402    1.9249    0.0000 O   0  0  0  0  0  0  0  0  0  0  0  0
    3.7312   -0.2028    0.0000 C   0  0  0  0  0  0  0  0  0  0  0  0
    3.8624   -1.6970    0.0000 N   0  0  0  0  0  0  0  0  0  0  0  0
    5.2221   -2.3305    0.0000 C   0  0  0  0  0  0  0  0  0  0  0  0
    6.4505   -1.4697    0.0000 C   0  0  0  0  0  0  0  0  0  0  0  0
    6.3193    0.0246    0.0000 C   0  0  0  0  0  0  0  0  0  0  0  0
    4.9596    0.6580    0.0000 C   0  0  0  0  0  0  0  0  0  0  0  0
    4.8283    2.1522    0.0000 C   0  0  0  0  0  0  0  0  0  0  0  0
    4.6971    3.6465    0.0000 F   0  0  0  0  0  0  0  0  0  0  0  0
    6.3226    2.2835    0.0000 F   0  0  0  0  0  0  0  0  0  0  0  0
    3.3341    2.0210    0.0000 F   0  0  0  0  0  0  0  0  0  0  0  0
    1.2743   -1.9244    0.0000 C   0  0  0  0  0  0  0  0  0  0  0  0
    0.0459   -2.7852    0.0000 C   0  0  0  0  0  0  0  0  0  0  0  0
  1  2  2  0
  2  3  1  0
  3  4  1  0
  4  5  1  0
  5  6  1  0
  2  7  1  0
  7  8  2  0
  8  9  1  0
  9 10  2  0
 10 11  1  0
 11 12  2  0
 11 13  1  0
 13 14  1  0
 14 15  1  0
 15 16  2  0
 15 17  1  0
 17 18  2  0
 18 19  1  0
 19 20  2  0
 20 21  1  0
 21 22  2  0
 22 23  1  0
 23 24  1  0
 23 25  1  0
 23 26  1  0
 14 27  1  0
 27 28  1  0
  6  4  1  0
 12  7  1  0
 22 17  1  0
 28 10  1  0
M  END
>  <Compound_ID>  (41) 
LIB041

>  <SMILES>  (41) 
O=C(NC1CC1)c1ccc2c(n1)CN(C(=O)c1ncccc1C(F)(F)F)CC2

>  <R1_reagent>  (41) 
O=C(O)c1ncccc1C(F)(F)F

>  <R1_ID>  (41) 
R-008789

>  <N_reaction>  (41) 
Amidation

>  <R2_amine>  (41) 
NC1CC1

>  <R2_ID>  (41) 
R-004669

>  <MW>  (41) 
390.4

>  <LogP>  (41) 
2.59

>  <HBD>  (41) 
1

>  <HBA>  (41) 
4

>  <RotB>  (41) 
3

>  <ASMS_similarity>  (41) 
0.6818

>  <Priority_tier>  (41) 
Tier2_medium

>  <Scaffold>  (41) 
OC(=O)c1ccc2CCNCc2n1

$$$$

     RDKit          2D

 34 37  0  0  0  0  0  0  0  0999 V2000
  -10.2375    0.5150    0.0000 C   0  0  0  0  0  0  0  0  0  0  0  0
   -8.7651    0.2282    0.0000 O   0  0  0  0  0  0  0  0  0  0  0  0
   -7.7806    1.3599    0.0000 C   0  0  0  0  0  0  0  0  0  0  0  0
   -8.2684    2.7784    0.0000 C   0  0  0  0  0  0  0  0  0  0  0  0
   -7.2838    3.9101    0.0000 C   0  0  0  0  0  0  0  0  0  0  0  0
   -5.8115    3.6233    0.0000 C   0  0  0  0  0  0  0  0  0  0  0  0
   -5.3237    2.2048    0.0000 C   0  0  0  0  0  0  0  0  0  0  0  0
   -6.3083    1.0731    0.0000 C   0  0  0  0  0  0  0  0  0  0  0  0
   -5.8205   -0.3454    0.0000 C   0  0  0  0  0  0  0  0  0  0  0  0
   -4.3481   -0.6322    0.0000 N   0  0  0  0  0  0  0  0  0  0  0  0
   -3.8604   -2.0506    0.0000 C   0  0  0  0  0  0  0  0  0  0  0  0
   -4.8449   -3.1823    0.0000 O   0  0  0  0  0  0  0  0  0  0  0  0
   -2.3880   -2.3374    0.0000 C   0  0  0  0  0  0  0  0  0  0  0  0
   -1.9002   -3.7559    0.0000 C   0  0  0  0  0  0  0  0  0  0  0  0
   -0.4279   -4.0427    0.0000 C   0  0  0  0  0  0  0  0  0  0  0  0
    0.5566   -2.9110    0.0000 C   0  0  0  0  0  0  0  0  0  0  0  0
    0.0688   -1.4926    0.0000 C   0  0  0  0  0  0  0  0  0  0  0  0
   -1.4035   -1.2058    0.0000 N   0  0  0  0  0  0  0  0  0  0  0  0
    1.0534   -0.3609    0.0000 C   0  0  0  0  0  0  0  0  0  0  0  0
    2.5257   -0.6477    0.0000 N   0  0  0  0  0  0  0  0  0  0  0  0
    3.5102    0.4840    0.0000 C   0  0  0  0  0  0  0  0  0  0  0  0
    3.0225    1.9025    0.0000 O   0  0  0  0  0  0  0  0  0  0  0  0
    4.9826    0.1972    0.0000 C   0  0  0  0  0  0  0  0  0  0  0  0
    5.4704   -1.2213    0.0000 C   0  0  0  0  0  0  0  0  0  0  0  0
    6.9427   -1.5081    0.0000 C   0  0  0  0  0  0  0  0  0  0  0  0
    7.9272   -0.3764    0.0000 C   0  0  0  0  0  0  0  0  0  0  0  0
    7.4394    1.0421    0.0000 C   0  0  0  0  0  0  0  0  0  0  0  0
    8.4240    2.1737    0.0000 O   0  0  0  0  0  0  0  0  0  0  0  0
    9.8963    1.8869    0.0000 C   0  0  0  0  0  0  0  0  0  0  0  0
    5.9671    1.3289    0.0000 C   0  0  0  0  0  0  0  0  0  0  0  0
    5.4793    2.7473    0.0000 O   0  0  0  0  0  0  0  0  0  0  0  0
    6.4639    3.8790    0.0000 C   0  0  0  0  0  0  0  0  0  0  0  0
    3.0135   -2.0662    0.0000 C   0  0  0  0  0  0  0  0  0  0  0  0
    2.0289   -3.1978    0.0000 C   0  0  0  0  0  0  0  0  0  0  0  0
  1  2  1  0
  2  3  1  0
  3  4  2  0
  4  5  1  0
  5  6  2  0
  6  7  1  0
  7  8  2  0
  8  9  1  0
  9 10  1  0
 10 11  1  0
 11 12  2  0
 11 13  1  0
 13 14  2  0
 14 15  1  0
 15 16  2  0
 16 17  1  0
 17 18  2  0
 17 19  1  0
 19 20  1  0
 20 21  1  0
 21 22  2  0
 21 23  1  0
 23 24  2  0
 24 25  1  0
 25 26  2  0
 26 27  1  0
 27 28  1  0
 28 29  1  0
 27 30  2  0
 30 31  1  0
 31 32  1  0
 20 33  1  0
 33 34  1  0
  8  3  1  0
 18 13  1  0
 30 23  1  0
 34 16  1  0
M  END
>  <Compound_ID>  (42) 
LIB042

>  <SMILES>  (42) 
COc1ccccc1CNC(=O)c1ccc2c(n1)CN(C(=O)c1cccc(OC)c1OC)CC2

>  <R1_reagent>  (42) 
COc1cccc(C(=O)O)c1OC

>  <R1_ID>  (42) 
R-004876

>  <N_reaction>  (42) 
Amidation

>  <R2_amine>  (42) 
COc1ccccc1CN

>  <R2_ID>  (42) 
R-003963

>  <MW>  (42) 
461.5

>  <LogP>  (42) 
3.24

>  <HBD>  (42) 
1

>  <HBA>  (42) 
6

>  <RotB>  (42) 
7

>  <ASMS_similarity>  (42) 
0.6765

>  <Priority_tier>  (42) 
Tier2_medium

>  <Scaffold>  (42) 
OC(=O)c1ccc2CCNCc2n1

$$$$

     RDKit          2D

 29 32  0  0  0  0  0  0  0  0999 V2000
   -9.7181    1.7287    0.0000 C   0  0  0  0  0  0  0  0  0  0  0  0
   -8.2593    1.3793    0.0000 N   0  0  0  0  0  0  0  0  0  0  0  0
   -7.2274    2.4680    0.0000 C   0  0  0  0  0  0  0  0  0  0  0  0
   -5.7686    2.1186    0.0000 C   0  0  0  0  0  0  0  0  0  0  0  0
   -5.3418    0.6806    0.0000 C   0  0  0  0  0  0  0  0  0  0  0  0
   -3.8831    0.3312    0.0000 N   0  0  0  0  0  0  0  0  0  0  0  0
   -3.4563   -1.1068    0.0000 C   0  0  0  0  0  0  0  0  0  0  0  0
   -4.4882   -2.1954    0.0000 O   0  0  0  0  0  0  0  0  0  0  0  0
   -1.9976   -1.4562    0.0000 C   0  0  0  0  0  0  0  0  0  0  0  0
   -1.5707   -2.8941    0.0000 C   0  0  0  0  0  0  0  0  0  0  0  0
   -0.1120   -3.2435    0.0000 C   0  0  0  0  0  0  0  0  0  0  0  0
    0.9199   -2.1549    0.0000 C   0  0  0  0  0  0  0  0  0  0  0  0
    0.4931   -0.7169    0.0000 C   0  0  0  0  0  0  0  0  0  0  0  0
   -0.9656   -0.3675    0.0000 N   0  0  0  0  0  0  0  0  0  0  0  0
    1.5251    0.3717    0.0000 C   0  0  0  0  0  0  0  0  0  0  0  0
    2.9838    0.0223    0.0000 N   0  0  0  0  0  0  0  0  0  0  0  0
    4.0158    1.1110    0.0000 C   0  0  0  0  0  0  0  0  0  0  0  0
    3.5890    2.5490    0.0000 O   0  0  0  0  0  0  0  0  0  0  0  0
    5.4745    0.7616    0.0000 C   0  0  0  0  0  0  0  0  0  0  0  0
    5.9013   -0.6764    0.0000 N   0  0  0  0  0  0  0  0  0  0  0  0
    7.3601   -1.0258    0.0000 C   0  0  0  0  0  0  0  0  0  0  0  0
    8.3920    0.0628    0.0000 C   0  0  0  0  0  0  0  0  0  0  0  0
    7.9652    1.5008    0.0000 C   0  0  0  0  0  0  0  0  0  0  0  0
    6.5064    1.8502    0.0000 C   0  0  0  0  0  0  0  0  0  0  0  0
    6.0796    3.2882    0.0000 F   0  0  0  0  0  0  0  0  0  0  0  0
    3.4106   -1.4157    0.0000 C   0  0  0  0  0  0  0  0  0  0  0  0
    2.3787   -2.5043    0.0000 C   0  0  0  0  0  0  0  0  0  0  0  0
   -6.3738   -0.4080    0.0000 C   0  0  0  0  0  0  0  0  0  0  0  0
   -7.8325   -0.0586    0.0000 C   0  0  0  0  0  0  0  0  0  0  0  0
  1  2  1  0
  2  3  1  0
  3  4  1  0
  4  5  1  0
  5  6  1  0
  6  7  1  0
  7  8  2  0
  7  9  1  0
  9 10  2  0
 10 11  1  0
 11 12  2  0
 12 13  1  0
 13 14  2  0
 13 15  1  0
 15 16  1  0
 16 17  1  0
 17 18  2  0
 17 19  1  0
 19 20  2  0
 20 21  1  0
 21 22  2  0
 22 23  1  0
 23 24  2  0
 24 25  1  0
 16 26  1  0
 26 27  1  0
  5 28  1  0
 28 29  1  0
 29  2  1  0
 14  9  1  0
 24 19  1  0
 27 12  1  0
M  END
>  <Compound_ID>  (43) 
LIB043

>  <SMILES>  (43) 
CN1CCC(NC(=O)c2ccc3c(n2)CN(C(=O)c2ncccc2F)CC3)CC1

>  <R1_reagent>  (43) 
O=C(O)c1ncccc1F

>  <R1_ID>  (43) 
R-011410

>  <N_reaction>  (43) 
Amidation

>  <R2_amine>  (43) 
CN1CCC(N)CC1

>  <R2_ID>  (43) 
R-000447

>  <MW>  (43) 
397.5

>  <LogP>  (43) 
1.64

>  <HBD>  (43) 
1

>  <HBA>  (43) 
5

>  <RotB>  (43) 
3

>  <ASMS_similarity>  (43) 
0.6716

>  <Priority_tier>  (43) 
Tier2_medium

>  <Scaffold>  (43) 
OC(=O)c1ccc2CCNCc2n1

$$$$

     RDKit          2D

 30 33  0  0  0  0  0  0  0  0999 V2000
   -5.9488   -1.6903    0.0000 O   0  0  0  0  0  0  0  0  0  0  0  0
   -4.7804   -0.7496    0.0000 C   0  0  0  0  0  0  0  0  0  0  0  0
   -5.0108    0.7326    0.0000 N   0  0  0  0  0  0  0  0  0  0  0  0
   -6.4096    1.2741    0.0000 C   0  0  0  0  0  0  0  0  0  0  0  0
   -7.6700    0.4607    0.0000 C   0  0  0  0  0  0  0  0  0  0  0  0
   -8.8330    1.4080    0.0000 C   0  0  0  0  0  0  0  0  0  0  0  0
   -8.2915    2.8069    0.0000 C   0  0  0  0  0  0  0  0  0  0  0  0
   -6.7937    2.7241    0.0000 C   0  0  0  0  0  0  0  0  0  0  0  0
   -3.3815   -1.2911    0.0000 C   0  0  0  0  0  0  0  0  0  0  0  0
   -3.1511   -2.7733    0.0000 C   0  0  0  0  0  0  0  0  0  0  0  0
   -1.7522   -3.3149    0.0000 C   0  0  0  0  0  0  0  0  0  0  0  0
   -0.5839   -2.3742    0.0000 C   0  0  0  0  0  0  0  0  0  0  0  0
   -0.8143   -0.8920    0.0000 C   0  0  0  0  0  0  0  0  0  0  0  0
   -2.2131   -0.3505    0.0000 N   0  0  0  0  0  0  0  0  0  0  0  0
    0.3541    0.0486    0.0000 C   0  0  0  0  0  0  0  0  0  0  0  0
    1.7529   -0.4929    0.0000 N   0  0  0  0  0  0  0  0  0  0  0  0
    2.9213    0.4478    0.0000 C   0  0  0  0  0  0  0  0  0  0  0  0
    2.6909    1.9300    0.0000 O   0  0  0  0  0  0  0  0  0  0  0  0
    4.3202   -0.0938    0.0000 C   0  0  0  0  0  0  0  0  0  0  0  0
    4.5506   -1.5759    0.0000 N   0  0  0  0  0  0  0  0  0  0  0  0
    5.9495   -2.1175    0.0000 C   0  0  0  0  0  0  0  0  0  0  0  0
    7.1179   -1.1768    0.0000 C   0  0  0  0  0  0  0  0  0  0  0  0
    6.8874    0.3054    0.0000 C   0  0  0  0  0  0  0  0  0  0  0  0
    5.4886    0.8469    0.0000 C   0  0  0  0  0  0  0  0  0  0  0  0
    5.2581    2.3291    0.0000 C   0  0  0  0  0  0  0  0  0  0  0  0
    5.0277    3.8113    0.0000 F   0  0  0  0  0  0  0  0  0  0  0  0
    6.7403    2.5595    0.0000 F   0  0  0  0  0  0  0  0  0  0  0  0
    3.7759    2.0987    0.0000 F   0  0  0  0  0  0  0  0  0  0  0  0
    1.9834   -1.9751    0.0000 C   0  0  0  0  0  0  0  0  0  0  0  0
    0.8150   -2.9157    0.0000 C   0  0  0  0  0  0  0  0  0  0  0  0
  1  2  2  0
  2  3  1  0
  3  4  1  0
  4  5  1  0
  5  6  1  0
  6  7  1  0
  7  8  1  0
  2  9  1  0
  9 10  2  0
 10 11  1  0
 11 12  2  0
 12 13  1  0
 13 14  2  0
 13 15  1  0
 15 16  1  0
 16 17  1  0
 17 18  2  0
 17 19  1  0
 19 20  2  0
 20 21  1  0
 21 22  2  0
 22 23  1  0
 23 24  2  0
 24 25  1  0
 25 26  1  0
 25 27  1  0
 25 28  1  0
 16 29  1  0
 29 30  1  0
  8  4  1  0
 14  9  1  0
 24 19  1  0
 30 12  1  0
M  END
>  <Compound_ID>  (44) 
LIB044

>  <SMILES>  (44) 
O=C(NC1CCCC1)c1ccc2c(n1)CN(C(=O)c1ncccc1C(F)(F)F)CC2

>  <R1_reagent>  (44) 
O=C(O)c1ncccc1C(F)(F)F

>  <R1_ID>  (44) 
R-008789

>  <N_reaction>  (44) 
Amidation

>  <R2_amine>  (44) 
NC1CCCC1

>  <R2_ID>  (44) 
R-004298

>  <MW>  (44) 
418.4

>  <LogP>  (44) 
3.37

>  <HBD>  (44) 
1

>  <HBA>  (44) 
4

>  <RotB>  (44) 
3

>  <ASMS_similarity>  (44) 
0.6716

>  <Priority_tier>  (44) 
Tier2_medium

>  <Scaffold>  (44) 
OC(=O)c1ccc2CCNCc2n1

$$$$

     RDKit          2D

 35 38  0  0  0  0  0  0  0  0999 V2000
  -10.1216    0.6640    0.0000 C   0  0  0  0  0  0  0  0  0  0  0  0
   -8.7254    0.1159    0.0000 O   0  0  0  0  0  0  0  0  0  0  0  0
   -7.5525    1.0510    0.0000 C   0  0  0  0  0  0  0  0  0  0  0  0
   -7.7760    2.5343    0.0000 C   0  0  0  0  0  0  0  0  0  0  0  0
   -6.6031    3.4694    0.0000 C   0  0  0  0  0  0  0  0  0  0  0  0
   -5.2069    2.9213    0.0000 C   0  0  0  0  0  0  0  0  0  0  0  0
   -4.0341    3.8564    0.0000 F   0  0  0  0  0  0  0  0  0  0  0  0
   -4.9834    1.4380    0.0000 C   0  0  0  0  0  0  0  0  0  0  0  0
   -6.1563    0.5029    0.0000 C   0  0  0  0  0  0  0  0  0  0  0  0
   -5.9328   -0.9804    0.0000 C   0  0  0  0  0  0  0  0  0  0  0  0
   -7.1057   -1.9155    0.0000 O   0  0  0  0  0  0  0  0  0  0  0  0
   -4.5366   -1.5285    0.0000 N   0  0  0  0  0  0  0  0  0  0  0  0
   -4.3131   -3.0118    0.0000 C   0  0  0  0  0  0  0  0  0  0  0  0
   -2.9169   -3.5599    0.0000 C   0  0  0  0  0  0  0  0  0  0  0  0
   -1.7441   -2.6248    0.0000 C   0  0  0  0  0  0  0  0  0  0  0  0
   -0.3478   -3.1729    0.0000 C   0  0  0  0  0  0  0  0  0  0  0  0
    0.8250   -2.2378    0.0000 C   0  0  0  0  0  0  0  0  0  0  0  0
    0.6016   -0.7545    0.0000 C   0  0  0  0  0  0  0  0  0  0  0  0
    1.7744    0.1806    0.0000 C   0  0  0  0  0  0  0  0  0  0  0  0
    1.5510    1.6639    0.0000 O   0  0  0  0  0  0  0  0  0  0  0  0
    3.1707   -0.3675    0.0000 N   0  0  0  0  0  0  0  0  0  0  0  0
    4.3435    0.5676    0.0000 C   0  0  0  0  0  0  0  0  0  0  0  0
    5.7398    0.0195    0.0000 C   0  0  0  0  0  0  0  0  0  0  0  0
    5.9632   -1.4638    0.0000 C   0  0  0  0  0  0  0  0  0  0  0  0
    7.3595   -2.0119    0.0000 C   0  0  0  0  0  0  0  0  0  0  0  0
    8.5323   -1.0768    0.0000 C   0  0  0  0  0  0  0  0  0  0  0  0
    8.3089    0.4065    0.0000 C   0  0  0  0  0  0  0  0  0  0  0  0
    9.4817    1.3416    0.0000 C   0  0  0  0  0  0  0  0  0  0  0  0
   10.6545    2.2767    0.0000 F   0  0  0  0  0  0  0  0  0  0  0  0
   10.4168    0.1688    0.0000 F   0  0  0  0  0  0  0  0  0  0  0  0
    8.5466    2.5144    0.0000 F   0  0  0  0  0  0  0  0  0  0  0  0
    6.9126    0.9546    0.0000 C   0  0  0  0  0  0  0  0  0  0  0  0
   -0.7947   -0.2064    0.0000 N   0  0  0  0  0  0  0  0  0  0  0  0
   -1.9675   -1.1415    0.0000 C   0  0  0  0  0  0  0  0  0  0  0  0
   -3.3638   -0.5934    0.0000 C   0  0  0  0  0  0  0  0  0  0  0  0
  1  2  1  0
  2  3  1  0
  3  4  2  0
  4  5  1  0
  5  6  2  0
  6  7  1  0
  6  8  1  0
  8  9  2  0
  9 10  1  0
 10 11  2  0
 10 12  1  0
 12 13  1  0
 13 14  1  0
 14 15  1  0
 15 16  2  0
 16 17  1  0
 17 18  2  0
 18 19  1  0
 19 20  2  0
 19 21  1  0
 21 22  1  0
 22 23  1  0
 23 24  2  0
 24 25  1  0
 25 26  2  0
 26 27  1  0
 27 28  1  0
 28 29  1  0
 28 30  1  0
 28 31  1  0
 27 32  2  0
 18 33  1  0
 33 34  2  0
 34 35  1  0
  9  3  1  0
 35 12  1  0
 34 15  1  0
 32 23  1  0
M  END
>  <Compound_ID>  (45) 
LIB045

>  <SMILES>  (45) 
COc1ccc(F)cc1C(=O)N1CCc2ccc(C(=O)NCc3cccc(C(F)(F)F)c3)nc2C1

>  <R1_reagent>  (45) 
COc1ccc(F)cc1C(=O)O

>  <R1_ID>  (45) 
R-008725

>  <N_reaction>  (45) 
Amidation

>  <R2_amine>  (45) 
NCc1cccc(C(F)(F)F)c1

>  <R2_ID>  (45) 
R-002810

>  <MW>  (45) 
487.5

>  <LogP>  (45) 
4.38

>  <HBD>  (45) 
1

>  <HBA>  (45) 
4

>  <RotB>  (45) 
5

>  <ASMS_similarity>  (45) 
0.6709

>  <Priority_tier>  (45) 
Tier2_medium

>  <Scaffold>  (45) 
OC(=O)c1ccc2CCNCc2n1

$$$$

     RDKit          2D

 33 36  0  0  0  0  0  0  0  0999 V2000
  -11.4720    3.8189    0.0000 C   0  0  0  0  0  0  0  0  0  0  0  0
  -10.9540    2.4111    0.0000 C   0  0  0  0  0  0  0  0  0  0  0  0
   -9.4759    2.1559    0.0000 O   0  0  0  0  0  0  0  0  0  0  0  0
   -8.9579    0.7481    0.0000 C   0  0  0  0  0  0  0  0  0  0  0  0
   -9.9180   -0.4043    0.0000 O   0  0  0  0  0  0  0  0  0  0  0  0
   -7.4798    0.4928    0.0000 N   0  0  0  0  0  0  0  0  0  0  0  0
   -6.5196    1.6453    0.0000 C   0  0  0  0  0  0  0  0  0  0  0  0
   -5.0415    1.3900    0.0000 C   0  0  0  0  0  0  0  0  0  0  0  0
   -4.5235   -0.0177    0.0000 C   0  0  0  0  0  0  0  0  0  0  0  0
   -3.0454   -0.2730    0.0000 N   0  0  0  0  0  0  0  0  0  0  0  0
   -2.5275   -1.6807    0.0000 C   0  0  0  0  0  0  0  0  0  0  0  0
   -3.4876   -2.8332    0.0000 O   0  0  0  0  0  0  0  0  0  0  0  0
   -1.0493   -1.9360    0.0000 C   0  0  0  0  0  0  0  0  0  0  0  0
   -0.5314   -3.3437    0.0000 C   0  0  0  0  0  0  0  0  0  0  0  0
    0.9468   -3.5990    0.0000 C   0  0  0  0  0  0  0  0  0  0  0  0
    1.9069   -2.4466    0.0000 C   0  0  0  0  0  0  0  0  0  0  0  0
    1.3889   -1.0388    0.0000 C   0  0  0  0  0  0  0  0  0  0  0  0
   -0.0892   -0.7835    0.0000 N   0  0  0  0  0  0  0  0  0  0  0  0
    2.3491    0.1136    0.0000 C   0  0  0  0  0  0  0  0  0  0  0  0
    3.8272   -0.1417    0.0000 N   0  0  0  0  0  0  0  0  0  0  0  0
    4.7873    1.0108    0.0000 C   0  0  0  0  0  0  0  0  0  0  0  0
    6.2654    0.7555    0.0000 C   0  0  0  0  0  0  0  0  0  0  0  0
    7.2256    1.9080    0.0000 C   0  0  0  0  0  0  0  0  0  0  0  0
    8.7037    1.6527    0.0000 C   0  0  0  0  0  0  0  0  0  0  0  0
    9.2217    0.2450    0.0000 C   0  0  0  0  0  0  0  0  0  0  0  0
   10.6998   -0.0103    0.0000 C   0  0  0  0  0  0  0  0  0  0  0  0
   11.6599    1.1421    0.0000 C   0  0  0  0  0  0  0  0  0  0  0  0
   11.1419    2.5499    0.0000 C   0  0  0  0  0  0  0  0  0  0  0  0
    9.6638    2.8051    0.0000 C   0  0  0  0  0  0  0  0  0  0  0  0
    4.3452   -1.5494    0.0000 C   0  0  0  0  0  0  0  0  0  0  0  0
    3.3850   -2.7018    0.0000 C   0  0  0  0  0  0  0  0  0  0  0  0
   -5.4837   -1.1702    0.0000 C   0  0  0  0  0  0  0  0  0  0  0  0
   -6.9618   -0.9149    0.0000 C   0  0  0  0  0  0  0  0  0  0  0  0
  1  2  1  0
  2  3  1  0
  3  4  1  0
  4  5  2  0
  4  6  1  0
  6  7  1  0
  7  8  1  0
  8  9  1  0
  9 10  1  0
 10 11  1  0
 11 12  2  0
 11 13  1  0
 13 14  2  0
 14 15  1  0
 15 16  2  0
 16 17  1  0
 17 18  2  0
 17 19  1  0
 19 20  1  0
 20 21  1  0
 21 22  1  0
 22 23  2  0
 23 24  1  0
 24 25  2  0
 25 26  1  0
 26 27  2  0
 27 28  1  0
 28 29  2  0
 20 30  1  0
 30 31  1  0
  9 32  1  0
 32 33  1  0
 33  6  1  0
 18 13  1  0
 29 24  1  0
 31 16  1  0
M  END
>  <Compound_ID>  (46) 
LIB046

>  <SMILES>  (46) 
CCOC(=O)N1CCC(NC(=O)c2ccc3c(n2)CN(C/C=C/c2ccccc2)CC3)CC1

>  <R1_reagent>  (46) 
O=C/C=C/c1ccccc1

>  <R1_ID>  (46) 
R-000207

>  <N_reaction>  (46) 
Reductive_amination

>  <R2_amine>  (46) 
CCOC(=O)N1CCC(N)CC1

>  <R2_ID>  (46) 
R-002204

>  <MW>  (46) 
448.6

>  <LogP>  (46) 
3.5

>  <HBD>  (46) 
1

>  <HBA>  (46) 
5

>  <RotB>  (46) 
6

>  <ASMS_similarity>  (46) 
0.6667

>  <Priority_tier>  (46) 
Tier2_medium

>  <Scaffold>  (46) 
OC(=O)c1ccc2CCNCc2n1

$$$$

     RDKit          2D

 35 38  0  0  0  0  0  0  0  0999 V2000
   -8.2794    6.0870    0.0000 C   0  0  0  0  0  0  0  0  0  0  0  0
   -7.5701    4.7653    0.0000 C   0  0  0  0  0  0  0  0  0  0  0  0
   -8.3600    3.4901    0.0000 O   0  0  0  0  0  0  0  0  0  0  0  0
   -7.6507    2.1685    0.0000 C   0  0  0  0  0  0  0  0  0  0  0  0
   -6.1514    2.1219    0.0000 C   0  0  0  0  0  0  0  0  0  0  0  0
   -5.4421    0.8002    0.0000 C   0  0  0  0  0  0  0  0  0  0  0  0
   -6.2320   -0.4749    0.0000 C   0  0  0  0  0  0  0  0  0  0  0  0
   -5.5227   -1.7966    0.0000 C   0  0  0  0  0  0  0  0  0  0  0  0
   -4.0234   -1.8432    0.0000 N   0  0  0  0  0  0  0  0  0  0  0  0
   -3.3141   -3.1648    0.0000 C   0  0  0  0  0  0  0  0  0  0  0  0
   -4.1040   -4.4400    0.0000 O   0  0  0  0  0  0  0  0  0  0  0  0
   -1.8148   -3.2114    0.0000 C   0  0  0  0  0  0  0  0  0  0  0  0
   -1.1055   -4.5331    0.0000 C   0  0  0  0  0  0  0  0  0  0  0  0
    0.3938   -4.5796    0.0000 C   0  0  0  0  0  0  0  0  0  0  0  0
    1.1837   -3.3045    0.0000 C   0  0  0  0  0  0  0  0  0  0  0  0
    0.4744   -1.9828    0.0000 C   0  0  0  0  0  0  0  0  0  0  0  0
   -1.0249   -1.9362    0.0000 N   0  0  0  0  0  0  0  0  0  0  0  0
    1.2644   -0.7077    0.0000 C   0  0  0  0  0  0  0  0  0  0  0  0
    2.7636   -0.7542    0.0000 N   0  0  0  0  0  0  0  0  0  0  0  0
    3.5536    0.5209    0.0000 C   0  0  0  0  0  0  0  0  0  0  0  0
    2.8443    1.8426    0.0000 O   0  0  0  0  0  0  0  0  0  0  0  0
    5.0529    0.4744    0.0000 C   0  0  0  0  0  0  0  0  0  0  0  0
    5.7622   -0.8473    0.0000 C   0  0  0  0  0  0  0  0  0  0  0  0
    7.2615   -0.8938    0.0000 C   0  0  0  0  0  0  0  0  0  0  0  0
    8.0514    0.3813    0.0000 C   0  0  0  0  0  0  0  0  0  0  0  0
    7.3421    1.7030    0.0000 C   0  0  0  0  0  0  0  0  0  0  0  0
    8.1320    2.9781    0.0000 O   0  0  0  0  0  0  0  0  0  0  0  0
    9.6313    2.9316    0.0000 C   0  0  0  0  0  0  0  0  0  0  0  0
    5.8428    1.7495    0.0000 C   0  0  0  0  0  0  0  0  0  0  0  0
    5.1335    3.0712    0.0000 O   0  0  0  0  0  0  0  0  0  0  0  0
    5.9234    4.3464    0.0000 C   0  0  0  0  0  0  0  0  0  0  0  0
    3.4730   -2.0759    0.0000 C   0  0  0  0  0  0  0  0  0  0  0  0
    2.6830   -3.3510    0.0000 C   0  0  0  0  0  0  0  0  0  0  0  0
   -7.7313   -0.4284    0.0000 C   0  0  0  0  0  0  0  0  0  0  0  0
   -8.4406    0.8933    0.0000 C   0  0  0  0  0  0  0  0  0  0  0  0
  1  2  1  0
  2  3  1  0
  3  4  1  0
  4  5  2  0
  5  6  1  0
  6  7  2  0
  7  8  1  0
  8  9  1  0
  9 10  1  0
 10 11  2  0
 10 12  1  0
 12 13  2  0
 13 14  1  0
 14 15  2  0
 15 16  1  0
 16 17  2  0
 16 18  1  0
 18 19  1  0
 19 20  1  0
 20 21  2  0
 20 22  1  0
 22 23  2  0
 23 24  1  0
 24 25  2  0
 25 26  1  0
 26 27  1  0
 27 28  1  0
 26 29  2  0
 29 30  1  0
 30 31  1  0
 19 32  1  0
 32 33  1  0
  7 34  1  0
 34 35  2  0
 35  4  1  0
 17 12  1  0
 29 22  1  0
 33 15  1  0
M  END
>  <Compound_ID>  (47) 
LIB047

>  <SMILES>  (47) 
CCOc1ccc(CNC(=O)c2ccc3c(n2)CN(C(=O)c2cccc(OC)c2OC)CC3)cc1

>  <R1_reagent>  (47) 
COc1cccc(C(=O)O)c1OC

>  <R1_ID>  (47) 
R-004876

>  <N_reaction>  (47) 
Amidation

>  <R2_amine>  (47) 
CCOc1ccc(CN)cc1

>  <R2_ID>  (47) 
R-009128

>  <MW>  (47) 
475.5

>  <LogP>  (47) 
3.63

>  <HBD>  (47) 
1

>  <HBA>  (47) 
6

>  <RotB>  (47) 
8

>  <ASMS_similarity>  (47) 
0.6667

>  <Priority_tier>  (47) 
Tier2_medium

>  <Scaffold>  (47) 
OC(=O)c1ccc2CCNCc2n1

$$$$

     RDKit          2D

 37 41  0  0  0  0  0  0  0  0999 V2000
   -4.7743   -3.1302    0.0000 O   0  0  0  0  0  0  0  0  0  0  0  0
   -3.8819   -1.9246    0.0000 C   0  0  0  0  0  0  0  0  0  0  0  0
   -4.4798   -0.5489    0.0000 N   0  0  0  0  0  0  0  0  0  0  0  0
   -5.9701   -0.3789    0.0000 C   0  0  0  0  0  0  0  0  0  0  0  0
   -6.5680    0.9968    0.0000 C   0  0  0  0  0  0  0  0  0  0  0  0
   -5.6755    2.2025    0.0000 C   0  0  0  0  0  0  0  0  0  0  0  0
   -6.2734    3.5782    0.0000 C   0  0  0  0  0  0  0  0  0  0  0  0
   -7.7637    3.7482    0.0000 C   0  0  0  0  0  0  0  0  0  0  0  0
   -8.6562    2.5426    0.0000 C   0  0  0  0  0  0  0  0  0  0  0  0
   -8.0583    1.1669    0.0000 C   0  0  0  0  0  0  0  0  0  0  0  0
   -8.9507   -0.0387    0.0000 C   0  0  0  0  0  0  0  0  0  0  0  0
   -9.8432   -1.2444    0.0000 F   0  0  0  0  0  0  0  0  0  0  0  0
  -10.1564    0.8537    0.0000 F   0  0  0  0  0  0  0  0  0  0  0  0
   -7.7451   -0.9312    0.0000 F   0  0  0  0  0  0  0  0  0  0  0  0
   -2.3916   -2.0947    0.0000 C   0  0  0  0  0  0  0  0  0  0  0  0
   -1.7937   -3.4704    0.0000 C   0  0  0  0  0  0  0  0  0  0  0  0
   -0.3033   -3.6404    0.0000 C   0  0  0  0  0  0  0  0  0  0  0  0
    0.5891   -2.4348    0.0000 C   0  0  0  0  0  0  0  0  0  0  0  0
   -0.0088   -1.0591    0.0000 C   0  0  0  0  0  0  0  0  0  0  0  0
   -1.4991   -0.8890    0.0000 N   0  0  0  0  0  0  0  0  0  0  0  0
    0.8837    0.1465    0.0000 C   0  0  0  0  0  0  0  0  0  0  0  0
    2.3740   -0.0235    0.0000 N   0  0  0  0  0  0  0  0  0  0  0  0
    3.2664    1.1821    0.0000 C   0  0  0  0  0  0  0  0  0  0  0  0
    2.6686    2.5578    0.0000 O   0  0  0  0  0  0  0  0  0  0  0  0
    4.7568    1.0120    0.0000 C   0  0  0  0  0  0  0  0  0  0  0  0
    5.3546   -0.3637    0.0000 C   0  0  0  0  0  0  0  0  0  0  0  0
    6.8450   -0.5337    0.0000 C   0  0  0  0  0  0  0  0  0  0  0  0
    7.7374    0.6719    0.0000 C   0  0  0  0  0  0  0  0  0  0  0  0
    9.2277    0.5018    0.0000 N   0  0  0  0  0  0  0  0  0  0  0  0
   10.2413    1.6076    0.0000 C   0  0  0  0  0  0  0  0  0  0  0  0
   11.6062    0.9853    0.0000 C   0  0  0  0  0  0  0  0  0  0  0  0
   11.4361   -0.5050    0.0000 C   0  0  0  0  0  0  0  0  0  0  0  0
    9.9662   -0.8038    0.0000 C   0  0  0  0  0  0  0  0  0  0  0  0
    7.1395    2.0476    0.0000 C   0  0  0  0  0  0  0  0  0  0  0  0
    5.6492    2.2177    0.0000 C   0  0  0  0  0  0  0  0  0  0  0  0
    2.9719   -1.3992    0.0000 C   0  0  0  0  0  0  0  0  0  0  0  0
    2.0794   -2.6049    0.0000 C   0  0  0  0  0  0  0  0  0  0  0  0
  1  2  2  0
  2  3  1  0
  3  4  1  0
  4  5  1  0
  5  6  2  0
  6  7  1  0
  7  8  2  0
  8  9  1  0
  9 10  2  0
 10 11  1  0
 11 12  1  0
 11 13  1  0
 11 14  1  0
  2 15  1  0
 15 16  2  0
 16 17  1  0
 17 18  2  0
 18 19  1  0
 19 20  2  0
 19 21  1  0
 21 22  1  0
 22 23  1  0
 23 24  2  0
 23 25  1  0
 25 26  2  0
 26 27  1  0
 27 28  2  0
 28 29  1  0
 29 30  1  0
 30 31  2  0
 31 32  1  0
 32 33  2  0
 28 34  1  0
 34 35  2  0
 22 36  1  0
 36 37  1  0
 10  5  1  0
 20 15  1  0
 35 25  1  0
 37 18  1  0
 33 29  1  0
M  END
>  <Compound_ID>  (48) 
LIB048

>  <SMILES>  (48) 
O=C(NCc1ccccc1C(F)(F)F)c1ccc2c(n1)CN(C(=O)c1ccc(-n3cccc3)cc1)CC2

>  <R1_reagent>  (48) 
O=C(O)c1ccc(-n2cccc2)cc1

>  <R1_ID>  (48) 
R-008846

>  <N_reaction>  (48) 
Amidation

>  <R2_amine>  (48) 
NCc1ccccc1C(F)(F)F

>  <R2_ID>  (48) 
R-002526

>  <MW>  (48) 
504.5

>  <LogP>  (48) 
5.02

>  <HBD>  (48) 
1

>  <HBA>  (48) 
4

>  <RotB>  (48) 
5

>  <ASMS_similarity>  (48) 
0.6667

>  <Priority_tier>  (48) 
Tier2_medium

>  <Scaffold>  (48) 
OC(=O)c1ccc2CCNCc2n1

$$$$

     RDKit          2D

 26 28  0  0  0  0  0  0  0  0999 V2000
  -10.5469   -1.3059    0.0000 C   0  0  0  0  0  0  0  0  0  0  0  0
   -9.1225   -1.7762    0.0000 C   0  0  0  0  0  0  0  0  0  0  0  0
   -8.0031   -0.7778    0.0000 C   0  0  0  0  0  0  0  0  0  0  0  0
   -6.5787   -1.2480    0.0000 C   0  0  0  0  0  0  0  0  0  0  0  0
   -5.4593   -0.2496    0.0000 C   0  0  0  0  0  0  0  0  0  0  0  0
   -4.0349   -0.7199    0.0000 C   0  0  0  0  0  0  0  0  0  0  0  0
   -3.7299   -2.1886    0.0000 O   0  0  0  0  0  0  0  0  0  0  0  0
   -2.9154    0.2785    0.0000 N   0  0  0  0  0  0  0  0  0  0  0  0
   -3.2204    1.7472    0.0000 C   0  0  0  0  0  0  0  0  0  0  0  0
   -2.1009    2.7456    0.0000 C   0  0  0  0  0  0  0  0  0  0  0  0
   -0.6765    2.2754    0.0000 C   0  0  0  0  0  0  0  0  0  0  0  0
    0.4429    3.2738    0.0000 C   0  0  0  0  0  0  0  0  0  0  0  0
    1.8673    2.8035    0.0000 C   0  0  0  0  0  0  0  0  0  0  0  0
    2.1722    1.3348    0.0000 C   0  0  0  0  0  0  0  0  0  0  0  0
    3.5966    0.8646    0.0000 C   0  0  0  0  0  0  0  0  0  0  0  0
    4.7161    1.8630    0.0000 O   0  0  0  0  0  0  0  0  0  0  0  0
    3.9015   -0.6041    0.0000 N   0  0  0  0  0  0  0  0  0  0  0  0
    5.3259   -1.0744    0.0000 C   0  0  0  0  0  0  0  0  0  0  0  0
    5.6308   -2.5430    0.0000 C   0  0  0  0  0  0  0  0  0  0  0  0
    7.0552   -3.0133    0.0000 C   0  0  0  0  0  0  0  0  0  0  0  0
    8.1747   -2.0149    0.0000 C   0  0  0  0  0  0  0  0  0  0  0  0
    7.8697   -0.5462    0.0000 C   0  0  0  0  0  0  0  0  0  0  0  0
    6.4454   -0.0759    0.0000 C   0  0  0  0  0  0  0  0  0  0  0  0
    1.0528    0.3364    0.0000 N   0  0  0  0  0  0  0  0  0  0  0  0
   -0.3716    0.8067    0.0000 C   0  0  0  0  0  0  0  0  0  0  0  0
   -1.4910   -0.1917    0.0000 C   0  0  0  0  0  0  0  0  0  0  0  0
  1  2  1  0
  2  3  1  0
  3  4  1  0
  4  5  1  0
  5  6  1  0
  6  7  2  0
  6  8  1  0
  8  9  1  0
  9 10  1  0
 10 11  1  0
 11 12  2  0
 12 13  1  0
 13 14  2  0
 14 15  1  0
 15 16  2  0
 15 17  1  0
 17 18  1  0
 18 19  2  0
 19 20  1  0
 20 21  2  0
 21 22  1  0
 22 23  2  0
 14 24  1  0
 24 25  2  0
 25 26  1  0
 26  8  1  0
 25 11  1  0
 23 18  1  0
M  END
>  <Compound_ID>  (49) 
LIB049

>  <SMILES>  (49) 
CCCCCC(=O)N1CCc2ccc(C(=O)Nc3ccccc3)nc2C1

>  <R1_reagent>  (49) 
CCCCCC(=O)O

>  <R1_ID>  (49) 
R-009172

>  <N_reaction>  (49) 
Amidation

>  <R2_amine>  (49) 
Nc1ccccc1

>  <R2_ID>  (49) 
R-001898

>  <MW>  (49) 
351.5

>  <LogP>  (49) 
3.8

>  <HBD>  (49) 
1

>  <HBA>  (49) 
3

>  <RotB>  (49) 
6

>  <ASMS_similarity>  (49) 
0.6618

>  <Priority_tier>  (49) 
Tier2_medium

>  <Scaffold>  (49) 
OC(=O)c1ccc2CCNCc2n1

$$$$

     RDKit          2D

 36 39  0  0  0  0  0  0  0  0999 V2000
  -10.5539    0.6092    0.0000 C   0  0  0  0  0  0  0  0  0  0  0  0
   -9.1516    0.0770    0.0000 O   0  0  0  0  0  0  0  0  0  0  0  0
   -7.9894    1.0253    0.0000 C   0  0  0  0  0  0  0  0  0  0  0  0
   -8.2296    2.5060    0.0000 C   0  0  0  0  0  0  0  0  0  0  0  0
   -7.0675    3.4543    0.0000 C   0  0  0  0  0  0  0  0  0  0  0  0
   -5.6651    2.9221    0.0000 C   0  0  0  0  0  0  0  0  0  0  0  0
   -4.5030    3.8704    0.0000 F   0  0  0  0  0  0  0  0  0  0  0  0
   -5.4249    1.4414    0.0000 C   0  0  0  0  0  0  0  0  0  0  0  0
   -6.5870    0.4931    0.0000 C   0  0  0  0  0  0  0  0  0  0  0  0
   -6.3468   -0.9876    0.0000 C   0  0  0  0  0  0  0  0  0  0  0  0
   -7.5089   -1.9359    0.0000 O   0  0  0  0  0  0  0  0  0  0  0  0
   -4.9444   -1.5198    0.0000 N   0  0  0  0  0  0  0  0  0  0  0  0
   -4.7042   -3.0005    0.0000 C   0  0  0  0  0  0  0  0  0  0  0  0
   -3.3018   -3.5327    0.0000 C   0  0  0  0  0  0  0  0  0  0  0  0
   -2.1396   -2.5844    0.0000 C   0  0  0  0  0  0  0  0  0  0  0  0
   -0.7372   -3.1166    0.0000 C   0  0  0  0  0  0  0  0  0  0  0  0
    0.4249   -2.1683    0.0000 C   0  0  0  0  0  0  0  0  0  0  0  0
    0.1847   -0.6876    0.0000 C   0  0  0  0  0  0  0  0  0  0  0  0
    1.3468    0.2607    0.0000 C   0  0  0  0  0  0  0  0  0  0  0  0
    1.1066    1.7414    0.0000 O   0  0  0  0  0  0  0  0  0  0  0  0
    2.7492   -0.2715    0.0000 N   0  0  0  0  0  0  0  0  0  0  0  0
    3.9114    0.6768    0.0000 C   0  0  0  0  0  0  0  0  0  0  0  0
    5.3138    0.1446    0.0000 C   0  0  0  0  0  0  0  0  0  0  0  0
    5.5540   -1.3361    0.0000 C   0  0  0  0  0  0  0  0  0  0  0  0
    6.9564   -1.8683    0.0000 C   0  0  0  0  0  0  0  0  0  0  0  0
    8.1185   -0.9200    0.0000 C   0  0  0  0  0  0  0  0  0  0  0  0
    7.8783    0.5607    0.0000 C   0  0  0  0  0  0  0  0  0  0  0  0
    9.0404    1.5090    0.0000 O   0  0  0  0  0  0  0  0  0  0  0  0
   10.4428    0.9768    0.0000 C   0  0  0  0  0  0  0  0  0  0  0  0
   11.8452    0.4445    0.0000 F   0  0  0  0  0  0  0  0  0  0  0  0
   10.9751    2.3792    0.0000 F   0  0  0  0  0  0  0  0  0  0  0  0
    9.9106   -0.4256    0.0000 F   0  0  0  0  0  0  0  0  0  0  0  0
    6.4759    1.0929    0.0000 C   0  0  0  0  0  0  0  0  0  0  0  0
   -1.2177   -0.1554    0.0000 N   0  0  0  0  0  0  0  0  0  0  0  0
   -2.3799   -1.1037    0.0000 C   0  0  0  0  0  0  0  0  0  0  0  0
   -3.7822   -0.5715    0.0000 C   0  0  0  0  0  0  0  0  0  0  0  0
  1  2  1  0
  2  3  1  0
  3  4  2  0
  4  5  1  0
  5  6  2  0
  6  7  1  0
  6  8  1  0
  8  9  2  0
  9 10  1  0
 10 11  2  0
 10 12  1  0
 12 13  1  0
 13 14  1  0
 14 15  1  0
 15 16  2  0
 16 17  1  0
 17 18  2  0
 18 19  1  0
 19 20  2  0
 19 21  1  0
 21 22  1  0
 22 23  1  0
 23 24  2  0
 24 25  1  0
 25 26  2  0
 26 27  1  0
 27 28  1  0
 28 29  1  0
 29 30  1  0
 29 31  1  0
 29 32  1  0
 27 33  2  0
 18 34  1  0
 34 35  2  0
 35 36  1  0
  9  3  1  0
 36 12  1  0
 35 15  1  0
 33 23  1  0
M  END
>  <Compound_ID>  (50) 
LIB050

>  <SMILES>  (50) 
COc1ccc(F)cc1C(=O)N1CCc2ccc(C(=O)NCc3cccc(OC(F)(F)F)c3)nc2C1

>  <R1_reagent>  (50) 
COc1ccc(F)cc1C(=O)O

>  <R1_ID>  (50) 
R-008725

>  <N_reaction>  (50) 
Amidation

>  <R2_amine>  (50) 
NCc1cccc(OC(F)(F)F)c1

>  <R2_ID>  (50) 
R-003869

>  <MW>  (50) 
503.5

>  <LogP>  (50) 
4.26

>  <HBD>  (50) 
1

>  <HBA>  (50) 
5

>  <RotB>  (50) 
6

>  <ASMS_similarity>  (50) 
0.6543

>  <Priority_tier>  (50) 
Tier2_medium

>  <Scaffold>  (50) 
OC(=O)c1ccc2CCNCc2n1

$$$$

     RDKit          2D

 34 37  0  0  0  0  0  0  0  0999 V2000
  -10.2291    0.9133    0.0000 C   0  0  0  0  0  0  0  0  0  0  0  0
   -8.8402    0.3467    0.0000 O   0  0  0  0  0  0  0  0  0  0  0  0
   -7.6551    1.2662    0.0000 C   0  0  0  0  0  0  0  0  0  0  0  0
   -7.8588    2.7523    0.0000 C   0  0  0  0  0  0  0  0  0  0  0  0
   -6.6736    3.6718    0.0000 C   0  0  0  0  0  0  0  0  0  0  0  0
   -5.2848    3.1051    0.0000 C   0  0  0  0  0  0  0  0  0  0  0  0
   -5.0810    1.6190    0.0000 C   0  0  0  0  0  0  0  0  0  0  0  0
   -6.2662    0.6996    0.0000 C   0  0  0  0  0  0  0  0  0  0  0  0
   -6.0625   -0.7865    0.0000 C   0  0  0  0  0  0  0  0  0  0  0  0
   -7.2476   -1.7060    0.0000 O   0  0  0  0  0  0  0  0  0  0  0  0
   -4.6736   -1.3532    0.0000 N   0  0  0  0  0  0  0  0  0  0  0  0
   -4.4699   -2.8393    0.0000 C   0  0  0  0  0  0  0  0  0  0  0  0
   -3.0810   -3.4059    0.0000 C   0  0  0  0  0  0  0  0  0  0  0  0
   -1.8959   -2.4864    0.0000 C   0  0  0  0  0  0  0  0  0  0  0  0
   -0.5070   -3.0530    0.0000 C   0  0  0  0  0  0  0  0  0  0  0  0
    0.6781   -2.1336    0.0000 C   0  0  0  0  0  0  0  0  0  0  0  0
    0.4744   -0.6475    0.0000 C   0  0  0  0  0  0  0  0  0  0  0  0
    1.6595    0.2720    0.0000 C   0  0  0  0  0  0  0  0  0  0  0  0
    1.4558    1.7581    0.0000 O   0  0  0  0  0  0  0  0  0  0  0  0
    3.0484   -0.2946    0.0000 N   0  0  0  0  0  0  0  0  0  0  0  0
    4.2335    0.6249    0.0000 C   0  0  0  0  0  0  0  0  0  0  0  0
    5.6224    0.0583    0.0000 C   0  0  0  0  0  0  0  0  0  0  0  0
    5.8261   -1.4278    0.0000 C   0  0  0  0  0  0  0  0  0  0  0  0
    7.2150   -1.9945    0.0000 C   0  0  0  0  0  0  0  0  0  0  0  0
    8.4001   -1.0750    0.0000 C   0  0  0  0  0  0  0  0  0  0  0  0
    8.1964    0.4111    0.0000 C   0  0  0  0  0  0  0  0  0  0  0  0
    9.3816    1.3306    0.0000 C   0  0  0  0  0  0  0  0  0  0  0  0
   10.5667    2.2501    0.0000 F   0  0  0  0  0  0  0  0  0  0  0  0
   10.3010    0.1454    0.0000 F   0  0  0  0  0  0  0  0  0  0  0  0
    8.4621    2.5157    0.0000 F   0  0  0  0  0  0  0  0  0  0  0  0
    6.8075    0.9777    0.0000 C   0  0  0  0  0  0  0  0  0  0  0  0
   -0.9145   -0.0808    0.0000 N   0  0  0  0  0  0  0  0  0  0  0  0
   -2.0996   -1.0003    0.0000 C   0  0  0  0  0  0  0  0  0  0  0  0
   -3.4885   -0.4337    0.0000 C   0  0  0  0  0  0  0  0  0  0  0  0
  1  2  1  0
  2  3  1  0
  3  4  2  0
  4  5  1  0
  5  6  2  0
  6  7  1  0
  7  8  2  0
  8  9  1  0
  9 10  2  0
  9 11  1  0
 11 12  1  0
 12 13  1  0
 13 14  1  0
 14 15  2  0
 15 16  1  0
 16 17  2  0
 17 18  1  0
 18 19  2  0
 18 20  1  0
 20 21  1  0
 21 22  1  0
 22 23  2  0
 23 24  1  0
 24 25  2  0
 25 26  1  0
 26 27  1  0
 27 28  1  0
 27 29  1  0
 27 30  1  0
 26 31  2  0
 17 32  1  0
 32 33  2  0
 33 34  1  0
  8  3  1  0
 34 11  1  0
 33 14  1  0
 31 22  1  0
M  END
>  <Compound_ID>  (51) 
LIB051

>  <SMILES>  (51) 
COc1ccccc1C(=O)N1CCc2ccc(C(=O)NCc3cccc(C(F)(F)F)c3)nc2C1

>  <R1_reagent>  (51) 
COc1ccccc1C(=O)Cl

>  <R1_ID>  (51) 
R-006557

>  <N_reaction>  (51) 
Amidation

>  <R2_amine>  (51) 
NCc1cccc(C(F)(F)F)c1

>  <R2_ID>  (51) 
R-002810

>  <MW>  (51) 
469.5

>  <LogP>  (51) 
4.24

>  <HBD>  (51) 
1

>  <HBA>  (51) 
4

>  <RotB>  (51) 
5

>  <ASMS_similarity>  (51) 
0.6538

>  <Priority_tier>  (51) 
Tier2_medium

>  <Scaffold>  (51) 
OC(=O)c1ccc2CCNCc2n1

$$$$

     RDKit          2D

 32 35  0  0  0  0  0  0  0  0999 V2000
   -9.7302   -0.2206    0.0000 C   0  0  0  0  0  0  0  0  0  0  0  0
   -8.2353   -0.3432    0.0000 O   0  0  0  0  0  0  0  0  0  0  0  0
   -7.3816    0.8902    0.0000 C   0  0  0  0  0  0  0  0  0  0  0  0
   -8.0230    2.2462    0.0000 C   0  0  0  0  0  0  0  0  0  0  0  0
   -7.1694    3.4796    0.0000 C   0  0  0  0  0  0  0  0  0  0  0  0
   -5.6744    3.3571    0.0000 C   0  0  0  0  0  0  0  0  0  0  0  0
   -5.0330    2.0011    0.0000 C   0  0  0  0  0  0  0  0  0  0  0  0
   -5.8866    0.7677    0.0000 C   0  0  0  0  0  0  0  0  0  0  0  0
   -5.2453   -0.5883    0.0000 C   0  0  0  0  0  0  0  0  0  0  0  0
   -3.7503   -0.7108    0.0000 N   0  0  0  0  0  0  0  0  0  0  0  0
   -3.1089   -2.0668    0.0000 C   0  0  0  0  0  0  0  0  0  0  0  0
   -3.9626   -3.3002    0.0000 O   0  0  0  0  0  0  0  0  0  0  0  0
   -1.6140   -2.1894    0.0000 C   0  0  0  0  0  0  0  0  0  0  0  0
   -0.9726   -3.5453    0.0000 C   0  0  0  0  0  0  0  0  0  0  0  0
    0.5224   -3.6679    0.0000 C   0  0  0  0  0  0  0  0  0  0  0  0
    1.3760   -2.4345    0.0000 C   0  0  0  0  0  0  0  0  0  0  0  0
    0.7347   -1.0785    0.0000 C   0  0  0  0  0  0  0  0  0  0  0  0
   -0.7603   -0.9559    0.0000 N   0  0  0  0  0  0  0  0  0  0  0  0
    1.5883    0.1549    0.0000 C   0  0  0  0  0  0  0  0  0  0  0  0
    3.0833    0.0324    0.0000 N   0  0  0  0  0  0  0  0  0  0  0  0
    3.9369    1.2658    0.0000 C   0  0  0  0  0  0  0  0  0  0  0  0
    3.2955    2.6218    0.0000 O   0  0  0  0  0  0  0  0  0  0  0  0
    5.4319    1.1432    0.0000 C   0  0  0  0  0  0  0  0  0  0  0  0
    6.0732   -0.2127    0.0000 C   0  0  0  0  0  0  0  0  0  0  0  0
    7.5682   -0.3353    0.0000 C   0  0  0  0  0  0  0  0  0  0  0  0
    8.2096   -1.6913    0.0000 C   0  0  0  0  0  0  0  0  0  0  0  0
    8.4218    0.8981    0.0000 C   0  0  0  0  0  0  0  0  0  0  0  0
    7.7805    2.2541    0.0000 C   0  0  0  0  0  0  0  0  0  0  0  0
    6.2855    2.3766    0.0000 C   0  0  0  0  0  0  0  0  0  0  0  0
    5.6441    3.7326    0.0000 Cl  0  0  0  0  0  0  0  0  0  0  0  0
    3.7246   -1.3236    0.0000 C   0  0  0  0  0  0  0  0  0  0  0  0
    2.8710   -2.5570    0.0000 C   0  0  0  0  0  0  0  0  0  0  0  0
  1  2  1  0
  2  3  1  0
  3  4  2  0
  4  5  1  0
  5  6  2  0
  6  7  1  0
  7  8  2  0
  8  9  1  0
  9 10  1  0
 10 11  1  0
 11 12  2  0
 11 13  1  0
 13 14  2  0
 14 15  1  0
 15 16  2  0
 16 17  1  0
 17 18  2  0
 17 19  1  0
 19 20  1  0
 20 21  1  0
 21 22  2  0
 21 23  1  0
 23 24  2  0
 24 25  1  0
 25 26  1  0
 25 27  2  0
 27 28  1  0
 28 29  2  0
 29 30  1  0
 20 31  1  0
 31 32  1  0
  8  3  1  0
 18 13  1  0
 29 23  1  0
 32 16  1  0
M  END
>  <Compound_ID>  (52) 
LIB052

>  <SMILES>  (52) 
COc1ccccc1CNC(=O)c1ccc2c(n1)CN(C(=O)c1cc(C)ccc1Cl)CC2

>  <R1_reagent>  (52) 
Cc1ccc(Cl)c(C(=O)O)c1

>  <R1_ID>  (52) 
R-009721

>  <N_reaction>  (52) 
Amidation

>  <R2_amine>  (52) 
COc1ccccc1CN

>  <R2_ID>  (52) 
R-003963

>  <MW>  (52) 
449.9

>  <LogP>  (52) 
4.18

>  <HBD>  (52) 
1

>  <HBA>  (52) 
4

>  <RotB>  (52) 
5

>  <ASMS_similarity>  (52) 
0.6533

>  <Priority_tier>  (52) 
Tier2_medium

>  <Scaffold>  (52) 
OC(=O)c1ccc2CCNCc2n1

$$$$

     RDKit          2D

 35 38  0  0  0  0  0  0  0  0999 V2000
   -8.8676    4.5272    0.0000 C   0  0  0  0  0  0  0  0  0  0  0  0
   -8.7123    3.0352    0.0000 O   0  0  0  0  0  0  0  0  0  0  0  0
   -7.3425    2.4238    0.0000 C   0  0  0  0  0  0  0  0  0  0  0  0
   -6.1282    3.3044    0.0000 C   0  0  0  0  0  0  0  0  0  0  0  0
   -4.7584    2.6930    0.0000 C   0  0  0  0  0  0  0  0  0  0  0  0
   -4.6030    1.2011    0.0000 C   0  0  0  0  0  0  0  0  0  0  0  0
   -5.8174    0.3205    0.0000 C   0  0  0  0  0  0  0  0  0  0  0  0
   -5.6620   -1.1714    0.0000 C   0  0  0  0  0  0  0  0  0  0  0  0
   -6.8764   -2.0519    0.0000 O   0  0  0  0  0  0  0  0  0  0  0  0
   -4.2923   -1.7828    0.0000 N   0  0  0  0  0  0  0  0  0  0  0  0
   -4.1369   -3.2747    0.0000 C   0  0  0  0  0  0  0  0  0  0  0  0
   -2.7671   -3.8861    0.0000 C   0  0  0  0  0  0  0  0  0  0  0  0
   -1.5528   -3.0056    0.0000 C   0  0  0  0  0  0  0  0  0  0  0  0
   -0.1830   -3.6170    0.0000 C   0  0  0  0  0  0  0  0  0  0  0  0
    1.0313   -2.7365    0.0000 C   0  0  0  0  0  0  0  0  0  0  0  0
    0.8759   -1.2445    0.0000 C   0  0  0  0  0  0  0  0  0  0  0  0
    2.0903   -0.3640    0.0000 C   0  0  0  0  0  0  0  0  0  0  0  0
    1.9349    1.1279    0.0000 O   0  0  0  0  0  0  0  0  0  0  0  0
    3.4600   -0.9754    0.0000 N   0  0  0  0  0  0  0  0  0  0  0  0
    4.6744   -0.0949    0.0000 C   0  0  0  0  0  0  0  0  0  0  0  0
    6.0441   -0.7062    0.0000 C   0  0  0  0  0  0  0  0  0  0  0  0
    7.2585    0.1743    0.0000 O   0  0  0  0  0  0  0  0  0  0  0  0
    8.6282   -0.4371    0.0000 C   0  0  0  0  0  0  0  0  0  0  0  0
    9.8426    0.4434    0.0000 C   0  0  0  0  0  0  0  0  0  0  0  0
   11.2123   -0.1680    0.0000 C   0  0  0  0  0  0  0  0  0  0  0  0
   12.4267    0.7126    0.0000 C   0  0  0  0  0  0  0  0  0  0  0  0
   12.2713    2.2045    0.0000 C   0  0  0  0  0  0  0  0  0  0  0  0
   10.9016    2.8159    0.0000 C   0  0  0  0  0  0  0  0  0  0  0  0
    9.6872    1.9354    0.0000 C   0  0  0  0  0  0  0  0  0  0  0  0
   -0.4938   -0.6331    0.0000 N   0  0  0  0  0  0  0  0  0  0  0  0
   -1.7082   -1.5137    0.0000 C   0  0  0  0  0  0  0  0  0  0  0  0
   -3.0779   -0.9023    0.0000 C   0  0  0  0  0  0  0  0  0  0  0  0
   -7.1871    0.9319    0.0000 C   0  0  0  0  0  0  0  0  0  0  0  0
   -8.4015    0.0514    0.0000 O   0  0  0  0  0  0  0  0  0  0  0  0
   -9.7712    0.6628    0.0000 C   0  0  0  0  0  0  0  0  0  0  0  0
  1  2  1  0
  2  3  1  0
  3  4  2  0
  4  5  1  0
  5  6  2  0
  6  7  1  0
  7  8  1  0
  8  9  2  0
  8 10  1  0
 10 11  1  0
 11 12  1  0
 12 13  1  0
 13 14  2  0
 14 15  1  0
 15 16  2  0
 16 17  1  0
 17 18  2  0
 17 19  1  0
 19 20  1  0
 20 21  1  0
 21 22  1  0
 22 23  1  0
 23 24  1  0
 24 25  2  0
 25 26  1  0
 26 27  2  0
 27 28  1  0
 28 29  2  0
 16 30  1  0
 30 31  2  0
 31 32  1  0
  7 33  2  0
 33 34  1  0
 34 35  1  0
 33  3  1  0
 32 10  1  0
 31 13  1  0
 29 24  1  0
M  END
>  <Compound_ID>  (53) 
LIB053

>  <SMILES>  (53) 
COc1cccc(C(=O)N2CCc3ccc(C(=O)NCCOCc4ccccc4)nc3C2)c1OC

>  <R1_reagent>  (53) 
COc1cccc(C(=O)O)c1OC

>  <R1_ID>  (53) 
R-004876

>  <N_reaction>  (53) 
Amidation

>  <R2_amine>  (53) 
NCCOCc1ccccc1

>  <R2_ID>  (53) 
R-000973

>  <MW>  (53) 
475.5

>  <LogP>  (53) 
3.24

>  <HBD>  (53) 
1

>  <HBA>  (53) 
6

>  <RotB>  (53) 
9

>  <ASMS_similarity>  (53) 
0.6528

>  <Priority_tier>  (53) 
Tier2_medium

>  <Scaffold>  (53) 
OC(=O)c1ccc2CCNCc2n1

$$$$

     RDKit          2D

 30 33  0  0  0  0  0  0  0  0999 V2000
  -10.1919    1.6018    0.0000 C   0  0  0  0  0  0  0  0  0  0  0  0
   -8.7250    1.2884    0.0000 N   0  0  0  0  0  0  0  0  0  0  0  0
   -7.7201    2.4021    0.0000 C   0  0  0  0  0  0  0  0  0  0  0  0
   -6.2532    2.0887    0.0000 C   0  0  0  0  0  0  0  0  0  0  0  0
   -5.7912    0.6616    0.0000 C   0  0  0  0  0  0  0  0  0  0  0  0
   -4.3243    0.3482    0.0000 N   0  0  0  0  0  0  0  0  0  0  0  0
   -3.8622   -1.0788    0.0000 C   0  0  0  0  0  0  0  0  0  0  0  0
   -4.8671   -2.1925    0.0000 O   0  0  0  0  0  0  0  0  0  0  0  0
   -2.3953   -1.3922    0.0000 C   0  0  0  0  0  0  0  0  0  0  0  0
   -1.9333   -2.8193    0.0000 C   0  0  0  0  0  0  0  0  0  0  0  0
   -0.4664   -3.1327    0.0000 C   0  0  0  0  0  0  0  0  0  0  0  0
    0.5384   -2.0190    0.0000 C   0  0  0  0  0  0  0  0  0  0  0  0
    0.0764   -0.5919    0.0000 C   0  0  0  0  0  0  0  0  0  0  0  0
   -1.3905   -0.2785    0.0000 N   0  0  0  0  0  0  0  0  0  0  0  0
    1.0813    0.5217    0.0000 C   0  0  0  0  0  0  0  0  0  0  0  0
    2.5482    0.2083    0.0000 N   0  0  0  0  0  0  0  0  0  0  0  0
    3.5530    1.3220    0.0000 C   0  0  0  0  0  0  0  0  0  0  0  0
    3.0910    2.7491    0.0000 O   0  0  0  0  0  0  0  0  0  0  0  0
    5.0199    1.0086    0.0000 C   0  0  0  0  0  0  0  0  0  0  0  0
    5.4819   -0.4185    0.0000 C   0  0  0  0  0  0  0  0  0  0  0  0
    6.9488   -0.7319    0.0000 C   0  0  0  0  0  0  0  0  0  0  0  0
    7.9537    0.3818    0.0000 C   0  0  0  0  0  0  0  0  0  0  0  0
    9.2789    1.0846    0.0000 F   0  0  0  0  0  0  0  0  0  0  0  0
    8.8760   -0.8012    0.0000 F   0  0  0  0  0  0  0  0  0  0  0  0
    7.4917    1.8089    0.0000 C   0  0  0  0  0  0  0  0  0  0  0  0
    6.0248    2.1223    0.0000 C   0  0  0  0  0  0  0  0  0  0  0  0
    3.0102   -1.2187    0.0000 C   0  0  0  0  0  0  0  0  0  0  0  0
    2.0053   -2.3324    0.0000 C   0  0  0  0  0  0  0  0  0  0  0  0
   -6.7960   -0.4520    0.0000 C   0  0  0  0  0  0  0  0  0  0  0  0
   -8.2629   -0.1386    0.0000 C   0  0  0  0  0  0  0  0  0  0  0  0
  1  2  1  0
  2  3  1  0
  3  4  1  0
  4  5  1  0
  5  6  1  0
  6  7  1  0
  7  8  2  0
  7  9  1  0
  9 10  2  0
 10 11  1  0
 11 12  2  0
 12 13  1  0
 13 14  2  0
 13 15  1  0
 15 16  1  0
 16 17  1  0
 17 18  2  0
 17 19  1  0
 19 20  1  0
 20 21  1  0
 21 22  1  0
 22 23  1  0
 22 24  1  0
 22 25  1  0
 25 26  1  0
 16 27  1  0
 27 28  1  0
  5 29  1  0
 29 30  1  0
 30  2  1  0
 14  9  1  0
 26 19  1  0
 28 12  1  0
M  END
>  <Compound_ID>  (54) 
LIB054

>  <SMILES>  (54) 
CN1CCC(NC(=O)c2ccc3c(n2)CN(C(=O)C2CCC(F)(F)CC2)CC3)CC1

>  <R1_reagent>  (54) 
O=C(O)C1CCC(F)(F)CC1

>  <R1_ID>  (54) 
R-012108

>  <N_reaction>  (54) 
Amidation

>  <R2_amine>  (54) 
CN1CCC(N)CC1

>  <R2_ID>  (54) 
R-000447

>  <MW>  (54) 
420.5

>  <LogP>  (54) 
2.62

>  <HBD>  (54) 
1

>  <HBA>  (54) 
4

>  <RotB>  (54) 
3

>  <ASMS_similarity>  (54) 
0.6515

>  <Priority_tier>  (54) 
Tier2_medium

>  <Scaffold>  (54) 
OC(=O)c1ccc2CCNCc2n1

$$$$

     RDKit          2D

 32 35  0  0  0  0  0  0  0  0999 V2000
  -11.1934    2.3906    0.0000 C   0  0  0  0  0  0  0  0  0  0  0  0
   -9.7733    1.9078    0.0000 N   0  0  0  0  0  0  0  0  0  0  0  0
   -8.6450    2.8962    0.0000 C   0  0  0  0  0  0  0  0  0  0  0  0
   -7.2249    2.4134    0.0000 C   0  0  0  0  0  0  0  0  0  0  0  0
   -6.9329    0.9421    0.0000 C   0  0  0  0  0  0  0  0  0  0  0  0
   -5.5127    0.4593    0.0000 N   0  0  0  0  0  0  0  0  0  0  0  0
   -5.2208   -1.0120    0.0000 C   0  0  0  0  0  0  0  0  0  0  0  0
   -6.3490   -2.0005    0.0000 O   0  0  0  0  0  0  0  0  0  0  0  0
   -3.8006   -1.4949    0.0000 C   0  0  0  0  0  0  0  0  0  0  0  0
   -3.5087   -2.9662    0.0000 C   0  0  0  0  0  0  0  0  0  0  0  0
   -2.0885   -3.4490    0.0000 C   0  0  0  0  0  0  0  0  0  0  0  0
   -0.9603   -2.4605    0.0000 C   0  0  0  0  0  0  0  0  0  0  0  0
   -1.2522   -0.9892    0.0000 C   0  0  0  0  0  0  0  0  0  0  0  0
   -2.6724   -0.5064    0.0000 N   0  0  0  0  0  0  0  0  0  0  0  0
   -0.1240   -0.0007    0.0000 C   0  0  0  0  0  0  0  0  0  0  0  0
    1.2962   -0.4835    0.0000 N   0  0  0  0  0  0  0  0  0  0  0  0
    2.4244    0.5049    0.0000 C   0  0  0  0  0  0  0  0  0  0  0  0
    2.1324    1.9763    0.0000 O   0  0  0  0  0  0  0  0  0  0  0  0
    3.8445    0.0221    0.0000 C   0  0  0  0  0  0  0  0  0  0  0  0
    4.9728    1.0106    0.0000 C   0  0  0  0  0  0  0  0  0  0  0  0
    6.3929    0.5278    0.0000 C   0  0  0  0  0  0  0  0  0  0  0  0
    7.5212    1.5163    0.0000 O   0  0  0  0  0  0  0  0  0  0  0  0
    8.9413    1.0334    0.0000 C   0  0  0  0  0  0  0  0  0  0  0  0
    9.2333   -0.4379    0.0000 C   0  0  0  0  0  0  0  0  0  0  0  0
   10.6534   -0.9207    0.0000 C   0  0  0  0  0  0  0  0  0  0  0  0
   11.7817    0.0678    0.0000 C   0  0  0  0  0  0  0  0  0  0  0  0
   11.4897    1.5391    0.0000 C   0  0  0  0  0  0  0  0  0  0  0  0
   10.0696    2.0219    0.0000 C   0  0  0  0  0  0  0  0  0  0  0  0
    1.5881   -1.9549    0.0000 C   0  0  0  0  0  0  0  0  0  0  0  0
    0.4599   -2.9433    0.0000 C   0  0  0  0  0  0  0  0  0  0  0  0
   -8.0611   -0.0464    0.0000 C   0  0  0  0  0  0  0  0  0  0  0  0
   -9.4813    0.4364    0.0000 C   0  0  0  0  0  0  0  0  0  0  0  0
  1  2  1  0
  2  3  1  0
  3  4  1  0
  4  5  1  0
  5  6  1  0
  6  7  1  0
  7  8  2  0
  7  9  1  0
  9 10  2  0
 10 11  1  0
 11 12  2  0
 12 13  1  0
 13 14  2  0
 13 15  1  0
 15 16  1  0
 16 17  1  0
 17 18  2  0
 17 19  1  0
 19 20  1  0
 20 21  1  0
 21 22  1  0
 22 23  1  0
 23 24  2  0
 24 25  1  0
 25 26  2  0
 26 27  1  0
 27 28  2  0
 16 29  1  0
 29 30  1  0
  5 31  1  0
 31 32  1  0
 32  2  1  0
 14  9  1  0
 28 23  1  0
 30 12  1  0
M  END
>  <Compound_ID>  (55) 
LIB055

>  <SMILES>  (55) 
CN1CCC(NC(=O)c2ccc3c(n2)CN(C(=O)CCCOc2ccccc2)CC3)CC1

>  <R1_reagent>  (55) 
O=C(O)CCCOc1ccccc1

>  <R1_ID>  (55) 
R-006725

>  <N_reaction>  (55) 
Amidation

>  <R2_amine>  (55) 
CN1CCC(N)CC1

>  <R2_ID>  (55) 
R-000447

>  <MW>  (55) 
436.6

>  <LogP>  (55) 
2.65

>  <HBD>  (55) 
1

>  <HBA>  (55) 
5

>  <RotB>  (55) 
7

>  <ASMS_similarity>  (55) 
0.6486

>  <Priority_tier>  (55) 
Tier2_medium

>  <Scaffold>  (55) 
OC(=O)c1ccc2CCNCc2n1

$$$$

     RDKit          2D

 33 36  0  0  0  0  0  0  0  0999 V2000
   -6.1225    5.3732    0.0000 C   0  0  0  0  0  0  0  0  0  0  0  0
   -5.5082    4.0047    0.0000 C   0  0  0  0  0  0  0  0  0  0  0  0
   -4.0160    3.8524    0.0000 C   0  0  0  0  0  0  0  0  0  0  0  0
   -6.3862    2.7885    0.0000 C   0  0  0  0  0  0  0  0  0  0  0  0
   -7.8785    2.9408    0.0000 O   0  0  0  0  0  0  0  0  0  0  0  0
   -5.7720    1.4200    0.0000 N   0  0  0  0  0  0  0  0  0  0  0  0
   -4.2798    1.2677    0.0000 C   0  0  0  0  0  0  0  0  0  0  0  0
   -3.6655   -0.1007    0.0000 C   0  0  0  0  0  0  0  0  0  0  0  0
   -4.5435   -1.3169    0.0000 C   0  0  0  0  0  0  0  0  0  0  0  0
   -3.9293   -2.6854    0.0000 C   0  0  0  0  0  0  0  0  0  0  0  0
   -4.8073   -3.9016    0.0000 O   0  0  0  0  0  0  0  0  0  0  0  0
   -2.4371   -2.8377    0.0000 N   0  0  0  0  0  0  0  0  0  0  0  0
   -1.8228   -4.2062    0.0000 C   0  0  0  0  0  0  0  0  0  0  0  0
   -0.3306   -4.3584    0.0000 C   0  0  0  0  0  0  0  0  0  0  0  0
    0.5474   -3.1423    0.0000 C   0  0  0  0  0  0  0  0  0  0  0  0
    2.0397   -3.2946    0.0000 C   0  0  0  0  0  0  0  0  0  0  0  0
    2.9177   -2.0784    0.0000 C   0  0  0  0  0  0  0  0  0  0  0  0
    2.3035   -0.7099    0.0000 C   0  0  0  0  0  0  0  0  0  0  0  0
    3.1815    0.5063    0.0000 C   0  0  0  0  0  0  0  0  0  0  0  0
    2.5672    1.8747    0.0000 O   0  0  0  0  0  0  0  0  0  0  0  0
    4.6737    0.3540    0.0000 N   0  0  0  0  0  0  0  0  0  0  0  0
    5.5517    1.5701    0.0000 C   0  0  0  0  0  0  0  0  0  0  0  0
    7.0440    1.4178    0.0000 C   0  0  0  0  0  0  0  0  0  0  0  0
    7.6582    0.0494    0.0000 C   0  0  0  0  0  0  0  0  0  0  0  0
    9.1505   -0.1029    0.0000 C   0  0  0  0  0  0  0  0  0  0  0  0
   10.0285    1.1133    0.0000 C   0  0  0  0  0  0  0  0  0  0  0  0
    9.4143    2.4817    0.0000 C   0  0  0  0  0  0  0  0  0  0  0  0
    7.9220    2.6340    0.0000 N   0  0  0  0  0  0  0  0  0  0  0  0
    0.8112   -0.5576    0.0000 N   0  0  0  0  0  0  0  0  0  0  0  0
   -0.0668   -1.7738    0.0000 C   0  0  0  0  0  0  0  0  0  0  0  0
   -1.5591   -1.6215    0.0000 C   0  0  0  0  0  0  0  0  0  0  0  0
   -6.0358   -1.1646    0.0000 C   0  0  0  0  0  0  0  0  0  0  0  0
   -6.6500    0.2039    0.0000 C   0  0  0  0  0  0  0  0  0  0  0  0
  1  2  1  0
  2  3  1  0
  2  4  1  0
  4  5  2  0
  4  6  1  0
  6  7  1  0
  7  8  1  0
  8  9  1  0
  9 10  1  0
 10 11  2  0
 10 12  1  0
 12 13  1  0
 13 14  1  0
 14 15  1  0
 15 16  2  0
 16 17  1  0
 17 18  2  0
 18 19  1  0
 19 20  2  0
 19 21  1  0
 21 22  1  0
 22 23  1  0
 23 24  2  0
 24 25  1  0
 25 26  2  0
 26 27  1  0
 27 28  2  0
 18 29  1  0
 29 30  2  0
 30 31  1  0
  9 32  1  0
 32 33  1  0
 33  6  1  0
 31 12  1  0
 30 15  1  0
 28 23  1  0
M  END
>  <Compound_ID>  (56) 
LIB056

>  <SMILES>  (56) 
CC(C)C(=O)N1CCC(C(=O)N2CCc3ccc(C(=O)NCc4ccccn4)nc3C2)CC1

>  <R1_reagent>  (56) 
CC(C)C(=O)N1CCC(C(=O)O)CC1

>  <R1_ID>  (56) 
R-009184

>  <N_reaction>  (56) 
Amidation

>  <R2_amine>  (56) 
NCc1ccccn1

>  <R2_ID>  (56) 
R-004572

>  <MW>  (56) 
449.6

>  <LogP>  (56) 
2.19

>  <HBD>  (56) 
1

>  <HBA>  (56) 
5

>  <RotB>  (56) 
5

>  <ASMS_similarity>  (56) 
0.6471

>  <Priority_tier>  (56) 
Tier2_medium

>  <Scaffold>  (56) 
OC(=O)c1ccc2CCNCc2n1

$$$$

     RDKit          2D

 35 38  0  0  0  0  0  0  0  0999 V2000
   -5.2831    5.5741    0.0000 C   0  0  0  0  0  0  0  0  0  0  0  0
   -6.5291    4.7391    0.0000 O   0  0  0  0  0  0  0  0  0  0  0  0
   -6.4290    3.2424    0.0000 C   0  0  0  0  0  0  0  0  0  0  0  0
   -5.0828    2.5808    0.0000 C   0  0  0  0  0  0  0  0  0  0  0  0
   -4.9827    1.0841    0.0000 C   0  0  0  0  0  0  0  0  0  0  0  0
   -6.2288    0.2491    0.0000 C   0  0  0  0  0  0  0  0  0  0  0  0
   -6.1287   -1.2476    0.0000 C   0  0  0  0  0  0  0  0  0  0  0  0
   -7.3747   -2.0826    0.0000 O   0  0  0  0  0  0  0  0  0  0  0  0
   -4.7825   -1.9092    0.0000 N   0  0  0  0  0  0  0  0  0  0  0  0
   -4.6823   -3.4058    0.0000 C   0  0  0  0  0  0  0  0  0  0  0  0
   -3.3361   -4.0675    0.0000 C   0  0  0  0  0  0  0  0  0  0  0  0
   -2.0901   -3.2324    0.0000 C   0  0  0  0  0  0  0  0  0  0  0  0
   -0.7439   -3.8940    0.0000 C   0  0  0  0  0  0  0  0  0  0  0  0
    0.5022   -3.0590    0.0000 C   0  0  0  0  0  0  0  0  0  0  0  0
    0.4021   -1.5624    0.0000 C   0  0  0  0  0  0  0  0  0  0  0  0
    1.6482   -0.7273    0.0000 C   0  0  0  0  0  0  0  0  0  0  0  0
    1.5481    0.7693    0.0000 O   0  0  0  0  0  0  0  0  0  0  0  0
    2.9944   -1.3889    0.0000 N   0  0  0  0  0  0  0  0  0  0  0  0
    4.2405   -0.5539    0.0000 C   0  0  0  0  0  0  0  0  0  0  0  0
    5.5867   -1.2155    0.0000 C   0  0  0  0  0  0  0  0  0  0  0  0
    6.8327   -0.3805    0.0000 C   0  0  0  0  0  0  0  0  0  0  0  0
    8.1789   -1.0421    0.0000 C   0  0  0  0  0  0  0  0  0  0  0  0
    9.4250   -0.2071    0.0000 C   0  0  0  0  0  0  0  0  0  0  0  0
    9.3249    1.2896    0.0000 C   0  0  0  0  0  0  0  0  0  0  0  0
    7.9787    1.9512    0.0000 C   0  0  0  0  0  0  0  0  0  0  0  0
    6.7326    1.1162    0.0000 C   0  0  0  0  0  0  0  0  0  0  0  0
    5.3864    1.7778    0.0000 C   0  0  0  0  0  0  0  0  0  0  0  0
    4.0402    2.4394    0.0000 F   0  0  0  0  0  0  0  0  0  0  0  0
    6.0480    3.1240    0.0000 F   0  0  0  0  0  0  0  0  0  0  0  0
    4.7248    0.4316    0.0000 F   0  0  0  0  0  0  0  0  0  0  0  0
   -0.9441   -0.9007    0.0000 N   0  0  0  0  0  0  0  0  0  0  0  0
   -2.1902   -1.7358    0.0000 C   0  0  0  0  0  0  0  0  0  0  0  0
   -3.5364   -1.0742    0.0000 C   0  0  0  0  0  0  0  0  0  0  0  0
   -7.5750    0.9107    0.0000 C   0  0  0  0  0  0  0  0  0  0  0  0
   -7.6751    2.4074    0.0000 N   0  0  0  0  0  0  0  0  0  0  0  0
  1  2  1  0
  2  3  1  0
  3  4  2  0
  4  5  1  0
  5  6  2  0
  6  7  1  0
  7  8  2  0
  7  9  1  0
  9 10  1  0
 10 11  1  0
 11 12  1  0
 12 13  2  0
 13 14  1  0
 14 15  2  0
 15 16  1  0
 16 17  2  0
 16 18  1  0
 18 19  1  0
 19 20  1  0
 20 21  1  0
 21 22  2  0
 22 23  1  0
 23 24  2  0
 24 25  1  0
 25 26  2  0
 26 27  1  0
 27 28  1  0
 27 29  1  0
 27 30  1  0
 15 31  1  0
 31 32  2  0
 32 33  1  0
  6 34  1  0
 34 35  2  0
 35  3  1  0
 33  9  1  0
 32 12  1  0
 26 21  1  0
M  END
>  <Compound_ID>  (57) 
LIB057

>  <SMILES>  (57) 
COc1ccc(C(=O)N2CCc3ccc(C(=O)NCCc4ccccc4C(F)(F)F)nc3C2)cn1

>  <R1_reagent>  (57) 
COc1ccc(C(=O)O)cn1

>  <R1_ID>  (57) 
R-008524

>  <N_reaction>  (57) 
Amidation

>  <R2_amine>  (57) 
NCCc1ccccc1C(F)(F)F

>  <R2_ID>  (57) 
R-009310

>  <MW>  (57) 
484.5

>  <LogP>  (57) 
3.68

>  <HBD>  (57) 
1

>  <HBA>  (57) 
5

>  <RotB>  (57) 
6

>  <ASMS_similarity>  (57) 
0.6463

>  <Priority_tier>  (57) 
Tier2_medium

>  <Scaffold>  (57) 
OC(=O)c1ccc2CCNCc2n1

$$$$

     RDKit          2D

 36 39  0  0  0  0  0  0  0  0999 V2000
   -4.3814   -3.1343    0.0000 O   0  0  0  0  0  0  0  0  0  0  0  0
   -3.4897   -1.9281    0.0000 C   0  0  0  0  0  0  0  0  0  0  0  0
   -4.0884   -0.5528    0.0000 N   0  0  0  0  0  0  0  0  0  0  0  0
   -5.5789   -0.3836    0.0000 C   0  0  0  0  0  0  0  0  0  0  0  0
   -6.1776    0.9917    0.0000 C   0  0  0  0  0  0  0  0  0  0  0  0
   -5.2859    2.1979    0.0000 C   0  0  0  0  0  0  0  0  0  0  0  0
   -5.8846    3.5732    0.0000 C   0  0  0  0  0  0  0  0  0  0  0  0
   -7.3750    3.7424    0.0000 C   0  0  0  0  0  0  0  0  0  0  0  0
   -8.2667    2.5362    0.0000 C   0  0  0  0  0  0  0  0  0  0  0  0
   -7.6680    1.1609    0.0000 C   0  0  0  0  0  0  0  0  0  0  0  0
   -8.5597   -0.0453    0.0000 C   0  0  0  0  0  0  0  0  0  0  0  0
   -9.4514   -1.2515    0.0000 F   0  0  0  0  0  0  0  0  0  0  0  0
   -9.7659    0.8464    0.0000 F   0  0  0  0  0  0  0  0  0  0  0  0
   -7.3536   -0.9370    0.0000 F   0  0  0  0  0  0  0  0  0  0  0  0
   -1.9993   -2.0973    0.0000 C   0  0  0  0  0  0  0  0  0  0  0  0
   -1.4006   -3.4726    0.0000 C   0  0  0  0  0  0  0  0  0  0  0  0
    0.0899   -3.6418    0.0000 C   0  0  0  0  0  0  0  0  0  0  0  0
    0.9816   -2.4356    0.0000 C   0  0  0  0  0  0  0  0  0  0  0  0
    0.3829   -1.0603    0.0000 C   0  0  0  0  0  0  0  0  0  0  0  0
   -1.1076   -0.8911    0.0000 N   0  0  0  0  0  0  0  0  0  0  0  0
    1.2746    0.1459    0.0000 C   0  0  0  0  0  0  0  0  0  0  0  0
    2.7650   -0.0233    0.0000 N   0  0  0  0  0  0  0  0  0  0  0  0
    3.6567    1.1829    0.0000 C   0  0  0  0  0  0  0  0  0  0  0  0
    3.0580    2.5582    0.0000 O   0  0  0  0  0  0  0  0  0  0  0  0
    5.1472    1.0137    0.0000 C   0  0  0  0  0  0  0  0  0  0  0  0
    5.7459   -0.3616    0.0000 C   0  0  0  0  0  0  0  0  0  0  0  0
    7.2363   -0.5308    0.0000 C   0  0  0  0  0  0  0  0  0  0  0  0
    8.1280    0.6754    0.0000 C   0  0  0  0  0  0  0  0  0  0  0  0
    9.6185    0.5062    0.0000 C   0  0  0  0  0  0  0  0  0  0  0  0
   11.1089    0.3370    0.0000 F   0  0  0  0  0  0  0  0  0  0  0  0
    9.4493   -0.9842    0.0000 F   0  0  0  0  0  0  0  0  0  0  0  0
    9.7876    1.9966    0.0000 F   0  0  0  0  0  0  0  0  0  0  0  0
    7.5293    2.0507    0.0000 N   0  0  0  0  0  0  0  0  0  0  0  0
    6.0389    2.2199    0.0000 C   0  0  0  0  0  0  0  0  0  0  0  0
    3.3637   -1.3986    0.0000 C   0  0  0  0  0  0  0  0  0  0  0  0
    2.4720   -2.6048    0.0000 C   0  0  0  0  0  0  0  0  0  0  0  0
  1  2  2  0
  2  3  1  0
  3  4  1  0
  4  5  1  0
  5  6  2  0
  6  7  1  0
  7  8  2  0
  8  9  1  0
  9 10  2  0
 10 11  1  0
 11 12  1  0
 11 13  1  0
 11 14  1  0
  2 15  1  0
 15 16  2  0
 16 17  1  0
 17 18  2  0
 18 19  1  0
 19 20  2  0
 19 21  1  0
 21 22  1  0
 22 23  1  0
 23 24  2  0
 23 25  1  0
 25 26  2  0
 26 27  1  0
 27 28  2  0
 28 29  1  0
 29 30  1  0
 29 31  1  0
 29 32  1  0
 28 33  1  0
 33 34  2  0
 22 35  1  0
 35 36  1  0
 10  5  1  0
 20 15  1  0
 34 25  1  0
 36 18  1  0
M  END
>  <Compound_ID>  (58) 
LIB058

>  <SMILES>  (58) 
O=C(NCc1ccccc1C(F)(F)F)c1ccc2c(n1)CN(C(=O)c1ccc(C(F)(F)F)nc1)CC2

>  <R1_reagent>  (58) 
O=C(O)c1ccc(C(F)(F)F)nc1

>  <R1_ID>  (58) 
R-008753

>  <N_reaction>  (58) 
Amidation

>  <R2_amine>  (58) 
NCc1ccccc1C(F)(F)F

>  <R2_ID>  (58) 
R-002526

>  <MW>  (58) 
508.4

>  <LogP>  (58) 
4.64

>  <HBD>  (58) 
1

>  <HBA>  (58) 
4

>  <RotB>  (58) 
4

>  <ASMS_similarity>  (58) 
0.6456

>  <Priority_tier>  (58) 
Tier2_medium

>  <Scaffold>  (58) 
OC(=O)c1ccc2CCNCc2n1

$$$$

     RDKit          2D

 33 36  0  0  0  0  0  0  0  0999 V2000
   -5.1503   -3.2335    0.0000 O   0  0  0  0  0  0  0  0  0  0  0  0
   -4.2723   -2.0173    0.0000 C   0  0  0  0  0  0  0  0  0  0  0  0
   -4.8866   -0.6489    0.0000 N   0  0  0  0  0  0  0  0  0  0  0  0
   -6.3788   -0.4966    0.0000 C   0  0  0  0  0  0  0  0  0  0  0  0
   -6.9931    0.8719    0.0000 C   0  0  0  0  0  0  0  0  0  0  0  0
   -6.1151    2.0881    0.0000 C   0  0  0  0  0  0  0  0  0  0  0  0
   -6.7293    3.4565    0.0000 C   0  0  0  0  0  0  0  0  0  0  0  0
   -8.2216    3.6088    0.0000 C   0  0  0  0  0  0  0  0  0  0  0  0
   -9.0996    2.3926    0.0000 C   0  0  0  0  0  0  0  0  0  0  0  0
   -8.4853    1.0242    0.0000 C   0  0  0  0  0  0  0  0  0  0  0  0
   -9.3633   -0.1920    0.0000 Cl  0  0  0  0  0  0  0  0  0  0  0  0
   -2.7801   -2.1696    0.0000 C   0  0  0  0  0  0  0  0  0  0  0  0
   -2.1658   -3.5381    0.0000 C   0  0  0  0  0  0  0  0  0  0  0  0
   -0.6736   -3.6903    0.0000 C   0  0  0  0  0  0  0  0  0  0  0  0
    0.2044   -2.4742    0.0000 C   0  0  0  0  0  0  0  0  0  0  0  0
   -0.4098   -1.1057    0.0000 C   0  0  0  0  0  0  0  0  0  0  0  0
   -1.9021   -0.9534    0.0000 N   0  0  0  0  0  0  0  0  0  0  0  0
    0.4682    0.1105    0.0000 C   0  0  0  0  0  0  0  0  0  0  0  0
    1.9604   -0.0418    0.0000 N   0  0  0  0  0  0  0  0  0  0  0  0
    2.8384    1.1744    0.0000 C   0  0  0  0  0  0  0  0  0  0  0  0
    2.2242    2.5429    0.0000 O   0  0  0  0  0  0  0  0  0  0  0  0
    4.3307    1.0221    0.0000 C   0  0  0  0  0  0  0  0  0  0  0  0
    4.9449   -0.3463    0.0000 C   0  0  0  0  0  0  0  0  0  0  0  0
    6.4372   -0.4986    0.0000 C   0  0  0  0  0  0  0  0  0  0  0  0
    7.3152    0.7176    0.0000 C   0  0  0  0  0  0  0  0  0  0  0  0
    8.8074    0.5653    0.0000 C   0  0  0  0  0  0  0  0  0  0  0  0
   10.2997    0.4130    0.0000 F   0  0  0  0  0  0  0  0  0  0  0  0
    8.6552   -0.9269    0.0000 F   0  0  0  0  0  0  0  0  0  0  0  0
    8.9597    2.0576    0.0000 F   0  0  0  0  0  0  0  0  0  0  0  0
    6.7009    2.0861    0.0000 N   0  0  0  0  0  0  0  0  0  0  0  0
    5.2087    2.2383    0.0000 C   0  0  0  0  0  0  0  0  0  0  0  0
    2.5747   -1.4102    0.0000 C   0  0  0  0  0  0  0  0  0  0  0  0
    1.6967   -2.6264    0.0000 C   0  0  0  0  0  0  0  0  0  0  0  0
  1  2  2  0
  2  3  1  0
  3  4  1  0
  4  5  1  0
  5  6  2  0
  6  7  1  0
  7  8  2  0
  8  9  1  0
  9 10  2  0
 10 11  1  0
  2 12  1  0
 12 13  2  0
 13 14  1  0
 14 15  2  0
 15 16  1  0
 16 17  2  0
 16 18  1  0
 18 19  1  0
 19 20  1  0
 20 21  2  0
 20 22  1  0
 22 23  2  0
 23 24  1  0
 24 25  2  0
 25 26  1  0
 26 27  1  0
 26 28  1  0
 26 29  1  0
 25 30  1  0
 30 31  2  0
 19 32  1  0
 32 33  1  0
 10  5  1  0
 17 12  1  0
 31 22  1  0
 33 15  1  0
M  END
>  <Compound_ID>  (59) 
LIB059

>  <SMILES>  (59) 
O=C(NCc1ccccc1Cl)c1ccc2c(n1)CN(C(=O)c1ccc(C(F)(F)F)nc1)CC2

>  <R1_reagent>  (59) 
O=C(O)c1ccc(C(F)(F)F)nc1

>  <R1_ID>  (59) 
R-008753

>  <N_reaction>  (59) 
Amidation

>  <R2_amine>  (59) 
NCc1ccccc1Cl

>  <R2_ID>  (59) 
R-004751

>  <MW>  (59) 
474.9

>  <LogP>  (59) 
4.28

>  <HBD>  (59) 
1

>  <HBA>  (59) 
4

>  <RotB>  (59) 
4

>  <ASMS_similarity>  (59) 
0.6456

>  <Priority_tier>  (59) 
Tier2_medium

>  <Scaffold>  (59) 
OC(=O)c1ccc2CCNCc2n1

$$$$

     RDKit          2D

 32 35  0  0  0  0  0  0  0  0999 V2000
   -5.6336    5.2933    0.0000 C   0  0  0  0  0  0  0  0  0  0  0  0
   -6.7314    4.2711    0.0000 O   0  0  0  0  0  0  0  0  0  0  0  0
   -6.3950    2.8093    0.0000 C   0  0  0  0  0  0  0  0  0  0  0  0
   -4.9608    2.3697    0.0000 C   0  0  0  0  0  0  0  0  0  0  0  0
   -4.6245    0.9080    0.0000 C   0  0  0  0  0  0  0  0  0  0  0  0
   -5.7222   -0.1143    0.0000 C   0  0  0  0  0  0  0  0  0  0  0  0
   -5.3858   -1.5761    0.0000 C   0  0  0  0  0  0  0  0  0  0  0  0
   -6.4836   -2.5983    0.0000 O   0  0  0  0  0  0  0  0  0  0  0  0
   -3.9517   -2.0156    0.0000 N   0  0  0  0  0  0  0  0  0  0  0  0
   -3.6153   -3.4774    0.0000 C   0  0  0  0  0  0  0  0  0  0  0  0
   -2.1812   -3.9170    0.0000 C   0  0  0  0  0  0  0  0  0  0  0  0
   -1.0834   -2.8948    0.0000 C   0  0  0  0  0  0  0  0  0  0  0  0
    0.3507   -3.3344    0.0000 C   0  0  0  0  0  0  0  0  0  0  0  0
    1.4485   -2.3122    0.0000 C   0  0  0  0  0  0  0  0  0  0  0  0
    1.1121   -0.8504    0.0000 C   0  0  0  0  0  0  0  0  0  0  0  0
    2.2099    0.1718    0.0000 C   0  0  0  0  0  0  0  0  0  0  0  0
    1.8735    1.6336    0.0000 O   0  0  0  0  0  0  0  0  0  0  0  0
    3.6440   -0.2678    0.0000 N   0  0  0  0  0  0  0  0  0  0  0  0
    4.7418    0.7545    0.0000 C   0  0  0  0  0  0  0  0  0  0  0  0
    6.1759    0.3149    0.0000 C   0  0  0  0  0  0  0  0  0  0  0  0
    6.5123   -1.1469    0.0000 C   0  0  0  0  0  0  0  0  0  0  0  0
    7.9464   -1.5865    0.0000 C   0  0  0  0  0  0  0  0  0  0  0  0
    9.0442   -0.5643    0.0000 C   0  0  0  0  0  0  0  0  0  0  0  0
    8.7078    0.8975    0.0000 C   0  0  0  0  0  0  0  0  0  0  0  0
    7.2737    1.3371    0.0000 C   0  0  0  0  0  0  0  0  0  0  0  0
    6.9373    2.7989    0.0000 O   0  0  0  0  0  0  0  0  0  0  0  0
    8.0351    3.8211    0.0000 C   0  0  0  0  0  0  0  0  0  0  0  0
   -0.3220   -0.4108    0.0000 N   0  0  0  0  0  0  0  0  0  0  0  0
   -1.4198   -1.4330    0.0000 C   0  0  0  0  0  0  0  0  0  0  0  0
   -2.8539   -0.9934    0.0000 C   0  0  0  0  0  0  0  0  0  0  0  0
   -7.1564    0.3253    0.0000 C   0  0  0  0  0  0  0  0  0  0  0  0
   -7.4927    1.7871    0.0000 N   0  0  0  0  0  0  0  0  0  0  0  0
  1  2  1  0
  2  3  1  0
  3  4  2  0
  4  5  1  0
  5  6  2  0
  6  7  1  0
  7  8  2  0
  7  9  1  0
  9 10  1  0
 10 11  1  0
 11 12  1  0
 12 13  2  0
 13 14  1  0
 14 15  2  0
 15 16  1  0
 16 17  2  0
 16 18  1  0
 18 19  1  0
 19 20  1  0
 20 21  2  0
 21 22  1  0
 22 23  2  0
 23 24  1  0
 24 25  2  0
 25 26  1  0
 26 27  1  0
 15 28  1  0
 28 29  2  0
 29 30  1  0
  6 31  1  0
 31 32  2  0
 32  3  1  0
 30  9  1  0
 29 12  1  0
 25 20  1  0
M  END
>  <Compound_ID>  (60) 
LIB060

>  <SMILES>  (60) 
COc1ccc(C(=O)N2CCc3ccc(C(=O)NCc4ccccc4OC)nc3C2)cn1

>  <R1_reagent>  (60) 
COc1ccc(C(=O)O)cn1

>  <R1_ID>  (60) 
R-008524

>  <N_reaction>  (60) 
Amidation

>  <R2_amine>  (60) 
COc1ccccc1CN

>  <R2_ID>  (60) 
R-003963

>  <MW>  (60) 
432.5

>  <LogP>  (60) 
2.62

>  <HBD>  (60) 
1

>  <HBA>  (60) 
6

>  <RotB>  (60) 
6

>  <ASMS_similarity>  (60) 
0.6456

>  <Priority_tier>  (60) 
Tier2_medium

>  <Scaffold>  (60) 
OC(=O)c1ccc2CCNCc2n1

$$$$

     RDKit          2D

 33 36  0  0  0  0  0  0  0  0999 V2000
  -11.4720    3.8189    0.0000 C   0  0  0  0  0  0  0  0  0  0  0  0
  -10.9540    2.4111    0.0000 C   0  0  0  0  0  0  0  0  0  0  0  0
   -9.4759    2.1559    0.0000 O   0  0  0  0  0  0  0  0  0  0  0  0
   -8.9579    0.7481    0.0000 C   0  0  0  0  0  0  0  0  0  0  0  0
   -9.9180   -0.4043    0.0000 O   0  0  0  0  0  0  0  0  0  0  0  0
   -7.4798    0.4928    0.0000 N   0  0  0  0  0  0  0  0  0  0  0  0
   -6.5196    1.6453    0.0000 C   0  0  0  0  0  0  0  0  0  0  0  0
   -5.0415    1.3900    0.0000 C   0  0  0  0  0  0  0  0  0  0  0  0
   -4.5235   -0.0177    0.0000 C   0  0  0  0  0  0  0  0  0  0  0  0
   -3.0454   -0.2730    0.0000 N   0  0  0  0  0  0  0  0  0  0  0  0
   -2.5275   -1.6807    0.0000 C   0  0  0  0  0  0  0  0  0  0  0  0
   -3.4876   -2.8332    0.0000 O   0  0  0  0  0  0  0  0  0  0  0  0
   -1.0493   -1.9360    0.0000 C   0  0  0  0  0  0  0  0  0  0  0  0
   -0.5314   -3.3437    0.0000 C   0  0  0  0  0  0  0  0  0  0  0  0
    0.9468   -3.5990    0.0000 C   0  0  0  0  0  0  0  0  0  0  0  0
    1.9069   -2.4466    0.0000 C   0  0  0  0  0  0  0  0  0  0  0  0
    1.3889   -1.0388    0.0000 C   0  0  0  0  0  0  0  0  0  0  0  0
   -0.0892   -0.7835    0.0000 N   0  0  0  0  0  0  0  0  0  0  0  0
    2.3491    0.1136    0.0000 C   0  0  0  0  0  0  0  0  0  0  0  0
    3.8272   -0.1417    0.0000 N   0  0  0  0  0  0  0  0  0  0  0  0
    4.7873    1.0108    0.0000 C   0  0  0  0  0  0  0  0  0  0  0  0
    6.2654    0.7555    0.0000 C   0  0  0  0  0  0  0  0  0  0  0  0
    7.2256    1.9080    0.0000 C   0  0  0  0  0  0  0  0  0  0  0  0
    8.7037    1.6527    0.0000 C   0  0  0  0  0  0  0  0  0  0  0  0
    9.2217    0.2450    0.0000 C   0  0  0  0  0  0  0  0  0  0  0  0
   10.6998   -0.0103    0.0000 C   0  0  0  0  0  0  0  0  0  0  0  0
   11.6599    1.1421    0.0000 C   0  0  0  0  0  0  0  0  0  0  0  0
   11.1419    2.5499    0.0000 C   0  0  0  0  0  0  0  0  0  0  0  0
    9.6638    2.8051    0.0000 C   0  0  0  0  0  0  0  0  0  0  0  0
    4.3452   -1.5494    0.0000 C   0  0  0  0  0  0  0  0  0  0  0  0
    3.3850   -2.7018    0.0000 C   0  0  0  0  0  0  0  0  0  0  0  0
   -5.4837   -1.1702    0.0000 C   0  0  0  0  0  0  0  0  0  0  0  0
   -6.9618   -0.9149    0.0000 C   0  0  0  0  0  0  0  0  0  0  0  0
  1  2  1  0
  2  3  1  0
  3  4  1  0
  4  5  2  0
  4  6  1  0
  6  7  1  0
  7  8  1  0
  8  9  1  0
  9 10  1  0
 10 11  1  0
 11 12  2  0
 11 13  1  0
 13 14  2  0
 14 15  1  0
 15 16  2  0
 16 17  1  0
 17 18  2  0
 17 19  1  0
 19 20  1  0
 20 21  1  0
 21 22  1  0
 22 23  1  0
 23 24  1  0
 24 25  2  0
 25 26  1  0
 26 27  2  0
 27 28  1  0
 28 29  2  0
 20 30  1  0
 30 31  1  0
  9 32  1  0
 32 33  1  0
 33  6  1  0
 18 13  1  0
 29 24  1  0
 31 16  1  0
M  END
>  <Compound_ID>  (61) 
LIB061

>  <SMILES>  (61) 
CCOC(=O)N1CCC(NC(=O)c2ccc3c(n2)CN(CCCc2ccccc2)CC3)CC1

>  <R1_reagent>  (61) 
O=CCCc1ccccc1

>  <R1_ID>  (61) 
R-004109

>  <N_reaction>  (61) 
Reductive_amination

>  <R2_amine>  (61) 
CCOC(=O)N1CCC(N)CC1

>  <R2_ID>  (61) 
R-002204

>  <MW>  (61) 
450.6

>  <LogP>  (61) 
3.42

>  <HBD>  (61) 
1

>  <HBA>  (61) 
5

>  <RotB>  (61) 
7

>  <ASMS_similarity>  (61) 
0.6447

>  <Priority_tier>  (61) 
Tier2_medium

>  <Scaffold>  (61) 
OC(=O)c1ccc2CCNCc2n1

$$$$

     RDKit          2D

 29 31  0  0  0  0  0  0  0  0999 V2000
   -8.9222    0.5574    0.0000 C   0  0  0  0  0  0  0  0  0  0  0  0
   -9.4432   -0.8492    0.0000 C   0  0  0  0  0  0  0  0  0  0  0  0
   -9.9642   -2.2558    0.0000 C   0  0  0  0  0  0  0  0  0  0  0  0
  -10.8498   -0.3282    0.0000 O   0  0  0  0  0  0  0  0  0  0  0  0
   -8.0366   -1.3702    0.0000 C   0  0  0  0  0  0  0  0  0  0  0  0
   -6.8821   -0.4125    0.0000 C   0  0  0  0  0  0  0  0  0  0  0  0
   -5.4755   -0.9335    0.0000 C   0  0  0  0  0  0  0  0  0  0  0  0
   -4.3210    0.0241    0.0000 C   0  0  0  0  0  0  0  0  0  0  0  0
   -2.9144   -0.4969    0.0000 C   0  0  0  0  0  0  0  0  0  0  0  0
   -2.6623   -1.9755    0.0000 O   0  0  0  0  0  0  0  0  0  0  0  0
   -1.7599    0.4608    0.0000 N   0  0  0  0  0  0  0  0  0  0  0  0
   -2.0120    1.9394    0.0000 C   0  0  0  0  0  0  0  0  0  0  0  0
   -0.8575    2.8971    0.0000 C   0  0  0  0  0  0  0  0  0  0  0  0
    0.5491    2.3761    0.0000 C   0  0  0  0  0  0  0  0  0  0  0  0
    1.7037    3.3338    0.0000 C   0  0  0  0  0  0  0  0  0  0  0  0
    3.1103    2.8127    0.0000 C   0  0  0  0  0  0  0  0  0  0  0  0
    3.3624    1.3341    0.0000 C   0  0  0  0  0  0  0  0  0  0  0  0
    4.7690    0.8131    0.0000 C   0  0  0  0  0  0  0  0  0  0  0  0
    5.9235    1.7707    0.0000 O   0  0  0  0  0  0  0  0  0  0  0  0
    5.0211   -0.6656    0.0000 N   0  0  0  0  0  0  0  0  0  0  0  0
    6.4277   -1.1866    0.0000 C   0  0  0  0  0  0  0  0  0  0  0  0
    6.6798   -2.6652    0.0000 C   0  0  0  0  0  0  0  0  0  0  0  0
    8.0864   -3.1863    0.0000 C   0  0  0  0  0  0  0  0  0  0  0  0
    9.2409   -2.2286    0.0000 C   0  0  0  0  0  0  0  0  0  0  0  0
    8.9888   -0.7499    0.0000 C   0  0  0  0  0  0  0  0  0  0  0  0
    7.5822   -0.2289    0.0000 C   0  0  0  0  0  0  0  0  0  0  0  0
    2.2079    0.3764    0.0000 N   0  0  0  0  0  0  0  0  0  0  0  0
    0.8013    0.8974    0.0000 C   0  0  0  0  0  0  0  0  0  0  0  0
   -0.3533   -0.0602    0.0000 C   0  0  0  0  0  0  0  0  0  0  0  0
  1  2  1  0
  2  3  1  0
  2  4  1  0
  2  5  1  0
  5  6  1  0
  6  7  1  0
  7  8  1  0
  8  9  1  0
  9 10  2  0
  9 11  1  0
 11 12  1  0
 12 13  1  0
 13 14  1  0
 14 15  2  0
 15 16  1  0
 16 17  2  0
 17 18  1  0
 18 19  2  0
 18 20  1  0
 20 21  1  0
 21 22  2  0
 22 23  1  0
 23 24  2  0
 24 25  1  0
 25 26  2  0
 17 27  1  0
 27 28  2  0
 28 29  1  0
 29 11  1  0
 28 14  1  0
 26 21  1  0
M  END
>  <Compound_ID>  (62) 
LIB062

>  <SMILES>  (62) 
CC(C)(O)CCCCC(=O)N1CCc2ccc(C(=O)Nc3ccccc3)nc2C1

>  <R1_reagent>  (62) 
CC(C)(O)CCCCC(=O)O

>  <R1_ID>  (62) 
R-010196

>  <N_reaction>  (62) 
Amidation

>  <R2_amine>  (62) 
Nc1ccccc1

>  <R2_ID>  (62) 
R-001898

>  <MW>  (62) 
395.5

>  <LogP>  (62) 
3.55

>  <HBD>  (62) 
2

>  <HBA>  (62) 
4

>  <RotB>  (62) 
7

>  <ASMS_similarity>  (62) 
0.6429

>  <Priority_tier>  (62) 
Tier2_medium

>  <Scaffold>  (62) 
OC(=O)c1ccc2CCNCc2n1

$$$$

     RDKit          2D

 29 31  0  0  0  0  0  0  0  0999 V2000
  -10.9679   -3.5192    0.0000 C   0  0  0  0  0  0  0  0  0  0  0  0
  -10.0694   -2.3181    0.0000 C   0  0  0  0  0  0  0  0  0  0  0  0
   -8.5800   -2.4957    0.0000 C   0  0  0  0  0  0  0  0  0  0  0  0
   -7.6814   -1.2946    0.0000 C   0  0  0  0  0  0  0  0  0  0  0  0
   -6.1920   -1.4722    0.0000 C   0  0  0  0  0  0  0  0  0  0  0  0
   -5.2935   -0.2711    0.0000 N   0  0  0  0  0  0  0  0  0  0  0  0
   -5.8844    1.1076    0.0000 C   0  0  0  0  0  0  0  0  0  0  0  0
   -4.9859    2.3087    0.0000 C   0  0  0  0  0  0  0  0  0  0  0  0
   -3.4964    2.1311    0.0000 C   0  0  0  0  0  0  0  0  0  0  0  0
   -2.5979    3.3322    0.0000 C   0  0  0  0  0  0  0  0  0  0  0  0
   -1.1084    3.1546    0.0000 C   0  0  0  0  0  0  0  0  0  0  0  0
   -0.5175    1.7760    0.0000 C   0  0  0  0  0  0  0  0  0  0  0  0
    0.9719    1.5984    0.0000 C   0  0  0  0  0  0  0  0  0  0  0  0
    1.8705    2.7995    0.0000 O   0  0  0  0  0  0  0  0  0  0  0  0
    1.5629    0.2197    0.0000 N   0  0  0  0  0  0  0  0  0  0  0  0
    3.0523    0.0421    0.0000 C   0  0  0  0  0  0  0  0  0  0  0  0
    3.6432   -1.3366    0.0000 C   0  0  0  0  0  0  0  0  0  0  0  0
    5.1327   -1.5142    0.0000 C   0  0  0  0  0  0  0  0  0  0  0  0
    6.0312   -0.3131    0.0000 N   0  0  0  0  0  0  0  0  0  0  0  0
    7.5207   -0.4907    0.0000 C   0  0  0  0  0  0  0  0  0  0  0  0
    8.4192    0.7104    0.0000 O   0  0  0  0  0  0  0  0  0  0  0  0
    8.1116   -1.8694    0.0000 O   0  0  0  0  0  0  0  0  0  0  0  0
    9.6010   -2.0470    0.0000 C   0  0  0  0  0  0  0  0  0  0  0  0
   10.1920   -3.4257    0.0000 C   0  0  0  0  0  0  0  0  0  0  0  0
    5.4403    1.0656    0.0000 C   0  0  0  0  0  0  0  0  0  0  0  0
    3.9508    1.2432    0.0000 C   0  0  0  0  0  0  0  0  0  0  0  0
   -1.4160    0.5748    0.0000 N   0  0  0  0  0  0  0  0  0  0  0  0
   -2.9055    0.7524    0.0000 C   0  0  0  0  0  0  0  0  0  0  0  0
   -3.8040   -0.4487    0.0000 C   0  0  0  0  0  0  0  0  0  0  0  0
  1  2  1  0
  2  3  1  0
  3  4  1  0
  4  5  1  0
  5  6  1  0
  6  7  1  0
  7  8  1  0
  8  9  1  0
  9 10  2  0
 10 11  1  0
 11 12  2  0
 12 13  1  0
 13 14  2  0
 13 15  1  0
 15 16  1  0
 16 17  1  0
 17 18  1  0
 18 19  1  0
 19 20  1  0
 20 21  2  0
 20 22  1  0
 22 23  1  0
 23 24  1  0
 19 25  1  0
 25 26  1  0
 12 27  1  0
 27 28  2  0
 28 29  1  0
 29  6  1  0
 28  9  1  0
 26 16  1  0
M  END
>  <Compound_ID>  (63) 
LIB063

>  <SMILES>  (63) 
CCCCCN1CCc2ccc(C(=O)NC3CCN(C(=O)OCC)CC3)nc2C1

>  <R1_reagent>  (63) 
CCCCC=O

>  <R1_ID>  (63) 
R-005600

>  <N_reaction>  (63) 
Reductive_amination

>  <R2_amine>  (63) 
CCOC(=O)N1CCC(N)CC1

>  <R2_ID>  (63) 
R-002204

>  <MW>  (63) 
402.5

>  <LogP>  (63) 
2.98

>  <HBD>  (63) 
1

>  <HBA>  (63) 
5

>  <RotB>  (63) 
7

>  <ASMS_similarity>  (63) 
0.6389

>  <Priority_tier>  (63) 
Tier2_medium

>  <Scaffold>  (63) 
OC(=O)c1ccc2CCNCc2n1

$$$$

     RDKit          2D

 35 38  0  0  0  0  0  0  0  0999 V2000
  -10.6726    0.8553    0.0000 C   0  0  0  0  0  0  0  0  0  0  0  0
   -9.2771    0.3053    0.0000 O   0  0  0  0  0  0  0  0  0  0  0  0
   -8.1030    1.2388    0.0000 C   0  0  0  0  0  0  0  0  0  0  0  0
   -8.3244    2.7224    0.0000 C   0  0  0  0  0  0  0  0  0  0  0  0
   -7.1503    3.6559    0.0000 C   0  0  0  0  0  0  0  0  0  0  0  0
   -5.7548    3.1059    0.0000 C   0  0  0  0  0  0  0  0  0  0  0  0
   -5.5334    1.6224    0.0000 C   0  0  0  0  0  0  0  0  0  0  0  0
   -6.7075    0.6888    0.0000 C   0  0  0  0  0  0  0  0  0  0  0  0
   -6.4860   -0.7948    0.0000 C   0  0  0  0  0  0  0  0  0  0  0  0
   -7.6601   -1.7283    0.0000 O   0  0  0  0  0  0  0  0  0  0  0  0
   -5.0905   -1.3448    0.0000 N   0  0  0  0  0  0  0  0  0  0  0  0
   -4.8691   -2.8283    0.0000 C   0  0  0  0  0  0  0  0  0  0  0  0
   -3.4736   -3.3784    0.0000 C   0  0  0  0  0  0  0  0  0  0  0  0
   -2.2995   -2.4448    0.0000 C   0  0  0  0  0  0  0  0  0  0  0  0
   -0.9040   -2.9948    0.0000 C   0  0  0  0  0  0  0  0  0  0  0  0
    0.2701   -2.0613    0.0000 C   0  0  0  0  0  0  0  0  0  0  0  0
    0.0487   -0.5777    0.0000 C   0  0  0  0  0  0  0  0  0  0  0  0
    1.2228    0.3558    0.0000 C   0  0  0  0  0  0  0  0  0  0  0  0
    1.0014    1.8394    0.0000 O   0  0  0  0  0  0  0  0  0  0  0  0
    2.6183   -0.1942    0.0000 N   0  0  0  0  0  0  0  0  0  0  0  0
    3.7924    0.7394    0.0000 C   0  0  0  0  0  0  0  0  0  0  0  0
    5.1879    0.1894    0.0000 C   0  0  0  0  0  0  0  0  0  0  0  0
    5.4094   -1.2942    0.0000 C   0  0  0  0  0  0  0  0  0  0  0  0
    6.8049   -1.8442    0.0000 C   0  0  0  0  0  0  0  0  0  0  0  0
    7.9790   -0.9107    0.0000 C   0  0  0  0  0  0  0  0  0  0  0  0
    7.7575    0.5729    0.0000 C   0  0  0  0  0  0  0  0  0  0  0  0
    8.9316    1.5064    0.0000 O   0  0  0  0  0  0  0  0  0  0  0  0
   10.3271    0.9564    0.0000 C   0  0  0  0  0  0  0  0  0  0  0  0
   11.7227    0.4064    0.0000 F   0  0  0  0  0  0  0  0  0  0  0  0
   10.8772    2.3519    0.0000 F   0  0  0  0  0  0  0  0  0  0  0  0
    9.7771   -0.4391    0.0000 F   0  0  0  0  0  0  0  0  0  0  0  0
    6.3620    1.1229    0.0000 C   0  0  0  0  0  0  0  0  0  0  0  0
   -1.3468   -0.0277    0.0000 N   0  0  0  0  0  0  0  0  0  0  0  0
   -2.5209   -0.9612    0.0000 C   0  0  0  0  0  0  0  0  0  0  0  0
   -3.9164   -0.4112    0.0000 C   0  0  0  0  0  0  0  0  0  0  0  0
  1  2  1  0
  2  3  1  0
  3  4  2  0
  4  5  1  0
  5  6  2  0
  6  7  1  0
  7  8  2  0
  8  9  1  0
  9 10  2  0
  9 11  1  0
 11 12  1  0
 12 13  1  0
 13 14  1  0
 14 15  2  0
 15 16  1  0
 16 17  2  0
 17 18  1  0
 18 19  2  0
 18 20  1  0
 20 21  1  0
 21 22  1  0
 22 23  2  0
 23 24  1  0
 24 25  2  0
 25 26  1  0
 26 27  1  0
 27 28  1  0
 28 29  1  0
 28 30  1  0
 28 31  1  0
 26 32  2  0
 17 33  1  0
 33 34  2  0
 34 35  1  0
  8  3  1  0
 35 11  1  0
 34 14  1  0
 32 22  1  0
M  END
>  <Compound_ID>  (64) 
LIB064

>  <SMILES>  (64) 
COc1ccccc1C(=O)N1CCc2ccc(C(=O)NCc3cccc(OC(F)(F)F)c3)nc2C1

>  <R1_reagent>  (64) 
COc1ccccc1C(=O)Cl

>  <R1_ID>  (64) 
R-006557

>  <N_reaction>  (64) 
Amidation

>  <R2_amine>  (64) 
NCc1cccc(OC(F)(F)F)c1

>  <R2_ID>  (64) 
R-003869

>  <MW>  (64) 
485.5

>  <LogP>  (64) 
4.12

>  <HBD>  (64) 
1

>  <HBA>  (64) 
5

>  <RotB>  (64) 
6

>  <ASMS_similarity>  (64) 
0.6375

>  <Priority_tier>  (64) 
Tier2_medium

>  <Scaffold>  (64) 
OC(=O)c1ccc2CCNCc2n1

$$$$

     RDKit          2D

 29 32  0  0  0  0  0  0  0  0999 V2000
   -6.5720    4.4507    0.0000 C   0  0  0  0  0  0  0  0  0  0  0  0
   -6.1838    3.0018    0.0000 C   0  0  0  0  0  0  0  0  0  0  0  0
   -4.7349    2.6136    0.0000 C   0  0  0  0  0  0  0  0  0  0  0  0
   -4.3467    1.1647    0.0000 N   0  0  0  0  0  0  0  0  0  0  0  0
   -5.4073    0.1040    0.0000 C   0  0  0  0  0  0  0  0  0  0  0  0
   -5.0191   -1.3449    0.0000 C   0  0  0  0  0  0  0  0  0  0  0  0
   -6.0798   -2.4055    0.0000 O   0  0  0  0  0  0  0  0  0  0  0  0
   -3.5702   -1.7331    0.0000 N   0  0  0  0  0  0  0  0  0  0  0  0
   -3.1820   -3.1820    0.0000 C   0  0  0  0  0  0  0  0  0  0  0  0
   -1.7331   -3.5702    0.0000 C   0  0  0  0  0  0  0  0  0  0  0  0
   -0.6724   -2.5095    0.0000 C   0  0  0  0  0  0  0  0  0  0  0  0
    0.7765   -2.8978    0.0000 C   0  0  0  0  0  0  0  0  0  0  0  0
    1.8371   -1.8371    0.0000 C   0  0  0  0  0  0  0  0  0  0  0  0
    1.4489   -0.3882    0.0000 C   0  0  0  0  0  0  0  0  0  0  0  0
    2.5095    0.6724    0.0000 C   0  0  0  0  0  0  0  0  0  0  0  0
    2.1213    2.1213    0.0000 O   0  0  0  0  0  0  0  0  0  0  0  0
    3.9584    0.2842    0.0000 N   0  0  0  0  0  0  0  0  0  0  0  0
    5.0191    1.3449    0.0000 C   0  0  0  0  0  0  0  0  0  0  0  0
    6.4680    0.9566    0.0000 C   0  0  0  0  0  0  0  0  0  0  0  0
    6.8562   -0.4923    0.0000 C   0  0  0  0  0  0  0  0  0  0  0  0
    8.3051   -0.8805    0.0000 C   0  0  0  0  0  0  0  0  0  0  0  0
    9.3658    0.1802    0.0000 C   0  0  0  0  0  0  0  0  0  0  0  0
    8.9775    1.6291    0.0000 C   0  0  0  0  0  0  0  0  0  0  0  0
    7.5286    2.0173    0.0000 N   0  0  0  0  0  0  0  0  0  0  0  0
   -0.0000   -0.0000    0.0000 N   0  0  0  0  0  0  0  0  0  0  0  0
   -1.0607   -1.0607    0.0000 C   0  0  0  0  0  0  0  0  0  0  0  0
   -2.5095   -0.6724    0.0000 C   0  0  0  0  0  0  0  0  0  0  0  0
   -6.8562    0.4923    0.0000 C   0  0  0  0  0  0  0  0  0  0  0  0
   -7.2444    1.9411    0.0000 N   0  0  0  0  0  0  0  0  0  0  0  0
  1  2  1  0
  2  3  2  0
  3  4  1  0
  4  5  2  0
  5  6  1  0
  6  7  2  0
  6  8  1  0
  8  9  1  0
  9 10  1  0
 10 11  1  0
 11 12  2  0
 12 13  1  0
 13 14  2  0
 14 15  1  0
 15 16  2  0
 15 17  1  0
 17 18  1  0
 18 19  1  0
 19 20  2  0
 20 21  1  0
 21 22  2  0
 22 23  1  0
 23 24  2  0
 14 25  1  0
 25 26  2  0
 26 27  1  0
  5 28  1  0
 28 29  2  0
 29  2  1  0
 27  8  1  0
 26 11  1  0
 24 19  1  0
M  END
>  <Compound_ID>  (65) 
LIB065

>  <SMILES>  (65) 
Cc1cnc(C(=O)N2CCc3ccc(C(=O)NCc4ccccn4)nc3C2)cn1

>  <R1_reagent>  (65) 
Cc1cnc(C(=O)O)cn1

>  <R1_ID>  (65) 
R-001177

>  <N_reaction>  (65) 
Amidation

>  <R2_amine>  (65) 
NCc1ccccn1

>  <R2_ID>  (65) 
R-004572

>  <MW>  (65) 
388.4

>  <LogP>  (65) 
1.7

>  <HBD>  (65) 
1

>  <HBA>  (65) 
6

>  <RotB>  (65) 
4

>  <ASMS_similarity>  (65) 
0.6364

>  <Priority_tier>  (65) 
Tier2_medium

>  <Scaffold>  (65) 
OC(=O)c1ccc2CCNCc2n1

$$$$

     RDKit          2D

 31 34  0  0  0  0  0  0  0  0999 V2000
   -5.6153   -1.9090    0.0000 O   0  0  0  0  0  0  0  0  0  0  0  0
   -4.4718   -0.9382    0.0000 C   0  0  0  0  0  0  0  0  0  0  0  0
   -4.7409    0.5375    0.0000 N   0  0  0  0  0  0  0  0  0  0  0  0
   -6.1533    1.0423    0.0000 C   0  0  0  0  0  0  0  0  0  0  0  0
   -6.4224    2.5180    0.0000 C   0  0  0  0  0  0  0  0  0  0  0  0
   -7.8348    3.0229    0.0000 C   0  0  0  0  0  0  0  0  0  0  0  0
   -8.9783    2.0521    0.0000 O   0  0  0  0  0  0  0  0  0  0  0  0
   -8.7093    0.5764    0.0000 C   0  0  0  0  0  0  0  0  0  0  0  0
   -7.2968    0.0715    0.0000 C   0  0  0  0  0  0  0  0  0  0  0  0
   -3.0593   -1.4431    0.0000 C   0  0  0  0  0  0  0  0  0  0  0  0
   -2.7903   -2.9187    0.0000 C   0  0  0  0  0  0  0  0  0  0  0  0
   -1.3778   -3.4236    0.0000 C   0  0  0  0  0  0  0  0  0  0  0  0
   -0.2344   -2.4528    0.0000 C   0  0  0  0  0  0  0  0  0  0  0  0
   -0.5034   -0.9771    0.0000 C   0  0  0  0  0  0  0  0  0  0  0  0
   -1.9159   -0.4722    0.0000 N   0  0  0  0  0  0  0  0  0  0  0  0
    0.6401   -0.0063    0.0000 C   0  0  0  0  0  0  0  0  0  0  0  0
    2.0526   -0.5111    0.0000 N   0  0  0  0  0  0  0  0  0  0  0  0
    3.1960    0.4597    0.0000 C   0  0  0  0  0  0  0  0  0  0  0  0
    2.9270    1.9354    0.0000 O   0  0  0  0  0  0  0  0  0  0  0  0
    4.6085   -0.0452    0.0000 C   0  0  0  0  0  0  0  0  0  0  0  0
    4.8775   -1.5209    0.0000 N   0  0  0  0  0  0  0  0  0  0  0  0
    6.2900   -2.0257    0.0000 C   0  0  0  0  0  0  0  0  0  0  0  0
    7.4335   -1.0549    0.0000 C   0  0  0  0  0  0  0  0  0  0  0  0
    7.1645    0.4208    0.0000 C   0  0  0  0  0  0  0  0  0  0  0  0
    5.7520    0.9256    0.0000 C   0  0  0  0  0  0  0  0  0  0  0  0
    5.4829    2.4013    0.0000 C   0  0  0  0  0  0  0  0  0  0  0  0
    5.2139    3.8770    0.0000 F   0  0  0  0  0  0  0  0  0  0  0  0
    6.9586    2.6703    0.0000 F   0  0  0  0  0  0  0  0  0  0  0  0
    4.0073    2.1323    0.0000 F   0  0  0  0  0  0  0  0  0  0  0  0
    2.3216   -1.9868    0.0000 C   0  0  0  0  0  0  0  0  0  0  0  0
    1.1781   -2.9576    0.0000 C   0  0  0  0  0  0  0  0  0  0  0  0
  1  2  2  0
  2  3  1  0
  3  4  1  0
  4  5  1  0
  5  6  1  0
  6  7  1  0
  7  8  1  0
  8  9  1  0
  2 10  1  0
 10 11  2  0
 11 12  1  0
 12 13  2  0
 13 14  1  0
 14 15  2  0
 14 16  1  0
 16 17  1  0
 17 18  1  0
 18 19  2  0
 18 20  1  0
 20 21  2  0
 21 22  1  0
 22 23  2  0
 23 24  1  0
 24 25  2  0
 25 26  1  0
 26 27  1  0
 26 28  1  0
 26 29  1  0
 17 30  1  0
 30 31  1  0
  9  4  1  0
 15 10  1  0
 25 20  1  0
 31 13  1  0
M  END
>  <Compound_ID>  (66) 
LIB066

>  <SMILES>  (66) 
O=C(NC1CCOCC1)c1ccc2c(n1)CN(C(=O)c1ncccc1C(F)(F)F)CC2

>  <R1_reagent>  (66) 
O=C(O)c1ncccc1C(F)(F)F

>  <R1_ID>  (66) 
R-008789

>  <N_reaction>  (66) 
Amidation

>  <R2_amine>  (66) 
Cl.NC1CCOCC1

>  <R2_ID>  (66) 
R-001645

>  <MW>  (66) 
434.4

>  <LogP>  (66) 
2.6

>  <HBD>  (66) 
1

>  <HBA>  (66) 
5

>  <RotB>  (66) 
3

>  <ASMS_similarity>  (66) 
0.6338

>  <Priority_tier>  (66) 
Tier2_medium

>  <Scaffold>  (66) 
OC(=O)c1ccc2CCNCc2n1

$$$$

     RDKit          2D

 34 37  0  0  0  0  0  0  0  0999 V2000
   -9.4920    3.0339    0.0000 C   0  0  0  0  0  0  0  0  0  0  0  0
   -8.0918    2.4958    0.0000 C   0  0  0  0  0  0  0  0  0  0  0  0
   -6.9257    3.4393    0.0000 C   0  0  0  0  0  0  0  0  0  0  0  0
   -5.5255    2.9012    0.0000 C   0  0  0  0  0  0  0  0  0  0  0  0
   -5.2915    1.4196    0.0000 C   0  0  0  0  0  0  0  0  0  0  0  0
   -3.8913    0.8815    0.0000 Cl  0  0  0  0  0  0  0  0  0  0  0  0
   -6.4576    0.4761    0.0000 C   0  0  0  0  0  0  0  0  0  0  0  0
   -6.2235   -1.0055    0.0000 C   0  0  0  0  0  0  0  0  0  0  0  0
   -7.3896   -1.9491    0.0000 O   0  0  0  0  0  0  0  0  0  0  0  0
   -4.8233   -1.5436    0.0000 N   0  0  0  0  0  0  0  0  0  0  0  0
   -4.5892   -3.0253    0.0000 C   0  0  0  0  0  0  0  0  0  0  0  0
   -3.1891   -3.5634    0.0000 C   0  0  0  0  0  0  0  0  0  0  0  0
   -2.0230   -2.6198    0.0000 C   0  0  0  0  0  0  0  0  0  0  0  0
   -0.6228   -3.1579    0.0000 C   0  0  0  0  0  0  0  0  0  0  0  0
    0.5432   -2.2144    0.0000 C   0  0  0  0  0  0  0  0  0  0  0  0
    0.3092   -0.7328    0.0000 C   0  0  0  0  0  0  0  0  0  0  0  0
    1.4753    0.2107    0.0000 C   0  0  0  0  0  0  0  0  0  0  0  0
    1.2412    1.6924    0.0000 O   0  0  0  0  0  0  0  0  0  0  0  0
    2.8754   -0.3274    0.0000 N   0  0  0  0  0  0  0  0  0  0  0  0
    4.0415    0.6162    0.0000 C   0  0  0  0  0  0  0  0  0  0  0  0
    5.4417    0.0781    0.0000 C   0  0  0  0  0  0  0  0  0  0  0  0
    5.6757   -1.4036    0.0000 C   0  0  0  0  0  0  0  0  0  0  0  0
    7.0759   -1.9417    0.0000 C   0  0  0  0  0  0  0  0  0  0  0  0
    8.2420   -0.9981    0.0000 C   0  0  0  0  0  0  0  0  0  0  0  0
    8.0079    0.4835    0.0000 C   0  0  0  0  0  0  0  0  0  0  0  0
    9.1740    1.4270    0.0000 C   0  0  0  0  0  0  0  0  0  0  0  0
   10.3401    2.3705    0.0000 F   0  0  0  0  0  0  0  0  0  0  0  0
   10.1175    0.2609    0.0000 F   0  0  0  0  0  0  0  0  0  0  0  0
    8.2305    2.5931    0.0000 F   0  0  0  0  0  0  0  0  0  0  0  0
    6.6078    1.0216    0.0000 C   0  0  0  0  0  0  0  0  0  0  0  0
   -1.0910   -0.1947    0.0000 N   0  0  0  0  0  0  0  0  0  0  0  0
   -2.2571   -1.1382    0.0000 C   0  0  0  0  0  0  0  0  0  0  0  0
   -3.6572   -0.6001    0.0000 C   0  0  0  0  0  0  0  0  0  0  0  0
   -7.8577    1.0142    0.0000 C   0  0  0  0  0  0  0  0  0  0  0  0
  1  2  1  0
  2  3  2  0
  3  4  1  0
  4  5  2  0
  5  6  1  0
  5  7  1  0
  7  8  1  0
  8  9  2  0
  8 10  1  0
 10 11  1  0
 11 12  1  0
 12 13  1  0
 13 14  2  0
 14 15  1  0
 15 16  2  0
 16 17  1  0
 17 18  2  0
 17 19  1  0
 19 20  1  0
 20 21  1  0
 21 22  2  0
 22 23  1  0
 23 24  2  0
 24 25  1  0
 25 26  1  0
 26 27  1  0
 26 28  1  0
 26 29  1  0
 25 30  2  0
 16 31  1  0
 31 32  2  0
 32 33  1  0
  7 34  2  0
 34  2  1  0
 33 10  1  0
 32 13  1  0
 30 21  1  0
M  END
>  <Compound_ID>  (67) 
LIB067

>  <SMILES>  (67) 
Cc1ccc(Cl)c(C(=O)N2CCc3ccc(C(=O)NCc4cccc(C(F)(F)F)c4)nc3C2)c1

>  <R1_reagent>  (67) 
Cc1ccc(Cl)c(C(=O)O)c1

>  <R1_ID>  (67) 
R-009721

>  <N_reaction>  (67) 
Amidation

>  <R2_amine>  (67) 
NCc1cccc(C(F)(F)F)c1

>  <R2_ID>  (67) 
R-002810

>  <MW>  (67) 
487.9

>  <LogP>  (67) 
5.19

>  <HBD>  (67) 
1

>  <HBA>  (67) 
3

>  <RotB>  (67) 
4

>  <ASMS_similarity>  (67) 
0.6329

>  <Priority_tier>  (67) 
Tier2_medium

>  <Scaffold>  (67) 
OC(=O)c1ccc2CCNCc2n1

$$$$

     RDKit          2D

 35 38  0  0  0  0  0  0  0  0999 V2000
   -9.9524    2.9938    0.0000 C   0  0  0  0  0  0  0  0  0  0  0  0
   -8.5467    2.4702    0.0000 C   0  0  0  0  0  0  0  0  0  0  0  0
   -7.3905    3.4258    0.0000 C   0  0  0  0  0  0  0  0  0  0  0  0
   -5.9848    2.9023    0.0000 C   0  0  0  0  0  0  0  0  0  0  0  0
   -5.7354    1.4232    0.0000 C   0  0  0  0  0  0  0  0  0  0  0  0
   -4.3297    0.8997    0.0000 Cl  0  0  0  0  0  0  0  0  0  0  0  0
   -6.8916    0.4676    0.0000 C   0  0  0  0  0  0  0  0  0  0  0  0
   -6.6422   -1.0115    0.0000 C   0  0  0  0  0  0  0  0  0  0  0  0
   -7.7984   -1.9671    0.0000 O   0  0  0  0  0  0  0  0  0  0  0  0
   -5.2365   -1.5350    0.0000 N   0  0  0  0  0  0  0  0  0  0  0  0
   -4.9870   -3.0142    0.0000 C   0  0  0  0  0  0  0  0  0  0  0  0
   -3.5814   -3.5377    0.0000 C   0  0  0  0  0  0  0  0  0  0  0  0
   -2.4251   -2.5821    0.0000 C   0  0  0  0  0  0  0  0  0  0  0  0
   -1.0195   -3.1056    0.0000 C   0  0  0  0  0  0  0  0  0  0  0  0
    0.1368   -2.1501    0.0000 C   0  0  0  0  0  0  0  0  0  0  0  0
   -0.1127   -0.6709    0.0000 C   0  0  0  0  0  0  0  0  0  0  0  0
    1.0435    0.2846    0.0000 C   0  0  0  0  0  0  0  0  0  0  0  0
    0.7941    1.7638    0.0000 O   0  0  0  0  0  0  0  0  0  0  0  0
    2.4492   -0.2389    0.0000 N   0  0  0  0  0  0  0  0  0  0  0  0
    3.6054    0.7167    0.0000 C   0  0  0  0  0  0  0  0  0  0  0  0
    5.0111    0.1932    0.0000 C   0  0  0  0  0  0  0  0  0  0  0  0
    5.2606   -1.2859    0.0000 C   0  0  0  0  0  0  0  0  0  0  0  0
    6.6662   -1.8095    0.0000 C   0  0  0  0  0  0  0  0  0  0  0  0
    7.8225   -0.8539    0.0000 C   0  0  0  0  0  0  0  0  0  0  0  0
    7.5730    0.6252    0.0000 C   0  0  0  0  0  0  0  0  0  0  0  0
    8.7292    1.5808    0.0000 O   0  0  0  0  0  0  0  0  0  0  0  0
   10.1349    1.0573    0.0000 C   0  0  0  0  0  0  0  0  0  0  0  0
   11.5406    0.5337    0.0000 F   0  0  0  0  0  0  0  0  0  0  0  0
   10.6584    2.4629    0.0000 F   0  0  0  0  0  0  0  0  0  0  0  0
    9.6114   -0.3484    0.0000 F   0  0  0  0  0  0  0  0  0  0  0  0
    6.1673    1.1487    0.0000 C   0  0  0  0  0  0  0  0  0  0  0  0
   -1.5184   -0.1474    0.0000 N   0  0  0  0  0  0  0  0  0  0  0  0
   -2.6746   -1.1030    0.0000 C   0  0  0  0  0  0  0  0  0  0  0  0
   -4.0803   -0.5795    0.0000 C   0  0  0  0  0  0  0  0  0  0  0  0
   -8.2973    0.9911    0.0000 C   0  0  0  0  0  0  0  0  0  0  0  0
  1  2  1  0
  2  3  2  0
  3  4  1  0
  4  5  2  0
  5  6  1  0
  5  7  1  0
  7  8  1  0
  8  9  2  0
  8 10  1  0
 10 11  1  0
 11 12  1  0
 12 13  1  0
 13 14  2  0
 14 15  1  0
 15 16  2  0
 16 17  1  0
 17 18  2  0
 17 19  1  0
 19 20  1  0
 20 21  1  0
 21 22  2  0
 22 23  1  0
 23 24  2  0
 24 25  1  0
 25 26  1  0
 26 27  1  0
 27 28  1  0
 27 29  1  0
 27 30  1  0
 25 31  2  0
 16 32  1  0
 32 33  2  0
 33 34  1  0
  7 35  2  0
 35  2  1  0
 34 10  1  0
 33 13  1  0
 31 21  1  0
M  END
>  <Compound_ID>  (68) 
LIB068

>  <SMILES>  (68) 
Cc1ccc(Cl)c(C(=O)N2CCc3ccc(C(=O)NCc4cccc(OC(F)(F)F)c4)nc3C2)c1

>  <R1_reagent>  (68) 
Cc1ccc(Cl)c(C(=O)O)c1

>  <R1_ID>  (68) 
R-009721

>  <N_reaction>  (68) 
Amidation

>  <R2_amine>  (68) 
NCc1cccc(OC(F)(F)F)c1

>  <R2_ID>  (68) 
R-003869

>  <MW>  (68) 
503.9

>  <LogP>  (68) 
5.07

>  <HBD>  (68) 
1

>  <HBA>  (68) 
4

>  <RotB>  (68) 
5

>  <ASMS_similarity>  (68) 
0.6296

>  <Priority_tier>  (68) 
Tier2_medium

>  <Scaffold>  (68) 
OC(=O)c1ccc2CCNCc2n1

$$$$

     RDKit          2D

 27 29  0  0  0  0  0  0  0  0999 V2000
   -5.6031    4.6958    0.0000 C   0  0  0  0  0  0  0  0  0  0  0  0
   -5.3207    3.2226    0.0000 C   0  0  0  0  0  0  0  0  0  0  0  0
   -3.9036    2.7306    0.0000 C   0  0  0  0  0  0  0  0  0  0  0  0
   -3.6212    1.2574    0.0000 N   0  0  0  0  0  0  0  0  0  0  0  0
   -4.7559    0.2762    0.0000 C   0  0  0  0  0  0  0  0  0  0  0  0
   -4.4735   -1.1969    0.0000 C   0  0  0  0  0  0  0  0  0  0  0  0
   -5.6081   -2.1781    0.0000 O   0  0  0  0  0  0  0  0  0  0  0  0
   -3.0564   -1.6890    0.0000 N   0  0  0  0  0  0  0  0  0  0  0  0
   -2.7740   -3.1621    0.0000 C   0  0  0  0  0  0  0  0  0  0  0  0
   -1.3570   -3.6542    0.0000 C   0  0  0  0  0  0  0  0  0  0  0  0
   -0.2224   -2.6730    0.0000 C   0  0  0  0  0  0  0  0  0  0  0  0
    1.1946   -3.1650    0.0000 C   0  0  0  0  0  0  0  0  0  0  0  0
    2.3292   -2.1839    0.0000 C   0  0  0  0  0  0  0  0  0  0  0  0
    2.0468   -0.7107    0.0000 C   0  0  0  0  0  0  0  0  0  0  0  0
    3.1814    0.2705    0.0000 C   0  0  0  0  0  0  0  0  0  0  0  0
    2.8990    1.7436    0.0000 O   0  0  0  0  0  0  0  0  0  0  0  0
    4.5984   -0.2216    0.0000 N   0  0  0  0  0  0  0  0  0  0  0  0
    5.7330    0.7596    0.0000 C   0  0  0  0  0  0  0  0  0  0  0  0
    7.1500    0.2676    0.0000 C   0  0  0  0  0  0  0  0  0  0  0  0
    8.2846    1.2487    0.0000 C   0  0  0  0  0  0  0  0  0  0  0  0
    9.7016    0.7567    0.0000 C   0  0  0  0  0  0  0  0  0  0  0  0
    8.0022    2.7219    0.0000 C   0  0  0  0  0  0  0  0  0  0  0  0
    0.6298   -0.2187    0.0000 N   0  0  0  0  0  0  0  0  0  0  0  0
   -0.5048   -1.1998    0.0000 C   0  0  0  0  0  0  0  0  0  0  0  0
   -1.9218   -0.7078    0.0000 C   0  0  0  0  0  0  0  0  0  0  0  0
   -6.1729    0.7683    0.0000 C   0  0  0  0  0  0  0  0  0  0  0  0
   -6.4553    2.2414    0.0000 N   0  0  0  0  0  0  0  0  0  0  0  0
  1  2  1  0
  2  3  2  0
  3  4  1  0
  4  5  2  0
  5  6  1  0
  6  7  2  0
  6  8  1  0
  8  9  1  0
  9 10  1  0
 10 11  1  0
 11 12  2  0
 12 13  1  0
 13 14  2  0
 14 15  1  0
 15 16  2  0
 15 17  1  0
 17 18  1  0
 18 19  1  0
 19 20  1  0
 20 21  1  0
 20 22  1  0
 14 23  1  0
 23 24  2  0
 24 25  1  0
  5 26  1  0
 26 27  2  0
 27  2  1  0
 25  8  1  0
 24 11  1  0
M  END
>  <Compound_ID>  (69) 
LIB069

>  <SMILES>  (69) 
Cc1cnc(C(=O)N2CCc3ccc(C(=O)NCCC(C)C)nc3C2)cn1

>  <R1_reagent>  (69) 
Cc1cnc(C(=O)O)cn1

>  <R1_ID>  (69) 
R-001177

>  <N_reaction>  (69) 
Amidation

>  <R2_amine>  (69) 
CC(C)CCN

>  <R2_ID>  (69) 
R-003079

>  <MW>  (69) 
367.5

>  <LogP>  (69) 
2.15

>  <HBD>  (69) 
1

>  <HBA>  (69) 
5

>  <RotB>  (69) 
5

>  <ASMS_similarity>  (69) 
0.625

>  <Priority_tier>  (69) 
Tier2_medium

>  <Scaffold>  (69) 
OC(=O)c1ccc2CCNCc2n1

$$$$

     RDKit          2D

 28 30  0  0  0  0  0  0  0  0999 V2000
   -8.0768   -3.4324    0.0000 C   0  0  0  0  0  0  0  0  0  0  0  0
   -6.5863   -3.2643    0.0000 C   0  0  0  0  0  0  0  0  0  0  0  0
   -5.9866   -1.8893    0.0000 N   0  0  0  0  0  0  0  0  0  0  0  0
   -4.4961   -1.7212    0.0000 C   0  0  0  0  0  0  0  0  0  0  0  0
   -3.6052   -2.9279    0.0000 O   0  0  0  0  0  0  0  0  0  0  0  0
   -3.8965   -0.3462    0.0000 C   0  0  0  0  0  0  0  0  0  0  0  0
   -4.7874    0.8605    0.0000 C   0  0  0  0  0  0  0  0  0  0  0  0
   -4.1877    2.2355    0.0000 C   0  0  0  0  0  0  0  0  0  0  0  0
   -2.6972    2.4036    0.0000 C   0  0  0  0  0  0  0  0  0  0  0  0
   -1.8063    1.1969    0.0000 C   0  0  0  0  0  0  0  0  0  0  0  0
   -2.4059   -0.1781    0.0000 N   0  0  0  0  0  0  0  0  0  0  0  0
   -0.3157    1.3650    0.0000 C   0  0  0  0  0  0  0  0  0  0  0  0
    0.2839    2.7400    0.0000 N   0  0  0  0  0  0  0  0  0  0  0  0
    1.7744    2.9081    0.0000 C   0  0  0  0  0  0  0  0  0  0  0  0
    2.3741    4.2831    0.0000 O   0  0  0  0  0  0  0  0  0  0  0  0
    2.6653    1.7014    0.0000 C   0  0  0  0  0  0  0  0  0  0  0  0
    2.0657    0.3264    0.0000 C   0  0  0  0  0  0  0  0  0  0  0  0
    2.9566   -0.8803    0.0000 C   0  0  0  0  0  0  0  0  0  0  0  0
    4.4472   -0.7122    0.0000 N   0  0  0  0  0  0  0  0  0  0  0  0
    5.3381   -1.9189    0.0000 C   0  0  0  0  0  0  0  0  0  0  0  0
    6.8286   -1.7508    0.0000 O   0  0  0  0  0  0  0  0  0  0  0  0
    4.7384   -3.2939    0.0000 C   0  0  0  0  0  0  0  0  0  0  0  0
    5.6293   -4.5006    0.0000 C   0  0  0  0  0  0  0  0  0  0  0  0
    3.2479   -3.4620    0.0000 C   0  0  0  0  0  0  0  0  0  0  0  0
    5.0468    0.6628    0.0000 C   0  0  0  0  0  0  0  0  0  0  0  0
    4.1559    1.8695    0.0000 C   0  0  0  0  0  0  0  0  0  0  0  0
   -0.6070    3.9467    0.0000 C   0  0  0  0  0  0  0  0  0  0  0  0
   -2.0976    3.7786    0.0000 C   0  0  0  0  0  0  0  0  0  0  0  0
  1  2  1  0
  2  3  1  0
  3  4  1  0
  4  5  2  0
  4  6  1  0
  6  7  2  0
  7  8  1  0
  8  9  2  0
  9 10  1  0
 10 11  2  0
 10 12  1  0
 12 13  1  0
 13 14  1  0
 14 15  2  0
 14 16  1  0
 16 17  1  0
 17 18  1  0
 18 19  1  0
 19 20  1  0
 20 21  2  0
 20 22  1  0
 22 23  1  0
 22 24  1  0
 19 25  1  0
 25 26  1  0
 13 27  1  0
 27 28  1  0
 11  6  1  0
 26 16  1  0
 28  9  1  0
M  END
>  <Compound_ID>  (70) 
LIB070

>  <SMILES>  (70) 
CCNC(=O)c1ccc2c(n1)CN(C(=O)C1CCN(C(=O)C(C)C)CC1)CC2

>  <R1_reagent>  (70) 
CC(C)C(=O)N1CCC(C(=O)O)CC1

>  <R1_ID>  (70) 
R-009184

>  <N_reaction>  (70) 
Amidation

>  <R2_amine>  (70) 
CCN

>  <R2_ID>  (70) 
R-000959

>  <MW>  (70) 
386.5

>  <LogP>  (70) 
1.61

>  <HBD>  (70) 
1

>  <HBA>  (70) 
4

>  <RotB>  (70) 
4

>  <ASMS_similarity>  (70) 
0.625

>  <Priority_tier>  (70) 
Tier2_medium

>  <Scaffold>  (70) 
OC(=O)c1ccc2CCNCc2n1

$$$$

     RDKit          2D

 32 35  0  0  0  0  0  0  0  0999 V2000
   -9.5468    0.6688    0.0000 C   0  0  0  0  0  0  0  0  0  0  0  0
   -8.1396    0.1493    0.0000 O   0  0  0  0  0  0  0  0  0  0  0  0
   -6.9861    1.1081    0.0000 C   0  0  0  0  0  0  0  0  0  0  0  0
   -7.2398    2.5865    0.0000 C   0  0  0  0  0  0  0  0  0  0  0  0
   -6.0862    3.5454    0.0000 C   0  0  0  0  0  0  0  0  0  0  0  0
   -4.6791    3.0258    0.0000 C   0  0  0  0  0  0  0  0  0  0  0  0
   -4.4255    1.5474    0.0000 C   0  0  0  0  0  0  0  0  0  0  0  0
   -5.5790    0.5886    0.0000 C   0  0  0  0  0  0  0  0  0  0  0  0
   -5.3253   -0.8898    0.0000 C   0  0  0  0  0  0  0  0  0  0  0  0
   -6.4789   -1.8487    0.0000 O   0  0  0  0  0  0  0  0  0  0  0  0
   -3.9182   -1.4094    0.0000 N   0  0  0  0  0  0  0  0  0  0  0  0
   -3.6646   -2.8878    0.0000 C   0  0  0  0  0  0  0  0  0  0  0  0
   -2.2574   -3.4073    0.0000 C   0  0  0  0  0  0  0  0  0  0  0  0
   -1.1039   -2.4485    0.0000 C   0  0  0  0  0  0  0  0  0  0  0  0
    0.3032   -2.9680    0.0000 C   0  0  0  0  0  0  0  0  0  0  0  0
    1.4568   -2.0092    0.0000 C   0  0  0  0  0  0  0  0  0  0  0  0
    1.2031   -0.5308    0.0000 C   0  0  0  0  0  0  0  0  0  0  0  0
    2.3567    0.4281    0.0000 C   0  0  0  0  0  0  0  0  0  0  0  0
    2.1030    1.9065    0.0000 O   0  0  0  0  0  0  0  0  0  0  0  0
    3.7638   -0.0915    0.0000 N   0  0  0  0  0  0  0  0  0  0  0  0
    4.9173    0.8674    0.0000 C   0  0  0  0  0  0  0  0  0  0  0  0
    6.3245    0.3478    0.0000 C   0  0  0  0  0  0  0  0  0  0  0  0
    6.5781   -1.1306    0.0000 C   0  0  0  0  0  0  0  0  0  0  0  0
    7.9852   -1.6501    0.0000 C   0  0  0  0  0  0  0  0  0  0  0  0
    9.1388   -0.6913    0.0000 C   0  0  0  0  0  0  0  0  0  0  0  0
    8.8851    0.7871    0.0000 C   0  0  0  0  0  0  0  0  0  0  0  0
   10.0387    1.7460    0.0000 C   0  0  0  0  0  0  0  0  0  0  0  0
    7.4780    1.3067    0.0000 C   0  0  0  0  0  0  0  0  0  0  0  0
    7.2244    2.7851    0.0000 C   0  0  0  0  0  0  0  0  0  0  0  0
   -0.2040   -0.0112    0.0000 N   0  0  0  0  0  0  0  0  0  0  0  0
   -1.3575   -0.9701    0.0000 C   0  0  0  0  0  0  0  0  0  0  0  0
   -2.7647   -0.4505    0.0000 C   0  0  0  0  0  0  0  0  0  0  0  0
  1  2  1  0
  2  3  1  0
  3  4  2  0
  4  5  1  0
  5  6  2  0
  6  7  1  0
  7  8  2  0
  8  9  1  0
  9 10  2  0
  9 11  1  0
 11 12  1  0
 12 13  1  0
 13 14  1  0
 14 15  2  0
 15 16  1  0
 16 17  2  0
 17 18  1  0
 18 19  2  0
 18 20  1  0
 20 21  1  0
 21 22  1  0
 22 23  2  0
 23 24  1  0
 24 25  2  0
 25 26  1  0
 26 27  1  0
 26 28  2  0
 28 29  1  0
 17 30  1  0
 30 31  2  0
 31 32  1  0
  8  3  1  0
 32 11  1  0
 31 14  1  0
 28 22  1  0
M  END
>  <Compound_ID>  (71) 
LIB071

>  <SMILES>  (71) 
COc1ccccc1C(=O)N1CCc2ccc(C(=O)NCc3cccc(C)c3C)nc2C1

>  <R1_reagent>  (71) 
COc1ccccc1C(=O)Cl

>  <R1_ID>  (71) 
R-006557

>  <N_reaction>  (71) 
Amidation

>  <R2_amine>  (71) 
Cc1cccc(CN)c1C

>  <R2_ID>  (71) 
R-008908

>  <MW>  (71) 
429.5

>  <LogP>  (71) 
3.84

>  <HBD>  (71) 
1

>  <HBA>  (71) 
4

>  <RotB>  (71) 
5

>  <ASMS_similarity>  (71) 
0.6234

>  <Priority_tier>  (71) 
Tier2_medium

>  <Scaffold>  (71) 
OC(=O)c1ccc2CCNCc2n1

$$$$

     RDKit          2D

 32 35  0  0  0  0  0  0  0  0999 V2000
   -6.9937   -1.7657    0.0000 O   0  0  0  0  0  0  0  0  0  0  0  0
   -5.8302   -0.8190    0.0000 C   0  0  0  0  0  0  0  0  0  0  0  0
   -6.0684    0.6620    0.0000 N   0  0  0  0  0  0  0  0  0  0  0  0
   -7.4700    1.1962    0.0000 C   0  0  0  0  0  0  0  0  0  0  0  0
   -7.7082    2.6772    0.0000 C   0  0  0  0  0  0  0  0  0  0  0  0
   -9.1099    3.2114    0.0000 C   0  0  0  0  0  0  0  0  0  0  0  0
  -10.2733    2.2646    0.0000 C   0  0  0  0  0  0  0  0  0  0  0  0
  -10.0351    0.7837    0.0000 C   0  0  0  0  0  0  0  0  0  0  0  0
   -8.6335    0.2495    0.0000 C   0  0  0  0  0  0  0  0  0  0  0  0
   -4.4285   -1.3532    0.0000 C   0  0  0  0  0  0  0  0  0  0  0  0
   -4.1904   -2.8342    0.0000 C   0  0  0  0  0  0  0  0  0  0  0  0
   -2.7887   -3.3684    0.0000 C   0  0  0  0  0  0  0  0  0  0  0  0
   -1.6252   -2.4216    0.0000 C   0  0  0  0  0  0  0  0  0  0  0  0
   -1.8634   -0.9406    0.0000 C   0  0  0  0  0  0  0  0  0  0  0  0
   -3.2651   -0.4064    0.0000 N   0  0  0  0  0  0  0  0  0  0  0  0
   -0.7000    0.0061    0.0000 C   0  0  0  0  0  0  0  0  0  0  0  0
    0.7017   -0.5281    0.0000 N   0  0  0  0  0  0  0  0  0  0  0  0
    1.8651    0.4187    0.0000 C   0  0  0  0  0  0  0  0  0  0  0  0
    1.6270    1.8996    0.0000 O   0  0  0  0  0  0  0  0  0  0  0  0
    3.2668   -0.1155    0.0000 C   0  0  0  0  0  0  0  0  0  0  0  0
    4.4303    0.8312    0.0000 C   0  0  0  0  0  0  0  0  0  0  0  0
    5.8319    0.2970    0.0000 C   0  0  0  0  0  0  0  0  0  0  0  0
    6.9954    1.2438    0.0000 C   0  0  0  0  0  0  0  0  0  0  0  0
    6.7572    2.7247    0.0000 O   0  0  0  0  0  0  0  0  0  0  0  0
    8.3970    0.7095    0.0000 N   0  0  0  0  0  0  0  0  0  0  0  0
    8.6352   -0.7714    0.0000 C   0  0  0  0  0  0  0  0  0  0  0  0
   10.0369   -1.3056    0.0000 C   0  0  0  0  0  0  0  0  0  0  0  0
   11.2003   -0.3589    0.0000 C   0  0  0  0  0  0  0  0  0  0  0  0
   10.9621    1.1221    0.0000 C   0  0  0  0  0  0  0  0  0  0  0  0
    9.5605    1.6563    0.0000 C   0  0  0  0  0  0  0  0  0  0  0  0
    0.9399   -2.0091    0.0000 C   0  0  0  0  0  0  0  0  0  0  0  0
   -0.2236   -2.9558    0.0000 C   0  0  0  0  0  0  0  0  0  0  0  0
  1  2  2  0
  2  3  1  0
  3  4  1  0
  4  5  2  0
  5  6  1  0
  6  7  2  0
  7  8  1  0
  8  9  2  0
  2 10  1  0
 10 11  2  0
 11 12  1  0
 12 13  2  0
 13 14  1  0
 14 15  2  0
 14 16  1  0
 16 17  1  0
 17 18  1  0
 18 19  2  0
 18 20  1  0
 20 21  1  0
 21 22  1  0
 22 23  1  0
 23 24  2  0
 23 25  1  0
 25 26  1  0
 26 27  1  0
 27 28  1  0
 28 29  1  0
 29 30  1  0
 17 31  1  0
 31 32  1  0
  9  4  1  0
 15 10  1  0
 30 25  1  0
 32 13  1  0
M  END
>  <Compound_ID>  (72) 
LIB072

>  <SMILES>  (72) 
O=C(Nc1ccccc1)c1ccc2c(n1)CN(C(=O)CCCC(=O)N1CCCCC1)CC2

>  <R1_reagent>  (72) 
O=C(O)CCCC(=O)N1CCCCC1

>  <R1_ID>  (72) 
R-007891

>  <N_reaction>  (72) 
Amidation

>  <R2_amine>  (72) 
Nc1ccccc1

>  <R2_ID>  (72) 
R-001898

>  <MW>  (72) 
434.5

>  <LogP>  (72) 
3.4

>  <HBD>  (72) 
1

>  <HBA>  (72) 
4

>  <RotB>  (72) 
6

>  <ASMS_similarity>  (72) 
0.6232

>  <Priority_tier>  (72) 
Tier2_medium

>  <Scaffold>  (72) 
OC(=O)c1ccc2CCNCc2n1

$$$$

     RDKit          2D

 26 28  0  0  0  0  0  0  0  0999 V2000
   -5.6525    4.3529    0.0000 C   0  0  0  0  0  0  0  0  0  0  0  0
   -5.2298    2.9136    0.0000 C   0  0  0  0  0  0  0  0  0  0  0  0
   -3.7721    2.5601    0.0000 C   0  0  0  0  0  0  0  0  0  0  0  0
   -3.3494    1.1209    0.0000 N   0  0  0  0  0  0  0  0  0  0  0  0
   -4.3845    0.0352    0.0000 C   0  0  0  0  0  0  0  0  0  0  0  0
   -3.9618   -1.4040    0.0000 C   0  0  0  0  0  0  0  0  0  0  0  0
   -4.9969   -2.4897    0.0000 O   0  0  0  0  0  0  0  0  0  0  0  0
   -2.5041   -1.7576    0.0000 N   0  0  0  0  0  0  0  0  0  0  0  0
   -2.0814   -3.1968    0.0000 C   0  0  0  0  0  0  0  0  0  0  0  0
   -0.6237   -3.5504    0.0000 C   0  0  0  0  0  0  0  0  0  0  0  0
    0.4114   -2.4647    0.0000 C   0  0  0  0  0  0  0  0  0  0  0  0
    1.8691   -2.8183    0.0000 C   0  0  0  0  0  0  0  0  0  0  0  0
    2.9042   -1.7326    0.0000 C   0  0  0  0  0  0  0  0  0  0  0  0
    2.4815   -0.2934    0.0000 C   0  0  0  0  0  0  0  0  0  0  0  0
    3.5166    0.7922    0.0000 C   0  0  0  0  0  0  0  0  0  0  0  0
    3.0939    2.2315    0.0000 O   0  0  0  0  0  0  0  0  0  0  0  0
    4.9743    0.4387    0.0000 N   0  0  0  0  0  0  0  0  0  0  0  0
    6.0094    1.5243    0.0000 C   0  0  0  0  0  0  0  0  0  0  0  0
    7.4671    1.1707    0.0000 C   0  0  0  0  0  0  0  0  0  0  0  0
    8.5022    2.2564    0.0000 F   0  0  0  0  0  0  0  0  0  0  0  0
    7.8898   -0.2685    0.0000 F   0  0  0  0  0  0  0  0  0  0  0  0
    1.0238    0.0602    0.0000 N   0  0  0  0  0  0  0  0  0  0  0  0
   -0.0113   -1.0255    0.0000 C   0  0  0  0  0  0  0  0  0  0  0  0
   -1.4690   -0.6719    0.0000 C   0  0  0  0  0  0  0  0  0  0  0  0
   -5.8422    0.3888    0.0000 C   0  0  0  0  0  0  0  0  0  0  0  0
   -6.2649    1.8280    0.0000 N   0  0  0  0  0  0  0  0  0  0  0  0
  1  2  1  0
  2  3  2  0
  3  4  1  0
  4  5  2  0
  5  6  1  0
  6  7  2  0
  6  8  1  0
  8  9  1  0
  9 10  1  0
 10 11  1  0
 11 12  2  0
 12 13  1  0
 13 14  2  0
 14 15  1  0
 15 16  2  0
 15 17  1  0
 17 18  1  0
 18 19  1  0
 19 20  1  0
 19 21  1  0
 14 22  1  0
 22 23  2  0
 23 24  1  0
  5 25  1  0
 25 26  2  0
 26  2  1  0
 24  8  1  0
 23 11  1  0
M  END
>  <Compound_ID>  (73) 
LIB073

>  <SMILES>  (73) 
Cc1cnc(C(=O)N2CCc3ccc(C(=O)NCC(F)F)nc3C2)cn1

>  <R1_reagent>  (73) 
Cc1cnc(C(=O)O)cn1

>  <R1_ID>  (73) 
R-001177

>  <N_reaction>  (73) 
Amidation

>  <R2_amine>  (73) 
NCC(F)F

>  <R2_ID>  (73) 
R-000710

>  <MW>  (73) 
361.4

>  <LogP>  (73) 
1.37

>  <HBD>  (73) 
1

>  <HBA>  (73) 
5

>  <RotB>  (73) 
4

>  <ASMS_similarity>  (73) 
0.619

>  <Priority_tier>  (73) 
Tier2_medium

>  <Scaffold>  (73) 
OC(=O)c1ccc2CCNCc2n1

$$$$

     RDKit          2D

 31 34  0  0  0  0  0  0  0  0999 V2000
   -3.2236   -2.2178    0.0000 O   0  0  0  0  0  0  0  0  0  0  0  0
   -3.9597   -0.9109    0.0000 C   0  0  0  0  0  0  0  0  0  0  0  0
   -5.4596   -0.8948    0.0000 N   0  0  0  0  0  0  0  0  0  0  0  0
   -6.2234   -2.1857    0.0000 C   0  0  0  0  0  0  0  0  0  0  0  0
   -7.7233   -2.1697    0.0000 C   0  0  0  0  0  0  0  0  0  0  0  0
   -9.2233   -2.1536    0.0000 F   0  0  0  0  0  0  0  0  0  0  0  0
   -7.7394   -3.6696    0.0000 F   0  0  0  0  0  0  0  0  0  0  0  0
   -7.7073   -0.6698    0.0000 F   0  0  0  0  0  0  0  0  0  0  0  0
   -3.1958    0.3801    0.0000 C   0  0  0  0  0  0  0  0  0  0  0  0
   -3.9318    1.6871    0.0000 C   0  0  0  0  0  0  0  0  0  0  0  0
   -3.1680    2.9780    0.0000 C   0  0  0  0  0  0  0  0  0  0  0  0
   -1.6681    2.9620    0.0000 C   0  0  0  0  0  0  0  0  0  0  0  0
   -0.9320    1.6550    0.0000 C   0  0  0  0  0  0  0  0  0  0  0  0
   -1.6959    0.3640    0.0000 N   0  0  0  0  0  0  0  0  0  0  0  0
    0.5679    1.6389    0.0000 C   0  0  0  0  0  0  0  0  0  0  0  0
    1.3318    2.9298    0.0000 N   0  0  0  0  0  0  0  0  0  0  0  0
    2.8317    2.9138    0.0000 C   0  0  0  0  0  0  0  0  0  0  0  0
    3.5955    4.2047    0.0000 O   0  0  0  0  0  0  0  0  0  0  0  0
    3.5677    1.6068    0.0000 C   0  0  0  0  0  0  0  0  0  0  0  0
    2.8039    0.3159    0.0000 C   0  0  0  0  0  0  0  0  0  0  0  0
    3.5399   -0.9911    0.0000 C   0  0  0  0  0  0  0  0  0  0  0  0
    5.0398   -1.0072    0.0000 C   0  0  0  0  0  0  0  0  0  0  0  0
    5.7759   -2.3142    0.0000 N   0  0  0  0  0  0  0  0  0  0  0  0
    7.2659   -2.4869    0.0000 C   0  0  0  0  0  0  0  0  0  0  0  0
    7.5620   -3.9574    0.0000 C   0  0  0  0  0  0  0  0  0  0  0  0
    6.2551   -4.6935    0.0000 C   0  0  0  0  0  0  0  0  0  0  0  0
    5.1511   -3.6779    0.0000 C   0  0  0  0  0  0  0  0  0  0  0  0
    5.8037    0.2837    0.0000 C   0  0  0  0  0  0  0  0  0  0  0  0
    5.0676    1.5907    0.0000 C   0  0  0  0  0  0  0  0  0  0  0  0
    0.5957    4.2368    0.0000 C   0  0  0  0  0  0  0  0  0  0  0  0
   -0.9042    4.2529    0.0000 C   0  0  0  0  0  0  0  0  0  0  0  0
  1  2  2  0
  2  3  1  0
  3  4  1  0
  4  5  1  0
  5  6  1  0
  5  7  1  0
  5  8  1  0
  2  9  1  0
  9 10  2  0
 10 11  1  0
 11 12  2  0
 12 13  1  0
 13 14  2  0
 13 15  1  0
 15 16  1  0
 16 17  1  0
 17 18  2  0
 17 19  1  0
 19 20  2  0
 20 21  1  0
 21 22  2  0
 22 23  1  0
 23 24  1  0
 24 25  2  0
 25 26  1  0
 26 27  2  0
 22 28  1  0
 28 29  2  0
 16 30  1  0
 30 31  1  0
 14  9  1  0
 29 19  1  0
 31 12  1  0
 27 23  1  0
M  END
>  <Compound_ID>  (74) 
LIB074

>  <SMILES>  (74) 
O=C(NCC(F)(F)F)c1ccc2c(n1)CN(C(=O)c1ccc(-n3cccc3)cc1)CC2

>  <R1_reagent>  (74) 
O=C(O)c1ccc(-n2cccc2)cc1

>  <R1_ID>  (74) 
R-008846

>  <N_reaction>  (74) 
Amidation

>  <R2_amine>  (74) 
NCC(F)(F)F

>  <R2_ID>  (74) 
R-000822

>  <MW>  (74) 
428.4

>  <LogP>  (74) 
3.36

>  <HBD>  (74) 
1

>  <HBA>  (74) 
4

>  <RotB>  (74) 
4

>  <ASMS_similarity>  (74) 
0.6184

>  <Priority_tier>  (74) 
Tier2_medium

>  <Scaffold>  (74) 
OC(=O)c1ccc2CCNCc2n1

$$$$

     RDKit          2D

 29 32  0  0  0  0  0  0  0  0999 V2000
   -6.9810    4.3248    0.0000 C   0  0  0  0  0  0  0  0  0  0  0  0
   -6.6086    2.8718    0.0000 C   0  0  0  0  0  0  0  0  0  0  0  0
   -5.1641    2.4677    0.0000 C   0  0  0  0  0  0  0  0  0  0  0  0
   -4.7917    1.0147    0.0000 N   0  0  0  0  0  0  0  0  0  0  0  0
   -5.8639   -0.0343    0.0000 C   0  0  0  0  0  0  0  0  0  0  0  0
   -5.4916   -1.4874    0.0000 C   0  0  0  0  0  0  0  0  0  0  0  0
   -4.0470   -1.8914    0.0000 N   0  0  0  0  0  0  0  0  0  0  0  0
   -3.6746   -3.3445    0.0000 C   0  0  0  0  0  0  0  0  0  0  0  0
   -2.2301   -3.7485    0.0000 C   0  0  0  0  0  0  0  0  0  0  0  0
   -1.1579   -2.6995    0.0000 C   0  0  0  0  0  0  0  0  0  0  0  0
    0.2867   -3.1036    0.0000 C   0  0  0  0  0  0  0  0  0  0  0  0
    1.3589   -2.0546    0.0000 C   0  0  0  0  0  0  0  0  0  0  0  0
    0.9865   -0.6015    0.0000 C   0  0  0  0  0  0  0  0  0  0  0  0
    2.0587    0.4475    0.0000 C   0  0  0  0  0  0  0  0  0  0  0  0
    1.6863    1.9005    0.0000 O   0  0  0  0  0  0  0  0  0  0  0  0
    3.5033    0.0434    0.0000 N   0  0  0  0  0  0  0  0  0  0  0  0
    4.5754    1.0924    0.0000 C   0  0  0  0  0  0  0  0  0  0  0  0
    6.0200    0.6884    0.0000 C   0  0  0  0  0  0  0  0  0  0  0  0
    6.3924   -0.7647    0.0000 C   0  0  0  0  0  0  0  0  0  0  0  0
    7.8369   -1.1687    0.0000 C   0  0  0  0  0  0  0  0  0  0  0  0
    8.9091   -0.1197    0.0000 C   0  0  0  0  0  0  0  0  0  0  0  0
    8.5368    1.3333    0.0000 C   0  0  0  0  0  0  0  0  0  0  0  0
    7.0922    1.7374    0.0000 C   0  0  0  0  0  0  0  0  0  0  0  0
    6.7198    3.1904    0.0000 Cl  0  0  0  0  0  0  0  0  0  0  0  0
   -0.4581   -0.1975    0.0000 N   0  0  0  0  0  0  0  0  0  0  0  0
   -1.5302   -1.2465    0.0000 C   0  0  0  0  0  0  0  0  0  0  0  0
   -2.9748   -0.8424    0.0000 C   0  0  0  0  0  0  0  0  0  0  0  0
   -7.3085    0.3697    0.0000 C   0  0  0  0  0  0  0  0  0  0  0  0
   -7.6808    1.8228    0.0000 N   0  0  0  0  0  0  0  0  0  0  0  0
  1  2  1  0
  2  3  2  0
  3  4  1  0
  4  5  2  0
  5  6  1  0
  6  7  1  0
  7  8  1  0
  8  9  1  0
  9 10  1  0
 10 11  2  0
 11 12  1  0
 12 13  2  0
 13 14  1  0
 14 15  2  0
 14 16  1  0
 16 17  1  0
 17 18  1  0
 18 19  2  0
 19 20  1  0
 20 21  2  0
 21 22  1  0
 22 23  2  0
 23 24  1  0
 13 25  1  0
 25 26  2  0
 26 27  1  0
  5 28  1  0
 28 29  2  0
 29  2  1  0
 27  7  1  0
 26 10  1  0
 23 18  1  0
M  END
>  <Compound_ID>  (75) 
LIB075

>  <SMILES>  (75) 
Cc1cnc(CN2CCc3ccc(C(=O)NCc4ccccc4Cl)nc3C2)cn1

>  <R1_reagent>  (75) 
Cc1cnc(C=O)cn1

>  <R1_ID>  (75) 
R-011808

>  <N_reaction>  (75) 
Reductive_amination

>  <R2_amine>  (75) 
NCc1ccccc1Cl

>  <R2_ID>  (75) 
R-004751

>  <MW>  (75) 
407.9

>  <LogP>  (75) 
3.32

>  <HBD>  (75) 
1

>  <HBA>  (75) 
5

>  <RotB>  (75) 
5

>  <ASMS_similarity>  (75) 
0.6176

>  <Priority_tier>  (75) 
Tier2_medium

>  <Scaffold>  (75) 
OC(=O)c1ccc2CCNCc2n1

$$$$

     RDKit          2D

 24 26  0  0  0  0  0  0  0  0999 V2000
   -8.7344   -1.5395    0.0000 C   0  0  0  0  0  0  0  0  0  0  0  0
   -7.2799   -1.9060    0.0000 C   0  0  0  0  0  0  0  0  0  0  0  0
   -6.2353   -0.8295    0.0000 C   0  0  0  0  0  0  0  0  0  0  0  0
   -4.7807   -1.1959    0.0000 C   0  0  0  0  0  0  0  0  0  0  0  0
   -4.3707   -2.6388    0.0000 O   0  0  0  0  0  0  0  0  0  0  0  0
   -3.7361   -0.1194    0.0000 N   0  0  0  0  0  0  0  0  0  0  0  0
   -4.1461    1.3235    0.0000 C   0  0  0  0  0  0  0  0  0  0  0  0
   -3.1015    2.4000    0.0000 C   0  0  0  0  0  0  0  0  0  0  0  0
   -1.6469    2.0336    0.0000 C   0  0  0  0  0  0  0  0  0  0  0  0
   -0.6023    3.1100    0.0000 C   0  0  0  0  0  0  0  0  0  0  0  0
    0.8523    2.7436    0.0000 C   0  0  0  0  0  0  0  0  0  0  0  0
    1.2622    1.3007    0.0000 C   0  0  0  0  0  0  0  0  0  0  0  0
    2.7168    0.9343    0.0000 C   0  0  0  0  0  0  0  0  0  0  0  0
    3.7614    2.0108    0.0000 O   0  0  0  0  0  0  0  0  0  0  0  0
    3.1267   -0.5085    0.0000 N   0  0  0  0  0  0  0  0  0  0  0  0
    4.5813   -0.8750    0.0000 C   0  0  0  0  0  0  0  0  0  0  0  0
    4.9913   -2.3178    0.0000 C   0  0  0  0  0  0  0  0  0  0  0  0
    6.4458   -2.6843    0.0000 C   0  0  0  0  0  0  0  0  0  0  0  0
    7.4904   -1.6078    0.0000 C   0  0  0  0  0  0  0  0  0  0  0  0
    7.0805   -0.1649    0.0000 C   0  0  0  0  0  0  0  0  0  0  0  0
    5.6259    0.2015    0.0000 C   0  0  0  0  0  0  0  0  0  0  0  0
    0.2176    0.2243    0.0000 N   0  0  0  0  0  0  0  0  0  0  0  0
   -1.2369    0.5907    0.0000 C   0  0  0  0  0  0  0  0  0  0  0  0
   -2.2815   -0.4858    0.0000 C   0  0  0  0  0  0  0  0  0  0  0  0
  1  2  1  0
  2  3  1  0
  3  4  1  0
  4  5  2  0
  4  6  1  0
  6  7  1  0
  7  8  1  0
  8  9  1  0
  9 10  2  0
 10 11  1  0
 11 12  2  0
 12 13  1  0
 13 14  2  0
 13 15  1  0
 15 16  1  0
 16 17  2  0
 17 18  1  0
 18 19  2  0
 19 20  1  0
 20 21  2  0
 12 22  1  0
 22 23  2  0
 23 24  1  0
 24  6  1  0
 23  9  1  0
 21 16  1  0
M  END
>  <Compound_ID>  (76) 
LIB076

>  <SMILES>  (76) 
CCCC(=O)N1CCc2ccc(C(=O)Nc3ccccc3)nc2C1

>  <R1_reagent>  (76) 
CCCC(=O)Cl

>  <R1_ID>  (76) 
R-002726

>  <N_reaction>  (76) 
Amidation

>  <R2_amine>  (76) 
Nc1ccccc1

>  <R2_ID>  (76) 
R-001898

>  <MW>  (76) 
323.4

>  <LogP>  (76) 
3.02

>  <HBD>  (76) 
1

>  <HBA>  (76) 
3

>  <RotB>  (76) 
4

>  <ASMS_similarity>  (76) 
0.6176

>  <Priority_tier>  (76) 
Tier2_medium

>  <Scaffold>  (76) 
OC(=O)c1ccc2CCNCc2n1

$$$$

     RDKit          2D

 34 38  0  0  0  0  0  0  0  0999 V2000
   -5.5584   -3.2249    0.0000 O   0  0  0  0  0  0  0  0  0  0  0  0
   -4.6780   -2.0104    0.0000 C   0  0  0  0  0  0  0  0  0  0  0  0
   -5.2896   -0.6407    0.0000 N   0  0  0  0  0  0  0  0  0  0  0  0
   -6.7816   -0.4856    0.0000 C   0  0  0  0  0  0  0  0  0  0  0  0
   -7.3932    0.8840    0.0000 C   0  0  0  0  0  0  0  0  0  0  0  0
   -6.5129    2.0985    0.0000 C   0  0  0  0  0  0  0  0  0  0  0  0
   -7.1245    3.4682    0.0000 C   0  0  0  0  0  0  0  0  0  0  0  0
   -8.6164    3.6233    0.0000 C   0  0  0  0  0  0  0  0  0  0  0  0
   -9.4968    2.4088    0.0000 C   0  0  0  0  0  0  0  0  0  0  0  0
   -8.8852    1.0392    0.0000 C   0  0  0  0  0  0  0  0  0  0  0  0
   -9.7655   -0.1753    0.0000 Cl  0  0  0  0  0  0  0  0  0  0  0  0
   -3.1861   -2.1655    0.0000 C   0  0  0  0  0  0  0  0  0  0  0  0
   -2.5745   -3.5352    0.0000 C   0  0  0  0  0  0  0  0  0  0  0  0
   -1.0825   -3.6903    0.0000 C   0  0  0  0  0  0  0  0  0  0  0  0
   -0.2022   -2.4758    0.0000 C   0  0  0  0  0  0  0  0  0  0  0  0
   -0.8138   -1.1062    0.0000 C   0  0  0  0  0  0  0  0  0  0  0  0
   -2.3057   -0.9510    0.0000 N   0  0  0  0  0  0  0  0  0  0  0  0
    0.0666    0.1083    0.0000 C   0  0  0  0  0  0  0  0  0  0  0  0
    1.5585   -0.0468    0.0000 N   0  0  0  0  0  0  0  0  0  0  0  0
    2.4389    1.1677    0.0000 C   0  0  0  0  0  0  0  0  0  0  0  0
    1.8272    2.5373    0.0000 O   0  0  0  0  0  0  0  0  0  0  0  0
    3.9308    1.0125    0.0000 C   0  0  0  0  0  0  0  0  0  0  0  0
    4.5424   -0.3571    0.0000 C   0  0  0  0  0  0  0  0  0  0  0  0
    6.0344   -0.5123    0.0000 C   0  0  0  0  0  0  0  0  0  0  0  0
    6.9147    0.7022    0.0000 C   0  0  0  0  0  0  0  0  0  0  0  0
    8.4067    0.5471    0.0000 N   0  0  0  0  0  0  0  0  0  0  0  0
    9.4091    1.6629    0.0000 C   0  0  0  0  0  0  0  0  0  0  0  0
   10.7801    1.0543    0.0000 C   0  0  0  0  0  0  0  0  0  0  0  0
   10.6250   -0.4376    0.0000 C   0  0  0  0  0  0  0  0  0  0  0  0
    9.1581   -0.7511    0.0000 C   0  0  0  0  0  0  0  0  0  0  0  0
    6.3031    2.0719    0.0000 C   0  0  0  0  0  0  0  0  0  0  0  0
    4.8111    2.2270    0.0000 C   0  0  0  0  0  0  0  0  0  0  0  0
    2.1701   -1.4165    0.0000 C   0  0  0  0  0  0  0  0  0  0  0  0
    1.2898   -2.6310    0.0000 C   0  0  0  0  0  0  0  0  0  0  0  0
  1  2  2  0
  2  3  1  0
  3  4  1  0
  4  5  1  0
  5  6  2  0
  6  7  1  0
  7  8  2  0
  8  9  1  0
  9 10  2  0
 10 11  1  0
  2 12  1  0
 12 13  2  0
 13 14  1  0
 14 15  2  0
 15 16  1  0
 16 17  2  0
 16 18  1  0
 18 19  1  0
 19 20  1  0
 20 21  2  0
 20 22  1  0
 22 23  2  0
 23 24  1  0
 24 25  2  0
 25 26  1  0
 26 27  1  0
 27 28  2  0
 28 29  1  0
 29 30  2  0
 25 31  1  0
 31 32  2  0
 19 33  1  0
 33 34  1  0
 10  5  1  0
 17 12  1  0
 32 22  1  0
 34 15  1  0
 30 26  1  0
M  END
>  <Compound_ID>  (77) 
LIB077

>  <SMILES>  (77) 
O=C(NCc1ccccc1Cl)c1ccc2c(n1)CN(C(=O)c1ccc(-n3cccc3)cc1)CC2

>  <R1_reagent>  (77) 
O=C(O)c1ccc(-n2cccc2)cc1

>  <R1_ID>  (77) 
R-008846

>  <N_reaction>  (77) 
Amidation

>  <R2_amine>  (77) 
NCc1ccccc1Cl

>  <R2_ID>  (77) 
R-004751

>  <MW>  (77) 
471.0

>  <LogP>  (77) 
4.65

>  <HBD>  (77) 
1

>  <HBA>  (77) 
4

>  <RotB>  (77) 
5

>  <ASMS_similarity>  (77) 
0.6154

>  <Priority_tier>  (77) 
Tier2_medium

>  <Scaffold>  (77) 
OC(=O)c1ccc2CCNCc2n1

$$$$

     RDKit          2D

 33 36  0  0  0  0  0  0  0  0999 V2000
   -5.1503   -3.2335    0.0000 O   0  0  0  0  0  0  0  0  0  0  0  0
   -4.2723   -2.0173    0.0000 C   0  0  0  0  0  0  0  0  0  0  0  0
   -4.8866   -0.6489    0.0000 N   0  0  0  0  0  0  0  0  0  0  0  0
   -6.3788   -0.4966    0.0000 C   0  0  0  0  0  0  0  0  0  0  0  0
   -6.9931    0.8719    0.0000 C   0  0  0  0  0  0  0  0  0  0  0  0
   -6.1151    2.0881    0.0000 C   0  0  0  0  0  0  0  0  0  0  0  0
   -6.7293    3.4565    0.0000 C   0  0  0  0  0  0  0  0  0  0  0  0
   -8.2216    3.6088    0.0000 C   0  0  0  0  0  0  0  0  0  0  0  0
   -9.0996    2.3926    0.0000 C   0  0  0  0  0  0  0  0  0  0  0  0
   -8.4853    1.0242    0.0000 C   0  0  0  0  0  0  0  0  0  0  0  0
   -9.3633   -0.1920    0.0000 Cl  0  0  0  0  0  0  0  0  0  0  0  0
   -2.7801   -2.1696    0.0000 C   0  0  0  0  0  0  0  0  0  0  0  0
   -2.1658   -3.5381    0.0000 C   0  0  0  0  0  0  0  0  0  0  0  0
   -0.6736   -3.6903    0.0000 C   0  0  0  0  0  0  0  0  0  0  0  0
    0.2044   -2.4742    0.0000 C   0  0  0  0  0  0  0  0  0  0  0  0
   -0.4098   -1.1057    0.0000 C   0  0  0  0  0  0  0  0  0  0  0  0
   -1.9021   -0.9534    0.0000 N   0  0  0  0  0  0  0  0  0  0  0  0
    0.4682    0.1105    0.0000 C   0  0  0  0  0  0  0  0  0  0  0  0
    1.9604   -0.0418    0.0000 N   0  0  0  0  0  0  0  0  0  0  0  0
    2.8384    1.1744    0.0000 C   0  0  0  0  0  0  0  0  0  0  0  0
    2.2242    2.5429    0.0000 O   0  0  0  0  0  0  0  0  0  0  0  0
    4.3307    1.0221    0.0000 C   0  0  0  0  0  0  0  0  0  0  0  0
    4.9449   -0.3463    0.0000 C   0  0  0  0  0  0  0  0  0  0  0  0
    6.4372   -0.4986    0.0000 C   0  0  0  0  0  0  0  0  0  0  0  0
    7.3152    0.7176    0.0000 C   0  0  0  0  0  0  0  0  0  0  0  0
    8.8074    0.5653    0.0000 C   0  0  0  0  0  0  0  0  0  0  0  0
   10.2997    0.4130    0.0000 F   0  0  0  0  0  0  0  0  0  0  0  0
    8.6552   -0.9269    0.0000 F   0  0  0  0  0  0  0  0  0  0  0  0
    8.9597    2.0576    0.0000 F   0  0  0  0  0  0  0  0  0  0  0  0
    6.7009    2.0861    0.0000 C   0  0  0  0  0  0  0  0  0  0  0  0
    5.2087    2.2383    0.0000 C   0  0  0  0  0  0  0  0  0  0  0  0
    2.5747   -1.4102    0.0000 C   0  0  0  0  0  0  0  0  0  0  0  0
    1.6967   -2.6264    0.0000 C   0  0  0  0  0  0  0  0  0  0  0  0
  1  2  2  0
  2  3  1  0
  3  4  1  0
  4  5  1  0
  5  6  2  0
  6  7  1  0
  7  8  2  0
  8  9  1  0
  9 10  2  0
 10 11  1  0
  2 12  1  0
 12 13  2  0
 13 14  1  0
 14 15  2  0
 15 16  1  0
 16 17  2  0
 16 18  1  0
 18 19  1  0
 19 20  1  0
 20 21  2  0
 20 22  1  0
 22 23  2  0
 23 24  1  0
 24 25  2  0
 25 26  1  0
 26 27  1  0
 26 28  1  0
 26 29  1  0
 25 30  1  0
 30 31  2  0
 19 32  1  0
 32 33  1  0
 10  5  1  0
 17 12  1  0
 31 22  1  0
 33 15  1  0
M  END
>  <Compound_ID>  (78) 
LIB078

>  <SMILES>  (78) 
O=C(NCc1ccccc1Cl)c1ccc2c(n1)CN(C(=O)c1ccc(C(F)(F)F)cc1)CC2

>  <R1_reagent>  (78) 
O=C(O)c1ccc(C(F)(F)F)cc1

>  <R1_ID>  (78) 
R-004501

>  <N_reaction>  (78) 
Amidation

>  <R2_amine>  (78) 
NCc1ccccc1Cl

>  <R2_ID>  (78) 
R-004751

>  <MW>  (78) 
473.9

>  <LogP>  (78) 
4.88

>  <HBD>  (78) 
1

>  <HBA>  (78) 
3

>  <RotB>  (78) 
4

>  <ASMS_similarity>  (78) 
0.6154

>  <Priority_tier>  (78) 
Tier2_medium

>  <Scaffold>  (78) 
OC(=O)c1ccc2CCNCc2n1

$$$$

     RDKit          2D

 29 32  0  0  0  0  0  0  0  0999 V2000
  -11.4040   -2.1079    0.0000 C   0  0  0  0  0  0  0  0  0  0  0  0
  -10.2989   -1.0937    0.0000 O   0  0  0  0  0  0  0  0  0  0  0  0
   -8.8680   -1.5436    0.0000 C   0  0  0  0  0  0  0  0  0  0  0  0
   -7.7629   -0.5293    0.0000 C   0  0  0  0  0  0  0  0  0  0  0  0
   -6.3320   -0.9792    0.0000 C   0  0  0  0  0  0  0  0  0  0  0  0
   -5.2269    0.0350    0.0000 N   0  0  0  0  0  0  0  0  0  0  0  0
   -3.7959   -0.4149    0.0000 C   0  0  0  0  0  0  0  0  0  0  0  0
   -3.4701   -1.8790    0.0000 O   0  0  0  0  0  0  0  0  0  0  0  0
   -2.6908    0.5994    0.0000 C   0  0  0  0  0  0  0  0  0  0  0  0
   -3.0167    2.0636    0.0000 C   0  0  0  0  0  0  0  0  0  0  0  0
   -1.9115    3.0779    0.0000 C   0  0  0  0  0  0  0  0  0  0  0  0
   -0.4806    2.6279    0.0000 C   0  0  0  0  0  0  0  0  0  0  0  0
   -0.1548    1.1638    0.0000 C   0  0  0  0  0  0  0  0  0  0  0  0
   -1.2599    0.1495    0.0000 N   0  0  0  0  0  0  0  0  0  0  0  0
    1.2762    0.7139    0.0000 C   0  0  0  0  0  0  0  0  0  0  0  0
    2.3813    1.7281    0.0000 N   0  0  0  0  0  0  0  0  0  0  0  0
    3.8122    1.2782    0.0000 C   0  0  0  0  0  0  0  0  0  0  0  0
    4.9173    2.2925    0.0000 O   0  0  0  0  0  0  0  0  0  0  0  0
    4.1380   -0.1860    0.0000 C   0  0  0  0  0  0  0  0  0  0  0  0
    3.1450   -1.3102    0.0000 C   0  0  0  0  0  0  0  0  0  0  0  0
    3.9073   -2.6020    0.0000 N   0  0  0  0  0  0  0  0  0  0  0  0
    5.3715   -2.2762    0.0000 C   0  0  0  0  0  0  0  0  0  0  0  0
    6.5934   -3.1463    0.0000 C   0  0  0  0  0  0  0  0  0  0  0  0
    7.9578   -2.5231    0.0000 C   0  0  0  0  0  0  0  0  0  0  0  0
    8.1004   -1.0299    0.0000 C   0  0  0  0  0  0  0  0  0  0  0  0
    6.8785   -0.1599    0.0000 C   0  0  0  0  0  0  0  0  0  0  0  0
    5.5141   -0.7830    0.0000 C   0  0  0  0  0  0  0  0  0  0  0  0
    2.0554    3.1923    0.0000 C   0  0  0  0  0  0  0  0  0  0  0  0
    0.6245    3.6422    0.0000 C   0  0  0  0  0  0  0  0  0  0  0  0
  1  2  1  0
  2  3  1  0
  3  4  1  0
  4  5  1  0
  5  6  1  0
  6  7  1  0
  7  8  2  0
  7  9  1  0
  9 10  2  0
 10 11  1  0
 11 12  2  0
 12 13  1  0
 13 14  2  0
 13 15  1  0
 15 16  1  0
 16 17  1  0
 17 18  2  0
 17 19  1  0
 19 20  2  0
 20 21  1  0
 21 22  1  0
 22 23  2  0
 23 24  1  0
 24 25  2  0
 25 26  1  0
 26 27  2  0
 16 28  1  0
 28 29  1  0
 14  9  1  0
 27 19  1  0
 29 12  1  0
 27 22  1  0
M  END
>  <Compound_ID>  (79) 
LIB079

>  <SMILES>  (79) 
COCCCNC(=O)c1ccc2c(n1)CN(C(=O)c1c[nH]c3ccccc13)CC2

>  <R1_reagent>  (79) 
O=C(O)c1c[nH]c2ccccc12

>  <R1_ID>  (79) 
R-003383

>  <N_reaction>  (79) 
Amidation

>  <R2_amine>  (79) 
COCCCN

>  <R2_ID>  (79) 
R-002716

>  <MW>  (79) 
392.5

>  <LogP>  (79) 
2.53

>  <HBD>  (79) 
2

>  <HBA>  (79) 
4

>  <RotB>  (79) 
6

>  <ASMS_similarity>  (79) 
0.6143

>  <Priority_tier>  (79) 
Tier2_medium

>  <Scaffold>  (79) 
OC(=O)c1ccc2CCNCc2n1

$$$$

     RDKit          2D

 29 32  0  0  0  0  0  0  0  0999 V2000
  -11.4040   -2.1079    0.0000 C   0  0  0  0  0  0  0  0  0  0  0  0
  -10.2989   -1.0937    0.0000 O   0  0  0  0  0  0  0  0  0  0  0  0
   -8.8680   -1.5436    0.0000 C   0  0  0  0  0  0  0  0  0  0  0  0
   -7.7629   -0.5293    0.0000 C   0  0  0  0  0  0  0  0  0  0  0  0
   -6.3320   -0.9792    0.0000 C   0  0  0  0  0  0  0  0  0  0  0  0
   -5.2269    0.0350    0.0000 N   0  0  0  0  0  0  0  0  0  0  0  0
   -3.7959   -0.4149    0.0000 C   0  0  0  0  0  0  0  0  0  0  0  0
   -3.4701   -1.8790    0.0000 O   0  0  0  0  0  0  0  0  0  0  0  0
   -2.6908    0.5994    0.0000 C   0  0  0  0  0  0  0  0  0  0  0  0
   -3.0167    2.0636    0.0000 C   0  0  0  0  0  0  0  0  0  0  0  0
   -1.9115    3.0779    0.0000 C   0  0  0  0  0  0  0  0  0  0  0  0
   -0.4806    2.6279    0.0000 C   0  0  0  0  0  0  0  0  0  0  0  0
   -0.1548    1.1638    0.0000 C   0  0  0  0  0  0  0  0  0  0  0  0
   -1.2599    0.1495    0.0000 N   0  0  0  0  0  0  0  0  0  0  0  0
    1.2762    0.7139    0.0000 C   0  0  0  0  0  0  0  0  0  0  0  0
    2.3813    1.7281    0.0000 N   0  0  0  0  0  0  0  0  0  0  0  0
    3.8122    1.2782    0.0000 C   0  0  0  0  0  0  0  0  0  0  0  0
    4.9173    2.2925    0.0000 O   0  0  0  0  0  0  0  0  0  0  0  0
    4.1380   -0.1860    0.0000 C   0  0  0  0  0  0  0  0  0  0  0  0
    3.1450   -1.3102    0.0000 C   0  0  0  0  0  0  0  0  0  0  0  0
    3.9073   -2.6020    0.0000 O   0  0  0  0  0  0  0  0  0  0  0  0
    5.3715   -2.2762    0.0000 C   0  0  0  0  0  0  0  0  0  0  0  0
    6.5934   -3.1463    0.0000 C   0  0  0  0  0  0  0  0  0  0  0  0
    7.9578   -2.5231    0.0000 C   0  0  0  0  0  0  0  0  0  0  0  0
    8.1004   -1.0299    0.0000 C   0  0  0  0  0  0  0  0  0  0  0  0
    6.8785   -0.1599    0.0000 C   0  0  0  0  0  0  0  0  0  0  0  0
    5.5141   -0.7830    0.0000 C   0  0  0  0  0  0  0  0  0  0  0  0
    2.0554    3.1923    0.0000 C   0  0  0  0  0  0  0  0  0  0  0  0
    0.6245    3.6422    0.0000 C   0  0  0  0  0  0  0  0  0  0  0  0
  1  2  1  0
  2  3  1  0
  3  4  1  0
  4  5  1  0
  5  6  1  0
  6  7  1  0
  7  8  2  0
  7  9  1  0
  9 10  2  0
 10 11  1  0
 11 12  2  0
 12 13  1  0
 13 14  2  0
 13 15  1  0
 15 16  1  0
 16 17  1  0
 17 18  2  0
 17 19  1  0
 19 20  2  0
 20 21  1  0
 21 22  1  0
 22 23  2  0
 23 24  1  0
 24 25  2  0
 25 26  1  0
 26 27  2  0
 16 28  1  0
 28 29  1  0
 14  9  1  0
 27 19  1  0
 29 12  1  0
 27 22  1  0
M  END
>  <Compound_ID>  (80) 
LIB080

>  <SMILES>  (80) 
COCCCNC(=O)c1ccc2c(n1)CN(C(=O)c1coc3ccccc13)CC2

>  <R1_reagent>  (80) 
O=C(O)c1coc2ccccc12

>  <R1_ID>  (80) 
R-008682

>  <N_reaction>  (80) 
Amidation

>  <R2_amine>  (80) 
COCCCN

>  <R2_ID>  (80) 
R-002716

>  <MW>  (80) 
393.4

>  <LogP>  (80) 
2.79

>  <HBD>  (80) 
1

>  <HBA>  (80) 
5

>  <RotB>  (80) 
6

>  <ASMS_similarity>  (80) 
0.6143

>  <Priority_tier>  (80) 
Tier2_medium

>  <Scaffold>  (80) 
OC(=O)c1ccc2CCNCc2n1

$$$$

     RDKit          2D

 27 29  0  0  0  0  0  0  0  0999 V2000
  -10.8655   -1.5120    0.0000 C   0  0  0  0  0  0  0  0  0  0  0  0
   -9.6916   -0.5782    0.0000 O   0  0  0  0  0  0  0  0  0  0  0  0
   -8.2960   -1.1279    0.0000 C   0  0  0  0  0  0  0  0  0  0  0  0
   -7.1221   -0.1941    0.0000 C   0  0  0  0  0  0  0  0  0  0  0  0
   -5.7265   -0.7437    0.0000 C   0  0  0  0  0  0  0  0  0  0  0  0
   -4.5526    0.1901    0.0000 N   0  0  0  0  0  0  0  0  0  0  0  0
   -3.1570   -0.3596    0.0000 C   0  0  0  0  0  0  0  0  0  0  0  0
   -2.9352   -1.8431    0.0000 O   0  0  0  0  0  0  0  0  0  0  0  0
   -1.9831    0.5742    0.0000 C   0  0  0  0  0  0  0  0  0  0  0  0
   -2.2049    2.0577    0.0000 C   0  0  0  0  0  0  0  0  0  0  0  0
   -1.0310    2.9916    0.0000 C   0  0  0  0  0  0  0  0  0  0  0  0
    0.3647    2.4419    0.0000 C   0  0  0  0  0  0  0  0  0  0  0  0
    0.5864    0.9584    0.0000 C   0  0  0  0  0  0  0  0  0  0  0  0
   -0.5874    0.0245    0.0000 N   0  0  0  0  0  0  0  0  0  0  0  0
    1.9821    0.4087    0.0000 C   0  0  0  0  0  0  0  0  0  0  0  0
    3.1560    1.3425    0.0000 N   0  0  0  0  0  0  0  0  0  0  0  0
    4.5516    0.7928    0.0000 C   0  0  0  0  0  0  0  0  0  0  0  0
    5.7255    1.7266    0.0000 O   0  0  0  0  0  0  0  0  0  0  0  0
    4.7734   -0.6907    0.0000 C   0  0  0  0  0  0  0  0  0  0  0  0
    3.5995   -1.6245    0.0000 C   0  0  0  0  0  0  0  0  0  0  0  0
    3.8213   -3.1081    0.0000 C   0  0  0  0  0  0  0  0  0  0  0  0
    5.2170   -3.6577    0.0000 C   0  0  0  0  0  0  0  0  0  0  0  0
    6.3908   -2.7239    0.0000 C   0  0  0  0  0  0  0  0  0  0  0  0
    6.1690   -1.2404    0.0000 C   0  0  0  0  0  0  0  0  0  0  0  0
    7.3429   -0.3066    0.0000 O   0  0  0  0  0  0  0  0  0  0  0  0
    2.9342    2.8260    0.0000 C   0  0  0  0  0  0  0  0  0  0  0  0
    1.5385    3.3757    0.0000 C   0  0  0  0  0  0  0  0  0  0  0  0
  1  2  1  0
  2  3  1  0
  3  4  1  0
  4  5  1  0
  5  6  1  0
  6  7  1  0
  7  8  2  0
  7  9  1  0
  9 10  2  0
 10 11  1  0
 11 12  2  0
 12 13  1  0
 13 14  2  0
 13 15  1  0
 15 16  1  0
 16 17  1  0
 17 18  2  0
 17 19  1  0
 19 20  2  0
 20 21  1  0
 21 22  2  0
 22 23  1  0
 23 24  2  0
 24 25  1  0
 16 26  1  0
 26 27  1  0
 14  9  1  0
 24 19  1  0
 27 12  1  0
M  END
>  <Compound_ID>  (81) 
LIB081

>  <SMILES>  (81) 
COCCCNC(=O)c1ccc2c(n1)CN(C(=O)c1ccccc1O)CC2

>  <R1_reagent>  (81) 
O=C(O)c1ccccc1O

>  <R1_ID>  (81) 
R-003226

>  <N_reaction>  (81) 
Amidation

>  <R2_amine>  (81) 
COCCCN

>  <R2_ID>  (81) 
R-002716

>  <MW>  (81) 
369.4

>  <LogP>  (81) 
1.75

>  <HBD>  (81) 
2

>  <HBA>  (81) 
5

>  <RotB>  (81) 
6

>  <ASMS_similarity>  (81) 
0.6119

>  <Priority_tier>  (81) 
Tier2_medium

>  <Scaffold>  (81) 
OC(=O)c1ccc2CCNCc2n1

$$$$

     RDKit          2D

 29 32  0  0  0  0  0  0  0  0999 V2000
  -11.4606   -1.8946    0.0000 C   0  0  0  0  0  0  0  0  0  0  0  0
  -10.0053   -2.2579    0.0000 C   0  0  0  0  0  0  0  0  0  0  0  0
   -8.9630   -1.1792    0.0000 C   0  0  0  0  0  0  0  0  0  0  0  0
   -7.5077   -1.5424    0.0000 C   0  0  0  0  0  0  0  0  0  0  0  0
   -6.4654   -0.4637    0.0000 C   0  0  0  0  0  0  0  0  0  0  0  0
   -5.0100   -0.8270    0.0000 C   0  0  0  0  0  0  0  0  0  0  0  0
   -4.5970   -2.2690    0.0000 O   0  0  0  0  0  0  0  0  0  0  0  0
   -3.9677    0.2517    0.0000 N   0  0  0  0  0  0  0  0  0  0  0  0
   -4.3808    1.6937    0.0000 C   0  0  0  0  0  0  0  0  0  0  0  0
   -3.3385    2.7725    0.0000 C   0  0  0  0  0  0  0  0  0  0  0  0
   -1.8832    2.4092    0.0000 C   0  0  0  0  0  0  0  0  0  0  0  0
   -0.8409    3.4879    0.0000 C   0  0  0  0  0  0  0  0  0  0  0  0
    0.6144    3.1246    0.0000 C   0  0  0  0  0  0  0  0  0  0  0  0
    1.0275    1.6826    0.0000 C   0  0  0  0  0  0  0  0  0  0  0  0
    2.4828    1.3193    0.0000 C   0  0  0  0  0  0  0  0  0  0  0  0
    3.5251    2.3981    0.0000 O   0  0  0  0  0  0  0  0  0  0  0  0
    2.8959   -0.1227    0.0000 N   0  0  0  0  0  0  0  0  0  0  0  0
    4.3513   -0.4860    0.0000 C   0  0  0  0  0  0  0  0  0  0  0  0
    4.9128   -1.8769    0.0000 C   0  0  0  0  0  0  0  0  0  0  0  0
    6.4092   -1.7727    0.0000 C   0  0  0  0  0  0  0  0  0  0  0  0
    7.4879   -2.8149    0.0000 C   0  0  0  0  0  0  0  0  0  0  0  0
    8.9299   -2.4019    0.0000 C   0  0  0  0  0  0  0  0  0  0  0  0
    9.2932   -0.9465    0.0000 C   0  0  0  0  0  0  0  0  0  0  0  0
    8.2144    0.0957    0.0000 C   0  0  0  0  0  0  0  0  0  0  0  0
    6.7724   -0.3173    0.0000 C   0  0  0  0  0  0  0  0  0  0  0  0
    5.5006    0.4779    0.0000 C   0  0  0  0  0  0  0  0  0  0  0  0
   -0.0148    0.6039    0.0000 N   0  0  0  0  0  0  0  0  0  0  0  0
   -1.4701    0.9672    0.0000 C   0  0  0  0  0  0  0  0  0  0  0  0
   -2.5124   -0.1116    0.0000 C   0  0  0  0  0  0  0  0  0  0  0  0
  1  2  1  0
  2  3  1  0
  3  4  1  0
  4  5  1  0
  5  6  1  0
  6  7  2  0
  6  8  1  0
  8  9  1  0
  9 10  1  0
 10 11  1  0
 11 12  2  0
 12 13  1  0
 13 14  2  0
 14 15  1  0
 15 16  2  0
 15 17  1  0
 17 18  1  0
 18 19  1  0
 19 20  1  0
 20 21  2  0
 21 22  1  0
 22 23  2  0
 23 24  1  0
 24 25  2  0
 25 26  1  0
 14 27  1  0
 27 28  2  0
 28 29  1  0
 29  8  1  0
 28 11  1  0
 26 18  1  0
 25 20  1  0
M  END
>  <Compound_ID>  (82) 
LIB082

>  <SMILES>  (82) 
CCCCCC(=O)N1CCc2ccc(C(=O)NC3Cc4ccccc4C3)nc2C1

>  <R1_reagent>  (82) 
CCCCCC(=O)O

>  <R1_ID>  (82) 
R-009172

>  <N_reaction>  (82) 
Amidation

>  <R2_amine>  (82) 
Cl.NC1Cc2ccccc2C1

>  <R2_ID>  (82) 
R-003103

>  <MW>  (82) 
391.5

>  <LogP>  (82) 
3.44

>  <HBD>  (82) 
1

>  <HBA>  (82) 
3

>  <RotB>  (82) 
6

>  <ASMS_similarity>  (82) 
0.6111

>  <Priority_tier>  (82) 
Tier2_medium

>  <Scaffold>  (82) 
OC(=O)c1ccc2CCNCc2n1

$$$$

     RDKit          2D

 28 31  0  0  0  0  0  0  0  0999 V2000
  -10.6520   -1.5891    0.0000 C   0  0  0  0  0  0  0  0  0  0  0  0
   -9.2045   -1.9823    0.0000 O   0  0  0  0  0  0  0  0  0  0  0  0
   -8.1401   -0.9254    0.0000 C   0  0  0  0  0  0  0  0  0  0  0  0
   -6.6926   -1.3187    0.0000 C   0  0  0  0  0  0  0  0  0  0  0  0
   -5.6282   -0.2618    0.0000 N   0  0  0  0  0  0  0  0  0  0  0  0
   -4.1807   -0.6551    0.0000 C   0  0  0  0  0  0  0  0  0  0  0  0
   -3.7975   -2.1053    0.0000 O   0  0  0  0  0  0  0  0  0  0  0  0
   -3.1163    0.4019    0.0000 C   0  0  0  0  0  0  0  0  0  0  0  0
   -3.4995    1.8521    0.0000 C   0  0  0  0  0  0  0  0  0  0  0  0
   -2.4351    2.9091    0.0000 C   0  0  0  0  0  0  0  0  0  0  0  0
   -0.9876    2.5158    0.0000 C   0  0  0  0  0  0  0  0  0  0  0  0
   -0.6044    1.0655    0.0000 C   0  0  0  0  0  0  0  0  0  0  0  0
   -1.6688    0.0086    0.0000 N   0  0  0  0  0  0  0  0  0  0  0  0
    0.8431    0.6722    0.0000 C   0  0  0  0  0  0  0  0  0  0  0  0
    1.9075    1.7292    0.0000 N   0  0  0  0  0  0  0  0  0  0  0  0
    3.3550    1.3359    0.0000 C   0  0  0  0  0  0  0  0  0  0  0  0
    4.4193    2.3928    0.0000 O   0  0  0  0  0  0  0  0  0  0  0  0
    3.7381   -0.1144    0.0000 C   0  0  0  0  0  0  0  0  0  0  0  0
    2.7901   -1.2768    0.0000 C   0  0  0  0  0  0  0  0  0  0  0  0
    3.6026   -2.5376    0.0000 N   0  0  0  0  0  0  0  0  0  0  0  0
    5.0529   -2.1545    0.0000 C   0  0  0  0  0  0  0  0  0  0  0  0
    6.3080   -2.9758    0.0000 C   0  0  0  0  0  0  0  0  0  0  0  0
    7.6469   -2.2995    0.0000 C   0  0  0  0  0  0  0  0  0  0  0  0
    7.7306   -0.8018    0.0000 C   0  0  0  0  0  0  0  0  0  0  0  0
    6.4755    0.0195    0.0000 C   0  0  0  0  0  0  0  0  0  0  0  0
    5.1366   -0.6568    0.0000 C   0  0  0  0  0  0  0  0  0  0  0  0
    1.5243    3.1794    0.0000 C   0  0  0  0  0  0  0  0  0  0  0  0
    0.0768    3.5727    0.0000 C   0  0  0  0  0  0  0  0  0  0  0  0
  1  2  1  0
  2  3  1  0
  3  4  1  0
  4  5  1  0
  5  6  1  0
  6  7  2  0
  6  8  1  0
  8  9  2  0
  9 10  1  0
 10 11  2  0
 11 12  1  0
 12 13  2  0
 12 14  1  0
 14 15  1  0
 15 16  1  0
 16 17  2  0
 16 18  1  0
 18 19  2  0
 19 20  1  0
 20 21  1  0
 21 22  2  0
 22 23  1  0
 23 24  2  0
 24 25  1  0
 25 26  2  0
 15 27  1  0
 27 28  1  0
 13  8  1  0
 26 18  1  0
 28 11  1  0
 26 21  1  0
M  END
>  <Compound_ID>  (83) 
LIB083

>  <SMILES>  (83) 
COCCNC(=O)c1ccc2c(n1)CN(C(=O)c1c[nH]c3ccccc13)CC2

>  <R1_reagent>  (83) 
O=C(O)c1c[nH]c2ccccc12

>  <R1_ID>  (83) 
R-003383

>  <N_reaction>  (83) 
Amidation

>  <R2_amine>  (83) 
COCCN

>  <R2_ID>  (83) 
R-005403

>  <MW>  (83) 
378.4

>  <LogP>  (83) 
2.14

>  <HBD>  (83) 
2

>  <HBA>  (83) 
4

>  <RotB>  (83) 
5

>  <ASMS_similarity>  (83) 
0.6087

>  <Priority_tier>  (83) 
Tier2_medium

>  <Scaffold>  (83) 
OC(=O)c1ccc2CCNCc2n1

$$$$

     RDKit          2D

 28 31  0  0  0  0  0  0  0  0999 V2000
  -10.6520   -1.5891    0.0000 C   0  0  0  0  0  0  0  0  0  0  0  0
   -9.2045   -1.9823    0.0000 O   0  0  0  0  0  0  0  0  0  0  0  0
   -8.1401   -0.9254    0.0000 C   0  0  0  0  0  0  0  0  0  0  0  0
   -6.6926   -1.3187    0.0000 C   0  0  0  0  0  0  0  0  0  0  0  0
   -5.6282   -0.2618    0.0000 N   0  0  0  0  0  0  0  0  0  0  0  0
   -4.1807   -0.6551    0.0000 C   0  0  0  0  0  0  0  0  0  0  0  0
   -3.7975   -2.1053    0.0000 O   0  0  0  0  0  0  0  0  0  0  0  0
   -3.1163    0.4019    0.0000 C   0  0  0  0  0  0  0  0  0  0  0  0
   -3.4995    1.8521    0.0000 C   0  0  0  0  0  0  0  0  0  0  0  0
   -2.4351    2.9091    0.0000 C   0  0  0  0  0  0  0  0  0  0  0  0
   -0.9876    2.5158    0.0000 C   0  0  0  0  0  0  0  0  0  0  0  0
   -0.6044    1.0655    0.0000 C   0  0  0  0  0  0  0  0  0  0  0  0
   -1.6688    0.0086    0.0000 N   0  0  0  0  0  0  0  0  0  0  0  0
    0.8431    0.6722    0.0000 C   0  0  0  0  0  0  0  0  0  0  0  0
    1.9075    1.7292    0.0000 N   0  0  0  0  0  0  0  0  0  0  0  0
    3.3550    1.3359    0.0000 C   0  0  0  0  0  0  0  0  0  0  0  0
    4.4193    2.3928    0.0000 O   0  0  0  0  0  0  0  0  0  0  0  0
    3.7381   -0.1144    0.0000 C   0  0  0  0  0  0  0  0  0  0  0  0
    2.7901   -1.2768    0.0000 C   0  0  0  0  0  0  0  0  0  0  0  0
    3.6026   -2.5376    0.0000 O   0  0  0  0  0  0  0  0  0  0  0  0
    5.0529   -2.1545    0.0000 C   0  0  0  0  0  0  0  0  0  0  0  0
    6.3080   -2.9758    0.0000 C   0  0  0  0  0  0  0  0  0  0  0  0
    7.6469   -2.2995    0.0000 C   0  0  0  0  0  0  0  0  0  0  0  0
    7.7306   -0.8018    0.0000 C   0  0  0  0  0  0  0  0  0  0  0  0
    6.4755    0.0195    0.0000 C   0  0  0  0  0  0  0  0  0  0  0  0
    5.1366   -0.6568    0.0000 C   0  0  0  0  0  0  0  0  0  0  0  0
    1.5243    3.1794    0.0000 C   0  0  0  0  0  0  0  0  0  0  0  0
    0.0768    3.5727    0.0000 C   0  0  0  0  0  0  0  0  0  0  0  0
  1  2  1  0
  2  3  1  0
  3  4  1  0
  4  5  1  0
  5  6  1  0
  6  7  2  0
  6  8  1  0
  8  9  2  0
  9 10  1  0
 10 11  2  0
 11 12  1  0
 12 13  2  0
 12 14  1  0
 14 15  1  0
 15 16  1  0
 16 17  2  0
 16 18  1  0
 18 19  2  0
 19 20  1  0
 20 21  1  0
 21 22  2  0
 22 23  1  0
 23 24  2  0
 24 25  1  0
 25 26  2  0
 15 27  1  0
 27 28  1  0
 13  8  1  0
 26 18  1  0
 28 11  1  0
 26 21  1  0
M  END
>  <Compound_ID>  (84) 
LIB084

>  <SMILES>  (84) 
COCCNC(=O)c1ccc2c(n1)CN(C(=O)c1coc3ccccc13)CC2

>  <R1_reagent>  (84) 
O=C(O)c1coc2ccccc12

>  <R1_ID>  (84) 
R-008682

>  <N_reaction>  (84) 
Amidation

>  <R2_amine>  (84) 
COCCN

>  <R2_ID>  (84) 
R-005403

>  <MW>  (84) 
379.4

>  <LogP>  (84) 
2.4

>  <HBD>  (84) 
1

>  <HBA>  (84) 
5

>  <RotB>  (84) 
5

>  <ASMS_similarity>  (84) 
0.6087

>  <Priority_tier>  (84) 
Tier2_medium

>  <Scaffold>  (84) 
OC(=O)c1ccc2CCNCc2n1

$$$$

     RDKit          2D

 35 38  0  0  0  0  0  0  0  0999 V2000
   -5.2177    5.6211    0.0000 C   0  0  0  0  0  0  0  0  0  0  0  0
   -6.4367    4.7470    0.0000 O   0  0  0  0  0  0  0  0  0  0  0  0
   -6.2891    3.2542    0.0000 C   0  0  0  0  0  0  0  0  0  0  0  0
   -4.9226    2.6357    0.0000 C   0  0  0  0  0  0  0  0  0  0  0  0
   -4.7750    1.1429    0.0000 C   0  0  0  0  0  0  0  0  0  0  0  0
   -5.9940    0.2688    0.0000 C   0  0  0  0  0  0  0  0  0  0  0  0
   -5.8464   -1.2239    0.0000 C   0  0  0  0  0  0  0  0  0  0  0  0
   -7.0654   -2.0981    0.0000 O   0  0  0  0  0  0  0  0  0  0  0  0
   -4.4799   -1.8425    0.0000 N   0  0  0  0  0  0  0  0  0  0  0  0
   -4.3323   -3.3352    0.0000 C   0  0  0  0  0  0  0  0  0  0  0  0
   -2.9658   -3.9538    0.0000 C   0  0  0  0  0  0  0  0  0  0  0  0
   -1.7469   -3.0796    0.0000 C   0  0  0  0  0  0  0  0  0  0  0  0
   -0.3803   -3.6982    0.0000 C   0  0  0  0  0  0  0  0  0  0  0  0
    0.8386   -2.8241    0.0000 C   0  0  0  0  0  0  0  0  0  0  0  0
    0.6911   -1.3313    0.0000 C   0  0  0  0  0  0  0  0  0  0  0  0
    1.9100   -0.4572    0.0000 C   0  0  0  0  0  0  0  0  0  0  0  0
    1.7624    1.0355    0.0000 O   0  0  0  0  0  0  0  0  0  0  0  0
    3.2765   -1.0757    0.0000 N   0  0  0  0  0  0  0  0  0  0  0  0
    4.4955   -0.2016    0.0000 C   0  0  0  0  0  0  0  0  0  0  0  0
    5.8620   -0.8202    0.0000 C   0  0  0  0  0  0  0  0  0  0  0  0
    7.0810    0.0540    0.0000 O   0  0  0  0  0  0  0  0  0  0  0  0
    8.4475   -0.5646    0.0000 C   0  0  0  0  0  0  0  0  0  0  0  0
    9.6664    0.3096    0.0000 C   0  0  0  0  0  0  0  0  0  0  0  0
   11.0329   -0.3090    0.0000 C   0  0  0  0  0  0  0  0  0  0  0  0
   12.2519    0.5652    0.0000 C   0  0  0  0  0  0  0  0  0  0  0  0
   12.1043    2.0579    0.0000 C   0  0  0  0  0  0  0  0  0  0  0  0
   10.7378    2.6765    0.0000 C   0  0  0  0  0  0  0  0  0  0  0  0
    9.5189    1.8023    0.0000 C   0  0  0  0  0  0  0  0  0  0  0  0
   -0.6755   -0.7128    0.0000 N   0  0  0  0  0  0  0  0  0  0  0  0
   -1.8944   -1.5869    0.0000 C   0  0  0  0  0  0  0  0  0  0  0  0
   -3.2609   -0.9683    0.0000 C   0  0  0  0  0  0  0  0  0  0  0  0
   -7.3605    0.8874    0.0000 C   0  0  0  0  0  0  0  0  0  0  0  0
   -8.5795    0.0132    0.0000 O   0  0  0  0  0  0  0  0  0  0  0  0
   -9.9460    0.6318    0.0000 C   0  0  0  0  0  0  0  0  0  0  0  0
   -7.5081    2.3801    0.0000 N   0  0  0  0  0  0  0  0  0  0  0  0
  1  2  1  0
  2  3  1  0
  3  4  2  0
  4  5  1  0
  5  6  2  0
  6  7  1  0
  7  8  2  0
  7  9  1  0
  9 10  1  0
 10 11  1  0
 11 12  1  0
 12 13  2  0
 13 14  1  0
 14 15  2  0
 15 16  1  0
 16 17  2  0
 16 18  1  0
 18 19  1  0
 19 20  1  0
 20 21  1  0
 21 22  1  0
 22 23  1  0
 23 24  2  0
 24 25  1  0
 25 26  2  0
 26 27  1  0
 27 28  2  0
 15 29  1  0
 29 30  2  0
 30 31  1  0
  6 32  1  0
 32 33  1  0
 33 34  1  0
 32 35  2  0
 35  3  1  0
 31  9  1  0
 30 12  1  0
 28 23  1  0
M  END
>  <Compound_ID>  (85) 
LIB085

>  <SMILES>  (85) 
COc1ccc(C(=O)N2CCc3ccc(C(=O)NCCOCc4ccccc4)nc3C2)c(OC)n1

>  <R1_reagent>  (85) 
COc1ccc(C(=O)O)c(OC)n1

>  <R1_ID>  (85) 
R-001478

>  <N_reaction>  (85) 
Amidation

>  <R2_amine>  (85) 
NCCOCc1ccccc1

>  <R2_ID>  (85) 
R-000973

>  <MW>  (85) 
476.5

>  <LogP>  (85) 
2.64

>  <HBD>  (85) 
1

>  <HBA>  (85) 
7

>  <RotB>  (85) 
9

>  <ASMS_similarity>  (85) 
0.6081

>  <Priority_tier>  (85) 
Tier2_medium

>  <Scaffold>  (85) 
OC(=O)c1ccc2CCNCc2n1

$$$$

     RDKit          2D

 28 31  0  0  0  0  0  0  0  0999 V2000
   -7.5264    3.7506    0.0000 C   0  0  0  0  0  0  0  0  0  0  0  0
   -6.7033    2.4966    0.0000 C   0  0  0  0  0  0  0  0  0  0  0  0
   -5.2057    2.5825    0.0000 C   0  0  0  0  0  0  0  0  0  0  0  0
   -4.3826    1.3286    0.0000 C   0  0  0  0  0  0  0  0  0  0  0  0
   -5.0569   -0.0113    0.0000 C   0  0  0  0  0  0  0  0  0  0  0  0
   -4.2338   -1.2652    0.0000 C   0  0  0  0  0  0  0  0  0  0  0  0
   -2.7362   -1.1793    0.0000 N   0  0  0  0  0  0  0  0  0  0  0  0
   -1.9131   -2.4333    0.0000 C   0  0  0  0  0  0  0  0  0  0  0  0
   -2.5874   -3.7731    0.0000 O   0  0  0  0  0  0  0  0  0  0  0  0
   -0.4155   -2.3474    0.0000 C   0  0  0  0  0  0  0  0  0  0  0  0
    0.4076   -3.6013    0.0000 C   0  0  0  0  0  0  0  0  0  0  0  0
    1.9052   -3.5154    0.0000 C   0  0  0  0  0  0  0  0  0  0  0  0
    2.5796   -2.1755    0.0000 C   0  0  0  0  0  0  0  0  0  0  0  0
    1.7564   -0.9216    0.0000 C   0  0  0  0  0  0  0  0  0  0  0  0
    0.2588   -1.0075    0.0000 N   0  0  0  0  0  0  0  0  0  0  0  0
    2.4308    0.4183    0.0000 C   0  0  0  0  0  0  0  0  0  0  0  0
    3.9283    0.5042    0.0000 N   0  0  0  0  0  0  0  0  0  0  0  0
    4.6027    1.8440    0.0000 C   0  0  0  0  0  0  0  0  0  0  0  0
    6.1002    1.9299    0.0000 C   0  0  0  0  0  0  0  0  0  0  0  0
    6.9109    3.1920    0.0000 C   0  0  0  0  0  0  0  0  0  0  0  0
    8.3617    2.8109    0.0000 C   0  0  0  0  0  0  0  0  0  0  0  0
    8.4476    1.3134    0.0000 S   0  0  0  0  0  0  0  0  0  0  0  0
    7.0499    0.7689    0.0000 C   0  0  0  0  0  0  0  0  0  0  0  0
    4.7515   -0.7498    0.0000 C   0  0  0  0  0  0  0  0  0  0  0  0
    4.0771   -2.0896    0.0000 C   0  0  0  0  0  0  0  0  0  0  0  0
   -6.5545   -0.0972    0.0000 C   0  0  0  0  0  0  0  0  0  0  0  0
   -7.3776    1.1568    0.0000 C   0  0  0  0  0  0  0  0  0  0  0  0
   -8.8752    1.0709    0.0000 C   0  0  0  0  0  0  0  0  0  0  0  0
  1  2  1  0
  2  3  2  0
  3  4  1  0
  4  5  2  0
  5  6  1  0
  6  7  1  0
  7  8  1  0
  8  9  2  0
  8 10  1  0
 10 11  2  0
 11 12  1  0
 12 13  2  0
 13 14  1  0
 14 15  2  0
 14 16  1  0
 16 17  1  0
 17 18  1  0
 18 19  1  0
 19 20  1  0
 20 21  2  0
 21 22  1  0
 22 23  1  0
 17 24  1  0
 24 25  1  0
  5 26  1  0
 26 27  2  0
 27 28  1  0
 27  2  1  0
 15 10  1  0
 23 19  2  0
 25 13  1  0
M  END
>  <Compound_ID>  (86) 
LIB086

>  <SMILES>  (86) 
Cc1ccc(CNC(=O)c2ccc3c(n2)CN(Cc2ccsc2)CC3)cc1C

>  <R1_reagent>  (86) 
O=Cc1ccsc1

>  <R1_ID>  (86) 
R-000274

>  <N_reaction>  (86) 
Reductive_amination

>  <R2_amine>  (86) 
Cc1ccc(CN)cc1C

>  <R2_ID>  (86) 
R-008930

>  <MW>  (86) 
391.5

>  <LogP>  (86) 
4.25

>  <HBD>  (86) 
1

>  <HBA>  (86) 
4

>  <RotB>  (86) 
5

>  <ASMS_similarity>  (86) 
0.6081

>  <Priority_tier>  (86) 
Tier2_medium

>  <Scaffold>  (86) 
OC(=O)c1ccc2CCNCc2n1

$$$$

     RDKit          2D

 26 28  0  0  0  0  0  0  0  0999 V2000
  -10.0816   -0.9843    0.0000 C   0  0  0  0  0  0  0  0  0  0  0  0
   -8.6679   -1.4856    0.0000 O   0  0  0  0  0  0  0  0  0  0  0  0
   -7.5269   -0.5119    0.0000 C   0  0  0  0  0  0  0  0  0  0  0  0
   -6.1131   -1.0132    0.0000 C   0  0  0  0  0  0  0  0  0  0  0  0
   -4.9721   -0.0394    0.0000 N   0  0  0  0  0  0  0  0  0  0  0  0
   -3.5583   -0.5407    0.0000 C   0  0  0  0  0  0  0  0  0  0  0  0
   -3.2856   -2.0157    0.0000 O   0  0  0  0  0  0  0  0  0  0  0  0
   -2.4173    0.4330    0.0000 C   0  0  0  0  0  0  0  0  0  0  0  0
   -2.6901    1.9080    0.0000 C   0  0  0  0  0  0  0  0  0  0  0  0
   -1.5491    2.8817    0.0000 C   0  0  0  0  0  0  0  0  0  0  0  0
   -0.1354    2.3805    0.0000 C   0  0  0  0  0  0  0  0  0  0  0  0
    0.1374    0.9055    0.0000 C   0  0  0  0  0  0  0  0  0  0  0  0
   -1.0036   -0.0683    0.0000 N   0  0  0  0  0  0  0  0  0  0  0  0
    1.5512    0.4042    0.0000 C   0  0  0  0  0  0  0  0  0  0  0  0
    2.6922    1.3779    0.0000 N   0  0  0  0  0  0  0  0  0  0  0  0
    4.1059    0.8767    0.0000 C   0  0  0  0  0  0  0  0  0  0  0  0
    5.2469    1.8504    0.0000 O   0  0  0  0  0  0  0  0  0  0  0  0
    4.3787   -0.5983    0.0000 C   0  0  0  0  0  0  0  0  0  0  0  0
    3.2377   -1.5721    0.0000 C   0  0  0  0  0  0  0  0  0  0  0  0
    3.5105   -3.0471    0.0000 C   0  0  0  0  0  0  0  0  0  0  0  0
    4.9242   -3.5483    0.0000 C   0  0  0  0  0  0  0  0  0  0  0  0
    6.0652   -2.5746    0.0000 C   0  0  0  0  0  0  0  0  0  0  0  0
    5.7925   -1.0996    0.0000 C   0  0  0  0  0  0  0  0  0  0  0  0
    6.9335   -0.1259    0.0000 O   0  0  0  0  0  0  0  0  0  0  0  0
    2.4194    2.8529    0.0000 C   0  0  0  0  0  0  0  0  0  0  0  0
    1.0056    3.3542    0.0000 C   0  0  0  0  0  0  0  0  0  0  0  0
  1  2  1  0
  2  3  1  0
  3  4  1  0
  4  5  1  0
  5  6  1  0
  6  7  2  0
  6  8  1  0
  8  9  2  0
  9 10  1  0
 10 11  2  0
 11 12  1  0
 12 13  2  0
 12 14  1  0
 14 15  1  0
 15 16  1  0
 16 17  2  0
 16 18  1  0
 18 19  2  0
 19 20  1  0
 20 21  2  0
 21 22  1  0
 22 23  2  0
 23 24  1  0
 15 25  1  0
 25 26  1  0
 13  8  1  0
 23 18  1  0
 26 11  1  0
M  END
>  <Compound_ID>  (87) 
LIB087

>  <SMILES>  (87) 
COCCNC(=O)c1ccc2c(n1)CN(C(=O)c1ccccc1O)CC2

>  <R1_reagent>  (87) 
O=C(O)c1ccccc1O

>  <R1_ID>  (87) 
R-003226

>  <N_reaction>  (87) 
Amidation

>  <R2_amine>  (87) 
COCCN

>  <R2_ID>  (87) 
R-005403

>  <MW>  (87) 
355.4

>  <LogP>  (87) 
1.36

>  <HBD>  (87) 
2

>  <HBA>  (87) 
5

>  <RotB>  (87) 
5

>  <ASMS_similarity>  (87) 
0.6061

>  <Priority_tier>  (87) 
Tier2_medium

>  <Scaffold>  (87) 
OC(=O)c1ccc2CCNCc2n1

$$$$

     RDKit          2D

 26 28  0  0  0  0  0  0  0  0999 V2000
  -10.5894   -1.4795    0.0000 C   0  0  0  0  0  0  0  0  0  0  0  0
   -9.4116   -0.5506    0.0000 O   0  0  0  0  0  0  0  0  0  0  0  0
   -8.0183   -1.1061    0.0000 C   0  0  0  0  0  0  0  0  0  0  0  0
   -6.8405   -0.1772    0.0000 C   0  0  0  0  0  0  0  0  0  0  0  0
   -5.4472   -0.7327    0.0000 C   0  0  0  0  0  0  0  0  0  0  0  0
   -4.2694    0.1962    0.0000 N   0  0  0  0  0  0  0  0  0  0  0  0
   -2.8761   -0.3594    0.0000 C   0  0  0  0  0  0  0  0  0  0  0  0
   -2.6605   -1.8438    0.0000 O   0  0  0  0  0  0  0  0  0  0  0  0
   -1.6983    0.5695    0.0000 C   0  0  0  0  0  0  0  0  0  0  0  0
   -1.9139    2.0540    0.0000 C   0  0  0  0  0  0  0  0  0  0  0  0
   -0.7361    2.9829    0.0000 C   0  0  0  0  0  0  0  0  0  0  0  0
    0.6572    2.4273    0.0000 C   0  0  0  0  0  0  0  0  0  0  0  0
    0.8728    0.9429    0.0000 C   0  0  0  0  0  0  0  0  0  0  0  0
   -0.3050    0.0140    0.0000 N   0  0  0  0  0  0  0  0  0  0  0  0
    2.2661    0.3874    0.0000 C   0  0  0  0  0  0  0  0  0  0  0  0
    3.4439    1.3163    0.0000 N   0  0  0  0  0  0  0  0  0  0  0  0
    4.8373    0.7608    0.0000 C   0  0  0  0  0  0  0  0  0  0  0  0
    6.0150    1.6897    0.0000 O   0  0  0  0  0  0  0  0  0  0  0  0
    5.0528   -0.7237    0.0000 C   0  0  0  0  0  0  0  0  0  0  0  0
    3.8751   -1.6526    0.0000 C   0  0  0  0  0  0  0  0  0  0  0  0
    4.0906   -3.1370    0.0000 C   0  0  0  0  0  0  0  0  0  0  0  0
    5.4840   -3.6925    0.0000 C   0  0  0  0  0  0  0  0  0  0  0  0
    6.6617   -2.7636    0.0000 C   0  0  0  0  0  0  0  0  0  0  0  0
    6.4462   -1.2792    0.0000 C   0  0  0  0  0  0  0  0  0  0  0  0
    3.2283    2.8007    0.0000 C   0  0  0  0  0  0  0  0  0  0  0  0
    1.8350    3.3562    0.0000 C   0  0  0  0  0  0  0  0  0  0  0  0
  1  2  1  0
  2  3  1  0
  3  4  1  0
  4  5  1  0
  5  6  1  0
  6  7  1  0
  7  8  2  0
  7  9  1  0
  9 10  2  0
 10 11  1  0
 11 12  2  0
 12 13  1  0
 13 14  2  0
 13 15  1  0
 15 16  1  0
 16 17  1  0
 17 18  2  0
 17 19  1  0
 19 20  2  0
 20 21  1  0
 21 22  2  0
 22 23  1  0
 23 24  2  0
 16 25  1  0
 25 26  1  0
 14  9  1  0
 24 19  1  0
 26 12  1  0
M  END
>  <Compound_ID>  (88) 
LIB088

>  <SMILES>  (88) 
COCCCNC(=O)c1ccc2c(n1)CN(C(=O)c1ccccc1)CC2

>  <R1_reagent>  (88) 
O=C(Cl)c1ccccc1

>  <R1_ID>  (88) 
R-003427

>  <N_reaction>  (88) 
Amidation

>  <R2_amine>  (88) 
COCCCN

>  <R2_ID>  (88) 
R-002716

>  <MW>  (88) 
353.4

>  <LogP>  (88) 
2.05

>  <HBD>  (88) 
1

>  <HBA>  (88) 
4

>  <RotB>  (88) 
6

>  <ASMS_similarity>  (88) 
0.6061

>  <Priority_tier>  (88) 
Tier2_medium

>  <Scaffold>  (88) 
OC(=O)c1ccc2CCNCc2n1

$$$$

     RDKit          2D

 27 29  0  0  0  0  0  0  0  0999 V2000
   -7.8403   -2.6572    0.0000 C   0  0  0  0  0  0  0  0  0  0  0  0
   -6.3416   -2.7199    0.0000 C   0  0  0  0  0  0  0  0  0  0  0  0
   -5.5379   -1.4534    0.0000 C   0  0  0  0  0  0  0  0  0  0  0  0
   -6.2329   -0.1241    0.0000 C   0  0  0  0  0  0  0  0  0  0  0  0
   -7.7316   -0.0614    0.0000 C   0  0  0  0  0  0  0  0  0  0  0  0
   -4.0392   -1.5162    0.0000 C   0  0  0  0  0  0  0  0  0  0  0  0
   -3.3442   -2.8455    0.0000 O   0  0  0  0  0  0  0  0  0  0  0  0
   -3.2355   -0.2497    0.0000 N   0  0  0  0  0  0  0  0  0  0  0  0
   -3.9305    1.0796    0.0000 C   0  0  0  0  0  0  0  0  0  0  0  0
   -3.1268    2.3461    0.0000 C   0  0  0  0  0  0  0  0  0  0  0  0
   -1.6281    2.2833    0.0000 C   0  0  0  0  0  0  0  0  0  0  0  0
   -0.8244    3.5498    0.0000 C   0  0  0  0  0  0  0  0  0  0  0  0
    0.6743    3.4870    0.0000 C   0  0  0  0  0  0  0  0  0  0  0  0
    1.3693    2.1578    0.0000 C   0  0  0  0  0  0  0  0  0  0  0  0
    2.8680    2.0950    0.0000 C   0  0  0  0  0  0  0  0  0  0  0  0
    3.6717    3.3615    0.0000 O   0  0  0  0  0  0  0  0  0  0  0  0
    3.5629    0.7657    0.0000 N   0  0  0  0  0  0  0  0  0  0  0  0
    5.0616    0.7029    0.0000 C   0  0  0  0  0  0  0  0  0  0  0  0
    5.7566   -0.6264    0.0000 C   0  0  0  0  0  0  0  0  0  0  0  0
    4.9529   -1.8929    0.0000 C   0  0  0  0  0  0  0  0  0  0  0  0
    5.6479   -3.2222    0.0000 C   0  0  0  0  0  0  0  0  0  0  0  0
    7.1465   -3.2850    0.0000 C   0  0  0  0  0  0  0  0  0  0  0  0
    7.9503   -2.0185    0.0000 C   0  0  0  0  0  0  0  0  0  0  0  0
    7.2553   -0.6892    0.0000 N   0  0  0  0  0  0  0  0  0  0  0  0
    0.5656    0.8912    0.0000 N   0  0  0  0  0  0  0  0  0  0  0  0
   -0.9331    0.9540    0.0000 C   0  0  0  0  0  0  0  0  0  0  0  0
   -1.7368   -0.3125    0.0000 C   0  0  0  0  0  0  0  0  0  0  0  0
  1  2  1  0
  2  3  1  0
  3  4  1  0
  4  5  1  0
  3  6  1  0
  6  7  2  0
  6  8  1  0
  8  9  1  0
  9 10  1  0
 10 11  1  0
 11 12  2  0
 12 13  1  0
 13 14  2  0
 14 15  1  0
 15 16  2  0
 15 17  1  0
 17 18  1  0
 18 19  1  0
 19 20  2  0
 20 21  1  0
 21 22  2  0
 22 23  1  0
 23 24  2  0
 14 25  1  0
 25 26  2  0
 26 27  1  0
 27  8  1  0
 26 11  1  0
 24 19  1  0
M  END
>  <Compound_ID>  (89) 
LIB089

>  <SMILES>  (89) 
CCC(CC)C(=O)N1CCc2ccc(C(=O)NCc3ccccn3)nc2C1

>  <R1_reagent>  (89) 
CCC(CC)C(=O)Cl

>  <R1_ID>  (89) 
R-005857

>  <N_reaction>  (89) 
Amidation

>  <R2_amine>  (89) 
NCc1ccccn1

>  <R2_ID>  (89) 
R-004572

>  <MW>  (89) 
366.5

>  <LogP>  (89) 
2.73

>  <HBD>  (89) 
1

>  <HBA>  (89) 
4

>  <RotB>  (89) 
6

>  <ASMS_similarity>  (89) 
0.6061

>  <Priority_tier>  (89) 
Tier2_medium

>  <Scaffold>  (89) 
OC(=O)c1ccc2CCNCc2n1

$$$$

     RDKit          2D

 31 34  0  0  0  0  0  0  0  0999 V2000
   -8.8041    3.6743    0.0000 C   0  0  0  0  0  0  0  0  0  0  0  0
   -8.5033    2.2047    0.0000 O   0  0  0  0  0  0  0  0  0  0  0  0
   -7.0803    1.7304    0.0000 C   0  0  0  0  0  0  0  0  0  0  0  0
   -5.9580    2.7256    0.0000 C   0  0  0  0  0  0  0  0  0  0  0  0
   -4.5350    2.2513    0.0000 C   0  0  0  0  0  0  0  0  0  0  0  0
   -4.2343    0.7818    0.0000 C   0  0  0  0  0  0  0  0  0  0  0  0
   -2.8112    0.3075    0.0000 N   0  0  0  0  0  0  0  0  0  0  0  0
   -2.5105   -1.1621    0.0000 C   0  0  0  0  0  0  0  0  0  0  0  0
   -3.6328   -2.1573    0.0000 O   0  0  0  0  0  0  0  0  0  0  0  0
   -1.0874   -1.6364    0.0000 C   0  0  0  0  0  0  0  0  0  0  0  0
   -0.7867   -3.1060    0.0000 C   0  0  0  0  0  0  0  0  0  0  0  0
    0.6363   -3.5803    0.0000 C   0  0  0  0  0  0  0  0  0  0  0  0
    1.7586   -2.5851    0.0000 C   0  0  0  0  0  0  0  0  0  0  0  0
    1.4579   -1.1155    0.0000 C   0  0  0  0  0  0  0  0  0  0  0  0
    0.0348   -0.6412    0.0000 N   0  0  0  0  0  0  0  0  0  0  0  0
    2.5802   -0.1203    0.0000 C   0  0  0  0  0  0  0  0  0  0  0  0
    4.0032   -0.5946    0.0000 N   0  0  0  0  0  0  0  0  0  0  0  0
    5.1255    0.4006    0.0000 C   0  0  0  0  0  0  0  0  0  0  0  0
    4.8247    1.8701    0.0000 O   0  0  0  0  0  0  0  0  0  0  0  0
    6.5485   -0.0737    0.0000 C   0  0  0  0  0  0  0  0  0  0  0  0
    7.6708    0.9215    0.0000 C   0  0  0  0  0  0  0  0  0  0  0  0
    7.5253    2.4144    0.0000 C   0  0  0  0  0  0  0  0  0  0  0  0
    8.9002    3.0141    0.0000 C   0  0  0  0  0  0  0  0  0  0  0  0
    9.8954    1.8918    0.0000 S   0  0  0  0  0  0  0  0  0  0  0  0
    9.1356    0.5985    0.0000 C   0  0  0  0  0  0  0  0  0  0  0  0
    4.3039   -2.0642    0.0000 C   0  0  0  0  0  0  0  0  0  0  0  0
    3.1816   -3.0594    0.0000 C   0  0  0  0  0  0  0  0  0  0  0  0
   -5.3565   -0.2134    0.0000 C   0  0  0  0  0  0  0  0  0  0  0  0
   -6.7796    0.2609    0.0000 C   0  0  0  0  0  0  0  0  0  0  0  0
   -7.9019   -0.7343    0.0000 O   0  0  0  0  0  0  0  0  0  0  0  0
   -7.6011   -2.2039    0.0000 C   0  0  0  0  0  0  0  0  0  0  0  0
  1  2  1  0
  2  3  1  0
  3  4  2  0
  4  5  1  0
  5  6  2  0
  6  7  1  0
  7  8  1  0
  8  9  2  0
  8 10  1  0
 10 11  2  0
 11 12  1  0
 12 13  2  0
 13 14  1  0
 14 15  2  0
 14 16  1  0
 16 17  1  0
 17 18  1  0
 18 19  2  0
 18 20  1  0
 20 21  1  0
 21 22  1  0
 22 23  2  0
 23 24  1  0
 24 25  1  0
 17 26  1  0
 26 27  1  0
  6 28  1  0
 28 29  2  0
 29 30  1  0
 30 31  1  0
 29  3  1  0
 15 10  1  0
 25 21  2  0
 27 13  1  0
M  END
>  <Compound_ID>  (90) 
LIB090

>  <SMILES>  (90) 
COc1ccc(NC(=O)c2ccc3c(n2)CN(C(=O)Cc2ccsc2)CC3)cc1OC

>  <R1_reagent>  (90) 
O=C(Cl)Cc1ccsc1

>  <R1_ID>  (90) 
R-008848

>  <N_reaction>  (90) 
Amidation

>  <R2_amine>  (90) 
COc1ccc(N)cc1OC

>  <R2_ID>  (90) 
R-004458

>  <MW>  (90) 
437.5

>  <LogP>  (90) 
3.54

>  <HBD>  (90) 
1

>  <HBA>  (90) 
6

>  <RotB>  (90) 
6

>  <ASMS_similarity>  (90) 
0.6053

>  <Priority_tier>  (90) 
Tier2_medium

>  <Scaffold>  (90) 
OC(=O)c1ccc2CCNCc2n1

$$$$

     RDKit          2D

 28 31  0  0  0  0  0  0  0  0999 V2000
   -4.8910   -2.0028    0.0000 O   0  0  0  0  0  0  0  0  0  0  0  0
   -3.8301   -0.9423    0.0000 C   0  0  0  0  0  0  0  0  0  0  0  0
   -4.2181    0.5066    0.0000 N   0  0  0  0  0  0  0  0  0  0  0  0
   -5.6669    0.8951    0.0000 C   0  0  0  0  0  0  0  0  0  0  0  0
   -6.0548    2.3441    0.0000 C   0  0  0  0  0  0  0  0  0  0  0  0
   -7.5037    2.7326    0.0000 C   0  0  0  0  0  0  0  0  0  0  0  0
   -8.5645    1.6721    0.0000 O   0  0  0  0  0  0  0  0  0  0  0  0
   -8.1766    0.2232    0.0000 C   0  0  0  0  0  0  0  0  0  0  0  0
   -6.7277   -0.1653    0.0000 C   0  0  0  0  0  0  0  0  0  0  0  0
   -2.3813   -1.3308    0.0000 C   0  0  0  0  0  0  0  0  0  0  0  0
   -1.9933   -2.7798    0.0000 C   0  0  0  0  0  0  0  0  0  0  0  0
   -0.5445   -3.1683    0.0000 C   0  0  0  0  0  0  0  0  0  0  0  0
    0.5163   -2.1078    0.0000 C   0  0  0  0  0  0  0  0  0  0  0  0
    0.1284   -0.6589    0.0000 C   0  0  0  0  0  0  0  0  0  0  0  0
   -1.3204   -0.2704    0.0000 N   0  0  0  0  0  0  0  0  0  0  0  0
    1.1892    0.4016    0.0000 C   0  0  0  0  0  0  0  0  0  0  0  0
    2.6381    0.0131    0.0000 N   0  0  0  0  0  0  0  0  0  0  0  0
    3.6989    1.0736    0.0000 C   0  0  0  0  0  0  0  0  0  0  0  0
    3.3110    2.5225    0.0000 O   0  0  0  0  0  0  0  0  0  0  0  0
    5.1477    0.6851    0.0000 C   0  0  0  0  0  0  0  0  0  0  0  0
    5.5357   -0.7639    0.0000 C   0  0  0  0  0  0  0  0  0  0  0  0
    6.9845   -1.1524    0.0000 C   0  0  0  0  0  0  0  0  0  0  0  0
    8.0454   -0.0919    0.0000 C   0  0  0  0  0  0  0  0  0  0  0  0
    7.6574    1.3570    0.0000 C   0  0  0  0  0  0  0  0  0  0  0  0
    6.2086    1.7455    0.0000 C   0  0  0  0  0  0  0  0  0  0  0  0
    5.8206    3.1945    0.0000 Cl  0  0  0  0  0  0  0  0  0  0  0  0
    3.0260   -1.4359    0.0000 C   0  0  0  0  0  0  0  0  0  0  0  0
    1.9652   -2.4963    0.0000 C   0  0  0  0  0  0  0  0  0  0  0  0
  1  2  2  0
  2  3  1  0
  3  4  1  0
  4  5  1  0
  5  6  1  0
  6  7  1  0
  7  8  1  0
  8  9  1  0
  2 10  1  0
 10 11  2  0
 11 12  1  0
 12 13  2  0
 13 14  1  0
 14 15  2  0
 14 16  1  0
 16 17  1  0
 17 18  1  0
 18 19  2  0
 18 20  1  0
 20 21  2  0
 21 22  1  0
 22 23  2  0
 23 24  1  0
 24 25  2  0
 25 26  1  0
 17 27  1  0
 27 28  1  0
  9  4  1  0
 15 10  1  0
 25 20  1  0
 28 13  1  0
M  END
>  <Compound_ID>  (91) 
LIB091

>  <SMILES>  (91) 
O=C(NC1CCOCC1)c1ccc2c(n1)CN(C(=O)c1ccccc1Cl)CC2

>  <R1_reagent>  (91) 
O=C(Cl)c1ccccc1Cl

>  <R1_ID>  (91) 
R-003553

>  <N_reaction>  (91) 
Amidation

>  <R2_amine>  (91) 
Cl.NC1CCOCC1

>  <R2_ID>  (91) 
R-001645

>  <MW>  (91) 
399.9

>  <LogP>  (91) 
2.84

>  <HBD>  (91) 
1

>  <HBA>  (91) 
4

>  <RotB>  (91) 
3

>  <ASMS_similarity>  (91) 
0.6029

>  <Priority_tier>  (91) 
Tier2_medium

>  <Scaffold>  (91) 
OC(=O)c1ccc2CCNCc2n1

$$$$

     RDKit          2D

 33 36  0  0  0  0  0  0  0  0999 V2000
   -5.0097    5.2880    0.0000 C   0  0  0  0  0  0  0  0  0  0  0  0
   -6.0758    4.2329    0.0000 O   0  0  0  0  0  0  0  0  0  0  0  0
   -5.6951    2.7820    0.0000 C   0  0  0  0  0  0  0  0  0  0  0  0
   -4.2482    2.3863    0.0000 C   0  0  0  0  0  0  0  0  0  0  0  0
   -3.8675    0.9354    0.0000 C   0  0  0  0  0  0  0  0  0  0  0  0
   -4.9337   -0.1198    0.0000 C   0  0  0  0  0  0  0  0  0  0  0  0
   -4.5529   -1.5707    0.0000 C   0  0  0  0  0  0  0  0  0  0  0  0
   -5.6191   -2.6258    0.0000 O   0  0  0  0  0  0  0  0  0  0  0  0
   -3.1061   -1.9664    0.0000 N   0  0  0  0  0  0  0  0  0  0  0  0
   -2.7254   -3.4173    0.0000 C   0  0  0  0  0  0  0  0  0  0  0  0
   -1.2785   -3.8130    0.0000 C   0  0  0  0  0  0  0  0  0  0  0  0
   -0.2124   -2.7578    0.0000 C   0  0  0  0  0  0  0  0  0  0  0  0
    1.2345   -3.1536    0.0000 C   0  0  0  0  0  0  0  0  0  0  0  0
    2.3006   -2.0984    0.0000 C   0  0  0  0  0  0  0  0  0  0  0  0
    1.9199   -0.6475    0.0000 C   0  0  0  0  0  0  0  0  0  0  0  0
    2.9861    0.4076    0.0000 C   0  0  0  0  0  0  0  0  0  0  0  0
    2.6053    1.8585    0.0000 O   0  0  0  0  0  0  0  0  0  0  0  0
    4.4329    0.0119    0.0000 N   0  0  0  0  0  0  0  0  0  0  0  0
    5.4991    1.0670    0.0000 C   0  0  0  0  0  0  0  0  0  0  0  0
    6.9459    0.6713    0.0000 C   0  0  0  0  0  0  0  0  0  0  0  0
    7.3266   -0.7796    0.0000 C   0  0  0  0  0  0  0  0  0  0  0  0
    8.7735   -1.1753    0.0000 C   0  0  0  0  0  0  0  0  0  0  0  0
    9.8396   -0.1202    0.0000 C   0  0  0  0  0  0  0  0  0  0  0  0
    9.4589    1.3307    0.0000 C   0  0  0  0  0  0  0  0  0  0  0  0
    8.0121    1.7264    0.0000 C   0  0  0  0  0  0  0  0  0  0  0  0
    7.6313    3.1773    0.0000 Cl  0  0  0  0  0  0  0  0  0  0  0  0
    0.4731   -0.2518    0.0000 N   0  0  0  0  0  0  0  0  0  0  0  0
   -0.5931   -1.3070    0.0000 C   0  0  0  0  0  0  0  0  0  0  0  0
   -2.0399   -0.9112    0.0000 C   0  0  0  0  0  0  0  0  0  0  0  0
   -6.3805    0.2760    0.0000 C   0  0  0  0  0  0  0  0  0  0  0  0
   -7.4467   -0.7792    0.0000 O   0  0  0  0  0  0  0  0  0  0  0  0
   -8.8935   -0.3835    0.0000 C   0  0  0  0  0  0  0  0  0  0  0  0
   -6.7612    1.7268    0.0000 N   0  0  0  0  0  0  0  0  0  0  0  0
  1  2  1  0
  2  3  1  0
  3  4  2  0
  4  5  1  0
  5  6  2  0
  6  7  1  0
  7  8  2  0
  7  9  1  0
  9 10  1  0
 10 11  1  0
 11 12  1  0
 12 13  2  0
 13 14  1  0
 14 15  2  0
 15 16  1  0
 16 17  2  0
 16 18  1  0
 18 19  1  0
 19 20  1  0
 20 21  2  0
 21 22  1  0
 22 23  2  0
 23 24  1  0
 24 25  2  0
 25 26  1  0
 15 27  1  0
 27 28  2  0
 28 29  1  0
  6 30  1  0
 30 31  1  0
 31 32  1  0
 30 33  2  0
 33  3  1  0
 29  9  1  0
 28 12  1  0
 25 20  1  0
M  END
>  <Compound_ID>  (92) 
LIB092

>  <SMILES>  (92) 
COc1ccc(C(=O)N2CCc3ccc(C(=O)NCc4ccccc4Cl)nc3C2)c(OC)n1

>  <R1_reagent>  (92) 
COc1ccc(C(=O)O)c(OC)n1

>  <R1_ID>  (92) 
R-001478

>  <N_reaction>  (92) 
Amidation

>  <R2_amine>  (92) 
NCc1ccccc1Cl

>  <R2_ID>  (92) 
R-004751

>  <MW>  (92) 
466.9

>  <LogP>  (92) 
3.28

>  <HBD>  (92) 
1

>  <HBA>  (92) 
6

>  <RotB>  (92) 
6

>  <ASMS_similarity>  (92) 
0.6027

>  <Priority_tier>  (92) 
Tier2_medium

>  <Scaffold>  (92) 
OC(=O)c1ccc2CCNCc2n1

$$$$

     RDKit          2D

 34 37  0  0  0  0  0  0  0  0999 V2000
  -10.3351    2.2297    0.0000 C   0  0  0  0  0  0  0  0  0  0  0  0
   -8.8397    2.1122    0.0000 C   0  0  0  0  0  0  0  0  0  0  0  0
   -7.9903    3.3486    0.0000 C   0  0  0  0  0  0  0  0  0  0  0  0
   -6.4949    3.2311    0.0000 C   0  0  0  0  0  0  0  0  0  0  0  0
   -5.8489    1.8773    0.0000 C   0  0  0  0  0  0  0  0  0  0  0  0
   -6.6983    0.6410    0.0000 C   0  0  0  0  0  0  0  0  0  0  0  0
   -6.0523   -0.7128    0.0000 C   0  0  0  0  0  0  0  0  0  0  0  0
   -4.5569   -0.8302    0.0000 N   0  0  0  0  0  0  0  0  0  0  0  0
   -3.9109   -2.1840    0.0000 C   0  0  0  0  0  0  0  0  0  0  0  0
   -4.7603   -3.4203    0.0000 O   0  0  0  0  0  0  0  0  0  0  0  0
   -2.4155   -2.3014    0.0000 C   0  0  0  0  0  0  0  0  0  0  0  0
   -1.7695   -3.6552    0.0000 C   0  0  0  0  0  0  0  0  0  0  0  0
   -0.2741   -3.7726    0.0000 C   0  0  0  0  0  0  0  0  0  0  0  0
    0.5753   -2.5363    0.0000 C   0  0  0  0  0  0  0  0  0  0  0  0
   -0.0707   -1.1825    0.0000 C   0  0  0  0  0  0  0  0  0  0  0  0
   -1.5661   -1.0651    0.0000 N   0  0  0  0  0  0  0  0  0  0  0  0
    0.7787    0.0538    0.0000 C   0  0  0  0  0  0  0  0  0  0  0  0
    2.2741   -0.0636    0.0000 N   0  0  0  0  0  0  0  0  0  0  0  0
    3.1235    1.1727    0.0000 C   0  0  0  0  0  0  0  0  0  0  0  0
    2.4775    2.5265    0.0000 O   0  0  0  0  0  0  0  0  0  0  0  0
    4.6189    1.0553    0.0000 C   0  0  0  0  0  0  0  0  0  0  0  0
    5.2648   -0.2985    0.0000 C   0  0  0  0  0  0  0  0  0  0  0  0
    6.7602   -0.4159    0.0000 C   0  0  0  0  0  0  0  0  0  0  0  0
    7.6096    0.8204    0.0000 C   0  0  0  0  0  0  0  0  0  0  0  0
    9.1050    0.7030    0.0000 C   0  0  0  0  0  0  0  0  0  0  0  0
   10.6004    0.5855    0.0000 F   0  0  0  0  0  0  0  0  0  0  0  0
    8.9876   -0.7924    0.0000 F   0  0  0  0  0  0  0  0  0  0  0  0
    9.2225    2.1984    0.0000 F   0  0  0  0  0  0  0  0  0  0  0  0
    6.9637    2.1742    0.0000 N   0  0  0  0  0  0  0  0  0  0  0  0
    5.4683    2.2916    0.0000 C   0  0  0  0  0  0  0  0  0  0  0  0
    2.9201   -1.4174    0.0000 C   0  0  0  0  0  0  0  0  0  0  0  0
    2.0706   -2.6537    0.0000 C   0  0  0  0  0  0  0  0  0  0  0  0
   -8.1937    0.7585    0.0000 C   0  0  0  0  0  0  0  0  0  0  0  0
   -9.0431   -0.4779    0.0000 C   0  0  0  0  0  0  0  0  0  0  0  0
  1  2  1  0
  2  3  2  0
  3  4  1  0
  4  5  2  0
  5  6  1  0
  6  7  1  0
  7  8  1  0
  8  9  1  0
  9 10  2  0
  9 11  1  0
 11 12  2  0
 12 13  1  0
 13 14  2  0
 14 15  1  0
 15 16  2  0
 15 17  1  0
 17 18  1  0
 18 19  1  0
 19 20  2  0
 19 21  1  0
 21 22  2  0
 22 23  1  0
 23 24  2  0
 24 25  1  0
 25 26  1  0
 25 27  1  0
 25 28  1  0
 24 29  1  0
 29 30  2  0
 18 31  1  0
 31 32  1  0
  6 33  2  0
 33 34  1  0
 33  2  1  0
 16 11  1  0
 30 21  1  0
 32 14  1  0
M  END
>  <Compound_ID>  (93) 
LIB093

>  <SMILES>  (93) 
Cc1cccc(CNC(=O)c2ccc3c(n2)CN(C(=O)c2ccc(C(F)(F)F)nc2)CC3)c1C

>  <R1_reagent>  (93) 
O=C(O)c1ccc(C(F)(F)F)nc1

>  <R1_ID>  (93) 
R-008753

>  <N_reaction>  (93) 
Amidation

>  <R2_amine>  (93) 
Cc1cccc(CN)c1C

>  <R2_ID>  (93) 
R-008908

>  <MW>  (93) 
468.5

>  <LogP>  (93) 
4.24

>  <HBD>  (93) 
1

>  <HBA>  (93) 
4

>  <RotB>  (93) 
4

>  <ASMS_similarity>  (93) 
0.6024

>  <Priority_tier>  (93) 
Tier2_medium

>  <Scaffold>  (93) 
OC(=O)c1ccc2CCNCc2n1

$$$$

     RDKit          2D

 34 38  0  0  0  0  0  0  0  0999 V2000
  -11.7231    0.0089    0.0000 C   0  0  0  0  0  0  0  0  0  0  0  0
  -10.2551   -0.2989    0.0000 O   0  0  0  0  0  0  0  0  0  0  0  0
   -9.2545    0.8186    0.0000 C   0  0  0  0  0  0  0  0  0  0  0  0
   -9.7220    2.2439    0.0000 C   0  0  0  0  0  0  0  0  0  0  0  0
   -8.7214    3.3614    0.0000 C   0  0  0  0  0  0  0  0  0  0  0  0
   -7.2533    3.0536    0.0000 C   0  0  0  0  0  0  0  0  0  0  0  0
   -6.7858    1.6284    0.0000 C   0  0  0  0  0  0  0  0  0  0  0  0
   -5.3177    1.3206    0.0000 C   0  0  0  0  0  0  0  0  0  0  0  0
   -4.8502   -0.1047    0.0000 C   0  0  0  0  0  0  0  0  0  0  0  0
   -3.3821   -0.4125    0.0000 N   0  0  0  0  0  0  0  0  0  0  0  0
   -2.9146   -1.8378    0.0000 C   0  0  0  0  0  0  0  0  0  0  0  0
   -3.9152   -2.9553    0.0000 O   0  0  0  0  0  0  0  0  0  0  0  0
   -1.4465   -2.1455    0.0000 C   0  0  0  0  0  0  0  0  0  0  0  0
   -0.9790   -3.5708    0.0000 C   0  0  0  0  0  0  0  0  0  0  0  0
    0.4890   -3.8786    0.0000 C   0  0  0  0  0  0  0  0  0  0  0  0
    1.4896   -2.7611    0.0000 C   0  0  0  0  0  0  0  0  0  0  0  0
    1.0221   -1.3358    0.0000 C   0  0  0  0  0  0  0  0  0  0  0  0
   -0.4460   -1.0280    0.0000 N   0  0  0  0  0  0  0  0  0  0  0  0
    2.0227   -0.2183    0.0000 C   0  0  0  0  0  0  0  0  0  0  0  0
    3.4908   -0.5261    0.0000 N   0  0  0  0  0  0  0  0  0  0  0  0
    4.4914    0.5914    0.0000 C   0  0  0  0  0  0  0  0  0  0  0  0
    4.0239    2.0167    0.0000 O   0  0  0  0  0  0  0  0  0  0  0  0
    5.9595    0.2837    0.0000 C   0  0  0  0  0  0  0  0  0  0  0  0
    6.5734   -1.0849    0.0000 C   0  0  0  0  0  0  0  0  0  0  0  0
    8.0647   -0.9240    0.0000 O   0  0  0  0  0  0  0  0  0  0  0  0
    8.3725    0.5441    0.0000 C   0  0  0  0  0  0  0  0  0  0  0  0
    9.6694    1.2977    0.0000 C   0  0  0  0  0  0  0  0  0  0  0  0
    9.6653    2.7977    0.0000 C   0  0  0  0  0  0  0  0  0  0  0  0
    8.3641    3.5441    0.0000 C   0  0  0  0  0  0  0  0  0  0  0  0
    7.0672    2.7905    0.0000 C   0  0  0  0  0  0  0  0  0  0  0  0
    7.0714    1.2905    0.0000 C   0  0  0  0  0  0  0  0  0  0  0  0
    3.9583   -1.9514    0.0000 C   0  0  0  0  0  0  0  0  0  0  0  0
    2.9577   -3.0689    0.0000 C   0  0  0  0  0  0  0  0  0  0  0  0
   -7.7864    0.5108    0.0000 C   0  0  0  0  0  0  0  0  0  0  0  0
  1  2  1  0
  2  3  1  0
  3  4  2  0
  4  5  1  0
  5  6  2  0
  6  7  1  0
  7  8  1  0
  8  9  1  0
  9 10  1  0
 10 11  1  0
 11 12  2  0
 11 13  1  0
 13 14  2  0
 14 15  1  0
 15 16  2  0
 16 17  1  0
 17 18  2  0
 17 19  1  0
 19 20  1  0
 20 21  1  0
 21 22  2  0
 21 23  1  0
 23 24  2  0
 24 25  1  0
 25 26  1  0
 26 27  2  0
 27 28  1  0
 28 29  2  0
 29 30  1  0
 30 31  2  0
 20 32  1  0
 32 33  1  0
  7 34  2  0
 34  3  1  0
 18 13  1  0
 31 23  1  0
 33 16  1  0
 31 26  1  0
M  END
>  <Compound_ID>  (94) 
LIB094

>  <SMILES>  (94) 
COc1cccc(CCNC(=O)c2ccc3c(n2)CN(C(=O)c2coc4ccccc24)CC3)c1

>  <R1_reagent>  (94) 
O=C(O)c1coc2ccccc12

>  <R1_ID>  (94) 
R-008682

>  <N_reaction>  (94) 
Amidation

>  <R2_amine>  (94) 
COc1cccc(CCN)c1

>  <R2_ID>  (94) 
R-001390

>  <MW>  (94) 
455.5

>  <LogP>  (94) 
4.01

>  <HBD>  (94) 
1

>  <HBA>  (94) 
5

>  <RotB>  (94) 
6

>  <ASMS_similarity>  (94) 
0.6

>  <Priority_tier>  (94) 
Tier2_medium

>  <Scaffold>  (94) 
OC(=O)c1ccc2CCNCc2n1

$$$$

     RDKit          2D

 35 38  0  0  0  0  0  0  0  0999 V2000
   -5.2177    5.6211    0.0000 C   0  0  0  0  0  0  0  0  0  0  0  0
   -6.4367    4.7470    0.0000 O   0  0  0  0  0  0  0  0  0  0  0  0
   -6.2891    3.2542    0.0000 C   0  0  0  0  0  0  0  0  0  0  0  0
   -4.9226    2.6357    0.0000 C   0  0  0  0  0  0  0  0  0  0  0  0
   -4.7750    1.1429    0.0000 C   0  0  0  0  0  0  0  0  0  0  0  0
   -5.9940    0.2688    0.0000 C   0  0  0  0  0  0  0  0  0  0  0  0
   -5.8464   -1.2239    0.0000 C   0  0  0  0  0  0  0  0  0  0  0  0
   -7.0654   -2.0981    0.0000 O   0  0  0  0  0  0  0  0  0  0  0  0
   -4.4799   -1.8425    0.0000 N   0  0  0  0  0  0  0  0  0  0  0  0
   -4.3323   -3.3352    0.0000 C   0  0  0  0  0  0  0  0  0  0  0  0
   -2.9658   -3.9538    0.0000 C   0  0  0  0  0  0  0  0  0  0  0  0
   -1.7469   -3.0796    0.0000 C   0  0  0  0  0  0  0  0  0  0  0  0
   -0.3803   -3.6982    0.0000 C   0  0  0  0  0  0  0  0  0  0  0  0
    0.8386   -2.8241    0.0000 C   0  0  0  0  0  0  0  0  0  0  0  0
    0.6911   -1.3313    0.0000 C   0  0  0  0  0  0  0  0  0  0  0  0
    1.9100   -0.4572    0.0000 C   0  0  0  0  0  0  0  0  0  0  0  0
    1.7624    1.0355    0.0000 O   0  0  0  0  0  0  0  0  0  0  0  0
    3.2765   -1.0757    0.0000 N   0  0  0  0  0  0  0  0  0  0  0  0
    4.4955   -0.2016    0.0000 C   0  0  0  0  0  0  0  0  0  0  0  0
    5.8620   -0.8202    0.0000 C   0  0  0  0  0  0  0  0  0  0  0  0
    7.0810    0.0540    0.0000 O   0  0  0  0  0  0  0  0  0  0  0  0
    8.4475   -0.5646    0.0000 C   0  0  0  0  0  0  0  0  0  0  0  0
    9.6664    0.3096    0.0000 C   0  0  0  0  0  0  0  0  0  0  0  0
   11.0329   -0.3090    0.0000 C   0  0  0  0  0  0  0  0  0  0  0  0
   12.2519    0.5652    0.0000 C   0  0  0  0  0  0  0  0  0  0  0  0
   12.1043    2.0579    0.0000 C   0  0  0  0  0  0  0  0  0  0  0  0
   10.7378    2.6765    0.0000 C   0  0  0  0  0  0  0  0  0  0  0  0
    9.5189    1.8023    0.0000 C   0  0  0  0  0  0  0  0  0  0  0  0
   -0.6755   -0.7128    0.0000 N   0  0  0  0  0  0  0  0  0  0  0  0
   -1.8944   -1.5869    0.0000 C   0  0  0  0  0  0  0  0  0  0  0  0
   -3.2609   -0.9683    0.0000 C   0  0  0  0  0  0  0  0  0  0  0  0
   -7.3605    0.8874    0.0000 C   0  0  0  0  0  0  0  0  0  0  0  0
   -8.5795    0.0132    0.0000 O   0  0  0  0  0  0  0  0  0  0  0  0
   -9.9460    0.6318    0.0000 C   0  0  0  0  0  0  0  0  0  0  0  0
   -7.5081    2.3801    0.0000 C   0  0  0  0  0  0  0  0  0  0  0  0
  1  2  1  0
  2  3  1  0
  3  4  2  0
  4  5  1  0
  5  6  2  0
  6  7  1  0
  7  8  2  0
  7  9  1  0
  9 10  1  0
 10 11  1  0
 11 12  1  0
 12 13  2  0
 13 14  1  0
 14 15  2  0
 15 16  1  0
 16 17  2  0
 16 18  1  0
 18 19  1  0
 19 20  1  0
 20 21  1  0
 21 22  1  0
 22 23  1  0
 23 24  2  0
 24 25  1  0
 25 26  2  0
 26 27  1  0
 27 28  2  0
 15 29  1  0
 29 30  2  0
 30 31  1  0
  6 32  1  0
 32 33  1  0
 33 34  1  0
 32 35  2  0
 35  3  1  0
 31  9  1  0
 30 12  1  0
 28 23  1  0
M  END
>  <Compound_ID>  (95) 
LIB095

>  <SMILES>  (95) 
COc1ccc(C(=O)N2CCc3ccc(C(=O)NCCOCc4ccccc4)nc3C2)c(OC)c1

>  <R1_reagent>  (95) 
COc1ccc(C(=O)O)c(OC)c1

>  <R1_ID>  (95) 
R-004816

>  <N_reaction>  (95) 
Amidation

>  <R2_amine>  (95) 
NCCOCc1ccccc1

>  <R2_ID>  (95) 
R-000973

>  <MW>  (95) 
475.5

>  <LogP>  (95) 
3.24

>  <HBD>  (95) 
1

>  <HBA>  (95) 
6

>  <RotB>  (95) 
9

>  <ASMS_similarity>  (95) 
0.6

>  <Priority_tier>  (95) 
Tier2_medium

>  <Scaffold>  (95) 
OC(=O)c1ccc2CCNCc2n1

$$$$

     RDKit          2D

 34 38  0  0  0  0  0  0  0  0999 V2000
  -11.7231    0.0089    0.0000 C   0  0  0  0  0  0  0  0  0  0  0  0
  -10.2551   -0.2989    0.0000 O   0  0  0  0  0  0  0  0  0  0  0  0
   -9.2545    0.8186    0.0000 C   0  0  0  0  0  0  0  0  0  0  0  0
   -9.7220    2.2439    0.0000 C   0  0  0  0  0  0  0  0  0  0  0  0
   -8.7214    3.3614    0.0000 C   0  0  0  0  0  0  0  0  0  0  0  0
   -7.2533    3.0536    0.0000 C   0  0  0  0  0  0  0  0  0  0  0  0
   -6.7858    1.6284    0.0000 C   0  0  0  0  0  0  0  0  0  0  0  0
   -5.3177    1.3206    0.0000 C   0  0  0  0  0  0  0  0  0  0  0  0
   -4.8502   -0.1047    0.0000 C   0  0  0  0  0  0  0  0  0  0  0  0
   -3.3821   -0.4125    0.0000 N   0  0  0  0  0  0  0  0  0  0  0  0
   -2.9146   -1.8378    0.0000 C   0  0  0  0  0  0  0  0  0  0  0  0
   -3.9152   -2.9553    0.0000 O   0  0  0  0  0  0  0  0  0  0  0  0
   -1.4465   -2.1455    0.0000 C   0  0  0  0  0  0  0  0  0  0  0  0
   -0.9790   -3.5708    0.0000 C   0  0  0  0  0  0  0  0  0  0  0  0
    0.4890   -3.8786    0.0000 C   0  0  0  0  0  0  0  0  0  0  0  0
    1.4896   -2.7611    0.0000 C   0  0  0  0  0  0  0  0  0  0  0  0
    1.0221   -1.3358    0.0000 C   0  0  0  0  0  0  0  0  0  0  0  0
   -0.4460   -1.0280    0.0000 N   0  0  0  0  0  0  0  0  0  0  0  0
    2.0227   -0.2183    0.0000 C   0  0  0  0  0  0  0  0  0  0  0  0
    3.4908   -0.5261    0.0000 N   0  0  0  0  0  0  0  0  0  0  0  0
    4.4914    0.5914    0.0000 C   0  0  0  0  0  0  0  0  0  0  0  0
    4.0239    2.0167    0.0000 O   0  0  0  0  0  0  0  0  0  0  0  0
    5.9595    0.2837    0.0000 C   0  0  0  0  0  0  0  0  0  0  0  0
    6.5734   -1.0849    0.0000 C   0  0  0  0  0  0  0  0  0  0  0  0
    8.0647   -0.9240    0.0000 N   0  0  0  0  0  0  0  0  0  0  0  0
    8.3725    0.5441    0.0000 C   0  0  0  0  0  0  0  0  0  0  0  0
    9.6694    1.2977    0.0000 C   0  0  0  0  0  0  0  0  0  0  0  0
    9.6653    2.7977    0.0000 C   0  0  0  0  0  0  0  0  0  0  0  0
    8.3641    3.5441    0.0000 C   0  0  0  0  0  0  0  0  0  0  0  0
    7.0672    2.7905    0.0000 C   0  0  0  0  0  0  0  0  0  0  0  0
    7.0714    1.2905    0.0000 C   0  0  0  0  0  0  0  0  0  0  0  0
    3.9583   -1.9514    0.0000 C   0  0  0  0  0  0  0  0  0  0  0  0
    2.9577   -3.0689    0.0000 C   0  0  0  0  0  0  0  0  0  0  0  0
   -7.7864    0.5108    0.0000 C   0  0  0  0  0  0  0  0  0  0  0  0
  1  2  1  0
  2  3  1  0
  3  4  2  0
  4  5  1  0
  5  6  2  0
  6  7  1  0
  7  8  1  0
  8  9  1  0
  9 10  1  0
 10 11  1  0
 11 12  2  0
 11 13  1  0
 13 14  2  0
 14 15  1  0
 15 16  2  0
 16 17  1  0
 17 18  2  0
 17 19  1  0
 19 20  1  0
 20 21  1  0
 21 22  2  0
 21 23  1  0
 23 24  2  0
 24 25  1  0
 25 26  1  0
 26 27  2  0
 27 28  1  0
 28 29  2  0
 29 30  1  0
 30 31  2  0
 20 32  1  0
 32 33  1  0
  7 34  2  0
 34  3  1  0
 18 13  1  0
 31 23  1  0
 33 16  1  0
 31 26  1  0
M  END
>  <Compound_ID>  (96) 
LIB096

>  <SMILES>  (96) 
COc1cccc(CCNC(=O)c2ccc3c(n2)CN(C(=O)c2c[nH]c4ccccc24)CC3)c1

>  <R1_reagent>  (96) 
O=C(O)c1c[nH]c2ccccc12

>  <R1_ID>  (96) 
R-003383

>  <N_reaction>  (96) 
Amidation

>  <R2_amine>  (96) 
COc1cccc(CCN)c1

>  <R2_ID>  (96) 
R-001390

>  <MW>  (96) 
454.5

>  <LogP>  (96) 
3.74

>  <HBD>  (96) 
2

>  <HBA>  (96) 
4

>  <RotB>  (96) 
6

>  <ASMS_similarity>  (96) 
0.6

>  <Priority_tier>  (96) 
Tier2_medium

>  <Scaffold>  (96) 
OC(=O)c1ccc2CCNCc2n1

$$$$

     RDKit          2D

 31 34  0  0  0  0  0  0  0  0999 V2000
   -6.7500   -1.7782    0.0000 O   0  0  0  0  0  0  0  0  0  0  0  0
   -5.6008   -0.8143    0.0000 C   0  0  0  0  0  0  0  0  0  0  0  0
   -5.8609    0.6630    0.0000 N   0  0  0  0  0  0  0  0  0  0  0  0
   -7.2703    1.1763    0.0000 C   0  0  0  0  0  0  0  0  0  0  0  0
   -7.5304    2.6536    0.0000 C   0  0  0  0  0  0  0  0  0  0  0  0
   -8.9399    3.1670    0.0000 C   0  0  0  0  0  0  0  0  0  0  0  0
  -10.0892    2.2030    0.0000 O   0  0  0  0  0  0  0  0  0  0  0  0
   -9.8290    0.7258    0.0000 C   0  0  0  0  0  0  0  0  0  0  0  0
   -8.4196    0.2124    0.0000 C   0  0  0  0  0  0  0  0  0  0  0  0
   -4.1913   -1.3276    0.0000 C   0  0  0  0  0  0  0  0  0  0  0  0
   -3.9312   -2.8049    0.0000 C   0  0  0  0  0  0  0  0  0  0  0  0
   -2.5218   -3.3183    0.0000 C   0  0  0  0  0  0  0  0  0  0  0  0
   -1.3725   -2.3543    0.0000 C   0  0  0  0  0  0  0  0  0  0  0  0
   -1.6326   -0.8771    0.0000 C   0  0  0  0  0  0  0  0  0  0  0  0
   -3.0420   -0.3637    0.0000 N   0  0  0  0  0  0  0  0  0  0  0  0
   -0.4833    0.0868    0.0000 C   0  0  0  0  0  0  0  0  0  0  0  0
    0.9261   -0.4265    0.0000 N   0  0  0  0  0  0  0  0  0  0  0  0
    2.0754    0.5374    0.0000 C   0  0  0  0  0  0  0  0  0  0  0  0
    1.8152    2.0147    0.0000 O   0  0  0  0  0  0  0  0  0  0  0  0
    3.4848    0.0241    0.0000 C   0  0  0  0  0  0  0  0  0  0  0  0
    4.6341    0.9880    0.0000 C   0  0  0  0  0  0  0  0  0  0  0  0
    6.0435    0.4746    0.0000 C   0  0  0  0  0  0  0  0  0  0  0  0
    7.1928    1.4386    0.0000 O   0  0  0  0  0  0  0  0  0  0  0  0
    8.6022    0.9252    0.0000 C   0  0  0  0  0  0  0  0  0  0  0  0
    8.8623   -0.5521    0.0000 C   0  0  0  0  0  0  0  0  0  0  0  0
   10.2718   -1.0654    0.0000 C   0  0  0  0  0  0  0  0  0  0  0  0
   11.4211   -0.1015    0.0000 C   0  0  0  0  0  0  0  0  0  0  0  0
   11.1609    1.3758    0.0000 C   0  0  0  0  0  0  0  0  0  0  0  0
    9.7515    1.8891    0.0000 C   0  0  0  0  0  0  0  0  0  0  0  0
    1.1862   -1.9038    0.0000 C   0  0  0  0  0  0  0  0  0  0  0  0
    0.0369   -2.8677    0.0000 C   0  0  0  0  0  0  0  0  0  0  0  0
  1  2  2  0
  2  3  1  0
  3  4  1  0
  4  5  1  0
  5  6  1  0
  6  7  1  0
  7  8  1  0
  8  9  1  0
  2 10  1  0
 10 11  2  0
 11 12  1  0
 12 13  2  0
 13 14  1  0
 14 15  2  0
 14 16  1  0
 16 17  1  0
 17 18  1  0
 18 19  2  0
 18 20  1  0
 20 21  1  0
 21 22  1  0
 22 23  1  0
 23 24  1  0
 24 25  2  0
 25 26  1  0
 26 27  2  0
 27 28  1  0
 28 29  2  0
 17 30  1  0
 30 31  1  0
  9  4  1  0
 15 10  1  0
 29 24  1  0
 31 13  1  0
M  END
>  <Compound_ID>  (97) 
LIB097

>  <SMILES>  (97) 
O=C(NC1CCOCC1)c1ccc2c(n1)CN(C(=O)CCCOc1ccccc1)CC2

>  <R1_reagent>  (97) 
O=C(O)CCCOc1ccccc1

>  <R1_ID>  (97) 
R-006725

>  <N_reaction>  (97) 
Amidation

>  <R2_amine>  (97) 
Cl.NC1CCOCC1

>  <R2_ID>  (97) 
R-001645

>  <MW>  (97) 
423.5

>  <LogP>  (97) 
2.73

>  <HBD>  (97) 
1

>  <HBA>  (97) 
5

>  <RotB>  (97) 
7

>  <ASMS_similarity>  (97) 
0.5974

>  <Priority_tier>  (97) 
Tier3_explore

>  <Scaffold>  (97) 
OC(=O)c1ccc2CCNCc2n1

$$$$

     RDKit          2D

 32 35  0  0  0  0  0  0  0  0999 V2000
  -11.0960   -0.5354    0.0000 C   0  0  0  0  0  0  0  0  0  0  0  0
   -9.6097   -0.7381    0.0000 O   0  0  0  0  0  0  0  0  0  0  0  0
   -8.6911    0.4477    0.0000 C   0  0  0  0  0  0  0  0  0  0  0  0
   -9.2587    1.8361    0.0000 C   0  0  0  0  0  0  0  0  0  0  0  0
   -8.3400    3.0219    0.0000 C   0  0  0  0  0  0  0  0  0  0  0  0
   -6.8538    2.8193    0.0000 C   0  0  0  0  0  0  0  0  0  0  0  0
   -6.2862    1.4308    0.0000 C   0  0  0  0  0  0  0  0  0  0  0  0
   -4.8000    1.2281    0.0000 C   0  0  0  0  0  0  0  0  0  0  0  0
   -4.2323   -0.1603    0.0000 C   0  0  0  0  0  0  0  0  0  0  0  0
   -2.7461   -0.3630    0.0000 N   0  0  0  0  0  0  0  0  0  0  0  0
   -2.1785   -1.7515    0.0000 C   0  0  0  0  0  0  0  0  0  0  0  0
   -3.0971   -2.9373    0.0000 O   0  0  0  0  0  0  0  0  0  0  0  0
   -0.6923   -1.9541    0.0000 C   0  0  0  0  0  0  0  0  0  0  0  0
   -0.1247   -3.3426    0.0000 C   0  0  0  0  0  0  0  0  0  0  0  0
    1.3616   -3.5453    0.0000 C   0  0  0  0  0  0  0  0  0  0  0  0
    2.2802   -2.3595    0.0000 C   0  0  0  0  0  0  0  0  0  0  0  0
    1.7126   -0.9710    0.0000 C   0  0  0  0  0  0  0  0  0  0  0  0
    0.2264   -0.7683    0.0000 N   0  0  0  0  0  0  0  0  0  0  0  0
    2.6313    0.2148    0.0000 C   0  0  0  0  0  0  0  0  0  0  0  0
    4.1175    0.0121    0.0000 N   0  0  0  0  0  0  0  0  0  0  0  0
    5.0362    1.1979    0.0000 C   0  0  0  0  0  0  0  0  0  0  0  0
    4.4686    2.5864    0.0000 O   0  0  0  0  0  0  0  0  0  0  0  0
    6.5224    0.9952    0.0000 C   0  0  0  0  0  0  0  0  0  0  0  0
    7.0900   -0.3932    0.0000 C   0  0  0  0  0  0  0  0  0  0  0  0
    8.5763   -0.5959    0.0000 C   0  0  0  0  0  0  0  0  0  0  0  0
    9.4949    0.5899    0.0000 C   0  0  0  0  0  0  0  0  0  0  0  0
    8.9273    1.9783    0.0000 C   0  0  0  0  0  0  0  0  0  0  0  0
    7.4410    2.1810    0.0000 C   0  0  0  0  0  0  0  0  0  0  0  0
    6.8734    3.5695    0.0000 O   0  0  0  0  0  0  0  0  0  0  0  0
    4.6851   -1.3764    0.0000 C   0  0  0  0  0  0  0  0  0  0  0  0
    3.7665   -2.5621    0.0000 C   0  0  0  0  0  0  0  0  0  0  0  0
   -7.2048    0.2450    0.0000 C   0  0  0  0  0  0  0  0  0  0  0  0
  1  2  1  0
  2  3  1  0
  3  4  2  0
  4  5  1  0
  5  6  2  0
  6  7  1  0
  7  8  1  0
  8  9  1  0
  9 10  1  0
 10 11  1  0
 11 12  2  0
 11 13  1  0
 13 14  2  0
 14 15  1  0
 15 16  2  0
 16 17  1  0
 17 18  2  0
 17 19  1  0
 19 20  1  0
 20 21  1  0
 21 22  2  0
 21 23  1  0
 23 24  2  0
 24 25  1  0
 25 26  2  0
 26 27  1  0
 27 28  2  0
 28 29  1  0
 20 30  1  0
 30 31  1  0
  7 32  2  0
 32  3  1  0
 18 13  1  0
 28 23  1  0
 31 16  1  0
M  END
>  <Compound_ID>  (98) 
LIB098

>  <SMILES>  (98) 
COc1cccc(CCNC(=O)c2ccc3c(n2)CN(C(=O)c2ccccc2O)CC3)c1

>  <R1_reagent>  (98) 
O=C(O)c1ccccc1O

>  <R1_ID>  (98) 
R-003226

>  <N_reaction>  (98) 
Amidation

>  <R2_amine>  (98) 
COc1cccc(CCN)c1

>  <R2_ID>  (98) 
R-001390

>  <MW>  (98) 
431.5

>  <LogP>  (98) 
2.97

>  <HBD>  (98) 
2

>  <HBA>  (98) 
5

>  <RotB>  (98) 
6

>  <ASMS_similarity>  (98) 
0.5972

>  <Priority_tier>  (98) 
Tier3_explore

>  <Scaffold>  (98) 
OC(=O)c1ccc2CCNCc2n1

$$$$

     RDKit          2D

 27 30  0  0  0  0  0  0  0  0999 V2000
   -4.6148   -2.0282    0.0000 O   0  0  0  0  0  0  0  0  0  0  0  0
   -3.5873   -0.9354    0.0000 C   0  0  0  0  0  0  0  0  0  0  0  0
   -4.0199    0.5008    0.0000 N   0  0  0  0  0  0  0  0  0  0  0  0
   -5.4801    0.8443    0.0000 C   0  0  0  0  0  0  0  0  0  0  0  0
   -5.9127    2.2806    0.0000 C   0  0  0  0  0  0  0  0  0  0  0  0
   -7.3728    2.6241    0.0000 C   0  0  0  0  0  0  0  0  0  0  0  0
   -8.4003    1.5313    0.0000 O   0  0  0  0  0  0  0  0  0  0  0  0
   -7.9677    0.0950    0.0000 C   0  0  0  0  0  0  0  0  0  0  0  0
   -6.5076   -0.2485    0.0000 C   0  0  0  0  0  0  0  0  0  0  0  0
   -2.1272   -1.2789    0.0000 C   0  0  0  0  0  0  0  0  0  0  0  0
   -1.6946   -2.7152    0.0000 C   0  0  0  0  0  0  0  0  0  0  0  0
   -0.2344   -3.0587    0.0000 C   0  0  0  0  0  0  0  0  0  0  0  0
    0.7931   -1.9659    0.0000 C   0  0  0  0  0  0  0  0  0  0  0  0
    0.3605   -0.5296    0.0000 C   0  0  0  0  0  0  0  0  0  0  0  0
   -1.0996   -0.1862    0.0000 N   0  0  0  0  0  0  0  0  0  0  0  0
    1.3881    0.5631    0.0000 C   0  0  0  0  0  0  0  0  0  0  0  0
    2.8482    0.2196    0.0000 N   0  0  0  0  0  0  0  0  0  0  0  0
    3.8757    1.3124    0.0000 C   0  0  0  0  0  0  0  0  0  0  0  0
    3.4431    2.7487    0.0000 O   0  0  0  0  0  0  0  0  0  0  0  0
    5.3359    0.9689    0.0000 C   0  0  0  0  0  0  0  0  0  0  0  0
    5.7685   -0.4673    0.0000 N   0  0  0  0  0  0  0  0  0  0  0  0
    7.2286   -0.8108    0.0000 C   0  0  0  0  0  0  0  0  0  0  0  0
    8.2562    0.2820    0.0000 C   0  0  0  0  0  0  0  0  0  0  0  0
    7.8236    1.7182    0.0000 C   0  0  0  0  0  0  0  0  0  0  0  0
    6.3634    2.0617    0.0000 N   0  0  0  0  0  0  0  0  0  0  0  0
    3.2808   -1.2166    0.0000 C   0  0  0  0  0  0  0  0  0  0  0  0
    2.2533   -2.3094    0.0000 C   0  0  0  0  0  0  0  0  0  0  0  0
  1  2  2  0
  2  3  1  0
  3  4  1  0
  4  5  1  0
  5  6  1  0
  6  7  1  0
  7  8  1  0
  8  9  1  0
  2 10  1  0
 10 11  2  0
 11 12  1  0
 12 13  2  0
 13 14  1  0
 14 15  2  0
 14 16  1  0
 16 17  1  0
 17 18  1  0
 18 19  2  0
 18 20  1  0
 20 21  2  0
 21 22  1  0
 22 23  2  0
 23 24  1  0
 24 25  2  0
 17 26  1  0
 26 27  1  0
  9  4  1  0
 15 10  1  0
 25 20  1  0
 27 13  1  0
M  END
>  <Compound_ID>  (99) 
LIB099

>  <SMILES>  (99) 
O=C(NC1CCOCC1)c1ccc2c(n1)CN(C(=O)c1ncccn1)CC2

>  <R1_reagent>  (99) 
O=C(O)c1ncccn1

>  <R1_ID>  (99) 
R-009774

>  <N_reaction>  (99) 
Amidation

>  <R2_amine>  (99) 
Cl.NC1CCOCC1

>  <R2_ID>  (99) 
R-001645

>  <MW>  (99) 
367.4

>  <LogP>  (99) 
0.98

>  <HBD>  (99) 
1

>  <HBA>  (99) 
6

>  <RotB>  (99) 
3

>  <ASMS_similarity>  (99) 
0.597

>  <Priority_tier>  (99) 
Tier3_explore

>  <Scaffold>  (99) 
OC(=O)c1ccc2CCNCc2n1

$$$$

     RDKit          2D

 31 34  0  0  0  0  0  0  0  0999 V2000
   -4.6516    5.2236    0.0000 C   0  0  0  0  0  0  0  0  0  0  0  0
   -5.6786    4.1303    0.0000 O   0  0  0  0  0  0  0  0  0  0  0  0
   -5.2451    2.6942    0.0000 C   0  0  0  0  0  0  0  0  0  0  0  0
   -3.7848    2.3516    0.0000 C   0  0  0  0  0  0  0  0  0  0  0  0
   -3.3514    0.9155    0.0000 C   0  0  0  0  0  0  0  0  0  0  0  0
   -4.3783   -0.1778    0.0000 C   0  0  0  0  0  0  0  0  0  0  0  0
   -3.9449   -1.6138    0.0000 C   0  0  0  0  0  0  0  0  0  0  0  0
   -4.9719   -2.7072    0.0000 O   0  0  0  0  0  0  0  0  0  0  0  0
   -2.4846   -1.9565    0.0000 N   0  0  0  0  0  0  0  0  0  0  0  0
   -2.0512   -3.3925    0.0000 C   0  0  0  0  0  0  0  0  0  0  0  0
   -0.5908   -3.7352    0.0000 C   0  0  0  0  0  0  0  0  0  0  0  0
    0.4361   -2.6418    0.0000 C   0  0  0  0  0  0  0  0  0  0  0  0
    1.8964   -2.9845    0.0000 C   0  0  0  0  0  0  0  0  0  0  0  0
    2.9233   -1.8912    0.0000 C   0  0  0  0  0  0  0  0  0  0  0  0
    2.4899   -0.4551    0.0000 C   0  0  0  0  0  0  0  0  0  0  0  0
    3.5169    0.6382    0.0000 C   0  0  0  0  0  0  0  0  0  0  0  0
    3.0835    2.0742    0.0000 O   0  0  0  0  0  0  0  0  0  0  0  0
    4.9772    0.2955    0.0000 N   0  0  0  0  0  0  0  0  0  0  0  0
    6.0041    1.3889    0.0000 C   0  0  0  0  0  0  0  0  0  0  0  0
    7.4645    1.0462    0.0000 C   0  0  0  0  0  0  0  0  0  0  0  0
    8.6001    2.0262    0.0000 C   0  0  0  0  0  0  0  0  0  0  0  0
    9.8830    1.2491    0.0000 C   0  0  0  0  0  0  0  0  0  0  0  0
    9.5404   -0.2113    0.0000 C   0  0  0  0  0  0  0  0  0  0  0  0
    8.0456   -0.3366    0.0000 S   0  0  0  0  0  0  0  0  0  0  0  0
    1.0296   -0.1125    0.0000 N   0  0  0  0  0  0  0  0  0  0  0  0
    0.0027   -1.2058    0.0000 C   0  0  0  0  0  0  0  0  0  0  0  0
   -1.4577   -0.8632    0.0000 C   0  0  0  0  0  0  0  0  0  0  0  0
   -5.8387    0.1649    0.0000 C   0  0  0  0  0  0  0  0  0  0  0  0
   -6.8656   -0.9285    0.0000 O   0  0  0  0  0  0  0  0  0  0  0  0
   -8.3259   -0.5858    0.0000 C   0  0  0  0  0  0  0  0  0  0  0  0
   -6.2721    1.6009    0.0000 N   0  0  0  0  0  0  0  0  0  0  0  0
  1  2  1  0
  2  3  1  0
  3  4  2  0
  4  5  1  0
  5  6  2  0
  6  7  1  0
  7  8  2  0
  7  9  1  0
  9 10  1  0
 10 11  1  0
 11 12  1  0
 12 13  2  0
 13 14  1  0
 14 15  2  0
 15 16  1  0
 16 17  2  0
 16 18  1  0
 18 19  1  0
 19 20  1  0
 20 21  2  0
 21 22  1  0
 22 23  2  0
 23 24  1  0
 15 25  1  0
 25 26  2  0
 26 27  1  0
  6 28  1  0
 28 29  1  0
 29 30  1  0
 28 31  2  0
 31  3  1  0
 27  9  1  0
 26 12  1  0
 24 20  1  0
M  END
>  <Compound_ID>  (100) 
LIB100

>  <SMILES>  (100) 
COc1ccc(C(=O)N2CCc3ccc(C(=O)NCc4cccs4)nc3C2)c(OC)n1

>  <R1_reagent>  (100) 
COc1ccc(C(=O)O)c(OC)n1

>  <R1_ID>  (100) 
R-001478

>  <N_reaction>  (100) 
Amidation

>  <R2_amine>  (100) 
NCc1cccs1

>  <R2_ID>  (100) 
R-003865

>  <MW>  (100) 
438.5

>  <LogP>  (100) 
2.68

>  <HBD>  (100) 
1

>  <HBA>  (100) 
7

>  <RotB>  (100) 
6

>  <ASMS_similarity>  (100) 
0.5946

>  <Priority_tier>  (100) 
Tier3_explore

>  <Scaffold>  (100) 
OC(=O)c1ccc2CCNCc2n1

$$$$

     RDKit          2D

 34 37  0  0  0  0  0  0  0  0999 V2000
   -5.1857    5.3506    0.0000 C   0  0  0  0  0  0  0  0  0  0  0  0
   -6.2782    4.3227    0.0000 O   0  0  0  0  0  0  0  0  0  0  0  0
   -5.9342    2.8627    0.0000 C   0  0  0  0  0  0  0  0  0  0  0  0
   -4.4978    2.4305    0.0000 C   0  0  0  0  0  0  0  0  0  0  0  0
   -4.1539    0.9705    0.0000 C   0  0  0  0  0  0  0  0  0  0  0  0
   -5.2463   -0.0574    0.0000 C   0  0  0  0  0  0  0  0  0  0  0  0
   -4.9024   -1.5175    0.0000 C   0  0  0  0  0  0  0  0  0  0  0  0
   -5.9949   -2.5453    0.0000 O   0  0  0  0  0  0  0  0  0  0  0  0
   -3.4660   -1.9496    0.0000 N   0  0  0  0  0  0  0  0  0  0  0  0
   -3.1221   -3.4096    0.0000 C   0  0  0  0  0  0  0  0  0  0  0  0
   -1.6857   -3.8418    0.0000 C   0  0  0  0  0  0  0  0  0  0  0  0
   -0.5932   -2.8139    0.0000 C   0  0  0  0  0  0  0  0  0  0  0  0
    0.8432   -3.2461    0.0000 C   0  0  0  0  0  0  0  0  0  0  0  0
    1.9356   -2.2182    0.0000 C   0  0  0  0  0  0  0  0  0  0  0  0
    1.5917   -0.7582    0.0000 C   0  0  0  0  0  0  0  0  0  0  0  0
    2.6842    0.2697    0.0000 C   0  0  0  0  0  0  0  0  0  0  0  0
    2.3402    1.7297    0.0000 O   0  0  0  0  0  0  0  0  0  0  0  0
    4.1206   -0.1625    0.0000 N   0  0  0  0  0  0  0  0  0  0  0  0
    5.2130    0.8654    0.0000 C   0  0  0  0  0  0  0  0  0  0  0  0
    6.6494    0.4333    0.0000 C   0  0  0  0  0  0  0  0  0  0  0  0
    6.9934   -1.0268    0.0000 C   0  0  0  0  0  0  0  0  0  0  0  0
    8.4298   -1.4589    0.0000 C   0  0  0  0  0  0  0  0  0  0  0  0
    9.5222   -0.4311    0.0000 C   0  0  0  0  0  0  0  0  0  0  0  0
    9.1783    1.0290    0.0000 C   0  0  0  0  0  0  0  0  0  0  0  0
   10.2707    2.0569    0.0000 C   0  0  0  0  0  0  0  0  0  0  0  0
    7.7419    1.4611    0.0000 C   0  0  0  0  0  0  0  0  0  0  0  0
    7.3979    2.9212    0.0000 C   0  0  0  0  0  0  0  0  0  0  0  0
    0.1553   -0.3260    0.0000 N   0  0  0  0  0  0  0  0  0  0  0  0
   -0.9372   -1.3539    0.0000 C   0  0  0  0  0  0  0  0  0  0  0  0
   -2.3736   -0.9217    0.0000 C   0  0  0  0  0  0  0  0  0  0  0  0
   -6.6827    0.3747    0.0000 C   0  0  0  0  0  0  0  0  0  0  0  0
   -7.7752   -0.6531    0.0000 O   0  0  0  0  0  0  0  0  0  0  0  0
   -9.2116   -0.2210    0.0000 C   0  0  0  0  0  0  0  0  0  0  0  0
   -7.0267    1.8348    0.0000 C   0  0  0  0  0  0  0  0  0  0  0  0
  1  2  1  0
  2  3  1  0
  3  4  2  0
  4  5  1  0
  5  6  2  0
  6  7  1  0
  7  8  2  0
  7  9  1  0
  9 10  1  0
 10 11  1  0
 11 12  1  0
 12 13  2  0
 13 14  1  0
 14 15  2  0
 15 16  1  0
 16 17  2  0
 16 18  1  0
 18 19  1  0
 19 20  1  0
 20 21  2  0
 21 22  1  0
 22 23  2  0
 23 24  1  0
 24 25  1  0
 24 26  2  0
 26 27  1  0
 15 28  1  0
 28 29  2  0
 29 30  1  0
  6 31  1  0
 31 32  1  0
 32 33  1  0
 31 34  2  0
 34  3  1  0
 30  9  1  0
 29 12  1  0
 26 20  1  0
M  END
>  <Compound_ID>  (101) 
LIB101

>  <SMILES>  (101) 
COc1ccc(C(=O)N2CCc3ccc(C(=O)NCc4cccc(C)c4C)nc3C2)c(OC)c1

>  <R1_reagent>  (101) 
COc1ccc(C(=O)O)c(OC)c1

>  <R1_ID>  (101) 
R-004816

>  <N_reaction>  (101) 
Amidation

>  <R2_amine>  (101) 
Cc1cccc(CN)c1C

>  <R2_ID>  (101) 
R-008908

>  <MW>  (101) 
459.5

>  <LogP>  (101) 
3.84

>  <HBD>  (101) 
1

>  <HBA>  (101) 
5

>  <RotB>  (101) 
6

>  <ASMS_similarity>  (101) 
0.5926

>  <Priority_tier>  (101) 
Tier3_explore

>  <Scaffold>  (101) 
OC(=O)c1ccc2CCNCc2n1

$$$$

     RDKit          2D

 32 35  0  0  0  0  0  0  0  0999 V2000
   -3.2737    1.3322    0.0000 C   0  0  0  0  0  0  0  0  0  0  0  0
   -4.7666    1.4784    0.0000 C   0  0  0  0  0  0  0  0  0  0  0  0
   -5.5258    2.7721    0.0000 N   0  0  0  0  0  0  0  0  0  0  0  0
   -6.9907    2.4498    0.0000 N   0  0  0  0  0  0  0  0  0  0  0  0
   -8.1126    3.4455    0.0000 C   0  0  0  0  0  0  0  0  0  0  0  0
   -7.1369    0.9569    0.0000 C   0  0  0  0  0  0  0  0  0  0  0  0
   -8.4306    0.1977    0.0000 Cl  0  0  0  0  0  0  0  0  0  0  0  0
   -5.7623    0.3566    0.0000 C   0  0  0  0  0  0  0  0  0  0  0  0
   -5.4400   -1.1084    0.0000 C   0  0  0  0  0  0  0  0  0  0  0  0
   -6.5476   -2.1200    0.0000 O   0  0  0  0  0  0  0  0  0  0  0  0
   -4.0102   -1.5618    0.0000 N   0  0  0  0  0  0  0  0  0  0  0  0
   -3.6879   -3.0267    0.0000 C   0  0  0  0  0  0  0  0  0  0  0  0
   -2.2580   -3.4801    0.0000 C   0  0  0  0  0  0  0  0  0  0  0  0
   -1.1505   -2.4685    0.0000 C   0  0  0  0  0  0  0  0  0  0  0  0
    0.2794   -2.9219    0.0000 C   0  0  0  0  0  0  0  0  0  0  0  0
    1.3869   -1.9103    0.0000 C   0  0  0  0  0  0  0  0  0  0  0  0
    1.0646   -0.4453    0.0000 C   0  0  0  0  0  0  0  0  0  0  0  0
    2.1722    0.5662    0.0000 C   0  0  0  0  0  0  0  0  0  0  0  0
    1.8499    2.0312    0.0000 O   0  0  0  0  0  0  0  0  0  0  0  0
    3.6020    0.1129    0.0000 N   0  0  0  0  0  0  0  0  0  0  0  0
    4.7096    1.1245    0.0000 C   0  0  0  0  0  0  0  0  0  0  0  0
    6.1394    0.6711    0.0000 C   0  0  0  0  0  0  0  0  0  0  0  0
    6.4617   -0.7939    0.0000 C   0  0  0  0  0  0  0  0  0  0  0  0
    7.8916   -1.2473    0.0000 C   0  0  0  0  0  0  0  0  0  0  0  0
    8.9991   -0.2357    0.0000 C   0  0  0  0  0  0  0  0  0  0  0  0
   10.4290   -0.6890    0.0000 Cl  0  0  0  0  0  0  0  0  0  0  0  0
    8.6768    1.2293    0.0000 C   0  0  0  0  0  0  0  0  0  0  0  0
    7.2470    1.6827    0.0000 C   0  0  0  0  0  0  0  0  0  0  0  0
    6.9247    3.1477    0.0000 Cl  0  0  0  0  0  0  0  0  0  0  0  0
   -0.3652    0.0080    0.0000 N   0  0  0  0  0  0  0  0  0  0  0  0
   -1.4728   -1.0036    0.0000 C   0  0  0  0  0  0  0  0  0  0  0  0
   -2.9026   -0.5502    0.0000 C   0  0  0  0  0  0  0  0  0  0  0  0
  1  2  1  0
  2  3  2  0
  3  4  1  0
  4  5  1  0
  4  6  1  0
  6  7  1  0
  6  8  2  0
  8  9  1  0
  9 10  2  0
  9 11  1  0
 11 12  1  0
 12 13  1  0
 13 14  1  0
 14 15  2  0
 15 16  1  0
 16 17  2  0
 17 18  1  0
 18 19  2  0
 18 20  1  0
 20 21  1  0
 21 22  1  0
 22 23  2  0
 23 24  1  0
 24 25  2  0
 25 26  1  0
 25 27  1  0
 27 28  2  0
 28 29  1  0
 17 30  1  0
 30 31  2  0
 31 32  1  0
  8  2  1  0
 32 11  1  0
 31 14  1  0
 28 22  1  0
M  END
>  <Compound_ID>  (102) 
LIB102

>  <SMILES>  (102) 
Cc1nn(C)c(Cl)c1C(=O)N1CCc2ccc(C(=O)NCc3ccc(Cl)cc3Cl)nc2C1

>  <R1_reagent>  (102) 
Cc1nn(C)c(Cl)c1C(=O)O

>  <R1_ID>  (102) 
R-005143

>  <N_reaction>  (102) 
Amidation

>  <R2_amine>  (102) 
NCc1ccc(Cl)cc1Cl

>  <R2_ID>  (102) 
R-004462

>  <MW>  (102) 
492.8

>  <LogP>  (102) 
4.21

>  <HBD>  (102) 
1

>  <HBA>  (102) 
5

>  <RotB>  (102) 
4

>  <ASMS_similarity>  (102) 
0.5921

>  <Priority_tier>  (102) 
Tier3_explore

>  <Scaffold>  (102) 
OC(=O)c1ccc2CCNCc2n1

$$$$

     RDKit          2D

 34 37  0  0  0  0  0  0  0  0999 V2000
   -5.4813    5.6678    0.0000 C   0  0  0  0  0  0  0  0  0  0  0  0
   -6.7047    4.7999    0.0000 O   0  0  0  0  0  0  0  0  0  0  0  0
   -6.5648    3.3065    0.0000 C   0  0  0  0  0  0  0  0  0  0  0  0
   -5.2015    2.6809    0.0000 C   0  0  0  0  0  0  0  0  0  0  0  0
   -5.0615    1.1875    0.0000 C   0  0  0  0  0  0  0  0  0  0  0  0
   -6.2850    0.3196    0.0000 C   0  0  0  0  0  0  0  0  0  0  0  0
   -6.1450   -1.1739    0.0000 C   0  0  0  0  0  0  0  0  0  0  0  0
   -7.3684   -2.0418    0.0000 O   0  0  0  0  0  0  0  0  0  0  0  0
   -4.7817   -1.7995    0.0000 N   0  0  0  0  0  0  0  0  0  0  0  0
   -4.6418   -3.2929    0.0000 C   0  0  0  0  0  0  0  0  0  0  0  0
   -3.2784   -3.9185    0.0000 C   0  0  0  0  0  0  0  0  0  0  0  0
   -2.0550   -3.0506    0.0000 C   0  0  0  0  0  0  0  0  0  0  0  0
   -0.6917   -3.6761    0.0000 C   0  0  0  0  0  0  0  0  0  0  0  0
    0.5317   -2.8082    0.0000 C   0  0  0  0  0  0  0  0  0  0  0  0
    0.3918   -1.3148    0.0000 C   0  0  0  0  0  0  0  0  0  0  0  0
    1.6152   -0.4469    0.0000 C   0  0  0  0  0  0  0  0  0  0  0  0
    1.4753    1.0466    0.0000 O   0  0  0  0  0  0  0  0  0  0  0  0
    2.9785   -1.0724    0.0000 N   0  0  0  0  0  0  0  0  0  0  0  0
    4.2020   -0.2045    0.0000 C   0  0  0  0  0  0  0  0  0  0  0  0
    5.5653   -0.8301    0.0000 C   0  0  0  0  0  0  0  0  0  0  0  0
    6.7887    0.0378    0.0000 O   0  0  0  0  0  0  0  0  0  0  0  0
    8.1520   -0.5877    0.0000 C   0  0  0  0  0  0  0  0  0  0  0  0
    9.3755    0.2802    0.0000 C   0  0  0  0  0  0  0  0  0  0  0  0
   10.7388   -0.3454    0.0000 C   0  0  0  0  0  0  0  0  0  0  0  0
   11.9622    0.5225    0.0000 C   0  0  0  0  0  0  0  0  0  0  0  0
   11.8223    2.0160    0.0000 C   0  0  0  0  0  0  0  0  0  0  0  0
   10.4590    2.6415    0.0000 C   0  0  0  0  0  0  0  0  0  0  0  0
    9.2355    1.7736    0.0000 C   0  0  0  0  0  0  0  0  0  0  0  0
   -0.9715   -0.6892    0.0000 N   0  0  0  0  0  0  0  0  0  0  0  0
   -2.1950   -1.5571    0.0000 C   0  0  0  0  0  0  0  0  0  0  0  0
   -3.5583   -0.9316    0.0000 C   0  0  0  0  0  0  0  0  0  0  0  0
   -7.6483    0.9451    0.0000 C   0  0  0  0  0  0  0  0  0  0  0  0
   -8.8717    0.0772    0.0000 F   0  0  0  0  0  0  0  0  0  0  0  0
   -7.7882    2.4386    0.0000 C   0  0  0  0  0  0  0  0  0  0  0  0
  1  2  1  0
  2  3  1  0
  3  4  2  0
  4  5  1  0
  5  6  2  0
  6  7  1  0
  7  8  2  0
  7  9  1  0
  9 10  1  0
 10 11  1  0
 11 12  1  0
 12 13  2  0
 13 14  1  0
 14 15  2  0
 15 16  1  0
 16 17  2  0
 16 18  1  0
 18 19  1  0
 19 20  1  0
 20 21  1  0
 21 22  1  0
 22 23  1  0
 23 24  2  0
 24 25  1  0
 25 26  2  0
 26 27  1  0
 27 28  2  0
 15 29  1  0
 29 30  2  0
 30 31  1  0
  6 32  1  0
 32 33  1  0
 32 34  2  0
 34  3  1  0
 31  9  1  0
 30 12  1  0
 28 23  1  0
M  END
>  <Compound_ID>  (103) 
LIB103

>  <SMILES>  (103) 
COc1ccc(C(=O)N2CCc3ccc(C(=O)NCCOCc4ccccc4)nc3C2)c(F)c1

>  <R1_reagent>  (103) 
COc1ccc(C(=O)O)c(F)c1

>  <R1_ID>  (103) 
R-011340

>  <N_reaction>  (103) 
Amidation

>  <R2_amine>  (103) 
NCCOCc1ccccc1

>  <R2_ID>  (103) 
R-000973

>  <MW>  (103) 
463.5

>  <LogP>  (103) 
3.37

>  <HBD>  (103) 
1

>  <HBA>  (103) 
5

>  <RotB>  (103) 
8

>  <ASMS_similarity>  (103) 
0.5921

>  <Priority_tier>  (103) 
Tier3_explore

>  <Scaffold>  (103) 
OC(=O)c1ccc2CCNCc2n1

$$$$

     RDKit          2D

 31 34  0  0  0  0  0  0  0  0999 V2000
   -3.4843    1.5626    0.0000 C   0  0  0  0  0  0  0  0  0  0  0  0
   -4.9714    1.7594    0.0000 C   0  0  0  0  0  0  0  0  0  0  0  0
   -5.6862    3.0781    0.0000 N   0  0  0  0  0  0  0  0  0  0  0  0
   -7.1613    2.8057    0.0000 C   0  0  0  0  0  0  0  0  0  0  0  0
   -7.3581    1.3187    0.0000 N   0  0  0  0  0  0  0  0  0  0  0  0
   -8.6768    0.6039    0.0000 C   0  0  0  0  0  0  0  0  0  0  0  0
   -6.0046    0.6720    0.0000 C   0  0  0  0  0  0  0  0  0  0  0  0
   -5.7323   -0.8031    0.0000 C   0  0  0  0  0  0  0  0  0  0  0  0
   -6.8736   -1.7765    0.0000 O   0  0  0  0  0  0  0  0  0  0  0  0
   -4.3187   -1.3047    0.0000 N   0  0  0  0  0  0  0  0  0  0  0  0
   -4.0463   -2.7798    0.0000 C   0  0  0  0  0  0  0  0  0  0  0  0
   -2.6327   -3.2815    0.0000 C   0  0  0  0  0  0  0  0  0  0  0  0
   -1.4914   -2.3081    0.0000 C   0  0  0  0  0  0  0  0  0  0  0  0
   -0.0778   -2.8097    0.0000 C   0  0  0  0  0  0  0  0  0  0  0  0
    1.0635   -1.8363    0.0000 C   0  0  0  0  0  0  0  0  0  0  0  0
    0.7911   -0.3613    0.0000 C   0  0  0  0  0  0  0  0  0  0  0  0
    1.9324    0.6121    0.0000 C   0  0  0  0  0  0  0  0  0  0  0  0
    1.6600    2.0872    0.0000 O   0  0  0  0  0  0  0  0  0  0  0  0
    3.3460    0.1105    0.0000 N   0  0  0  0  0  0  0  0  0  0  0  0
    4.4873    1.0839    0.0000 C   0  0  0  0  0  0  0  0  0  0  0  0
    5.9009    0.5822    0.0000 C   0  0  0  0  0  0  0  0  0  0  0  0
    6.1733   -0.8929    0.0000 C   0  0  0  0  0  0  0  0  0  0  0  0
    7.5869   -1.3946    0.0000 C   0  0  0  0  0  0  0  0  0  0  0  0
    8.7281   -0.4212    0.0000 C   0  0  0  0  0  0  0  0  0  0  0  0
   10.1418   -0.9228    0.0000 Cl  0  0  0  0  0  0  0  0  0  0  0  0
    8.4558    1.0539    0.0000 C   0  0  0  0  0  0  0  0  0  0  0  0
    7.0422    1.5556    0.0000 C   0  0  0  0  0  0  0  0  0  0  0  0
    6.7698    3.0306    0.0000 Cl  0  0  0  0  0  0  0  0  0  0  0  0
   -0.6225    0.1404    0.0000 N   0  0  0  0  0  0  0  0  0  0  0  0
   -1.7638   -0.8330    0.0000 C   0  0  0  0  0  0  0  0  0  0  0  0
   -3.1774   -0.3313    0.0000 C   0  0  0  0  0  0  0  0  0  0  0  0
  1  2  1  0
  2  3  1  0
  3  4  2  0
  4  5  1  0
  5  6  1  0
  5  7  1  0
  7  8  1  0
  8  9  2  0
  8 10  1  0
 10 11  1  0
 11 12  1  0
 12 13  1  0
 13 14  2  0
 14 15  1  0
 15 16  2  0
 16 17  1  0
 17 18  2  0
 17 19  1  0
 19 20  1  0
 20 21  1  0
 21 22  2  0
 22 23  1  0
 23 24  2  0
 24 25  1  0
 24 26  1  0
 26 27  2  0
 27 28  1  0
 16 29  1  0
 29 30  2  0
 30 31  1  0
  7  2  2  0
 31 10  1  0
 30 13  1  0
 27 21  1  0
M  END
>  <Compound_ID>  (104) 
LIB104

>  <SMILES>  (104) 
Cc1ncn(C)c1C(=O)N1CCc2ccc(C(=O)NCc3ccc(Cl)cc3Cl)nc2C1

>  <R1_reagent>  (104) 
Cc1ncn(C)c1C(=O)O

>  <R1_ID>  (104) 
R-011857

>  <N_reaction>  (104) 
Amidation

>  <R2_amine>  (104) 
NCc1ccc(Cl)cc1Cl

>  <R2_ID>  (104) 
R-004462

>  <MW>  (104) 
458.3

>  <LogP>  (104) 
3.56

>  <HBD>  (104) 
1

>  <HBA>  (104) 
5

>  <RotB>  (104) 
4

>  <ASMS_similarity>  (104) 
0.5921

>  <Priority_tier>  (104) 
Tier3_explore

>  <Scaffold>  (104) 
OC(=O)c1ccc2CCNCc2n1

$$$$

     RDKit          2D

 31 34  0  0  0  0  0  0  0  0999 V2000
   -8.3773    3.4693    0.0000 C   0  0  0  0  0  0  0  0  0  0  0  0
   -7.2576    2.4712    0.0000 C   0  0  0  0  0  0  0  0  0  0  0  0
   -7.4069    0.9786    0.0000 C   0  0  0  0  0  0  0  0  0  0  0  0
   -6.0335    0.3754    0.0000 C   0  0  0  0  0  0  0  0  0  0  0  0
   -5.7142   -1.0902    0.0000 C   0  0  0  0  0  0  0  0  0  0  0  0
   -6.8239   -2.0995    0.0000 O   0  0  0  0  0  0  0  0  0  0  0  0
   -4.2853   -1.5465    0.0000 N   0  0  0  0  0  0  0  0  0  0  0  0
   -3.9661   -3.0122    0.0000 C   0  0  0  0  0  0  0  0  0  0  0  0
   -2.5372   -3.4685    0.0000 C   0  0  0  0  0  0  0  0  0  0  0  0
   -1.4275   -2.4592    0.0000 C   0  0  0  0  0  0  0  0  0  0  0  0
    0.0014   -2.9155    0.0000 C   0  0  0  0  0  0  0  0  0  0  0  0
    1.1110   -1.9062    0.0000 C   0  0  0  0  0  0  0  0  0  0  0  0
    0.7918   -0.4406    0.0000 C   0  0  0  0  0  0  0  0  0  0  0  0
    1.9014    0.5687    0.0000 C   0  0  0  0  0  0  0  0  0  0  0  0
    1.5822    2.0343    0.0000 O   0  0  0  0  0  0  0  0  0  0  0  0
    3.3303    0.1124    0.0000 N   0  0  0  0  0  0  0  0  0  0  0  0
    4.4400    1.1216    0.0000 C   0  0  0  0  0  0  0  0  0  0  0  0
    5.8689    0.6653    0.0000 C   0  0  0  0  0  0  0  0  0  0  0  0
    6.1881   -0.8003    0.0000 C   0  0  0  0  0  0  0  0  0  0  0  0
    7.6170   -1.2567    0.0000 C   0  0  0  0  0  0  0  0  0  0  0  0
    8.7267   -0.2474    0.0000 C   0  0  0  0  0  0  0  0  0  0  0  0
   10.1556   -0.7037    0.0000 Cl  0  0  0  0  0  0  0  0  0  0  0  0
    8.4074    1.2183    0.0000 C   0  0  0  0  0  0  0  0  0  0  0  0
    6.9785    1.6746    0.0000 C   0  0  0  0  0  0  0  0  0  0  0  0
    6.6593    3.1402    0.0000 Cl  0  0  0  0  0  0  0  0  0  0  0  0
   -0.6371    0.0157    0.0000 N   0  0  0  0  0  0  0  0  0  0  0  0
   -1.7468   -0.9936    0.0000 C   0  0  0  0  0  0  0  0  0  0  0  0
   -3.1757   -0.5372    0.0000 C   0  0  0  0  0  0  0  0  0  0  0  0
   -5.0354    1.4952    0.0000 N   0  0  0  0  0  0  0  0  0  0  0  0
   -3.5429    1.3459    0.0000 C   0  0  0  0  0  0  0  0  0  0  0  0
   -5.7919    2.7904    0.0000 N   0  0  0  0  0  0  0  0  0  0  0  0
  1  2  1  0
  2  3  1  0
  3  4  2  0
  4  5  1  0
  5  6  2  0
  5  7  1  0
  7  8  1  0
  8  9  1  0
  9 10  1  0
 10 11  2  0
 11 12  1  0
 12 13  2  0
 13 14  1  0
 14 15  2  0
 14 16  1  0
 16 17  1  0
 17 18  1  0
 18 19  2  0
 19 20  1  0
 20 21  2  0
 21 22  1  0
 21 23  1  0
 23 24  2  0
 24 25  1  0
 13 26  1  0
 26 27  2  0
 27 28  1  0
  4 29  1  0
 29 30  1  0
 29 31  1  0
 31  2  2  0
 28  7  1  0
 27 10  1  0
 24 18  1  0
M  END
>  <Compound_ID>  (105) 
LIB105

>  <SMILES>  (105) 
Cc1cc(C(=O)N2CCc3ccc(C(=O)NCc4ccc(Cl)cc4Cl)nc3C2)n(C)n1

>  <R1_reagent>  (105) 
Cc1cc(C(=O)Cl)n(C)n1

>  <R1_ID>  (105) 
R-000631

>  <N_reaction>  (105) 
Amidation

>  <R2_amine>  (105) 
NCc1ccc(Cl)cc1Cl

>  <R2_ID>  (105) 
R-004462

>  <MW>  (105) 
458.3

>  <LogP>  (105) 
3.56

>  <HBD>  (105) 
1

>  <HBA>  (105) 
5

>  <RotB>  (105) 
4

>  <ASMS_similarity>  (105) 
0.5921

>  <Priority_tier>  (105) 
Tier3_explore

>  <Scaffold>  (105) 
OC(=O)c1ccc2CCNCc2n1

$$$$

     RDKit          2D

 31 33  0  0  0  0  0  0  0  0999 V2000
   -8.5476   -3.8510    0.0000 C   0  0  0  0  0  0  0  0  0  0  0  0
   -8.5263   -2.3512    0.0000 C   0  0  0  0  0  0  0  0  0  0  0  0
   -8.5049   -0.8513    0.0000 C   0  0  0  0  0  0  0  0  0  0  0  0
  -10.0261   -2.3298    0.0000 C   0  0  0  0  0  0  0  0  0  0  0  0
   -7.0264   -2.3725    0.0000 C   0  0  0  0  0  0  0  0  0  0  0  0
   -6.2580   -1.0843    0.0000 N   0  0  0  0  0  0  0  0  0  0  0  0
   -4.7582   -1.1057    0.0000 C   0  0  0  0  0  0  0  0  0  0  0  0
   -4.0267   -2.4153    0.0000 O   0  0  0  0  0  0  0  0  0  0  0  0
   -3.9897    0.1826    0.0000 C   0  0  0  0  0  0  0  0  0  0  0  0
   -4.7212    1.4921    0.0000 C   0  0  0  0  0  0  0  0  0  0  0  0
   -3.9527    2.7804    0.0000 C   0  0  0  0  0  0  0  0  0  0  0  0
   -2.4529    2.7590    0.0000 C   0  0  0  0  0  0  0  0  0  0  0  0
   -1.7215    1.4494    0.0000 C   0  0  0  0  0  0  0  0  0  0  0  0
   -2.4899    0.1612    0.0000 N   0  0  0  0  0  0  0  0  0  0  0  0
   -0.2216    1.4281    0.0000 C   0  0  0  0  0  0  0  0  0  0  0  0
    0.5468    2.7163    0.0000 N   0  0  0  0  0  0  0  0  0  0  0  0
    2.0467    2.6949    0.0000 C   0  0  0  0  0  0  0  0  0  0  0  0
    2.8151    3.9831    0.0000 O   0  0  0  0  0  0  0  0  0  0  0  0
    2.7781    1.3853    0.0000 C   0  0  0  0  0  0  0  0  0  0  0  0
    4.2779    1.3640    0.0000 C   0  0  0  0  0  0  0  0  0  0  0  0
    5.0093    0.0544    0.0000 C   0  0  0  0  0  0  0  0  0  0  0  0
    6.5092    0.0330    0.0000 C   0  0  0  0  0  0  0  0  0  0  0  0
    7.2776    1.3212    0.0000 O   0  0  0  0  0  0  0  0  0  0  0  0
    7.2406   -1.2766    0.0000 N   0  0  0  0  0  0  0  0  0  0  0  0
    6.4722   -2.5648    0.0000 C   0  0  0  0  0  0  0  0  0  0  0  0
    7.2036   -3.8744    0.0000 C   0  0  0  0  0  0  0  0  0  0  0  0
    8.7035   -3.8957    0.0000 C   0  0  0  0  0  0  0  0  0  0  0  0
    9.4719   -2.6075    0.0000 C   0  0  0  0  0  0  0  0  0  0  0  0
    8.7405   -1.2979    0.0000 C   0  0  0  0  0  0  0  0  0  0  0  0
   -0.1846    4.0259    0.0000 C   0  0  0  0  0  0  0  0  0  0  0  0
   -1.6845    4.0472    0.0000 C   0  0  0  0  0  0  0  0  0  0  0  0
  1  2  1  0
  2  3  1  0
  2  4  1  0
  2  5  1  0
  5  6  1  0
  6  7  1  0
  7  8  2  0
  7  9  1  0
  9 10  2  0
 10 11  1  0
 11 12  2  0
 12 13  1  0
 13 14  2  0
 13 15  1  0
 15 16  1  0
 16 17  1  0
 17 18  2  0
 17 19  1  0
 19 20  1  0
 20 21  1  0
 21 22  1  0
 22 23  2  0
 22 24  1  0
 24 25  1  0
 25 26  1  0
 26 27  1  0
 27 28  1  0
 28 29  1  0
 16 30  1  0
 30 31  1  0
 14  9  1  0
 29 24  1  0
 31 12  1  0
M  END
>  <Compound_ID>  (106) 
LIB106

>  <SMILES>  (106) 
CC(C)(C)CNC(=O)c1ccc2c(n1)CN(C(=O)CCCC(=O)N1CCCCC1)CC2

>  <R1_reagent>  (106) 
O=C(O)CCCC(=O)N1CCCCC1

>  <R1_ID>  (106) 
R-007891

>  <N_reaction>  (106) 
Amidation

>  <R2_amine>  (106) 
CC(C)(C)CN

>  <R2_ID>  (106) 
R-003311

>  <MW>  (106) 
428.6

>  <LogP>  (106) 
2.93

>  <HBD>  (106) 
1

>  <HBA>  (106) 
4

>  <RotB>  (106) 
6

>  <ASMS_similarity>  (106) 
0.5915

>  <Priority_tier>  (106) 
Tier3_explore

>  <Scaffold>  (106) 
OC(=O)c1ccc2CCNCc2n1

$$$$

     RDKit          2D

 31 34  0  0  0  0  0  0  0  0999 V2000
  -10.8610   -0.6810    0.0000 C   0  0  0  0  0  0  0  0  0  0  0  0
   -9.3704   -0.8479    0.0000 O   0  0  0  0  0  0  0  0  0  0  0  0
   -8.4804    0.3596    0.0000 C   0  0  0  0  0  0  0  0  0  0  0  0
   -9.0812    1.7340    0.0000 C   0  0  0  0  0  0  0  0  0  0  0  0
   -8.1912    2.9415    0.0000 C   0  0  0  0  0  0  0  0  0  0  0  0
   -6.7005    2.7745    0.0000 C   0  0  0  0  0  0  0  0  0  0  0  0
   -6.0998    1.4001    0.0000 C   0  0  0  0  0  0  0  0  0  0  0  0
   -4.6091    1.2331    0.0000 C   0  0  0  0  0  0  0  0  0  0  0  0
   -4.0084   -0.1414    0.0000 C   0  0  0  0  0  0  0  0  0  0  0  0
   -2.5177   -0.3083    0.0000 N   0  0  0  0  0  0  0  0  0  0  0  0
   -1.9170   -1.6828    0.0000 C   0  0  0  0  0  0  0  0  0  0  0  0
   -2.8069   -2.8903    0.0000 O   0  0  0  0  0  0  0  0  0  0  0  0
   -0.4263   -1.8497    0.0000 C   0  0  0  0  0  0  0  0  0  0  0  0
    0.1744   -3.2242    0.0000 C   0  0  0  0  0  0  0  0  0  0  0  0
    1.6651   -3.3912    0.0000 C   0  0  0  0  0  0  0  0  0  0  0  0
    2.5551   -2.1837    0.0000 C   0  0  0  0  0  0  0  0  0  0  0  0
    1.9543   -0.8092    0.0000 C   0  0  0  0  0  0  0  0  0  0  0  0
    0.4636   -0.6423    0.0000 N   0  0  0  0  0  0  0  0  0  0  0  0
    2.8443    0.3982    0.0000 C   0  0  0  0  0  0  0  0  0  0  0  0
    4.3349    0.2313    0.0000 N   0  0  0  0  0  0  0  0  0  0  0  0
    5.2249    1.4388    0.0000 C   0  0  0  0  0  0  0  0  0  0  0  0
    4.6241    2.8132    0.0000 O   0  0  0  0  0  0  0  0  0  0  0  0
    6.7156    1.2718    0.0000 C   0  0  0  0  0  0  0  0  0  0  0  0
    7.3163   -0.1027    0.0000 C   0  0  0  0  0  0  0  0  0  0  0  0
    8.8070   -0.2696    0.0000 C   0  0  0  0  0  0  0  0  0  0  0  0
    9.6969    0.9379    0.0000 C   0  0  0  0  0  0  0  0  0  0  0  0
    9.0962    2.3123    0.0000 C   0  0  0  0  0  0  0  0  0  0  0  0
    7.6055    2.4793    0.0000 C   0  0  0  0  0  0  0  0  0  0  0  0
    4.9357   -1.1432    0.0000 C   0  0  0  0  0  0  0  0  0  0  0  0
    4.0457   -2.3507    0.0000 C   0  0  0  0  0  0  0  0  0  0  0  0
   -6.9897    0.1926    0.0000 C   0  0  0  0  0  0  0  0  0  0  0  0
  1  2  1  0
  2  3  1  0
  3  4  2  0
  4  5  1  0
  5  6  2  0
  6  7  1  0
  7  8  1  0
  8  9  1  0
  9 10  1  0
 10 11  1  0
 11 12  2  0
 11 13  1  0
 13 14  2  0
 14 15  1  0
 15 16  2  0
 16 17  1  0
 17 18  2  0
 17 19  1  0
 19 20  1  0
 20 21  1  0
 21 22  2  0
 21 23  1  0
 23 24  2  0
 24 25  1  0
 25 26  2  0
 26 27  1  0
 27 28  2  0
 20 29  1  0
 29 30  1  0
  7 31  2  0
 31  3  1  0
 18 13  1  0
 28 23  1  0
 30 16  1  0
M  END
>  <Compound_ID>  (107) 
LIB107

>  <SMILES>  (107) 
COc1cccc(CCNC(=O)c2ccc3c(n2)CN(C(=O)c2ccccc2)CC3)c1

>  <R1_reagent>  (107) 
O=C(Cl)c1ccccc1

>  <R1_ID>  (107) 
R-003427

>  <N_reaction>  (107) 
Amidation

>  <R2_amine>  (107) 
COc1cccc(CCN)c1

>  <R2_ID>  (107) 
R-001390

>  <MW>  (107) 
415.5

>  <LogP>  (107) 
3.26

>  <HBD>  (107) 
1

>  <HBA>  (107) 
4

>  <RotB>  (107) 
6

>  <ASMS_similarity>  (107) 
0.5915

>  <Priority_tier>  (107) 
Tier3_explore

>  <Scaffold>  (107) 
OC(=O)c1ccc2CCNCc2n1

$$$$

     RDKit          2D

 34 37  0  0  0  0  0  0  0  0999 V2000
   -6.5095    5.1331    0.0000 C   0  0  0  0  0  0  0  0  0  0  0  0
   -6.4616    3.6339    0.0000 C   0  0  0  0  0  0  0  0  0  0  0  0
   -5.1393    2.9257    0.0000 C   0  0  0  0  0  0  0  0  0  0  0  0
   -5.0914    1.4265    0.0000 C   0  0  0  0  0  0  0  0  0  0  0  0
   -6.3659    0.6354    0.0000 C   0  0  0  0  0  0  0  0  0  0  0  0
   -6.3180   -0.8638    0.0000 C   0  0  0  0  0  0  0  0  0  0  0  0
   -7.5925   -1.6549    0.0000 O   0  0  0  0  0  0  0  0  0  0  0  0
   -4.9957   -1.5720    0.0000 N   0  0  0  0  0  0  0  0  0  0  0  0
   -4.9478   -3.0712    0.0000 C   0  0  0  0  0  0  0  0  0  0  0  0
   -3.6255   -3.7794    0.0000 C   0  0  0  0  0  0  0  0  0  0  0  0
   -2.3511   -2.9883    0.0000 C   0  0  0  0  0  0  0  0  0  0  0  0
   -1.0288   -3.6965    0.0000 C   0  0  0  0  0  0  0  0  0  0  0  0
    0.2457   -2.9054    0.0000 C   0  0  0  0  0  0  0  0  0  0  0  0
    0.1978   -1.4062    0.0000 C   0  0  0  0  0  0  0  0  0  0  0  0
    1.4722   -0.6151    0.0000 C   0  0  0  0  0  0  0  0  0  0  0  0
    1.4244    0.8841    0.0000 O   0  0  0  0  0  0  0  0  0  0  0  0
    2.7946   -1.3233    0.0000 N   0  0  0  0  0  0  0  0  0  0  0  0
    4.0690   -0.5322    0.0000 C   0  0  0  0  0  0  0  0  0  0  0  0
    5.3913   -1.2404    0.0000 C   0  0  0  0  0  0  0  0  0  0  0  0
    6.6657   -0.4493    0.0000 C   0  0  0  0  0  0  0  0  0  0  0  0
    7.9881   -1.1575    0.0000 C   0  0  0  0  0  0  0  0  0  0  0  0
    9.2625   -0.3664    0.0000 C   0  0  0  0  0  0  0  0  0  0  0  0
    9.2146    1.1328    0.0000 C   0  0  0  0  0  0  0  0  0  0  0  0
    7.8923    1.8410    0.0000 C   0  0  0  0  0  0  0  0  0  0  0  0
    6.6179    1.0499    0.0000 C   0  0  0  0  0  0  0  0  0  0  0  0
    5.2956    1.7581    0.0000 C   0  0  0  0  0  0  0  0  0  0  0  0
    3.9733    2.4663    0.0000 F   0  0  0  0  0  0  0  0  0  0  0  0
    6.0037    3.0804    0.0000 F   0  0  0  0  0  0  0  0  0  0  0  0
    4.5874    0.4358    0.0000 F   0  0  0  0  0  0  0  0  0  0  0  0
   -1.1245   -0.6980    0.0000 N   0  0  0  0  0  0  0  0  0  0  0  0
   -2.3990   -1.4891    0.0000 C   0  0  0  0  0  0  0  0  0  0  0  0
   -3.7213   -0.7809    0.0000 C   0  0  0  0  0  0  0  0  0  0  0  0
   -7.6882    1.3436    0.0000 C   0  0  0  0  0  0  0  0  0  0  0  0
   -7.7361    2.8428    0.0000 N   0  0  0  0  0  0  0  0  0  0  0  0
  1  2  1  0
  2  3  2  0
  3  4  1  0
  4  5  2  0
  5  6  1  0
  6  7  2  0
  6  8  1  0
  8  9  1  0
  9 10  1  0
 10 11  1  0
 11 12  2  0
 12 13  1  0
 13 14  2  0
 14 15  1  0
 15 16  2  0
 15 17  1  0
 17 18  1  0
 18 19  1  0
 19 20  1  0
 20 21  2  0
 21 22  1  0
 22 23  2  0
 23 24  1  0
 24 25  2  0
 25 26  1  0
 26 27  1  0
 26 28  1  0
 26 29  1  0
 14 30  1  0
 30 31  2  0
 31 32  1  0
  5 33  1  0
 33 34  2  0
 34  2  1  0
 32  8  1  0
 31 11  1  0
 25 20  1  0
M  END
>  <Compound_ID>  (108) 
LIB108

>  <SMILES>  (108) 
Cc1ccc(C(=O)N2CCc3ccc(C(=O)NCCc4ccccc4C(F)(F)F)nc3C2)cn1

>  <R1_reagent>  (108) 
Cc1ccc(C(=O)O)cn1

>  <R1_ID>  (108) 
R-005046

>  <N_reaction>  (108) 
Amidation

>  <R2_amine>  (108) 
NCCc1ccccc1C(F)(F)F

>  <R2_ID>  (108) 
R-009310

>  <MW>  (108) 
468.5

>  <LogP>  (108) 
3.97

>  <HBD>  (108) 
1

>  <HBA>  (108) 
4

>  <RotB>  (108) 
5

>  <ASMS_similarity>  (108) 
0.5904

>  <Priority_tier>  (108) 
Tier3_explore

>  <Scaffold>  (108) 
OC(=O)c1ccc2CCNCc2n1

$$$$

     RDKit          2D

 30 33  0  0  0  0  0  0  0  0999 V2000
   -9.1287    3.4161    0.0000 C   0  0  0  0  0  0  0  0  0  0  0  0
   -8.7982    1.9530    0.0000 O   0  0  0  0  0  0  0  0  0  0  0  0
   -7.3658    1.5077    0.0000 C   0  0  0  0  0  0  0  0  0  0  0  0
   -6.2640    2.5255    0.0000 C   0  0  0  0  0  0  0  0  0  0  0  0
   -4.8316    2.0802    0.0000 C   0  0  0  0  0  0  0  0  0  0  0  0
   -4.5011    0.6170    0.0000 C   0  0  0  0  0  0  0  0  0  0  0  0
   -3.0687    0.1717    0.0000 N   0  0  0  0  0  0  0  0  0  0  0  0
   -2.7382   -1.2914    0.0000 C   0  0  0  0  0  0  0  0  0  0  0  0
   -3.8400   -2.3092    0.0000 O   0  0  0  0  0  0  0  0  0  0  0  0
   -1.3058   -1.7368    0.0000 C   0  0  0  0  0  0  0  0  0  0  0  0
   -0.9753   -3.1999    0.0000 C   0  0  0  0  0  0  0  0  0  0  0  0
    0.4571   -3.6452    0.0000 C   0  0  0  0  0  0  0  0  0  0  0  0
    1.5589   -2.6274    0.0000 C   0  0  0  0  0  0  0  0  0  0  0  0
    1.2284   -1.1643    0.0000 C   0  0  0  0  0  0  0  0  0  0  0  0
   -0.2040   -0.7189    0.0000 N   0  0  0  0  0  0  0  0  0  0  0  0
    2.3302   -0.1465    0.0000 C   0  0  0  0  0  0  0  0  0  0  0  0
    3.7626   -0.5918    0.0000 N   0  0  0  0  0  0  0  0  0  0  0  0
    4.8645    0.4260    0.0000 C   0  0  0  0  0  0  0  0  0  0  0  0
    4.5339    1.8891    0.0000 O   0  0  0  0  0  0  0  0  0  0  0  0
    6.2968   -0.0193    0.0000 C   0  0  0  0  0  0  0  0  0  0  0  0
    7.3987    0.9985    0.0000 C   0  0  0  0  0  0  0  0  0  0  0  0
    7.2229    2.4882    0.0000 C   0  0  0  0  0  0  0  0  0  0  0  0
    8.5854    3.1157    0.0000 C   0  0  0  0  0  0  0  0  0  0  0  0
    9.6032    2.0138    0.0000 S   0  0  0  0  0  0  0  0  0  0  0  0
    8.8698    0.7053    0.0000 C   0  0  0  0  0  0  0  0  0  0  0  0
    4.0931   -2.0549    0.0000 C   0  0  0  0  0  0  0  0  0  0  0  0
    2.9913   -3.0727    0.0000 C   0  0  0  0  0  0  0  0  0  0  0  0
   -5.6029   -0.4008    0.0000 C   0  0  0  0  0  0  0  0  0  0  0  0
   -7.0353    0.0445    0.0000 C   0  0  0  0  0  0  0  0  0  0  0  0
   -8.1372   -0.9733    0.0000 Cl  0  0  0  0  0  0  0  0  0  0  0  0
  1  2  1  0
  2  3  1  0
  3  4  2  0
  4  5  1  0
  5  6  2  0
  6  7  1  0
  7  8  1  0
  8  9  2  0
  8 10  1  0
 10 11  2  0
 11 12  1  0
 12 13  2  0
 13 14  1  0
 14 15  2  0
 14 16  1  0
 16 17  1  0
 17 18  1  0
 18 19  2  0
 18 20  1  0
 20 21  1  0
 21 22  1  0
 22 23  2  0
 23 24  1  0
 24 25  1  0
 17 26  1  0
 26 27  1  0
  6 28  1  0
 28 29  2  0
 29 30  1  0
 29  3  1  0
 15 10  1  0
 25 21  2  0
 27 13  1  0
M  END
>  <Compound_ID>  (109) 
LIB109

>  <SMILES>  (109) 
COc1ccc(NC(=O)c2ccc3c(n2)CN(C(=O)Cc2ccsc2)CC3)cc1Cl

>  <R1_reagent>  (109) 
O=C(Cl)Cc1ccsc1

>  <R1_ID>  (109) 
R-008848

>  <N_reaction>  (109) 
Amidation

>  <R2_amine>  (109) 
COc1ccc(N)cc1Cl

>  <R2_ID>  (109) 
R-003711

>  <MW>  (109) 
441.9

>  <LogP>  (109) 
4.18

>  <HBD>  (109) 
1

>  <HBA>  (109) 
5

>  <RotB>  (109) 
5

>  <ASMS_similarity>  (109) 
0.5897

>  <Priority_tier>  (109) 
Tier3_explore

>  <Scaffold>  (109) 
OC(=O)c1ccc2CCNCc2n1

$$$$

     RDKit          2D

 29 31  0  0  0  0  0  0  0  0999 V2000
   -9.0361   -2.1387    0.0000 C   0  0  0  0  0  0  0  0  0  0  0  0
   -8.5016   -0.7371    0.0000 C   0  0  0  0  0  0  0  0  0  0  0  0
   -7.9672    0.6644    0.0000 C   0  0  0  0  0  0  0  0  0  0  0  0
   -9.9032   -0.2027    0.0000 C   0  0  0  0  0  0  0  0  0  0  0  0
   -7.1001   -1.2716    0.0000 O   0  0  0  0  0  0  0  0  0  0  0  0
   -5.9365   -0.3250    0.0000 C   0  0  0  0  0  0  0  0  0  0  0  0
   -6.1744    1.1560    0.0000 O   0  0  0  0  0  0  0  0  0  0  0  0
   -4.5349   -0.8595    0.0000 C   0  0  0  0  0  0  0  0  0  0  0  0
   -3.3713    0.0871    0.0000 N   0  0  0  0  0  0  0  0  0  0  0  0
   -1.9697   -0.4474    0.0000 C   0  0  0  0  0  0  0  0  0  0  0  0
   -1.7318   -1.9284    0.0000 O   0  0  0  0  0  0  0  0  0  0  0  0
   -0.8061    0.4992    0.0000 C   0  0  0  0  0  0  0  0  0  0  0  0
   -1.0440    1.9802    0.0000 C   0  0  0  0  0  0  0  0  0  0  0  0
    0.1196    2.9267    0.0000 C   0  0  0  0  0  0  0  0  0  0  0  0
    1.5212    2.3923    0.0000 C   0  0  0  0  0  0  0  0  0  0  0  0
    1.7591    0.9112    0.0000 C   0  0  0  0  0  0  0  0  0  0  0  0
    0.5955   -0.0353    0.0000 N   0  0  0  0  0  0  0  0  0  0  0  0
    3.1607    0.3768    0.0000 C   0  0  0  0  0  0  0  0  0  0  0  0
    4.3243    1.3233    0.0000 N   0  0  0  0  0  0  0  0  0  0  0  0
    5.7258    0.7889    0.0000 C   0  0  0  0  0  0  0  0  0  0  0  0
    6.8895    1.7354    0.0000 O   0  0  0  0  0  0  0  0  0  0  0  0
    5.9638   -0.6921    0.0000 C   0  0  0  0  0  0  0  0  0  0  0  0
    4.8001   -1.6387    0.0000 C   0  0  0  0  0  0  0  0  0  0  0  0
    5.0381   -3.1197    0.0000 C   0  0  0  0  0  0  0  0  0  0  0  0
    6.4396   -3.6542    0.0000 C   0  0  0  0  0  0  0  0  0  0  0  0
    7.6032   -2.7076    0.0000 C   0  0  0  0  0  0  0  0  0  0  0  0
    7.3653   -1.2266    0.0000 C   0  0  0  0  0  0  0  0  0  0  0  0
    4.0864    2.8043    0.0000 C   0  0  0  0  0  0  0  0  0  0  0  0
    2.6848    3.3388    0.0000 C   0  0  0  0  0  0  0  0  0  0  0  0
  1  2  1  0
  2  3  1  0
  2  4  1  0
  2  5  1  0
  5  6  1  0
  6  7  2  0
  6  8  1  0
  8  9  1  0
  9 10  1  0
 10 11  2  0
 10 12  1  0
 12 13  2  0
 13 14  1  0
 14 15  2  0
 15 16  1  0
 16 17  2  0
 16 18  1  0
 18 19  1  0
 19 20  1  0
 20 21  2  0
 20 22  1  0
 22 23  2  0
 23 24  1  0
 24 25  2  0
 25 26  1  0
 26 27  2  0
 19 28  1  0
 28 29  1  0
 17 12  1  0
 27 22  1  0
 29 15  1  0
M  END
>  <Compound_ID>  (110) 
LIB110

>  <SMILES>  (110) 
CC(C)(C)OC(=O)CNC(=O)c1ccc2c(n1)CN(C(=O)c1ccccc1)CC2

>  <R1_reagent>  (110) 
O=C(Cl)c1ccccc1

>  <R1_ID>  (110) 
R-003427

>  <N_reaction>  (110) 
Amidation

>  <R2_amine>  (110) 
CC(C)(C)OC(=O)CN

>  <R2_ID>  (110) 
R-009177

>  <MW>  (110) 
395.5

>  <LogP>  (110) 
2.35

>  <HBD>  (110) 
1

>  <HBA>  (110) 
5

>  <RotB>  (110) 
4

>  <ASMS_similarity>  (110) 
0.5882

>  <Priority_tier>  (110) 
Tier3_explore

>  <Scaffold>  (110) 
OC(=O)c1ccc2CCNCc2n1

$$$$

     RDKit          2D

 30 33  0  0  0  0  0  0  0  0999 V2000
   -8.8634    3.0112    0.0000 C   0  0  0  0  0  0  0  0  0  0  0  0
   -8.3897    1.5880    0.0000 O   0  0  0  0  0  0  0  0  0  0  0  0
   -6.9203    1.2866    0.0000 C   0  0  0  0  0  0  0  0  0  0  0  0
   -5.9246    2.4085    0.0000 C   0  0  0  0  0  0  0  0  0  0  0  0
   -4.4552    2.1071    0.0000 C   0  0  0  0  0  0  0  0  0  0  0  0
   -3.9814    0.6839    0.0000 C   0  0  0  0  0  0  0  0  0  0  0  0
   -2.5120    0.3826    0.0000 N   0  0  0  0  0  0  0  0  0  0  0  0
   -2.0383   -1.0407    0.0000 C   0  0  0  0  0  0  0  0  0  0  0  0
   -3.0340   -2.1625    0.0000 O   0  0  0  0  0  0  0  0  0  0  0  0
   -0.5689   -1.3420    0.0000 C   0  0  0  0  0  0  0  0  0  0  0  0
   -0.0951   -2.7652    0.0000 C   0  0  0  0  0  0  0  0  0  0  0  0
    1.3743   -3.0666    0.0000 C   0  0  0  0  0  0  0  0  0  0  0  0
    2.3700   -1.9447    0.0000 C   0  0  0  0  0  0  0  0  0  0  0  0
    1.8962   -0.5215    0.0000 C   0  0  0  0  0  0  0  0  0  0  0  0
    0.4268   -0.2201    0.0000 N   0  0  0  0  0  0  0  0  0  0  0  0
    2.8919    0.6004    0.0000 C   0  0  0  0  0  0  0  0  0  0  0  0
    4.3613    0.2990    0.0000 N   0  0  0  0  0  0  0  0  0  0  0  0
    5.3570    1.4209    0.0000 C   0  0  0  0  0  0  0  0  0  0  0  0
    4.8833    2.8441    0.0000 O   0  0  0  0  0  0  0  0  0  0  0  0
    6.8264    1.1196    0.0000 C   0  0  0  0  0  0  0  0  0  0  0  0
    7.9339    2.1312    0.0000 C   0  0  0  0  0  0  0  0  0  0  0  0
    9.2383    1.3905    0.0000 C   0  0  0  0  0  0  0  0  0  0  0  0
    8.9370   -0.0789    0.0000 S   0  0  0  0  0  0  0  0  0  0  0  0
    7.4463   -0.2464    0.0000 C   0  0  0  0  0  0  0  0  0  0  0  0
    4.8351   -1.1242    0.0000 C   0  0  0  0  0  0  0  0  0  0  0  0
    3.8394   -2.2461    0.0000 C   0  0  0  0  0  0  0  0  0  0  0  0
   -4.9771   -0.4380    0.0000 C   0  0  0  0  0  0  0  0  0  0  0  0
   -6.4465   -0.1366    0.0000 C   0  0  0  0  0  0  0  0  0  0  0  0
   -7.4422   -1.2585    0.0000 O   0  0  0  0  0  0  0  0  0  0  0  0
   -6.9685   -2.6817    0.0000 C   0  0  0  0  0  0  0  0  0  0  0  0
  1  2  1  0
  2  3  1  0
  3  4  2  0
  4  5  1  0
  5  6  2  0
  6  7  1  0
  7  8  1  0
  8  9  2  0
  8 10  1  0
 10 11  2  0
 11 12  1  0
 12 13  2  0
 13 14  1  0
 14 15  2  0
 14 16  1  0
 16 17  1  0
 17 18  1  0
 18 19  2  0
 18 20  1  0
 20 21  1  0
 21 22  2  0
 22 23  1  0
 23 24  1  0
 17 25  1  0
 25 26  1  0
  6 27  1  0
 27 28  2  0
 28 29  1  0
 29 30  1  0
 28  3  1  0
 15 10  1  0
 24 20  2  0
 26 13  1  0
M  END
>  <Compound_ID>  (111) 
LIB111

>  <SMILES>  (111) 
COc1ccc(NC(=O)c2ccc3c(n2)CN(C(=O)c2ccsc2)CC3)cc1OC

>  <R1_reagent>  (111) 
O=C(O)c1ccsc1

>  <R1_ID>  (111) 
R-007563

>  <N_reaction>  (111) 
Amidation

>  <R2_amine>  (111) 
COc1ccc(N)cc1OC

>  <R2_ID>  (111) 
R-004458

>  <MW>  (111) 
423.5

>  <LogP>  (111) 
3.61

>  <HBD>  (111) 
1

>  <HBA>  (111) 
6

>  <RotB>  (111) 
5

>  <ASMS_similarity>  (111) 
0.5867

>  <Priority_tier>  (111) 
Tier3_explore

>  <Scaffold>  (111) 
OC(=O)c1ccc2CCNCc2n1

$$$$

     RDKit          2D

 29 31  0  0  0  0  0  0  0  0999 V2000
   -8.9222    0.5574    0.0000 C   0  0  0  0  0  0  0  0  0  0  0  0
   -9.4432   -0.8492    0.0000 C   0  0  0  0  0  0  0  0  0  0  0  0
   -9.9642   -2.2558    0.0000 C   0  0  0  0  0  0  0  0  0  0  0  0
  -10.8498   -0.3282    0.0000 O   0  0  0  0  0  0  0  0  0  0  0  0
   -8.0366   -1.3702    0.0000 C   0  0  0  0  0  0  0  0  0  0  0  0
   -6.8821   -0.4125    0.0000 C   0  0  0  0  0  0  0  0  0  0  0  0
   -5.4755   -0.9335    0.0000 C   0  0  0  0  0  0  0  0  0  0  0  0
   -4.3210    0.0241    0.0000 C   0  0  0  0  0  0  0  0  0  0  0  0
   -2.9144   -0.4969    0.0000 C   0  0  0  0  0  0  0  0  0  0  0  0
   -2.6623   -1.9755    0.0000 O   0  0  0  0  0  0  0  0  0  0  0  0
   -1.7599    0.4608    0.0000 N   0  0  0  0  0  0  0  0  0  0  0  0
   -2.0120    1.9394    0.0000 C   0  0  0  0  0  0  0  0  0  0  0  0
   -0.8575    2.8971    0.0000 C   0  0  0  0  0  0  0  0  0  0  0  0
    0.5491    2.3761    0.0000 C   0  0  0  0  0  0  0  0  0  0  0  0
    1.7037    3.3338    0.0000 C   0  0  0  0  0  0  0  0  0  0  0  0
    3.1103    2.8127    0.0000 C   0  0  0  0  0  0  0  0  0  0  0  0
    3.3624    1.3341    0.0000 C   0  0  0  0  0  0  0  0  0  0  0  0
    4.7690    0.8131    0.0000 C   0  0  0  0  0  0  0  0  0  0  0  0
    5.9235    1.7707    0.0000 O   0  0  0  0  0  0  0  0  0  0  0  0
    5.0211   -0.6656    0.0000 N   0  0  0  0  0  0  0  0  0  0  0  0
    6.4277   -1.1866    0.0000 C   0  0  0  0  0  0  0  0  0  0  0  0
    6.6798   -2.6652    0.0000 C   0  0  0  0  0  0  0  0  0  0  0  0
    8.0864   -3.1863    0.0000 C   0  0  0  0  0  0  0  0  0  0  0  0
    9.2409   -2.2286    0.0000 C   0  0  0  0  0  0  0  0  0  0  0  0
    8.9888   -0.7499    0.0000 N   0  0  0  0  0  0  0  0  0  0  0  0
    7.5822   -0.2289    0.0000 C   0  0  0  0  0  0  0  0  0  0  0  0
    2.2079    0.3764    0.0000 N   0  0  0  0  0  0  0  0  0  0  0  0
    0.8013    0.8974    0.0000 C   0  0  0  0  0  0  0  0  0  0  0  0
   -0.3533   -0.0602    0.0000 C   0  0  0  0  0  0  0  0  0  0  0  0
  1  2  1  0
  2  3  1  0
  2  4  1  0
  2  5  1  0
  5  6  1  0
  6  7  1  0
  7  8  1  0
  8  9  1  0
  9 10  2  0
  9 11  1  0
 11 12  1  0
 12 13  1  0
 13 14  1  0
 14 15  2  0
 15 16  1  0
 16 17  2  0
 17 18  1  0
 18 19  2  0
 18 20  1  0
 20 21  1  0
 21 22  2  0
 22 23  1  0
 23 24  2  0
 24 25  1  0
 25 26  2  0
 17 27  1  0
 27 28  2  0
 28 29  1  0
 29 11  1  0
 28 14  1  0
 26 21  1  0
M  END
>  <Compound_ID>  (112) 
LIB112

>  <SMILES>  (112) 
CC(C)(O)CCCCC(=O)N1CCc2ccc(C(=O)Nc3cccnc3)nc2C1

>  <R1_reagent>  (112) 
CC(C)(O)CCCCC(=O)O

>  <R1_ID>  (112) 
R-010196

>  <N_reaction>  (112) 
Amidation

>  <R2_amine>  (112) 
Nc1cccnc1

>  <R2_ID>  (112) 
R-002498

>  <MW>  (112) 
396.5

>  <LogP>  (112) 
2.94

>  <HBD>  (112) 
2

>  <HBA>  (112) 
5

>  <RotB>  (112) 
7

>  <ASMS_similarity>  (112) 
0.5867

>  <Priority_tier>  (112) 
Tier3_explore

>  <Scaffold>  (112) 
OC(=O)c1ccc2CCNCc2n1

$$$$

     RDKit          2D

 27 29  0  0  0  0  0  0  0  0999 V2000
   -7.1296    3.3712    0.0000 C   0  0  0  0  0  0  0  0  0  0  0  0
   -5.9886    2.3975    0.0000 C   0  0  0  0  0  0  0  0  0  0  0  0
   -6.1056    0.9021    0.0000 C   0  0  0  0  0  0  0  0  0  0  0  0
   -4.7196    0.3287    0.0000 C   0  0  0  0  0  0  0  0  0  0  0  0
   -4.3688   -1.1297    0.0000 C   0  0  0  0  0  0  0  0  0  0  0  0
   -5.4564   -2.1627    0.0000 O   0  0  0  0  0  0  0  0  0  0  0  0
   -2.9303   -1.5551    0.0000 N   0  0  0  0  0  0  0  0  0  0  0  0
   -2.5795   -3.0135    0.0000 C   0  0  0  0  0  0  0  0  0  0  0  0
   -1.1411   -3.4389    0.0000 C   0  0  0  0  0  0  0  0  0  0  0  0
   -0.0535   -2.4059    0.0000 C   0  0  0  0  0  0  0  0  0  0  0  0
    1.3849   -2.8313    0.0000 C   0  0  0  0  0  0  0  0  0  0  0  0
    2.4725   -1.7983    0.0000 C   0  0  0  0  0  0  0  0  0  0  0  0
    2.1217   -0.3399    0.0000 C   0  0  0  0  0  0  0  0  0  0  0  0
    3.2093    0.6931    0.0000 C   0  0  0  0  0  0  0  0  0  0  0  0
    2.8585    2.1515    0.0000 O   0  0  0  0  0  0  0  0  0  0  0  0
    4.6477    0.2677    0.0000 N   0  0  0  0  0  0  0  0  0  0  0  0
    5.7353    1.3008    0.0000 C   0  0  0  0  0  0  0  0  0  0  0  0
    7.1738    0.8754    0.0000 C   0  0  0  0  0  0  0  0  0  0  0  0
    8.6122    0.4500    0.0000 F   0  0  0  0  0  0  0  0  0  0  0  0
    7.5991    2.3138    0.0000 F   0  0  0  0  0  0  0  0  0  0  0  0
    6.7484   -0.5630    0.0000 F   0  0  0  0  0  0  0  0  0  0  0  0
    0.6833    0.0855    0.0000 N   0  0  0  0  0  0  0  0  0  0  0  0
   -0.4043   -0.9475    0.0000 C   0  0  0  0  0  0  0  0  0  0  0  0
   -1.8427   -0.5221    0.0000 C   0  0  0  0  0  0  0  0  0  0  0  0
   -3.7459    1.4697    0.0000 C   0  0  0  0  0  0  0  0  0  0  0  0
   -2.2505    1.3527    0.0000 C   0  0  0  0  0  0  0  0  0  0  0  0
   -4.5302    2.7483    0.0000 O   0  0  0  0  0  0  0  0  0  0  0  0
  1  2  1  0
  2  3  2  0
  3  4  1  0
  4  5  1  0
  5  6  2  0
  5  7  1  0
  7  8  1  0
  8  9  1  0
  9 10  1  0
 10 11  2  0
 11 12  1  0
 12 13  2  0
 13 14  1  0
 14 15  2  0
 14 16  1  0
 16 17  1  0
 17 18  1  0
 18 19  1  0
 18 20  1  0
 18 21  1  0
 13 22  1  0
 22 23  2  0
 23 24  1  0
  4 25  2  0
 25 26  1  0
 25 27  1  0
 27  2  1  0
 24  7  1  0
 23 10  1  0
M  END
>  <Compound_ID>  (113) 
LIB113

>  <SMILES>  (113) 
Cc1cc(C(=O)N2CCc3ccc(C(=O)NCC(F)(F)F)nc3C2)c(C)o1

>  <R1_reagent>  (113) 
Cc1cc(C(=O)Cl)c(C)o1

>  <R1_ID>  (113) 
R-000324

>  <N_reaction>  (113) 
Amidation

>  <R2_amine>  (113) 
NCC(F)(F)F

>  <R2_ID>  (113) 
R-000822

>  <MW>  (113) 
381.4

>  <LogP>  (113) 
2.78

>  <HBD>  (113) 
1

>  <HBA>  (113) 
4

>  <RotB>  (113) 
3

>  <ASMS_similarity>  (113) 
0.5867

>  <Priority_tier>  (113) 
Tier3_explore

>  <Scaffold>  (113) 
OC(=O)c1ccc2CCNCc2n1

$$$$

     RDKit          2D

 31 34  0  0  0  0  0  0  0  0999 V2000
   -4.6516    5.2236    0.0000 C   0  0  0  0  0  0  0  0  0  0  0  0
   -5.6786    4.1303    0.0000 O   0  0  0  0  0  0  0  0  0  0  0  0
   -5.2451    2.6942    0.0000 C   0  0  0  0  0  0  0  0  0  0  0  0
   -3.7848    2.3516    0.0000 C   0  0  0  0  0  0  0  0  0  0  0  0
   -3.3514    0.9155    0.0000 C   0  0  0  0  0  0  0  0  0  0  0  0
   -4.3783   -0.1778    0.0000 C   0  0  0  0  0  0  0  0  0  0  0  0
   -3.9449   -1.6138    0.0000 C   0  0  0  0  0  0  0  0  0  0  0  0
   -4.9719   -2.7072    0.0000 O   0  0  0  0  0  0  0  0  0  0  0  0
   -2.4846   -1.9565    0.0000 N   0  0  0  0  0  0  0  0  0  0  0  0
   -2.0512   -3.3925    0.0000 C   0  0  0  0  0  0  0  0  0  0  0  0
   -0.5908   -3.7352    0.0000 C   0  0  0  0  0  0  0  0  0  0  0  0
    0.4361   -2.6418    0.0000 C   0  0  0  0  0  0  0  0  0  0  0  0
    1.8964   -2.9845    0.0000 C   0  0  0  0  0  0  0  0  0  0  0  0
    2.9233   -1.8912    0.0000 C   0  0  0  0  0  0  0  0  0  0  0  0
    2.4899   -0.4551    0.0000 C   0  0  0  0  0  0  0  0  0  0  0  0
    3.5169    0.6382    0.0000 C   0  0  0  0  0  0  0  0  0  0  0  0
    3.0835    2.0742    0.0000 O   0  0  0  0  0  0  0  0  0  0  0  0
    4.9772    0.2955    0.0000 N   0  0  0  0  0  0  0  0  0  0  0  0
    6.0041    1.3889    0.0000 C   0  0  0  0  0  0  0  0  0  0  0  0
    7.4645    1.0462    0.0000 C   0  0  0  0  0  0  0  0  0  0  0  0
    8.6001    2.0262    0.0000 C   0  0  0  0  0  0  0  0  0  0  0  0
    9.8830    1.2491    0.0000 C   0  0  0  0  0  0  0  0  0  0  0  0
    9.5404   -0.2113    0.0000 C   0  0  0  0  0  0  0  0  0  0  0  0
    8.0456   -0.3366    0.0000 S   0  0  0  0  0  0  0  0  0  0  0  0
    1.0296   -0.1125    0.0000 N   0  0  0  0  0  0  0  0  0  0  0  0
    0.0027   -1.2058    0.0000 C   0  0  0  0  0  0  0  0  0  0  0  0
   -1.4577   -0.8632    0.0000 C   0  0  0  0  0  0  0  0  0  0  0  0
   -5.8387    0.1649    0.0000 C   0  0  0  0  0  0  0  0  0  0  0  0
   -6.8656   -0.9285    0.0000 O   0  0  0  0  0  0  0  0  0  0  0  0
   -8.3259   -0.5858    0.0000 C   0  0  0  0  0  0  0  0  0  0  0  0
   -6.2721    1.6009    0.0000 C   0  0  0  0  0  0  0  0  0  0  0  0
  1  2  1  0
  2  3  1  0
  3  4  2  0
  4  5  1  0
  5  6  2  0
  6  7  1  0
  7  8  2  0
  7  9  1  0
  9 10  1  0
 10 11  1  0
 11 12  1  0
 12 13  2  0
 13 14  1  0
 14 15  2  0
 15 16  1  0
 16 17  2  0
 16 18  1  0
 18 19  1  0
 19 20  1  0
 20 21  2  0
 21 22  1  0
 22 23  2  0
 23 24  1  0
 15 25  1  0
 25 26  2  0
 26 27  1  0
  6 28  1  0
 28 29  1  0
 29 30  1  0
 28 31  2  0
 31  3  1  0
 27  9  1  0
 26 12  1  0
 24 20  1  0
M  END
>  <Compound_ID>  (114) 
LIB114

>  <SMILES>  (114) 
COc1ccc(C(=O)N2CCc3ccc(C(=O)NCc4cccs4)nc3C2)c(OC)c1

>  <R1_reagent>  (114) 
COc1ccc(C(=O)O)c(OC)c1

>  <R1_ID>  (114) 
R-004816

>  <N_reaction>  (114) 
Amidation

>  <R2_amine>  (114) 
NCc1cccs1

>  <R2_ID>  (114) 
R-003865

>  <MW>  (114) 
437.5

>  <LogP>  (114) 
3.29

>  <HBD>  (114) 
1

>  <HBA>  (114) 
6

>  <RotB>  (114) 
6

>  <ASMS_similarity>  (114) 
0.5867

>  <Priority_tier>  (114) 
Tier3_explore

>  <Scaffold>  (114) 
OC(=O)c1ccc2CCNCc2n1

$$$$

     RDKit          2D

 33 36  0  0  0  0  0  0  0  0999 V2000
   -9.3664    0.2179    0.0000 C   0  0  0  0  0  0  0  0  0  0  0  0
   -7.9434   -0.2565    0.0000 O   0  0  0  0  0  0  0  0  0  0  0  0
   -6.8211    0.7386    0.0000 C   0  0  0  0  0  0  0  0  0  0  0  0
   -7.1217    2.2082    0.0000 C   0  0  0  0  0  0  0  0  0  0  0  0
   -5.9994    3.2034    0.0000 C   0  0  0  0  0  0  0  0  0  0  0  0
   -6.3001    4.6729    0.0000 F   0  0  0  0  0  0  0  0  0  0  0  0
   -4.5764    2.7290    0.0000 C   0  0  0  0  0  0  0  0  0  0  0  0
   -4.2757    1.2594    0.0000 C   0  0  0  0  0  0  0  0  0  0  0  0
   -5.3980    0.2642    0.0000 C   0  0  0  0  0  0  0  0  0  0  0  0
   -5.0974   -1.2053    0.0000 C   0  0  0  0  0  0  0  0  0  0  0  0
   -6.2197   -2.2005    0.0000 O   0  0  0  0  0  0  0  0  0  0  0  0
   -3.6744   -1.6797    0.0000 N   0  0  0  0  0  0  0  0  0  0  0  0
   -3.3737   -3.1493    0.0000 C   0  0  0  0  0  0  0  0  0  0  0  0
   -1.9507   -3.6236    0.0000 C   0  0  0  0  0  0  0  0  0  0  0  0
   -0.8283   -2.6285    0.0000 C   0  0  0  0  0  0  0  0  0  0  0  0
    0.5947   -3.1029    0.0000 C   0  0  0  0  0  0  0  0  0  0  0  0
    1.7170   -2.1077    0.0000 C   0  0  0  0  0  0  0  0  0  0  0  0
    1.4163   -0.6381    0.0000 C   0  0  0  0  0  0  0  0  0  0  0  0
    2.5387    0.3570    0.0000 C   0  0  0  0  0  0  0  0  0  0  0  0
    2.2380    1.8266    0.0000 O   0  0  0  0  0  0  0  0  0  0  0  0
    3.9617   -0.1174    0.0000 N   0  0  0  0  0  0  0  0  0  0  0  0
    5.0840    0.8778    0.0000 C   0  0  0  0  0  0  0  0  0  0  0  0
    6.5070    0.4034    0.0000 C   0  0  0  0  0  0  0  0  0  0  0  0
    6.8077   -1.0661    0.0000 C   0  0  0  0  0  0  0  0  0  0  0  0
    8.2307   -1.5405    0.0000 C   0  0  0  0  0  0  0  0  0  0  0  0
    9.3530   -0.5454    0.0000 C   0  0  0  0  0  0  0  0  0  0  0  0
    9.0524    0.9242    0.0000 C   0  0  0  0  0  0  0  0  0  0  0  0
   10.1747    1.9194    0.0000 C   0  0  0  0  0  0  0  0  0  0  0  0
    7.6294    1.3986    0.0000 C   0  0  0  0  0  0  0  0  0  0  0  0
    7.3287    2.8681    0.0000 C   0  0  0  0  0  0  0  0  0  0  0  0
   -0.0067   -0.1638    0.0000 N   0  0  0  0  0  0  0  0  0  0  0  0
   -1.1290   -1.1589    0.0000 C   0  0  0  0  0  0  0  0  0  0  0  0
   -2.5520   -0.6845    0.0000 C   0  0  0  0  0  0  0  0  0  0  0  0
  1  2  1  0
  2  3  1  0
  3  4  2  0
  4  5  1  0
  5  6  1  0
  5  7  2  0
  7  8  1  0
  8  9  2  0
  9 10  1  0
 10 11  2  0
 10 12  1  0
 12 13  1  0
 13 14  1  0
 14 15  1  0
 15 16  2  0
 16 17  1  0
 17 18  2  0
 18 19  1  0
 19 20  2  0
 19 21  1  0
 21 22  1  0
 22 23  1  0
 23 24  2  0
 24 25  1  0
 25 26  2  0
 26 27  1  0
 27 28  1  0
 27 29  2  0
 29 30  1  0
 18 31  1  0
 31 32  2  0
 32 33  1  0
  9  3  1  0
 33 12  1  0
 32 15  1  0
 29 23  1  0
M  END
>  <Compound_ID>  (115) 
LIB115

>  <SMILES>  (115) 
COc1cc(F)ccc1C(=O)N1CCc2ccc(C(=O)NCc3cccc(C)c3C)nc2C1

>  <R1_reagent>  (115) 
COc1cc(F)ccc1C(=O)O

>  <R1_ID>  (115) 
R-007531

>  <N_reaction>  (115) 
Amidation

>  <R2_amine>  (115) 
Cc1cccc(CN)c1C

>  <R2_ID>  (115) 
R-008908

>  <MW>  (115) 
447.5

>  <LogP>  (115) 
3.97

>  <HBD>  (115) 
1

>  <HBA>  (115) 
4

>  <RotB>  (115) 
5

>  <ASMS_similarity>  (115) 
0.5854

>  <Priority_tier>  (115) 
Tier3_explore

>  <Scaffold>  (115) 
OC(=O)c1ccc2CCNCc2n1

$$$$

     RDKit          2D

 28 31  0  0  0  0  0  0  0  0999 V2000
   -8.8211   -0.4078    0.0000 C   0  0  0  0  0  0  0  0  0  0  0  0
   -7.3222   -0.4648    0.0000 O   0  0  0  0  0  0  0  0  0  0  0  0
   -6.5234    0.8049    0.0000 C   0  0  0  0  0  0  0  0  0  0  0  0
   -7.2236    2.1314    0.0000 C   0  0  0  0  0  0  0  0  0  0  0  0
   -6.4248    3.4011    0.0000 C   0  0  0  0  0  0  0  0  0  0  0  0
   -4.9259    3.3442    0.0000 C   0  0  0  0  0  0  0  0  0  0  0  0
   -4.2258    2.0176    0.0000 C   0  0  0  0  0  0  0  0  0  0  0  0
   -5.0245    0.7479    0.0000 C   0  0  0  0  0  0  0  0  0  0  0  0
   -4.3244   -0.5786    0.0000 C   0  0  0  0  0  0  0  0  0  0  0  0
   -2.8254   -0.6355    0.0000 N   0  0  0  0  0  0  0  0  0  0  0  0
   -2.1253   -1.9621    0.0000 C   0  0  0  0  0  0  0  0  0  0  0  0
   -2.9240   -3.2317    0.0000 O   0  0  0  0  0  0  0  0  0  0  0  0
   -0.6264   -2.0190    0.0000 C   0  0  0  0  0  0  0  0  0  0  0  0
    0.0738   -3.3456    0.0000 C   0  0  0  0  0  0  0  0  0  0  0  0
    1.5727   -3.4025    0.0000 C   0  0  0  0  0  0  0  0  0  0  0  0
    2.3715   -2.1329    0.0000 C   0  0  0  0  0  0  0  0  0  0  0  0
    1.6713   -0.8063    0.0000 C   0  0  0  0  0  0  0  0  0  0  0  0
    0.1724   -0.7494    0.0000 N   0  0  0  0  0  0  0  0  0  0  0  0
    2.4701    0.4633    0.0000 C   0  0  0  0  0  0  0  0  0  0  0  0
    3.9690    0.4064    0.0000 N   0  0  0  0  0  0  0  0  0  0  0  0
    4.7678    1.6760    0.0000 C   0  0  0  0  0  0  0  0  0  0  0  0
    6.2667    1.6191    0.0000 C   0  0  0  0  0  0  0  0  0  0  0  0
    7.1938    2.7983    0.0000 C   0  0  0  0  0  0  0  0  0  0  0  0
    8.6017    2.2810    0.0000 C   0  0  0  0  0  0  0  0  0  0  0  0
    8.5448    0.7821    0.0000 S   0  0  0  0  0  0  0  0  0  0  0  0
    7.1017    0.3730    0.0000 C   0  0  0  0  0  0  0  0  0  0  0  0
    4.6692   -0.9202    0.0000 C   0  0  0  0  0  0  0  0  0  0  0  0
    3.8704   -2.1898    0.0000 C   0  0  0  0  0  0  0  0  0  0  0  0
  1  2  1  0
  2  3  1  0
  3  4  2  0
  4  5  1  0
  5  6  2  0
  6  7  1  0
  7  8  2  0
  8  9  1  0
  9 10  1  0
 10 11  1  0
 11 12  2  0
 11 13  1  0
 13 14  2  0
 14 15  1  0
 15 16  2  0
 16 17  1  0
 17 18  2  0
 17 19  1  0
 19 20  1  0
 20 21  1  0
 21 22  1  0
 22 23  1  0
 23 24  2  0
 24 25  1  0
 25 26  1  0
 20 27  1  0
 27 28  1  0
  8  3  1  0
 18 13  1  0
 26 22  2  0
 28 16  1  0
M  END
>  <Compound_ID>  (116) 
LIB116

>  <SMILES>  (116) 
COc1ccccc1CNC(=O)c1ccc2c(n1)CN(Cc1ccsc1)CC2

>  <R1_reagent>  (116) 
O=Cc1ccsc1

>  <R1_ID>  (116) 
R-000274

>  <N_reaction>  (116) 
Reductive_amination

>  <R2_amine>  (116) 
COc1ccccc1CN

>  <R2_ID>  (116) 
R-003963

>  <MW>  (116) 
393.5

>  <LogP>  (116) 
3.64

>  <HBD>  (116) 
1

>  <HBA>  (116) 
5

>  <RotB>  (116) 
6

>  <ASMS_similarity>  (116) 
0.5844

>  <Priority_tier>  (116) 
Tier3_explore

>  <Scaffold>  (116) 
OC(=O)c1ccc2CCNCc2n1

$$$$

     RDKit          2D

 28 30  0  0  0  0  0  0  0  0999 V2000
   -7.8692   -3.0829    0.0000 C   0  0  0  0  0  0  0  0  0  0  0  0
   -7.6518   -1.5987    0.0000 C   0  0  0  0  0  0  0  0  0  0  0  0
   -7.4344   -0.1145    0.0000 C   0  0  0  0  0  0  0  0  0  0  0  0
   -9.1360   -1.3813    0.0000 C   0  0  0  0  0  0  0  0  0  0  0  0
   -6.1676   -1.8161    0.0000 C   0  0  0  0  0  0  0  0  0  0  0  0
   -5.2373   -0.6395    0.0000 N   0  0  0  0  0  0  0  0  0  0  0  0
   -3.7531   -0.8569    0.0000 C   0  0  0  0  0  0  0  0  0  0  0  0
   -3.1993   -2.2509    0.0000 O   0  0  0  0  0  0  0  0  0  0  0  0
   -2.8228    0.3197    0.0000 C   0  0  0  0  0  0  0  0  0  0  0  0
   -3.3766    1.7137    0.0000 C   0  0  0  0  0  0  0  0  0  0  0  0
   -2.4462    2.8904    0.0000 C   0  0  0  0  0  0  0  0  0  0  0  0
   -0.9620    2.6729    0.0000 C   0  0  0  0  0  0  0  0  0  0  0  0
   -0.4082    1.2789    0.0000 C   0  0  0  0  0  0  0  0  0  0  0  0
   -1.3386    0.1023    0.0000 N   0  0  0  0  0  0  0  0  0  0  0  0
    1.0759    1.0615    0.0000 C   0  0  0  0  0  0  0  0  0  0  0  0
    2.0063    2.2381    0.0000 N   0  0  0  0  0  0  0  0  0  0  0  0
    3.4905    2.0207    0.0000 C   0  0  0  0  0  0  0  0  0  0  0  0
    4.4208    3.1973    0.0000 O   0  0  0  0  0  0  0  0  0  0  0  0
    4.0443    0.6267    0.0000 C   0  0  0  0  0  0  0  0  0  0  0  0
    5.5284    0.4093    0.0000 C   0  0  0  0  0  0  0  0  0  0  0  0
    6.0822   -0.9847    0.0000 C   0  0  0  0  0  0  0  0  0  0  0  0
    5.1518   -2.1614    0.0000 C   0  0  0  0  0  0  0  0  0  0  0  0
    5.7056   -3.5554    0.0000 C   0  0  0  0  0  0  0  0  0  0  0  0
    7.1898   -3.7728    0.0000 C   0  0  0  0  0  0  0  0  0  0  0  0
    8.1202   -2.5962    0.0000 C   0  0  0  0  0  0  0  0  0  0  0  0
    7.5664   -1.2021    0.0000 C   0  0  0  0  0  0  0  0  0  0  0  0
    1.4525    3.6322    0.0000 C   0  0  0  0  0  0  0  0  0  0  0  0
   -0.0317    3.8496    0.0000 C   0  0  0  0  0  0  0  0  0  0  0  0
  1  2  1  0
  2  3  1  0
  2  4  1  0
  2  5  1  0
  5  6  1  0
  6  7  1  0
  7  8  2  0
  7  9  1  0
  9 10  2  0
 10 11  1  0
 11 12  2  0
 12 13  1  0
 13 14  2  0
 13 15  1  0
 15 16  1  0
 16 17  1  0
 17 18  2  0
 17 19  1  0
 19 20  1  0
 20 21  1  0
 21 22  2  0
 22 23  1  0
 23 24  2  0
 24 25  1  0
 25 26  2  0
 16 27  1  0
 27 28  1  0
 14  9  1  0
 26 21  1  0
 28 12  1  0
M  END
>  <Compound_ID>  (117) 
LIB117

>  <SMILES>  (117) 
CC(C)(C)CNC(=O)c1ccc2c(n1)CN(C(=O)CCc1ccccc1)CC2

>  <R1_reagent>  (117) 
O=C(Cl)CCc1ccccc1

>  <R1_ID>  (117) 
R-004770

>  <N_reaction>  (117) 
Amidation

>  <R2_amine>  (117) 
CC(C)(C)CN

>  <R2_ID>  (117) 
R-003311

>  <MW>  (117) 
379.5

>  <LogP>  (117) 
3.38

>  <HBD>  (117) 
1

>  <HBA>  (117) 
3

>  <RotB>  (117) 
5

>  <ASMS_similarity>  (117) 
0.5833

>  <Priority_tier>  (117) 
Tier3_explore

>  <Scaffold>  (117) 
OC(=O)c1ccc2CCNCc2n1

$$$$

     RDKit          2D

 27 30  0  0  0  0  0  0  0  0999 V2000
   -9.6384   -2.0241    0.0000 C   0  0  0  0  0  0  0  0  0  0  0  0
   -8.1609   -2.2829    0.0000 C   0  0  0  0  0  0  0  0  0  0  0  0
   -7.1980   -1.1327    0.0000 C   0  0  0  0  0  0  0  0  0  0  0  0
   -5.7205   -1.3915    0.0000 C   0  0  0  0  0  0  0  0  0  0  0  0
   -5.2059   -2.8004    0.0000 O   0  0  0  0  0  0  0  0  0  0  0  0
   -4.7577   -0.2413    0.0000 N   0  0  0  0  0  0  0  0  0  0  0  0
   -5.2723    1.1677    0.0000 C   0  0  0  0  0  0  0  0  0  0  0  0
   -4.3095    2.3178    0.0000 C   0  0  0  0  0  0  0  0  0  0  0  0
   -2.8319    2.0590    0.0000 C   0  0  0  0  0  0  0  0  0  0  0  0
   -1.8691    3.2092    0.0000 C   0  0  0  0  0  0  0  0  0  0  0  0
   -0.3916    2.9504    0.0000 C   0  0  0  0  0  0  0  0  0  0  0  0
    0.1231    1.5415    0.0000 C   0  0  0  0  0  0  0  0  0  0  0  0
    1.6006    1.2827    0.0000 C   0  0  0  0  0  0  0  0  0  0  0  0
    2.5634    2.4329    0.0000 O   0  0  0  0  0  0  0  0  0  0  0  0
    2.1152   -0.1263    0.0000 N   0  0  0  0  0  0  0  0  0  0  0  0
    3.5927   -0.3850    0.0000 C   0  0  0  0  0  0  0  0  0  0  0  0
    4.2518   -1.7325    0.0000 C   0  0  0  0  0  0  0  0  0  0  0  0
    5.7370   -1.5220    0.0000 C   0  0  0  0  0  0  0  0  0  0  0  0
    6.8872   -2.4849    0.0000 C   0  0  0  0  0  0  0  0  0  0  0  0
    8.2961   -1.9702    0.0000 C   0  0  0  0  0  0  0  0  0  0  0  0
    8.5549   -0.4927    0.0000 C   0  0  0  0  0  0  0  0  0  0  0  0
    7.4047    0.4701    0.0000 C   0  0  0  0  0  0  0  0  0  0  0  0
    5.9958   -0.0445    0.0000 C   0  0  0  0  0  0  0  0  0  0  0  0
    4.6706    0.6582    0.0000 C   0  0  0  0  0  0  0  0  0  0  0  0
   -0.8398    0.3913    0.0000 N   0  0  0  0  0  0  0  0  0  0  0  0
   -2.3173    0.6501    0.0000 C   0  0  0  0  0  0  0  0  0  0  0  0
   -3.2802   -0.5001    0.0000 C   0  0  0  0  0  0  0  0  0  0  0  0
  1  2  1  0
  2  3  1  0
  3  4  1  0
  4  5  2  0
  4  6  1  0
  6  7  1  0
  7  8  1  0
  8  9  1  0
  9 10  2  0
 10 11  1  0
 11 12  2  0
 12 13  1  0
 13 14  2  0
 13 15  1  0
 15 16  1  0
 16 17  1  0
 17 18  1  0
 18 19  2  0
 19 20  1  0
 20 21  2  0
 21 22  1  0
 22 23  2  0
 23 24  1  0
 12 25  1  0
 25 26  2  0
 26 27  1  0
 27  6  1  0
 26  9  1  0
 24 16  1  0
 23 18  1  0
M  END
>  <Compound_ID>  (118) 
LIB118

>  <SMILES>  (118) 
CCCC(=O)N1CCc2ccc(C(=O)NC3Cc4ccccc4C3)nc2C1

>  <R1_reagent>  (118) 
CCCC(=O)Cl

>  <R1_ID>  (118) 
R-002726

>  <N_reaction>  (118) 
Amidation

>  <R2_amine>  (118) 
Cl.NC1Cc2ccccc2C1

>  <R2_ID>  (118) 
R-003103

>  <MW>  (118) 
363.5

>  <LogP>  (118) 
2.66

>  <HBD>  (118) 
1

>  <HBA>  (118) 
3

>  <RotB>  (118) 
4

>  <ASMS_similarity>  (118) 
0.5833

>  <Priority_tier>  (118) 
Tier3_explore

>  <Scaffold>  (118) 
OC(=O)c1ccc2CCNCc2n1

$$$$

     RDKit          2D

 27 29  0  0  0  0  0  0  0  0999 V2000
   -5.6031    4.6958    0.0000 C   0  0  0  0  0  0  0  0  0  0  0  0
   -5.3207    3.2226    0.0000 C   0  0  0  0  0  0  0  0  0  0  0  0
   -3.9036    2.7306    0.0000 C   0  0  0  0  0  0  0  0  0  0  0  0
   -3.6212    1.2574    0.0000 C   0  0  0  0  0  0  0  0  0  0  0  0
   -4.7559    0.2762    0.0000 C   0  0  0  0  0  0  0  0  0  0  0  0
   -4.4735   -1.1969    0.0000 C   0  0  0  0  0  0  0  0  0  0  0  0
   -5.6081   -2.1781    0.0000 O   0  0  0  0  0  0  0  0  0  0  0  0
   -3.0564   -1.6890    0.0000 N   0  0  0  0  0  0  0  0  0  0  0  0
   -2.7740   -3.1621    0.0000 C   0  0  0  0  0  0  0  0  0  0  0  0
   -1.3570   -3.6542    0.0000 C   0  0  0  0  0  0  0  0  0  0  0  0
   -0.2224   -2.6730    0.0000 C   0  0  0  0  0  0  0  0  0  0  0  0
    1.1946   -3.1650    0.0000 C   0  0  0  0  0  0  0  0  0  0  0  0
    2.3292   -2.1839    0.0000 C   0  0  0  0  0  0  0  0  0  0  0  0
    2.0468   -0.7107    0.0000 C   0  0  0  0  0  0  0  0  0  0  0  0
    3.1814    0.2705    0.0000 C   0  0  0  0  0  0  0  0  0  0  0  0
    2.8990    1.7436    0.0000 O   0  0  0  0  0  0  0  0  0  0  0  0
    4.5984   -0.2216    0.0000 N   0  0  0  0  0  0  0  0  0  0  0  0
    5.7330    0.7596    0.0000 C   0  0  0  0  0  0  0  0  0  0  0  0
    7.1500    0.2676    0.0000 C   0  0  0  0  0  0  0  0  0  0  0  0
    8.2846    1.2487    0.0000 C   0  0  0  0  0  0  0  0  0  0  0  0
    9.7016    0.7567    0.0000 C   0  0  0  0  0  0  0  0  0  0  0  0
    8.0022    2.7219    0.0000 C   0  0  0  0  0  0  0  0  0  0  0  0
    0.6298   -0.2187    0.0000 N   0  0  0  0  0  0  0  0  0  0  0  0
   -0.5048   -1.1998    0.0000 C   0  0  0  0  0  0  0  0  0  0  0  0
   -1.9218   -0.7078    0.0000 C   0  0  0  0  0  0  0  0  0  0  0  0
   -6.1729    0.7683    0.0000 C   0  0  0  0  0  0  0  0  0  0  0  0
   -6.4553    2.2414    0.0000 N   0  0  0  0  0  0  0  0  0  0  0  0
  1  2  1  0
  2  3  2  0
  3  4  1  0
  4  5  2  0
  5  6  1  0
  6  7  2  0
  6  8  1  0
  8  9  1  0
  9 10  1  0
 10 11  1  0
 11 12  2  0
 12 13  1  0
 13 14  2  0
 14 15  1  0
 15 16  2  0
 15 17  1  0
 17 18  1  0
 18 19  1  0
 19 20  1  0
 20 21  1  0
 20 22  1  0
 14 23  1  0
 23 24  2  0
 24 25  1  0
  5 26  1  0
 26 27  2  0
 27  2  1  0
 25  8  1  0
 24 11  1  0
M  END
>  <Compound_ID>  (119) 
LIB119

>  <SMILES>  (119) 
Cc1ccc(C(=O)N2CCc3ccc(C(=O)NCCC(C)C)nc3C2)cn1

>  <R1_reagent>  (119) 
Cc1ccc(C(=O)O)cn1

>  <R1_ID>  (119) 
R-005046

>  <N_reaction>  (119) 
Amidation

>  <R2_amine>  (119) 
CC(C)CCN

>  <R2_ID>  (119) 
R-003079

>  <MW>  (119) 
366.5

>  <LogP>  (119) 
2.76

>  <HBD>  (119) 
1

>  <HBA>  (119) 
4

>  <RotB>  (119) 
5

>  <ASMS_similarity>  (119) 
0.5821

>  <Priority_tier>  (119) 
Tier3_explore

>  <Scaffold>  (119) 
OC(=O)c1ccc2CCNCc2n1

$$$$

     RDKit          2D

 31 35  0  0  0  0  0  0  0  0999 V2000
   -3.7464   -2.4511    0.0000 O   0  0  0  0  0  0  0  0  0  0  0  0
   -2.7546   -1.3258    0.0000 C   0  0  0  0  0  0  0  0  0  0  0  0
   -3.2333    0.0958    0.0000 N   0  0  0  0  0  0  0  0  0  0  0  0
   -4.7037    0.3921    0.0000 C   0  0  0  0  0  0  0  0  0  0  0  0
   -5.3283    1.7558    0.0000 C   0  0  0  0  0  0  0  0  0  0  0  0
   -6.8183    1.5832    0.0000 C   0  0  0  0  0  0  0  0  0  0  0  0
   -7.9436    2.5751    0.0000 C   0  0  0  0  0  0  0  0  0  0  0  0
   -9.3652    2.0964    0.0000 C   0  0  0  0  0  0  0  0  0  0  0  0
   -9.6615    0.6260    0.0000 C   0  0  0  0  0  0  0  0  0  0  0  0
   -8.5362   -0.3658    0.0000 C   0  0  0  0  0  0  0  0  0  0  0  0
   -7.1146    0.1128    0.0000 C   0  0  0  0  0  0  0  0  0  0  0  0
   -5.8077   -0.6234    0.0000 C   0  0  0  0  0  0  0  0  0  0  0  0
   -1.2842   -1.6221    0.0000 C   0  0  0  0  0  0  0  0  0  0  0  0
   -0.8056   -3.0437    0.0000 C   0  0  0  0  0  0  0  0  0  0  0  0
    0.6649   -3.3400    0.0000 C   0  0  0  0  0  0  0  0  0  0  0  0
    1.6567   -2.2147    0.0000 C   0  0  0  0  0  0  0  0  0  0  0  0
    1.1781   -0.7931    0.0000 C   0  0  0  0  0  0  0  0  0  0  0  0
   -0.2924   -0.4968    0.0000 N   0  0  0  0  0  0  0  0  0  0  0  0
    2.1699    0.3322    0.0000 C   0  0  0  0  0  0  0  0  0  0  0  0
    3.6403    0.0359    0.0000 N   0  0  0  0  0  0  0  0  0  0  0  0
    4.6322    1.1612    0.0000 C   0  0  0  0  0  0  0  0  0  0  0  0
    4.1535    2.5828    0.0000 O   0  0  0  0  0  0  0  0  0  0  0  0
    6.1026    0.8649    0.0000 C   0  0  0  0  0  0  0  0  0  0  0  0
    6.5812   -0.5567    0.0000 C   0  0  0  0  0  0  0  0  0  0  0  0
    8.0517   -0.8529    0.0000 C   0  0  0  0  0  0  0  0  0  0  0  0
    9.0435    0.2724    0.0000 C   0  0  0  0  0  0  0  0  0  0  0  0
    8.5649    1.6939    0.0000 C   0  0  0  0  0  0  0  0  0  0  0  0
    7.0944    1.9902    0.0000 C   0  0  0  0  0  0  0  0  0  0  0  0
    6.6158    3.4118    0.0000 Cl  0  0  0  0  0  0  0  0  0  0  0  0
    4.1190   -1.3857    0.0000 C   0  0  0  0  0  0  0  0  0  0  0  0
    3.1272   -2.5110    0.0000 C   0  0  0  0  0  0  0  0  0  0  0  0
  1  2  2  0
  2  3  1  0
  3  4  1  0
  4  5  1  0
  5  6  1  0
  6  7  2  0
  7  8  1  0
  8  9  2  0
  9 10  1  0
 10 11  2  0
 11 12  1  0
  2 13  1  0
 13 14  2  0
 14 15  1  0
 15 16  2  0
 16 17  1  0
 17 18  2  0
 17 19  1  0
 19 20  1  0
 20 21  1  0
 21 22  2  0
 21 23  1  0
 23 24  2  0
 24 25  1  0
 25 26  2  0
 26 27  1  0
 27 28  2  0
 28 29  1  0
 20 30  1  0
 30 31  1  0
 12  4  1  0
 18 13  1  0
 28 23  1  0
 11  6  1  0
 31 16  1  0
M  END
>  <Compound_ID>  (120) 
LIB120

>  <SMILES>  (120) 
O=C(NC1Cc2ccccc2C1)c1ccc2c(n1)CN(C(=O)c1ccccc1Cl)CC2

>  <R1_reagent>  (120) 
O=C(Cl)c1ccccc1Cl

>  <R1_ID>  (120) 
R-003553

>  <N_reaction>  (120) 
Amidation

>  <R2_amine>  (120) 
Cl.NC1Cc2ccccc2C1

>  <R2_ID>  (120) 
R-003103

>  <MW>  (120) 
431.9

>  <LogP>  (120) 
3.83

>  <HBD>  (120) 
1

>  <HBA>  (120) 
3

>  <RotB>  (120) 
3

>  <ASMS_similarity>  (120) 
0.5821

>  <Priority_tier>  (120) 
Tier3_explore

>  <Scaffold>  (120) 
OC(=O)c1ccc2CCNCc2n1

$$$$

     RDKit          2D

 29 32  0  0  0  0  0  0  0  0999 V2000
   -8.6787    0.3592    0.0000 C   0  0  0  0  0  0  0  0  0  0  0  0
   -7.2467   -0.0872    0.0000 O   0  0  0  0  0  0  0  0  0  0  0  0
   -6.1441    0.9298    0.0000 C   0  0  0  0  0  0  0  0  0  0  0  0
   -6.4735    2.3932    0.0000 N   0  0  0  0  0  0  0  0  0  0  0  0
   -5.3709    3.4102    0.0000 C   0  0  0  0  0  0  0  0  0  0  0  0
   -3.9389    2.9638    0.0000 C   0  0  0  0  0  0  0  0  0  0  0  0
   -3.6094    1.5004    0.0000 C   0  0  0  0  0  0  0  0  0  0  0  0
   -4.7120    0.4834    0.0000 C   0  0  0  0  0  0  0  0  0  0  0  0
   -4.3826   -0.9799    0.0000 C   0  0  0  0  0  0  0  0  0  0  0  0
   -5.4852   -1.9969    0.0000 O   0  0  0  0  0  0  0  0  0  0  0  0
   -2.9505   -1.4263    0.0000 N   0  0  0  0  0  0  0  0  0  0  0  0
   -2.6211   -2.8897    0.0000 C   0  0  0  0  0  0  0  0  0  0  0  0
   -1.1890   -3.3361    0.0000 C   0  0  0  0  0  0  0  0  0  0  0  0
   -0.0864   -2.3191    0.0000 C   0  0  0  0  0  0  0  0  0  0  0  0
    1.3456   -2.7654    0.0000 C   0  0  0  0  0  0  0  0  0  0  0  0
    2.4482   -1.7484    0.0000 C   0  0  0  0  0  0  0  0  0  0  0  0
    2.1187   -0.2851    0.0000 C   0  0  0  0  0  0  0  0  0  0  0  0
    3.2213    0.7319    0.0000 C   0  0  0  0  0  0  0  0  0  0  0  0
    2.8919    2.1953    0.0000 O   0  0  0  0  0  0  0  0  0  0  0  0
    4.6534    0.2856    0.0000 N   0  0  0  0  0  0  0  0  0  0  0  0
    5.7560    1.3026    0.0000 C   0  0  0  0  0  0  0  0  0  0  0  0
    7.1880    0.8562    0.0000 C   0  0  0  0  0  0  0  0  0  0  0  0
    8.3909    1.7524    0.0000 C   0  0  0  0  0  0  0  0  0  0  0  0
    9.6149    0.8853    0.0000 C   0  0  0  0  0  0  0  0  0  0  0  0
    9.1685   -0.5467    0.0000 C   0  0  0  0  0  0  0  0  0  0  0  0
    7.6686   -0.5647    0.0000 S   0  0  0  0  0  0  0  0  0  0  0  0
    0.6867    0.1613    0.0000 N   0  0  0  0  0  0  0  0  0  0  0  0
   -0.4159   -0.8557    0.0000 C   0  0  0  0  0  0  0  0  0  0  0  0
   -1.8479   -0.4093    0.0000 C   0  0  0  0  0  0  0  0  0  0  0  0
  1  2  1  0
  2  3  1  0
  3  4  2  0
  4  5  1  0
  5  6  2  0
  6  7  1  0
  7  8  2  0
  8  9  1  0
  9 10  2  0
  9 11  1  0
 11 12  1  0
 12 13  1  0
 13 14  1  0
 14 15  2  0
 15 16  1  0
 16 17  2  0
 17 18  1  0
 18 19  2  0
 18 20  1  0
 20 21  1  0
 21 22  1  0
 22 23  2  0
 23 24  1  0
 24 25  2  0
 25 26  1  0
 17 27  1  0
 27 28  2  0
 28 29  1  0
  8  3  1  0
 29 11  1  0
 28 14  1  0
 26 22  1  0
M  END
>  <Compound_ID>  (121) 
LIB121

>  <SMILES>  (121) 
COc1ncccc1C(=O)N1CCc2ccc(C(=O)NCc3cccs3)nc2C1

>  <R1_reagent>  (121) 
COc1ncccc1C(=O)O

>  <R1_ID>  (121) 
R-005184

>  <N_reaction>  (121) 
Amidation

>  <R2_amine>  (121) 
NCc1cccs1

>  <R2_ID>  (121) 
R-003865

>  <MW>  (121) 
408.5

>  <LogP>  (121) 
2.68

>  <HBD>  (121) 
1

>  <HBA>  (121) 
6

>  <RotB>  (121) 
5

>  <ASMS_similarity>  (121) 
0.5811

>  <Priority_tier>  (121) 
Tier3_explore

>  <Scaffold>  (121) 
OC(=O)c1ccc2CCNCc2n1

$$$$

     RDKit          2D

 30 34  0  0  0  0  0  0  0  0999 V2000
   -3.5126   -2.4250    0.0000 O   0  0  0  0  0  0  0  0  0  0  0  0
   -2.5523   -1.2727    0.0000 C   0  0  0  0  0  0  0  0  0  0  0  0
   -3.0702    0.1351    0.0000 N   0  0  0  0  0  0  0  0  0  0  0  0
   -4.5482    0.3905    0.0000 C   0  0  0  0  0  0  0  0  0  0  0  0
   -5.2104    1.7365    0.0000 C   0  0  0  0  0  0  0  0  0  0  0  0
   -6.6951    1.5227    0.0000 C   0  0  0  0  0  0  0  0  0  0  0  0
   -7.8474    2.4829    0.0000 C   0  0  0  0  0  0  0  0  0  0  0  0
   -9.2552    1.9651    0.0000 C   0  0  0  0  0  0  0  0  0  0  0  0
   -9.5106    0.4870    0.0000 C   0  0  0  0  0  0  0  0  0  0  0  0
   -8.3583   -0.4733    0.0000 C   0  0  0  0  0  0  0  0  0  0  0  0
   -6.9505    0.0446    0.0000 C   0  0  0  0  0  0  0  0  0  0  0  0
   -5.6237   -0.6551    0.0000 C   0  0  0  0  0  0  0  0  0  0  0  0
   -1.0742   -1.5281    0.0000 C   0  0  0  0  0  0  0  0  0  0  0  0
   -0.5564   -2.9359    0.0000 C   0  0  0  0  0  0  0  0  0  0  0  0
    0.9217   -3.1914    0.0000 C   0  0  0  0  0  0  0  0  0  0  0  0
    1.8819   -2.0390    0.0000 C   0  0  0  0  0  0  0  0  0  0  0  0
    1.3641   -0.6312    0.0000 C   0  0  0  0  0  0  0  0  0  0  0  0
   -0.1140   -0.3758    0.0000 N   0  0  0  0  0  0  0  0  0  0  0  0
    2.3244    0.5211    0.0000 C   0  0  0  0  0  0  0  0  0  0  0  0
    3.8025    0.2657    0.0000 N   0  0  0  0  0  0  0  0  0  0  0  0
    4.7627    1.4180    0.0000 C   0  0  0  0  0  0  0  0  0  0  0  0
    4.2449    2.8258    0.0000 O   0  0  0  0  0  0  0  0  0  0  0  0
    6.2408    1.1626    0.0000 C   0  0  0  0  0  0  0  0  0  0  0  0
    7.1054   -0.0632    0.0000 C   0  0  0  0  0  0  0  0  0  0  0  0
    8.3312    0.8013    0.0000 C   0  0  0  0  0  0  0  0  0  0  0  0
    9.5569    1.6659    0.0000 F   0  0  0  0  0  0  0  0  0  0  0  0
    9.1957   -0.4245    0.0000 F   0  0  0  0  0  0  0  0  0  0  0  0
    7.4666    2.0271    0.0000 C   0  0  0  0  0  0  0  0  0  0  0  0
    4.3203   -1.1421    0.0000 C   0  0  0  0  0  0  0  0  0  0  0  0
    3.3600   -2.2945    0.0000 C   0  0  0  0  0  0  0  0  0  0  0  0
  1  2  2  0
  2  3  1  0
  3  4  1  0
  4  5  1  0
  5  6  1  0
  6  7  2  0
  7  8  1  0
  8  9  2  0
  9 10  1  0
 10 11  2  0
 11 12  1  0
  2 13  1  0
 13 14  2  0
 14 15  1  0
 15 16  2  0
 16 17  1  0
 17 18  2  0
 17 19  1  0
 19 20  1  0
 20 21  1  0
 21 22  2  0
 21 23  1  0
 23 24  1  0
 24 25  1  0
 25 26  1  0
 25 27  1  0
 25 28  1  0
 20 29  1  0
 29 30  1  0
 12  4  1  0
 18 13  1  0
 28 23  1  0
 11  6  1  0
 30 16  1  0
M  END
>  <Compound_ID>  (122) 
LIB122

>  <SMILES>  (122) 
O=C(NC1Cc2ccccc2C1)c1ccc2c(n1)CN(C(=O)C1CC(F)(F)C1)CC2

>  <R1_reagent>  (122) 
O=C(O)C1CC(F)(F)C1

>  <R1_ID>  (122) 
R-011949

>  <N_reaction>  (122) 
Amidation

>  <R2_amine>  (122) 
Cl.NC1Cc2ccccc2C1

>  <R2_ID>  (122) 
R-003103

>  <MW>  (122) 
411.5

>  <LogP>  (122) 
2.91

>  <HBD>  (122) 
1

>  <HBA>  (122) 
3

>  <RotB>  (122) 
3

>  <ASMS_similarity>  (122) 
0.5797

>  <Priority_tier>  (122) 
Tier3_explore

>  <Scaffold>  (122) 
OC(=O)c1ccc2CCNCc2n1

$$$$

     RDKit          2D

 30 33  0  0  0  0  0  0  0  0999 V2000
   -7.6452    4.1845    0.0000 C   0  0  0  0  0  0  0  0  0  0  0  0
   -6.6817    3.0348    0.0000 C   0  0  0  0  0  0  0  0  0  0  0  0
   -7.0456    1.5796    0.0000 C   0  0  0  0  0  0  0  0  0  0  0  0
   -5.7740    0.7839    0.0000 C   0  0  0  0  0  0  0  0  0  0  0  0
   -5.6704   -0.7125    0.0000 C   0  0  0  0  0  0  0  0  0  0  0  0
   -6.9145   -1.5505    0.0000 O   0  0  0  0  0  0  0  0  0  0  0  0
   -4.3226   -1.3709    0.0000 N   0  0  0  0  0  0  0  0  0  0  0  0
   -4.2190   -2.8674    0.0000 C   0  0  0  0  0  0  0  0  0  0  0  0
   -2.8712   -3.5258    0.0000 C   0  0  0  0  0  0  0  0  0  0  0  0
   -1.6271   -2.6878    0.0000 C   0  0  0  0  0  0  0  0  0  0  0  0
   -0.2794   -3.3463    0.0000 C   0  0  0  0  0  0  0  0  0  0  0  0
    0.9647   -2.5083    0.0000 C   0  0  0  0  0  0  0  0  0  0  0  0
    0.8611   -1.0119    0.0000 C   0  0  0  0  0  0  0  0  0  0  0  0
    2.1052   -0.1739    0.0000 C   0  0  0  0  0  0  0  0  0  0  0  0
    2.0016    1.3225    0.0000 O   0  0  0  0  0  0  0  0  0  0  0  0
    3.4530   -0.8324    0.0000 N   0  0  0  0  0  0  0  0  0  0  0  0
    4.6971    0.0056    0.0000 C   0  0  0  0  0  0  0  0  0  0  0  0
    6.0448   -0.6529    0.0000 C   0  0  0  0  0  0  0  0  0  0  0  0
    7.2889    0.1851    0.0000 N   0  0  0  0  0  0  0  0  0  0  0  0
    8.6367   -0.4734    0.0000 C   0  0  0  0  0  0  0  0  0  0  0  0
    9.8808    0.3646    0.0000 C   0  0  0  0  0  0  0  0  0  0  0  0
    9.7772    1.8610    0.0000 C   0  0  0  0  0  0  0  0  0  0  0  0
    8.4294    2.5195    0.0000 C   0  0  0  0  0  0  0  0  0  0  0  0
    7.1853    1.6815    0.0000 C   0  0  0  0  0  0  0  0  0  0  0  0
   -0.4867   -0.3535    0.0000 N   0  0  0  0  0  0  0  0  0  0  0  0
   -1.7308   -1.1914    0.0000 C   0  0  0  0  0  0  0  0  0  0  0  0
   -3.0785   -0.5330    0.0000 C   0  0  0  0  0  0  0  0  0  0  0  0
   -4.6243    1.7473    0.0000 C   0  0  0  0  0  0  0  0  0  0  0  0
   -3.1691    1.3835    0.0000 C   0  0  0  0  0  0  0  0  0  0  0  0
   -5.1853    3.1385    0.0000 O   0  0  0  0  0  0  0  0  0  0  0  0
  1  2  1  0
  2  3  2  0
  3  4  1  0
  4  5  1  0
  5  6  2  0
  5  7  1  0
  7  8  1  0
  8  9  1  0
  9 10  1  0
 10 11  2  0
 11 12  1  0
 12 13  2  0
 13 14  1  0
 14 15  2  0
 14 16  1  0
 16 17  1  0
 17 18  1  0
 18 19  1  0
 19 20  1  0
 20 21  1  0
 21 22  1  0
 22 23  1  0
 23 24  1  0
 13 25  1  0
 25 26  2  0
 26 27  1  0
  4 28  2  0
 28 29  1  0
 28 30  1  0
 30  2  1  0
 27  7  1  0
 26 10  1  0
 24 19  1  0
M  END
>  <Compound_ID>  (123) 
LIB123

>  <SMILES>  (123) 
Cc1cc(C(=O)N2CCc3ccc(C(=O)NCCN4CCCCC4)nc3C2)c(C)o1

>  <R1_reagent>  (123) 
Cc1cc(C(=O)Cl)c(C)o1

>  <R1_ID>  (123) 
R-000324

>  <N_reaction>  (123) 
Amidation

>  <R2_amine>  (123) 
NCCN1CCCCC1

>  <R2_ID>  (123) 
R-003507

>  <MW>  (123) 
410.5

>  <LogP>  (123) 
2.71

>  <HBD>  (123) 
1

>  <HBA>  (123) 
5

>  <RotB>  (123) 
5

>  <ASMS_similarity>  (123) 
0.5789

>  <Priority_tier>  (123) 
Tier3_explore

>  <Scaffold>  (123) 
OC(=O)c1ccc2CCNCc2n1

$$$$

     RDKit          2D

 28 29  0  0  0  0  0  0  0  0999 V2000
   -8.0382   -3.2868    0.0000 C   0  0  0  0  0  0  0  0  0  0  0  0
   -7.8563   -1.7979    0.0000 C   0  0  0  0  0  0  0  0  0  0  0  0
   -7.6744   -0.3090    0.0000 C   0  0  0  0  0  0  0  0  0  0  0  0
   -9.3453   -1.6160    0.0000 C   0  0  0  0  0  0  0  0  0  0  0  0
   -6.3674   -1.9798    0.0000 C   0  0  0  0  0  0  0  0  0  0  0  0
   -5.4654   -0.7813    0.0000 N   0  0  0  0  0  0  0  0  0  0  0  0
   -3.9765   -0.9631    0.0000 C   0  0  0  0  0  0  0  0  0  0  0  0
   -3.3895   -2.3435    0.0000 O   0  0  0  0  0  0  0  0  0  0  0  0
   -3.0745    0.2354    0.0000 C   0  0  0  0  0  0  0  0  0  0  0  0
   -3.6615    1.6158    0.0000 C   0  0  0  0  0  0  0  0  0  0  0  0
   -2.7595    2.8143    0.0000 C   0  0  0  0  0  0  0  0  0  0  0  0
   -1.2705    2.6324    0.0000 C   0  0  0  0  0  0  0  0  0  0  0  0
   -0.6836    1.2520    0.0000 C   0  0  0  0  0  0  0  0  0  0  0  0
   -1.5856    0.0535    0.0000 N   0  0  0  0  0  0  0  0  0  0  0  0
    0.8053    1.0701    0.0000 C   0  0  0  0  0  0  0  0  0  0  0  0
    1.7073    2.2686    0.0000 N   0  0  0  0  0  0  0  0  0  0  0  0
    3.1963    2.0867    0.0000 C   0  0  0  0  0  0  0  0  0  0  0  0
    4.0982    3.2852    0.0000 O   0  0  0  0  0  0  0  0  0  0  0  0
    3.7832    0.7063    0.0000 C   0  0  0  0  0  0  0  0  0  0  0  0
    5.2721    0.5244    0.0000 C   0  0  0  0  0  0  0  0  0  0  0  0
    5.8591   -0.8560    0.0000 C   0  0  0  0  0  0  0  0  0  0  0  0
    7.3480   -1.0378    0.0000 C   0  0  0  0  0  0  0  0  0  0  0  0
    7.9350   -2.4182    0.0000 C   0  0  0  0  0  0  0  0  0  0  0  0
    6.5546   -3.0052    0.0000 C   0  0  0  0  0  0  0  0  0  0  0  0
    9.3154   -1.8313    0.0000 C   0  0  0  0  0  0  0  0  0  0  0  0
    8.5219   -3.7986    0.0000 O   0  0  0  0  0  0  0  0  0  0  0  0
    1.1204    3.6490    0.0000 C   0  0  0  0  0  0  0  0  0  0  0  0
   -0.3686    3.8309    0.0000 C   0  0  0  0  0  0  0  0  0  0  0  0
  1  2  1  0
  2  3  1  0
  2  4  1  0
  2  5  1  0
  5  6  1  0
  6  7  1  0
  7  8  2  0
  7  9  1  0
  9 10  2  0
 10 11  1  0
 11 12  2  0
 12 13  1  0
 13 14  2  0
 13 15  1  0
 15 16  1  0
 16 17  1  0
 17 18  2  0
 17 19  1  0
 19 20  1  0
 20 21  1  0
 21 22  1  0
 22 23  1  0
 23 24  1  0
 23 25  1  0
 23 26  1  0
 16 27  1  0
 27 28  1  0
 14  9  1  0
 28 12  1  0
M  END
>  <Compound_ID>  (124) 
LIB124

>  <SMILES>  (124) 
CC(C)(C)CNC(=O)c1ccc2c(n1)CN(C(=O)CCCCC(C)(C)O)CC2

>  <R1_reagent>  (124) 
CC(C)(O)CCCCC(=O)O

>  <R1_ID>  (124) 
R-010196

>  <N_reaction>  (124) 
Amidation

>  <R2_amine>  (124) 
CC(C)(C)CN

>  <R2_ID>  (124) 
R-003311

>  <MW>  (124) 
389.5

>  <LogP>  (124) 
3.07

>  <HBD>  (124) 
2

>  <HBA>  (124) 
4

>  <RotB>  (124) 
7

>  <ASMS_similarity>  (124) 
0.5775

>  <Priority_tier>  (124) 
Tier3_explore

>  <Scaffold>  (124) 
OC(=O)c1ccc2CCNCc2n1

$$$$

     RDKit          2D

 33 36  0  0  0  0  0  0  0  0999 V2000
   -9.7161   -2.9645    0.0000 C   0  0  0  0  0  0  0  0  0  0  0  0
   -9.3839   -1.5017    0.0000 C   0  0  0  0  0  0  0  0  0  0  0  0
   -9.0516   -0.0390    0.0000 C   0  0  0  0  0  0  0  0  0  0  0  0
  -10.8466   -1.1695    0.0000 C   0  0  0  0  0  0  0  0  0  0  0  0
   -7.9211   -1.8339    0.0000 O   0  0  0  0  0  0  0  0  0  0  0  0
   -6.9020   -0.7333    0.0000 C   0  0  0  0  0  0  0  0  0  0  0  0
   -7.3457    0.6996    0.0000 O   0  0  0  0  0  0  0  0  0  0  0  0
   -5.4393   -1.0655    0.0000 C   0  0  0  0  0  0  0  0  0  0  0  0
   -4.4202    0.0351    0.0000 N   0  0  0  0  0  0  0  0  0  0  0  0
   -2.9574   -0.2971    0.0000 C   0  0  0  0  0  0  0  0  0  0  0  0
   -2.5138   -1.7300    0.0000 O   0  0  0  0  0  0  0  0  0  0  0  0
   -1.9383    0.8036    0.0000 C   0  0  0  0  0  0  0  0  0  0  0  0
   -2.3820    2.2365    0.0000 C   0  0  0  0  0  0  0  0  0  0  0  0
   -1.3629    3.3371    0.0000 C   0  0  0  0  0  0  0  0  0  0  0  0
    0.0998    3.0049    0.0000 C   0  0  0  0  0  0  0  0  0  0  0  0
    0.5435    1.5720    0.0000 C   0  0  0  0  0  0  0  0  0  0  0  0
   -0.4756    0.4713    0.0000 N   0  0  0  0  0  0  0  0  0  0  0  0
    2.0062    1.2398    0.0000 C   0  0  0  0  0  0  0  0  0  0  0  0
    3.0253    2.3404    0.0000 N   0  0  0  0  0  0  0  0  0  0  0  0
    4.4881    2.0082    0.0000 C   0  0  0  0  0  0  0  0  0  0  0  0
    5.5072    3.1088    0.0000 O   0  0  0  0  0  0  0  0  0  0  0  0
    4.9317    0.5753    0.0000 C   0  0  0  0  0  0  0  0  0  0  0  0
    3.9126   -0.5254    0.0000 C   0  0  0  0  0  0  0  0  0  0  0  0
    4.3563   -1.9583    0.0000 C   0  0  0  0  0  0  0  0  0  0  0  0
    5.8190   -2.2905    0.0000 C   0  0  0  0  0  0  0  0  0  0  0  0
    6.2627   -3.7234    0.0000 C   0  0  0  0  0  0  0  0  0  0  0  0
    7.7254   -4.0556    0.0000 C   0  0  0  0  0  0  0  0  0  0  0  0
    8.7445   -2.9550    0.0000 C   0  0  0  0  0  0  0  0  0  0  0  0
    8.3009   -1.5221    0.0000 C   0  0  0  0  0  0  0  0  0  0  0  0
    6.8381   -1.1898    0.0000 C   0  0  0  0  0  0  0  0  0  0  0  0
    6.3945    0.2431    0.0000 N   0  0  0  0  0  0  0  0  0  0  0  0
    2.5817    3.7733    0.0000 C   0  0  0  0  0  0  0  0  0  0  0  0
    1.1189    4.1055    0.0000 C   0  0  0  0  0  0  0  0  0  0  0  0
  1  2  1  0
  2  3  1  0
  2  4  1  0
  2  5  1  0
  5  6  1  0
  6  7  2  0
  6  8  1  0
  8  9  1  0
  9 10  1  0
 10 11  2  0
 10 12  1  0
 12 13  2  0
 13 14  1  0
 14 15  2  0
 15 16  1  0
 16 17  2  0
 16 18  1  0
 18 19  1  0
 19 20  1  0
 20 21  2  0
 20 22  1  0
 22 23  2  0
 23 24  1  0
 24 25  2  0
 25 26  1  0
 26 27  2  0
 27 28  1  0
 28 29  2  0
 29 30  1  0
 30 31  2  0
 19 32  1  0
 32 33  1  0
 17 12  1  0
 31 22  1  0
 33 15  1  0
 30 25  1  0
M  END
>  <Compound_ID>  (125) 
LIB125

>  <SMILES>  (125) 
CC(C)(C)OC(=O)CNC(=O)c1ccc2c(n1)CN(C(=O)c1ccc3ccccc3n1)CC2

>  <R1_reagent>  (125) 
O=C(Cl)c1ccc2ccccc2n1

>  <R1_ID>  (125) 
R-011322

>  <N_reaction>  (125) 
Amidation

>  <R2_amine>  (125) 
CC(C)(C)OC(=O)CN

>  <R2_ID>  (125) 
R-009177

>  <MW>  (125) 
446.5

>  <LogP>  (125) 
2.9

>  <HBD>  (125) 
1

>  <HBA>  (125) 
6

>  <RotB>  (125) 
4

>  <ASMS_similarity>  (125) 
0.5775

>  <Priority_tier>  (125) 
Tier3_explore

>  <Scaffold>  (125) 
OC(=O)c1ccc2CCNCc2n1

$$$$

     RDKit          2D

 27 29  0  0  0  0  0  0  0  0999 V2000
   -5.8509    4.4150    0.0000 C   0  0  0  0  0  0  0  0  0  0  0  0
   -5.4541    2.9684    0.0000 C   0  0  0  0  0  0  0  0  0  0  0  0
   -4.0029    2.5888    0.0000 C   0  0  0  0  0  0  0  0  0  0  0  0
   -3.6061    1.1423    0.0000 C   0  0  0  0  0  0  0  0  0  0  0  0
   -4.6604    0.0753    0.0000 C   0  0  0  0  0  0  0  0  0  0  0  0
   -4.2636   -1.3712    0.0000 C   0  0  0  0  0  0  0  0  0  0  0  0
   -5.3180   -2.4382    0.0000 O   0  0  0  0  0  0  0  0  0  0  0  0
   -2.8124   -1.7509    0.0000 N   0  0  0  0  0  0  0  0  0  0  0  0
   -2.4156   -3.1974    0.0000 C   0  0  0  0  0  0  0  0  0  0  0  0
   -0.9644   -3.5770    0.0000 C   0  0  0  0  0  0  0  0  0  0  0  0
    0.0899   -2.5101    0.0000 C   0  0  0  0  0  0  0  0  0  0  0  0
    1.5411   -2.8897    0.0000 C   0  0  0  0  0  0  0  0  0  0  0  0
    2.5954   -1.8228    0.0000 C   0  0  0  0  0  0  0  0  0  0  0  0
    2.1986   -0.3762    0.0000 C   0  0  0  0  0  0  0  0  0  0  0  0
    3.2529    0.6907    0.0000 C   0  0  0  0  0  0  0  0  0  0  0  0
    2.8561    2.1373    0.0000 O   0  0  0  0  0  0  0  0  0  0  0  0
    4.7041    0.3111    0.0000 N   0  0  0  0  0  0  0  0  0  0  0  0
    5.7584    1.3780    0.0000 C   0  0  0  0  0  0  0  0  0  0  0  0
    7.2096    0.9984    0.0000 C   0  0  0  0  0  0  0  0  0  0  0  0
    8.6608    0.6188    0.0000 F   0  0  0  0  0  0  0  0  0  0  0  0
    7.5892    2.4496    0.0000 F   0  0  0  0  0  0  0  0  0  0  0  0
    6.8300   -0.4527    0.0000 F   0  0  0  0  0  0  0  0  0  0  0  0
    0.7474    0.0034    0.0000 N   0  0  0  0  0  0  0  0  0  0  0  0
   -0.3069   -1.0635    0.0000 C   0  0  0  0  0  0  0  0  0  0  0  0
   -1.7581   -0.6839    0.0000 C   0  0  0  0  0  0  0  0  0  0  0  0
   -6.1116    0.4549    0.0000 C   0  0  0  0  0  0  0  0  0  0  0  0
   -6.5084    1.9015    0.0000 N   0  0  0  0  0  0  0  0  0  0  0  0
  1  2  1  0
  2  3  2  0
  3  4  1  0
  4  5  2  0
  5  6  1  0
  6  7  2  0
  6  8  1  0
  8  9  1  0
  9 10  1  0
 10 11  1  0
 11 12  2  0
 12 13  1  0
 13 14  2  0
 14 15  1  0
 15 16  2  0
 15 17  1  0
 17 18  1  0
 18 19  1  0
 19 20  1  0
 19 21  1  0
 19 22  1  0
 14 23  1  0
 23 24  2  0
 24 25  1  0
  5 26  1  0
 26 27  2  0
 27  2  1  0
 25  8  1  0
 24 11  1  0
M  END
>  <Compound_ID>  (126) 
LIB126

>  <SMILES>  (126) 
Cc1ccc(C(=O)N2CCc3ccc(C(=O)NCC(F)(F)F)nc3C2)cn1

>  <R1_reagent>  (126) 
Cc1ccc(C(=O)O)cn1

>  <R1_ID>  (126) 
R-005046

>  <N_reaction>  (126) 
Amidation

>  <R2_amine>  (126) 
NCC(F)(F)F

>  <R2_ID>  (126) 
R-000822

>  <MW>  (126) 
378.4

>  <LogP>  (126) 
2.28

>  <HBD>  (126) 
1

>  <HBA>  (126) 
4

>  <RotB>  (126) 
3

>  <ASMS_similarity>  (126) 
0.5769

>  <Priority_tier>  (126) 
Tier3_explore

>  <Scaffold>  (126) 
OC(=O)c1ccc2CCNCc2n1

$$$$

     RDKit          2D

 25 27  0  0  0  0  0  0  0  0999 V2000
   -5.7083    4.1051    0.0000 C   0  0  0  0  0  0  0  0  0  0  0  0
   -5.8077    2.6084    0.0000 C   0  0  0  0  0  0  0  0  0  0  0  0
   -7.0769    1.8090    0.0000 C   0  0  0  0  0  0  0  0  0  0  0  0
   -6.7089    0.3549    0.0000 C   0  0  0  0  0  0  0  0  0  0  0  0
   -5.2122    0.2556    0.0000 C   0  0  0  0  0  0  0  0  0  0  0  0
   -4.4128   -1.0137    0.0000 C   0  0  0  0  0  0  0  0  0  0  0  0
   -2.9139   -0.9560    0.0000 N   0  0  0  0  0  0  0  0  0  0  0  0
   -2.1145   -2.2253    0.0000 C   0  0  0  0  0  0  0  0  0  0  0  0
   -2.8140   -3.5522    0.0000 O   0  0  0  0  0  0  0  0  0  0  0  0
   -0.6156   -2.1676    0.0000 C   0  0  0  0  0  0  0  0  0  0  0  0
    0.1838   -3.4368    0.0000 C   0  0  0  0  0  0  0  0  0  0  0  0
    1.6827   -3.3792    0.0000 C   0  0  0  0  0  0  0  0  0  0  0  0
    2.3822   -2.0523    0.0000 C   0  0  0  0  0  0  0  0  0  0  0  0
    1.5828   -0.7830    0.0000 C   0  0  0  0  0  0  0  0  0  0  0  0
    0.0839   -0.8407    0.0000 N   0  0  0  0  0  0  0  0  0  0  0  0
    2.2823    0.5439    0.0000 C   0  0  0  0  0  0  0  0  0  0  0  0
    3.7812    0.6016    0.0000 N   0  0  0  0  0  0  0  0  0  0  0  0
    4.4807    1.9285    0.0000 C   0  0  0  0  0  0  0  0  0  0  0  0
    3.6813    3.1977    0.0000 O   0  0  0  0  0  0  0  0  0  0  0  0
    5.9796    1.9861    0.0000 C   0  0  0  0  0  0  0  0  0  0  0  0
    6.6791    3.3130    0.0000 F   0  0  0  0  0  0  0  0  0  0  0  0
    6.7790    0.7169    0.0000 F   0  0  0  0  0  0  0  0  0  0  0  0
    4.5806   -0.6677    0.0000 C   0  0  0  0  0  0  0  0  0  0  0  0
    3.8811   -1.9946    0.0000 C   0  0  0  0  0  0  0  0  0  0  0  0
   -4.6552    1.6483    0.0000 O   0  0  0  0  0  0  0  0  0  0  0  0
  1  2  1  0
  2  3  2  0
  3  4  1  0
  4  5  2  0
  5  6  1  0
  6  7  1  0
  7  8  1  0
  8  9  2  0
  8 10  1  0
 10 11  2  0
 11 12  1  0
 12 13  2  0
 13 14  1  0
 14 15  2  0
 14 16  1  0
 16 17  1  0
 17 18  1  0
 18 19  2  0
 18 20  1  0
 20 21  1  0
 20 22  1  0
 17 23  1  0
 23 24  1  0
  5 25  1  0
 25  2  1  0
 15 10  1  0
 24 13  1  0
M  END
>  <Compound_ID>  (127) 
LIB127

>  <SMILES>  (127) 
Cc1ccc(CNC(=O)c2ccc3c(n2)CN(C(=O)C(F)F)CC3)o1

>  <R1_reagent>  (127) 
O=C(O)C(F)F

>  <R1_ID>  (127) 
R-008826

>  <N_reaction>  (127) 
Amidation

>  <R2_amine>  (127) 
Cc1ccc(CN)o1

>  <R2_ID>  (127) 
R-003437

>  <MW>  (127) 
349.3

>  <LogP>  (127) 
2.06

>  <HBD>  (127) 
1

>  <HBA>  (127) 
4

>  <RotB>  (127) 
4

>  <ASMS_similarity>  (127) 
0.5758

>  <Priority_tier>  (127) 
Tier3_explore

>  <Scaffold>  (127) 
OC(=O)c1ccc2CCNCc2n1

$$$$

     RDKit          2D

 25 27  0  0  0  0  0  0  0  0999 V2000
   -6.5323   -0.0071    0.0000 C   0  0  0  0  0  0  0  0  0  0  0  0
   -5.4174    0.9964    0.0000 C   0  0  0  0  0  0  0  0  0  0  0  0
   -5.7290    2.4637    0.0000 C   0  0  0  0  0  0  0  0  0  0  0  0
   -4.6141    3.4671    0.0000 C   0  0  0  0  0  0  0  0  0  0  0  0
   -3.1876    3.0034    0.0000 C   0  0  0  0  0  0  0  0  0  0  0  0
   -2.8760    1.5361    0.0000 C   0  0  0  0  0  0  0  0  0  0  0  0
   -3.9909    0.5326    0.0000 C   0  0  0  0  0  0  0  0  0  0  0  0
   -3.6793   -0.9347    0.0000 C   0  0  0  0  0  0  0  0  0  0  0  0
   -4.7942   -1.9382    0.0000 O   0  0  0  0  0  0  0  0  0  0  0  0
   -2.2528   -1.3985    0.0000 N   0  0  0  0  0  0  0  0  0  0  0  0
   -1.9412   -2.8658    0.0000 C   0  0  0  0  0  0  0  0  0  0  0  0
   -0.5147   -3.3295    0.0000 C   0  0  0  0  0  0  0  0  0  0  0  0
    0.6002   -2.3261    0.0000 C   0  0  0  0  0  0  0  0  0  0  0  0
    2.0267   -2.7898    0.0000 C   0  0  0  0  0  0  0  0  0  0  0  0
    3.1416   -1.7864    0.0000 C   0  0  0  0  0  0  0  0  0  0  0  0
    2.8300   -0.3191    0.0000 C   0  0  0  0  0  0  0  0  0  0  0  0
    3.9449    0.6844    0.0000 C   0  0  0  0  0  0  0  0  0  0  0  0
    3.6333    2.1517    0.0000 O   0  0  0  0  0  0  0  0  0  0  0  0
    5.3714    0.2206    0.0000 N   0  0  0  0  0  0  0  0  0  0  0  0
    6.4863    1.2241    0.0000 C   0  0  0  0  0  0  0  0  0  0  0  0
    7.9128    0.7603    0.0000 C   0  0  0  0  0  0  0  0  0  0  0  0
    9.0277    1.7638    0.0000 O   0  0  0  0  0  0  0  0  0  0  0  0
    1.4035    0.1447    0.0000 N   0  0  0  0  0  0  0  0  0  0  0  0
    0.2886   -0.8588    0.0000 C   0  0  0  0  0  0  0  0  0  0  0  0
   -1.1379   -0.3950    0.0000 C   0  0  0  0  0  0  0  0  0  0  0  0
  1  2  1  0
  2  3  2  0
  3  4  1  0
  4  5  2  0
  5  6  1  0
  6  7  2  0
  7  8  1  0
  8  9  2  0
  8 10  1  0
 10 11  1  0
 11 12  1  0
 12 13  1  0
 13 14  2  0
 14 15  1  0
 15 16  2  0
 16 17  1  0
 17 18  2  0
 17 19  1  0
 19 20  1  0
 20 21  1  0
 21 22  1  0
 16 23  1  0
 23 24  2  0
 24 25  1  0
  7  2  1  0
 25 10  1  0
 24 13  1  0
M  END
>  <Compound_ID>  (128) 
LIB128

>  <SMILES>  (128) 
Cc1ccccc1C(=O)N1CCc2ccc(C(=O)NCCO)nc2C1

>  <R1_reagent>  (128) 
Cc1ccccc1C(=O)O

>  <R1_ID>  (128) 
R-004932

>  <N_reaction>  (128) 
Amidation

>  <R2_amine>  (128) 
NCCO

>  <R2_ID>  (128) 
R-002330

>  <MW>  (128) 
339.4

>  <LogP>  (128) 
1.31

>  <HBD>  (128) 
2

>  <HBA>  (128) 
4

>  <RotB>  (128) 
4

>  <ASMS_similarity>  (128) 
0.5758

>  <Priority_tier>  (128) 
Tier3_explore

>  <Scaffold>  (128) 
OC(=O)c1ccc2CCNCc2n1

$$$$

     RDKit          2D

 27 29  0  0  0  0  0  0  0  0999 V2000
   -5.6031    4.6958    0.0000 C   0  0  0  0  0  0  0  0  0  0  0  0
   -5.3207    3.2226    0.0000 C   0  0  0  0  0  0  0  0  0  0  0  0
   -3.9036    2.7306    0.0000 N   0  0  0  0  0  0  0  0  0  0  0  0
   -3.6212    1.2574    0.0000 C   0  0  0  0  0  0  0  0  0  0  0  0
   -4.7559    0.2762    0.0000 C   0  0  0  0  0  0  0  0  0  0  0  0
   -4.4735   -1.1969    0.0000 C   0  0  0  0  0  0  0  0  0  0  0  0
   -5.6081   -2.1781    0.0000 O   0  0  0  0  0  0  0  0  0  0  0  0
   -3.0564   -1.6890    0.0000 N   0  0  0  0  0  0  0  0  0  0  0  0
   -2.7740   -3.1621    0.0000 C   0  0  0  0  0  0  0  0  0  0  0  0
   -1.3570   -3.6542    0.0000 C   0  0  0  0  0  0  0  0  0  0  0  0
   -0.2224   -2.6730    0.0000 C   0  0  0  0  0  0  0  0  0  0  0  0
    1.1946   -3.1650    0.0000 C   0  0  0  0  0  0  0  0  0  0  0  0
    2.3292   -2.1839    0.0000 C   0  0  0  0  0  0  0  0  0  0  0  0
    2.0468   -0.7107    0.0000 C   0  0  0  0  0  0  0  0  0  0  0  0
    3.1814    0.2705    0.0000 C   0  0  0  0  0  0  0  0  0  0  0  0
    2.8990    1.7436    0.0000 O   0  0  0  0  0  0  0  0  0  0  0  0
    4.5984   -0.2216    0.0000 N   0  0  0  0  0  0  0  0  0  0  0  0
    5.7330    0.7596    0.0000 C   0  0  0  0  0  0  0  0  0  0  0  0
    7.1500    0.2676    0.0000 C   0  0  0  0  0  0  0  0  0  0  0  0
    8.2846    1.2487    0.0000 C   0  0  0  0  0  0  0  0  0  0  0  0
    9.7016    0.7567    0.0000 C   0  0  0  0  0  0  0  0  0  0  0  0
    8.0022    2.7219    0.0000 C   0  0  0  0  0  0  0  0  0  0  0  0
    0.6298   -0.2187    0.0000 N   0  0  0  0  0  0  0  0  0  0  0  0
   -0.5048   -1.1998    0.0000 C   0  0  0  0  0  0  0  0  0  0  0  0
   -1.9218   -0.7078    0.0000 C   0  0  0  0  0  0  0  0  0  0  0  0
   -6.1729    0.7683    0.0000 C   0  0  0  0  0  0  0  0  0  0  0  0
   -6.4553    2.2414    0.0000 N   0  0  0  0  0  0  0  0  0  0  0  0
  1  2  1  0
  2  3  2  0
  3  4  1  0
  4  5  2  0
  5  6  1  0
  6  7  2  0
  6  8  1  0
  8  9  1  0
  9 10  1  0
 10 11  1  0
 11 12  2  0
 12 13  1  0
 13 14  2  0
 14 15  1  0
 15 16  2  0
 15 17  1  0
 17 18  1  0
 18 19  1  0
 19 20  1  0
 20 21  1  0
 20 22  1  0
 14 23  1  0
 23 24  2  0
 24 25  1  0
  5 26  1  0
 26 27  2  0
 27  2  1  0
 25  8  1  0
 24 11  1  0
M  END
>  <Compound_ID>  (129) 
LIB129

>  <SMILES>  (129) 
Cc1ncc(C(=O)N2CCc3ccc(C(=O)NCCC(C)C)nc3C2)cn1

>  <R1_reagent>  (129) 
Cc1ncc(C(=O)O)cn1

>  <R1_ID>  (129) 
R-009309

>  <N_reaction>  (129) 
Amidation

>  <R2_amine>  (129) 
CC(C)CCN

>  <R2_ID>  (129) 
R-003079

>  <MW>  (129) 
367.5

>  <LogP>  (129) 
2.15

>  <HBD>  (129) 
1

>  <HBA>  (129) 
5

>  <RotB>  (129) 
5

>  <ASMS_similarity>  (129) 
0.5758

>  <Priority_tier>  (129) 
Tier3_explore

>  <Scaffold>  (129) 
OC(=O)c1ccc2CCNCc2n1

$$$$

     RDKit          2D

 24 26  0  0  0  0  0  0  0  0999 V2000
   -8.2327   -1.2748    0.0000 C   0  0  0  0  0  0  0  0  0  0  0  0
   -6.7835   -1.6619    0.0000 C   0  0  0  0  0  0  0  0  0  0  0  0
   -5.7237   -0.6003    0.0000 N   0  0  0  0  0  0  0  0  0  0  0  0
   -4.2745   -0.9873    0.0000 C   0  0  0  0  0  0  0  0  0  0  0  0
   -3.8851   -2.4359    0.0000 O   0  0  0  0  0  0  0  0  0  0  0  0
   -3.2147    0.0742    0.0000 C   0  0  0  0  0  0  0  0  0  0  0  0
   -3.6041    1.5228    0.0000 C   0  0  0  0  0  0  0  0  0  0  0  0
   -2.5444    2.5843    0.0000 C   0  0  0  0  0  0  0  0  0  0  0  0
   -1.0951    2.1973    0.0000 C   0  0  0  0  0  0  0  0  0  0  0  0
   -0.7057    0.7487    0.0000 C   0  0  0  0  0  0  0  0  0  0  0  0
   -1.7655   -0.3128    0.0000 N   0  0  0  0  0  0  0  0  0  0  0  0
    0.7435    0.3617    0.0000 C   0  0  0  0  0  0  0  0  0  0  0  0
    1.8033    1.4232    0.0000 N   0  0  0  0  0  0  0  0  0  0  0  0
    3.2525    1.0362    0.0000 C   0  0  0  0  0  0  0  0  0  0  0  0
    4.3123    2.0977    0.0000 O   0  0  0  0  0  0  0  0  0  0  0  0
    3.6419   -0.4124    0.0000 C   0  0  0  0  0  0  0  0  0  0  0  0
    2.5821   -1.4739    0.0000 C   0  0  0  0  0  0  0  0  0  0  0  0
    2.9716   -2.9225    0.0000 C   0  0  0  0  0  0  0  0  0  0  0  0
    4.4208   -3.3095    0.0000 C   0  0  0  0  0  0  0  0  0  0  0  0
    5.4806   -2.2480    0.0000 C   0  0  0  0  0  0  0  0  0  0  0  0
    5.0911   -0.7994    0.0000 C   0  0  0  0  0  0  0  0  0  0  0  0
    6.1509    0.2621    0.0000 C   0  0  0  0  0  0  0  0  0  0  0  0
    1.4138    2.8718    0.0000 C   0  0  0  0  0  0  0  0  0  0  0  0
   -0.0354    3.2588    0.0000 C   0  0  0  0  0  0  0  0  0  0  0  0
  1  2  1  0
  2  3  1  0
  3  4  1  0
  4  5  2  0
  4  6  1  0
  6  7  2  0
  7  8  1  0
  8  9  2  0
  9 10  1  0
 10 11  2  0
 10 12  1  0
 12 13  1  0
 13 14  1  0
 14 15  2  0
 14 16  1  0
 16 17  2  0
 17 18  1  0
 18 19  2  0
 19 20  1  0
 20 21  2  0
 21 22  1  0
 13 23  1  0
 23 24  1  0
 11  6  1  0
 21 16  1  0
 24  9  1  0
M  END
>  <Compound_ID>  (130) 
LIB130

>  <SMILES>  (130) 
CCNC(=O)c1ccc2c(n1)CN(C(=O)c1ccccc1C)CC2

>  <R1_reagent>  (130) 
Cc1ccccc1C(=O)O

>  <R1_ID>  (130) 
R-004932

>  <N_reaction>  (130) 
Amidation

>  <R2_amine>  (130) 
CCN

>  <R2_ID>  (130) 
R-000959

>  <MW>  (130) 
323.4

>  <LogP>  (130) 
2.34

>  <HBD>  (130) 
1

>  <HBA>  (130) 
3

>  <RotB>  (130) 
3

>  <ASMS_similarity>  (130) 
0.5758

>  <Priority_tier>  (130) 
Tier3_explore

>  <Scaffold>  (130) 
OC(=O)c1ccc2CCNCc2n1

$$$$

     RDKit          2D

 24 26  0  0  0  0  0  0  0  0999 V2000
   -9.2373   -1.9053    0.0000 C   0  0  0  0  0  0  0  0  0  0  0  0
   -8.1174   -0.9074    0.0000 C   0  0  0  0  0  0  0  0  0  0  0  0
   -6.6932   -1.3783    0.0000 C   0  0  0  0  0  0  0  0  0  0  0  0
   -5.5733   -0.3804    0.0000 N   0  0  0  0  0  0  0  0  0  0  0  0
   -4.1491   -0.8514    0.0000 C   0  0  0  0  0  0  0  0  0  0  0  0
   -3.8449   -2.3202    0.0000 O   0  0  0  0  0  0  0  0  0  0  0  0
   -3.0292    0.1465    0.0000 C   0  0  0  0  0  0  0  0  0  0  0  0
   -3.3335    1.6154    0.0000 C   0  0  0  0  0  0  0  0  0  0  0  0
   -2.2136    2.6133    0.0000 C   0  0  0  0  0  0  0  0  0  0  0  0
   -0.7894    2.1423    0.0000 C   0  0  0  0  0  0  0  0  0  0  0  0
   -0.4852    0.6735    0.0000 C   0  0  0  0  0  0  0  0  0  0  0  0
   -1.6051   -0.3244    0.0000 N   0  0  0  0  0  0  0  0  0  0  0  0
    0.9390    0.2026    0.0000 C   0  0  0  0  0  0  0  0  0  0  0  0
    2.0589    1.2005    0.0000 N   0  0  0  0  0  0  0  0  0  0  0  0
    3.4831    0.7296    0.0000 C   0  0  0  0  0  0  0  0  0  0  0  0
    4.6030    1.7274    0.0000 O   0  0  0  0  0  0  0  0  0  0  0  0
    3.7873   -0.7393    0.0000 C   0  0  0  0  0  0  0  0  0  0  0  0
    5.2115   -1.2102    0.0000 C   0  0  0  0  0  0  0  0  0  0  0  0
    6.4296   -0.3348    0.0000 C   0  0  0  0  0  0  0  0  0  0  0  0
    7.6385   -1.2228    0.0000 C   0  0  0  0  0  0  0  0  0  0  0  0
    7.1676   -2.6470    0.0000 S   0  0  0  0  0  0  0  0  0  0  0  0
    5.6676   -2.6392    0.0000 C   0  0  0  0  0  0  0  0  0  0  0  0
    1.7547    2.6693    0.0000 C   0  0  0  0  0  0  0  0  0  0  0  0
    0.3305    3.1402    0.0000 C   0  0  0  0  0  0  0  0  0  0  0  0
  1  2  1  0
  2  3  1  0
  3  4  1  0
  4  5  1  0
  5  6  2  0
  5  7  1  0
  7  8  2  0
  8  9  1  0
  9 10  2  0
 10 11  1  0
 11 12  2  0
 11 13  1  0
 13 14  1  0
 14 15  1  0
 15 16  2  0
 15 17  1  0
 17 18  1  0
 18 19  1  0
 19 20  2  0
 20 21  1  0
 21 22  1  0
 14 23  1  0
 23 24  1  0
 12  7  1  0
 22 18  2  0
 24 10  1  0
M  END
>  <Compound_ID>  (131) 
LIB131

>  <SMILES>  (131) 
CCCNC(=O)c1ccc2c(n1)CN(C(=O)Cc1ccsc1)CC2

>  <R1_reagent>  (131) 
O=C(Cl)Cc1ccsc1

>  <R1_ID>  (131) 
R-008848

>  <N_reaction>  (131) 
Amidation

>  <R2_amine>  (131) 
CCCN

>  <R2_ID>  (131) 
R-006291

>  <MW>  (131) 
343.5

>  <LogP>  (131) 
2.41

>  <HBD>  (131) 
1

>  <HBA>  (131) 
4

>  <RotB>  (131) 
5

>  <ASMS_similarity>  (131) 
0.5753

>  <Priority_tier>  (131) 
Tier3_explore

>  <Scaffold>  (131) 
OC(=O)c1ccc2CCNCc2n1

$$$$

     RDKit          2D

 26 28  0  0  0  0  0  0  0  0999 V2000
  -10.0816   -0.9843    0.0000 C   0  0  0  0  0  0  0  0  0  0  0  0
   -8.6679   -1.4856    0.0000 C   0  0  0  0  0  0  0  0  0  0  0  0
   -7.5269   -0.5119    0.0000 C   0  0  0  0  0  0  0  0  0  0  0  0
   -6.1131   -1.0132    0.0000 C   0  0  0  0  0  0  0  0  0  0  0  0
   -4.9721   -0.0394    0.0000 N   0  0  0  0  0  0  0  0  0  0  0  0
   -3.5583   -0.5407    0.0000 C   0  0  0  0  0  0  0  0  0  0  0  0
   -3.2856   -2.0157    0.0000 O   0  0  0  0  0  0  0  0  0  0  0  0
   -2.4173    0.4330    0.0000 C   0  0  0  0  0  0  0  0  0  0  0  0
   -2.6901    1.9080    0.0000 C   0  0  0  0  0  0  0  0  0  0  0  0
   -1.5491    2.8817    0.0000 C   0  0  0  0  0  0  0  0  0  0  0  0
   -0.1354    2.3805    0.0000 C   0  0  0  0  0  0  0  0  0  0  0  0
    0.1374    0.9055    0.0000 C   0  0  0  0  0  0  0  0  0  0  0  0
   -1.0036   -0.0683    0.0000 N   0  0  0  0  0  0  0  0  0  0  0  0
    1.5512    0.4042    0.0000 C   0  0  0  0  0  0  0  0  0  0  0  0
    2.6922    1.3779    0.0000 N   0  0  0  0  0  0  0  0  0  0  0  0
    4.1059    0.8767    0.0000 C   0  0  0  0  0  0  0  0  0  0  0  0
    5.2469    1.8504    0.0000 O   0  0  0  0  0  0  0  0  0  0  0  0
    4.3787   -0.5983    0.0000 C   0  0  0  0  0  0  0  0  0  0  0  0
    3.2377   -1.5721    0.0000 C   0  0  0  0  0  0  0  0  0  0  0  0
    3.5105   -3.0471    0.0000 C   0  0  0  0  0  0  0  0  0  0  0  0
    4.9242   -3.5483    0.0000 C   0  0  0  0  0  0  0  0  0  0  0  0
    6.0652   -2.5746    0.0000 C   0  0  0  0  0  0  0  0  0  0  0  0
    5.7925   -1.0996    0.0000 C   0  0  0  0  0  0  0  0  0  0  0  0
    6.9335   -0.1259    0.0000 F   0  0  0  0  0  0  0  0  0  0  0  0
    2.4194    2.8529    0.0000 C   0  0  0  0  0  0  0  0  0  0  0  0
    1.0056    3.3542    0.0000 C   0  0  0  0  0  0  0  0  0  0  0  0
  1  2  1  0
  2  3  1  0
  3  4  1  0
  4  5  1  0
  5  6  1  0
  6  7  2  0
  6  8  1  0
  8  9  2  0
  9 10  1  0
 10 11  2  0
 11 12  1  0
 12 13  2  0
 12 14  1  0
 14 15  1  0
 15 16  1  0
 16 17  2  0
 16 18  1  0
 18 19  2  0
 19 20  1  0
 20 21  2  0
 21 22  1  0
 22 23  2  0
 23 24  1  0
 15 25  1  0
 25 26  1  0
 13  8  1  0
 23 18  1  0
 26 11  1  0
M  END
>  <Compound_ID>  (132) 
LIB132

>  <SMILES>  (132) 
CCCCNC(=O)c1ccc2c(n1)CN(C(=O)c1ccccc1F)CC2

>  <R1_reagent>  (132) 
O=C(Cl)c1ccccc1F

>  <R1_ID>  (132) 
R-006199

>  <N_reaction>  (132) 
Amidation

>  <R2_amine>  (132) 
CCCCN

>  <R2_ID>  (132) 
R-003885

>  <MW>  (132) 
355.4

>  <LogP>  (132) 
2.95

>  <HBD>  (132) 
1

>  <HBA>  (132) 
3

>  <RotB>  (132) 
5

>  <ASMS_similarity>  (132) 
0.5735

>  <Priority_tier>  (132) 
Tier3_explore

>  <Scaffold>  (132) 
OC(=O)c1ccc2CCNCc2n1

$$$$

     RDKit          2D

 26 28  0  0  0  0  0  0  0  0999 V2000
  -10.5469   -1.3059    0.0000 C   0  0  0  0  0  0  0  0  0  0  0  0
   -9.1225   -1.7762    0.0000 C   0  0  0  0  0  0  0  0  0  0  0  0
   -8.0031   -0.7778    0.0000 C   0  0  0  0  0  0  0  0  0  0  0  0
   -6.5787   -1.2480    0.0000 C   0  0  0  0  0  0  0  0  0  0  0  0
   -5.4593   -0.2496    0.0000 N   0  0  0  0  0  0  0  0  0  0  0  0
   -4.0349   -0.7199    0.0000 C   0  0  0  0  0  0  0  0  0  0  0  0
   -3.7299   -2.1886    0.0000 O   0  0  0  0  0  0  0  0  0  0  0  0
   -2.9154    0.2785    0.0000 C   0  0  0  0  0  0  0  0  0  0  0  0
   -3.2204    1.7472    0.0000 C   0  0  0  0  0  0  0  0  0  0  0  0
   -2.1009    2.7456    0.0000 C   0  0  0  0  0  0  0  0  0  0  0  0
   -0.6765    2.2754    0.0000 C   0  0  0  0  0  0  0  0  0  0  0  0
   -0.3716    0.8067    0.0000 C   0  0  0  0  0  0  0  0  0  0  0  0
   -1.4910   -0.1917    0.0000 N   0  0  0  0  0  0  0  0  0  0  0  0
    1.0528    0.3364    0.0000 C   0  0  0  0  0  0  0  0  0  0  0  0
    2.1722    1.3348    0.0000 N   0  0  0  0  0  0  0  0  0  0  0  0
    3.5966    0.8646    0.0000 C   0  0  0  0  0  0  0  0  0  0  0  0
    4.7161    1.8630    0.0000 O   0  0  0  0  0  0  0  0  0  0  0  0
    3.9015   -0.6041    0.0000 C   0  0  0  0  0  0  0  0  0  0  0  0
    5.3259   -1.0744    0.0000 C   0  0  0  0  0  0  0  0  0  0  0  0
    5.6308   -2.5430    0.0000 C   0  0  0  0  0  0  0  0  0  0  0  0
    7.0552   -3.0133    0.0000 C   0  0  0  0  0  0  0  0  0  0  0  0
    8.1747   -2.0149    0.0000 C   0  0  0  0  0  0  0  0  0  0  0  0
    7.8697   -0.5462    0.0000 C   0  0  0  0  0  0  0  0  0  0  0  0
    6.4454   -0.0759    0.0000 C   0  0  0  0  0  0  0  0  0  0  0  0
    1.8673    2.8035    0.0000 C   0  0  0  0  0  0  0  0  0  0  0  0
    0.4429    3.2738    0.0000 C   0  0  0  0  0  0  0  0  0  0  0  0
  1  2  1  0
  2  3  1  0
  3  4  1  0
  4  5  1  0
  5  6  1  0
  6  7  2  0
  6  8  1  0
  8  9  2  0
  9 10  1  0
 10 11  2  0
 11 12  1  0
 12 13  2  0
 12 14  1  0
 14 15  1  0
 15 16  1  0
 16 17  2  0
 16 18  1  0
 18 19  1  0
 19 20  2  0
 20 21  1  0
 21 22  2  0
 22 23  1  0
 23 24  2  0
 15 25  1  0
 25 26  1  0
 13  8  1  0
 24 19  1  0
 26 11  1  0
M  END
>  <Compound_ID>  (133) 
LIB133

>  <SMILES>  (133) 
CCCCNC(=O)c1ccc2c(n1)CN(C(=O)Cc1ccccc1)CC2

>  <R1_reagent>  (133) 
O=C(Cl)Cc1ccccc1

>  <R1_ID>  (133) 
R-000189

>  <N_reaction>  (133) 
Amidation

>  <R2_amine>  (133) 
CCCCN

>  <R2_ID>  (133) 
R-003885

>  <MW>  (133) 
351.5

>  <LogP>  (133) 
2.74

>  <HBD>  (133) 
1

>  <HBA>  (133) 
3

>  <RotB>  (133) 
6

>  <ASMS_similarity>  (133) 
0.5735

>  <Priority_tier>  (133) 
Tier3_explore

>  <Scaffold>  (133) 
OC(=O)c1ccc2CCNCc2n1

$$$$

     RDKit          2D

 26 28  0  0  0  0  0  0  0  0999 V2000
  -10.0816   -0.9843    0.0000 C   0  0  0  0  0  0  0  0  0  0  0  0
   -8.6679   -1.4856    0.0000 C   0  0  0  0  0  0  0  0  0  0  0  0
   -7.5269   -0.5119    0.0000 C   0  0  0  0  0  0  0  0  0  0  0  0
   -6.1131   -1.0132    0.0000 C   0  0  0  0  0  0  0  0  0  0  0  0
   -4.9721   -0.0394    0.0000 N   0  0  0  0  0  0  0  0  0  0  0  0
   -3.5583   -0.5407    0.0000 C   0  0  0  0  0  0  0  0  0  0  0  0
   -3.2856   -2.0157    0.0000 O   0  0  0  0  0  0  0  0  0  0  0  0
   -2.4173    0.4330    0.0000 C   0  0  0  0  0  0  0  0  0  0  0  0
   -2.6901    1.9080    0.0000 C   0  0  0  0  0  0  0  0  0  0  0  0
   -1.5491    2.8817    0.0000 C   0  0  0  0  0  0  0  0  0  0  0  0
   -0.1354    2.3805    0.0000 C   0  0  0  0  0  0  0  0  0  0  0  0
    0.1374    0.9055    0.0000 C   0  0  0  0  0  0  0  0  0  0  0  0
   -1.0036   -0.0683    0.0000 N   0  0  0  0  0  0  0  0  0  0  0  0
    1.5512    0.4042    0.0000 C   0  0  0  0  0  0  0  0  0  0  0  0
    2.6922    1.3779    0.0000 N   0  0  0  0  0  0  0  0  0  0  0  0
    4.1059    0.8767    0.0000 C   0  0  0  0  0  0  0  0  0  0  0  0
    5.2469    1.8504    0.0000 O   0  0  0  0  0  0  0  0  0  0  0  0
    4.3787   -0.5983    0.0000 C   0  0  0  0  0  0  0  0  0  0  0  0
    3.2377   -1.5721    0.0000 C   0  0  0  0  0  0  0  0  0  0  0  0
    3.5105   -3.0471    0.0000 C   0  0  0  0  0  0  0  0  0  0  0  0
    4.9242   -3.5483    0.0000 C   0  0  0  0  0  0  0  0  0  0  0  0
    6.0652   -2.5746    0.0000 C   0  0  0  0  0  0  0  0  0  0  0  0
    5.7925   -1.0996    0.0000 C   0  0  0  0  0  0  0  0  0  0  0  0
    6.9335   -0.1259    0.0000 Cl  0  0  0  0  0  0  0  0  0  0  0  0
    2.4194    2.8529    0.0000 C   0  0  0  0  0  0  0  0  0  0  0  0
    1.0056    3.3542    0.0000 C   0  0  0  0  0  0  0  0  0  0  0  0
  1  2  1  0
  2  3  1  0
  3  4  1  0
  4  5  1  0
  5  6  1  0
  6  7  2  0
  6  8  1  0
  8  9  2  0
  9 10  1  0
 10 11  2  0
 11 12  1  0
 12 13  2  0
 12 14  1  0
 14 15  1  0
 15 16  1  0
 16 17  2  0
 16 18  1  0
 18 19  2  0
 19 20  1  0
 20 21  2  0
 21 22  1  0
 22 23  2  0
 23 24  1  0
 15 25  1  0
 25 26  1  0
 13  8  1  0
 23 18  1  0
 26 11  1  0
M  END
>  <Compound_ID>  (134) 
LIB134

>  <SMILES>  (134) 
CCCCNC(=O)c1ccc2c(n1)CN(C(=O)c1ccccc1Cl)CC2

>  <R1_reagent>  (134) 
O=C(Cl)c1ccccc1Cl

>  <R1_ID>  (134) 
R-003553

>  <N_reaction>  (134) 
Amidation

>  <R2_amine>  (134) 
CCCCN

>  <R2_ID>  (134) 
R-003885

>  <MW>  (134) 
371.9

>  <LogP>  (134) 
3.46

>  <HBD>  (134) 
1

>  <HBA>  (134) 
3

>  <RotB>  (134) 
5

>  <ASMS_similarity>  (134) 
0.5735

>  <Priority_tier>  (134) 
Tier3_explore

>  <Scaffold>  (134) 
OC(=O)c1ccc2CCNCc2n1

$$$$

     RDKit          2D

 27 29  0  0  0  0  0  0  0  0999 V2000
   -7.3429    0.3066    0.0000 C   0  0  0  0  0  0  0  0  0  0  0  0
   -6.1690    1.2404    0.0000 C   0  0  0  0  0  0  0  0  0  0  0  0
   -6.3908    2.7239    0.0000 C   0  0  0  0  0  0  0  0  0  0  0  0
   -5.2170    3.6577    0.0000 C   0  0  0  0  0  0  0  0  0  0  0  0
   -3.8213    3.1081    0.0000 C   0  0  0  0  0  0  0  0  0  0  0  0
   -3.5995    1.6245    0.0000 C   0  0  0  0  0  0  0  0  0  0  0  0
   -4.7734    0.6907    0.0000 C   0  0  0  0  0  0  0  0  0  0  0  0
   -4.5516   -0.7928    0.0000 C   0  0  0  0  0  0  0  0  0  0  0  0
   -5.7255   -1.7266    0.0000 O   0  0  0  0  0  0  0  0  0  0  0  0
   -3.1560   -1.3425    0.0000 N   0  0  0  0  0  0  0  0  0  0  0  0
   -2.9342   -2.8260    0.0000 C   0  0  0  0  0  0  0  0  0  0  0  0
   -1.5385   -3.3757    0.0000 C   0  0  0  0  0  0  0  0  0  0  0  0
   -0.3647   -2.4419    0.0000 C   0  0  0  0  0  0  0  0  0  0  0  0
    1.0310   -2.9916    0.0000 C   0  0  0  0  0  0  0  0  0  0  0  0
    2.2049   -2.0577    0.0000 C   0  0  0  0  0  0  0  0  0  0  0  0
    1.9831   -0.5742    0.0000 C   0  0  0  0  0  0  0  0  0  0  0  0
    3.1570    0.3596    0.0000 C   0  0  0  0  0  0  0  0  0  0  0  0
    2.9352    1.8431    0.0000 O   0  0  0  0  0  0  0  0  0  0  0  0
    4.5526   -0.1901    0.0000 N   0  0  0  0  0  0  0  0  0  0  0  0
    5.7265    0.7437    0.0000 C   0  0  0  0  0  0  0  0  0  0  0  0
    7.1221    0.1941    0.0000 C   0  0  0  0  0  0  0  0  0  0  0  0
    8.2960    1.1279    0.0000 C   0  0  0  0  0  0  0  0  0  0  0  0
    9.6916    0.5782    0.0000 C   0  0  0  0  0  0  0  0  0  0  0  0
   10.8655    1.5120    0.0000 O   0  0  0  0  0  0  0  0  0  0  0  0
    0.5874   -0.0245    0.0000 N   0  0  0  0  0  0  0  0  0  0  0  0
   -0.5864   -0.9584    0.0000 C   0  0  0  0  0  0  0  0  0  0  0  0
   -1.9821   -0.4087    0.0000 C   0  0  0  0  0  0  0  0  0  0  0  0
  1  2  1  0
  2  3  2  0
  3  4  1  0
  4  5  2  0
  5  6  1  0
  6  7  2  0
  7  8  1  0
  8  9  2  0
  8 10  1  0
 10 11  1  0
 11 12  1  0
 12 13  1  0
 13 14  2  0
 14 15  1  0
 15 16  2  0
 16 17  1  0
 17 18  2  0
 17 19  1  0
 19 20  1  0
 20 21  1  0
 21 22  1  0
 22 23  1  0
 23 24  1  0
 16 25  1  0
 25 26  2  0
 26 27  1  0
  7  2  1  0
 27 10  1  0
 26 13  1  0
M  END
>  <Compound_ID>  (135) 
LIB135

>  <SMILES>  (135) 
Cc1ccccc1C(=O)N1CCc2ccc(C(=O)NCCCCO)nc2C1

>  <R1_reagent>  (135) 
Cc1ccccc1C(=O)O

>  <R1_ID>  (135) 
R-004932

>  <N_reaction>  (135) 
Amidation

>  <R2_amine>  (135) 
NCCCCO

>  <R2_ID>  (135) 
R-002865

>  <MW>  (135) 
367.4

>  <LogP>  (135) 
2.09

>  <HBD>  (135) 
2

>  <HBA>  (135) 
4

>  <RotB>  (135) 
6

>  <ASMS_similarity>  (135) 
0.5735

>  <Priority_tier>  (135) 
Tier3_explore

>  <Scaffold>  (135) 
OC(=O)c1ccc2CCNCc2n1

$$$$

     RDKit          2D

 33 36  0  0  0  0  0  0  0  0999 V2000
   -9.8074    0.4204    0.0000 C   0  0  0  0  0  0  0  0  0  0  0  0
   -8.3932   -0.0797    0.0000 O   0  0  0  0  0  0  0  0  0  0  0  0
   -7.2530    0.8949    0.0000 C   0  0  0  0  0  0  0  0  0  0  0  0
   -7.5270    2.3697    0.0000 N   0  0  0  0  0  0  0  0  0  0  0  0
   -6.3868    3.3443    0.0000 C   0  0  0  0  0  0  0  0  0  0  0  0
   -4.9726    2.8442    0.0000 C   0  0  0  0  0  0  0  0  0  0  0  0
   -3.8324    3.8188    0.0000 Br  0  0  0  0  0  0  0  0  0  0  0  0
   -4.6986    1.3694    0.0000 C   0  0  0  0  0  0  0  0  0  0  0  0
   -5.8388    0.3948    0.0000 C   0  0  0  0  0  0  0  0  0  0  0  0
   -5.5649   -1.0800    0.0000 C   0  0  0  0  0  0  0  0  0  0  0  0
   -6.7051   -2.0546    0.0000 O   0  0  0  0  0  0  0  0  0  0  0  0
   -4.1507   -1.5801    0.0000 N   0  0  0  0  0  0  0  0  0  0  0  0
   -3.8768   -3.0549    0.0000 C   0  0  0  0  0  0  0  0  0  0  0  0
   -2.4626   -3.5550    0.0000 C   0  0  0  0  0  0  0  0  0  0  0  0
   -1.3224   -2.5804    0.0000 C   0  0  0  0  0  0  0  0  0  0  0  0
    0.0918   -3.0805    0.0000 C   0  0  0  0  0  0  0  0  0  0  0  0
    1.2320   -2.1059    0.0000 C   0  0  0  0  0  0  0  0  0  0  0  0
    0.9580   -0.6311    0.0000 C   0  0  0  0  0  0  0  0  0  0  0  0
    2.0982    0.3435    0.0000 C   0  0  0  0  0  0  0  0  0  0  0  0
    1.8243    1.8183    0.0000 O   0  0  0  0  0  0  0  0  0  0  0  0
    3.5124   -0.1566    0.0000 N   0  0  0  0  0  0  0  0  0  0  0  0
    4.6526    0.8181    0.0000 C   0  0  0  0  0  0  0  0  0  0  0  0
    6.0668    0.3179    0.0000 C   0  0  0  0  0  0  0  0  0  0  0  0
    7.2070    1.2926    0.0000 O   0  0  0  0  0  0  0  0  0  0  0  0
    8.6212    0.7924    0.0000 C   0  0  0  0  0  0  0  0  0  0  0  0
    8.8951   -0.6823    0.0000 C   0  0  0  0  0  0  0  0  0  0  0  0
   10.3093   -1.1825    0.0000 C   0  0  0  0  0  0  0  0  0  0  0  0
   11.4495   -0.2078    0.0000 C   0  0  0  0  0  0  0  0  0  0  0  0
   11.1755    1.2669    0.0000 C   0  0  0  0  0  0  0  0  0  0  0  0
    9.7614    1.7671    0.0000 C   0  0  0  0  0  0  0  0  0  0  0  0
   -0.4561   -0.1310    0.0000 N   0  0  0  0  0  0  0  0  0  0  0  0
   -1.5963   -1.1056    0.0000 C   0  0  0  0  0  0  0  0  0  0  0  0
   -3.0105   -0.6055    0.0000 C   0  0  0  0  0  0  0  0  0  0  0  0
  1  2  1  0
  2  3  1  0
  3  4  2  0
  4  5  1  0
  5  6  2  0
  6  7  1  0
  6  8  1  0
  8  9  2  0
  9 10  1  0
 10 11  2  0
 10 12  1  0
 12 13  1  0
 13 14  1  0
 14 15  1  0
 15 16  2  0
 16 17  1  0
 17 18  2  0
 18 19  1  0
 19 20  2  0
 19 21  1  0
 21 22  1  0
 22 23  1  0
 23 24  1  0
 24 25  1  0
 25 26  2  0
 26 27  1  0
 27 28  2  0
 28 29  1  0
 29 30  2  0
 18 31  1  0
 31 32  2  0
 32 33  1  0
  9  3  1  0
 33 12  1  0
 32 15  1  0
 30 25  1  0
M  END
>  <Compound_ID>  (136) 
LIB136

>  <SMILES>  (136) 
COc1ncc(Br)cc1C(=O)N1CCc2ccc(C(=O)NCCOc3ccccc3)nc2C1

>  <R1_reagent>  (136) 
COc1ncc(Br)cc1C(=O)O

>  <R1_ID>  (136) 
R-008750

>  <N_reaction>  (136) 
Amidation

>  <R2_amine>  (136) 
NCCOc1ccccc1

>  <R2_ID>  (136) 
R-001007

>  <MW>  (136) 
511.4

>  <LogP>  (136) 
3.26

>  <HBD>  (136) 
1

>  <HBA>  (136) 
6

>  <RotB>  (136) 
7

>  <ASMS_similarity>  (136) 
0.5733

>  <Priority_tier>  (136) 
Tier3_explore

>  <Scaffold>  (136) 
OC(=O)c1ccc2CCNCc2n1

$$$$

     RDKit          2D

 26 28  0  0  0  0  0  0  0  0999 V2000
   -6.9050    3.2997    0.0000 C   0  0  0  0  0  0  0  0  0  0  0  0
   -5.7492    2.3436    0.0000 C   0  0  0  0  0  0  0  0  0  0  0  0
   -5.8434    0.8465    0.0000 C   0  0  0  0  0  0  0  0  0  0  0  0
   -4.4487    0.2944    0.0000 C   0  0  0  0  0  0  0  0  0  0  0  0
   -4.0756   -1.1585    0.0000 C   0  0  0  0  0  0  0  0  0  0  0  0
   -5.1473   -2.2080    0.0000 O   0  0  0  0  0  0  0  0  0  0  0  0
   -2.6309   -1.5619    0.0000 N   0  0  0  0  0  0  0  0  0  0  0  0
   -2.2578   -3.0147    0.0000 C   0  0  0  0  0  0  0  0  0  0  0  0
   -0.8130   -3.4181    0.0000 C   0  0  0  0  0  0  0  0  0  0  0  0
    0.2586   -2.3686    0.0000 C   0  0  0  0  0  0  0  0  0  0  0  0
    1.7034   -2.7719    0.0000 C   0  0  0  0  0  0  0  0  0  0  0  0
    2.7751   -1.7224    0.0000 C   0  0  0  0  0  0  0  0  0  0  0  0
    2.4020   -0.2695    0.0000 C   0  0  0  0  0  0  0  0  0  0  0  0
    3.4737    0.7800    0.0000 C   0  0  0  0  0  0  0  0  0  0  0  0
    3.1006    2.2329    0.0000 O   0  0  0  0  0  0  0  0  0  0  0  0
    4.9185    0.3767    0.0000 N   0  0  0  0  0  0  0  0  0  0  0  0
    5.9901    1.4262    0.0000 C   0  0  0  0  0  0  0  0  0  0  0  0
    7.4349    1.0228    0.0000 C   0  0  0  0  0  0  0  0  0  0  0  0
    8.5066    2.0723    0.0000 F   0  0  0  0  0  0  0  0  0  0  0  0
    7.8080   -0.4300    0.0000 F   0  0  0  0  0  0  0  0  0  0  0  0
    0.9573    0.1338    0.0000 N   0  0  0  0  0  0  0  0  0  0  0  0
   -0.1144   -0.9157    0.0000 C   0  0  0  0  0  0  0  0  0  0  0  0
   -1.5592   -0.5123    0.0000 C   0  0  0  0  0  0  0  0  0  0  0  0
   -3.4926    1.4501    0.0000 C   0  0  0  0  0  0  0  0  0  0  0  0
   -1.9955    1.3560    0.0000 C   0  0  0  0  0  0  0  0  0  0  0  0
   -4.2963    2.7166    0.0000 O   0  0  0  0  0  0  0  0  0  0  0  0
  1  2  1  0
  2  3  2  0
  3  4  1  0
  4  5  1  0
  5  6  2  0
  5  7  1  0
  7  8  1  0
  8  9  1  0
  9 10  1  0
 10 11  2  0
 11 12  1  0
 12 13  2  0
 13 14  1  0
 14 15  2  0
 14 16  1  0
 16 17  1  0
 17 18  1  0
 18 19  1  0
 18 20  1  0
 13 21  1  0
 21 22  2  0
 22 23  1  0
  4 24  2  0
 24 25  1  0
 24 26  1  0
 26  2  1  0
 23  7  1  0
 22 10  1  0
M  END
>  <Compound_ID>  (137) 
LIB137

>  <SMILES>  (137) 
Cc1cc(C(=O)N2CCc3ccc(C(=O)NCC(F)F)nc3C2)c(C)o1

>  <R1_reagent>  (137) 
Cc1cc(C(=O)Cl)c(C)o1

>  <R1_ID>  (137) 
R-000324

>  <N_reaction>  (137) 
Amidation

>  <R2_amine>  (137) 
NCC(F)F

>  <R2_ID>  (137) 
R-000710

>  <MW>  (137) 
363.4

>  <LogP>  (137) 
2.48

>  <HBD>  (137) 
1

>  <HBA>  (137) 
4

>  <RotB>  (137) 
4

>  <ASMS_similarity>  (137) 
0.5733

>  <Priority_tier>  (137) 
Tier3_explore

>  <Scaffold>  (137) 
OC(=O)c1ccc2CCNCc2n1

$$$$

     RDKit          2D

 33 36  0  0  0  0  0  0  0  0999 V2000
   -5.7917    5.3655    0.0000 C   0  0  0  0  0  0  0  0  0  0  0  0
   -6.8906    4.3445    0.0000 O   0  0  0  0  0  0  0  0  0  0  0  0
   -6.5559    2.8823    0.0000 C   0  0  0  0  0  0  0  0  0  0  0  0
   -5.1222    2.4411    0.0000 C   0  0  0  0  0  0  0  0  0  0  0  0
   -4.7875    0.9790    0.0000 C   0  0  0  0  0  0  0  0  0  0  0  0
   -5.8863   -0.0420    0.0000 C   0  0  0  0  0  0  0  0  0  0  0  0
   -5.5516   -1.5042    0.0000 C   0  0  0  0  0  0  0  0  0  0  0  0
   -6.6505   -2.5252    0.0000 O   0  0  0  0  0  0  0  0  0  0  0  0
   -4.1179   -1.9454    0.0000 N   0  0  0  0  0  0  0  0  0  0  0  0
   -3.7832   -3.4075    0.0000 C   0  0  0  0  0  0  0  0  0  0  0  0
   -2.3495   -3.8487    0.0000 C   0  0  0  0  0  0  0  0  0  0  0  0
   -1.2506   -2.8277    0.0000 C   0  0  0  0  0  0  0  0  0  0  0  0
    0.1830   -3.2689    0.0000 C   0  0  0  0  0  0  0  0  0  0  0  0
    1.2819   -2.2479    0.0000 C   0  0  0  0  0  0  0  0  0  0  0  0
    0.9472   -0.7857    0.0000 C   0  0  0  0  0  0  0  0  0  0  0  0
    2.0461    0.2353    0.0000 C   0  0  0  0  0  0  0  0  0  0  0  0
    1.7113    1.6975    0.0000 O   0  0  0  0  0  0  0  0  0  0  0  0
    3.4797   -0.2059    0.0000 N   0  0  0  0  0  0  0  0  0  0  0  0
    4.5786    0.8151    0.0000 C   0  0  0  0  0  0  0  0  0  0  0  0
    6.0123    0.3740    0.0000 C   0  0  0  0  0  0  0  0  0  0  0  0
    7.1112    1.3950    0.0000 O   0  0  0  0  0  0  0  0  0  0  0  0
    8.5448    0.9538    0.0000 C   0  0  0  0  0  0  0  0  0  0  0  0
    8.8796   -0.5084    0.0000 C   0  0  0  0  0  0  0  0  0  0  0  0
   10.3132   -0.9495    0.0000 C   0  0  0  0  0  0  0  0  0  0  0  0
   11.4121    0.0714    0.0000 C   0  0  0  0  0  0  0  0  0  0  0  0
   11.0774    1.5336    0.0000 C   0  0  0  0  0  0  0  0  0  0  0  0
    9.6437    1.9748    0.0000 C   0  0  0  0  0  0  0  0  0  0  0  0
   -0.4865   -0.3445    0.0000 N   0  0  0  0  0  0  0  0  0  0  0  0
   -1.5854   -1.3655    0.0000 C   0  0  0  0  0  0  0  0  0  0  0  0
   -3.0190   -0.9244    0.0000 C   0  0  0  0  0  0  0  0  0  0  0  0
   -7.3200    0.3991    0.0000 C   0  0  0  0  0  0  0  0  0  0  0  0
   -8.4189   -0.6219    0.0000 F   0  0  0  0  0  0  0  0  0  0  0  0
   -7.6548    1.8613    0.0000 C   0  0  0  0  0  0  0  0  0  0  0  0
  1  2  1  0
  2  3  1  0
  3  4  2  0
  4  5  1  0
  5  6  2  0
  6  7  1  0
  7  8  2  0
  7  9  1  0
  9 10  1  0
 10 11  1  0
 11 12  1  0
 12 13  2  0
 13 14  1  0
 14 15  2  0
 15 16  1  0
 16 17  2  0
 16 18  1  0
 18 19  1  0
 19 20  1  0
 20 21  1  0
 21 22  1  0
 22 23  2  0
 23 24  1  0
 24 25  2  0
 25 26  1  0
 26 27  2  0
 15 28  1  0
 28 29  2  0
 29 30  1  0
  6 31  1  0
 31 32  1  0
 31 33  2  0
 33  3  1  0
 30  9  1  0
 29 12  1  0
 27 22  1  0
M  END
>  <Compound_ID>  (138) 
LIB138

>  <SMILES>  (138) 
COc1ccc(C(=O)N2CCc3ccc(C(=O)NCCOc4ccccc4)nc3C2)c(F)c1

>  <R1_reagent>  (138) 
COc1ccc(C(=O)O)c(F)c1

>  <R1_ID>  (138) 
R-011340

>  <N_reaction>  (138) 
Amidation

>  <R2_amine>  (138) 
NCCOc1ccccc1

>  <R2_ID>  (138) 
R-001007

>  <MW>  (138) 
449.5

>  <LogP>  (138) 
3.24

>  <HBD>  (138) 
1

>  <HBA>  (138) 
5

>  <RotB>  (138) 
7

>  <ASMS_similarity>  (138) 
0.5733

>  <Priority_tier>  (138) 
Tier3_explore

>  <Scaffold>  (138) 
OC(=O)c1ccc2CCNCc2n1

$$$$

     RDKit          2D

 34 37  0  0  0  0  0  0  0  0999 V2000
   -6.5095    5.1331    0.0000 C   0  0  0  0  0  0  0  0  0  0  0  0
   -6.4616    3.6339    0.0000 C   0  0  0  0  0  0  0  0  0  0  0  0
   -5.1393    2.9257    0.0000 N   0  0  0  0  0  0  0  0  0  0  0  0
   -5.0914    1.4265    0.0000 C   0  0  0  0  0  0  0  0  0  0  0  0
   -6.3659    0.6354    0.0000 C   0  0  0  0  0  0  0  0  0  0  0  0
   -6.3180   -0.8638    0.0000 C   0  0  0  0  0  0  0  0  0  0  0  0
   -7.5925   -1.6549    0.0000 O   0  0  0  0  0  0  0  0  0  0  0  0
   -4.9957   -1.5720    0.0000 N   0  0  0  0  0  0  0  0  0  0  0  0
   -4.9478   -3.0712    0.0000 C   0  0  0  0  0  0  0  0  0  0  0  0
   -3.6255   -3.7794    0.0000 C   0  0  0  0  0  0  0  0  0  0  0  0
   -2.3511   -2.9883    0.0000 C   0  0  0  0  0  0  0  0  0  0  0  0
   -1.0288   -3.6965    0.0000 C   0  0  0  0  0  0  0  0  0  0  0  0
    0.2457   -2.9054    0.0000 C   0  0  0  0  0  0  0  0  0  0  0  0
    0.1978   -1.4062    0.0000 C   0  0  0  0  0  0  0  0  0  0  0  0
    1.4722   -0.6151    0.0000 C   0  0  0  0  0  0  0  0  0  0  0  0
    1.4244    0.8841    0.0000 O   0  0  0  0  0  0  0  0  0  0  0  0
    2.7946   -1.3233    0.0000 N   0  0  0  0  0  0  0  0  0  0  0  0
    4.0690   -0.5322    0.0000 C   0  0  0  0  0  0  0  0  0  0  0  0
    5.3913   -1.2404    0.0000 C   0  0  0  0  0  0  0  0  0  0  0  0
    6.6657   -0.4493    0.0000 C   0  0  0  0  0  0  0  0  0  0  0  0
    7.9881   -1.1575    0.0000 C   0  0  0  0  0  0  0  0  0  0  0  0
    9.2625   -0.3664    0.0000 C   0  0  0  0  0  0  0  0  0  0  0  0
    9.2146    1.1328    0.0000 C   0  0  0  0  0  0  0  0  0  0  0  0
    7.8923    1.8410    0.0000 C   0  0  0  0  0  0  0  0  0  0  0  0
    6.6179    1.0499    0.0000 C   0  0  0  0  0  0  0  0  0  0  0  0
    5.2956    1.7581    0.0000 C   0  0  0  0  0  0  0  0  0  0  0  0
    3.9733    2.4663    0.0000 F   0  0  0  0  0  0  0  0  0  0  0  0
    6.0037    3.0804    0.0000 F   0  0  0  0  0  0  0  0  0  0  0  0
    4.5874    0.4358    0.0000 F   0  0  0  0  0  0  0  0  0  0  0  0
   -1.1245   -0.6980    0.0000 N   0  0  0  0  0  0  0  0  0  0  0  0
   -2.3990   -1.4891    0.0000 C   0  0  0  0  0  0  0  0  0  0  0  0
   -3.7213   -0.7809    0.0000 C   0  0  0  0  0  0  0  0  0  0  0  0
   -7.6882    1.3436    0.0000 C   0  0  0  0  0  0  0  0  0  0  0  0
   -7.7361    2.8428    0.0000 N   0  0  0  0  0  0  0  0  0  0  0  0
  1  2  1  0
  2  3  2  0
  3  4  1  0
  4  5  2  0
  5  6  1  0
  6  7  2  0
  6  8  1  0
  8  9  1  0
  9 10  1  0
 10 11  1  0
 11 12  2  0
 12 13  1  0
 13 14  2  0
 14 15  1  0
 15 16  2  0
 15 17  1  0
 17 18  1  0
 18 19  1  0
 19 20  1  0
 20 21  2  0
 21 22  1  0
 22 23  2  0
 23 24  1  0
 24 25  2  0
 25 26  1  0
 26 27  1  0
 26 28  1  0
 26 29  1  0
 14 30  1  0
 30 31  2  0
 31 32  1  0
  5 33  1  0
 33 34  2  0
 34  2  1  0
 32  8  1  0
 31 11  1  0
 25 20  1  0
M  END
>  <Compound_ID>  (139) 
LIB139

>  <SMILES>  (139) 
Cc1ncc(C(=O)N2CCc3ccc(C(=O)NCCc4ccccc4C(F)(F)F)nc3C2)cn1

>  <R1_reagent>  (139) 
Cc1ncc(C(=O)O)cn1

>  <R1_ID>  (139) 
R-009309

>  <N_reaction>  (139) 
Amidation

>  <R2_amine>  (139) 
NCCc1ccccc1C(F)(F)F

>  <R2_ID>  (139) 
R-009310

>  <MW>  (139) 
469.5

>  <LogP>  (139) 
3.37

>  <HBD>  (139) 
1

>  <HBA>  (139) 
5

>  <RotB>  (139) 
5

>  <ASMS_similarity>  (139) 
0.5732

>  <Priority_tier>  (139) 
Tier3_explore

>  <Scaffold>  (139) 
OC(=O)c1ccc2CCNCc2n1

$$$$

     RDKit          2D

 27 29  0  0  0  0  0  0  0  0999 V2000
   -5.8509    4.4150    0.0000 C   0  0  0  0  0  0  0  0  0  0  0  0
   -5.4541    2.9684    0.0000 C   0  0  0  0  0  0  0  0  0  0  0  0
   -4.0029    2.5888    0.0000 N   0  0  0  0  0  0  0  0  0  0  0  0
   -3.6061    1.1423    0.0000 C   0  0  0  0  0  0  0  0  0  0  0  0
   -4.6604    0.0753    0.0000 C   0  0  0  0  0  0  0  0  0  0  0  0
   -4.2636   -1.3712    0.0000 C   0  0  0  0  0  0  0  0  0  0  0  0
   -5.3180   -2.4382    0.0000 O   0  0  0  0  0  0  0  0  0  0  0  0
   -2.8124   -1.7509    0.0000 N   0  0  0  0  0  0  0  0  0  0  0  0
   -2.4156   -3.1974    0.0000 C   0  0  0  0  0  0  0  0  0  0  0  0
   -0.9644   -3.5770    0.0000 C   0  0  0  0  0  0  0  0  0  0  0  0
    0.0899   -2.5101    0.0000 C   0  0  0  0  0  0  0  0  0  0  0  0
    1.5411   -2.8897    0.0000 C   0  0  0  0  0  0  0  0  0  0  0  0
    2.5954   -1.8228    0.0000 C   0  0  0  0  0  0  0  0  0  0  0  0
    2.1986   -0.3762    0.0000 C   0  0  0  0  0  0  0  0  0  0  0  0
    3.2529    0.6907    0.0000 C   0  0  0  0  0  0  0  0  0  0  0  0
    2.8561    2.1373    0.0000 O   0  0  0  0  0  0  0  0  0  0  0  0
    4.7041    0.3111    0.0000 N   0  0  0  0  0  0  0  0  0  0  0  0
    5.7584    1.3780    0.0000 C   0  0  0  0  0  0  0  0  0  0  0  0
    7.2096    0.9984    0.0000 C   0  0  0  0  0  0  0  0  0  0  0  0
    8.6608    0.6188    0.0000 F   0  0  0  0  0  0  0  0  0  0  0  0
    7.5892    2.4496    0.0000 F   0  0  0  0  0  0  0  0  0  0  0  0
    6.8300   -0.4527    0.0000 F   0  0  0  0  0  0  0  0  0  0  0  0
    0.7474    0.0034    0.0000 N   0  0  0  0  0  0  0  0  0  0  0  0
   -0.3069   -1.0635    0.0000 C   0  0  0  0  0  0  0  0  0  0  0  0
   -1.7581   -0.6839    0.0000 C   0  0  0  0  0  0  0  0  0  0  0  0
   -6.1116    0.4549    0.0000 C   0  0  0  0  0  0  0  0  0  0  0  0
   -6.5084    1.9015    0.0000 N   0  0  0  0  0  0  0  0  0  0  0  0
  1  2  1  0
  2  3  2  0
  3  4  1  0
  4  5  2  0
  5  6  1  0
  6  7  2  0
  6  8  1  0
  8  9  1  0
  9 10  1  0
 10 11  1  0
 11 12  2  0
 12 13  1  0
 13 14  2  0
 14 15  1  0
 15 16  2  0
 15 17  1  0
 17 18  1  0
 18 19  1  0
 19 20  1  0
 19 21  1  0
 19 22  1  0
 14 23  1  0
 23 24  2  0
 24 25  1  0
  5 26  1  0
 26 27  2  0
 27  2  1  0
 25  8  1  0
 24 11  1  0
M  END
>  <Compound_ID>  (140) 
LIB140

>  <SMILES>  (140) 
Cc1ncc(C(=O)N2CCc3ccc(C(=O)NCC(F)(F)F)nc3C2)cn1

>  <R1_reagent>  (140) 
Cc1ncc(C(=O)O)cn1

>  <R1_ID>  (140) 
R-009309

>  <N_reaction>  (140) 
Amidation

>  <R2_amine>  (140) 
NCC(F)(F)F

>  <R2_ID>  (140) 
R-000822

>  <MW>  (140) 
379.3

>  <LogP>  (140) 
1.67

>  <HBD>  (140) 
1

>  <HBA>  (140) 
5

>  <RotB>  (140) 
3

>  <ASMS_similarity>  (140) 
0.5714

>  <Priority_tier>  (140) 
Tier3_explore

>  <Scaffold>  (140) 
OC(=O)c1ccc2CCNCc2n1

$$$$

     RDKit          2D

 29 32  0  0  0  0  0  0  0  0999 V2000
   -9.1725    2.6948    0.0000 C   0  0  0  0  0  0  0  0  0  0  0  0
   -8.6640    1.2836    0.0000 O   0  0  0  0  0  0  0  0  0  0  0  0
   -7.1877    1.0183    0.0000 C   0  0  0  0  0  0  0  0  0  0  0  0
   -6.2198    2.1643    0.0000 C   0  0  0  0  0  0  0  0  0  0  0  0
   -4.7434    1.8990    0.0000 C   0  0  0  0  0  0  0  0  0  0  0  0
   -4.2350    0.4878    0.0000 C   0  0  0  0  0  0  0  0  0  0  0  0
   -2.7586    0.2226    0.0000 N   0  0  0  0  0  0  0  0  0  0  0  0
   -2.2501   -1.1886    0.0000 C   0  0  0  0  0  0  0  0  0  0  0  0
   -3.2180   -2.3346    0.0000 O   0  0  0  0  0  0  0  0  0  0  0  0
   -0.7738   -1.4539    0.0000 C   0  0  0  0  0  0  0  0  0  0  0  0
   -0.2653   -2.8651    0.0000 C   0  0  0  0  0  0  0  0  0  0  0  0
    1.2111   -3.1303    0.0000 C   0  0  0  0  0  0  0  0  0  0  0  0
    2.1789   -1.9844    0.0000 C   0  0  0  0  0  0  0  0  0  0  0  0
    1.6705   -0.5732    0.0000 C   0  0  0  0  0  0  0  0  0  0  0  0
    0.1941   -0.3079    0.0000 N   0  0  0  0  0  0  0  0  0  0  0  0
    2.6384    0.5727    0.0000 C   0  0  0  0  0  0  0  0  0  0  0  0
    4.1147    0.3075    0.0000 N   0  0  0  0  0  0  0  0  0  0  0  0
    5.0826    1.4534    0.0000 C   0  0  0  0  0  0  0  0  0  0  0  0
    4.5742    2.8646    0.0000 O   0  0  0  0  0  0  0  0  0  0  0  0
    6.5590    1.1882    0.0000 C   0  0  0  0  0  0  0  0  0  0  0  0
    7.6414    2.2267    0.0000 C   0  0  0  0  0  0  0  0  0  0  0  0
    8.9635    1.5182    0.0000 C   0  0  0  0  0  0  0  0  0  0  0  0
    8.6983    0.0418    0.0000 S   0  0  0  0  0  0  0  0  0  0  0  0
    7.2122   -0.1621    0.0000 C   0  0  0  0  0  0  0  0  0  0  0  0
    4.6232   -1.1037    0.0000 C   0  0  0  0  0  0  0  0  0  0  0  0
    3.6553   -2.2496    0.0000 C   0  0  0  0  0  0  0  0  0  0  0  0
   -5.2029   -0.6581    0.0000 C   0  0  0  0  0  0  0  0  0  0  0  0
   -6.6792   -0.3929    0.0000 C   0  0  0  0  0  0  0  0  0  0  0  0
   -7.6471   -1.5388    0.0000 Cl  0  0  0  0  0  0  0  0  0  0  0  0
  1  2  1  0
  2  3  1  0
  3  4  2  0
  4  5  1  0
  5  6  2  0
  6  7  1  0
  7  8  1  0
  8  9  2  0
  8 10  1  0
 10 11  2  0
 11 12  1  0
 12 13  2  0
 13 14  1  0
 14 15  2  0
 14 16  1  0
 16 17  1  0
 17 18  1  0
 18 19  2  0
 18 20  1  0
 20 21  1  0
 21 22  2  0
 22 23  1  0
 23 24  1  0
 17 25  1  0
 25 26  1  0
  6 27  1  0
 27 28  2  0
 28 29  1  0
 28  3  1  0
 15 10  1  0
 24 20  2  0
 26 13  1  0
M  END
>  <Compound_ID>  (141) 
LIB141

>  <SMILES>  (141) 
COc1ccc(NC(=O)c2ccc3c(n2)CN(C(=O)c2ccsc2)CC3)cc1Cl

>  <R1_reagent>  (141) 
O=C(O)c1ccsc1

>  <R1_ID>  (141) 
R-007563

>  <N_reaction>  (141) 
Amidation

>  <R2_amine>  (141) 
COc1ccc(N)cc1Cl

>  <R2_ID>  (141) 
R-003711

>  <MW>  (141) 
427.9

>  <LogP>  (141) 
4.26

>  <HBD>  (141) 
1

>  <HBA>  (141) 
5

>  <RotB>  (141) 
4

>  <ASMS_similarity>  (141) 
0.5714

>  <Priority_tier>  (141) 
Tier3_explore

>  <Scaffold>  (141) 
OC(=O)c1ccc2CCNCc2n1

$$$$

     RDKit          2D

 30 32  0  0  0  0  0  0  0  0999 V2000
   -9.7097   -2.3611    0.0000 C   0  0  0  0  0  0  0  0  0  0  0  0
   -9.1988   -0.9508    0.0000 C   0  0  0  0  0  0  0  0  0  0  0  0
   -8.6879    0.4595    0.0000 C   0  0  0  0  0  0  0  0  0  0  0  0
  -10.6091   -0.4399    0.0000 C   0  0  0  0  0  0  0  0  0  0  0  0
   -7.7885   -1.4617    0.0000 O   0  0  0  0  0  0  0  0  0  0  0  0
   -6.6409   -0.4957    0.0000 C   0  0  0  0  0  0  0  0  0  0  0  0
   -6.9036    0.9811    0.0000 O   0  0  0  0  0  0  0  0  0  0  0  0
   -5.2306   -1.0066    0.0000 C   0  0  0  0  0  0  0  0  0  0  0  0
   -4.0830   -0.0407    0.0000 N   0  0  0  0  0  0  0  0  0  0  0  0
   -2.6727   -0.5516    0.0000 C   0  0  0  0  0  0  0  0  0  0  0  0
   -2.4100   -2.0284    0.0000 O   0  0  0  0  0  0  0  0  0  0  0  0
   -1.5251    0.4143    0.0000 C   0  0  0  0  0  0  0  0  0  0  0  0
   -1.7878    1.8911    0.0000 C   0  0  0  0  0  0  0  0  0  0  0  0
   -0.6402    2.8570    0.0000 C   0  0  0  0  0  0  0  0  0  0  0  0
    0.7701    2.3461    0.0000 C   0  0  0  0  0  0  0  0  0  0  0  0
    1.0328    0.8693    0.0000 C   0  0  0  0  0  0  0  0  0  0  0  0
   -0.1148   -0.0966    0.0000 N   0  0  0  0  0  0  0  0  0  0  0  0
    2.4432    0.3584    0.0000 C   0  0  0  0  0  0  0  0  0  0  0  0
    3.5908    1.3244    0.0000 N   0  0  0  0  0  0  0  0  0  0  0  0
    5.0011    0.8135    0.0000 C   0  0  0  0  0  0  0  0  0  0  0  0
    6.1487    1.7794    0.0000 O   0  0  0  0  0  0  0  0  0  0  0  0
    5.2638   -0.6634    0.0000 C   0  0  0  0  0  0  0  0  0  0  0  0
    6.6741   -1.1742    0.0000 C   0  0  0  0  0  0  0  0  0  0  0  0
    6.9368   -2.6511    0.0000 C   0  0  0  0  0  0  0  0  0  0  0  0
    8.3471   -3.1620    0.0000 C   0  0  0  0  0  0  0  0  0  0  0  0
    9.4947   -2.1960    0.0000 C   0  0  0  0  0  0  0  0  0  0  0  0
    9.2320   -0.7192    0.0000 C   0  0  0  0  0  0  0  0  0  0  0  0
    7.8217   -0.2083    0.0000 C   0  0  0  0  0  0  0  0  0  0  0  0
    3.3281    2.8012    0.0000 C   0  0  0  0  0  0  0  0  0  0  0  0
    1.9177    3.3121    0.0000 C   0  0  0  0  0  0  0  0  0  0  0  0
  1  2  1  0
  2  3  1  0
  2  4  1  0
  2  5  1  0
  5  6  1  0
  6  7  2  0
  6  8  1  0
  8  9  1  0
  9 10  1  0
 10 11  2  0
 10 12  1  0
 12 13  2  0
 13 14  1  0
 14 15  2  0
 15 16  1  0
 16 17  2  0
 16 18  1  0
 18 19  1  0
 19 20  1  0
 20 21  2  0
 20 22  1  0
 22 23  1  0
 23 24  2  0
 24 25  1  0
 25 26  2  0
 26 27  1  0
 27 28  2  0
 19 29  1  0
 29 30  1  0
 17 12  1  0
 28 23  1  0
 30 15  1  0
M  END
>  <Compound_ID>  (142) 
LIB142

>  <SMILES>  (142) 
CC(C)(C)OC(=O)CNC(=O)c1ccc2c(n1)CN(C(=O)Cc1ccccc1)CC2

>  <R1_reagent>  (142) 
O=C(Cl)Cc1ccccc1

>  <R1_ID>  (142) 
R-000189

>  <N_reaction>  (142) 
Amidation

>  <R2_amine>  (142) 
CC(C)(C)OC(=O)CN

>  <R2_ID>  (142) 
R-009177

>  <MW>  (142) 
409.5

>  <LogP>  (142) 
2.28

>  <HBD>  (142) 
1

>  <HBA>  (142) 
5

>  <RotB>  (142) 
5

>  <ASMS_similarity>  (142) 
0.5714

>  <Priority_tier>  (142) 
Tier3_explore

>  <Scaffold>  (142) 
OC(=O)c1ccc2CCNCc2n1

$$$$

     RDKit          2D

 26 28  0  0  0  0  0  0  0  0999 V2000
   -7.6558    0.3799    0.0000 C   0  0  0  0  0  0  0  0  0  0  0  0
   -6.2258   -0.0728    0.0000 O   0  0  0  0  0  0  0  0  0  0  0  0
   -5.1187    0.9393    0.0000 C   0  0  0  0  0  0  0  0  0  0  0  0
   -5.4416    2.4041    0.0000 N   0  0  0  0  0  0  0  0  0  0  0  0
   -4.3345    3.4162    0.0000 C   0  0  0  0  0  0  0  0  0  0  0  0
   -2.9045    2.9634    0.0000 C   0  0  0  0  0  0  0  0  0  0  0  0
   -2.5815    1.4986    0.0000 C   0  0  0  0  0  0  0  0  0  0  0  0
   -3.6886    0.4865    0.0000 C   0  0  0  0  0  0  0  0  0  0  0  0
   -3.3657   -0.9783    0.0000 C   0  0  0  0  0  0  0  0  0  0  0  0
   -4.4728   -1.9904    0.0000 O   0  0  0  0  0  0  0  0  0  0  0  0
   -1.9357   -1.4311    0.0000 N   0  0  0  0  0  0  0  0  0  0  0  0
   -1.6127   -2.8959    0.0000 C   0  0  0  0  0  0  0  0  0  0  0  0
   -0.1827   -3.3486    0.0000 C   0  0  0  0  0  0  0  0  0  0  0  0
    0.9244   -2.3365    0.0000 C   0  0  0  0  0  0  0  0  0  0  0  0
    2.3545   -2.7893    0.0000 C   0  0  0  0  0  0  0  0  0  0  0  0
    3.4616   -1.7772    0.0000 C   0  0  0  0  0  0  0  0  0  0  0  0
    3.1386   -0.3124    0.0000 C   0  0  0  0  0  0  0  0  0  0  0  0
    4.2457    0.6997    0.0000 C   0  0  0  0  0  0  0  0  0  0  0  0
    3.9228    2.1645    0.0000 O   0  0  0  0  0  0  0  0  0  0  0  0
    5.6758    0.2470    0.0000 N   0  0  0  0  0  0  0  0  0  0  0  0
    6.7829    1.2590    0.0000 C   0  0  0  0  0  0  0  0  0  0  0  0
    8.2129    0.8063    0.0000 C   0  0  0  0  0  0  0  0  0  0  0  0
    9.3200    1.8184    0.0000 O   0  0  0  0  0  0  0  0  0  0  0  0
    1.7086    0.1404    0.0000 N   0  0  0  0  0  0  0  0  0  0  0  0
    0.6015   -0.8717    0.0000 C   0  0  0  0  0  0  0  0  0  0  0  0
   -0.8286   -0.4190    0.0000 C   0  0  0  0  0  0  0  0  0  0  0  0
  1  2  1  0
  2  3  1  0
  3  4  2  0
  4  5  1  0
  5  6  2  0
  6  7  1  0
  7  8  2  0
  8  9  1  0
  9 10  2  0
  9 11  1  0
 11 12  1  0
 12 13  1  0
 13 14  1  0
 14 15  2  0
 15 16  1  0
 16 17  2  0
 17 18  1  0
 18 19  2  0
 18 20  1  0
 20 21  1  0
 21 22  1  0
 22 23  1  0
 17 24  1  0
 24 25  2  0
 25 26  1  0
  8  3  1  0
 26 11  1  0
 25 14  1  0
M  END
>  <Compound_ID>  (143) 
LIB143

>  <SMILES>  (143) 
COc1ncccc1C(=O)N1CCc2ccc(C(=O)NCCO)nc2C1

>  <R1_reagent>  (143) 
COc1ncccc1C(=O)O

>  <R1_ID>  (143) 
R-005184

>  <N_reaction>  (143) 
Amidation

>  <R2_amine>  (143) 
NCCO

>  <R2_ID>  (143) 
R-002330

>  <MW>  (143) 
356.4

>  <LogP>  (143) 
0.41

>  <HBD>  (143) 
2

>  <HBA>  (143) 
6

>  <RotB>  (143) 
5

>  <ASMS_similarity>  (143) 
0.5714

>  <Priority_tier>  (143) 
Tier3_explore

>  <Scaffold>  (143) 
OC(=O)c1ccc2CCNCc2n1

$$$$

     RDKit          2D

 32 35  0  0  0  0  0  0  0  0999 V2000
   -7.3242    4.6223    0.0000 C   0  0  0  0  0  0  0  0  0  0  0  0
   -7.6158    3.1509    0.0000 C   0  0  0  0  0  0  0  0  0  0  0  0
   -8.9776    2.5220    0.0000 C   0  0  0  0  0  0  0  0  0  0  0  0
   -8.8004    1.0325    0.0000 C   0  0  0  0  0  0  0  0  0  0  0  0
   -7.3290    0.7408    0.0000 C   0  0  0  0  0  0  0  0  0  0  0  0
   -6.7001   -0.6210    0.0000 C   0  0  0  0  0  0  0  0  0  0  0  0
   -5.2063   -0.7572    0.0000 N   0  0  0  0  0  0  0  0  0  0  0  0
   -4.5775   -2.1191    0.0000 C   0  0  0  0  0  0  0  0  0  0  0  0
   -5.4424   -3.3446    0.0000 O   0  0  0  0  0  0  0  0  0  0  0  0
   -3.0837   -2.2553    0.0000 C   0  0  0  0  0  0  0  0  0  0  0  0
   -2.4548   -3.6172    0.0000 C   0  0  0  0  0  0  0  0  0  0  0  0
   -0.9610   -3.7534    0.0000 C   0  0  0  0  0  0  0  0  0  0  0  0
   -0.0961   -2.5279    0.0000 C   0  0  0  0  0  0  0  0  0  0  0  0
   -0.7250   -1.1661    0.0000 C   0  0  0  0  0  0  0  0  0  0  0  0
   -2.2188   -1.0298    0.0000 N   0  0  0  0  0  0  0  0  0  0  0  0
    0.1400    0.0594    0.0000 C   0  0  0  0  0  0  0  0  0  0  0  0
    1.6338   -0.0769    0.0000 N   0  0  0  0  0  0  0  0  0  0  0  0
    2.4987    1.1487    0.0000 C   0  0  0  0  0  0  0  0  0  0  0  0
    1.8698    2.5105    0.0000 O   0  0  0  0  0  0  0  0  0  0  0  0
    3.9925    1.0124    0.0000 C   0  0  0  0  0  0  0  0  0  0  0  0
    4.6214   -0.3494    0.0000 C   0  0  0  0  0  0  0  0  0  0  0  0
    6.1152   -0.4857    0.0000 C   0  0  0  0  0  0  0  0  0  0  0  0
    6.9801    0.7398    0.0000 C   0  0  0  0  0  0  0  0  0  0  0  0
    8.4739    0.6035    0.0000 C   0  0  0  0  0  0  0  0  0  0  0  0
    9.9677    0.4672    0.0000 F   0  0  0  0  0  0  0  0  0  0  0  0
    8.3376   -0.8903    0.0000 F   0  0  0  0  0  0  0  0  0  0  0  0
    8.6102    2.0973    0.0000 F   0  0  0  0  0  0  0  0  0  0  0  0
    6.3512    2.1016    0.0000 C   0  0  0  0  0  0  0  0  0  0  0  0
    4.8574    2.2379    0.0000 N   0  0  0  0  0  0  0  0  0  0  0  0
    2.2626   -1.4387    0.0000 C   0  0  0  0  0  0  0  0  0  0  0  0
    1.3977   -2.6642    0.0000 C   0  0  0  0  0  0  0  0  0  0  0  0
   -6.5969    2.0501    0.0000 O   0  0  0  0  0  0  0  0  0  0  0  0
  1  2  1  0
  2  3  2  0
  3  4  1  0
  4  5  2  0
  5  6  1  0
  6  7  1  0
  7  8  1  0
  8  9  2  0
  8 10  1  0
 10 11  2  0
 11 12  1  0
 12 13  2  0
 13 14  1  0
 14 15  2  0
 14 16  1  0
 16 17  1  0
 17 18  1  0
 18 19  2  0
 18 20  1  0
 20 21  2  0
 21 22  1  0
 22 23  2  0
 23 24  1  0
 24 25  1  0
 24 26  1  0
 24 27  1  0
 23 28  1  0
 28 29  2  0
 17 30  1  0
 30 31  1  0
  5 32  1  0
 32  2  1  0
 15 10  1  0
 29 20  1  0
 31 13  1  0
M  END
>  <Compound_ID>  (144) 
LIB144

>  <SMILES>  (144) 
Cc1ccc(CNC(=O)c2ccc3c(n2)CN(C(=O)c2ccc(C(F)(F)F)cn2)CC3)o1

>  <R1_reagent>  (144) 
O=C(O)c1ccc(C(F)(F)F)cn1

>  <R1_ID>  (144) 
R-008730

>  <N_reaction>  (144) 
Amidation

>  <R2_amine>  (144) 
Cc1ccc(CN)o1

>  <R2_ID>  (144) 
R-003437

>  <MW>  (144) 
444.4

>  <LogP>  (144) 
3.53

>  <HBD>  (144) 
1

>  <HBA>  (144) 
5

>  <RotB>  (144) 
4

>  <ASMS_similarity>  (144) 
0.5696

>  <Priority_tier>  (144) 
Tier3_explore

>  <Scaffold>  (144) 
OC(=O)c1ccc2CCNCc2n1

$$$$

     RDKit          2D

 28 31  0  0  0  0  0  0  0  0999 V2000
   -6.3909    4.3485    0.0000 C   0  0  0  0  0  0  0  0  0  0  0  0
   -6.5839    2.8610    0.0000 C   0  0  0  0  0  0  0  0  0  0  0  0
   -7.9008    2.1428    0.0000 C   0  0  0  0  0  0  0  0  0  0  0  0
   -7.6247    0.6684    0.0000 C   0  0  0  0  0  0  0  0  0  0  0  0
   -6.1372    0.4754    0.0000 C   0  0  0  0  0  0  0  0  0  0  0  0
   -5.4190   -0.8415    0.0000 C   0  0  0  0  0  0  0  0  0  0  0  0
   -3.9194   -0.8780    0.0000 N   0  0  0  0  0  0  0  0  0  0  0  0
   -3.2013   -2.1949    0.0000 C   0  0  0  0  0  0  0  0  0  0  0  0
   -3.9826   -3.4753    0.0000 O   0  0  0  0  0  0  0  0  0  0  0  0
   -1.7017   -2.2313    0.0000 C   0  0  0  0  0  0  0  0  0  0  0  0
   -0.9835   -3.5482    0.0000 C   0  0  0  0  0  0  0  0  0  0  0  0
    0.5160   -3.5847    0.0000 C   0  0  0  0  0  0  0  0  0  0  0  0
    1.2974   -2.3043    0.0000 C   0  0  0  0  0  0  0  0  0  0  0  0
    0.5792   -0.9874    0.0000 C   0  0  0  0  0  0  0  0  0  0  0  0
   -0.9203   -0.9509    0.0000 N   0  0  0  0  0  0  0  0  0  0  0  0
    1.3606    0.2930    0.0000 C   0  0  0  0  0  0  0  0  0  0  0  0
    2.8602    0.2565    0.0000 N   0  0  0  0  0  0  0  0  0  0  0  0
    3.6415    1.5369    0.0000 C   0  0  0  0  0  0  0  0  0  0  0  0
    2.9233    2.8538    0.0000 O   0  0  0  0  0  0  0  0  0  0  0  0
    5.1411    1.5005    0.0000 C   0  0  0  0  0  0  0  0  0  0  0  0
    6.0520    2.6922    0.0000 C   0  0  0  0  0  0  0  0  0  0  0  0
    7.4669    2.1941    0.0000 C   0  0  0  0  0  0  0  0  0  0  0  0
    7.4304    0.6945    0.0000 C   0  0  0  0  0  0  0  0  0  0  0  0
    8.6222   -0.2164    0.0000 C   0  0  0  0  0  0  0  0  0  0  0  0
    5.9930    0.2659    0.0000 O   0  0  0  0  0  0  0  0  0  0  0  0
    3.5783   -1.0604    0.0000 C   0  0  0  0  0  0  0  0  0  0  0  0
    2.7970   -2.3408    0.0000 C   0  0  0  0  0  0  0  0  0  0  0  0
   -5.4939    1.8305    0.0000 O   0  0  0  0  0  0  0  0  0  0  0  0
  1  2  1  0
  2  3  2  0
  3  4  1  0
  4  5  2  0
  5  6  1  0
  6  7  1  0
  7  8  1  0
  8  9  2  0
  8 10  1  0
 10 11  2  0
 11 12  1  0
 12 13  2  0
 13 14  1  0
 14 15  2  0
 14 16  1  0
 16 17  1  0
 17 18  1  0
 18 19  2  0
 18 20  1  0
 20 21  2  0
 21 22  1  0
 22 23  2  0
 23 24  1  0
 23 25  1  0
 17 26  1  0
 26 27  1  0
  5 28  1  0
 28  2  1  0
 15 10  1  0
 25 20  1  0
 27 13  1  0
M  END
>  <Compound_ID>  (145) 
LIB145

>  <SMILES>  (145) 
Cc1ccc(CNC(=O)c2ccc3c(n2)CN(C(=O)c2ccc(C)o2)CC3)o1

>  <R1_reagent>  (145) 
Cc1ccc(C(=O)O)o1

>  <R1_ID>  (145) 
R-000235

>  <N_reaction>  (145) 
Amidation

>  <R2_amine>  (145) 
Cc1ccc(CN)o1

>  <R2_ID>  (145) 
R-003437

>  <MW>  (145) 
379.4

>  <LogP>  (145) 
3.01

>  <HBD>  (145) 
1

>  <HBA>  (145) 
5

>  <RotB>  (145) 
4

>  <ASMS_similarity>  (145) 
0.5694

>  <Priority_tier>  (145) 
Tier3_explore

>  <Scaffold>  (145) 
OC(=O)c1ccc2CCNCc2n1

$$$$

     RDKit          2D

 27 29  0  0  0  0  0  0  0  0999 V2000
  -10.3817   -1.0542    0.0000 C   0  0  0  0  0  0  0  0  0  0  0  0
   -8.9635   -1.5428    0.0000 C   0  0  0  0  0  0  0  0  0  0  0  0
   -7.8313   -0.5589    0.0000 C   0  0  0  0  0  0  0  0  0  0  0  0
   -6.4131   -1.0475    0.0000 C   0  0  0  0  0  0  0  0  0  0  0  0
   -5.2809   -0.0636    0.0000 N   0  0  0  0  0  0  0  0  0  0  0  0
   -3.8627   -0.5521    0.0000 C   0  0  0  0  0  0  0  0  0  0  0  0
   -3.5767   -2.0246    0.0000 O   0  0  0  0  0  0  0  0  0  0  0  0
   -2.7305    0.4318    0.0000 C   0  0  0  0  0  0  0  0  0  0  0  0
   -3.0165    1.9043    0.0000 C   0  0  0  0  0  0  0  0  0  0  0  0
   -1.8843    2.8882    0.0000 C   0  0  0  0  0  0  0  0  0  0  0  0
   -0.4660    2.3996    0.0000 C   0  0  0  0  0  0  0  0  0  0  0  0
   -0.1801    0.9271    0.0000 C   0  0  0  0  0  0  0  0  0  0  0  0
   -1.3123   -0.0568    0.0000 N   0  0  0  0  0  0  0  0  0  0  0  0
    1.2381    0.4385    0.0000 C   0  0  0  0  0  0  0  0  0  0  0  0
    2.3704    1.4225    0.0000 N   0  0  0  0  0  0  0  0  0  0  0  0
    3.7886    0.9339    0.0000 C   0  0  0  0  0  0  0  0  0  0  0  0
    4.9208    1.9178    0.0000 O   0  0  0  0  0  0  0  0  0  0  0  0
    4.0745   -0.5386    0.0000 C   0  0  0  0  0  0  0  0  0  0  0  0
    2.9423   -1.5225    0.0000 C   0  0  0  0  0  0  0  0  0  0  0  0
    3.2283   -2.9950    0.0000 C   0  0  0  0  0  0  0  0  0  0  0  0
    4.6465   -3.4836    0.0000 C   0  0  0  0  0  0  0  0  0  0  0  0
    5.7787   -2.4997    0.0000 N   0  0  0  0  0  0  0  0  0  0  0  0
    5.4927   -1.0272    0.0000 C   0  0  0  0  0  0  0  0  0  0  0  0
    6.6250   -0.0433    0.0000 O   0  0  0  0  0  0  0  0  0  0  0  0
    8.0432   -0.5318    0.0000 C   0  0  0  0  0  0  0  0  0  0  0  0
    2.0844    2.8949    0.0000 C   0  0  0  0  0  0  0  0  0  0  0  0
    0.6662    3.3835    0.0000 C   0  0  0  0  0  0  0  0  0  0  0  0
  1  2  1  0
  2  3  1  0
  3  4  1  0
  4  5  1  0
  5  6  1  0
  6  7  2  0
  6  8  1  0
  8  9  2  0
  9 10  1  0
 10 11  2  0
 11 12  1  0
 12 13  2  0
 12 14  1  0
 14 15  1  0
 15 16  1  0
 16 17  2  0
 16 18  1  0
 18 19  2  0
 19 20  1  0
 20 21  2  0
 21 22  1  0
 22 23  2  0
 23 24  1  0
 24 25  1  0
 15 26  1  0
 26 27  1  0
 13  8  1  0
 23 18  1  0
 27 11  1  0
M  END
>  <Compound_ID>  (146) 
LIB146

>  <SMILES>  (146) 
CCCCNC(=O)c1ccc2c(n1)CN(C(=O)c1cccnc1OC)CC2

>  <R1_reagent>  (146) 
COc1ncccc1C(=O)O

>  <R1_ID>  (146) 
R-005184

>  <N_reaction>  (146) 
Amidation

>  <R2_amine>  (146) 
CCCCN

>  <R2_ID>  (146) 
R-003885

>  <MW>  (146) 
368.4

>  <LogP>  (146) 
2.21

>  <HBD>  (146) 
1

>  <HBA>  (146) 
5

>  <RotB>  (146) 
6

>  <ASMS_similarity>  (146) 
0.5694

>  <Priority_tier>  (146) 
Tier3_explore

>  <Scaffold>  (146) 
OC(=O)c1ccc2CCNCc2n1

$$$$

     RDKit          2D

 38 42  0  0  0  0  0  0  0  0999 V2000
   -4.4281   -2.6841    0.0000 O   0  0  0  0  0  0  0  0  0  0  0  0
   -3.4924   -1.5118    0.0000 C   0  0  0  0  0  0  0  0  0  0  0  0
   -4.0397   -0.1153    0.0000 N   0  0  0  0  0  0  0  0  0  0  0  0
   -5.5229    0.1090    0.0000 C   0  0  0  0  0  0  0  0  0  0  0  0
   -6.0702    1.5055    0.0000 C   0  0  0  0  0  0  0  0  0  0  0  0
   -7.5534    1.7298    0.0000 C   0  0  0  0  0  0  0  0  0  0  0  0
   -8.1008    3.1263    0.0000 C   0  0  0  0  0  0  0  0  0  0  0  0
   -9.5839    3.3506    0.0000 C   0  0  0  0  0  0  0  0  0  0  0  0
  -10.5197    2.1783    0.0000 C   0  0  0  0  0  0  0  0  0  0  0  0
   -9.9723    0.7817    0.0000 C   0  0  0  0  0  0  0  0  0  0  0  0
   -8.4892    0.5575    0.0000 C   0  0  0  0  0  0  0  0  0  0  0  0
   -7.9418   -0.8391    0.0000 C   0  0  0  0  0  0  0  0  0  0  0  0
   -7.3944   -2.2357    0.0000 F   0  0  0  0  0  0  0  0  0  0  0  0
   -9.3384   -1.3865    0.0000 F   0  0  0  0  0  0  0  0  0  0  0  0
   -6.5452   -0.2917    0.0000 F   0  0  0  0  0  0  0  0  0  0  0  0
   -2.0092   -1.7361    0.0000 C   0  0  0  0  0  0  0  0  0  0  0  0
   -1.4618   -3.1326    0.0000 C   0  0  0  0  0  0  0  0  0  0  0  0
    0.0213   -3.3569    0.0000 C   0  0  0  0  0  0  0  0  0  0  0  0
    0.9571   -2.1846    0.0000 C   0  0  0  0  0  0  0  0  0  0  0  0
    0.4097   -0.7880    0.0000 C   0  0  0  0  0  0  0  0  0  0  0  0
   -1.0734   -0.5638    0.0000 N   0  0  0  0  0  0  0  0  0  0  0  0
    1.3455    0.3843    0.0000 C   0  0  0  0  0  0  0  0  0  0  0  0
    2.8286    0.1601    0.0000 N   0  0  0  0  0  0  0  0  0  0  0  0
    3.7644    1.3324    0.0000 C   0  0  0  0  0  0  0  0  0  0  0  0
    3.2170    2.7290    0.0000 O   0  0  0  0  0  0  0  0  0  0  0  0
    5.2475    1.1082    0.0000 C   0  0  0  0  0  0  0  0  0  0  0  0
    5.7949   -0.2884    0.0000 C   0  0  0  0  0  0  0  0  0  0  0  0
    7.2780   -0.5126    0.0000 C   0  0  0  0  0  0  0  0  0  0  0  0
    8.2138    0.6597    0.0000 C   0  0  0  0  0  0  0  0  0  0  0  0
    9.6970    0.4354    0.0000 N   0  0  0  0  0  0  0  0  0  0  0  0
   10.7501    1.5035    0.0000 C   0  0  0  0  0  0  0  0  0  0  0  0
   12.0914    0.8319    0.0000 C   0  0  0  0  0  0  0  0  0  0  0  0
   11.8672   -0.6512    0.0000 C   0  0  0  0  0  0  0  0  0  0  0  0
   10.3873   -0.8963    0.0000 N   0  0  0  0  0  0  0  0  0  0  0  0
    7.6664    2.0562    0.0000 N   0  0  0  0  0  0  0  0  0  0  0  0
    6.1833    2.2805    0.0000 C   0  0  0  0  0  0  0  0  0  0  0  0
    3.3760   -1.2365    0.0000 C   0  0  0  0  0  0  0  0  0  0  0  0
    2.4402   -2.4088    0.0000 C   0  0  0  0  0  0  0  0  0  0  0  0
  1  2  2  0
  2  3  1  0
  3  4  1  0
  4  5  1  0
  5  6  1  0
  6  7  2  0
  7  8  1  0
  8  9  2  0
  9 10  1  0
 10 11  2  0
 11 12  1  0
 12 13  1  0
 12 14  1  0
 12 15  1  0
  2 16  1  0
 16 17  2  0
 17 18  1  0
 18 19  2  0
 19 20  1  0
 20 21  2  0
 20 22  1  0
 22 23  1  0
 23 24  1  0
 24 25  2  0
 24 26  1  0
 26 27  2  0
 27 28  1  0
 28 29  2  0
 29 30  1  0
 30 31  1  0
 31 32  2  0
 32 33  1  0
 33 34  2  0
 29 35  1  0
 35 36  2  0
 23 37  1  0
 37 38  1  0
 11  6  1  0
 21 16  1  0
 36 26  1  0
 38 19  1  0
 34 30  1  0
M  END
>  <Compound_ID>  (147) 
LIB147

>  <SMILES>  (147) 
O=C(NCCc1ccccc1C(F)(F)F)c1ccc2c(n1)CN(C(=O)c1ccc(-n3cccn3)nc1)CC2

>  <R1_reagent>  (147) 
O=C(O)c1ccc(-n2cccn2)nc1

>  <R1_ID>  (147) 
R-005121

>  <N_reaction>  (147) 
Amidation

>  <R2_amine>  (147) 
NCCc1ccccc1C(F)(F)F

>  <R2_ID>  (147) 
R-009310

>  <MW>  (147) 
520.5

>  <LogP>  (147) 
3.85

>  <HBD>  (147) 
1

>  <HBA>  (147) 
6

>  <RotB>  (147) 
6

>  <ASMS_similarity>  (147) 
0.5682

>  <Priority_tier>  (147) 
Tier3_explore

>  <Scaffold>  (147) 
OC(=O)c1ccc2CCNCc2n1

$$$$

     RDKit          2D

 27 29  0  0  0  0  0  0  0  0999 V2000
   -1.7330    1.3533    0.0000 C   0  0  0  0  0  0  0  0  0  0  0  0
   -3.2301    1.4466    0.0000 C   0  0  0  0  0  0  0  0  0  0  0  0
   -4.0347    2.7126    0.0000 N   0  0  0  0  0  0  0  0  0  0  0  0
   -5.4873    2.3386    0.0000 N   0  0  0  0  0  0  0  0  0  0  0  0
   -6.6437    3.2940    0.0000 C   0  0  0  0  0  0  0  0  0  0  0  0
   -5.5805    0.8415    0.0000 C   0  0  0  0  0  0  0  0  0  0  0  0
   -6.8465    0.0369    0.0000 Cl  0  0  0  0  0  0  0  0  0  0  0  0
   -4.1855    0.2902    0.0000 C   0  0  0  0  0  0  0  0  0  0  0  0
   -3.8116   -1.1624    0.0000 C   0  0  0  0  0  0  0  0  0  0  0  0
   -4.8826   -2.2126    0.0000 O   0  0  0  0  0  0  0  0  0  0  0  0
   -2.3666   -1.5649    0.0000 N   0  0  0  0  0  0  0  0  0  0  0  0
   -1.9926   -3.0175    0.0000 C   0  0  0  0  0  0  0  0  0  0  0  0
   -0.5476   -3.4200    0.0000 C   0  0  0  0  0  0  0  0  0  0  0  0
    0.5234   -2.3698    0.0000 C   0  0  0  0  0  0  0  0  0  0  0  0
    1.9684   -2.7723    0.0000 C   0  0  0  0  0  0  0  0  0  0  0  0
    3.0395   -1.7221    0.0000 C   0  0  0  0  0  0  0  0  0  0  0  0
    2.6655   -0.2695    0.0000 C   0  0  0  0  0  0  0  0  0  0  0  0
    3.7366    0.7807    0.0000 C   0  0  0  0  0  0  0  0  0  0  0  0
    3.3626    2.2334    0.0000 O   0  0  0  0  0  0  0  0  0  0  0  0
    5.1816    0.3783    0.0000 N   0  0  0  0  0  0  0  0  0  0  0  0
    6.2526    1.4284    0.0000 C   0  0  0  0  0  0  0  0  0  0  0  0
    7.6976    1.0260    0.0000 C   0  0  0  0  0  0  0  0  0  0  0  0
    8.7686    2.0762    0.0000 F   0  0  0  0  0  0  0  0  0  0  0  0
    8.0716   -0.4266    0.0000 F   0  0  0  0  0  0  0  0  0  0  0  0
    1.2205    0.1330    0.0000 N   0  0  0  0  0  0  0  0  0  0  0  0
    0.1495   -0.9172    0.0000 C   0  0  0  0  0  0  0  0  0  0  0  0
   -1.2955   -0.5147    0.0000 C   0  0  0  0  0  0  0  0  0  0  0  0
  1  2  1  0
  2  3  2  0
  3  4  1  0
  4  5  1  0
  4  6  1  0
  6  7  1  0
  6  8  2  0
  8  9  1  0
  9 10  2  0
  9 11  1  0
 11 12  1  0
 12 13  1  0
 13 14  1  0
 14 15  2  0
 15 16  1  0
 16 17  2  0
 17 18  1  0
 18 19  2  0
 18 20  1  0
 20 21  1  0
 21 22  1  0
 22 23  1  0
 22 24  1  0
 17 25  1  0
 25 26  2  0
 26 27  1  0
  8  2  1  0
 27 11  1  0
 26 14  1  0
M  END
>  <Compound_ID>  (148) 
LIB148

>  <SMILES>  (148) 
Cc1nn(C)c(Cl)c1C(=O)N1CCc2ccc(C(=O)NCC(F)F)nc2C1

>  <R1_reagent>  (148) 
Cc1nn(C)c(Cl)c1C(=O)O

>  <R1_ID>  (148) 
R-005143

>  <N_reaction>  (148) 
Amidation

>  <R2_amine>  (148) 
NCC(F)F

>  <R2_ID>  (148) 
R-000710

>  <MW>  (148) 
397.8

>  <LogP>  (148) 
1.97

>  <HBD>  (148) 
1

>  <HBA>  (148) 
5

>  <RotB>  (148) 
4

>  <ASMS_similarity>  (148) 
0.5676

>  <Priority_tier>  (148) 
Tier3_explore

>  <Scaffold>  (148) 
OC(=O)c1ccc2CCNCc2n1

$$$$

     RDKit          2D

 28 30  0  0  0  0  0  0  0  0999 V2000
   -7.6138    0.2493    0.0000 C   0  0  0  0  0  0  0  0  0  0  0  0
   -6.1826   -0.1997    0.0000 O   0  0  0  0  0  0  0  0  0  0  0  0
   -5.0781    0.8152    0.0000 C   0  0  0  0  0  0  0  0  0  0  0  0
   -5.4048    2.2792    0.0000 C   0  0  0  0  0  0  0  0  0  0  0  0
   -4.3004    3.2942    0.0000 C   0  0  0  0  0  0  0  0  0  0  0  0
   -2.8692    2.8451    0.0000 C   0  0  0  0  0  0  0  0  0  0  0  0
   -2.5424    1.3812    0.0000 C   0  0  0  0  0  0  0  0  0  0  0  0
   -1.1112    0.9321    0.0000 O   0  0  0  0  0  0  0  0  0  0  0  0
   -0.0067    1.9471    0.0000 C   0  0  0  0  0  0  0  0  0  0  0  0
   -3.6469    0.3662    0.0000 C   0  0  0  0  0  0  0  0  0  0  0  0
   -3.3202   -1.0978    0.0000 C   0  0  0  0  0  0  0  0  0  0  0  0
   -4.4246   -2.1127    0.0000 O   0  0  0  0  0  0  0  0  0  0  0  0
   -1.8890   -1.5468    0.0000 N   0  0  0  0  0  0  0  0  0  0  0  0
   -1.5622   -3.0108    0.0000 C   0  0  0  0  0  0  0  0  0  0  0  0
   -0.1310   -3.4598    0.0000 C   0  0  0  0  0  0  0  0  0  0  0  0
    0.9735   -2.4449    0.0000 C   0  0  0  0  0  0  0  0  0  0  0  0
    2.4047   -2.8939    0.0000 C   0  0  0  0  0  0  0  0  0  0  0  0
    3.5092   -1.8790    0.0000 C   0  0  0  0  0  0  0  0  0  0  0  0
    3.1824   -0.4150    0.0000 C   0  0  0  0  0  0  0  0  0  0  0  0
    4.2869    0.6000    0.0000 C   0  0  0  0  0  0  0  0  0  0  0  0
    3.9602    2.0640    0.0000 O   0  0  0  0  0  0  0  0  0  0  0  0
    5.7181    0.1509    0.0000 N   0  0  0  0  0  0  0  0  0  0  0  0
    6.8226    1.1659    0.0000 C   0  0  0  0  0  0  0  0  0  0  0  0
    8.2538    0.7169    0.0000 C   0  0  0  0  0  0  0  0  0  0  0  0
    9.3583    1.7318    0.0000 O   0  0  0  0  0  0  0  0  0  0  0  0
    1.7512    0.0341    0.0000 N   0  0  0  0  0  0  0  0  0  0  0  0
    0.6467   -0.9809    0.0000 C   0  0  0  0  0  0  0  0  0  0  0  0
   -0.7845   -0.5319    0.0000 C   0  0  0  0  0  0  0  0  0  0  0  0
  1  2  1  0
  2  3  1  0
  3  4  2  0
  4  5  1  0
  5  6  2  0
  6  7  1  0
  7  8  1  0
  8  9  1  0
  7 10  2  0
 10 11  1  0
 11 12  2  0
 11 13  1  0
 13 14  1  0
 14 15  1  0
 15 16  1  0
 16 17  2  0
 17 18  1  0
 18 19  2  0
 19 20  1  0
 20 21  2  0
 20 22  1  0
 22 23  1  0
 23 24  1  0
 24 25  1  0
 19 26  1  0
 26 27  2  0
 27 28  1  0
 10  3  1  0
 28 13  1  0
 27 16  1  0
M  END
>  <Compound_ID>  (149) 
LIB149

>  <SMILES>  (149) 
COc1cccc(OC)c1C(=O)N1CCc2ccc(C(=O)NCCO)nc2C1

>  <R1_reagent>  (149) 
COc1cccc(OC)c1C(=O)O

>  <R1_ID>  (149) 
R-001054

>  <N_reaction>  (149) 
Amidation

>  <R2_amine>  (149) 
NCCO

>  <R2_ID>  (149) 
R-002330

>  <MW>  (149) 
385.4

>  <LogP>  (149) 
1.02

>  <HBD>  (149) 
2

>  <HBA>  (149) 
6

>  <RotB>  (149) 
6

>  <ASMS_similarity>  (149) 
0.5672

>  <Priority_tier>  (149) 
Tier3_explore

>  <Scaffold>  (149) 
OC(=O)c1ccc2CCNCc2n1

$$$$

     RDKit          2D

 25 27  0  0  0  0  0  0  0  0999 V2000
   -9.0277   -1.7638    0.0000 C   0  0  0  0  0  0  0  0  0  0  0  0
   -7.9128   -0.7603    0.0000 C   0  0  0  0  0  0  0  0  0  0  0  0
   -6.4863   -1.2241    0.0000 C   0  0  0  0  0  0  0  0  0  0  0  0
   -5.3714   -0.2206    0.0000 N   0  0  0  0  0  0  0  0  0  0  0  0
   -3.9449   -0.6844    0.0000 C   0  0  0  0  0  0  0  0  0  0  0  0
   -3.6333   -2.1517    0.0000 O   0  0  0  0  0  0  0  0  0  0  0  0
   -2.8300    0.3191    0.0000 C   0  0  0  0  0  0  0  0  0  0  0  0
   -3.1416    1.7864    0.0000 C   0  0  0  0  0  0  0  0  0  0  0  0
   -2.0267    2.7898    0.0000 C   0  0  0  0  0  0  0  0  0  0  0  0
   -0.6002    2.3261    0.0000 C   0  0  0  0  0  0  0  0  0  0  0  0
   -0.2886    0.8588    0.0000 C   0  0  0  0  0  0  0  0  0  0  0  0
   -1.4035   -0.1447    0.0000 N   0  0  0  0  0  0  0  0  0  0  0  0
    1.1379    0.3950    0.0000 C   0  0  0  0  0  0  0  0  0  0  0  0
    2.2528    1.3985    0.0000 N   0  0  0  0  0  0  0  0  0  0  0  0
    3.6793    0.9347    0.0000 C   0  0  0  0  0  0  0  0  0  0  0  0
    4.7942    1.9382    0.0000 O   0  0  0  0  0  0  0  0  0  0  0  0
    3.9909   -0.5326    0.0000 C   0  0  0  0  0  0  0  0  0  0  0  0
    2.8760   -1.5361    0.0000 C   0  0  0  0  0  0  0  0  0  0  0  0
    3.1876   -3.0034    0.0000 C   0  0  0  0  0  0  0  0  0  0  0  0
    4.6141   -3.4671    0.0000 C   0  0  0  0  0  0  0  0  0  0  0  0
    5.7290   -2.4637    0.0000 C   0  0  0  0  0  0  0  0  0  0  0  0
    5.4174   -0.9964    0.0000 C   0  0  0  0  0  0  0  0  0  0  0  0
    6.5323    0.0071    0.0000 F   0  0  0  0  0  0  0  0  0  0  0  0
    1.9412    2.8658    0.0000 C   0  0  0  0  0  0  0  0  0  0  0  0
    0.5147    3.3295    0.0000 C   0  0  0  0  0  0  0  0  0  0  0  0
  1  2  1  0
  2  3  1  0
  3  4  1  0
  4  5  1  0
  5  6  2  0
  5  7  1  0
  7  8  2  0
  8  9  1  0
  9 10  2  0
 10 11  1  0
 11 12  2  0
 11 13  1  0
 13 14  1  0
 14 15  1  0
 15 16  2  0
 15 17  1  0
 17 18  2  0
 18 19  1  0
 19 20  2  0
 20 21  1  0
 21 22  2  0
 22 23  1  0
 14 24  1  0
 24 25  1  0
 12  7  1  0
 22 17  1  0
 25 10  1  0
M  END
>  <Compound_ID>  (150) 
LIB150

>  <SMILES>  (150) 
CCCNC(=O)c1ccc2c(n1)CN(C(=O)c1ccccc1F)CC2

>  <R1_reagent>  (150) 
O=C(Cl)c1ccccc1F

>  <R1_ID>  (150) 
R-006199

>  <N_reaction>  (150) 
Amidation

>  <R2_amine>  (150) 
CCCN

>  <R2_ID>  (150) 
R-006291

>  <MW>  (150) 
341.4

>  <LogP>  (150) 
2.56

>  <HBD>  (150) 
1

>  <HBA>  (150) 
3

>  <RotB>  (150) 
4

>  <ASMS_similarity>  (150) 
0.5672

>  <Priority_tier>  (150) 
Tier3_explore

>  <Scaffold>  (150) 
OC(=O)c1ccc2CCNCc2n1

$$$$

     RDKit          2D

 26 28  0  0  0  0  0  0  0  0999 V2000
   -7.6886   -2.4289    0.0000 C   0  0  0  0  0  0  0  0  0  0  0  0
   -6.1942   -2.5587    0.0000 C   0  0  0  0  0  0  0  0  0  0  0  0
   -5.3347   -1.3294    0.0000 C   0  0  0  0  0  0  0  0  0  0  0  0
   -5.9694    0.0297    0.0000 C   0  0  0  0  0  0  0  0  0  0  0  0
   -7.4638    0.1595    0.0000 C   0  0  0  0  0  0  0  0  0  0  0  0
   -3.8403   -1.4592    0.0000 C   0  0  0  0  0  0  0  0  0  0  0  0
   -3.2055   -2.8183    0.0000 O   0  0  0  0  0  0  0  0  0  0  0  0
   -2.9807   -0.2299    0.0000 N   0  0  0  0  0  0  0  0  0  0  0  0
   -3.6155    1.1291    0.0000 C   0  0  0  0  0  0  0  0  0  0  0  0
   -2.7559    2.3584    0.0000 C   0  0  0  0  0  0  0  0  0  0  0  0
   -1.2615    2.2286    0.0000 C   0  0  0  0  0  0  0  0  0  0  0  0
   -0.4019    3.4579    0.0000 C   0  0  0  0  0  0  0  0  0  0  0  0
    1.0925    3.3281    0.0000 C   0  0  0  0  0  0  0  0  0  0  0  0
    1.7272    1.9690    0.0000 C   0  0  0  0  0  0  0  0  0  0  0  0
    3.2216    1.8392    0.0000 C   0  0  0  0  0  0  0  0  0  0  0  0
    4.0812    3.0685    0.0000 O   0  0  0  0  0  0  0  0  0  0  0  0
    3.8564    0.4802    0.0000 N   0  0  0  0  0  0  0  0  0  0  0  0
    5.3508    0.3504    0.0000 C   0  0  0  0  0  0  0  0  0  0  0  0
    5.9856   -1.0087    0.0000 C   0  0  0  0  0  0  0  0  0  0  0  0
    7.4582   -1.2940    0.0000 C   0  0  0  0  0  0  0  0  0  0  0  0
    7.6419   -2.7827    0.0000 C   0  0  0  0  0  0  0  0  0  0  0  0
    6.2829   -3.4175    0.0000 C   0  0  0  0  0  0  0  0  0  0  0  0
    5.2592   -2.3211    0.0000 O   0  0  0  0  0  0  0  0  0  0  0  0
    0.8677    0.7398    0.0000 N   0  0  0  0  0  0  0  0  0  0  0  0
   -0.6267    0.8696    0.0000 C   0  0  0  0  0  0  0  0  0  0  0  0
   -1.4863   -0.3597    0.0000 C   0  0  0  0  0  0  0  0  0  0  0  0
  1  2  1  0
  2  3  1  0
  3  4  1  0
  4  5  1  0
  3  6  1  0
  6  7  2  0
  6  8  1  0
  8  9  1  0
  9 10  1  0
 10 11  1  0
 11 12  2  0
 12 13  1  0
 13 14  2  0
 14 15  1  0
 15 16  2  0
 15 17  1  0
 17 18  1  0
 18 19  1  0
 19 20  2  0
 20 21  1  0
 21 22  2  0
 22 23  1  0
 14 24  1  0
 24 25  2  0
 25 26  1  0
 26  8  1  0
 25 11  1  0
 23 19  1  0
M  END
>  <Compound_ID>  (151) 
LIB151

>  <SMILES>  (151) 
CCC(CC)C(=O)N1CCc2ccc(C(=O)NCc3ccco3)nc2C1

>  <R1_reagent>  (151) 
CCC(CC)C(=O)Cl

>  <R1_ID>  (151) 
R-005857

>  <N_reaction>  (151) 
Amidation

>  <R2_amine>  (151) 
NCc1ccco1

>  <R2_ID>  (151) 
R-002355

>  <MW>  (151) 
355.4

>  <LogP>  (151) 
2.93

>  <HBD>  (151) 
1

>  <HBA>  (151) 
4

>  <RotB>  (151) 
6

>  <ASMS_similarity>  (151) 
0.5672

>  <Priority_tier>  (151) 
Tier3_explore

>  <Scaffold>  (151) 
OC(=O)c1ccc2CCNCc2n1

$$$$

     RDKit          2D

 25 27  0  0  0  0  0  0  0  0999 V2000
   -9.4925   -2.0812    0.0000 C   0  0  0  0  0  0  0  0  0  0  0  0
   -8.3999   -1.0534    0.0000 C   0  0  0  0  0  0  0  0  0  0  0  0
   -6.9636   -1.4857    0.0000 C   0  0  0  0  0  0  0  0  0  0  0  0
   -5.8710   -0.4579    0.0000 N   0  0  0  0  0  0  0  0  0  0  0  0
   -4.4347   -0.8902    0.0000 C   0  0  0  0  0  0  0  0  0  0  0  0
   -4.0909   -2.3502    0.0000 O   0  0  0  0  0  0  0  0  0  0  0  0
   -3.3421    0.1376    0.0000 C   0  0  0  0  0  0  0  0  0  0  0  0
   -3.6859    1.5977    0.0000 C   0  0  0  0  0  0  0  0  0  0  0  0
   -2.5934    2.6255    0.0000 C   0  0  0  0  0  0  0  0  0  0  0  0
   -1.1570    2.1932    0.0000 C   0  0  0  0  0  0  0  0  0  0  0  0
   -0.8132    0.7331    0.0000 C   0  0  0  0  0  0  0  0  0  0  0  0
   -1.9058   -0.2947    0.0000 N   0  0  0  0  0  0  0  0  0  0  0  0
    0.6231    0.3008    0.0000 C   0  0  0  0  0  0  0  0  0  0  0  0
    1.7157    1.3286    0.0000 N   0  0  0  0  0  0  0  0  0  0  0  0
    3.1520    0.8963    0.0000 C   0  0  0  0  0  0  0  0  0  0  0  0
    4.2446    1.9241    0.0000 O   0  0  0  0  0  0  0  0  0  0  0  0
    3.4959   -0.5637    0.0000 C   0  0  0  0  0  0  0  0  0  0  0  0
    4.9322   -0.9960    0.0000 C   0  0  0  0  0  0  0  0  0  0  0  0
    5.2760   -2.4561    0.0000 C   0  0  0  0  0  0  0  0  0  0  0  0
    6.7124   -2.8883    0.0000 C   0  0  0  0  0  0  0  0  0  0  0  0
    7.8049   -1.8606    0.0000 C   0  0  0  0  0  0  0  0  0  0  0  0
    7.4611   -0.4005    0.0000 C   0  0  0  0  0  0  0  0  0  0  0  0
    6.0248    0.0318    0.0000 C   0  0  0  0  0  0  0  0  0  0  0  0
    1.3719    2.7887    0.0000 C   0  0  0  0  0  0  0  0  0  0  0  0
   -0.0645    3.2210    0.0000 C   0  0  0  0  0  0  0  0  0  0  0  0
  1  2  1  0
  2  3  1  0
  3  4  1  0
  4  5  1  0
  5  6  2  0
  5  7  1  0
  7  8  2  0
  8  9  1  0
  9 10  2  0
 10 11  1  0
 11 12  2  0
 11 13  1  0
 13 14  1  0
 14 15  1  0
 15 16  2  0
 15 17  1  0
 17 18  1  0
 18 19  2  0
 19 20  1  0
 20 21  2  0
 21 22  1  0
 22 23  2  0
 14 24  1  0
 24 25  1  0
 12  7  1  0
 23 18  1  0
 25 10  1  0
M  END
>  <Compound_ID>  (152) 
LIB152

>  <SMILES>  (152) 
CCCNC(=O)c1ccc2c(n1)CN(C(=O)Cc1ccccc1)CC2

>  <R1_reagent>  (152) 
O=C(Cl)Cc1ccccc1

>  <R1_ID>  (152) 
R-000189

>  <N_reaction>  (152) 
Amidation

>  <R2_amine>  (152) 
CCCN

>  <R2_ID>  (152) 
R-006291

>  <MW>  (152) 
337.4

>  <LogP>  (152) 
2.35

>  <HBD>  (152) 
1

>  <HBA>  (152) 
3

>  <RotB>  (152) 
5

>  <ASMS_similarity>  (152) 
0.5672

>  <Priority_tier>  (152) 
Tier3_explore

>  <Scaffold>  (152) 
OC(=O)c1ccc2CCNCc2n1

$$$$

     RDKit          2D

 33 36  0  0  0  0  0  0  0  0999 V2000
   -9.7263    0.2489    0.0000 C   0  0  0  0  0  0  0  0  0  0  0  0
   -8.3050   -0.2306    0.0000 O   0  0  0  0  0  0  0  0  0  0  0  0
   -7.1791    0.7605    0.0000 C   0  0  0  0  0  0  0  0  0  0  0  0
   -7.4744    2.2311    0.0000 C   0  0  0  0  0  0  0  0  0  0  0  0
   -6.3485    3.2222    0.0000 C   0  0  0  0  0  0  0  0  0  0  0  0
   -6.6438    4.6928    0.0000 F   0  0  0  0  0  0  0  0  0  0  0  0
   -4.9272    2.7427    0.0000 C   0  0  0  0  0  0  0  0  0  0  0  0
   -4.6319    1.2720    0.0000 C   0  0  0  0  0  0  0  0  0  0  0  0
   -5.7578    0.2809    0.0000 C   0  0  0  0  0  0  0  0  0  0  0  0
   -5.4625   -1.1897    0.0000 C   0  0  0  0  0  0  0  0  0  0  0  0
   -6.5884   -2.1808    0.0000 O   0  0  0  0  0  0  0  0  0  0  0  0
   -4.0412   -1.6693    0.0000 N   0  0  0  0  0  0  0  0  0  0  0  0
   -3.7459   -3.1399    0.0000 C   0  0  0  0  0  0  0  0  0  0  0  0
   -2.3246   -3.6195    0.0000 C   0  0  0  0  0  0  0  0  0  0  0  0
   -1.1986   -2.6284    0.0000 C   0  0  0  0  0  0  0  0  0  0  0  0
    0.2226   -3.1079    0.0000 C   0  0  0  0  0  0  0  0  0  0  0  0
    1.3486   -2.1168    0.0000 C   0  0  0  0  0  0  0  0  0  0  0  0
    1.0532   -0.6462    0.0000 C   0  0  0  0  0  0  0  0  0  0  0  0
    2.1792    0.3449    0.0000 C   0  0  0  0  0  0  0  0  0  0  0  0
    1.8838    1.8155    0.0000 O   0  0  0  0  0  0  0  0  0  0  0  0
    3.6005   -0.1346    0.0000 N   0  0  0  0  0  0  0  0  0  0  0  0
    4.7264    0.8564    0.0000 C   0  0  0  0  0  0  0  0  0  0  0  0
    6.1477    0.3769    0.0000 C   0  0  0  0  0  0  0  0  0  0  0  0
    7.2736    1.3680    0.0000 O   0  0  0  0  0  0  0  0  0  0  0  0
    8.6949    0.8884    0.0000 C   0  0  0  0  0  0  0  0  0  0  0  0
    8.9902   -0.5822    0.0000 C   0  0  0  0  0  0  0  0  0  0  0  0
   10.4115   -1.0618    0.0000 C   0  0  0  0  0  0  0  0  0  0  0  0
   11.5375   -0.0707    0.0000 C   0  0  0  0  0  0  0  0  0  0  0  0
   11.2421    1.4000    0.0000 C   0  0  0  0  0  0  0  0  0  0  0  0
    9.8208    1.8795    0.0000 C   0  0  0  0  0  0  0  0  0  0  0  0
   -0.3680   -0.1666    0.0000 N   0  0  0  0  0  0  0  0  0  0  0  0
   -1.4940   -1.1577    0.0000 C   0  0  0  0  0  0  0  0  0  0  0  0
   -2.9153   -0.6782    0.0000 C   0  0  0  0  0  0  0  0  0  0  0  0
  1  2  1  0
  2  3  1  0
  3  4  2  0
  4  5  1  0
  5  6  1  0
  5  7  2  0
  7  8  1  0
  8  9  2  0
  9 10  1  0
 10 11  2  0
 10 12  1  0
 12 13  1  0
 13 14  1  0
 14 15  1  0
 15 16  2  0
 16 17  1  0
 17 18  2  0
 18 19  1  0
 19 20  2  0
 19 21  1  0
 21 22  1  0
 22 23  1  0
 23 24  1  0
 24 25  1  0
 25 26  2  0
 26 27  1  0
 27 28  2  0
 28 29  1  0
 29 30  2  0
 18 31  1  0
 31 32  2  0
 32 33  1  0
  9  3  1  0
 33 12  1  0
 32 15  1  0
 30 25  1  0
M  END
>  <Compound_ID>  (153) 
LIB153

>  <SMILES>  (153) 
COc1cc(F)ccc1C(=O)N1CCc2ccc(C(=O)NCCOc3ccccc3)nc2C1

>  <R1_reagent>  (153) 
COc1cc(F)ccc1C(=O)O

>  <R1_ID>  (153) 
R-007531

>  <N_reaction>  (153) 
Amidation

>  <R2_amine>  (153) 
NCCOc1ccccc1

>  <R2_ID>  (153) 
R-001007

>  <MW>  (153) 
449.5

>  <LogP>  (153) 
3.24

>  <HBD>  (153) 
1

>  <HBA>  (153) 
5

>  <RotB>  (153) 
7

>  <ASMS_similarity>  (153) 
0.5658

>  <Priority_tier>  (153) 
Tier3_explore

>  <Scaffold>  (153) 
OC(=O)c1ccc2CCNCc2n1

$$$$

     RDKit          2D

 30 33  0  0  0  0  0  0  0  0999 V2000
   -4.9696    5.1655    0.0000 C   0  0  0  0  0  0  0  0  0  0  0  0
   -5.9879    4.0642    0.0000 O   0  0  0  0  0  0  0  0  0  0  0  0
   -5.5434    2.6316    0.0000 C   0  0  0  0  0  0  0  0  0  0  0  0
   -4.0804    2.3003    0.0000 C   0  0  0  0  0  0  0  0  0  0  0  0
   -3.6358    0.8677    0.0000 C   0  0  0  0  0  0  0  0  0  0  0  0
   -4.6542   -0.2336    0.0000 C   0  0  0  0  0  0  0  0  0  0  0  0
   -4.2096   -1.6662    0.0000 C   0  0  0  0  0  0  0  0  0  0  0  0
   -5.2280   -2.7675    0.0000 O   0  0  0  0  0  0  0  0  0  0  0  0
   -2.7466   -1.9975    0.0000 N   0  0  0  0  0  0  0  0  0  0  0  0
   -2.3021   -3.4301    0.0000 C   0  0  0  0  0  0  0  0  0  0  0  0
   -0.8391   -3.7614    0.0000 C   0  0  0  0  0  0  0  0  0  0  0  0
    0.1793   -2.6601    0.0000 C   0  0  0  0  0  0  0  0  0  0  0  0
    1.6422   -2.9913    0.0000 C   0  0  0  0  0  0  0  0  0  0  0  0
    2.6606   -1.8900    0.0000 C   0  0  0  0  0  0  0  0  0  0  0  0
    2.2160   -0.4574    0.0000 C   0  0  0  0  0  0  0  0  0  0  0  0
    3.2344    0.6439    0.0000 C   0  0  0  0  0  0  0  0  0  0  0  0
    2.7898    2.0765    0.0000 O   0  0  0  0  0  0  0  0  0  0  0  0
    4.6974    0.3126    0.0000 N   0  0  0  0  0  0  0  0  0  0  0  0
    5.7158    1.4140    0.0000 C   0  0  0  0  0  0  0  0  0  0  0  0
    7.1787    1.0827    0.0000 C   0  0  0  0  0  0  0  0  0  0  0  0
    8.3066    2.0715    0.0000 C   0  0  0  0  0  0  0  0  0  0  0  0
    9.5956    1.3044    0.0000 C   0  0  0  0  0  0  0  0  0  0  0  0
    9.2643   -0.1586    0.0000 C   0  0  0  0  0  0  0  0  0  0  0  0
    7.7706   -0.2956    0.0000 O   0  0  0  0  0  0  0  0  0  0  0  0
    0.7531   -0.1261    0.0000 N   0  0  0  0  0  0  0  0  0  0  0  0
   -0.2653   -1.2275    0.0000 C   0  0  0  0  0  0  0  0  0  0  0  0
   -1.7283   -0.8962    0.0000 C   0  0  0  0  0  0  0  0  0  0  0  0
   -6.1171    0.0977    0.0000 C   0  0  0  0  0  0  0  0  0  0  0  0
   -7.1355   -1.0037    0.0000 F   0  0  0  0  0  0  0  0  0  0  0  0
   -6.5617    1.5303    0.0000 C   0  0  0  0  0  0  0  0  0  0  0  0
  1  2  1  0
  2  3  1  0
  3  4  2  0
  4  5  1  0
  5  6  2  0
  6  7  1  0
  7  8  2  0
  7  9  1  0
  9 10  1  0
 10 11  1  0
 11 12  1  0
 12 13  2  0
 13 14  1  0
 14 15  2  0
 15 16  1  0
 16 17  2  0
 16 18  1  0
 18 19  1  0
 19 20  1  0
 20 21  2  0
 21 22  1  0
 22 23  2  0
 23 24  1  0
 15 25  1  0
 25 26  2  0
 26 27  1  0
  6 28  1  0
 28 29  1  0
 28 30  2  0
 30  3  1  0
 27  9  1  0
 26 12  1  0
 24 20  1  0
M  END
>  <Compound_ID>  (154) 
LIB154

>  <SMILES>  (154) 
COc1ccc(C(=O)N2CCc3ccc(C(=O)NCc4ccco4)nc3C2)c(F)c1

>  <R1_reagent>  (154) 
COc1ccc(C(=O)O)c(F)c1

>  <R1_ID>  (154) 
R-011340

>  <N_reaction>  (154) 
Amidation

>  <R2_amine>  (154) 
NCc1ccco1

>  <R2_ID>  (154) 
R-002355

>  <MW>  (154) 
409.4

>  <LogP>  (154) 
2.95

>  <HBD>  (154) 
1

>  <HBA>  (154) 
5

>  <RotB>  (154) 
5

>  <ASMS_similarity>  (154) 
0.5658

>  <Priority_tier>  (154) 
Tier3_explore

>  <Scaffold>  (154) 
OC(=O)c1ccc2CCNCc2n1

$$$$

     RDKit          2D

 30 33  0  0  0  0  0  0  0  0999 V2000
   -8.4902   -0.1178    0.0000 C   0  0  0  0  0  0  0  0  0  0  0  0
   -7.0426   -0.5108    0.0000 O   0  0  0  0  0  0  0  0  0  0  0  0
   -5.9784    0.5463    0.0000 C   0  0  0  0  0  0  0  0  0  0  0  0
   -6.3618    1.9965    0.0000 C   0  0  0  0  0  0  0  0  0  0  0  0
   -5.2976    3.0536    0.0000 C   0  0  0  0  0  0  0  0  0  0  0  0
   -5.6811    4.5038    0.0000 F   0  0  0  0  0  0  0  0  0  0  0  0
   -3.8500    2.6606    0.0000 C   0  0  0  0  0  0  0  0  0  0  0  0
   -3.4666    1.2104    0.0000 C   0  0  0  0  0  0  0  0  0  0  0  0
   -4.5308    0.1533    0.0000 C   0  0  0  0  0  0  0  0  0  0  0  0
   -4.1474   -1.2969    0.0000 C   0  0  0  0  0  0  0  0  0  0  0  0
   -5.2115   -2.3540    0.0000 O   0  0  0  0  0  0  0  0  0  0  0  0
   -2.6998   -1.6899    0.0000 N   0  0  0  0  0  0  0  0  0  0  0  0
   -2.3164   -3.1401    0.0000 C   0  0  0  0  0  0  0  0  0  0  0  0
   -0.8688   -3.5331    0.0000 C   0  0  0  0  0  0  0  0  0  0  0  0
    0.1954   -2.4760    0.0000 C   0  0  0  0  0  0  0  0  0  0  0  0
    1.6430   -2.8690    0.0000 C   0  0  0  0  0  0  0  0  0  0  0  0
    2.7072   -1.8119    0.0000 C   0  0  0  0  0  0  0  0  0  0  0  0
    2.3238   -0.3617    0.0000 C   0  0  0  0  0  0  0  0  0  0  0  0
    3.3879    0.6954    0.0000 C   0  0  0  0  0  0  0  0  0  0  0  0
    3.0045    2.1456    0.0000 O   0  0  0  0  0  0  0  0  0  0  0  0
    4.8355    0.3024    0.0000 N   0  0  0  0  0  0  0  0  0  0  0  0
    5.8997    1.3595    0.0000 C   0  0  0  0  0  0  0  0  0  0  0  0
    7.3473    0.9665    0.0000 C   0  0  0  0  0  0  0  0  0  0  0  0
    8.5161    1.9066    0.0000 C   0  0  0  0  0  0  0  0  0  0  0  0
    9.7714    1.0855    0.0000 C   0  0  0  0  0  0  0  0  0  0  0  0
    9.3784   -0.3621    0.0000 C   0  0  0  0  0  0  0  0  0  0  0  0
    7.8802   -0.4356    0.0000 O   0  0  0  0  0  0  0  0  0  0  0  0
    0.8762    0.0313    0.0000 N   0  0  0  0  0  0  0  0  0  0  0  0
   -0.1880   -1.0258    0.0000 C   0  0  0  0  0  0  0  0  0  0  0  0
   -1.6356   -0.6328    0.0000 C   0  0  0  0  0  0  0  0  0  0  0  0
  1  2  1  0
  2  3  1  0
  3  4  2  0
  4  5  1  0
  5  6  1  0
  5  7  2  0
  7  8  1  0
  8  9  2  0
  9 10  1  0
 10 11  2  0
 10 12  1  0
 12 13  1  0
 13 14  1  0
 14 15  1  0
 15 16  2  0
 16 17  1  0
 17 18  2  0
 18 19  1  0
 19 20  2  0
 19 21  1  0
 21 22  1  0
 22 23  1  0
 23 24  2  0
 24 25  1  0
 25 26  2  0
 26 27  1  0
 18 28  1  0
 28 29  2  0
 29 30  1  0
  9  3  1  0
 30 12  1  0
 29 15  1  0
 27 23  1  0
M  END
>  <Compound_ID>  (155) 
LIB155

>  <SMILES>  (155) 
COc1cc(F)ccc1C(=O)N1CCc2ccc(C(=O)NCc3ccco3)nc2C1

>  <R1_reagent>  (155) 
COc1cc(F)ccc1C(=O)O

>  <R1_ID>  (155) 
R-007531

>  <N_reaction>  (155) 
Amidation

>  <R2_amine>  (155) 
NCc1ccco1

>  <R2_ID>  (155) 
R-002355

>  <MW>  (155) 
409.4

>  <LogP>  (155) 
2.95

>  <HBD>  (155) 
1

>  <HBA>  (155) 
5

>  <RotB>  (155) 
5

>  <ASMS_similarity>  (155) 
0.5658

>  <Priority_tier>  (155) 
Tier3_explore

>  <Scaffold>  (155) 
OC(=O)c1ccc2CCNCc2n1

$$$$

     RDKit          2D

 30 32  0  0  0  0  0  0  0  0999 V2000
   -8.3495    0.5992    0.0000 C   0  0  0  0  0  0  0  0  0  0  0  0
   -6.9457    0.0706    0.0000 O   0  0  0  0  0  0  0  0  0  0  0  0
   -5.7860    1.0220    0.0000 C   0  0  0  0  0  0  0  0  0  0  0  0
   -6.0301    2.5020    0.0000 C   0  0  0  0  0  0  0  0  0  0  0  0
   -4.8705    3.4534    0.0000 C   0  0  0  0  0  0  0  0  0  0  0  0
   -3.4667    2.9248    0.0000 C   0  0  0  0  0  0  0  0  0  0  0  0
   -3.2226    1.4448    0.0000 C   0  0  0  0  0  0  0  0  0  0  0  0
   -1.8188    0.9162    0.0000 O   0  0  0  0  0  0  0  0  0  0  0  0
   -0.6591    1.8676    0.0000 C   0  0  0  0  0  0  0  0  0  0  0  0
   -4.3822    0.4934    0.0000 C   0  0  0  0  0  0  0  0  0  0  0  0
   -4.1381   -0.9866    0.0000 C   0  0  0  0  0  0  0  0  0  0  0  0
   -5.2978   -1.9380    0.0000 O   0  0  0  0  0  0  0  0  0  0  0  0
   -2.7344   -1.5152    0.0000 N   0  0  0  0  0  0  0  0  0  0  0  0
   -2.4902   -2.9952    0.0000 C   0  0  0  0  0  0  0  0  0  0  0  0
   -1.0865   -3.5238    0.0000 C   0  0  0  0  0  0  0  0  0  0  0  0
    0.0732   -2.5724    0.0000 C   0  0  0  0  0  0  0  0  0  0  0  0
    1.4770   -3.1010    0.0000 C   0  0  0  0  0  0  0  0  0  0  0  0
    2.6366   -2.1496    0.0000 C   0  0  0  0  0  0  0  0  0  0  0  0
    2.3925   -0.6696    0.0000 C   0  0  0  0  0  0  0  0  0  0  0  0
    3.5522    0.2818    0.0000 C   0  0  0  0  0  0  0  0  0  0  0  0
    3.3081    1.7618    0.0000 O   0  0  0  0  0  0  0  0  0  0  0  0
    4.9560   -0.2468    0.0000 N   0  0  0  0  0  0  0  0  0  0  0  0
    6.1156    0.7046    0.0000 C   0  0  0  0  0  0  0  0  0  0  0  0
    7.5194    0.1760    0.0000 C   0  0  0  0  0  0  0  0  0  0  0  0
    8.6791    1.1275    0.0000 C   0  0  0  0  0  0  0  0  0  0  0  0
   10.0829    0.5989    0.0000 C   0  0  0  0  0  0  0  0  0  0  0  0
   11.2425    1.5503    0.0000 O   0  0  0  0  0  0  0  0  0  0  0  0
    0.9888   -0.1410    0.0000 N   0  0  0  0  0  0  0  0  0  0  0  0
   -0.1709   -1.0924    0.0000 C   0  0  0  0  0  0  0  0  0  0  0  0
   -1.5747   -0.5638    0.0000 C   0  0  0  0  0  0  0  0  0  0  0  0
  1  2  1  0
  2  3  1  0
  3  4  2  0
  4  5  1  0
  5  6  2  0
  6  7  1  0
  7  8  1  0
  8  9  1  0
  7 10  2  0
 10 11  1  0
 11 12  2  0
 11 13  1  0
 13 14  1  0
 14 15  1  0
 15 16  1  0
 16 17  2  0
 17 18  1  0
 18 19  2  0
 19 20  1  0
 20 21  2  0
 20 22  1  0
 22 23  1  0
 23 24  1  0
 24 25  1  0
 25 26  1  0
 26 27  1  0
 19 28  1  0
 28 29  2  0
 29 30  1  0
 10  3  1  0
 30 13  1  0
 29 16  1  0
M  END
>  <Compound_ID>  (156) 
LIB156

>  <SMILES>  (156) 
COc1cccc(OC)c1C(=O)N1CCc2ccc(C(=O)NCCCCO)nc2C1

>  <R1_reagent>  (156) 
COc1cccc(OC)c1C(=O)O

>  <R1_ID>  (156) 
R-001054

>  <N_reaction>  (156) 
Amidation

>  <R2_amine>  (156) 
NCCCCO

>  <R2_ID>  (156) 
R-002865

>  <MW>  (156) 
413.5

>  <LogP>  (156) 
1.8

>  <HBD>  (156) 
2

>  <HBA>  (156) 
6

>  <RotB>  (156) 
8

>  <ASMS_similarity>  (156) 
0.5652

>  <Priority_tier>  (156) 
Tier3_explore

>  <Scaffold>  (156) 
OC(=O)c1ccc2CCNCc2n1

$$$$

     RDKit          2D

 33 36  0  0  0  0  0  0  0  0999 V2000
   -8.7792    4.2182    0.0000 C   0  0  0  0  0  0  0  0  0  0  0  0
   -8.0710    2.8959    0.0000 C   0  0  0  0  0  0  0  0  0  0  0  0
   -6.5717    2.8481    0.0000 C   0  0  0  0  0  0  0  0  0  0  0  0
   -5.8635    1.5259    0.0000 C   0  0  0  0  0  0  0  0  0  0  0  0
   -6.6545    0.2514    0.0000 C   0  0  0  0  0  0  0  0  0  0  0  0
   -5.9462   -1.0709    0.0000 C   0  0  0  0  0  0  0  0  0  0  0  0
   -4.4470   -1.1186    0.0000 N   0  0  0  0  0  0  0  0  0  0  0  0
   -3.7387   -2.4409    0.0000 C   0  0  0  0  0  0  0  0  0  0  0  0
   -4.5297   -3.7154    0.0000 O   0  0  0  0  0  0  0  0  0  0  0  0
   -2.2395   -2.4887    0.0000 C   0  0  0  0  0  0  0  0  0  0  0  0
   -1.5312   -3.8109    0.0000 C   0  0  0  0  0  0  0  0  0  0  0  0
   -0.0320   -3.8587    0.0000 C   0  0  0  0  0  0  0  0  0  0  0  0
    0.7590   -2.5842    0.0000 C   0  0  0  0  0  0  0  0  0  0  0  0
    0.0508   -1.2619    0.0000 C   0  0  0  0  0  0  0  0  0  0  0  0
   -1.4485   -1.2142    0.0000 N   0  0  0  0  0  0  0  0  0  0  0  0
    0.8417    0.0126    0.0000 C   0  0  0  0  0  0  0  0  0  0  0  0
    2.3410   -0.0352    0.0000 N   0  0  0  0  0  0  0  0  0  0  0  0
    3.1320    1.2393    0.0000 C   0  0  0  0  0  0  0  0  0  0  0  0
    4.6312    1.1915    0.0000 C   0  0  0  0  0  0  0  0  0  0  0  0
    5.3395   -0.1307    0.0000 C   0  0  0  0  0  0  0  0  0  0  0  0
    6.8387   -0.1785    0.0000 C   0  0  0  0  0  0  0  0  0  0  0  0
    7.6297    1.0960    0.0000 C   0  0  0  0  0  0  0  0  0  0  0  0
    9.1289    1.0482    0.0000 S   0  0  0  0  0  0  0  0  0  0  0  0
   10.6282    1.0005    0.0000 C   0  0  0  0  0  0  0  0  0  0  0  0
    9.1767    2.5475    0.0000 O   0  0  0  0  0  0  0  0  0  0  0  0
    9.0812   -0.4510    0.0000 O   0  0  0  0  0  0  0  0  0  0  0  0
    6.9214    2.4183    0.0000 C   0  0  0  0  0  0  0  0  0  0  0  0
    5.4222    2.4660    0.0000 C   0  0  0  0  0  0  0  0  0  0  0  0
    3.0492   -1.3575    0.0000 C   0  0  0  0  0  0  0  0  0  0  0  0
    2.2582   -2.6320    0.0000 C   0  0  0  0  0  0  0  0  0  0  0  0
   -8.1537    0.2992    0.0000 C   0  0  0  0  0  0  0  0  0  0  0  0
   -8.8620    1.6214    0.0000 C   0  0  0  0  0  0  0  0  0  0  0  0
  -10.3612    1.6692    0.0000 C   0  0  0  0  0  0  0  0  0  0  0  0
  1  2  1  0
  2  3  2  0
  3  4  1  0
  4  5  2  0
  5  6  1  0
  6  7  1  0
  7  8  1  0
  8  9  2  0
  8 10  1  0
 10 11  2  0
 11 12  1  0
 12 13  2  0
 13 14  1  0
 14 15  2  0
 14 16  1  0
 16 17  1  0
 17 18  1  0
 18 19  1  0
 19 20  2  0
 20 21  1  0
 21 22  2  0
 22 23  1  0
 23 24  1  0
 23 25  2  0
 23 26  2  0
 22 27  1  0
 27 28  2  0
 17 29  1  0
 29 30  1  0
  5 31  1  0
 31 32  2  0
 32 33  1  0
 32  2  1  0
 15 10  1  0
 28 19  1  0
 30 13  1  0
M  END
>  <Compound_ID>  (157) 
LIB157

>  <SMILES>  (157) 
Cc1ccc(CNC(=O)c2ccc3c(n2)CN(Cc2ccc(S(C)(=O)=O)cc2)CC3)cc1C

>  <R1_reagent>  (157) 
CS(=O)(=O)c1ccc(C=O)cc1

>  <R1_ID>  (157) 
R-008219

>  <N_reaction>  (157) 
Reductive_amination

>  <R2_amine>  (157) 
Cc1ccc(CN)cc1C

>  <R2_ID>  (157) 
R-008930

>  <MW>  (157) 
463.6

>  <LogP>  (157) 
3.59

>  <HBD>  (157) 
1

>  <HBA>  (157) 
5

>  <RotB>  (157) 
6

>  <ASMS_similarity>  (157) 
0.5641

>  <Priority_tier>  (157) 
Tier3_explore

>  <Scaffold>  (157) 
OC(=O)c1ccc2CCNCc2n1

$$$$

     RDKit          2D

 26 28  0  0  0  0  0  0  0  0999 V2000
   -7.2301    2.1286    0.0000 C   0  0  0  0  0  0  0  0  0  0  0  0
   -5.7731    1.7722    0.0000 C   0  0  0  0  0  0  0  0  0  0  0  0
   -4.7359    2.8558    0.0000 C   0  0  0  0  0  0  0  0  0  0  0  0
   -3.2789    2.4994    0.0000 C   0  0  0  0  0  0  0  0  0  0  0  0
   -2.2417    3.5831    0.0000 Cl  0  0  0  0  0  0  0  0  0  0  0  0
   -2.8590    1.0594    0.0000 C   0  0  0  0  0  0  0  0  0  0  0  0
   -3.8962   -0.0243    0.0000 C   0  0  0  0  0  0  0  0  0  0  0  0
   -3.4763   -1.4643    0.0000 C   0  0  0  0  0  0  0  0  0  0  0  0
   -4.5135   -2.5479    0.0000 O   0  0  0  0  0  0  0  0  0  0  0  0
   -2.0193   -1.8207    0.0000 N   0  0  0  0  0  0  0  0  0  0  0  0
   -1.5994   -3.2607    0.0000 C   0  0  0  0  0  0  0  0  0  0  0  0
   -0.1423   -3.6171    0.0000 C   0  0  0  0  0  0  0  0  0  0  0  0
    0.8948   -2.5335    0.0000 C   0  0  0  0  0  0  0  0  0  0  0  0
    2.3519   -2.8899    0.0000 C   0  0  0  0  0  0  0  0  0  0  0  0
    3.3890   -1.8063    0.0000 C   0  0  0  0  0  0  0  0  0  0  0  0
    2.9692   -0.3662    0.0000 C   0  0  0  0  0  0  0  0  0  0  0  0
    4.0063    0.7174    0.0000 C   0  0  0  0  0  0  0  0  0  0  0  0
    3.5865    2.1575    0.0000 O   0  0  0  0  0  0  0  0  0  0  0  0
    5.4634    0.3610    0.0000 N   0  0  0  0  0  0  0  0  0  0  0  0
    6.5006    1.4447    0.0000 C   0  0  0  0  0  0  0  0  0  0  0  0
    7.9576    1.0883    0.0000 C   0  0  0  0  0  0  0  0  0  0  0  0
    8.9948    2.1719    0.0000 O   0  0  0  0  0  0  0  0  0  0  0  0
    1.5121   -0.0098    0.0000 N   0  0  0  0  0  0  0  0  0  0  0  0
    0.4750   -1.0935    0.0000 C   0  0  0  0  0  0  0  0  0  0  0  0
   -0.9821   -0.7371    0.0000 C   0  0  0  0  0  0  0  0  0  0  0  0
   -5.3532    0.3321    0.0000 N   0  0  0  0  0  0  0  0  0  0  0  0
  1  2  1  0
  2  3  2  0
  3  4  1  0
  4  5  1  0
  4  6  2  0
  6  7  1  0
  7  8  1  0
  8  9  2  0
  8 10  1  0
 10 11  1  0
 11 12  1  0
 12 13  1  0
 13 14  2  0
 14 15  1  0
 15 16  2  0
 16 17  1  0
 17 18  2  0
 17 19  1  0
 19 20  1  0
 20 21  1  0
 21 22  1  0
 16 23  1  0
 23 24  2  0
 24 25  1  0
  7 26  2  0
 26  2  1  0
 25 10  1  0
 24 13  1  0
M  END
>  <Compound_ID>  (158) 
LIB158

>  <SMILES>  (158) 
Cc1cc(Cl)cc(C(=O)N2CCc3ccc(C(=O)NCCO)nc3C2)n1

>  <R1_reagent>  (158) 
Cc1cc(Cl)cc(C(=O)O)n1

>  <R1_ID>  (158) 
R-010833

>  <N_reaction>  (158) 
Amidation

>  <R2_amine>  (158) 
NCCO

>  <R2_ID>  (158) 
R-002330

>  <MW>  (158) 
374.8

>  <LogP>  (158) 
1.36

>  <HBD>  (158) 
2

>  <HBA>  (158) 
5

>  <RotB>  (158) 
4

>  <ASMS_similarity>  (158) 
0.5634

>  <Priority_tier>  (158) 
Tier3_explore

>  <Scaffold>  (158) 
OC(=O)c1ccc2CCNCc2n1

$$$$

     RDKit          2D

 30 32  0  0  0  0  0  0  0  0999 V2000
   -9.3145   -2.1551    0.0000 C   0  0  0  0  0  0  0  0  0  0  0  0
   -8.7839   -0.7521    0.0000 C   0  0  0  0  0  0  0  0  0  0  0  0
   -8.2533    0.6509    0.0000 C   0  0  0  0  0  0  0  0  0  0  0  0
  -10.1869   -0.2215    0.0000 C   0  0  0  0  0  0  0  0  0  0  0  0
   -7.3809   -1.2827    0.0000 O   0  0  0  0  0  0  0  0  0  0  0  0
   -6.2199   -0.3329    0.0000 C   0  0  0  0  0  0  0  0  0  0  0  0
   -6.4619    1.1474    0.0000 O   0  0  0  0  0  0  0  0  0  0  0  0
   -4.8168   -0.8635    0.0000 C   0  0  0  0  0  0  0  0  0  0  0  0
   -3.6558    0.0863    0.0000 N   0  0  0  0  0  0  0  0  0  0  0  0
   -2.2528   -0.4443    0.0000 C   0  0  0  0  0  0  0  0  0  0  0  0
   -2.0108   -1.9247    0.0000 O   0  0  0  0  0  0  0  0  0  0  0  0
   -1.0918    0.5055    0.0000 C   0  0  0  0  0  0  0  0  0  0  0  0
   -1.3338    1.9858    0.0000 C   0  0  0  0  0  0  0  0  0  0  0  0
   -0.1728    2.9356    0.0000 C   0  0  0  0  0  0  0  0  0  0  0  0
    1.2302    2.4050    0.0000 C   0  0  0  0  0  0  0  0  0  0  0  0
    1.4722    0.9247    0.0000 C   0  0  0  0  0  0  0  0  0  0  0  0
    0.3112   -0.0251    0.0000 N   0  0  0  0  0  0  0  0  0  0  0  0
    2.8753    0.3941    0.0000 C   0  0  0  0  0  0  0  0  0  0  0  0
    4.0363    1.3439    0.0000 N   0  0  0  0  0  0  0  0  0  0  0  0
    5.4393    0.8133    0.0000 C   0  0  0  0  0  0  0  0  0  0  0  0
    6.6003    1.7630    0.0000 O   0  0  0  0  0  0  0  0  0  0  0  0
    5.6813   -0.6671    0.0000 C   0  0  0  0  0  0  0  0  0  0  0  0
    4.5203   -1.6168    0.0000 C   0  0  0  0  0  0  0  0  0  0  0  0
    4.7623   -3.0972    0.0000 C   0  0  0  0  0  0  0  0  0  0  0  0
    6.1654   -3.6278    0.0000 C   0  0  0  0  0  0  0  0  0  0  0  0
    7.3264   -2.6780    0.0000 C   0  0  0  0  0  0  0  0  0  0  0  0
    7.0844   -1.1976    0.0000 C   0  0  0  0  0  0  0  0  0  0  0  0
    8.2454   -0.2479    0.0000 F   0  0  0  0  0  0  0  0  0  0  0  0
    3.7943    2.8242    0.0000 C   0  0  0  0  0  0  0  0  0  0  0  0
    2.3912    3.3548    0.0000 C   0  0  0  0  0  0  0  0  0  0  0  0
  1  2  1  0
  2  3  1  0
  2  4  1  0
  2  5  1  0
  5  6  1  0
  6  7  2  0
  6  8  1  0
  8  9  1  0
  9 10  1  0
 10 11  2  0
 10 12  1  0
 12 13  2  0
 13 14  1  0
 14 15  2  0
 15 16  1  0
 16 17  2  0
 16 18  1  0
 18 19  1  0
 19 20  1  0
 20 21  2  0
 20 22  1  0
 22 23  2  0
 23 24  1  0
 24 25  2  0
 25 26  1  0
 26 27  2  0
 27 28  1  0
 19 29  1  0
 29 30  1  0
 17 12  1  0
 27 22  1  0
 30 15  1  0
M  END
>  <Compound_ID>  (159) 
LIB159

>  <SMILES>  (159) 
CC(C)(C)OC(=O)CNC(=O)c1ccc2c(n1)CN(C(=O)c1ccccc1F)CC2

>  <R1_reagent>  (159) 
O=C(Cl)c1ccccc1F

>  <R1_ID>  (159) 
R-006199

>  <N_reaction>  (159) 
Amidation

>  <R2_amine>  (159) 
CC(C)(C)OC(=O)CN

>  <R2_ID>  (159) 
R-009177

>  <MW>  (159) 
413.4

>  <LogP>  (159) 
2.49

>  <HBD>  (159) 
1

>  <HBA>  (159) 
5

>  <RotB>  (159) 
4

>  <ASMS_similarity>  (159) 
0.5634

>  <Priority_tier>  (159) 
Tier3_explore

>  <Scaffold>  (159) 
OC(=O)c1ccc2CCNCc2n1

$$$$

     RDKit          2D

 32 35  0  0  0  0  0  0  0  0999 V2000
   -6.0828    5.3142    0.0000 C   0  0  0  0  0  0  0  0  0  0  0  0
   -7.1763    4.2875    0.0000 O   0  0  0  0  0  0  0  0  0  0  0  0
   -6.8339    2.8271    0.0000 C   0  0  0  0  0  0  0  0  0  0  0  0
   -5.3979    2.3934    0.0000 C   0  0  0  0  0  0  0  0  0  0  0  0
   -5.0555    0.9331    0.0000 C   0  0  0  0  0  0  0  0  0  0  0  0
   -6.1490   -0.0937    0.0000 C   0  0  0  0  0  0  0  0  0  0  0  0
   -5.8066   -1.5541    0.0000 C   0  0  0  0  0  0  0  0  0  0  0  0
   -6.9001   -2.5808    0.0000 O   0  0  0  0  0  0  0  0  0  0  0  0
   -4.3707   -1.9877    0.0000 N   0  0  0  0  0  0  0  0  0  0  0  0
   -4.0282   -3.4481    0.0000 C   0  0  0  0  0  0  0  0  0  0  0  0
   -2.5923   -3.8818    0.0000 C   0  0  0  0  0  0  0  0  0  0  0  0
   -1.4988   -2.8550    0.0000 C   0  0  0  0  0  0  0  0  0  0  0  0
   -0.0628   -3.2887    0.0000 C   0  0  0  0  0  0  0  0  0  0  0  0
    1.0307   -2.2619    0.0000 C   0  0  0  0  0  0  0  0  0  0  0  0
    0.6883   -0.8015    0.0000 C   0  0  0  0  0  0  0  0  0  0  0  0
    1.7818    0.2252    0.0000 C   0  0  0  0  0  0  0  0  0  0  0  0
    1.4394    1.6856    0.0000 O   0  0  0  0  0  0  0  0  0  0  0  0
    3.2178   -0.2084    0.0000 N   0  0  0  0  0  0  0  0  0  0  0  0
    4.3113    0.8183    0.0000 C   0  0  0  0  0  0  0  0  0  0  0  0
    5.7472    0.3847    0.0000 C   0  0  0  0  0  0  0  0  0  0  0  0
    6.8408    1.4114    0.0000 O   0  0  0  0  0  0  0  0  0  0  0  0
    8.2767    0.9777    0.0000 C   0  0  0  0  0  0  0  0  0  0  0  0
    8.6191   -0.4826    0.0000 C   0  0  0  0  0  0  0  0  0  0  0  0
   10.0551   -0.9163    0.0000 C   0  0  0  0  0  0  0  0  0  0  0  0
   11.1486    0.1104    0.0000 C   0  0  0  0  0  0  0  0  0  0  0  0
   10.8062    1.5708    0.0000 C   0  0  0  0  0  0  0  0  0  0  0  0
    9.3702    2.0045    0.0000 C   0  0  0  0  0  0  0  0  0  0  0  0
   -0.7477   -0.3679    0.0000 N   0  0  0  0  0  0  0  0  0  0  0  0
   -1.8412   -1.3946    0.0000 C   0  0  0  0  0  0  0  0  0  0  0  0
   -3.2771   -0.9610    0.0000 C   0  0  0  0  0  0  0  0  0  0  0  0
   -7.5850    0.3400    0.0000 C   0  0  0  0  0  0  0  0  0  0  0  0
   -7.9274    1.8004    0.0000 C   0  0  0  0  0  0  0  0  0  0  0  0
  1  2  1  0
  2  3  1  0
  3  4  2  0
  4  5  1  0
  5  6  2  0
  6  7  1  0
  7  8  2  0
  7  9  1  0
  9 10  1  0
 10 11  1  0
 11 12  1  0
 12 13  2  0
 13 14  1  0
 14 15  2  0
 15 16  1  0
 16 17  2  0
 16 18  1  0
 18 19  1  0
 19 20  1  0
 20 21  1  0
 21 22  1  0
 22 23  2  0
 23 24  1  0
 24 25  2  0
 25 26  1  0
 26 27  2  0
 15 28  1  0
 28 29  2  0
 29 30  1  0
  6 31  1  0
 31 32  2  0
 32  3  1  0
 30  9  1  0
 29 12  1  0
 27 22  1  0
M  END
>  <Compound_ID>  (160) 
LIB160

>  <SMILES>  (160) 
COc1ccc(C(=O)N2CCc3ccc(C(=O)NCCOc4ccccc4)nc3C2)cc1

>  <R1_reagent>  (160) 
COc1ccc(C(=O)Cl)cc1

>  <R1_ID>  (160) 
R-001270

>  <N_reaction>  (160) 
Amidation

>  <R2_amine>  (160) 
NCCOc1ccccc1

>  <R2_ID>  (160) 
R-001007

>  <MW>  (160) 
431.5

>  <LogP>  (160) 
3.1

>  <HBD>  (160) 
1

>  <HBA>  (160) 
5

>  <RotB>  (160) 
7

>  <ASMS_similarity>  (160) 
0.5634

>  <Priority_tier>  (160) 
Tier3_explore

>  <Scaffold>  (160) 
OC(=O)c1ccc2CCNCc2n1

$$$$

     RDKit          2D

 26 28  0  0  0  0  0  0  0  0999 V2000
   -7.5052   -2.1828    0.0000 C   0  0  0  0  0  0  0  0  0  0  0  0
   -7.0411   -0.7564    0.0000 C   0  0  0  0  0  0  0  0  0  0  0  0
   -6.5770    0.6700    0.0000 C   0  0  0  0  0  0  0  0  0  0  0  0
   -8.4675   -0.2923    0.0000 C   0  0  0  0  0  0  0  0  0  0  0  0
   -5.6147   -1.2205    0.0000 C   0  0  0  0  0  0  0  0  0  0  0  0
   -4.4996   -0.2173    0.0000 N   0  0  0  0  0  0  0  0  0  0  0  0
   -3.0732   -0.6814    0.0000 C   0  0  0  0  0  0  0  0  0  0  0  0
   -2.7619   -2.1487    0.0000 O   0  0  0  0  0  0  0  0  0  0  0  0
   -1.9580    0.3218    0.0000 C   0  0  0  0  0  0  0  0  0  0  0  0
   -2.2693    1.7892    0.0000 C   0  0  0  0  0  0  0  0  0  0  0  0
   -1.1542    2.7924    0.0000 C   0  0  0  0  0  0  0  0  0  0  0  0
    0.2722    2.3283    0.0000 C   0  0  0  0  0  0  0  0  0  0  0  0
    0.5835    0.8610    0.0000 C   0  0  0  0  0  0  0  0  0  0  0  0
   -0.5316   -0.1423    0.0000 N   0  0  0  0  0  0  0  0  0  0  0  0
    2.0099    0.3969    0.0000 C   0  0  0  0  0  0  0  0  0  0  0  0
    3.1250    1.4001    0.0000 N   0  0  0  0  0  0  0  0  0  0  0  0
    4.5514    0.9360    0.0000 C   0  0  0  0  0  0  0  0  0  0  0  0
    5.6665    1.9392    0.0000 O   0  0  0  0  0  0  0  0  0  0  0  0
    4.8627   -0.5314    0.0000 C   0  0  0  0  0  0  0  0  0  0  0  0
    3.7475   -1.5346    0.0000 C   0  0  0  0  0  0  0  0  0  0  0  0
    4.0588   -3.0019    0.0000 C   0  0  0  0  0  0  0  0  0  0  0  0
    5.4852   -3.4661    0.0000 N   0  0  0  0  0  0  0  0  0  0  0  0
    6.6003   -2.4628    0.0000 C   0  0  0  0  0  0  0  0  0  0  0  0
    6.2891   -0.9955    0.0000 C   0  0  0  0  0  0  0  0  0  0  0  0
    2.8137    2.8675    0.0000 C   0  0  0  0  0  0  0  0  0  0  0  0
    1.3873    3.3316    0.0000 C   0  0  0  0  0  0  0  0  0  0  0  0
  1  2  1  0
  2  3  1  0
  2  4  1  0
  2  5  1  0
  5  6  1  0
  6  7  1  0
  7  8  2  0
  7  9  1  0
  9 10  2  0
 10 11  1  0
 11 12  2  0
 12 13  1  0
 13 14  2  0
 13 15  1  0
 15 16  1  0
 16 17  1  0
 17 18  2  0
 17 19  1  0
 19 20  2  0
 20 21  1  0
 21 22  2  0
 22 23  1  0
 23 24  2  0
 16 25  1  0
 25 26  1  0
 14  9  1  0
 24 19  1  0
 26 12  1  0
M  END
>  <Compound_ID>  (161) 
LIB161

>  <SMILES>  (161) 
CC(C)(C)CNC(=O)c1ccc2c(n1)CN(C(=O)c1ccncc1)CC2

>  <R1_reagent>  (161) 
Cl.O=C(Cl)c1ccncc1

>  <R1_ID>  (161) 
R-004619

>  <N_reaction>  (161) 
Amidation

>  <R2_amine>  (161) 
CC(C)(C)CN

>  <R2_ID>  (161) 
R-003311

>  <MW>  (161) 
352.4

>  <LogP>  (161) 
2.45

>  <HBD>  (161) 
1

>  <HBA>  (161) 
4

>  <RotB>  (161) 
3

>  <ASMS_similarity>  (161) 
0.5634

>  <Priority_tier>  (161) 
Tier3_explore

>  <Scaffold>  (161) 
OC(=O)c1ccc2CCNCc2n1

$$$$

     RDKit          2D

 31 34  0  0  0  0  0  0  0  0999 V2000
   -8.4770    0.3900    0.0000 C   0  0  0  0  0  0  0  0  0  0  0  0
   -7.0565   -0.0917    0.0000 O   0  0  0  0  0  0  0  0  0  0  0  0
   -5.9290    0.8976    0.0000 C   0  0  0  0  0  0  0  0  0  0  0  0
   -6.2221    2.3687    0.0000 C   0  0  0  0  0  0  0  0  0  0  0  0
   -5.0946    3.3581    0.0000 C   0  0  0  0  0  0  0  0  0  0  0  0
   -3.6741    2.8763    0.0000 C   0  0  0  0  0  0  0  0  0  0  0  0
   -3.3810    1.4052    0.0000 C   0  0  0  0  0  0  0  0  0  0  0  0
   -1.9605    0.9235    0.0000 O   0  0  0  0  0  0  0  0  0  0  0  0
   -0.8330    1.9128    0.0000 C   0  0  0  0  0  0  0  0  0  0  0  0
   -4.5085    0.4159    0.0000 C   0  0  0  0  0  0  0  0  0  0  0  0
   -4.2154   -1.0552    0.0000 C   0  0  0  0  0  0  0  0  0  0  0  0
   -5.3429   -2.0446    0.0000 O   0  0  0  0  0  0  0  0  0  0  0  0
   -2.7949   -1.5369    0.0000 N   0  0  0  0  0  0  0  0  0  0  0  0
   -2.5018   -3.0080    0.0000 C   0  0  0  0  0  0  0  0  0  0  0  0
   -1.0813   -3.4898    0.0000 C   0  0  0  0  0  0  0  0  0  0  0  0
    0.0462   -2.5004    0.0000 C   0  0  0  0  0  0  0  0  0  0  0  0
    1.4667   -2.9822    0.0000 C   0  0  0  0  0  0  0  0  0  0  0  0
    2.5942   -1.9928    0.0000 C   0  0  0  0  0  0  0  0  0  0  0  0
    2.3011   -0.5217    0.0000 C   0  0  0  0  0  0  0  0  0  0  0  0
    3.4286    0.4676    0.0000 C   0  0  0  0  0  0  0  0  0  0  0  0
    3.1355    1.9387    0.0000 O   0  0  0  0  0  0  0  0  0  0  0  0
    4.8491   -0.0141    0.0000 N   0  0  0  0  0  0  0  0  0  0  0  0
    5.9766    0.9753    0.0000 C   0  0  0  0  0  0  0  0  0  0  0  0
    7.3971    0.4935    0.0000 C   0  0  0  0  0  0  0  0  0  0  0  0
    6.9154   -0.9270    0.0000 C   0  0  0  0  0  0  0  0  0  0  0  0
    7.8789    1.9141    0.0000 C   0  0  0  0  0  0  0  0  0  0  0  0
    9.2994    1.4323    0.0000 O   0  0  0  0  0  0  0  0  0  0  0  0
    8.8177    0.0118    0.0000 C   0  0  0  0  0  0  0  0  0  0  0  0
    0.8806   -0.0400    0.0000 N   0  0  0  0  0  0  0  0  0  0  0  0
   -0.2469   -1.0293    0.0000 C   0  0  0  0  0  0  0  0  0  0  0  0
   -1.6674   -0.5476    0.0000 C   0  0  0  0  0  0  0  0  0  0  0  0
  1  2  1  0
  2  3  1  0
  3  4  2  0
  4  5  1  0
  5  6  2  0
  6  7  1  0
  7  8  1  0
  8  9  1  0
  7 10  2  0
 10 11  1  0
 11 12  2  0
 11 13  1  0
 13 14  1  0
 14 15  1  0
 15 16  1  0
 16 17  2  0
 17 18  1  0
 18 19  2  0
 19 20  1  0
 20 21  2  0
 20 22  1  0
 22 23  1  0
 23 24  1  0
 24 25  1  0
 24 26  1  0
 26 27  1  0
 27 28  1  0
 19 29  1  0
 29 30  2  0
 30 31  1  0
 10  3  1  0
 31 13  1  0
 30 16  1  0
 28 24  1  0
M  END
>  <Compound_ID>  (162) 
LIB162

>  <SMILES>  (162) 
COc1cccc(OC)c1C(=O)N1CCc2ccc(C(=O)NCC3(C)COC3)nc2C1

>  <R1_reagent>  (162) 
COc1cccc(OC)c1C(=O)O

>  <R1_ID>  (162) 
R-001054

>  <N_reaction>  (162) 
Amidation

>  <R2_amine>  (162) 
CC1(CN)COC1

>  <R2_ID>  (162) 
R-011779

>  <MW>  (162) 
425.5

>  <LogP>  (162) 
2.06

>  <HBD>  (162) 
1

>  <HBA>  (162) 
6

>  <RotB>  (162) 
6

>  <ASMS_similarity>  (162) 
0.5625

>  <Priority_tier>  (162) 
Tier3_explore

>  <Scaffold>  (162) 
OC(=O)c1ccc2CCNCc2n1

$$$$

     RDKit          2D

 33 36  0  0  0  0  0  0  0  0999 V2000
   -9.1259    3.9887    0.0000 C   0  0  0  0  0  0  0  0  0  0  0  0
   -8.9119    2.5040    0.0000 O   0  0  0  0  0  0  0  0  0  0  0  0
   -7.5191    1.9470    0.0000 C   0  0  0  0  0  0  0  0  0  0  0  0
   -6.3404    2.8747    0.0000 C   0  0  0  0  0  0  0  0  0  0  0  0
   -4.9477    2.3177    0.0000 C   0  0  0  0  0  0  0  0  0  0  0  0
   -4.7336    0.8331    0.0000 C   0  0  0  0  0  0  0  0  0  0  0  0
   -3.3409    0.2761    0.0000 N   0  0  0  0  0  0  0  0  0  0  0  0
   -3.1268   -1.2085    0.0000 C   0  0  0  0  0  0  0  0  0  0  0  0
   -4.3056   -2.1362    0.0000 O   0  0  0  0  0  0  0  0  0  0  0  0
   -1.7341   -1.7655    0.0000 C   0  0  0  0  0  0  0  0  0  0  0  0
   -1.5200   -3.2501    0.0000 C   0  0  0  0  0  0  0  0  0  0  0  0
   -0.1273   -3.8071    0.0000 C   0  0  0  0  0  0  0  0  0  0  0  0
    1.0515   -2.8794    0.0000 C   0  0  0  0  0  0  0  0  0  0  0  0
    0.8374   -1.3948    0.0000 C   0  0  0  0  0  0  0  0  0  0  0  0
   -0.5553   -0.8378    0.0000 N   0  0  0  0  0  0  0  0  0  0  0  0
    2.0162   -0.4671    0.0000 C   0  0  0  0  0  0  0  0  0  0  0  0
    3.4089   -1.0241    0.0000 N   0  0  0  0  0  0  0  0  0  0  0  0
    4.5876   -0.0964    0.0000 C   0  0  0  0  0  0  0  0  0  0  0  0
    4.3736    1.3883    0.0000 O   0  0  0  0  0  0  0  0  0  0  0  0
    5.9804   -0.6534    0.0000 C   0  0  0  0  0  0  0  0  0  0  0  0
    7.1591    0.2743    0.0000 C   0  0  0  0  0  0  0  0  0  0  0  0
    8.5519   -0.2826    0.0000 C   0  0  0  0  0  0  0  0  0  0  0  0
    9.7306    0.6450    0.0000 C   0  0  0  0  0  0  0  0  0  0  0  0
    9.5166    2.1297    0.0000 C   0  0  0  0  0  0  0  0  0  0  0  0
    8.1238    2.6867    0.0000 C   0  0  0  0  0  0  0  0  0  0  0  0
    7.9098    4.1713    0.0000 C   0  0  0  0  0  0  0  0  0  0  0  0
    6.9451    1.7590    0.0000 C   0  0  0  0  0  0  0  0  0  0  0  0
    3.6229   -2.5087    0.0000 C   0  0  0  0  0  0  0  0  0  0  0  0
    2.4442   -3.4364    0.0000 C   0  0  0  0  0  0  0  0  0  0  0  0
   -5.9124   -0.0946    0.0000 C   0  0  0  0  0  0  0  0  0  0  0  0
   -7.3051    0.4624    0.0000 C   0  0  0  0  0  0  0  0  0  0  0  0
   -8.4838   -0.4653    0.0000 O   0  0  0  0  0  0  0  0  0  0  0  0
   -8.2698   -1.9500    0.0000 C   0  0  0  0  0  0  0  0  0  0  0  0
  1  2  1  0
  2  3  1  0
  3  4  2  0
  4  5  1  0
  5  6  2  0
  6  7  1  0
  7  8  1  0
  8  9  2  0
  8 10  1  0
 10 11  2  0
 11 12  1  0
 12 13  2  0
 13 14  1  0
 14 15  2  0
 14 16  1  0
 16 17  1  0
 17 18  1  0
 18 19  2  0
 18 20  1  0
 20 21  1  0
 21 22  2  0
 22 23  1  0
 23 24  2  0
 24 25  1  0
 25 26  1  0
 25 27  2  0
 17 28  1  0
 28 29  1  0
  6 30  1  0
 30 31  2  0
 31 32  1  0
 32 33  1  0
 31  3  1  0
 15 10  1  0
 27 21  1  0
 29 13  1  0
M  END
>  <Compound_ID>  (163) 
LIB163

>  <SMILES>  (163) 
COc1ccc(NC(=O)c2ccc3c(n2)CN(C(=O)Cc2cccc(C)c2)CC3)cc1OC

>  <R1_reagent>  (163) 
Cc1cccc(CC(=O)O)c1

>  <R1_ID>  (163) 
R-006341

>  <N_reaction>  (163) 
Amidation

>  <R2_amine>  (163) 
COc1ccc(N)cc1OC

>  <R2_ID>  (163) 
R-004458

>  <MW>  (163) 
445.5

>  <LogP>  (163) 
3.79

>  <HBD>  (163) 
1

>  <HBA>  (163) 
5

>  <RotB>  (163) 
6

>  <ASMS_similarity>  (163) 
0.5625

>  <Priority_tier>  (163) 
Tier3_explore

>  <Scaffold>  (163) 
OC(=O)c1ccc2CCNCc2n1

$$$$

     RDKit          2D

 35 39  0  0  0  0  0  0  0  0999 V2000
   -9.8954    3.7701    0.0000 C   0  0  0  0  0  0  0  0  0  0  0  0
   -9.6051    2.2984    0.0000 O   0  0  0  0  0  0  0  0  0  0  0  0
   -8.1855    1.8139    0.0000 C   0  0  0  0  0  0  0  0  0  0  0  0
   -7.0562    2.8011    0.0000 C   0  0  0  0  0  0  0  0  0  0  0  0
   -5.6366    2.3166    0.0000 C   0  0  0  0  0  0  0  0  0  0  0  0
   -5.3463    0.8449    0.0000 C   0  0  0  0  0  0  0  0  0  0  0  0
   -3.9267    0.3604    0.0000 N   0  0  0  0  0  0  0  0  0  0  0  0
   -3.6365   -1.1112    0.0000 C   0  0  0  0  0  0  0  0  0  0  0  0
   -4.7659   -2.0984    0.0000 O   0  0  0  0  0  0  0  0  0  0  0  0
   -2.2169   -1.5957    0.0000 C   0  0  0  0  0  0  0  0  0  0  0  0
   -1.9267   -3.0674    0.0000 C   0  0  0  0  0  0  0  0  0  0  0  0
   -0.5071   -3.5519    0.0000 C   0  0  0  0  0  0  0  0  0  0  0  0
    0.6223   -2.5647    0.0000 C   0  0  0  0  0  0  0  0  0  0  0  0
    0.3321   -1.0930    0.0000 C   0  0  0  0  0  0  0  0  0  0  0  0
   -1.0875   -0.6085    0.0000 N   0  0  0  0  0  0  0  0  0  0  0  0
    1.4614   -0.1059    0.0000 C   0  0  0  0  0  0  0  0  0  0  0  0
    2.8810   -0.5904    0.0000 N   0  0  0  0  0  0  0  0  0  0  0  0
    4.0104    0.3968    0.0000 C   0  0  0  0  0  0  0  0  0  0  0  0
    3.7202    1.8685    0.0000 O   0  0  0  0  0  0  0  0  0  0  0  0
    5.4300   -0.0877    0.0000 C   0  0  0  0  0  0  0  0  0  0  0  0
    5.8725   -1.5210    0.0000 C   0  0  0  0  0  0  0  0  0  0  0  0
    7.3723   -1.5431    0.0000 N   0  0  0  0  0  0  0  0  0  0  0  0
    7.8568   -0.1235    0.0000 C   0  0  0  0  0  0  0  0  0  0  0  0
    9.2360    0.4664    0.0000 C   0  0  0  0  0  0  0  0  0  0  0  0
    9.4147    1.9557    0.0000 C   0  0  0  0  0  0  0  0  0  0  0  0
   10.7939    2.5456    0.0000 C   0  0  0  0  0  0  0  0  0  0  0  0
    8.2143    2.8552    0.0000 C   0  0  0  0  0  0  0  0  0  0  0  0
    6.8352    2.2653    0.0000 C   0  0  0  0  0  0  0  0  0  0  0  0
    6.6564    0.7760    0.0000 C   0  0  0  0  0  0  0  0  0  0  0  0
    3.1713   -2.0620    0.0000 C   0  0  0  0  0  0  0  0  0  0  0  0
    2.0419   -3.0492    0.0000 C   0  0  0  0  0  0  0  0  0  0  0  0
   -6.4757   -0.1422    0.0000 C   0  0  0  0  0  0  0  0  0  0  0  0
   -7.8953    0.3423    0.0000 C   0  0  0  0  0  0  0  0  0  0  0  0
   -9.0247   -0.6449    0.0000 O   0  0  0  0  0  0  0  0  0  0  0  0
   -8.7345   -2.1166    0.0000 C   0  0  0  0  0  0  0  0  0  0  0  0
  1  2  1  0
  2  3  1  0
  3  4  2  0
  4  5  1  0
  5  6  2  0
  6  7  1  0
  7  8  1  0
  8  9  2  0
  8 10  1  0
 10 11  2  0
 11 12  1  0
 12 13  2  0
 13 14  1  0
 14 15  2  0
 14 16  1  0
 16 17  1  0
 17 18  1  0
 18 19  2  0
 18 20  1  0
 20 21  2  0
 21 22  1  0
 22 23  1  0
 23 24  2  0
 24 25  1  0
 25 26  1  0
 25 27  2  0
 27 28  1  0
 28 29  2  0
 17 30  1  0
 30 31  1  0
  6 32  1  0
 32 33  2  0
 33 34  1  0
 34 35  1  0
 33  3  1  0
 15 10  1  0
 29 20  1  0
 31 13  1  0
 29 23  1  0
M  END
>  <Compound_ID>  (164) 
LIB164

>  <SMILES>  (164) 
COc1ccc(NC(=O)c2ccc3c(n2)CN(C(=O)c2c[nH]c4cc(C)ccc24)CC3)cc1OC

>  <R1_reagent>  (164) 
Cc1ccc2c(C(=O)O)c[nH]c2c1

>  <R1_ID>  (164) 
R-009481

>  <N_reaction>  (164) 
Amidation

>  <R2_amine>  (164) 
COc1ccc(N)cc1OC

>  <R2_ID>  (164) 
R-004458

>  <MW>  (164) 
470.5

>  <LogP>  (164) 
4.34

>  <HBD>  (164) 
2

>  <HBA>  (164) 
5

>  <RotB>  (164) 
5

>  <ASMS_similarity>  (164) 
0.5625

>  <Priority_tier>  (164) 
Tier3_explore

>  <Scaffold>  (164) 
OC(=O)c1ccc2CCNCc2n1

$$$$

     RDKit          2D

 23 24  0  0  0  0  0  0  0  0999 V2000
   -8.8700    0.2843    0.0000 C   0  0  0  0  0  0  0  0  0  0  0  0
   -7.5648   -0.4548    0.0000 C   0  0  0  0  0  0  0  0  0  0  0  0
   -7.5522   -1.9547    0.0000 C   0  0  0  0  0  0  0  0  0  0  0  0
   -6.2721    0.3061    0.0000 C   0  0  0  0  0  0  0  0  0  0  0  0
   -4.9668   -0.4330    0.0000 C   0  0  0  0  0  0  0  0  0  0  0  0
   -3.6741    0.3279    0.0000 N   0  0  0  0  0  0  0  0  0  0  0  0
   -2.3688   -0.4112    0.0000 C   0  0  0  0  0  0  0  0  0  0  0  0
   -2.3562   -1.9111    0.0000 O   0  0  0  0  0  0  0  0  0  0  0  0
   -1.0761    0.3497    0.0000 C   0  0  0  0  0  0  0  0  0  0  0  0
   -1.0887    1.8496    0.0000 C   0  0  0  0  0  0  0  0  0  0  0  0
    0.2040    2.6105    0.0000 C   0  0  0  0  0  0  0  0  0  0  0  0
    1.5093    1.8714    0.0000 C   0  0  0  0  0  0  0  0  0  0  0  0
    1.5219    0.3715    0.0000 C   0  0  0  0  0  0  0  0  0  0  0  0
    0.2292   -0.3894    0.0000 N   0  0  0  0  0  0  0  0  0  0  0  0
    2.8272   -0.3676    0.0000 C   0  0  0  0  0  0  0  0  0  0  0  0
    4.1199    0.3933    0.0000 N   0  0  0  0  0  0  0  0  0  0  0  0
    5.4252   -0.3458    0.0000 C   0  0  0  0  0  0  0  0  0  0  0  0
    6.7179    0.4150    0.0000 O   0  0  0  0  0  0  0  0  0  0  0  0
    5.4377   -1.8458    0.0000 C   0  0  0  0  0  0  0  0  0  0  0  0
    6.7430   -2.5849    0.0000 F   0  0  0  0  0  0  0  0  0  0  0  0
    4.1450   -2.6066    0.0000 F   0  0  0  0  0  0  0  0  0  0  0  0
    4.1073    1.8932    0.0000 C   0  0  0  0  0  0  0  0  0  0  0  0
    2.8020    2.6323    0.0000 C   0  0  0  0  0  0  0  0  0  0  0  0
  1  2  1  0
  2  3  1  0
  2  4  1  0
  4  5  1  0
  5  6  1  0
  6  7  1  0
  7  8  2  0
  7  9  1  0
  9 10  2  0
 10 11  1  0
 11 12  2  0
 12 13  1  0
 13 14  2  0
 13 15  1  0
 15 16  1  0
 16 17  1  0
 17 18  2  0
 17 19  1  0
 19 20  1  0
 19 21  1  0
 16 22  1  0
 22 23  1  0
 14  9  1  0
 23 12  1  0
M  END
>  <Compound_ID>  (165) 
LIB165

>  <SMILES>  (165) 
CC(C)CCNC(=O)c1ccc2c(n1)CN(C(=O)C(F)F)CC2

>  <R1_reagent>  (165) 
O=C(O)C(F)F

>  <R1_ID>  (165) 
R-008826

>  <N_reaction>  (165) 
Amidation

>  <R2_amine>  (165) 
CC(C)CCN

>  <R2_ID>  (165) 
R-003079

>  <MW>  (165) 
325.4

>  <LogP>  (165) 
2.01

>  <HBD>  (165) 
1

>  <HBA>  (165) 
3

>  <RotB>  (165) 
5

>  <ASMS_similarity>  (165) 
0.5625

>  <Priority_tier>  (165) 
Tier3_explore

>  <Scaffold>  (165) 
OC(=O)c1ccc2CCNCc2n1

$$$$

     RDKit          2D

 27 29  0  0  0  0  0  0  0  0999 V2000
   -7.5537    2.0943    0.0000 C   0  0  0  0  0  0  0  0  0  0  0  0
   -6.0944    1.7470    0.0000 C   0  0  0  0  0  0  0  0  0  0  0  0
   -5.0641    2.8372    0.0000 C   0  0  0  0  0  0  0  0  0  0  0  0
   -3.6048    2.4899    0.0000 C   0  0  0  0  0  0  0  0  0  0  0  0
   -2.5745    3.5800    0.0000 Cl  0  0  0  0  0  0  0  0  0  0  0  0
   -3.1759    1.0525    0.0000 C   0  0  0  0  0  0  0  0  0  0  0  0
   -4.2063   -0.0376    0.0000 C   0  0  0  0  0  0  0  0  0  0  0  0
   -3.7774   -1.4750    0.0000 C   0  0  0  0  0  0  0  0  0  0  0  0
   -4.8078   -2.5651    0.0000 O   0  0  0  0  0  0  0  0  0  0  0  0
   -2.3182   -1.8222    0.0000 N   0  0  0  0  0  0  0  0  0  0  0  0
   -1.8893   -3.2596    0.0000 C   0  0  0  0  0  0  0  0  0  0  0  0
   -0.4300   -3.6069    0.0000 C   0  0  0  0  0  0  0  0  0  0  0  0
    0.6003   -2.5168    0.0000 C   0  0  0  0  0  0  0  0  0  0  0  0
    2.0596   -2.8640    0.0000 C   0  0  0  0  0  0  0  0  0  0  0  0
    3.0899   -1.7739    0.0000 C   0  0  0  0  0  0  0  0  0  0  0  0
    2.6611   -0.3365    0.0000 C   0  0  0  0  0  0  0  0  0  0  0  0
    3.6914    0.7536    0.0000 C   0  0  0  0  0  0  0  0  0  0  0  0
    3.2625    2.1910    0.0000 O   0  0  0  0  0  0  0  0  0  0  0  0
    5.1507    0.4063    0.0000 N   0  0  0  0  0  0  0  0  0  0  0  0
    6.1810    1.4965    0.0000 C   0  0  0  0  0  0  0  0  0  0  0  0
    7.6403    1.1492    0.0000 C   0  0  0  0  0  0  0  0  0  0  0  0
    8.6706    2.2393    0.0000 F   0  0  0  0  0  0  0  0  0  0  0  0
    8.0692   -0.2882    0.0000 F   0  0  0  0  0  0  0  0  0  0  0  0
    1.2018    0.0107    0.0000 N   0  0  0  0  0  0  0  0  0  0  0  0
    0.1714   -1.0794    0.0000 C   0  0  0  0  0  0  0  0  0  0  0  0
   -1.2878   -0.7321    0.0000 C   0  0  0  0  0  0  0  0  0  0  0  0
   -5.6656    0.3097    0.0000 N   0  0  0  0  0  0  0  0  0  0  0  0
  1  2  1  0
  2  3  2  0
  3  4  1  0
  4  5  1  0
  4  6  2  0
  6  7  1  0
  7  8  1  0
  8  9  2  0
  8 10  1  0
 10 11  1  0
 11 12  1  0
 12 13  1  0
 13 14  2  0
 14 15  1  0
 15 16  2  0
 16 17  1  0
 17 18  2  0
 17 19  1  0
 19 20  1  0
 20 21  1  0
 21 22  1  0
 21 23  1  0
 16 24  1  0
 24 25  2  0
 25 26  1  0
  7 27  2  0
 27  2  1  0
 26 10  1  0
 25 13  1  0
M  END
>  <Compound_ID>  (166) 
LIB166

>  <SMILES>  (166) 
Cc1cc(Cl)cc(C(=O)N2CCc3ccc(C(=O)NCC(F)F)nc3C2)n1

>  <R1_reagent>  (166) 
Cc1cc(Cl)cc(C(=O)O)n1

>  <R1_ID>  (166) 
R-010833

>  <N_reaction>  (166) 
Amidation

>  <R2_amine>  (166) 
NCC(F)F

>  <R2_ID>  (166) 
R-000710

>  <MW>  (166) 
394.8

>  <LogP>  (166) 
2.63

>  <HBD>  (166) 
1

>  <HBA>  (166) 
4

>  <RotB>  (166) 
4

>  <ASMS_similarity>  (166) 
0.5616

>  <Priority_tier>  (166) 
Tier3_explore

>  <Scaffold>  (166) 
OC(=O)c1ccc2CCNCc2n1

$$$$

     RDKit          2D

 29 31  0  0  0  0  0  0  0  0999 V2000
   -7.8126    3.8393    0.0000 C   0  0  0  0  0  0  0  0  0  0  0  0
   -7.4674    2.3796    0.0000 O   0  0  0  0  0  0  0  0  0  0  0  0
   -6.0306    1.9487    0.0000 C   0  0  0  0  0  0  0  0  0  0  0  0
   -4.9391    2.9776    0.0000 C   0  0  0  0  0  0  0  0  0  0  0  0
   -3.5023    2.5467    0.0000 C   0  0  0  0  0  0  0  0  0  0  0  0
   -3.1570    1.0870    0.0000 C   0  0  0  0  0  0  0  0  0  0  0  0
   -4.2485    0.0581    0.0000 C   0  0  0  0  0  0  0  0  0  0  0  0
   -3.9033   -1.4016    0.0000 C   0  0  0  0  0  0  0  0  0  0  0  0
   -4.9948   -2.4304    0.0000 O   0  0  0  0  0  0  0  0  0  0  0  0
   -2.4665   -1.8324    0.0000 N   0  0  0  0  0  0  0  0  0  0  0  0
   -2.1212   -3.2922    0.0000 C   0  0  0  0  0  0  0  0  0  0  0  0
   -0.6845   -3.7230    0.0000 C   0  0  0  0  0  0  0  0  0  0  0  0
    0.4071   -2.6942    0.0000 C   0  0  0  0  0  0  0  0  0  0  0  0
    1.8439   -3.1250    0.0000 C   0  0  0  0  0  0  0  0  0  0  0  0
    2.9354   -2.0962    0.0000 C   0  0  0  0  0  0  0  0  0  0  0  0
    2.5901   -0.6364    0.0000 C   0  0  0  0  0  0  0  0  0  0  0  0
    3.6817    0.3924    0.0000 C   0  0  0  0  0  0  0  0  0  0  0  0
    3.3364    1.8522    0.0000 O   0  0  0  0  0  0  0  0  0  0  0  0
    5.1185   -0.0384    0.0000 N   0  0  0  0  0  0  0  0  0  0  0  0
    6.2100    0.9904    0.0000 C   0  0  0  0  0  0  0  0  0  0  0  0
    7.6468    0.5596    0.0000 C   0  0  0  0  0  0  0  0  0  0  0  0
    8.7383    1.5884    0.0000 C   0  0  0  0  0  0  0  0  0  0  0  0
   10.1751    1.1576    0.0000 C   0  0  0  0  0  0  0  0  0  0  0  0
   11.2666    2.1864    0.0000 O   0  0  0  0  0  0  0  0  0  0  0  0
    1.1533   -0.2056    0.0000 N   0  0  0  0  0  0  0  0  0  0  0  0
    0.0618   -1.2344    0.0000 C   0  0  0  0  0  0  0  0  0  0  0  0
   -1.3750   -0.8036    0.0000 C   0  0  0  0  0  0  0  0  0  0  0  0
   -5.6853    0.4890    0.0000 C   0  0  0  0  0  0  0  0  0  0  0  0
   -6.7769   -0.5399    0.0000 F   0  0  0  0  0  0  0  0  0  0  0  0
  1  2  1  0
  2  3  1  0
  3  4  2  0
  4  5  1  0
  5  6  2  0
  6  7  1  0
  7  8  1  0
  8  9  2  0
  8 10  1  0
 10 11  1  0
 11 12  1  0
 12 13  1  0
 13 14  2  0
 14 15  1  0
 15 16  2  0
 16 17  1  0
 17 18  2  0
 17 19  1  0
 19 20  1  0
 20 21  1  0
 21 22  1  0
 22 23  1  0
 23 24  1  0
 16 25  1  0
 25 26  2  0
 26 27  1  0
  7 28  2  0
 28 29  1  0
 28  3  1  0
 27 10  1  0
 26 13  1  0
M  END
>  <Compound_ID>  (167) 
LIB167

>  <SMILES>  (167) 
COc1cccc(C(=O)N2CCc3ccc(C(=O)NCCCCO)nc3C2)c1F

>  <R1_reagent>  (167) 
COc1cccc(C(=O)O)c1F

>  <R1_ID>  (167) 
R-000776

>  <N_reaction>  (167) 
Amidation

>  <R2_amine>  (167) 
NCCCCO

>  <R2_ID>  (167) 
R-002865

>  <MW>  (167) 
401.4

>  <LogP>  (167) 
1.93

>  <HBD>  (167) 
2

>  <HBA>  (167) 
5

>  <RotB>  (167) 
7

>  <ASMS_similarity>  (167) 
0.5616

>  <Priority_tier>  (167) 
Tier3_explore

>  <Scaffold>  (167) 
OC(=O)c1ccc2CCNCc2n1

$$$$

     RDKit          2D

 35 39  0  0  0  0  0  0  0  0999 V2000
   -7.7927   -2.4170    0.0000 C   0  0  0  0  0  0  0  0  0  0  0  0
   -6.6383   -1.4593    0.0000 O   0  0  0  0  0  0  0  0  0  0  0  0
   -6.8905    0.0193    0.0000 C   0  0  0  0  0  0  0  0  0  0  0  0
   -8.2972    0.5402    0.0000 C   0  0  0  0  0  0  0  0  0  0  0  0
   -8.5494    2.0189    0.0000 C   0  0  0  0  0  0  0  0  0  0  0  0
   -7.3949    2.9766    0.0000 C   0  0  0  0  0  0  0  0  0  0  0  0
   -5.9883    2.4557    0.0000 C   0  0  0  0  0  0  0  0  0  0  0  0
   -4.8338    3.4135    0.0000 O   0  0  0  0  0  0  0  0  0  0  0  0
   -5.0861    4.8921    0.0000 C   0  0  0  0  0  0  0  0  0  0  0  0
   -5.7361    0.9771    0.0000 C   0  0  0  0  0  0  0  0  0  0  0  0
   -4.3294    0.4562    0.0000 N   0  0  0  0  0  0  0  0  0  0  0  0
   -4.0772   -1.0225    0.0000 C   0  0  0  0  0  0  0  0  0  0  0  0
   -5.2316   -1.9802    0.0000 O   0  0  0  0  0  0  0  0  0  0  0  0
   -2.6706   -1.5434    0.0000 C   0  0  0  0  0  0  0  0  0  0  0  0
   -2.4183   -3.0220    0.0000 C   0  0  0  0  0  0  0  0  0  0  0  0
   -1.0117   -3.5429    0.0000 C   0  0  0  0  0  0  0  0  0  0  0  0
    0.1427   -2.5852    0.0000 C   0  0  0  0  0  0  0  0  0  0  0  0
   -0.1095   -1.1065    0.0000 C   0  0  0  0  0  0  0  0  0  0  0  0
   -1.5161   -0.5856    0.0000 N   0  0  0  0  0  0  0  0  0  0  0  0
    1.0450   -0.1488    0.0000 C   0  0  0  0  0  0  0  0  0  0  0  0
    2.4516   -0.6697    0.0000 N   0  0  0  0  0  0  0  0  0  0  0  0
    3.6061    0.2881    0.0000 C   0  0  0  0  0  0  0  0  0  0  0  0
    3.3538    1.7667    0.0000 O   0  0  0  0  0  0  0  0  0  0  0  0
    5.0127   -0.2328    0.0000 C   0  0  0  0  0  0  0  0  0  0  0  0
    5.4181   -1.6770    0.0000 C   0  0  0  0  0  0  0  0  0  0  0  0
    6.9169   -1.7377    0.0000 N   0  0  0  0  0  0  0  0  0  0  0  0
    7.4378   -0.3311    0.0000 C   0  0  0  0  0  0  0  0  0  0  0  0
    8.8317    0.2231    0.0000 C   0  0  0  0  0  0  0  0  0  0  0  0
    9.0487    1.7073    0.0000 C   0  0  0  0  0  0  0  0  0  0  0  0
   10.4426    2.2614    0.0000 C   0  0  0  0  0  0  0  0  0  0  0  0
    7.8719    2.6373    0.0000 C   0  0  0  0  0  0  0  0  0  0  0  0
    6.4780    2.0832    0.0000 C   0  0  0  0  0  0  0  0  0  0  0  0
    6.2609    0.5990    0.0000 C   0  0  0  0  0  0  0  0  0  0  0  0
    2.7038   -2.1483    0.0000 C   0  0  0  0  0  0  0  0  0  0  0  0
    1.5494   -3.1060    0.0000 C   0  0  0  0  0  0  0  0  0  0  0  0
  1  2  1  0
  2  3  1  0
  3  4  2  0
  4  5  1  0
  5  6  2  0
  6  7  1  0
  7  8  1  0
  8  9  1  0
  7 10  2  0
 10 11  1  0
 11 12  1  0
 12 13  2  0
 12 14  1  0
 14 15  2  0
 15 16  1  0
 16 17  2  0
 17 18  1  0
 18 19  2  0
 18 20  1  0
 20 21  1  0
 21 22  1  0
 22 23  2  0
 22 24  1  0
 24 25  2  0
 25 26  1  0
 26 27  1  0
 27 28  2  0
 28 29  1  0
 29 30  1  0
 29 31  2  0
 31 32  1  0
 32 33  2  0
 21 34  1  0
 34 35  1  0
 10  3  1  0
 19 14  1  0
 33 24  1  0
 35 17  1  0
 33 27  1  0
M  END
>  <Compound_ID>  (168) 
LIB168

>  <SMILES>  (168) 
COc1cccc(OC)c1NC(=O)c1ccc2c(n1)CN(C(=O)c1c[nH]c3cc(C)ccc13)CC2

>  <R1_reagent>  (168) 
Cc1ccc2c(C(=O)O)c[nH]c2c1

>  <R1_ID>  (168) 
R-009481

>  <N_reaction>  (168) 
Amidation

>  <R2_amine>  (168) 
COc1cccc(OC)c1N

>  <R2_ID>  (168) 
R-002529

>  <MW>  (168) 
470.5

>  <LogP>  (168) 
4.34

>  <HBD>  (168) 
2

>  <HBA>  (168) 
5

>  <RotB>  (168) 
5

>  <ASMS_similarity>  (168) 
0.561

>  <Priority_tier>  (168) 
Tier3_explore

>  <Scaffold>  (168) 
OC(=O)c1ccc2CCNCc2n1

$$$$

     RDKit          2D

 29 31  0  0  0  0  0  0  0  0999 V2000
   -7.1002   -0.1162    0.0000 C   0  0  0  0  0  0  0  0  0  0  0  0
   -7.3174   -1.6004    0.0000 C   0  0  0  0  0  0  0  0  0  0  0  0
   -7.5345   -3.0846    0.0000 C   0  0  0  0  0  0  0  0  0  0  0  0
   -8.8016   -1.3832    0.0000 C   0  0  0  0  0  0  0  0  0  0  0  0
   -9.3556    0.0107    0.0000 O   0  0  0  0  0  0  0  0  0  0  0  0
   -5.8332   -1.8176    0.0000 C   0  0  0  0  0  0  0  0  0  0  0  0
   -4.9030   -0.6408    0.0000 N   0  0  0  0  0  0  0  0  0  0  0  0
   -3.4188   -0.8579    0.0000 C   0  0  0  0  0  0  0  0  0  0  0  0
   -2.8648   -2.2519    0.0000 O   0  0  0  0  0  0  0  0  0  0  0  0
   -2.4887    0.3188    0.0000 C   0  0  0  0  0  0  0  0  0  0  0  0
   -3.0427    1.7128    0.0000 C   0  0  0  0  0  0  0  0  0  0  0  0
   -2.1126    2.8896    0.0000 C   0  0  0  0  0  0  0  0  0  0  0  0
   -0.6284    2.6724    0.0000 C   0  0  0  0  0  0  0  0  0  0  0  0
   -0.0743    1.2785    0.0000 C   0  0  0  0  0  0  0  0  0  0  0  0
   -1.0045    0.1017    0.0000 N   0  0  0  0  0  0  0  0  0  0  0  0
    1.4099    1.0613    0.0000 C   0  0  0  0  0  0  0  0  0  0  0  0
    2.3400    2.2381    0.0000 N   0  0  0  0  0  0  0  0  0  0  0  0
    3.8242    2.0209    0.0000 C   0  0  0  0  0  0  0  0  0  0  0  0
    4.7544    3.1977    0.0000 O   0  0  0  0  0  0  0  0  0  0  0  0
    4.3783    0.6270    0.0000 C   0  0  0  0  0  0  0  0  0  0  0  0
    5.8625    0.4099    0.0000 C   0  0  0  0  0  0  0  0  0  0  0  0
    6.4165   -0.9841    0.0000 C   0  0  0  0  0  0  0  0  0  0  0  0
    5.4864   -2.1608    0.0000 C   0  0  0  0  0  0  0  0  0  0  0  0
    6.0404   -3.5548    0.0000 C   0  0  0  0  0  0  0  0  0  0  0  0
    7.5246   -3.7719    0.0000 C   0  0  0  0  0  0  0  0  0  0  0  0
    8.4547   -2.5952    0.0000 C   0  0  0  0  0  0  0  0  0  0  0  0
    7.9007   -1.2012    0.0000 C   0  0  0  0  0  0  0  0  0  0  0  0
    1.7860    3.6320    0.0000 C   0  0  0  0  0  0  0  0  0  0  0  0
    0.3018    3.8492    0.0000 C   0  0  0  0  0  0  0  0  0  0  0  0
  1  2  1  0
  2  3  1  0
  2  4  1  0
  4  5  1  0
  2  6  1  0
  6  7  1  0
  7  8  1  0
  8  9  2  0
  8 10  1  0
 10 11  2  0
 11 12  1  0
 12 13  2  0
 13 14  1  0
 14 15  2  0
 14 16  1  0
 16 17  1  0
 17 18  1  0
 18 19  2  0
 18 20  1  0
 20 21  1  0
 21 22  1  0
 22 23  2  0
 23 24  1  0
 24 25  2  0
 25 26  1  0
 26 27  2  0
 17 28  1  0
 28 29  1  0
 15 10  1  0
 27 22  1  0
 29 13  1  0
M  END
>  <Compound_ID>  (169) 
LIB169

>  <SMILES>  (169) 
CC(C)(CO)CNC(=O)c1ccc2c(n1)CN(C(=O)CCc1ccccc1)CC2

>  <R1_reagent>  (169) 
O=C(Cl)CCc1ccccc1

>  <R1_ID>  (169) 
R-004770

>  <N_reaction>  (169) 
Amidation

>  <R2_amine>  (169) 
CC(C)(CN)CO

>  <R2_ID>  (169) 
R-010198

>  <MW>  (169) 
395.5

>  <LogP>  (169) 
2.35

>  <HBD>  (169) 
2

>  <HBA>  (169) 
4

>  <RotB>  (169) 
7

>  <ASMS_similarity>  (169) 
0.56

>  <Priority_tier>  (169) 
Tier3_explore

>  <Scaffold>  (169) 
OC(=O)c1ccc2CCNCc2n1

$$$$

     RDKit          2D

 27 30  0  0  0  0  0  0  0  0999 V2000
   -4.5278    4.2497    0.0000 C   0  0  0  0  0  0  0  0  0  0  0  0
   -5.1238    2.8732    0.0000 C   0  0  0  0  0  0  0  0  0  0  0  0
   -6.5877    2.5463    0.0000 C   0  0  0  0  0  0  0  0  0  0  0  0
   -6.7292    1.0530    0.0000 C   0  0  0  0  0  0  0  0  0  0  0  0
   -5.3527    0.4569    0.0000 C   0  0  0  0  0  0  0  0  0  0  0  0
   -5.0258   -1.0070    0.0000 C   0  0  0  0  0  0  0  0  0  0  0  0
   -6.1301   -2.0221    0.0000 O   0  0  0  0  0  0  0  0  0  0  0  0
   -3.5945   -1.4559    0.0000 N   0  0  0  0  0  0  0  0  0  0  0  0
   -3.2676   -2.9198    0.0000 C   0  0  0  0  0  0  0  0  0  0  0  0
   -1.8363   -3.3687    0.0000 C   0  0  0  0  0  0  0  0  0  0  0  0
   -0.7320   -2.3536    0.0000 C   0  0  0  0  0  0  0  0  0  0  0  0
    0.6993   -2.8024    0.0000 C   0  0  0  0  0  0  0  0  0  0  0  0
    1.8036   -1.7873    0.0000 C   0  0  0  0  0  0  0  0  0  0  0  0
    1.4767   -0.3234    0.0000 C   0  0  0  0  0  0  0  0  0  0  0  0
    2.5811    0.6917    0.0000 C   0  0  0  0  0  0  0  0  0  0  0  0
    2.2542    2.1556    0.0000 O   0  0  0  0  0  0  0  0  0  0  0  0
    4.0124    0.2428    0.0000 N   0  0  0  0  0  0  0  0  0  0  0  0
    5.1167    1.2579    0.0000 C   0  0  0  0  0  0  0  0  0  0  0  0
    6.5480    0.8090    0.0000 C   0  0  0  0  0  0  0  0  0  0  0  0
    7.7524    1.7031    0.0000 C   0  0  0  0  0  0  0  0  0  0  0  0
    8.9749    0.8340    0.0000 C   0  0  0  0  0  0  0  0  0  0  0  0
    8.5261   -0.5973    0.0000 C   0  0  0  0  0  0  0  0  0  0  0  0
    7.0261   -0.6127    0.0000 O   0  0  0  0  0  0  0  0  0  0  0  0
    0.0455    0.1255    0.0000 N   0  0  0  0  0  0  0  0  0  0  0  0
   -1.0589   -0.8896    0.0000 C   0  0  0  0  0  0  0  0  0  0  0  0
   -2.4902   -0.4408    0.0000 C   0  0  0  0  0  0  0  0  0  0  0  0
   -4.3605    1.5819    0.0000 O   0  0  0  0  0  0  0  0  0  0  0  0
  1  2  1  0
  2  3  2  0
  3  4  1  0
  4  5  2  0
  5  6  1  0
  6  7  2  0
  6  8  1  0
  8  9  1  0
  9 10  1  0
 10 11  1  0
 11 12  2  0
 12 13  1  0
 13 14  2  0
 14 15  1  0
 15 16  2  0
 15 17  1  0
 17 18  1  0
 18 19  1  0
 19 20  2  0
 20 21  1  0
 21 22  2  0
 22 23  1  0
 14 24  1  0
 24 25  2  0
 25 26  1  0
  5 27  1  0
 27  2  1  0
 26  8  1  0
 25 11  1  0
 23 19  1  0
M  END
>  <Compound_ID>  (170) 
LIB170

>  <SMILES>  (170) 
Cc1ccc(C(=O)N2CCc3ccc(C(=O)NCc4ccco4)nc3C2)o1

>  <R1_reagent>  (170) 
Cc1ccc(C(=O)O)o1

>  <R1_ID>  (170) 
R-000235

>  <N_reaction>  (170) 
Amidation

>  <R2_amine>  (170) 
NCc1ccco1

>  <R2_ID>  (170) 
R-002355

>  <MW>  (170) 
365.4

>  <LogP>  (170) 
2.7

>  <HBD>  (170) 
1

>  <HBA>  (170) 
5

>  <RotB>  (170) 
4

>  <ASMS_similarity>  (170) 
0.56

>  <Priority_tier>  (170) 
Tier3_explore

>  <Scaffold>  (170) 
OC(=O)c1ccc2CCNCc2n1

$$$$

     RDKit          2D

 30 33  0  0  0  0  0  0  0  0999 V2000
   -8.0675    3.6317    0.0000 C   0  0  0  0  0  0  0  0  0  0  0  0
   -7.6717    2.1849    0.0000 O   0  0  0  0  0  0  0  0  0  0  0  0
   -6.2208    1.8042    0.0000 C   0  0  0  0  0  0  0  0  0  0  0  0
   -5.1657    2.8704    0.0000 C   0  0  0  0  0  0  0  0  0  0  0  0
   -3.7148    2.4898    0.0000 C   0  0  0  0  0  0  0  0  0  0  0  0
   -3.3190    1.0429    0.0000 C   0  0  0  0  0  0  0  0  0  0  0  0
   -4.3741   -0.0233    0.0000 C   0  0  0  0  0  0  0  0  0  0  0  0
   -3.9783   -1.4701    0.0000 C   0  0  0  0  0  0  0  0  0  0  0  0
   -5.0334   -2.5363    0.0000 O   0  0  0  0  0  0  0  0  0  0  0  0
   -2.5274   -1.8508    0.0000 N   0  0  0  0  0  0  0  0  0  0  0  0
   -2.1316   -3.2976    0.0000 C   0  0  0  0  0  0  0  0  0  0  0  0
   -0.6807   -3.6783    0.0000 C   0  0  0  0  0  0  0  0  0  0  0  0
    0.3744   -2.6121    0.0000 C   0  0  0  0  0  0  0  0  0  0  0  0
    1.8253   -2.9927    0.0000 C   0  0  0  0  0  0  0  0  0  0  0  0
    2.8804   -1.9266    0.0000 C   0  0  0  0  0  0  0  0  0  0  0  0
    2.4846   -0.4797    0.0000 C   0  0  0  0  0  0  0  0  0  0  0  0
    3.5397    0.5865    0.0000 C   0  0  0  0  0  0  0  0  0  0  0  0
    3.1439    2.0333    0.0000 O   0  0  0  0  0  0  0  0  0  0  0  0
    4.9906    0.2058    0.0000 N   0  0  0  0  0  0  0  0  0  0  0  0
    6.0457    1.2720    0.0000 C   0  0  0  0  0  0  0  0  0  0  0  0
    7.4966    0.8913    0.0000 C   0  0  0  0  0  0  0  0  0  0  0  0
    7.1159   -0.5596    0.0000 C   0  0  0  0  0  0  0  0  0  0  0  0
    7.8773    2.3422    0.0000 C   0  0  0  0  0  0  0  0  0  0  0  0
    9.3282    1.9616    0.0000 O   0  0  0  0  0  0  0  0  0  0  0  0
    8.9475    0.5107    0.0000 C   0  0  0  0  0  0  0  0  0  0  0  0
    1.0337   -0.0991    0.0000 N   0  0  0  0  0  0  0  0  0  0  0  0
   -0.0214   -1.1652    0.0000 C   0  0  0  0  0  0  0  0  0  0  0  0
   -1.4723   -0.7846    0.0000 C   0  0  0  0  0  0  0  0  0  0  0  0
   -5.8250    0.3574    0.0000 C   0  0  0  0  0  0  0  0  0  0  0  0
   -6.8801   -0.7088    0.0000 F   0  0  0  0  0  0  0  0  0  0  0  0
  1  2  1  0
  2  3  1  0
  3  4  2  0
  4  5  1  0
  5  6  2  0
  6  7  1  0
  7  8  1  0
  8  9  2  0
  8 10  1  0
 10 11  1  0
 11 12  1  0
 12 13  1  0
 13 14  2  0
 14 15  1  0
 15 16  2  0
 16 17  1  0
 17 18  2  0
 17 19  1  0
 19 20  1  0
 20 21  1  0
 21 22  1  0
 21 23  1  0
 23 24  1  0
 24 25  1  0
 16 26  1  0
 26 27  2  0
 27 28  1  0
  7 29  2  0
 29 30  1  0
 29  3  1  0
 28 10  1  0
 27 13  1  0
 25 21  1  0
M  END
>  <Compound_ID>  (171) 
LIB171

>  <SMILES>  (171) 
COc1cccc(C(=O)N2CCc3ccc(C(=O)NCC4(C)COC4)nc3C2)c1F

>  <R1_reagent>  (171) 
COc1cccc(C(=O)O)c1F

>  <R1_ID>  (171) 
R-000776

>  <N_reaction>  (171) 
Amidation

>  <R2_amine>  (171) 
CC1(CN)COC1

>  <R2_ID>  (171) 
R-011779

>  <MW>  (171) 
413.4

>  <LogP>  (171) 
2.19

>  <HBD>  (171) 
1

>  <HBA>  (171) 
5

>  <RotB>  (171) 
5

>  <ASMS_similarity>  (171) 
0.5595

>  <Priority_tier>  (171) 
Tier3_explore

>  <Scaffold>  (171) 
OC(=O)c1ccc2CCNCc2n1

$$$$

     RDKit          2D

 28 31  0  0  0  0  0  0  0  0999 V2000
   -4.4270   -1.9017    0.0000 O   0  0  0  0  0  0  0  0  0  0  0  0
   -3.3831   -0.8245    0.0000 C   0  0  0  0  0  0  0  0  0  0  0  0
   -3.7941    0.6181    0.0000 N   0  0  0  0  0  0  0  0  0  0  0  0
   -5.2489    0.9835    0.0000 C   0  0  0  0  0  0  0  0  0  0  0  0
   -5.6599    2.4261    0.0000 C   0  0  0  0  0  0  0  0  0  0  0  0
   -7.1147    2.7915    0.0000 C   0  0  0  0  0  0  0  0  0  0  0  0
   -8.1585    1.7143    0.0000 C   0  0  0  0  0  0  0  0  0  0  0  0
   -7.7476    0.2717    0.0000 C   0  0  0  0  0  0  0  0  0  0  0  0
   -6.2927   -0.0937    0.0000 C   0  0  0  0  0  0  0  0  0  0  0  0
   -5.8818   -1.5363    0.0000 Cl  0  0  0  0  0  0  0  0  0  0  0  0
   -1.9283   -1.1899    0.0000 C   0  0  0  0  0  0  0  0  0  0  0  0
   -1.5173   -2.6325    0.0000 C   0  0  0  0  0  0  0  0  0  0  0  0
   -0.0625   -2.9979    0.0000 C   0  0  0  0  0  0  0  0  0  0  0  0
    0.9813   -1.9207    0.0000 C   0  0  0  0  0  0  0  0  0  0  0  0
    0.5704   -0.4781    0.0000 C   0  0  0  0  0  0  0  0  0  0  0  0
   -0.8845   -0.1127    0.0000 N   0  0  0  0  0  0  0  0  0  0  0  0
    1.6142    0.5991    0.0000 C   0  0  0  0  0  0  0  0  0  0  0  0
    3.0690    0.2337    0.0000 N   0  0  0  0  0  0  0  0  0  0  0  0
    4.1129    1.3109    0.0000 C   0  0  0  0  0  0  0  0  0  0  0  0
    3.7019    2.7535    0.0000 O   0  0  0  0  0  0  0  0  0  0  0  0
    5.5677    0.9455    0.0000 C   0  0  0  0  0  0  0  0  0  0  0  0
    5.9787   -0.4971    0.0000 N   0  0  0  0  0  0  0  0  0  0  0  0
    7.4335   -0.8625    0.0000 C   0  0  0  0  0  0  0  0  0  0  0  0
    8.4773    0.2147    0.0000 C   0  0  0  0  0  0  0  0  0  0  0  0
    8.0664    1.6573    0.0000 C   0  0  0  0  0  0  0  0  0  0  0  0
    6.6115    2.0227    0.0000 N   0  0  0  0  0  0  0  0  0  0  0  0
    3.4800   -1.2089    0.0000 C   0  0  0  0  0  0  0  0  0  0  0  0
    2.4361   -2.2861    0.0000 C   0  0  0  0  0  0  0  0  0  0  0  0
  1  2  2  0
  2  3  1  0
  3  4  1  0
  4  5  2  0
  5  6  1  0
  6  7  2  0
  7  8  1  0
  8  9  2  0
  9 10  1  0
  2 11  1  0
 11 12  2  0
 12 13  1  0
 13 14  2  0
 14 15  1  0
 15 16  2  0
 15 17  1  0
 17 18  1  0
 18 19  1  0
 19 20  2  0
 19 21  1  0
 21 22  2  0
 22 23  1  0
 23 24  2  0
 24 25  1  0
 25 26  2  0
 18 27  1  0
 27 28  1  0
  9  4  1  0
 16 11  1  0
 26 21  1  0
 28 14  1  0
M  END
>  <Compound_ID>  (172) 
LIB172

>  <SMILES>  (172) 
O=C(Nc1ccccc1Cl)c1ccc2c(n1)CN(C(=O)c1ncccn1)CC2

>  <R1_reagent>  (172) 
O=C(O)c1ncccn1

>  <R1_ID>  (172) 
R-009774

>  <N_reaction>  (172) 
Amidation

>  <R2_amine>  (172) 
Nc1ccccc1Cl

>  <R2_ID>  (172) 
R-002436

>  <MW>  (172) 
393.8

>  <LogP>  (172) 
2.98

>  <HBD>  (172) 
1

>  <HBA>  (172) 
5

>  <RotB>  (172) 
3

>  <ASMS_similarity>  (172) 
0.5588

>  <Priority_tier>  (172) 
Tier3_explore

>  <Scaffold>  (172) 
OC(=O)c1ccc2CCNCc2n1

$$$$

     RDKit          2D

 28 31  0  0  0  0  0  0  0  0999 V2000
   -9.2534   -3.1821    0.0000 C   0  0  0  0  0  0  0  0  0  0  0  0
   -8.3785   -1.9637    0.0000 C   0  0  0  0  0  0  0  0  0  0  0  0
   -6.8858   -2.1123    0.0000 C   0  0  0  0  0  0  0  0  0  0  0  0
   -6.0109   -0.8939    0.0000 N   0  0  0  0  0  0  0  0  0  0  0  0
   -4.5183   -1.0424    0.0000 C   0  0  0  0  0  0  0  0  0  0  0  0
   -3.9006   -2.4093    0.0000 O   0  0  0  0  0  0  0  0  0  0  0  0
   -3.6433    0.1760    0.0000 C   0  0  0  0  0  0  0  0  0  0  0  0
   -4.2610    1.5429    0.0000 C   0  0  0  0  0  0  0  0  0  0  0  0
   -3.3861    2.7613    0.0000 C   0  0  0  0  0  0  0  0  0  0  0  0
   -1.8935    2.6128    0.0000 C   0  0  0  0  0  0  0  0  0  0  0  0
   -1.2758    1.2459    0.0000 C   0  0  0  0  0  0  0  0  0  0  0  0
   -2.1507    0.0275    0.0000 N   0  0  0  0  0  0  0  0  0  0  0  0
    0.2169    1.0974    0.0000 C   0  0  0  0  0  0  0  0  0  0  0  0
    1.0918    2.3158    0.0000 N   0  0  0  0  0  0  0  0  0  0  0  0
    2.5844    2.1673    0.0000 C   0  0  0  0  0  0  0  0  0  0  0  0
    3.4594    3.3857    0.0000 O   0  0  0  0  0  0  0  0  0  0  0  0
    3.2021    0.8004    0.0000 C   0  0  0  0  0  0  0  0  0  0  0  0
    2.3272   -0.4180    0.0000 C   0  0  0  0  0  0  0  0  0  0  0  0
    2.9449   -1.7850    0.0000 C   0  0  0  0  0  0  0  0  0  0  0  0
    4.4375   -1.9335    0.0000 C   0  0  0  0  0  0  0  0  0  0  0  0
    5.0552   -3.3004    0.0000 C   0  0  0  0  0  0  0  0  0  0  0  0
    6.5478   -3.4489    0.0000 C   0  0  0  0  0  0  0  0  0  0  0  0
    7.4228   -2.2305    0.0000 C   0  0  0  0  0  0  0  0  0  0  0  0
    6.8051   -0.8636    0.0000 C   0  0  0  0  0  0  0  0  0  0  0  0
    5.3124   -0.7151    0.0000 C   0  0  0  0  0  0  0  0  0  0  0  0
    4.6947    0.6518    0.0000 N   0  0  0  0  0  0  0  0  0  0  0  0
    0.4741    3.6827    0.0000 C   0  0  0  0  0  0  0  0  0  0  0  0
   -1.0185    3.8312    0.0000 C   0  0  0  0  0  0  0  0  0  0  0  0
  1  2  1  0
  2  3  1  0
  3  4  1  0
  4  5  1  0
  5  6  2  0
  5  7  1  0
  7  8  2  0
  8  9  1  0
  9 10  2  0
 10 11  1  0
 11 12  2  0
 11 13  1  0
 13 14  1  0
 14 15  1  0
 15 16  2  0
 15 17  1  0
 17 18  2  0
 18 19  1  0
 19 20  2  0
 20 21  1  0
 21 22  2  0
 22 23  1  0
 23 24  2  0
 24 25  1  0
 25 26  2  0
 14 27  1  0
 27 28  1  0
 12  7  1  0
 26 17  1  0
 28 10  1  0
 25 20  1  0
M  END
>  <Compound_ID>  (173) 
LIB173

>  <SMILES>  (173) 
CCCNC(=O)c1ccc2c(n1)CN(C(=O)c1ccc3ccccc3n1)CC2

>  <R1_reagent>  (173) 
O=C(Cl)c1ccc2ccccc2n1

>  <R1_ID>  (173) 
R-011322

>  <N_reaction>  (173) 
Amidation

>  <R2_amine>  (173) 
CCCN

>  <R2_ID>  (173) 
R-006291

>  <MW>  (173) 
374.4

>  <LogP>  (173) 
2.97

>  <HBD>  (173) 
1

>  <HBA>  (173) 
4

>  <RotB>  (173) 
4

>  <ASMS_similarity>  (173) 
0.5588

>  <Priority_tier>  (173) 
Tier3_explore

>  <Scaffold>  (173) 
OC(=O)c1ccc2CCNCc2n1

$$$$

     RDKit          2D

 36 39  0  0  0  0  0  0  0  0999 V2000
   -8.2483    4.0941    0.0000 C   0  0  0  0  0  0  0  0  0  0  0  0
   -6.7941    3.7266    0.0000 C   0  0  0  0  0  0  0  0  0  0  0  0
   -6.3852    2.2834    0.0000 N   0  0  0  0  0  0  0  0  0  0  0  0
   -4.9309    1.9159    0.0000 C   0  0  0  0  0  0  0  0  0  0  0  0
   -4.5220    0.4727    0.0000 C   0  0  0  0  0  0  0  0  0  0  0  0
   -3.0677    0.1053    0.0000 N   0  0  0  0  0  0  0  0  0  0  0  0
   -2.6588   -1.3379    0.0000 C   0  0  0  0  0  0  0  0  0  0  0  0
   -3.7042   -2.4136    0.0000 O   0  0  0  0  0  0  0  0  0  0  0  0
   -1.2045   -1.7054    0.0000 C   0  0  0  0  0  0  0  0  0  0  0  0
   -0.7956   -3.1486    0.0000 C   0  0  0  0  0  0  0  0  0  0  0  0
    0.6586   -3.5161    0.0000 C   0  0  0  0  0  0  0  0  0  0  0  0
    1.7040   -2.4404    0.0000 C   0  0  0  0  0  0  0  0  0  0  0  0
    1.2952   -0.9972    0.0000 C   0  0  0  0  0  0  0  0  0  0  0  0
   -0.1591   -0.6297    0.0000 N   0  0  0  0  0  0  0  0  0  0  0  0
    2.3406    0.0785    0.0000 C   0  0  0  0  0  0  0  0  0  0  0  0
    3.7948   -0.2890    0.0000 N   0  0  0  0  0  0  0  0  0  0  0  0
    4.8402    0.7867    0.0000 C   0  0  0  0  0  0  0  0  0  0  0  0
    4.4314    2.2299    0.0000 O   0  0  0  0  0  0  0  0  0  0  0  0
    6.2945    0.4192    0.0000 C   0  0  0  0  0  0  0  0  0  0  0  0
    6.7034   -1.0240    0.0000 C   0  0  0  0  0  0  0  0  0  0  0  0
    8.1577   -1.3915    0.0000 C   0  0  0  0  0  0  0  0  0  0  0  0
    9.2031   -0.3158    0.0000 C   0  0  0  0  0  0  0  0  0  0  0  0
    8.7942    1.1274    0.0000 C   0  0  0  0  0  0  0  0  0  0  0  0
    9.8396    2.2031    0.0000 O   0  0  0  0  0  0  0  0  0  0  0  0
   11.2939    1.8356    0.0000 C   0  0  0  0  0  0  0  0  0  0  0  0
    7.3399    1.4949    0.0000 C   0  0  0  0  0  0  0  0  0  0  0  0
    6.9310    2.9381    0.0000 F   0  0  0  0  0  0  0  0  0  0  0  0
    4.2037   -1.7322    0.0000 C   0  0  0  0  0  0  0  0  0  0  0  0
    3.1583   -2.8079    0.0000 C   0  0  0  0  0  0  0  0  0  0  0  0
   -7.4306    1.2077    0.0000 C   0  0  0  0  0  0  0  0  0  0  0  0
   -8.8849    1.5752    0.0000 C   0  0  0  0  0  0  0  0  0  0  0  0
   -9.9303    0.4995    0.0000 C   0  0  0  0  0  0  0  0  0  0  0  0
   -9.5214   -0.9437    0.0000 C   0  0  0  0  0  0  0  0  0  0  0  0
   -8.0671   -1.3112    0.0000 C   0  0  0  0  0  0  0  0  0  0  0  0
   -7.6582   -2.7544    0.0000 C   0  0  0  0  0  0  0  0  0  0  0  0
   -7.0217   -0.2355    0.0000 C   0  0  0  0  0  0  0  0  0  0  0  0
  1  2  1  0
  2  3  1  0
  3  4  1  0
  4  5  1  0
  5  6  1  0
  6  7  1  0
  7  8  2  0
  7  9  1  0
  9 10  2  0
 10 11  1  0
 11 12  2  0
 12 13  1  0
 13 14  2  0
 13 15  1  0
 15 16  1  0
 16 17  1  0
 17 18  2  0
 17 19  1  0
 19 20  2  0
 20 21  1  0
 21 22  2  0
 22 23  1  0
 23 24  1  0
 24 25  1  0
 23 26  2  0
 26 27  1  0
 16 28  1  0
 28 29  1  0
  3 30  1  0
 30 31  2  0
 31 32  1  0
 32 33  2  0
 33 34  1  0
 34 35  1  0
 34 36  2  0
 14  9  1  0
 26 19  1  0
 36 30  1  0
 29 12  1  0
M  END
>  <Compound_ID>  (174) 
LIB174

>  <SMILES>  (174) 
CCN(CCNC(=O)c1ccc2c(n1)CN(C(=O)c1cccc(OC)c1F)CC2)c1cccc(C)c1

>  <R1_reagent>  (174) 
COc1cccc(C(=O)O)c1F

>  <R1_ID>  (174) 
R-000776

>  <N_reaction>  (174) 
Amidation

>  <R2_amine>  (174) 
CCN(CCN)c1cccc(C)c1

>  <R2_ID>  (174) 
R-009717

>  <MW>  (174) 
490.6

>  <LogP>  (174) 
3.99

>  <HBD>  (174) 
1

>  <HBA>  (174) 
5

>  <RotB>  (174) 
8

>  <ASMS_similarity>  (174) 
0.5581

>  <Priority_tier>  (174) 
Tier3_explore

>  <Scaffold>  (174) 
OC(=O)c1ccc2CCNCc2n1

$$$$

     RDKit          2D

 28 31  0  0  0  0  0  0  0  0999 V2000
   -4.4748   -1.9062    0.0000 O   0  0  0  0  0  0  0  0  0  0  0  0
   -3.4354   -0.8247    0.0000 C   0  0  0  0  0  0  0  0  0  0  0  0
   -3.8523    0.6162    0.0000 N   0  0  0  0  0  0  0  0  0  0  0  0
   -5.3086    0.9756    0.0000 C   0  0  0  0  0  0  0  0  0  0  0  0
   -5.7255    2.4165    0.0000 C   0  0  0  0  0  0  0  0  0  0  0  0
   -7.1818    2.7759    0.0000 C   0  0  0  0  0  0  0  0  0  0  0  0
   -8.2212    1.6944    0.0000 C   0  0  0  0  0  0  0  0  0  0  0  0
   -7.8043    0.2535    0.0000 C   0  0  0  0  0  0  0  0  0  0  0  0
   -6.3480   -0.1059    0.0000 C   0  0  0  0  0  0  0  0  0  0  0  0
   -5.9311   -1.5468    0.0000 Cl  0  0  0  0  0  0  0  0  0  0  0  0
   -1.9791   -1.1841    0.0000 C   0  0  0  0  0  0  0  0  0  0  0  0
   -1.5622   -2.6250    0.0000 C   0  0  0  0  0  0  0  0  0  0  0  0
   -0.1059   -2.9844    0.0000 C   0  0  0  0  0  0  0  0  0  0  0  0
    0.9335   -1.9029    0.0000 C   0  0  0  0  0  0  0  0  0  0  0  0
    0.5166   -0.4620    0.0000 C   0  0  0  0  0  0  0  0  0  0  0  0
   -0.9397   -0.1026    0.0000 N   0  0  0  0  0  0  0  0  0  0  0  0
    1.5560    0.6195    0.0000 C   0  0  0  0  0  0  0  0  0  0  0  0
    3.0123    0.2601    0.0000 N   0  0  0  0  0  0  0  0  0  0  0  0
    4.0517    1.3416    0.0000 C   0  0  0  0  0  0  0  0  0  0  0  0
    3.6348    2.7825    0.0000 O   0  0  0  0  0  0  0  0  0  0  0  0
    5.5080    0.9822    0.0000 C   0  0  0  0  0  0  0  0  0  0  0  0
    6.2837   -0.3017    0.0000 C   0  0  0  0  0  0  0  0  0  0  0  0
    7.5676    0.4739    0.0000 C   0  0  0  0  0  0  0  0  0  0  0  0
    8.8515    1.2495    0.0000 F   0  0  0  0  0  0  0  0  0  0  0  0
    8.3432   -0.8100    0.0000 F   0  0  0  0  0  0  0  0  0  0  0  0
    6.7919    1.7578    0.0000 C   0  0  0  0  0  0  0  0  0  0  0  0
    3.4292   -1.1808    0.0000 C   0  0  0  0  0  0  0  0  0  0  0  0
    2.3898   -2.2623    0.0000 C   0  0  0  0  0  0  0  0  0  0  0  0
  1  2  2  0
  2  3  1  0
  3  4  1  0
  4  5  2  0
  5  6  1  0
  6  7  2  0
  7  8  1  0
  8  9  2  0
  9 10  1  0
  2 11  1  0
 11 12  2  0
 12 13  1  0
 13 14  2  0
 14 15  1  0
 15 16  2  0
 15 17  1  0
 17 18  1  0
 18 19  1  0
 19 20  2  0
 19 21  1  0
 21 22  1  0
 22 23  1  0
 23 24  1  0
 23 25  1  0
 23 26  1  0
 18 27  1  0
 27 28  1  0
  9  4  1  0
 16 11  1  0
 26 21  1  0
 28 14  1  0
M  END
>  <Compound_ID>  (175) 
LIB175

>  <SMILES>  (175) 
O=C(Nc1ccccc1Cl)c1ccc2c(n1)CN(C(=O)C1CC(F)(F)C1)CC2

>  <R1_reagent>  (175) 
O=C(O)C1CC(F)(F)C1

>  <R1_ID>  (175) 
R-011949

>  <N_reaction>  (175) 
Amidation

>  <R2_amine>  (175) 
Nc1ccccc1Cl

>  <R2_ID>  (175) 
R-002436

>  <MW>  (175) 
405.8

>  <LogP>  (175) 
3.92

>  <HBD>  (175) 
1

>  <HBA>  (175) 
3

>  <RotB>  (175) 
3

>  <ASMS_similarity>  (175) 
0.5571

>  <Priority_tier>  (175) 
Tier3_explore

>  <Scaffold>  (175) 
OC(=O)c1ccc2CCNCc2n1

$$$$

     RDKit          2D

 30 33  0  0  0  0  0  0  0  0999 V2000
   -7.6452    4.1845    0.0000 C   0  0  0  0  0  0  0  0  0  0  0  0
   -6.6817    3.0348    0.0000 C   0  0  0  0  0  0  0  0  0  0  0  0
   -7.0456    1.5796    0.0000 C   0  0  0  0  0  0  0  0  0  0  0  0
   -5.7740    0.7839    0.0000 C   0  0  0  0  0  0  0  0  0  0  0  0
   -5.6704   -0.7125    0.0000 C   0  0  0  0  0  0  0  0  0  0  0  0
   -6.9145   -1.5505    0.0000 O   0  0  0  0  0  0  0  0  0  0  0  0
   -4.3226   -1.3709    0.0000 N   0  0  0  0  0  0  0  0  0  0  0  0
   -4.2190   -2.8674    0.0000 C   0  0  0  0  0  0  0  0  0  0  0  0
   -2.8712   -3.5258    0.0000 C   0  0  0  0  0  0  0  0  0  0  0  0
   -1.6271   -2.6878    0.0000 C   0  0  0  0  0  0  0  0  0  0  0  0
   -0.2794   -3.3463    0.0000 C   0  0  0  0  0  0  0  0  0  0  0  0
    0.9647   -2.5083    0.0000 C   0  0  0  0  0  0  0  0  0  0  0  0
    0.8611   -1.0119    0.0000 C   0  0  0  0  0  0  0  0  0  0  0  0
    2.1052   -0.1739    0.0000 C   0  0  0  0  0  0  0  0  0  0  0  0
    2.0016    1.3225    0.0000 O   0  0  0  0  0  0  0  0  0  0  0  0
    3.4530   -0.8324    0.0000 N   0  0  0  0  0  0  0  0  0  0  0  0
    4.6971    0.0056    0.0000 C   0  0  0  0  0  0  0  0  0  0  0  0
    6.0448   -0.6529    0.0000 C   0  0  0  0  0  0  0  0  0  0  0  0
    7.2889    0.1851    0.0000 N   0  0  0  0  0  0  0  0  0  0  0  0
    8.6367   -0.4734    0.0000 C   0  0  0  0  0  0  0  0  0  0  0  0
    9.8808    0.3646    0.0000 C   0  0  0  0  0  0  0  0  0  0  0  0
    9.7772    1.8610    0.0000 O   0  0  0  0  0  0  0  0  0  0  0  0
    8.4294    2.5195    0.0000 C   0  0  0  0  0  0  0  0  0  0  0  0
    7.1853    1.6815    0.0000 C   0  0  0  0  0  0  0  0  0  0  0  0
   -0.4867   -0.3535    0.0000 N   0  0  0  0  0  0  0  0  0  0  0  0
   -1.7308   -1.1914    0.0000 C   0  0  0  0  0  0  0  0  0  0  0  0
   -3.0785   -0.5330    0.0000 C   0  0  0  0  0  0  0  0  0  0  0  0
   -4.6243    1.7473    0.0000 N   0  0  0  0  0  0  0  0  0  0  0  0
   -3.1691    1.3835    0.0000 C   0  0  0  0  0  0  0  0  0  0  0  0
   -5.1853    3.1385    0.0000 N   0  0  0  0  0  0  0  0  0  0  0  0
  1  2  1  0
  2  3  1  0
  3  4  2  0
  4  5  1  0
  5  6  2  0
  5  7  1  0
  7  8  1  0
  8  9  1  0
  9 10  1  0
 10 11  2  0
 11 12  1  0
 12 13  2  0
 13 14  1  0
 14 15  2  0
 14 16  1  0
 16 17  1  0
 17 18  1  0
 18 19  1  0
 19 20  1  0
 20 21  1  0
 21 22  1  0
 22 23  1  0
 23 24  1  0
 13 25  1  0
 25 26  2  0
 26 27  1  0
  4 28  1  0
 28 29  1  0
 28 30  1  0
 30  2  2  0
 27  7  1  0
 26 10  1  0
 24 19  1  0
M  END
>  <Compound_ID>  (176) 
LIB176

>  <SMILES>  (176) 
Cc1cc(C(=O)N2CCc3ccc(C(=O)NCCN4CCOCC4)nc3C2)n(C)n1

>  <R1_reagent>  (176) 
Cc1cc(C(=O)Cl)n(C)n1

>  <R1_ID>  (176) 
R-000631

>  <N_reaction>  (176) 
Amidation

>  <R2_amine>  (176) 
NCCN1CCOCC1

>  <R2_ID>  (176) 
R-002761

>  <MW>  (176) 
412.5

>  <LogP>  (176) 
0.38

>  <HBD>  (176) 
1

>  <HBA>  (176) 
7

>  <RotB>  (176) 
5

>  <ASMS_similarity>  (176) 
0.557

>  <Priority_tier>  (176) 
Tier3_explore

>  <Scaffold>  (176) 
OC(=O)c1ccc2CCNCc2n1

$$$$

     RDKit          2D

 29 32  0  0  0  0  0  0  0  0999 V2000
   -7.7299    4.2769    0.0000 C   0  0  0  0  0  0  0  0  0  0  0  0
   -6.7731    3.1216    0.0000 C   0  0  0  0  0  0  0  0  0  0  0  0
   -7.1454    1.6686    0.0000 C   0  0  0  0  0  0  0  0  0  0  0  0
   -5.8784    0.8655    0.0000 C   0  0  0  0  0  0  0  0  0  0  0  0
   -5.7834   -0.6315    0.0000 C   0  0  0  0  0  0  0  0  0  0  0  0
   -7.0323   -1.4622    0.0000 O   0  0  0  0  0  0  0  0  0  0  0  0
   -4.4395   -1.2977    0.0000 N   0  0  0  0  0  0  0  0  0  0  0  0
   -4.3445   -2.7947    0.0000 C   0  0  0  0  0  0  0  0  0  0  0  0
   -3.0005   -3.4609    0.0000 C   0  0  0  0  0  0  0  0  0  0  0  0
   -1.7516   -2.6301    0.0000 C   0  0  0  0  0  0  0  0  0  0  0  0
   -0.4077   -3.2963    0.0000 C   0  0  0  0  0  0  0  0  0  0  0  0
    0.8413   -2.4655    0.0000 C   0  0  0  0  0  0  0  0  0  0  0  0
    0.7462   -0.9685    0.0000 C   0  0  0  0  0  0  0  0  0  0  0  0
    1.9952   -0.1377    0.0000 C   0  0  0  0  0  0  0  0  0  0  0  0
    1.9001    1.3592    0.0000 O   0  0  0  0  0  0  0  0  0  0  0  0
    3.3391   -0.8040    0.0000 N   0  0  0  0  0  0  0  0  0  0  0  0
    4.5880    0.0268    0.0000 C   0  0  0  0  0  0  0  0  0  0  0  0
    5.9320   -0.6394    0.0000 C   0  0  0  0  0  0  0  0  0  0  0  0
    7.1809    0.1914    0.0000 N   0  0  0  0  0  0  0  0  0  0  0  0
    8.5248   -0.4748    0.0000 C   0  0  0  0  0  0  0  0  0  0  0  0
    9.7737    0.3560    0.0000 C   0  0  0  0  0  0  0  0  0  0  0  0
    9.6787    1.8530    0.0000 O   0  0  0  0  0  0  0  0  0  0  0  0
    8.3348    2.5192    0.0000 C   0  0  0  0  0  0  0  0  0  0  0  0
    7.0859    1.6884    0.0000 C   0  0  0  0  0  0  0  0  0  0  0  0
   -0.5977   -0.3023    0.0000 N   0  0  0  0  0  0  0  0  0  0  0  0
   -1.8466   -1.1331    0.0000 C   0  0  0  0  0  0  0  0  0  0  0  0
   -3.1906   -0.4669    0.0000 C   0  0  0  0  0  0  0  0  0  0  0  0
   -4.7232    1.8223    0.0000 N   0  0  0  0  0  0  0  0  0  0  0  0
   -5.2762    3.2167    0.0000 N   0  0  0  0  0  0  0  0  0  0  0  0
  1  2  1  0
  2  3  2  0
  3  4  1  0
  4  5  1  0
  5  6  2  0
  5  7  1  0
  7  8  1  0
  8  9  1  0
  9 10  1  0
 10 11  2  0
 11 12  1  0
 12 13  2  0
 13 14  1  0
 14 15  2  0
 14 16  1  0
 16 17  1  0
 17 18  1  0
 18 19  1  0
 19 20  1  0
 20 21  1  0
 21 22  1  0
 22 23  1  0
 23 24  1  0
 13 25  1  0
 25 26  2  0
 26 27  1  0
  4 28  2  0
 28 29  1  0
 29  2  1  0
 27  7  1  0
 26 10  1  0
 24 19  1  0
M  END
>  <Compound_ID>  (177) 
LIB177

>  <SMILES>  (177) 
Cc1cc(C(=O)N2CCc3ccc(C(=O)NCCN4CCOCC4)nc3C2)n[nH]1

>  <R1_reagent>  (177) 
Cc1cc(C(=O)O)n[nH]1

>  <R1_ID>  (177) 
R-005201

>  <N_reaction>  (177) 
Amidation

>  <R2_amine>  (177) 
NCCN1CCOCC1

>  <R2_ID>  (177) 
R-002761

>  <MW>  (177) 
398.5

>  <LogP>  (177) 
0.37

>  <HBD>  (177) 
2

>  <HBA>  (177) 
6

>  <RotB>  (177) 
5

>  <ASMS_similarity>  (177) 
0.557

>  <Priority_tier>  (177) 
Tier3_explore

>  <Scaffold>  (177) 
OC(=O)c1ccc2CCNCc2n1

$$$$

     RDKit          2D

 30 33  0  0  0  0  0  0  0  0999 V2000
   -8.5096    3.4027    0.0000 C   0  0  0  0  0  0  0  0  0  0  0  0
   -7.1507    2.7677    0.0000 C   0  0  0  0  0  0  0  0  0  0  0  0
   -5.9213    3.6271    0.0000 C   0  0  0  0  0  0  0  0  0  0  0  0
   -4.5623    2.9921    0.0000 C   0  0  0  0  0  0  0  0  0  0  0  0
   -4.4328    1.4977    0.0000 C   0  0  0  0  0  0  0  0  0  0  0  0
   -5.6622    0.6383    0.0000 C   0  0  0  0  0  0  0  0  0  0  0  0
   -5.5326   -0.8561    0.0000 C   0  0  0  0  0  0  0  0  0  0  0  0
   -6.7620   -1.7155    0.0000 O   0  0  0  0  0  0  0  0  0  0  0  0
   -4.1736   -1.4911    0.0000 N   0  0  0  0  0  0  0  0  0  0  0  0
   -4.0441   -2.9854    0.0000 C   0  0  0  0  0  0  0  0  0  0  0  0
   -2.6851   -3.6204    0.0000 C   0  0  0  0  0  0  0  0  0  0  0  0
   -1.4557   -2.7610    0.0000 C   0  0  0  0  0  0  0  0  0  0  0  0
   -0.0968   -3.3960    0.0000 C   0  0  0  0  0  0  0  0  0  0  0  0
    1.1327   -2.5367    0.0000 C   0  0  0  0  0  0  0  0  0  0  0  0
    1.0031   -1.0423    0.0000 C   0  0  0  0  0  0  0  0  0  0  0  0
    2.2325   -0.1829    0.0000 C   0  0  0  0  0  0  0  0  0  0  0  0
    2.1029    1.3115    0.0000 O   0  0  0  0  0  0  0  0  0  0  0  0
    3.5915   -0.8179    0.0000 N   0  0  0  0  0  0  0  0  0  0  0  0
    4.8209    0.0415    0.0000 C   0  0  0  0  0  0  0  0  0  0  0  0
    6.1798   -0.5935    0.0000 C   0  0  0  0  0  0  0  0  0  0  0  0
    7.4092    0.2659    0.0000 N   0  0  0  0  0  0  0  0  0  0  0  0
    8.7682   -0.3691    0.0000 C   0  0  0  0  0  0  0  0  0  0  0  0
    9.9976    0.4903    0.0000 C   0  0  0  0  0  0  0  0  0  0  0  0
    9.8680    1.9847    0.0000 O   0  0  0  0  0  0  0  0  0  0  0  0
    8.5091    2.6197    0.0000 C   0  0  0  0  0  0  0  0  0  0  0  0
    7.2797    1.7603    0.0000 C   0  0  0  0  0  0  0  0  0  0  0  0
   -0.3559   -0.4073    0.0000 N   0  0  0  0  0  0  0  0  0  0  0  0
   -1.5853   -1.2667    0.0000 C   0  0  0  0  0  0  0  0  0  0  0  0
   -2.9442   -0.6317    0.0000 C   0  0  0  0  0  0  0  0  0  0  0  0
   -7.0211    1.2733    0.0000 C   0  0  0  0  0  0  0  0  0  0  0  0
  1  2  1  0
  2  3  2  0
  3  4  1  0
  4  5  2  0
  5  6  1  0
  6  7  1  0
  7  8  2  0
  7  9  1  0
  9 10  1  0
 10 11  1  0
 11 12  1  0
 12 13  2  0
 13 14  1  0
 14 15  2  0
 15 16  1  0
 16 17  2  0
 16 18  1  0
 18 19  1  0
 19 20  1  0
 20 21  1  0
 21 22  1  0
 22 23  1  0
 23 24  1  0
 24 25  1  0
 25 26  1  0
 15 27  1  0
 27 28  2  0
 28 29  1  0
  6 30  2  0
 30  2  1  0
 29  9  1  0
 28 12  1  0
 26 21  1  0
M  END
>  <Compound_ID>  (178) 
LIB178

>  <SMILES>  (178) 
Cc1cccc(C(=O)N2CCc3ccc(C(=O)NCCN4CCOCC4)nc3C2)c1

>  <R1_reagent>  (178) 
Cc1cccc(C(=O)Cl)c1

>  <R1_ID>  (178) 
R-003130

>  <N_reaction>  (178) 
Amidation

>  <R2_amine>  (178) 
NCCN1CCOCC1

>  <R2_ID>  (178) 
R-002761

>  <MW>  (178) 
408.5

>  <LogP>  (178) 
1.65

>  <HBD>  (178) 
1

>  <HBA>  (178) 
5

>  <RotB>  (178) 
5

>  <ASMS_similarity>  (178) 
0.557

>  <Priority_tier>  (178) 
Tier3_explore

>  <Scaffold>  (178) 
OC(=O)c1ccc2CCNCc2n1

$$$$

     RDKit          2D

 33 36  0  0  0  0  0  0  0  0999 V2000
   -7.4123   -2.1974    0.0000 C   0  0  0  0  0  0  0  0  0  0  0  0
   -6.1963   -1.3191    0.0000 O   0  0  0  0  0  0  0  0  0  0  0  0
   -6.3489    0.1731    0.0000 C   0  0  0  0  0  0  0  0  0  0  0  0
   -7.7175    0.7870    0.0000 C   0  0  0  0  0  0  0  0  0  0  0  0
   -7.8702    2.2792    0.0000 C   0  0  0  0  0  0  0  0  0  0  0  0
   -6.6542    3.1575    0.0000 C   0  0  0  0  0  0  0  0  0  0  0  0
   -5.2856    2.5436    0.0000 C   0  0  0  0  0  0  0  0  0  0  0  0
   -4.0696    3.4219    0.0000 O   0  0  0  0  0  0  0  0  0  0  0  0
   -4.2222    4.9141    0.0000 C   0  0  0  0  0  0  0  0  0  0  0  0
   -5.1329    1.0514    0.0000 C   0  0  0  0  0  0  0  0  0  0  0  0
   -3.7643    0.4374    0.0000 N   0  0  0  0  0  0  0  0  0  0  0  0
   -3.6117   -1.0548    0.0000 C   0  0  0  0  0  0  0  0  0  0  0  0
   -4.8277   -1.9331    0.0000 O   0  0  0  0  0  0  0  0  0  0  0  0
   -2.2431   -1.6687    0.0000 C   0  0  0  0  0  0  0  0  0  0  0  0
   -2.0905   -3.1609    0.0000 C   0  0  0  0  0  0  0  0  0  0  0  0
   -0.7219   -3.7749    0.0000 C   0  0  0  0  0  0  0  0  0  0  0  0
    0.4941   -2.8966    0.0000 C   0  0  0  0  0  0  0  0  0  0  0  0
    0.3415   -1.4044    0.0000 C   0  0  0  0  0  0  0  0  0  0  0  0
   -1.0271   -0.7904    0.0000 N   0  0  0  0  0  0  0  0  0  0  0  0
    1.5575   -0.5261    0.0000 C   0  0  0  0  0  0  0  0  0  0  0  0
    2.9261   -1.1400    0.0000 N   0  0  0  0  0  0  0  0  0  0  0  0
    4.1421   -0.2617    0.0000 C   0  0  0  0  0  0  0  0  0  0  0  0
    3.9894    1.2305    0.0000 O   0  0  0  0  0  0  0  0  0  0  0  0
    5.5107   -0.8757    0.0000 C   0  0  0  0  0  0  0  0  0  0  0  0
    6.7267    0.0026    0.0000 C   0  0  0  0  0  0  0  0  0  0  0  0
    8.0953   -0.6113    0.0000 C   0  0  0  0  0  0  0  0  0  0  0  0
    9.3113    0.2670    0.0000 C   0  0  0  0  0  0  0  0  0  0  0  0
    9.1586    1.7592    0.0000 C   0  0  0  0  0  0  0  0  0  0  0  0
    7.7900    2.3731    0.0000 C   0  0  0  0  0  0  0  0  0  0  0  0
    7.6374    3.8653    0.0000 C   0  0  0  0  0  0  0  0  0  0  0  0
    6.5740    1.4948    0.0000 C   0  0  0  0  0  0  0  0  0  0  0  0
    3.0787   -2.6322    0.0000 C   0  0  0  0  0  0  0  0  0  0  0  0
    1.8627   -3.5105    0.0000 C   0  0  0  0  0  0  0  0  0  0  0  0
  1  2  1  0
  2  3  1  0
  3  4  2  0
  4  5  1  0
  5  6  2  0
  6  7  1  0
  7  8  1  0
  8  9  1  0
  7 10  2  0
 10 11  1  0
 11 12  1  0
 12 13  2  0
 12 14  1  0
 14 15  2  0
 15 16  1  0
 16 17  2  0
 17 18  1  0
 18 19  2  0
 18 20  1  0
 20 21  1  0
 21 22  1  0
 22 23  2  0
 22 24  1  0
 24 25  1  0
 25 26  2  0
 26 27  1  0
 27 28  2  0
 28 29  1  0
 29 30  1  0
 29 31  2  0
 21 32  1  0
 32 33  1  0
 10  3  1  0
 19 14  1  0
 31 25  1  0
 33 17  1  0
M  END
>  <Compound_ID>  (179) 
LIB179

>  <SMILES>  (179) 
COc1cccc(OC)c1NC(=O)c1ccc2c(n1)CN(C(=O)Cc1cccc(C)c1)CC2

>  <R1_reagent>  (179) 
Cc1cccc(CC(=O)O)c1

>  <R1_ID>  (179) 
R-006341

>  <N_reaction>  (179) 
Amidation

>  <R2_amine>  (179) 
COc1cccc(OC)c1N

>  <R2_ID>  (179) 
R-002529

>  <MW>  (179) 
445.5

>  <LogP>  (179) 
3.79

>  <HBD>  (179) 
1

>  <HBA>  (179) 
5

>  <RotB>  (179) 
6

>  <ASMS_similarity>  (179) 
0.557

>  <Priority_tier>  (179) 
Tier3_explore

>  <Scaffold>  (179) 
OC(=O)c1ccc2CCNCc2n1

$$$$

     RDKit          2D

 33 36  0  0  0  0  0  0  0  0999 V2000
   -9.7161    0.1342    0.0000 C   0  0  0  0  0  0  0  0  0  0  0  0
   -8.2837   -0.3110    0.0000 O   0  0  0  0  0  0  0  0  0  0  0  0
   -7.1820    0.7069    0.0000 C   0  0  0  0  0  0  0  0  0  0  0  0
   -7.5126    2.1700    0.0000 C   0  0  0  0  0  0  0  0  0  0  0  0
   -6.4109    3.1879    0.0000 C   0  0  0  0  0  0  0  0  0  0  0  0
   -4.9785    2.7427    0.0000 C   0  0  0  0  0  0  0  0  0  0  0  0
   -4.6478    1.2796    0.0000 C   0  0  0  0  0  0  0  0  0  0  0  0
   -3.2154    0.8344    0.0000 O   0  0  0  0  0  0  0  0  0  0  0  0
   -2.1137    1.8524    0.0000 C   0  0  0  0  0  0  0  0  0  0  0  0
   -5.7496    0.2617    0.0000 C   0  0  0  0  0  0  0  0  0  0  0  0
   -5.4189   -1.2014    0.0000 C   0  0  0  0  0  0  0  0  0  0  0  0
   -3.9865   -1.6466    0.0000 N   0  0  0  0  0  0  0  0  0  0  0  0
   -3.6558   -3.1097    0.0000 C   0  0  0  0  0  0  0  0  0  0  0  0
   -2.2234   -3.5549    0.0000 C   0  0  0  0  0  0  0  0  0  0  0  0
   -1.1217   -2.5369    0.0000 C   0  0  0  0  0  0  0  0  0  0  0  0
    0.3108   -2.9821    0.0000 C   0  0  0  0  0  0  0  0  0  0  0  0
    1.4125   -1.9642    0.0000 C   0  0  0  0  0  0  0  0  0  0  0  0
    1.0818   -0.5011    0.0000 C   0  0  0  0  0  0  0  0  0  0  0  0
    2.1836    0.5168    0.0000 C   0  0  0  0  0  0  0  0  0  0  0  0
    1.8529    1.9799    0.0000 O   0  0  0  0  0  0  0  0  0  0  0  0
    3.6160    0.0716    0.0000 N   0  0  0  0  0  0  0  0  0  0  0  0
    4.7177    1.0895    0.0000 C   0  0  0  0  0  0  0  0  0  0  0  0
    6.1502    0.6443    0.0000 C   0  0  0  0  0  0  0  0  0  0  0  0
    6.4808   -0.8188    0.0000 C   0  0  0  0  0  0  0  0  0  0  0  0
    7.9132   -1.2639    0.0000 C   0  0  0  0  0  0  0  0  0  0  0  0
    9.0150   -0.2460    0.0000 C   0  0  0  0  0  0  0  0  0  0  0  0
   10.4474   -0.6912    0.0000 C   0  0  0  0  0  0  0  0  0  0  0  0
    8.6843    1.2171    0.0000 C   0  0  0  0  0  0  0  0  0  0  0  0
    9.7861    2.2350    0.0000 C   0  0  0  0  0  0  0  0  0  0  0  0
    7.2519    1.6623    0.0000 C   0  0  0  0  0  0  0  0  0  0  0  0
   -0.3506   -0.0559    0.0000 N   0  0  0  0  0  0  0  0  0  0  0  0
   -1.4523   -1.0738    0.0000 C   0  0  0  0  0  0  0  0  0  0  0  0
   -2.8847   -0.6287    0.0000 C   0  0  0  0  0  0  0  0  0  0  0  0
  1  2  1  0
  2  3  1  0
  3  4  2  0
  4  5  1  0
  5  6  2  0
  6  7  1  0
  7  8  1  0
  8  9  1  0
  7 10  2  0
 10 11  1  0
 11 12  1  0
 12 13  1  0
 13 14  1  0
 14 15  1  0
 15 16  2  0
 16 17  1  0
 17 18  2  0
 18 19  1  0
 19 20  2  0
 19 21  1  0
 21 22  1  0
 22 23  1  0
 23 24  2  0
 24 25  1  0
 25 26  2  0
 26 27  1  0
 26 28  1  0
 28 29  1  0
 28 30  2  0
 18 31  1  0
 31 32  2  0
 32 33  1  0
 10  3  1  0
 33 12  1  0
 32 15  1  0
 30 23  1  0
M  END
>  <Compound_ID>  (180) 
LIB180

>  <SMILES>  (180) 
COc1cccc(OC)c1CN1CCc2ccc(C(=O)NCc3ccc(C)c(C)c3)nc2C1

>  <R1_reagent>  (180) 
COc1cccc(OC)c1C=O

>  <R1_ID>  (180) 
R-002683

>  <N_reaction>  (180) 
Reductive_amination

>  <R2_amine>  (180) 
Cc1ccc(CN)cc1C

>  <R2_ID>  (180) 
R-008930

>  <MW>  (180) 
445.6

>  <LogP>  (180) 
4.2

>  <HBD>  (180) 
1

>  <HBA>  (180) 
5

>  <RotB>  (180) 
7

>  <ASMS_similarity>  (180) 
0.557

>  <Priority_tier>  (180) 
Tier3_explore

>  <Scaffold>  (180) 
OC(=O)c1ccc2CCNCc2n1

$$$$

     RDKit          2D

 29 31  0  0  0  0  0  0  0  0999 V2000
   -8.3600    0.4869    0.0000 C   0  0  0  0  0  0  0  0  0  0  0  0
   -6.9516   -0.0291    0.0000 O   0  0  0  0  0  0  0  0  0  0  0  0
   -5.8005    0.9326    0.0000 C   0  0  0  0  0  0  0  0  0  0  0  0
   -6.0578    2.4104    0.0000 N   0  0  0  0  0  0  0  0  0  0  0  0
   -4.9067    3.3721    0.0000 C   0  0  0  0  0  0  0  0  0  0  0  0
   -3.4982    2.8560    0.0000 C   0  0  0  0  0  0  0  0  0  0  0  0
   -2.3471    3.8178    0.0000 Br  0  0  0  0  0  0  0  0  0  0  0  0
   -3.2409    1.3783    0.0000 C   0  0  0  0  0  0  0  0  0  0  0  0
   -4.3920    0.4166    0.0000 C   0  0  0  0  0  0  0  0  0  0  0  0
   -4.1347   -1.0612    0.0000 C   0  0  0  0  0  0  0  0  0  0  0  0
   -5.2858   -2.0229    0.0000 O   0  0  0  0  0  0  0  0  0  0  0  0
   -2.7263   -1.5773    0.0000 N   0  0  0  0  0  0  0  0  0  0  0  0
   -2.4690   -3.0550    0.0000 C   0  0  0  0  0  0  0  0  0  0  0  0
   -1.0605   -3.5711    0.0000 C   0  0  0  0  0  0  0  0  0  0  0  0
    0.0906   -2.6093    0.0000 C   0  0  0  0  0  0  0  0  0  0  0  0
    1.4990   -3.1254    0.0000 C   0  0  0  0  0  0  0  0  0  0  0  0
    2.6502   -2.1637    0.0000 C   0  0  0  0  0  0  0  0  0  0  0  0
    2.3929   -0.6859    0.0000 C   0  0  0  0  0  0  0  0  0  0  0  0
    3.5440    0.2758    0.0000 C   0  0  0  0  0  0  0  0  0  0  0  0
    3.2867    1.7536    0.0000 O   0  0  0  0  0  0  0  0  0  0  0  0
    4.9524   -0.2402    0.0000 N   0  0  0  0  0  0  0  0  0  0  0  0
    6.1035    0.7215    0.0000 C   0  0  0  0  0  0  0  0  0  0  0  0
    7.5120    0.2055    0.0000 C   0  0  0  0  0  0  0  0  0  0  0  0
    8.6631    1.1672    0.0000 C   0  0  0  0  0  0  0  0  0  0  0  0
   10.0715    0.6511    0.0000 C   0  0  0  0  0  0  0  0  0  0  0  0
   11.2227    1.6128    0.0000 O   0  0  0  0  0  0  0  0  0  0  0  0
    0.9844   -0.1699    0.0000 N   0  0  0  0  0  0  0  0  0  0  0  0
   -0.1667   -1.1316    0.0000 C   0  0  0  0  0  0  0  0  0  0  0  0
   -1.5752   -0.6155    0.0000 C   0  0  0  0  0  0  0  0  0  0  0  0
  1  2  1  0
  2  3  1  0
  3  4  2  0
  4  5  1  0
  5  6  2  0
  6  7  1  0
  6  8  1  0
  8  9  2  0
  9 10  1  0
 10 11  2  0
 10 12  1  0
 12 13  1  0
 13 14  1  0
 14 15  1  0
 15 16  2  0
 16 17  1  0
 17 18  2  0
 18 19  1  0
 19 20  2  0
 19 21  1  0
 21 22  1  0
 22 23  1  0
 23 24  1  0
 24 25  1  0
 25 26  1  0
 18 27  1  0
 27 28  2  0
 28 29  1  0
  9  3  1  0
 29 12  1  0
 28 15  1  0
M  END
>  <Compound_ID>  (181) 
LIB181

>  <SMILES>  (181) 
COc1ncc(Br)cc1C(=O)N1CCc2ccc(C(=O)NCCCCO)nc2C1

>  <R1_reagent>  (181) 
COc1ncc(Br)cc1C(=O)O

>  <R1_ID>  (181) 
R-008750

>  <N_reaction>  (181) 
Amidation

>  <R2_amine>  (181) 
NCCCCO

>  <R2_ID>  (181) 
R-002865

>  <MW>  (181) 
463.3

>  <LogP>  (181) 
1.95

>  <HBD>  (181) 
2

>  <HBA>  (181) 
6

>  <RotB>  (181) 
7

>  <ASMS_similarity>  (181) 
0.5541

>  <Priority_tier>  (181) 
Tier3_explore

>  <Scaffold>  (181) 
OC(=O)c1ccc2CCNCc2n1

$$$$

     RDKit          2D

 32 35  0  0  0  0  0  0  0  0999 V2000
   -3.9856   -3.5829    0.0000 O   0  0  0  0  0  0  0  0  0  0  0  0
   -3.1858   -2.3139    0.0000 C   0  0  0  0  0  0  0  0  0  0  0  0
   -3.8849   -0.9868    0.0000 N   0  0  0  0  0  0  0  0  0  0  0  0
   -5.3838   -0.9287    0.0000 C   0  0  0  0  0  0  0  0  0  0  0  0
   -6.0829    0.3985    0.0000 C   0  0  0  0  0  0  0  0  0  0  0  0
   -5.2831    1.6674    0.0000 C   0  0  0  0  0  0  0  0  0  0  0  0
   -5.9822    2.9946    0.0000 C   0  0  0  0  0  0  0  0  0  0  0  0
   -7.4810    3.0527    0.0000 C   0  0  0  0  0  0  0  0  0  0  0  0
   -8.1801    4.3799    0.0000 Cl  0  0  0  0  0  0  0  0  0  0  0  0
   -8.2808    1.7837    0.0000 C   0  0  0  0  0  0  0  0  0  0  0  0
   -7.5817    0.4566    0.0000 C   0  0  0  0  0  0  0  0  0  0  0  0
   -8.3815   -0.8124    0.0000 Cl  0  0  0  0  0  0  0  0  0  0  0  0
   -1.6870   -2.3721    0.0000 C   0  0  0  0  0  0  0  0  0  0  0  0
   -0.9879   -3.6992    0.0000 C   0  0  0  0  0  0  0  0  0  0  0  0
    0.5110   -3.7574    0.0000 C   0  0  0  0  0  0  0  0  0  0  0  0
    1.3108   -2.4884    0.0000 C   0  0  0  0  0  0  0  0  0  0  0  0
    0.6117   -1.1612    0.0000 C   0  0  0  0  0  0  0  0  0  0  0  0
   -0.8872   -1.1031    0.0000 N   0  0  0  0  0  0  0  0  0  0  0  0
    1.4115    0.1078    0.0000 C   0  0  0  0  0  0  0  0  0  0  0  0
    2.9104    0.0496    0.0000 N   0  0  0  0  0  0  0  0  0  0  0  0
    3.7101    1.3186    0.0000 C   0  0  0  0  0  0  0  0  0  0  0  0
    5.2090    1.2605    0.0000 C   0  0  0  0  0  0  0  0  0  0  0  0
    5.9081   -0.0667    0.0000 C   0  0  0  0  0  0  0  0  0  0  0  0
    5.1083   -1.3357    0.0000 F   0  0  0  0  0  0  0  0  0  0  0  0
    7.4070   -0.1248    0.0000 C   0  0  0  0  0  0  0  0  0  0  0  0
    8.2068    1.1442    0.0000 C   0  0  0  0  0  0  0  0  0  0  0  0
    9.7056    1.0860    0.0000 F   0  0  0  0  0  0  0  0  0  0  0  0
    7.5077    2.4713    0.0000 C   0  0  0  0  0  0  0  0  0  0  0  0
    6.0088    2.5294    0.0000 C   0  0  0  0  0  0  0  0  0  0  0  0
    5.3097    3.8566    0.0000 F   0  0  0  0  0  0  0  0  0  0  0  0
    3.6094   -1.2775    0.0000 C   0  0  0  0  0  0  0  0  0  0  0  0
    2.8097   -2.5465    0.0000 C   0  0  0  0  0  0  0  0  0  0  0  0
  1  2  2  0
  2  3  1  0
  3  4  1  0
  4  5  1  0
  5  6  2  0
  6  7  1  0
  7  8  2  0
  8  9  1  0
  8 10  1  0
 10 11  2  0
 11 12  1  0
  2 13  1  0
 13 14  2  0
 14 15  1  0
 15 16  2  0
 16 17  1  0
 17 18  2  0
 17 19  1  0
 19 20  1  0
 20 21  1  0
 21 22  1  0
 22 23  2  0
 23 24  1  0
 23 25  1  0
 25 26  2  0
 26 27  1  0
 26 28  1  0
 28 29  2  0
 29 30  1  0
 20 31  1  0
 31 32  1  0
 11  5  1  0
 18 13  1  0
 29 22  1  0
 32 16  1  0
M  END
>  <Compound_ID>  (182) 
LIB182

>  <SMILES>  (182) 
O=C(NCc1ccc(Cl)cc1Cl)c1ccc2c(n1)CN(Cc1c(F)cc(F)cc1F)CC2

>  <R1_reagent>  (182) 
O=Cc1c(F)cc(F)cc1F

>  <R1_ID>  (182) 
R-002674

>  <N_reaction>  (182) 
Reductive_amination

>  <R2_amine>  (182) 
NCc1ccc(Cl)cc1Cl

>  <R2_ID>  (182) 
R-004462

>  <MW>  (182) 
480.3

>  <LogP>  (182) 
5.29

>  <HBD>  (182) 
1

>  <HBA>  (182) 
3

>  <RotB>  (182) 
5

>  <ASMS_similarity>  (182) 
0.5467

>  <Priority_tier>  (182) 
Tier3_explore

>  <Scaffold>  (182) 
OC(=O)c1ccc2CCNCc2n1

$$$$

     RDKit          2D

 31 34  0  0  0  0  0  0  0  0999 V2000
   -3.5054    1.2059    0.0000 C   0  0  0  0  0  0  0  0  0  0  0  0
   -5.0004    1.3273    0.0000 C   0  0  0  0  0  0  0  0  0  0  0  0
   -5.7810    2.6082    0.0000 N   0  0  0  0  0  0  0  0  0  0  0  0
   -7.2404    2.2617    0.0000 N   0  0  0  0  0  0  0  0  0  0  0  0
   -8.3786    3.2387    0.0000 C   0  0  0  0  0  0  0  0  0  0  0  0
   -7.3618    0.7666    0.0000 C   0  0  0  0  0  0  0  0  0  0  0  0
   -8.6428   -0.0139    0.0000 Cl  0  0  0  0  0  0  0  0  0  0  0  0
   -5.9775    0.1891    0.0000 C   0  0  0  0  0  0  0  0  0  0  0  0
   -5.6309   -1.2703    0.0000 C   0  0  0  0  0  0  0  0  0  0  0  0
   -4.1938   -1.6999    0.0000 N   0  0  0  0  0  0  0  0  0  0  0  0
   -3.8473   -3.1593    0.0000 C   0  0  0  0  0  0  0  0  0  0  0  0
   -2.4101   -3.5889    0.0000 C   0  0  0  0  0  0  0  0  0  0  0  0
   -1.3195   -2.5591    0.0000 C   0  0  0  0  0  0  0  0  0  0  0  0
    0.1177   -2.9888    0.0000 C   0  0  0  0  0  0  0  0  0  0  0  0
    1.2083   -1.9589    0.0000 C   0  0  0  0  0  0  0  0  0  0  0  0
    0.8618   -0.4995    0.0000 C   0  0  0  0  0  0  0  0  0  0  0  0
    1.9525    0.5303    0.0000 C   0  0  0  0  0  0  0  0  0  0  0  0
    1.6059    1.9897    0.0000 O   0  0  0  0  0  0  0  0  0  0  0  0
    3.3896    0.1007    0.0000 N   0  0  0  0  0  0  0  0  0  0  0  0
    4.4803    1.1305    0.0000 C   0  0  0  0  0  0  0  0  0  0  0  0
    5.9174    0.7009    0.0000 C   0  0  0  0  0  0  0  0  0  0  0  0
    6.2639   -0.7586    0.0000 C   0  0  0  0  0  0  0  0  0  0  0  0
    7.7011   -1.1882    0.0000 C   0  0  0  0  0  0  0  0  0  0  0  0
    8.7917   -0.1584    0.0000 C   0  0  0  0  0  0  0  0  0  0  0  0
   10.2289   -0.5880    0.0000 Cl  0  0  0  0  0  0  0  0  0  0  0  0
    8.4452    1.3011    0.0000 C   0  0  0  0  0  0  0  0  0  0  0  0
    7.0081    1.7307    0.0000 C   0  0  0  0  0  0  0  0  0  0  0  0
    6.6615    3.1901    0.0000 Cl  0  0  0  0  0  0  0  0  0  0  0  0
   -0.5753   -0.0699    0.0000 N   0  0  0  0  0  0  0  0  0  0  0  0
   -1.6660   -1.0997    0.0000 C   0  0  0  0  0  0  0  0  0  0  0  0
   -3.1031   -0.6701    0.0000 C   0  0  0  0  0  0  0  0  0  0  0  0
  1  2  1  0
  2  3  2  0
  3  4  1  0
  4  5  1  0
  4  6  1  0
  6  7  1  0
  6  8  2  0
  8  9  1  0
  9 10  1  0
 10 11  1  0
 11 12  1  0
 12 13  1  0
 13 14  2  0
 14 15  1  0
 15 16  2  0
 16 17  1  0
 17 18  2  0
 17 19  1  0
 19 20  1  0
 20 21  1  0
 21 22  2  0
 22 23  1  0
 23 24  2  0
 24 25  1  0
 24 26  1  0
 26 27  2  0
 27 28  1  0
 16 29  1  0
 29 30  2  0
 30 31  1  0
  8  2  1  0
 31 10  1  0
 30 13  1  0
 27 21  1  0
M  END
>  <Compound_ID>  (183) 
LIB183

>  <SMILES>  (183) 
Cc1nn(C)c(Cl)c1CN1CCc2ccc(C(=O)NCc3ccc(Cl)cc3Cl)nc2C1

>  <R1_reagent>  (183) 
Cc1nn(C)c(Cl)c1C=O

>  <R1_ID>  (183) 
R-008532

>  <N_reaction>  (183) 
Reductive_amination

>  <R2_amine>  (183) 
NCc1ccc(Cl)cc1Cl

>  <R2_ID>  (183) 
R-004462

>  <MW>  (183) 
478.8

>  <LogP>  (183) 
4.57

>  <HBD>  (183) 
1

>  <HBA>  (183) 
5

>  <RotB>  (183) 
5

>  <ASMS_similarity>  (183) 
0.5443

>  <Priority_tier>  (183) 
Tier3_explore

>  <Scaffold>  (183) 
OC(=O)c1ccc2CCNCc2n1

$$$$

     RDKit          2D

 30 33  0  0  0  0  0  0  0  0999 V2000
   -9.4481   -0.0149    0.0000 C   0  0  0  0  0  0  0  0  0  0  0  0
   -7.9555   -0.1638    0.0000 O   0  0  0  0  0  0  0  0  0  0  0  0
   -7.0803    1.0544    0.0000 C   0  0  0  0  0  0  0  0  0  0  0  0
   -7.6977    2.4215    0.0000 C   0  0  0  0  0  0  0  0  0  0  0  0
   -6.8224    3.6396    0.0000 C   0  0  0  0  0  0  0  0  0  0  0  0
   -5.3298    3.4908    0.0000 C   0  0  0  0  0  0  0  0  0  0  0  0
   -4.7125    2.1237    0.0000 C   0  0  0  0  0  0  0  0  0  0  0  0
   -5.5877    0.9055    0.0000 C   0  0  0  0  0  0  0  0  0  0  0  0
   -4.9704   -0.4616    0.0000 C   0  0  0  0  0  0  0  0  0  0  0  0
   -3.4778   -0.6104    0.0000 N   0  0  0  0  0  0  0  0  0  0  0  0
   -2.8604   -1.9775    0.0000 C   0  0  0  0  0  0  0  0  0  0  0  0
   -3.7356   -3.1957    0.0000 O   0  0  0  0  0  0  0  0  0  0  0  0
   -1.3678   -2.1264    0.0000 C   0  0  0  0  0  0  0  0  0  0  0  0
   -0.7505   -3.4935    0.0000 C   0  0  0  0  0  0  0  0  0  0  0  0
    0.7421   -3.6424    0.0000 C   0  0  0  0  0  0  0  0  0  0  0  0
    1.6174   -2.4242    0.0000 C   0  0  0  0  0  0  0  0  0  0  0  0
    1.0000   -1.0571    0.0000 C   0  0  0  0  0  0  0  0  0  0  0  0
   -0.4926   -0.9082    0.0000 N   0  0  0  0  0  0  0  0  0  0  0  0
    1.8752    0.1611    0.0000 C   0  0  0  0  0  0  0  0  0  0  0  0
    3.3678    0.0122    0.0000 N   0  0  0  0  0  0  0  0  0  0  0  0
    4.2431    1.2304    0.0000 C   0  0  0  0  0  0  0  0  0  0  0  0
    5.7357    1.0815    0.0000 C   0  0  0  0  0  0  0  0  0  0  0  0
    6.3530   -0.2856    0.0000 C   0  0  0  0  0  0  0  0  0  0  0  0
    7.8456   -0.4345    0.0000 C   0  0  0  0  0  0  0  0  0  0  0  0
    8.7209    0.7837    0.0000 C   0  0  0  0  0  0  0  0  0  0  0  0
    8.1035    2.1508    0.0000 C   0  0  0  0  0  0  0  0  0  0  0  0
    8.9787    3.3689    0.0000 C   0  0  0  0  0  0  0  0  0  0  0  0
    6.6109    2.2997    0.0000 C   0  0  0  0  0  0  0  0  0  0  0  0
    3.9852   -1.3549    0.0000 C   0  0  0  0  0  0  0  0  0  0  0  0
    3.1100   -2.5731    0.0000 C   0  0  0  0  0  0  0  0  0  0  0  0
  1  2  1  0
  2  3  1  0
  3  4  2  0
  4  5  1  0
  5  6  2  0
  6  7  1  0
  7  8  2  0
  8  9  1  0
  9 10  1  0
 10 11  1  0
 11 12  2  0
 11 13  1  0
 13 14  2  0
 14 15  1  0
 15 16  2  0
 16 17  1  0
 17 18  2  0
 17 19  1  0
 19 20  1  0
 20 21  1  0
 21 22  1  0
 22 23  2  0
 23 24  1  0
 24 25  2  0
 25 26  1  0
 26 27  1  0
 26 28  2  0
 20 29  1  0
 29 30  1  0
  8  3  1  0
 18 13  1  0
 28 22  1  0
 30 16  1  0
M  END
>  <Compound_ID>  (184) 
LIB184

>  <SMILES>  (184) 
COc1ccccc1CNC(=O)c1ccc2c(n1)CN(Cc1cccc(C)c1)CC2

>  <R1_reagent>  (184) 
Cc1cccc(C=O)c1

>  <R1_ID>  (184) 
R-009386

>  <N_reaction>  (184) 
Reductive_amination

>  <R2_amine>  (184) 
COc1ccccc1CN

>  <R2_ID>  (184) 
R-003963

>  <MW>  (184) 
401.5

>  <LogP>  (184) 
3.89

>  <HBD>  (184) 
1

>  <HBA>  (184) 
4

>  <RotB>  (184) 
6

>  <ASMS_similarity>  (184) 
0.5432

>  <Priority_tier>  (184) 
Tier3_explore

>  <Scaffold>  (184) 
OC(=O)c1ccc2CCNCc2n1

$$$$

     RDKit          2D

 31 34  0  0  0  0  0  0  0  0999 V2000
  -10.0097    0.3962    0.0000 C   0  0  0  0  0  0  0  0  0  0  0  0
   -8.5291    0.1555    0.0000 O   0  0  0  0  0  0  0  0  0  0  0  0
   -7.5804    1.3173    0.0000 C   0  0  0  0  0  0  0  0  0  0  0  0
   -8.1122    2.7199    0.0000 C   0  0  0  0  0  0  0  0  0  0  0  0
   -7.1635    3.8818    0.0000 C   0  0  0  0  0  0  0  0  0  0  0  0
   -5.6829    3.6410    0.0000 C   0  0  0  0  0  0  0  0  0  0  0  0
   -5.1511    2.2385    0.0000 C   0  0  0  0  0  0  0  0  0  0  0  0
   -6.0998    1.0766    0.0000 C   0  0  0  0  0  0  0  0  0  0  0  0
   -5.5680   -0.3259    0.0000 C   0  0  0  0  0  0  0  0  0  0  0  0
   -4.0875   -0.5666    0.0000 N   0  0  0  0  0  0  0  0  0  0  0  0
   -3.5556   -1.9692    0.0000 C   0  0  0  0  0  0  0  0  0  0  0  0
   -4.5044   -3.1310    0.0000 O   0  0  0  0  0  0  0  0  0  0  0  0
   -2.0751   -2.2099    0.0000 C   0  0  0  0  0  0  0  0  0  0  0  0
   -1.5433   -3.6125    0.0000 C   0  0  0  0  0  0  0  0  0  0  0  0
   -0.0627   -3.8532    0.0000 C   0  0  0  0  0  0  0  0  0  0  0  0
    0.8860   -2.6913    0.0000 C   0  0  0  0  0  0  0  0  0  0  0  0
    0.3542   -1.2888    0.0000 C   0  0  0  0  0  0  0  0  0  0  0  0
   -1.1263   -1.0481    0.0000 N   0  0  0  0  0  0  0  0  0  0  0  0
    1.3030   -0.1269    0.0000 C   0  0  0  0  0  0  0  0  0  0  0  0
    2.7835   -0.3676    0.0000 N   0  0  0  0  0  0  0  0  0  0  0  0
    3.7323    0.7942    0.0000 C   0  0  0  0  0  0  0  0  0  0  0  0
    5.2128    0.5535    0.0000 C   0  0  0  0  0  0  0  0  0  0  0  0
    6.1616    1.7153    0.0000 C   0  0  0  0  0  0  0  0  0  0  0  0
    7.6421    1.4746    0.0000 C   0  0  0  0  0  0  0  0  0  0  0  0
    8.1740    0.0721    0.0000 C   0  0  0  0  0  0  0  0  0  0  0  0
    9.6545   -0.1687    0.0000 C   0  0  0  0  0  0  0  0  0  0  0  0
   10.6033    0.9932    0.0000 C   0  0  0  0  0  0  0  0  0  0  0  0
   10.0714    2.3958    0.0000 C   0  0  0  0  0  0  0  0  0  0  0  0
    8.5909    2.6365    0.0000 C   0  0  0  0  0  0  0  0  0  0  0  0
    3.3153   -1.7702    0.0000 C   0  0  0  0  0  0  0  0  0  0  0  0
    2.3666   -2.9320    0.0000 C   0  0  0  0  0  0  0  0  0  0  0  0
  1  2  1  0
  2  3  1  0
  3  4  2  0
  4  5  1  0
  5  6  2  0
  6  7  1  0
  7  8  2  0
  8  9  1  0
  9 10  1  0
 10 11  1  0
 11 12  2  0
 11 13  1  0
 13 14  2  0
 14 15  1  0
 15 16  2  0
 16 17  1  0
 17 18  2  0
 17 19  1  0
 19 20  1  0
 20 21  1  0
 21 22  1  0
 22 23  1  0
 23 24  1  0
 24 25  2  0
 25 26  1  0
 26 27  2  0
 27 28  1  0
 28 29  2  0
 20 30  1  0
 30 31  1  0
  8  3  1  0
 18 13  1  0
 29 24  1  0
 31 16  1  0
M  END
>  <Compound_ID>  (185) 
LIB185

>  <SMILES>  (185) 
COc1ccccc1CNC(=O)c1ccc2c(n1)CN(CCCc1ccccc1)CC2

>  <R1_reagent>  (185) 
O=CCCc1ccccc1

>  <R1_ID>  (185) 
R-004109

>  <N_reaction>  (185) 
Reductive_amination

>  <R2_amine>  (185) 
COc1ccccc1CN

>  <R2_ID>  (185) 
R-003963

>  <MW>  (185) 
415.5

>  <LogP>  (185) 
4.01

>  <HBD>  (185) 
1

>  <HBA>  (185) 
4

>  <RotB>  (185) 
8

>  <ASMS_similarity>  (185) 
0.5405

>  <Priority_tier>  (185) 
Tier3_explore

>  <Scaffold>  (185) 
OC(=O)c1ccc2CCNCc2n1

$$$$

     RDKit          2D

 24 26  0  0  0  0  0  0  0  0999 V2000
   -6.8238   -3.6031    0.0000 C   0  0  0  0  0  0  0  0  0  0  0  0
   -6.1416   -2.2672    0.0000 C   0  0  0  0  0  0  0  0  0  0  0  0
   -6.9574   -1.0084    0.0000 C   0  0  0  0  0  0  0  0  0  0  0  0
   -4.6436   -2.1901    0.0000 C   0  0  0  0  0  0  0  0  0  0  0  0
   -3.9613   -0.8542    0.0000 N   0  0  0  0  0  0  0  0  0  0  0  0
   -4.7771    0.4045    0.0000 C   0  0  0  0  0  0  0  0  0  0  0  0
   -4.0949    1.7404    0.0000 C   0  0  0  0  0  0  0  0  0  0  0  0
   -2.5968    1.8175    0.0000 C   0  0  0  0  0  0  0  0  0  0  0  0
   -1.9146    3.1534    0.0000 C   0  0  0  0  0  0  0  0  0  0  0  0
   -0.4166    3.2305    0.0000 C   0  0  0  0  0  0  0  0  0  0  0  0
    0.3992    1.9717    0.0000 C   0  0  0  0  0  0  0  0  0  0  0  0
    1.8972    2.0488    0.0000 C   0  0  0  0  0  0  0  0  0  0  0  0
    2.5795    3.3846    0.0000 O   0  0  0  0  0  0  0  0  0  0  0  0
    2.7130    0.7900    0.0000 N   0  0  0  0  0  0  0  0  0  0  0  0
    4.2110    0.8671    0.0000 C   0  0  0  0  0  0  0  0  0  0  0  0
    5.0268   -0.3917    0.0000 C   0  0  0  0  0  0  0  0  0  0  0  0
    4.3445   -1.7276    0.0000 C   0  0  0  0  0  0  0  0  0  0  0  0
    5.1603   -2.9863    0.0000 C   0  0  0  0  0  0  0  0  0  0  0  0
    6.6583   -2.9092    0.0000 C   0  0  0  0  0  0  0  0  0  0  0  0
    7.3406   -1.5734    0.0000 C   0  0  0  0  0  0  0  0  0  0  0  0
    6.5248   -0.3146    0.0000 N   0  0  0  0  0  0  0  0  0  0  0  0
   -0.2831    0.6358    0.0000 N   0  0  0  0  0  0  0  0  0  0  0  0
   -1.7811    0.5587    0.0000 C   0  0  0  0  0  0  0  0  0  0  0  0
   -2.4633   -0.7771    0.0000 C   0  0  0  0  0  0  0  0  0  0  0  0
  1  2  1  0
  2  3  1  0
  2  4  1  0
  4  5  1  0
  5  6  1  0
  6  7  1  0
  7  8  1  0
  8  9  2  0
  9 10  1  0
 10 11  2  0
 11 12  1  0
 12 13  2  0
 12 14  1  0
 14 15  1  0
 15 16  1  0
 16 17  2  0
 17 18  1  0
 18 19  2  0
 19 20  1  0
 20 21  2  0
 11 22  1  0
 22 23  2  0
 23 24  1  0
 24  5  1  0
 23  8  1  0
 21 16  1  0
M  END
>  <Compound_ID>  (186) 
LIB186

>  <SMILES>  (186) 
CC(C)CN1CCc2ccc(C(=O)NCc3ccccn3)nc2C1

>  <R1_reagent>  (186) 
CC(C)C=O

>  <R1_ID>  (186) 
R-000542

>  <N_reaction>  (186) 
Reductive_amination

>  <R2_amine>  (186) 
NCc1ccccn1

>  <R2_ID>  (186) 
R-004572

>  <MW>  (186) 
324.4

>  <LogP>  (186) 
2.42

>  <HBD>  (186) 
1

>  <HBA>  (186) 
4

>  <RotB>  (186) 
5

>  <ASMS_similarity>  (186) 
0.5294

>  <Priority_tier>  (186) 
Tier3_explore

>  <Scaffold>  (186) 
OC(=O)c1ccc2CCNCc2n1

$$$$

     RDKit          2D

 28 31  0  0  0  0  0  0  0  0999 V2000
   -6.8896    4.2045    0.0000 C   0  0  0  0  0  0  0  0  0  0  0  0
   -6.4675    2.7651    0.0000 C   0  0  0  0  0  0  0  0  0  0  0  0
   -5.0099    2.4109    0.0000 C   0  0  0  0  0  0  0  0  0  0  0  0
   -4.5878    0.9715    0.0000 C   0  0  0  0  0  0  0  0  0  0  0  0
   -5.6233   -0.1137    0.0000 C   0  0  0  0  0  0  0  0  0  0  0  0
   -5.2013   -1.5531    0.0000 C   0  0  0  0  0  0  0  0  0  0  0  0
   -3.7437   -1.9073    0.0000 N   0  0  0  0  0  0  0  0  0  0  0  0
   -3.3216   -3.3467    0.0000 C   0  0  0  0  0  0  0  0  0  0  0  0
   -1.8640   -3.7008    0.0000 C   0  0  0  0  0  0  0  0  0  0  0  0
   -0.8285   -2.6156    0.0000 C   0  0  0  0  0  0  0  0  0  0  0  0
    0.6291   -2.9698    0.0000 C   0  0  0  0  0  0  0  0  0  0  0  0
    1.6646   -1.8845    0.0000 C   0  0  0  0  0  0  0  0  0  0  0  0
    1.2425   -0.4451    0.0000 C   0  0  0  0  0  0  0  0  0  0  0  0
    2.2780    0.6401    0.0000 C   0  0  0  0  0  0  0  0  0  0  0  0
    1.8560    2.0795    0.0000 O   0  0  0  0  0  0  0  0  0  0  0  0
    3.7356    0.2859    0.0000 N   0  0  0  0  0  0  0  0  0  0  0  0
    4.7711    1.3711    0.0000 C   0  0  0  0  0  0  0  0  0  0  0  0
    6.2287    1.0170    0.0000 C   0  0  0  0  0  0  0  0  0  0  0  0
    6.6508   -0.4224    0.0000 C   0  0  0  0  0  0  0  0  0  0  0  0
    8.1084   -0.7766    0.0000 C   0  0  0  0  0  0  0  0  0  0  0  0
    9.1439    0.3086    0.0000 C   0  0  0  0  0  0  0  0  0  0  0  0
    8.7218    1.7480    0.0000 C   0  0  0  0  0  0  0  0  0  0  0  0
    7.2642    2.1022    0.0000 N   0  0  0  0  0  0  0  0  0  0  0  0
   -0.2151   -0.0910    0.0000 N   0  0  0  0  0  0  0  0  0  0  0  0
   -1.2506   -1.1762    0.0000 C   0  0  0  0  0  0  0  0  0  0  0  0
   -2.7082   -0.8220    0.0000 C   0  0  0  0  0  0  0  0  0  0  0  0
   -7.0809    0.2405    0.0000 C   0  0  0  0  0  0  0  0  0  0  0  0
   -7.5030    1.6799    0.0000 N   0  0  0  0  0  0  0  0  0  0  0  0
  1  2  1  0
  2  3  2  0
  3  4  1  0
  4  5  2  0
  5  6  1  0
  6  7  1  0
  7  8  1  0
  8  9  1  0
  9 10  1  0
 10 11  2  0
 11 12  1  0
 12 13  2  0
 13 14  1  0
 14 15  2  0
 14 16  1  0
 16 17  1  0
 17 18  1  0
 18 19  2  0
 19 20  1  0
 20 21  2  0
 21 22  1  0
 22 23  2  0
 13 24  1  0
 24 25  2  0
 25 26  1  0
  5 27  1  0
 27 28  2  0
 28  2  1  0
 26  7  1  0
 25 10  1  0
 23 18  1  0
M  END
>  <Compound_ID>  (187) 
LIB187

>  <SMILES>  (187) 
Cc1ccc(CN2CCc3ccc(C(=O)NCc4ccccn4)nc3C2)cn1

>  <R1_reagent>  (187) 
Cc1ccc(C=O)cn1

>  <R1_ID>  (187) 
R-010386

>  <N_reaction>  (187) 
Reductive_amination

>  <R2_amine>  (187) 
NCc1ccccn1

>  <R2_ID>  (187) 
R-004572

>  <MW>  (187) 
373.5

>  <LogP>  (187) 
2.67

>  <HBD>  (187) 
1

>  <HBA>  (187) 
5

>  <RotB>  (187) 
5

>  <ASMS_similarity>  (187) 
0.5278

>  <Priority_tier>  (187) 
Tier3_explore

>  <Scaffold>  (187) 
OC(=O)c1ccc2CCNCc2n1

$$$$

     RDKit          2D

 24 27  0  0  0  0  0  0  0  0999 V2000
   -5.8197   -1.3363    0.0000 O   0  0  0  0  0  0  0  0  0  0  0  0
   -4.6913   -0.3480    0.0000 C   0  0  0  0  0  0  0  0  0  0  0  0
   -4.9830    1.1233    0.0000 N   0  0  0  0  0  0  0  0  0  0  0  0
   -6.4030    1.6064    0.0000 C   0  0  0  0  0  0  0  0  0  0  0  0
   -7.8744    1.3147    0.0000 C   0  0  0  0  0  0  0  0  0  0  0  0
   -7.3913    2.7348    0.0000 C   0  0  0  0  0  0  0  0  0  0  0  0
   -3.2712   -0.8311    0.0000 C   0  0  0  0  0  0  0  0  0  0  0  0
   -2.9795   -2.3025    0.0000 C   0  0  0  0  0  0  0  0  0  0  0  0
   -1.5594   -2.7855    0.0000 C   0  0  0  0  0  0  0  0  0  0  0  0
   -0.4310   -1.7972    0.0000 C   0  0  0  0  0  0  0  0  0  0  0  0
   -0.7227   -0.3259    0.0000 C   0  0  0  0  0  0  0  0  0  0  0  0
   -2.1428    0.1572    0.0000 N   0  0  0  0  0  0  0  0  0  0  0  0
    0.4057    0.6624    0.0000 C   0  0  0  0  0  0  0  0  0  0  0  0
    1.8258    0.1793    0.0000 N   0  0  0  0  0  0  0  0  0  0  0  0
    2.9542    1.1676    0.0000 C   0  0  0  0  0  0  0  0  0  0  0  0
    4.3743    0.6846    0.0000 C   0  0  0  0  0  0  0  0  0  0  0  0
    4.6660   -0.7868    0.0000 N   0  0  0  0  0  0  0  0  0  0  0  0
    6.0860   -1.2699    0.0000 C   0  0  0  0  0  0  0  0  0  0  0  0
    7.2144   -0.2816    0.0000 C   0  0  0  0  0  0  0  0  0  0  0  0
    6.9227    1.1898    0.0000 C   0  0  0  0  0  0  0  0  0  0  0  0
    5.5027    1.6729    0.0000 C   0  0  0  0  0  0  0  0  0  0  0  0
    5.2110    3.1442    0.0000 F   0  0  0  0  0  0  0  0  0  0  0  0
    2.1175   -1.2920    0.0000 C   0  0  0  0  0  0  0  0  0  0  0  0
    0.9891   -2.2803    0.0000 C   0  0  0  0  0  0  0  0  0  0  0  0
  1  2  2  0
  2  3  1  0
  3  4  1  0
  4  5  1  0
  5  6  1  0
  2  7  1  0
  7  8  2  0
  8  9  1  0
  9 10  2  0
 10 11  1  0
 11 12  2  0
 11 13  1  0
 13 14  1  0
 14 15  1  0
 15 16  1  0
 16 17  2  0
 17 18  1  0
 18 19  2  0
 19 20  1  0
 20 21  2  0
 21 22  1  0
 14 23  1  0
 23 24  1  0
  6  4  1  0
 12  7  1  0
 21 16  1  0
 24 10  1  0
M  END
>  <Compound_ID>  (188) 
LIB188

>  <SMILES>  (188) 
O=C(NC1CC1)c1ccc2c(n1)CN(Cc1ncccc1F)CC2

>  <R1_reagent>  (188) 
O=Cc1ncccc1F

>  <R1_ID>  (188) 
R-011948

>  <N_reaction>  (188) 
Reductive_amination

>  <R2_amine>  (188) 
NC1CC1

>  <R2_ID>  (188) 
R-004669

>  <MW>  (188) 
326.4

>  <LogP>  (188) 
2.07

>  <HBD>  (188) 
1

>  <HBA>  (188) 
4

>  <RotB>  (188) 
4

>  <ASMS_similarity>  (188) 
0.5278

>  <Priority_tier>  (188) 
Tier3_explore

>  <Scaffold>  (188) 
OC(=O)c1ccc2CCNCc2n1

$$$$

     RDKit          2D

 27 30  0  0  0  0  0  0  0  0999 V2000
   -5.4691   -1.7204    0.0000 O   0  0  0  0  0  0  0  0  0  0  0  0
   -4.3661   -0.7038    0.0000 C   0  0  0  0  0  0  0  0  0  0  0  0
   -4.6950    0.7597    0.0000 N   0  0  0  0  0  0  0  0  0  0  0  0
   -6.1269    1.2066    0.0000 C   0  0  0  0  0  0  0  0  0  0  0  0
   -7.3301    0.3109    0.0000 C   0  0  0  0  0  0  0  0  0  0  0  0
   -8.5538    1.1784    0.0000 C   0  0  0  0  0  0  0  0  0  0  0  0
   -8.1069    2.6102    0.0000 C   0  0  0  0  0  0  0  0  0  0  0  0
   -6.6070    2.6277    0.0000 C   0  0  0  0  0  0  0  0  0  0  0  0
   -2.9342   -1.1507    0.0000 C   0  0  0  0  0  0  0  0  0  0  0  0
   -2.6053   -2.6142    0.0000 C   0  0  0  0  0  0  0  0  0  0  0  0
   -1.1734   -3.0611    0.0000 C   0  0  0  0  0  0  0  0  0  0  0  0
   -0.0705   -2.0445    0.0000 C   0  0  0  0  0  0  0  0  0  0  0  0
   -0.3994   -0.5810    0.0000 C   0  0  0  0  0  0  0  0  0  0  0  0
   -1.8313   -0.1341    0.0000 N   0  0  0  0  0  0  0  0  0  0  0  0
    0.7036    0.4356    0.0000 C   0  0  0  0  0  0  0  0  0  0  0  0
    2.1355   -0.0113    0.0000 N   0  0  0  0  0  0  0  0  0  0  0  0
    3.2384    1.0053    0.0000 C   0  0  0  0  0  0  0  0  0  0  0  0
    4.6703    0.5584    0.0000 C   0  0  0  0  0  0  0  0  0  0  0  0
    4.9992   -0.9051    0.0000 C   0  0  0  0  0  0  0  0  0  0  0  0
    6.4311   -1.3519    0.0000 C   0  0  0  0  0  0  0  0  0  0  0  0
    7.5341   -0.3353    0.0000 C   0  0  0  0  0  0  0  0  0  0  0  0
    7.2052    1.1281    0.0000 C   0  0  0  0  0  0  0  0  0  0  0  0
    8.3081    2.1447    0.0000 Cl  0  0  0  0  0  0  0  0  0  0  0  0
    5.7733    1.5750    0.0000 C   0  0  0  0  0  0  0  0  0  0  0  0
    5.4444    3.0385    0.0000 F   0  0  0  0  0  0  0  0  0  0  0  0
    2.4644   -1.4748    0.0000 C   0  0  0  0  0  0  0  0  0  0  0  0
    1.3614   -2.4914    0.0000 C   0  0  0  0  0  0  0  0  0  0  0  0
  1  2  2  0
  2  3  1  0
  3  4  1  0
  4  5  1  0
  5  6  1  0
  6  7  1  0
  7  8  1  0
  2  9  1  0
  9 10  2  0
 10 11  1  0
 11 12  2  0
 12 13  1  0
 13 14  2  0
 13 15  1  0
 15 16  1  0
 16 17  1  0
 17 18  1  0
 18 19  2  0
 19 20  1  0
 20 21  2  0
 21 22  1  0
 22 23  1  0
 22 24  2  0
 24 25  1  0
 16 26  1  0
 26 27  1  0
  8  4  1  0
 14  9  1  0
 24 18  1  0
 27 12  1  0
M  END
>  <Compound_ID>  (189) 
LIB189

>  <SMILES>  (189) 
O=C(NC1CCCC1)c1ccc2c(n1)CN(Cc1cccc(Cl)c1F)CC2

>  <R1_reagent>  (189) 
O=Cc1cccc(Cl)c1F

>  <R1_ID>  (189) 
R-008487

>  <N_reaction>  (189) 
Reductive_amination

>  <R2_amine>  (189) 
NC1CCCC1

>  <R2_ID>  (189) 
R-004298

>  <MW>  (189) 
387.9

>  <LogP>  (189) 
4.1

>  <HBD>  (189) 
1

>  <HBA>  (189) 
3

>  <RotB>  (189) 
4

>  <ASMS_similarity>  (189) 
0.527

>  <Priority_tier>  (189) 
Tier3_explore

>  <Scaffold>  (189) 
OC(=O)c1ccc2CCNCc2n1

$$$$

     RDKit          2D

 31 34  0  0  0  0  0  0  0  0999 V2000
   -4.4097   -3.2338    0.0000 O   0  0  0  0  0  0  0  0  0  0  0  0
   -3.5500   -2.0047    0.0000 C   0  0  0  0  0  0  0  0  0  0  0  0
   -4.1846   -0.6455    0.0000 N   0  0  0  0  0  0  0  0  0  0  0  0
   -5.6789   -0.5155    0.0000 C   0  0  0  0  0  0  0  0  0  0  0  0
   -6.3136    0.8436    0.0000 C   0  0  0  0  0  0  0  0  0  0  0  0
   -5.4538    2.0728    0.0000 C   0  0  0  0  0  0  0  0  0  0  0  0
   -6.0884    3.4319    0.0000 C   0  0  0  0  0  0  0  0  0  0  0  0
   -7.5828    3.5619    0.0000 C   0  0  0  0  0  0  0  0  0  0  0  0
   -8.4425    2.3327    0.0000 C   0  0  0  0  0  0  0  0  0  0  0  0
   -7.8079    0.9736    0.0000 C   0  0  0  0  0  0  0  0  0  0  0  0
   -8.6677   -0.2556    0.0000 Cl  0  0  0  0  0  0  0  0  0  0  0  0
   -2.0556   -2.1346    0.0000 C   0  0  0  0  0  0  0  0  0  0  0  0
   -1.4210   -3.4938    0.0000 C   0  0  0  0  0  0  0  0  0  0  0  0
    0.0734   -3.6238    0.0000 C   0  0  0  0  0  0  0  0  0  0  0  0
    0.9331   -2.3946    0.0000 C   0  0  0  0  0  0  0  0  0  0  0  0
    0.2985   -1.0355    0.0000 C   0  0  0  0  0  0  0  0  0  0  0  0
   -1.1959   -0.9055    0.0000 N   0  0  0  0  0  0  0  0  0  0  0  0
    1.1582    0.1937    0.0000 C   0  0  0  0  0  0  0  0  0  0  0  0
    2.6526    0.0637    0.0000 N   0  0  0  0  0  0  0  0  0  0  0  0
    3.5123    1.2929    0.0000 C   0  0  0  0  0  0  0  0  0  0  0  0
    5.0067    1.1629    0.0000 C   0  0  0  0  0  0  0  0  0  0  0  0
    5.6413   -0.1962    0.0000 C   0  0  0  0  0  0  0  0  0  0  0  0
    4.7816   -1.4254    0.0000 F   0  0  0  0  0  0  0  0  0  0  0  0
    7.1357   -0.3262    0.0000 C   0  0  0  0  0  0  0  0  0  0  0  0
    7.9954    0.9029    0.0000 C   0  0  0  0  0  0  0  0  0  0  0  0
    9.4898    0.7729    0.0000 F   0  0  0  0  0  0  0  0  0  0  0  0
    7.3608    2.2621    0.0000 C   0  0  0  0  0  0  0  0  0  0  0  0
    5.8664    2.3921    0.0000 C   0  0  0  0  0  0  0  0  0  0  0  0
    5.2318    3.7512    0.0000 F   0  0  0  0  0  0  0  0  0  0  0  0
    3.2872   -1.2954    0.0000 C   0  0  0  0  0  0  0  0  0  0  0  0
    2.4275   -2.5246    0.0000 C   0  0  0  0  0  0  0  0  0  0  0  0
  1  2  2  0
  2  3  1  0
  3  4  1  0
  4  5  1  0
  5  6  2  0
  6  7  1  0
  7  8  2  0
  8  9  1  0
  9 10  2  0
 10 11  1  0
  2 12  1  0
 12 13  2  0
 13 14  1  0
 14 15  2  0
 15 16  1  0
 16 17  2  0
 16 18  1  0
 18 19  1  0
 19 20  1  0
 20 21  1  0
 21 22  2  0
 22 23  1  0
 22 24  1  0
 24 25  2  0
 25 26  1  0
 25 27  1  0
 27 28  2  0
 28 29  1  0
 19 30  1  0
 30 31  1  0
 10  5  1  0
 17 12  1  0
 28 21  1  0
 31 15  1  0
M  END
>  <Compound_ID>  (190) 
LIB190

>  <SMILES>  (190) 
O=C(NCc1ccccc1Cl)c1ccc2c(n1)CN(Cc1c(F)cc(F)cc1F)CC2

>  <R1_reagent>  (190) 
O=Cc1c(F)cc(F)cc1F

>  <R1_ID>  (190) 
R-002674

>  <N_reaction>  (190) 
Reductive_amination

>  <R2_amine>  (190) 
NCc1ccccc1Cl

>  <R2_ID>  (190) 
R-004751

>  <MW>  (190) 
445.9

>  <LogP>  (190) 
4.64

>  <HBD>  (190) 
1

>  <HBA>  (190) 
3

>  <RotB>  (190) 
5

>  <ASMS_similarity>  (190) 
0.5263

>  <Priority_tier>  (190) 
Tier3_explore

>  <Scaffold>  (190) 
OC(=O)c1ccc2CCNCc2n1

$$$$

     RDKit          2D

 29 32  0  0  0  0  0  0  0  0999 V2000
  -10.2496    2.0379    0.0000 C   0  0  0  0  0  0  0  0  0  0  0  0
   -8.8036    1.6390    0.0000 N   0  0  0  0  0  0  0  0  0  0  0  0
   -7.7351    2.6917    0.0000 C   0  0  0  0  0  0  0  0  0  0  0  0
   -6.2891    2.2928    0.0000 C   0  0  0  0  0  0  0  0  0  0  0  0
   -5.9116    0.8411    0.0000 C   0  0  0  0  0  0  0  0  0  0  0  0
   -4.4657    0.4421    0.0000 N   0  0  0  0  0  0  0  0  0  0  0  0
   -4.0882   -1.0096    0.0000 C   0  0  0  0  0  0  0  0  0  0  0  0
   -5.1567   -2.0624    0.0000 O   0  0  0  0  0  0  0  0  0  0  0  0
   -2.6422   -1.4085    0.0000 C   0  0  0  0  0  0  0  0  0  0  0  0
   -2.2647   -2.8603    0.0000 C   0  0  0  0  0  0  0  0  0  0  0  0
   -0.8187   -3.2592    0.0000 C   0  0  0  0  0  0  0  0  0  0  0  0
    0.2498   -2.2064    0.0000 C   0  0  0  0  0  0  0  0  0  0  0  0
   -0.1277   -0.7547    0.0000 C   0  0  0  0  0  0  0  0  0  0  0  0
   -1.5737   -0.3558    0.0000 N   0  0  0  0  0  0  0  0  0  0  0  0
    0.9407    0.2981    0.0000 C   0  0  0  0  0  0  0  0  0  0  0  0
    2.3867   -0.1009    0.0000 N   0  0  0  0  0  0  0  0  0  0  0  0
    3.4552    0.9519    0.0000 C   0  0  0  0  0  0  0  0  0  0  0  0
    4.9012    0.5530    0.0000 C   0  0  0  0  0  0  0  0  0  0  0  0
    5.9697    1.6057    0.0000 C   0  0  0  0  0  0  0  0  0  0  0  0
    7.4156    1.2068    0.0000 C   0  0  0  0  0  0  0  0  0  0  0  0
    7.7931   -0.2449    0.0000 C   0  0  0  0  0  0  0  0  0  0  0  0
    9.2391   -0.6439    0.0000 C   0  0  0  0  0  0  0  0  0  0  0  0
   10.3076    0.4089    0.0000 C   0  0  0  0  0  0  0  0  0  0  0  0
    9.9301    1.8606    0.0000 C   0  0  0  0  0  0  0  0  0  0  0  0
    8.4841    2.2596    0.0000 C   0  0  0  0  0  0  0  0  0  0  0  0
    2.7642   -1.5526    0.0000 C   0  0  0  0  0  0  0  0  0  0  0  0
    1.6957   -2.6054    0.0000 C   0  0  0  0  0  0  0  0  0  0  0  0
   -6.9801   -0.2117    0.0000 C   0  0  0  0  0  0  0  0  0  0  0  0
   -8.4261    0.1872    0.0000 C   0  0  0  0  0  0  0  0  0  0  0  0
  1  2  1  0
  2  3  1  0
  3  4  1  0
  4  5  1  0
  5  6  1  0
  6  7  1  0
  7  8  2  0
  7  9  1  0
  9 10  2  0
 10 11  1  0
 11 12  2  0
 12 13  1  0
 13 14  2  0
 13 15  1  0
 15 16  1  0
 16 17  1  0
 17 18  1  0
 18 19  2  0
 19 20  1  0
 20 21  2  0
 21 22  1  0
 22 23  2  0
 23 24  1  0
 24 25  2  0
 16 26  1  0
 26 27  1  0
  5 28  1  0
 28 29  1  0
 29  2  1  0
 14  9  1  0
 25 20  1  0
 27 12  1  0
M  END
>  <Compound_ID>  (191) 
LIB191

>  <SMILES>  (191) 
CN1CCC(NC(=O)c2ccc3c(n2)CN(C/C=C/c2ccccc2)CC3)CC1

>  <R1_reagent>  (191) 
O=C/C=C/c1ccccc1

>  <R1_ID>  (191) 
R-000207

>  <N_reaction>  (191) 
Reductive_amination

>  <R2_amine>  (191) 
CN1CCC(N)CC1

>  <R2_ID>  (191) 
R-000447

>  <MW>  (191) 
390.5

>  <LogP>  (191) 
2.98

>  <HBD>  (191) 
1

>  <HBA>  (191) 
4

>  <RotB>  (191) 
5

>  <ASMS_similarity>  (191) 
0.5256

>  <Priority_tier>  (191) 
Tier3_explore

>  <Scaffold>  (191) 
OC(=O)c1ccc2CCNCc2n1

$$$$

     RDKit          2D

 33 36  0  0  0  0  0  0  0  0999 V2000
   -5.8781    5.0144    0.0000 C   0  0  0  0  0  0  0  0  0  0  0  0
   -6.9107    3.9264    0.0000 O   0  0  0  0  0  0  0  0  0  0  0  0
   -6.4847    2.4881    0.0000 C   0  0  0  0  0  0  0  0  0  0  0  0
   -5.0261    2.1379    0.0000 C   0  0  0  0  0  0  0  0  0  0  0  0
   -4.6001    0.6997    0.0000 C   0  0  0  0  0  0  0  0  0  0  0  0
   -3.1416    0.3495    0.0000 F   0  0  0  0  0  0  0  0  0  0  0  0
   -5.6327   -0.3884    0.0000 C   0  0  0  0  0  0  0  0  0  0  0  0
   -5.2067   -1.8266    0.0000 C   0  0  0  0  0  0  0  0  0  0  0  0
   -3.7482   -2.1768    0.0000 N   0  0  0  0  0  0  0  0  0  0  0  0
   -3.3222   -3.6150    0.0000 C   0  0  0  0  0  0  0  0  0  0  0  0
   -1.8636   -3.9652    0.0000 C   0  0  0  0  0  0  0  0  0  0  0  0
   -0.8311   -2.8772    0.0000 C   0  0  0  0  0  0  0  0  0  0  0  0
    0.6275   -3.2274    0.0000 C   0  0  0  0  0  0  0  0  0  0  0  0
    1.6600   -2.1394    0.0000 C   0  0  0  0  0  0  0  0  0  0  0  0
    1.2340   -0.7011    0.0000 C   0  0  0  0  0  0  0  0  0  0  0  0
    2.2666    0.3869    0.0000 C   0  0  0  0  0  0  0  0  0  0  0  0
    1.8406    1.8251    0.0000 O   0  0  0  0  0  0  0  0  0  0  0  0
    3.7252    0.0367    0.0000 N   0  0  0  0  0  0  0  0  0  0  0  0
    4.7577    1.1247    0.0000 C   0  0  0  0  0  0  0  0  0  0  0  0
    6.2163    0.7745    0.0000 C   0  0  0  0  0  0  0  0  0  0  0  0
    6.6422   -0.6637    0.0000 C   0  0  0  0  0  0  0  0  0  0  0  0
    8.1008   -1.0139    0.0000 C   0  0  0  0  0  0  0  0  0  0  0  0
    9.1333    0.0741    0.0000 C   0  0  0  0  0  0  0  0  0  0  0  0
   10.5919   -0.2761    0.0000 Cl  0  0  0  0  0  0  0  0  0  0  0  0
    8.7074    1.5124    0.0000 C   0  0  0  0  0  0  0  0  0  0  0  0
    7.2488    1.8626    0.0000 C   0  0  0  0  0  0  0  0  0  0  0  0
    6.8228    3.3008    0.0000 Cl  0  0  0  0  0  0  0  0  0  0  0  0
   -0.2245   -0.3509    0.0000 N   0  0  0  0  0  0  0  0  0  0  0  0
   -1.2571   -1.4390    0.0000 C   0  0  0  0  0  0  0  0  0  0  0  0
   -2.7156   -1.0888    0.0000 C   0  0  0  0  0  0  0  0  0  0  0  0
   -7.0912   -0.0382    0.0000 C   0  0  0  0  0  0  0  0  0  0  0  0
   -8.1238   -1.1262    0.0000 F   0  0  0  0  0  0  0  0  0  0  0  0
   -7.5172    1.4001    0.0000 C   0  0  0  0  0  0  0  0  0  0  0  0
  1  2  1  0
  2  3  1  0
  3  4  2  0
  4  5  1  0
  5  6  1  0
  5  7  2  0
  7  8  1  0
  8  9  1  0
  9 10  1  0
 10 11  1  0
 11 12  1  0
 12 13  2  0
 13 14  1  0
 14 15  2  0
 15 16  1  0
 16 17  2  0
 16 18  1  0
 18 19  1  0
 19 20  1  0
 20 21  2  0
 21 22  1  0
 22 23  2  0
 23 24  1  0
 23 25  1  0
 25 26  2  0
 26 27  1  0
 15 28  1  0
 28 29  2  0
 29 30  1  0
  7 31  1  0
 31 32  1  0
 31 33  2  0
 33  3  1  0
 30  9  1  0
 29 12  1  0
 26 20  1  0
M  END
>  <Compound_ID>  (192) 
LIB192

>  <SMILES>  (192) 
COc1cc(F)c(CN2CCc3ccc(C(=O)NCc4ccc(Cl)cc4Cl)nc3C2)c(F)c1

>  <R1_reagent>  (192) 
COc1cc(F)c(C=O)c(F)c1

>  <R1_ID>  (192) 
R-009947

>  <N_reaction>  (192) 
Reductive_amination

>  <R2_amine>  (192) 
NCc1ccc(Cl)cc1Cl

>  <R2_ID>  (192) 
R-004462

>  <MW>  (192) 
492.4

>  <LogP>  (192) 
5.16

>  <HBD>  (192) 
1

>  <HBA>  (192) 
4

>  <RotB>  (192) 
6

>  <ASMS_similarity>  (192) 
0.525

>  <Priority_tier>  (192) 
Tier3_explore

>  <Scaffold>  (192) 
OC(=O)c1ccc2CCNCc2n1

$$$$

     RDKit          2D

 35 38  0  0  0  0  0  0  0  0999 V2000
   -7.8063    4.9630    0.0000 C   0  0  0  0  0  0  0  0  0  0  0  0
   -7.3981    3.5196    0.0000 S   0  0  0  0  0  0  0  0  0  0  0  0
   -8.8415    3.1114    0.0000 O   0  0  0  0  0  0  0  0  0  0  0  0
   -5.9547    3.9278    0.0000 O   0  0  0  0  0  0  0  0  0  0  0  0
   -6.9899    2.0762    0.0000 C   0  0  0  0  0  0  0  0  0  0  0  0
   -5.5358    1.7080    0.0000 C   0  0  0  0  0  0  0  0  0  0  0  0
   -5.1276    0.2646    0.0000 C   0  0  0  0  0  0  0  0  0  0  0  0
   -6.1736   -0.8105    0.0000 C   0  0  0  0  0  0  0  0  0  0  0  0
   -5.7654   -2.2539    0.0000 C   0  0  0  0  0  0  0  0  0  0  0  0
   -4.3113   -2.6221    0.0000 N   0  0  0  0  0  0  0  0  0  0  0  0
   -3.9031   -4.0655    0.0000 C   0  0  0  0  0  0  0  0  0  0  0  0
   -2.4490   -4.4337    0.0000 C   0  0  0  0  0  0  0  0  0  0  0  0
   -1.4031   -3.3585    0.0000 C   0  0  0  0  0  0  0  0  0  0  0  0
    0.0511   -3.7267    0.0000 C   0  0  0  0  0  0  0  0  0  0  0  0
    1.0970   -2.6515    0.0000 C   0  0  0  0  0  0  0  0  0  0  0  0
    0.6888   -1.2082    0.0000 C   0  0  0  0  0  0  0  0  0  0  0  0
    1.7347   -0.1330    0.0000 C   0  0  0  0  0  0  0  0  0  0  0  0
    1.3265    1.3104    0.0000 O   0  0  0  0  0  0  0  0  0  0  0  0
    3.1888   -0.5012    0.0000 N   0  0  0  0  0  0  0  0  0  0  0  0
    4.2348    0.5740    0.0000 C   0  0  0  0  0  0  0  0  0  0  0  0
    5.6889    0.2058    0.0000 C   0  0  0  0  0  0  0  0  0  0  0  0
    6.0970   -1.2376    0.0000 C   0  0  0  0  0  0  0  0  0  0  0  0
    7.5512   -1.6058    0.0000 C   0  0  0  0  0  0  0  0  0  0  0  0
    8.5971   -0.5306    0.0000 C   0  0  0  0  0  0  0  0  0  0  0  0
    8.1889    0.9128    0.0000 C   0  0  0  0  0  0  0  0  0  0  0  0
    9.2348    1.9880    0.0000 C   0  0  0  0  0  0  0  0  0  0  0  0
   10.2807    3.0632    0.0000 F   0  0  0  0  0  0  0  0  0  0  0  0
   10.3100    0.9421    0.0000 F   0  0  0  0  0  0  0  0  0  0  0  0
    8.1596    3.0339    0.0000 F   0  0  0  0  0  0  0  0  0  0  0  0
    6.7348    1.2810    0.0000 C   0  0  0  0  0  0  0  0  0  0  0  0
   -0.7653   -0.8400    0.0000 N   0  0  0  0  0  0  0  0  0  0  0  0
   -1.8112   -1.9151    0.0000 C   0  0  0  0  0  0  0  0  0  0  0  0
   -3.2653   -1.5469    0.0000 C   0  0  0  0  0  0  0  0  0  0  0  0
   -7.6277   -0.4423    0.0000 C   0  0  0  0  0  0  0  0  0  0  0  0
   -8.0358    1.0010    0.0000 C   0  0  0  0  0  0  0  0  0  0  0  0
  1  2  1  0
  2  3  2  0
  2  4  2  0
  2  5  1  0
  5  6  2  0
  6  7  1  0
  7  8  2  0
  8  9  1  0
  9 10  1  0
 10 11  1  0
 11 12  1  0
 12 13  1  0
 13 14  2  0
 14 15  1  0
 15 16  2  0
 16 17  1  0
 17 18  2  0
 17 19  1  0
 19 20  1  0
 20 21  1  0
 21 22  2  0
 22 23  1  0
 23 24  2  0
 24 25  1  0
 25 26  1  0
 26 27  1  0
 26 28  1  0
 26 29  1  0
 25 30  2  0
 16 31  1  0
 31 32  2  0
 32 33  1  0
  8 34  1  0
 34 35  2  0
 35  5  1  0
 33 10  1  0
 32 13  1  0
 30 21  1  0
M  END
>  <Compound_ID>  (193) 
LIB193

>  <SMILES>  (193) 
CS(=O)(=O)c1ccc(CN2CCc3ccc(C(=O)NCc4cccc(C(F)(F)F)c4)nc3C2)cc1

>  <R1_reagent>  (193) 
CS(=O)(=O)c1ccc(C=O)cc1

>  <R1_ID>  (193) 
R-008219

>  <N_reaction>  (193) 
Reductive_amination

>  <R2_amine>  (193) 
NCc1cccc(C(F)(F)F)c1

>  <R2_ID>  (193) 
R-002810

>  <MW>  (193) 
503.5

>  <LogP>  (193) 
3.99

>  <HBD>  (193) 
1

>  <HBA>  (193) 
5

>  <RotB>  (193) 
6

>  <ASMS_similarity>  (193) 
0.5238

>  <Priority_tier>  (193) 
Tier3_explore

>  <Scaffold>  (193) 
OC(=O)c1ccc2CCNCc2n1

$$$$

     RDKit          2D

 26 29  0  0  0  0  0  0  0  0999 V2000
   -5.0945   -1.8018    0.0000 O   0  0  0  0  0  0  0  0  0  0  0  0
   -4.0246   -0.7504    0.0000 C   0  0  0  0  0  0  0  0  0  0  0  0
   -4.4002    0.7018    0.0000 N   0  0  0  0  0  0  0  0  0  0  0  0
   -5.8456    1.1026    0.0000 C   0  0  0  0  0  0  0  0  0  0  0  0
   -7.0195    0.1689    0.0000 C   0  0  0  0  0  0  0  0  0  0  0  0
   -8.2704    0.9968    0.0000 C   0  0  0  0  0  0  0  0  0  0  0  0
   -7.8695    2.4422    0.0000 C   0  0  0  0  0  0  0  0  0  0  0  0
   -6.3709    2.5077    0.0000 C   0  0  0  0  0  0  0  0  0  0  0  0
   -2.5792   -1.1513    0.0000 C   0  0  0  0  0  0  0  0  0  0  0  0
   -2.2036   -2.6035    0.0000 C   0  0  0  0  0  0  0  0  0  0  0  0
   -0.7582   -3.0044    0.0000 C   0  0  0  0  0  0  0  0  0  0  0  0
    0.3117   -1.9530    0.0000 C   0  0  0  0  0  0  0  0  0  0  0  0
   -0.0638   -0.5008    0.0000 C   0  0  0  0  0  0  0  0  0  0  0  0
   -1.5093   -0.0999    0.0000 N   0  0  0  0  0  0  0  0  0  0  0  0
    1.0060    0.5506    0.0000 C   0  0  0  0  0  0  0  0  0  0  0  0
    2.4515    0.1497    0.0000 N   0  0  0  0  0  0  0  0  0  0  0  0
    3.5214    1.2011    0.0000 C   0  0  0  0  0  0  0  0  0  0  0  0
    4.9668    0.8002    0.0000 C   0  0  0  0  0  0  0  0  0  0  0  0
    5.3424   -0.6520    0.0000 N   0  0  0  0  0  0  0  0  0  0  0  0
    6.7878   -1.0528    0.0000 C   0  0  0  0  0  0  0  0  0  0  0  0
    7.8577   -0.0015    0.0000 C   0  0  0  0  0  0  0  0  0  0  0  0
    7.4821    1.4507    0.0000 C   0  0  0  0  0  0  0  0  0  0  0  0
    6.0367    1.8516    0.0000 C   0  0  0  0  0  0  0  0  0  0  0  0
    5.6611    3.3038    0.0000 F   0  0  0  0  0  0  0  0  0  0  0  0
    2.8270   -1.3025    0.0000 C   0  0  0  0  0  0  0  0  0  0  0  0
    1.7572   -2.3539    0.0000 C   0  0  0  0  0  0  0  0  0  0  0  0
  1  2  2  0
  2  3  1  0
  3  4  1  0
  4  5  1  0
  5  6  1  0
  6  7  1  0
  7  8  1  0
  2  9  1  0
  9 10  2  0
 10 11  1  0
 11 12  2  0
 12 13  1  0
 13 14  2  0
 13 15  1  0
 15 16  1  0
 16 17  1  0
 17 18  1  0
 18 19  2  0
 19 20  1  0
 20 21  2  0
 21 22  1  0
 22 23  2  0
 23 24  1  0
 16 25  1  0
 25 26  1  0
  8  4  1  0
 14  9  1  0
 23 18  1  0
 26 12  1  0
M  END
>  <Compound_ID>  (194) 
LIB194

>  <SMILES>  (194) 
O=C(NC1CCCC1)c1ccc2c(n1)CN(Cc1ncccc1F)CC2

>  <R1_reagent>  (194) 
O=Cc1ncccc1F

>  <R1_ID>  (194) 
R-011948

>  <N_reaction>  (194) 
Reductive_amination

>  <R2_amine>  (194) 
NC1CCCC1

>  <R2_ID>  (194) 
R-004298

>  <MW>  (194) 
354.4

>  <LogP>  (194) 
2.85

>  <HBD>  (194) 
1

>  <HBA>  (194) 
4

>  <RotB>  (194) 
4

>  <ASMS_similarity>  (194) 
0.5205

>  <Priority_tier>  (194) 
Tier3_explore

>  <Scaffold>  (194) 
OC(=O)c1ccc2CCNCc2n1

$$$$

     RDKit          2D

 29 32  0  0  0  0  0  0  0  0999 V2000
   -6.9810    4.3248    0.0000 C   0  0  0  0  0  0  0  0  0  0  0  0
   -6.6086    2.8718    0.0000 C   0  0  0  0  0  0  0  0  0  0  0  0
   -5.1641    2.4677    0.0000 C   0  0  0  0  0  0  0  0  0  0  0  0
   -4.7917    1.0147    0.0000 C   0  0  0  0  0  0  0  0  0  0  0  0
   -5.8639   -0.0343    0.0000 C   0  0  0  0  0  0  0  0  0  0  0  0
   -5.4916   -1.4874    0.0000 C   0  0  0  0  0  0  0  0  0  0  0  0
   -4.0470   -1.8914    0.0000 N   0  0  0  0  0  0  0  0  0  0  0  0
   -3.6746   -3.3445    0.0000 C   0  0  0  0  0  0  0  0  0  0  0  0
   -2.2301   -3.7485    0.0000 C   0  0  0  0  0  0  0  0  0  0  0  0
   -1.1579   -2.6995    0.0000 C   0  0  0  0  0  0  0  0  0  0  0  0
    0.2867   -3.1036    0.0000 C   0  0  0  0  0  0  0  0  0  0  0  0
    1.3589   -2.0546    0.0000 C   0  0  0  0  0  0  0  0  0  0  0  0
    0.9865   -0.6015    0.0000 C   0  0  0  0  0  0  0  0  0  0  0  0
    2.0587    0.4475    0.0000 C   0  0  0  0  0  0  0  0  0  0  0  0
    1.6863    1.9005    0.0000 O   0  0  0  0  0  0  0  0  0  0  0  0
    3.5033    0.0434    0.0000 N   0  0  0  0  0  0  0  0  0  0  0  0
    4.5754    1.0924    0.0000 C   0  0  0  0  0  0  0  0  0  0  0  0
    6.0200    0.6884    0.0000 C   0  0  0  0  0  0  0  0  0  0  0  0
    6.3924   -0.7647    0.0000 C   0  0  0  0  0  0  0  0  0  0  0  0
    7.8369   -1.1687    0.0000 C   0  0  0  0  0  0  0  0  0  0  0  0
    8.9091   -0.1197    0.0000 C   0  0  0  0  0  0  0  0  0  0  0  0
    8.5368    1.3333    0.0000 C   0  0  0  0  0  0  0  0  0  0  0  0
    7.0922    1.7374    0.0000 C   0  0  0  0  0  0  0  0  0  0  0  0
    6.7198    3.1904    0.0000 Cl  0  0  0  0  0  0  0  0  0  0  0  0
   -0.4581   -0.1975    0.0000 N   0  0  0  0  0  0  0  0  0  0  0  0
   -1.5302   -1.2465    0.0000 C   0  0  0  0  0  0  0  0  0  0  0  0
   -2.9748   -0.8424    0.0000 C   0  0  0  0  0  0  0  0  0  0  0  0
   -7.3085    0.3697    0.0000 N   0  0  0  0  0  0  0  0  0  0  0  0
   -7.6808    1.8228    0.0000 C   0  0  0  0  0  0  0  0  0  0  0  0
  1  2  1  0
  2  3  2  0
  3  4  1  0
  4  5  2  0
  5  6  1  0
  6  7  1  0
  7  8  1  0
  8  9  1  0
  9 10  1  0
 10 11  2  0
 11 12  1  0
 12 13  2  0
 13 14  1  0
 14 15  2  0
 14 16  1  0
 16 17  1  0
 17 18  1  0
 18 19  2  0
 19 20  1  0
 20 21  2  0
 21 22  1  0
 22 23  2  0
 23 24  1  0
 13 25  1  0
 25 26  2  0
 26 27  1  0
  5 28  1  0
 28 29  2  0
 29  2  1  0
 27  7  1  0
 26 10  1  0
 23 18  1  0
M  END
>  <Compound_ID>  (195) 
LIB195

>  <SMILES>  (195) 
Cc1ccc(CN2CCc3ccc(C(=O)NCc4ccccc4Cl)nc3C2)nc1

>  <R1_reagent>  (195) 
Cc1ccc(C=O)nc1

>  <R1_ID>  (195) 
R-009805

>  <N_reaction>  (195) 
Reductive_amination

>  <R2_amine>  (195) 
NCc1ccccc1Cl

>  <R2_ID>  (195) 
R-004751

>  <MW>  (195) 
406.9

>  <LogP>  (195) 
3.93

>  <HBD>  (195) 
1

>  <HBA>  (195) 
4

>  <RotB>  (195) 
5

>  <ASMS_similarity>  (195) 
0.5205

>  <Priority_tier>  (195) 
Tier3_explore

>  <Scaffold>  (195) 
OC(=O)c1ccc2CCNCc2n1

$$$$

     RDKit          2D

 25 28  0  0  0  0  0  0  0  0999 V2000
   -6.1846   -1.2237    0.0000 O   0  0  0  0  0  0  0  0  0  0  0  0
   -5.0248   -0.2725    0.0000 C   0  0  0  0  0  0  0  0  0  0  0  0
   -5.2686    1.2076    0.0000 N   0  0  0  0  0  0  0  0  0  0  0  0
   -6.6723    1.7364    0.0000 C   0  0  0  0  0  0  0  0  0  0  0  0
   -8.1524    1.4925    0.0000 C   0  0  0  0  0  0  0  0  0  0  0  0
   -7.6235    2.8962    0.0000 C   0  0  0  0  0  0  0  0  0  0  0  0
   -3.6211   -0.8013    0.0000 C   0  0  0  0  0  0  0  0  0  0  0  0
   -3.3772   -2.2814    0.0000 C   0  0  0  0  0  0  0  0  0  0  0  0
   -1.9735   -2.8102    0.0000 C   0  0  0  0  0  0  0  0  0  0  0  0
   -0.8137   -1.8590    0.0000 C   0  0  0  0  0  0  0  0  0  0  0  0
   -1.0576   -0.3789    0.0000 C   0  0  0  0  0  0  0  0  0  0  0  0
   -2.4613    0.1499    0.0000 N   0  0  0  0  0  0  0  0  0  0  0  0
    0.1022    0.5723    0.0000 C   0  0  0  0  0  0  0  0  0  0  0  0
    1.5059    0.0434    0.0000 N   0  0  0  0  0  0  0  0  0  0  0  0
    2.6658    0.9947    0.0000 C   0  0  0  0  0  0  0  0  0  0  0  0
    4.0694    0.4658    0.0000 C   0  0  0  0  0  0  0  0  0  0  0  0
    4.3133   -1.0142    0.0000 C   0  0  0  0  0  0  0  0  0  0  0  0
    5.7170   -1.5431    0.0000 C   0  0  0  0  0  0  0  0  0  0  0  0
    6.8768   -0.5918    0.0000 C   0  0  0  0  0  0  0  0  0  0  0  0
    6.6330    0.8882    0.0000 C   0  0  0  0  0  0  0  0  0  0  0  0
    7.7928    1.8394    0.0000 Cl  0  0  0  0  0  0  0  0  0  0  0  0
    5.2293    1.4170    0.0000 C   0  0  0  0  0  0  0  0  0  0  0  0
    4.9854    2.8971    0.0000 F   0  0  0  0  0  0  0  0  0  0  0  0
    1.7498   -1.4366    0.0000 C   0  0  0  0  0  0  0  0  0  0  0  0
    0.5900   -2.3878    0.0000 C   0  0  0  0  0  0  0  0  0  0  0  0
  1  2  2  0
  2  3  1  0
  3  4  1  0
  4  5  1  0
  5  6  1  0
  2  7  1  0
  7  8  2  0
  8  9  1  0
  9 10  2  0
 10 11  1  0
 11 12  2  0
 11 13  1  0
 13 14  1  0
 14 15  1  0
 15 16  1  0
 16 17  2  0
 17 18  1  0
 18 19  2  0
 19 20  1  0
 20 21  1  0
 20 22  2  0
 22 23  1  0
 14 24  1  0
 24 25  1  0
  6  4  1  0
 12  7  1  0
 22 16  1  0
 25 10  1  0
M  END
>  <Compound_ID>  (196) 
LIB196

>  <SMILES>  (196) 
O=C(NC1CC1)c1ccc2c(n1)CN(Cc1cccc(Cl)c1F)CC2

>  <R1_reagent>  (196) 
O=Cc1cccc(Cl)c1F

>  <R1_ID>  (196) 
R-008487

>  <N_reaction>  (196) 
Reductive_amination

>  <R2_amine>  (196) 
NC1CC1

>  <R2_ID>  (196) 
R-004669

>  <MW>  (196) 
359.8

>  <LogP>  (196) 
3.32

>  <HBD>  (196) 
1

>  <HBA>  (196) 
3

>  <RotB>  (196) 
4

>  <ASMS_similarity>  (196) 
0.5205

>  <Priority_tier>  (196) 
Tier3_explore

>  <Scaffold>  (196) 
OC(=O)c1ccc2CCNCc2n1

$$$$

     RDKit          2D

 26 28  0  0  0  0  0  0  0  0999 V2000
   -1.9514    1.2206    0.0000 C   0  0  0  0  0  0  0  0  0  0  0  0
   -3.4504    1.2770    0.0000 C   0  0  0  0  0  0  0  0  0  0  0  0
   -4.2858    2.5228    0.0000 N   0  0  0  0  0  0  0  0  0  0  0  0
   -5.7288    2.1132    0.0000 N   0  0  0  0  0  0  0  0  0  0  0  0
   -6.9084    3.0398    0.0000 C   0  0  0  0  0  0  0  0  0  0  0  0
   -5.7852    0.6142    0.0000 C   0  0  0  0  0  0  0  0  0  0  0  0
   -7.0310   -0.2212    0.0000 Cl  0  0  0  0  0  0  0  0  0  0  0  0
   -4.3770    0.0974    0.0000 C   0  0  0  0  0  0  0  0  0  0  0  0
   -3.9675   -1.3456    0.0000 C   0  0  0  0  0  0  0  0  0  0  0  0
   -2.5130   -1.7123    0.0000 N   0  0  0  0  0  0  0  0  0  0  0  0
   -2.1034   -3.1553    0.0000 C   0  0  0  0  0  0  0  0  0  0  0  0
   -0.6489   -3.5221    0.0000 C   0  0  0  0  0  0  0  0  0  0  0  0
    0.3959   -2.4459    0.0000 C   0  0  0  0  0  0  0  0  0  0  0  0
    1.8504   -2.8127    0.0000 C   0  0  0  0  0  0  0  0  0  0  0  0
    2.8953   -1.7365    0.0000 C   0  0  0  0  0  0  0  0  0  0  0  0
    2.4857   -0.2935    0.0000 C   0  0  0  0  0  0  0  0  0  0  0  0
    3.5306    0.7827    0.0000 C   0  0  0  0  0  0  0  0  0  0  0  0
    3.1210    2.2257    0.0000 O   0  0  0  0  0  0  0  0  0  0  0  0
    4.9850    0.4159    0.0000 N   0  0  0  0  0  0  0  0  0  0  0  0
    6.0299    1.4922    0.0000 C   0  0  0  0  0  0  0  0  0  0  0  0
    7.4844    1.1254    0.0000 C   0  0  0  0  0  0  0  0  0  0  0  0
    8.5293    2.2016    0.0000 F   0  0  0  0  0  0  0  0  0  0  0  0
    7.8940   -0.3176    0.0000 F   0  0  0  0  0  0  0  0  0  0  0  0
    1.0312    0.0733    0.0000 N   0  0  0  0  0  0  0  0  0  0  0  0
   -0.0136   -1.0029    0.0000 C   0  0  0  0  0  0  0  0  0  0  0  0
   -1.4681   -0.6361    0.0000 C   0  0  0  0  0  0  0  0  0  0  0  0
  1  2  1  0
  2  3  2  0
  3  4  1  0
  4  5  1  0
  4  6  1  0
  6  7  1  0
  6  8  2  0
  8  9  1  0
  9 10  1  0
 10 11  1  0
 11 12  1  0
 12 13  1  0
 13 14  2  0
 14 15  1  0
 15 16  2  0
 16 17  1  0
 17 18  2  0
 17 19  1  0
 19 20  1  0
 20 21  1  0
 21 22  1  0
 21 23  1  0
 16 24  1  0
 24 25  2  0
 25 26  1  0
  8  2  1  0
 26 10  1  0
 25 13  1  0
M  END
>  <Compound_ID>  (197) 
LIB197

>  <SMILES>  (197) 
Cc1nn(C)c(Cl)c1CN1CCc2ccc(C(=O)NCC(F)F)nc2C1

>  <R1_reagent>  (197) 
Cc1nn(C)c(Cl)c1C=O

>  <R1_ID>  (197) 
R-008532

>  <N_reaction>  (197) 
Reductive_amination

>  <R2_amine>  (197) 
NCC(F)F

>  <R2_ID>  (197) 
R-000710

>  <MW>  (197) 
383.8

>  <LogP>  (197) 
2.33

>  <HBD>  (197) 
1

>  <HBA>  (197) 
5

>  <RotB>  (197) 
5

>  <ASMS_similarity>  (197) 
0.5195

>  <Priority_tier>  (197) 
Tier3_explore

>  <Scaffold>  (197) 
OC(=O)c1ccc2CCNCc2n1

$$$$

     RDKit          2D

 37 40  0  0  0  0  0  0  0  0999 V2000
   -2.7469    2.3626    0.0000 C   0  0  0  0  0  0  0  0  0  0  0  0
   -4.2009    2.7312    0.0000 O   0  0  0  0  0  0  0  0  0  0  0  0
   -5.2471    1.6563    0.0000 C   0  0  0  0  0  0  0  0  0  0  0  0
   -4.8394    0.2128    0.0000 C   0  0  0  0  0  0  0  0  0  0  0  0
   -5.8856   -0.8621    0.0000 C   0  0  0  0  0  0  0  0  0  0  0  0
   -5.4779   -2.3056    0.0000 C   0  0  0  0  0  0  0  0  0  0  0  0
   -4.0239   -2.6742    0.0000 N   0  0  0  0  0  0  0  0  0  0  0  0
   -3.6161   -4.1178    0.0000 C   0  0  0  0  0  0  0  0  0  0  0  0
   -2.1621   -4.4864    0.0000 C   0  0  0  0  0  0  0  0  0  0  0  0
   -1.1159   -3.4115    0.0000 C   0  0  0  0  0  0  0  0  0  0  0  0
    0.3381   -3.7802    0.0000 C   0  0  0  0  0  0  0  0  0  0  0  0
    1.3844   -2.7053    0.0000 C   0  0  0  0  0  0  0  0  0  0  0  0
    0.9766   -1.2618    0.0000 C   0  0  0  0  0  0  0  0  0  0  0  0
    2.0229   -0.1869    0.0000 C   0  0  0  0  0  0  0  0  0  0  0  0
    1.6151    1.2566    0.0000 O   0  0  0  0  0  0  0  0  0  0  0  0
    3.4769   -0.5555    0.0000 N   0  0  0  0  0  0  0  0  0  0  0  0
    4.5231    0.5193    0.0000 C   0  0  0  0  0  0  0  0  0  0  0  0
    5.9771    0.1507    0.0000 C   0  0  0  0  0  0  0  0  0  0  0  0
    6.3849   -1.2928    0.0000 C   0  0  0  0  0  0  0  0  0  0  0  0
    7.8388   -1.6615    0.0000 C   0  0  0  0  0  0  0  0  0  0  0  0
    8.8851   -0.5866    0.0000 C   0  0  0  0  0  0  0  0  0  0  0  0
    8.4774    0.8569    0.0000 C   0  0  0  0  0  0  0  0  0  0  0  0
    9.5236    1.9318    0.0000 C   0  0  0  0  0  0  0  0  0  0  0  0
   10.5699    3.0067    0.0000 F   0  0  0  0  0  0  0  0  0  0  0  0
   10.5985    0.8856    0.0000 F   0  0  0  0  0  0  0  0  0  0  0  0
    8.4487    2.9781    0.0000 F   0  0  0  0  0  0  0  0  0  0  0  0
    7.0234    1.2256    0.0000 C   0  0  0  0  0  0  0  0  0  0  0  0
   -0.4774   -0.8931    0.0000 N   0  0  0  0  0  0  0  0  0  0  0  0
   -1.5236   -1.9680    0.0000 C   0  0  0  0  0  0  0  0  0  0  0  0
   -2.9776   -1.5994    0.0000 C   0  0  0  0  0  0  0  0  0  0  0  0
   -7.3396   -0.4934    0.0000 C   0  0  0  0  0  0  0  0  0  0  0  0
   -7.7474    0.9501    0.0000 C   0  0  0  0  0  0  0  0  0  0  0  0
   -9.2014    1.3187    0.0000 O   0  0  0  0  0  0  0  0  0  0  0  0
   -9.6091    2.7622    0.0000 C   0  0  0  0  0  0  0  0  0  0  0  0
   -6.7011    2.0250    0.0000 C   0  0  0  0  0  0  0  0  0  0  0  0
   -7.1089    3.4685    0.0000 O   0  0  0  0  0  0  0  0  0  0  0  0
   -6.0626    4.5434    0.0000 C   0  0  0  0  0  0  0  0  0  0  0  0
  1  2  1  0
  2  3  1  0
  3  4  2  0
  4  5  1  0
  5  6  1  0
  6  7  1  0
  7  8  1  0
  8  9  1  0
  9 10  1  0
 10 11  2  0
 11 12  1  0
 12 13  2  0
 13 14  1  0
 14 15  2  0
 14 16  1  0
 16 17  1  0
 17 18  1  0
 18 19  2  0
 19 20  1  0
 20 21  2  0
 21 22  1  0
 22 23  1  0
 23 24  1  0
 23 25  1  0
 23 26  1  0
 22 27  2  0
 13 28  1  0
 28 29  2  0
 29 30  1  0
  5 31  2  0
 31 32  1  0
 32 33  1  0
 33 34  1  0
 32 35  2  0
 35 36  1  0
 36 37  1  0
 35  3  1  0
 30  7  1  0
 29 10  1  0
 27 18  1  0
M  END
>  <Compound_ID>  (198) 
LIB198

>  <SMILES>  (198) 
COc1cc(CN2CCc3ccc(C(=O)NCc4cccc(C(F)(F)F)c4)nc3C2)cc(OC)c1OC

>  <R1_reagent>  (198) 
COc1cc(C=O)cc(OC)c1OC

>  <R1_ID>  (198) 
R-008128

>  <N_reaction>  (198) 
Reductive_amination

>  <R2_amine>  (198) 
NCc1cccc(C(F)(F)F)c1

>  <R2_ID>  (198) 
R-002810

>  <MW>  (198) 
515.5

>  <LogP>  (198) 
4.61

>  <HBD>  (198) 
1

>  <HBA>  (198) 
6

>  <RotB>  (198) 
8

>  <ASMS_similarity>  (198) 
0.5176

>  <Priority_tier>  (198) 
Tier3_explore

>  <Scaffold>  (198) 
OC(=O)c1ccc2CCNCc2n1

$$$$

     RDKit          2D

 25 27  0  0  0  0  0  0  0  0999 V2000
   -5.9873    4.0611    0.0000 C   0  0  0  0  0  0  0  0  0  0  0  0
   -5.5182    2.6363    0.0000 C   0  0  0  0  0  0  0  0  0  0  0  0
   -4.0497    2.3303    0.0000 C   0  0  0  0  0  0  0  0  0  0  0  0
   -3.5806    0.9055    0.0000 C   0  0  0  0  0  0  0  0  0  0  0  0
   -4.5798   -0.2132    0.0000 C   0  0  0  0  0  0  0  0  0  0  0  0
   -4.1107   -1.6379    0.0000 C   0  0  0  0  0  0  0  0  0  0  0  0
   -2.6422   -1.9440    0.0000 N   0  0  0  0  0  0  0  0  0  0  0  0
   -2.1731   -3.3687    0.0000 C   0  0  0  0  0  0  0  0  0  0  0  0
   -0.7046   -3.6748    0.0000 C   0  0  0  0  0  0  0  0  0  0  0  0
    0.2947   -2.5561    0.0000 C   0  0  0  0  0  0  0  0  0  0  0  0
    1.7631   -2.8621    0.0000 C   0  0  0  0  0  0  0  0  0  0  0  0
    2.7624   -1.7435    0.0000 C   0  0  0  0  0  0  0  0  0  0  0  0
    2.2932   -0.3187    0.0000 C   0  0  0  0  0  0  0  0  0  0  0  0
    3.2925    0.7999    0.0000 C   0  0  0  0  0  0  0  0  0  0  0  0
    2.8233    2.2247    0.0000 O   0  0  0  0  0  0  0  0  0  0  0  0
    4.7609    0.4939    0.0000 N   0  0  0  0  0  0  0  0  0  0  0  0
    5.7602    1.6126    0.0000 C   0  0  0  0  0  0  0  0  0  0  0  0
    7.2287    1.3065    0.0000 C   0  0  0  0  0  0  0  0  0  0  0  0
    8.2279    2.4252    0.0000 F   0  0  0  0  0  0  0  0  0  0  0  0
    7.6978   -0.1182    0.0000 F   0  0  0  0  0  0  0  0  0  0  0  0
    0.8248   -0.0127    0.0000 N   0  0  0  0  0  0  0  0  0  0  0  0
   -0.1745   -1.1313    0.0000 C   0  0  0  0  0  0  0  0  0  0  0  0
   -1.6430   -0.8253    0.0000 C   0  0  0  0  0  0  0  0  0  0  0  0
   -6.0483    0.0929    0.0000 C   0  0  0  0  0  0  0  0  0  0  0  0
   -6.5175    1.5176    0.0000 N   0  0  0  0  0  0  0  0  0  0  0  0
  1  2  1  0
  2  3  2  0
  3  4  1  0
  4  5  2  0
  5  6  1  0
  6  7  1  0
  7  8  1  0
  8  9  1  0
  9 10  1  0
 10 11  2  0
 11 12  1  0
 12 13  2  0
 13 14  1  0
 14 15  2  0
 14 16  1  0
 16 17  1  0
 17 18  1  0
 18 19  1  0
 18 20  1  0
 13 21  1  0
 21 22  2  0
 22 23  1  0
  5 24  1  0
 24 25  2  0
 25  2  1  0
 23  7  1  0
 22 10  1  0
M  END
>  <Compound_ID>  (199) 
LIB199

>  <SMILES>  (199) 
Cc1ccc(CN2CCc3ccc(C(=O)NCC(F)F)nc3C2)cn1

>  <R1_reagent>  (199) 
Cc1ccc(C=O)cn1

>  <R1_ID>  (199) 
R-010386

>  <N_reaction>  (199) 
Reductive_amination

>  <R2_amine>  (199) 
NCC(F)F

>  <R2_ID>  (199) 
R-000710

>  <MW>  (199) 
346.4

>  <LogP>  (199) 
2.34

>  <HBD>  (199) 
1

>  <HBA>  (199) 
4

>  <RotB>  (199) 
5

>  <ASMS_similarity>  (199) 
0.5143

>  <Priority_tier>  (199) 
Tier3_explore

>  <Scaffold>  (199) 
OC(=O)c1ccc2CCNCc2n1

$$$$

     RDKit          2D

 25 27  0  0  0  0  0  0  0  0999 V2000
   -8.3826   -2.3622    0.0000 C   0  0  0  0  0  0  0  0  0  0  0  0
   -6.8865   -2.4706    0.0000 C   0  0  0  0  0  0  0  0  0  0  0  0
   -6.2324   -3.8205    0.0000 C   0  0  0  0  0  0  0  0  0  0  0  0
   -6.0446   -1.2292    0.0000 C   0  0  0  0  0  0  0  0  0  0  0  0
   -4.5486   -1.3376    0.0000 C   0  0  0  0  0  0  0  0  0  0  0  0
   -3.7066   -0.0961    0.0000 N   0  0  0  0  0  0  0  0  0  0  0  0
   -4.3608    1.2537    0.0000 C   0  0  0  0  0  0  0  0  0  0  0  0
   -3.5189    2.4952    0.0000 C   0  0  0  0  0  0  0  0  0  0  0  0
   -2.0228    2.3868    0.0000 C   0  0  0  0  0  0  0  0  0  0  0  0
   -1.1809    3.6282    0.0000 C   0  0  0  0  0  0  0  0  0  0  0  0
    0.3152    3.5198    0.0000 C   0  0  0  0  0  0  0  0  0  0  0  0
    0.9693    2.1700    0.0000 C   0  0  0  0  0  0  0  0  0  0  0  0
    2.4654    2.0616    0.0000 C   0  0  0  0  0  0  0  0  0  0  0  0
    3.3073    3.3030    0.0000 O   0  0  0  0  0  0  0  0  0  0  0  0
    3.1196    0.7117    0.0000 N   0  0  0  0  0  0  0  0  0  0  0  0
    4.6157    0.6033    0.0000 C   0  0  0  0  0  0  0  0  0  0  0  0
    5.2698   -0.7465    0.0000 C   0  0  0  0  0  0  0  0  0  0  0  0
    4.4279   -1.9879    0.0000 C   0  0  0  0  0  0  0  0  0  0  0  0
    5.0821   -3.3378    0.0000 C   0  0  0  0  0  0  0  0  0  0  0  0
    6.5782   -3.4462    0.0000 C   0  0  0  0  0  0  0  0  0  0  0  0
    7.4201   -2.2047    0.0000 C   0  0  0  0  0  0  0  0  0  0  0  0
    6.7659   -0.8549    0.0000 N   0  0  0  0  0  0  0  0  0  0  0  0
    0.1274    0.9285    0.0000 N   0  0  0  0  0  0  0  0  0  0  0  0
   -1.3686    1.0369    0.0000 C   0  0  0  0  0  0  0  0  0  0  0  0
   -2.2106   -0.2045    0.0000 C   0  0  0  0  0  0  0  0  0  0  0  0
  1  2  1  0
  2  3  1  0
  2  4  1  0
  4  5  1  0
  5  6  1  0
  6  7  1  0
  7  8  1  0
  8  9  1  0
  9 10  2  0
 10 11  1  0
 11 12  2  0
 12 13  1  0
 13 14  2  0
 13 15  1  0
 15 16  1  0
 16 17  1  0
 17 18  2  0
 18 19  1  0
 19 20  2  0
 20 21  1  0
 21 22  2  0
 12 23  1  0
 23 24  2  0
 24 25  1  0
 25  6  1  0
 24  9  1  0
 22 17  1  0
M  END
>  <Compound_ID>  (200) 
LIB200

>  <SMILES>  (200) 
CC(C)CCN1CCc2ccc(C(=O)NCc3ccccn3)nc2C1

>  <R1_reagent>  (200) 
CC(C)CC=O

>  <R1_ID>  (200) 
R-000380

>  <N_reaction>  (200) 
Reductive_amination

>  <R2_amine>  (200) 
NCc1ccccn1

>  <R2_ID>  (200) 
R-004572

>  <MW>  (200) 
338.5

>  <LogP>  (200) 
2.81

>  <HBD>  (200) 
1

>  <HBA>  (200) 
4

>  <RotB>  (200) 
6

>  <ASMS_similarity>  (200) 
0.5143

>  <Priority_tier>  (200) 
Tier3_explore

>  <Scaffold>  (200) 
OC(=O)c1ccc2CCNCc2n1

$$$$
