Int-A5
     RDKit          2D

 21 23  0  0  0  0  0  0  0  0999 V2000
   -5.8156    4.2286    0.0000 N   0  0  0  0  0  0  0  0  0  0  0  0
   -5.1807    2.8695    0.0000 C   0  0  0  0  0  0  0  0  0  0  0  0
   -3.6863    2.7398    0.0000 C   0  0  0  0  0  0  0  0  0  0  0  0
   -3.0515    1.3808    0.0000 C   0  0  0  0  0  0  0  0  0  0  0  0
   -3.9110    0.1515    0.0000 O   0  0  0  0  0  0  0  0  0  0  0  0
   -1.5571    1.2511    0.0000 N   0  0  0  0  0  0  0  0  0  0  0  0
   -0.9222   -0.1079    0.0000 C   0  0  0  0  0  0  0  0  0  0  0  0
   -1.7817   -1.3372    0.0000 C   0  0  0  0  0  0  0  0  0  0  0  0
   -1.1469   -2.6962    0.0000 C   0  0  0  0  0  0  0  0  0  0  0  0
    0.3475   -2.8259    0.0000 C   0  0  0  0  0  0  0  0  0  0  0  0
    1.2070   -1.5966    0.0000 C   0  0  0  0  0  0  0  0  0  0  0  0
    0.5722   -0.2376    0.0000 C   0  0  0  0  0  0  0  0  0  0  0  0
    1.4317    0.9917    0.0000 C   0  0  0  0  0  0  0  0  0  0  0  0
    2.9261    0.8620    0.0000 N   0  0  0  0  0  0  0  0  0  0  0  0
    3.7856    2.0914    0.0000 C   0  0  0  0  0  0  0  0  0  0  0  0
    5.2800    1.9617    0.0000 C   0  0  0  0  0  0  0  0  0  0  0  0
    6.6390    2.5965    0.0000 C   0  0  0  0  0  0  0  0  0  0  0  0
    6.5093    1.1021    0.0000 C   0  0  0  0  0  0  0  0  0  0  0  0
    0.6860   -4.2873    0.0000 O   0  0  0  0  0  0  0  0  0  0  0  0
   -0.5992   -5.0607    0.0000 C   0  0  0  0  0  0  0  0  0  0  0  0
   -1.7320   -4.0774    0.0000 O   0  0  0  0  0  0  0  0  0  0  0  0
  1  2  1  0
  2  3  1  0
  3  4  1  0
  4  5  2  0
  4  6  1  0
  6  7  1  0
  7  8  2  0
  8  9  1  0
  9 10  2  0
 10 11  1  0
 11 12  2  0
 12 13  1  0
 13 14  1  0
 14 15  1  0
 15 16  1  0
 16 17  1  0
 17 18  1  0
 10 19  1  0
 19 20  1  0
 20 21  1  0
 12  7  1  0
 18 16  1  0
 21  9  1  0
M  END
