Int-A4
     RDKit          2D

 35 37  0  0  0  0  0  0  0  0999 V2000
   10.5154   -2.4368    0.0000 C   0  0  0  0  0  0  0  0  0  0  0  0
   10.0036   -1.0268    0.0000 C   0  0  0  0  0  0  0  0  0  0  0  0
    9.4917    0.3831    0.0000 C   0  0  0  0  0  0  0  0  0  0  0  0
   11.4135   -0.5150    0.0000 C   0  0  0  0  0  0  0  0  0  0  0  0
    8.5936   -1.5387    0.0000 O   0  0  0  0  0  0  0  0  0  0  0  0
    7.4453   -0.5735    0.0000 C   0  0  0  0  0  0  0  0  0  0  0  0
    7.7071    0.9035    0.0000 O   0  0  0  0  0  0  0  0  0  0  0  0
    6.0354   -1.0853    0.0000 N   0  0  0  0  0  0  0  0  0  0  0  0
    4.8871   -0.1202    0.0000 C   0  0  0  0  0  0  0  0  0  0  0  0
    3.4771   -0.6320    0.0000 C   0  0  0  0  0  0  0  0  0  0  0  0
    2.3289    0.3332    0.0000 C   0  0  0  0  0  0  0  0  0  0  0  0
    2.5906    1.8101    0.0000 O   0  0  0  0  0  0  0  0  0  0  0  0
    0.9189   -0.1787    0.0000 N   0  0  0  0  0  0  0  0  0  0  0  0
   -0.2293    0.7865    0.0000 C   0  0  0  0  0  0  0  0  0  0  0  0
    0.0324    2.2635    0.0000 C   0  0  0  0  0  0  0  0  0  0  0  0
   -1.1158    3.2286    0.0000 C   0  0  0  0  0  0  0  0  0  0  0  0
   -2.5258    2.7168    0.0000 C   0  0  0  0  0  0  0  0  0  0  0  0
   -2.7875    1.2398    0.0000 C   0  0  0  0  0  0  0  0  0  0  0  0
   -1.6393    0.2747    0.0000 C   0  0  0  0  0  0  0  0  0  0  0  0
   -1.9010   -1.2023    0.0000 C   0  0  0  0  0  0  0  0  0  0  0  0
   -3.3110   -1.7142    0.0000 N   0  0  0  0  0  0  0  0  0  0  0  0
   -3.5727   -3.1912    0.0000 C   0  0  0  0  0  0  0  0  0  0  0  0
   -4.9827   -3.7030    0.0000 C   0  0  0  0  0  0  0  0  0  0  0  0
   -5.9479   -4.8512    0.0000 C   0  0  0  0  0  0  0  0  0  0  0  0
   -6.4597   -3.4413    0.0000 C   0  0  0  0  0  0  0  0  0  0  0  0
   -4.4592   -0.7490    0.0000 C   0  0  0  0  0  0  0  0  0  0  0  0
   -4.1975    0.7280    0.0000 O   0  0  0  0  0  0  0  0  0  0  0  0
   -5.8692   -1.2608    0.0000 O   0  0  0  0  0  0  0  0  0  0  0  0
   -7.0175   -0.2957    0.0000 C   0  0  0  0  0  0  0  0  0  0  0  0
   -7.9826   -1.4439    0.0000 C   0  0  0  0  0  0  0  0  0  0  0  0
   -6.0523    0.8526    0.0000 C   0  0  0  0  0  0  0  0  0  0  0  0
   -8.1657    0.6695    0.0000 C   0  0  0  0  0  0  0  0  0  0  0  0
   -3.4483    3.8996    0.0000 O   0  0  0  0  0  0  0  0  0  0  0  0
   -2.6085    5.1424    0.0000 C   0  0  0  0  0  0  0  0  0  0  0  0
   -1.1669    4.7278    0.0000 O   0  0  0  0  0  0  0  0  0  0  0  0
  1  2  1  0
  2  3  1  0
  2  4  1  0
  2  5  1  0
  5  6  1  0
  6  7  2  0
  6  8  1  0
  8  9  1  0
  9 10  1  0
 10 11  1  0
 11 12  2  0
 11 13  1  0
 13 14  1  0
 14 15  2  0
 15 16  1  0
 16 17  2  0
 17 18  1  0
 18 19  2  0
 19 20  1  0
 20 21  1  0
 21 22  1  0
 22 23  1  0
 23 24  1  0
 24 25  1  0
 21 26  1  0
 26 27  2  0
 26 28  1  0
 28 29  1  0
 29 30  1  0
 29 31  1  0
 29 32  1  0
 17 33  1  0
 33 34  1  0
 34 35  1  0
 19 14  1  0
 35 16  1  0
 25 23  1  0
M  END
