Int-C2
     RDKit          2D

 12 13  0  0  0  0  0  0  0  0999 V2000
    3.9284    0.4535    0.0000 Cl  0  0  0  0  0  0  0  0  0  0  0  0
    2.6765    1.2798    0.0000 C   0  0  0  0  0  0  0  0  0  0  0  0
    1.3349    0.6088    0.0000 C   0  0  0  0  0  0  0  0  0  0  0  0
    0.0830    1.4351    0.0000 C   0  0  0  0  0  0  0  0  0  0  0  0
   -1.2585    0.7641    0.0000 C   0  0  0  0  0  0  0  0  0  0  0  0
   -1.3482   -0.7332    0.0000 C   0  0  0  0  0  0  0  0  0  0  0  0
   -0.0963   -1.5595    0.0000 C   0  0  0  0  0  0  0  0  0  0  0  0
    1.2453   -0.8885    0.0000 C   0  0  0  0  0  0  0  0  0  0  0  0
    2.4971   -1.7148    0.0000 Br  0  0  0  0  0  0  0  0  0  0  0  0
   -2.7999   -1.1106    0.0000 O   0  0  0  0  0  0  0  0  0  0  0  0
   -3.6075    0.1534    0.0000 C   0  0  0  0  0  0  0  0  0  0  0  0
   -2.6548    1.3121    0.0000 O   0  0  0  0  0  0  0  0  0  0  0  0
  1  2  1  0
  2  3  1  0
  3  4  2  0
  4  5  1  0
  5  6  2  0
  6  7  1  0
  7  8  2  0
  8  9  1  0
  6 10  1  0
 10 11  1  0
 11 12  1  0
  8  3  1  0
 12  5  1  0
M  END
