Int-B1
     RDKit          2D

 15 17  0  0  0  0  0  0  0  0999 V2000
    0.9968    2.5864    0.0000 N   0  0  0  0  0  0  0  0  0  0  0  0
    0.0180    1.4498    0.0000 C   0  0  0  0  0  0  0  0  0  0  0  0
   -1.4558    1.7291    0.0000 C   0  0  0  0  0  0  0  0  0  0  0  0
   -2.4346    0.5925    0.0000 C   0  0  0  0  0  0  0  0  0  0  0  0
   -1.9396   -0.8235    0.0000 C   0  0  0  0  0  0  0  0  0  0  0  0
   -0.4659   -1.1028    0.0000 C   0  0  0  0  0  0  0  0  0  0  0  0
    0.5129    0.0338    0.0000 C   0  0  0  0  0  0  0  0  0  0  0  0
    1.9867   -0.2455    0.0000 C   0  0  0  0  0  0  0  0  0  0  0  0
    3.0790    0.7826    0.0000 O   0  0  0  0  0  0  0  0  0  0  0  0
    4.3943    0.0615    0.0000 C   0  0  0  0  0  0  0  0  0  0  0  0
    4.1149   -1.4123    0.0000 C   0  0  0  0  0  0  0  0  0  0  0  0
    2.6270   -1.6020    0.0000 O   0  0  0  0  0  0  0  0  0  0  0  0
   -3.1334   -1.7318    0.0000 O   0  0  0  0  0  0  0  0  0  0  0  0
   -4.3661   -0.8771    0.0000 C   0  0  0  0  0  0  0  0  0  0  0  0
   -3.9342    0.5593    0.0000 O   0  0  0  0  0  0  0  0  0  0  0  0
  1  2  1  0
  2  3  2  0
  3  4  1  0
  4  5  2  0
  5  6  1  0
  6  7  2  0
  7  8  1  0
  8  9  1  0
  9 10  1  0
 10 11  1  0
 11 12  1  0
  5 13  1  0
 13 14  1  0
 14 15  1  0
  7  2  1  0
 15  4  1  0
 12  8  1  0
M  END
