Int-C3
     RDKit          2D

 16 18  0  0  0  0  0  0  0  0999 V2000
   -1.0517    3.3481    0.0000 Br  0  0  0  0  0  0  0  0  0  0  0  0
   -1.4027    1.8898    0.0000 C   0  0  0  0  0  0  0  0  0  0  0  0
   -2.8412    1.4647    0.0000 C   0  0  0  0  0  0  0  0  0  0  0  0
   -3.1923    0.0064    0.0000 C   0  0  0  0  0  0  0  0  0  0  0  0
   -2.1049   -1.0269    0.0000 C   0  0  0  0  0  0  0  0  0  0  0  0
   -0.6664   -0.6017    0.0000 C   0  0  0  0  0  0  0  0  0  0  0  0
   -0.3153    0.8566    0.0000 C   0  0  0  0  0  0  0  0  0  0  0  0
    1.1232    1.2817    0.0000 C   0  0  0  0  0  0  0  0  0  0  0  0
    2.2106    0.2485    0.0000 N   0  0  0  0  0  0  0  0  0  0  0  0
    3.6491    0.6736    0.0000 C   0  0  0  0  0  0  0  0  0  0  0  0
    4.7365   -0.3596    0.0000 C   0  0  0  0  0  0  0  0  0  0  0  0
    6.1948   -0.7107    0.0000 C   0  0  0  0  0  0  0  0  0  0  0  0
    5.1616   -1.7981    0.0000 C   0  0  0  0  0  0  0  0  0  0  0  0
   -2.7515   -2.3803    0.0000 O   0  0  0  0  0  0  0  0  0  0  0  0
   -4.2386   -2.1836    0.0000 C   0  0  0  0  0  0  0  0  0  0  0  0
   -4.5110   -0.7086    0.0000 O   0  0  0  0  0  0  0  0  0  0  0  0
  1  2  1  0
  2  3  2  0
  3  4  1  0
  4  5  2  0
  5  6  1  0
  6  7  2  0
  7  8  1  0
  8  9  1  0
  9 10  1  0
 10 11  1  0
 11 12  1  0
 12 13  1  0
  5 14  1  0
 14 15  1  0
 15 16  1  0
  7  2  1  0
 13 11  1  0
 16  4  1  0
M  END
