Int-B4
     RDKit          2D

 21 23  0  0  0  0  0  0  0  0999 V2000
   -1.2506    3.5936    0.0000 O   0  0  0  0  0  0  0  0  0  0  0  0
   -2.6806    3.1408    0.0000 C   0  0  0  0  0  0  0  0  0  0  0  0
   -3.0034    1.6759    0.0000 C   0  0  0  0  0  0  0  0  0  0  0  0
   -4.4334    1.2231    0.0000 C   0  0  0  0  0  0  0  0  0  0  0  0
   -4.7562   -0.2418    0.0000 C   0  0  0  0  0  0  0  0  0  0  0  0
   -3.6490   -1.2538    0.0000 C   0  0  0  0  0  0  0  0  0  0  0  0
   -2.2190   -0.8009    0.0000 C   0  0  0  0  0  0  0  0  0  0  0  0
   -1.8962    0.6639    0.0000 C   0  0  0  0  0  0  0  0  0  0  0  0
   -0.4662    1.1168    0.0000 N   0  0  0  0  0  0  0  0  0  0  0  0
    0.6410    0.1048    0.0000 C   0  0  0  0  0  0  0  0  0  0  0  0
    0.3182   -1.3601    0.0000 O   0  0  0  0  0  0  0  0  0  0  0  0
    2.0710    0.5576    0.0000 C   0  0  0  0  0  0  0  0  0  0  0  0
    3.1782   -0.4544    0.0000 C   0  0  0  0  0  0  0  0  0  0  0  0
    4.6082   -0.0015    0.0000 N   0  0  0  0  0  0  0  0  0  0  0  0
    5.7154   -1.0135    0.0000 C   0  0  0  0  0  0  0  0  0  0  0  0
    7.1454   -0.5607    0.0000 C   0  0  0  0  0  0  0  0  0  0  0  0
    8.1574    0.5465    0.0000 C   0  0  0  0  0  0  0  0  0  0  0  0
    8.6102   -0.8835    0.0000 C   0  0  0  0  0  0  0  0  0  0  0  0
   -4.2694   -2.6195    0.0000 O   0  0  0  0  0  0  0  0  0  0  0  0
   -5.7599   -2.4515    0.0000 C   0  0  0  0  0  0  0  0  0  0  0  0
   -6.0608   -0.9820    0.0000 O   0  0  0  0  0  0  0  0  0  0  0  0
  1  2  2  0
  2  3  1  0
  3  4  2  0
  4  5  1  0
  5  6  2  0
  6  7  1  0
  7  8  2  0
  8  9  1  0
  9 10  1  0
 10 11  2  0
 10 12  1  0
 12 13  1  0
 13 14  1  0
 14 15  1  0
 15 16  1  0
 16 17  1  0
 17 18  1  0
  6 19  1  0
 19 20  1  0
 20 21  1  0
  8  3  1  0
 21  5  1  0
 18 16  1  0
M  END
