Int-C5
     RDKit          2D

 21 23  0  0  0  0  0  0  0  0999 V2000
    3.9092   -3.3588    0.0000 N   0  0  0  0  0  0  0  0  0  0  0  0
    2.6326   -2.5711    0.0000 C   0  0  0  0  0  0  0  0  0  0  0  0
    2.6764   -1.0718    0.0000 C   0  0  0  0  0  0  0  0  0  0  0  0
    1.3999   -0.2842    0.0000 C   0  0  0  0  0  0  0  0  0  0  0  0
    0.0795   -0.9959    0.0000 O   0  0  0  0  0  0  0  0  0  0  0  0
    1.4437    1.2152    0.0000 N   0  0  0  0  0  0  0  0  0  0  0  0
    0.1671    2.0028    0.0000 C   0  0  0  0  0  0  0  0  0  0  0  0
   -1.1533    1.2911    0.0000 C   0  0  0  0  0  0  0  0  0  0  0  0
   -1.1971   -0.2083    0.0000 C   0  0  0  0  0  0  0  0  0  0  0  0
   -2.5175   -0.9200    0.0000 C   0  0  0  0  0  0  0  0  0  0  0  0
   -3.7941   -0.1324    0.0000 C   0  0  0  0  0  0  0  0  0  0  0  0
   -3.7502    1.3670    0.0000 C   0  0  0  0  0  0  0  0  0  0  0  0
   -2.4299    2.0787    0.0000 C   0  0  0  0  0  0  0  0  0  0  0  0
   -2.3860    3.5781    0.0000 Br  0  0  0  0  0  0  0  0  0  0  0  0
   -4.9376   -1.1031    0.0000 O   0  0  0  0  0  0  0  0  0  0  0  0
   -4.3678   -2.4906    0.0000 C   0  0  0  0  0  0  0  0  0  0  0  0
   -2.8721   -2.3775    0.0000 O   0  0  0  0  0  0  0  0  0  0  0  0
    2.7641    1.9269    0.0000 C   0  0  0  0  0  0  0  0  0  0  0  0
    4.0407    1.1393    0.0000 C   0  0  0  0  0  0  0  0  0  0  0  0
    5.5400    1.0955    0.0000 C   0  0  0  0  0  0  0  0  0  0  0  0
    4.7524   -0.1811    0.0000 C   0  0  0  0  0  0  0  0  0  0  0  0
  1  2  1  0
  2  3  1  0
  3  4  1  0
  4  5  2  0
  4  6  1  0
  6  7  1  0
  7  8  1  0
  8  9  2  0
  9 10  1  0
 10 11  2  0
 11 12  1  0
 12 13  2  0
 13 14  1  0
 11 15  1  0
 15 16  1  0
 16 17  1  0
  6 18  1  0
 18 19  1  0
 19 20  1  0
 20 21  1  0
 13  8  1  0
 21 19  1  0
 17 10  1  0
M  END
