Target
     RDKit          2D

 20 23  0  0  0  0  0  0  0  0999 V2000
    4.3829    1.6160    0.0000 O   0  0  0  0  0  0  0  0  0  0  0  0
    2.8837    1.5669    0.0000 C   0  0  0  0  0  0  0  0  0  0  0  0
    2.2646    2.9332    0.0000 C   0  0  0  0  0  0  0  0  0  0  0  0
    0.8607    3.4615    0.0000 C   0  0  0  0  0  0  0  0  0  0  0  0
   -0.5056    2.8424    0.0000 N   0  0  0  0  0  0  0  0  0  0  0  0
   -1.0339    1.4386    0.0000 C   0  0  0  0  0  0  0  0  0  0  0  0
   -2.5267    1.5856    0.0000 C   0  0  0  0  0  0  0  0  0  0  0  0
   -3.4004    0.3663    0.0000 C   0  0  0  0  0  0  0  0  0  0  0  0
   -2.7813   -1.0000    0.0000 C   0  0  0  0  0  0  0  0  0  0  0  0
   -1.2885   -1.1470    0.0000 C   0  0  0  0  0  0  0  0  0  0  0  0
   -0.4148    0.0723    0.0000 C   0  0  0  0  0  0  0  0  0  0  0  0
    0.9890   -0.4561    0.0000 C   0  0  0  0  0  0  0  0  0  0  0  0
    2.3553    0.1630    0.0000 N   0  0  0  0  0  0  0  0  0  0  0  0
    3.4501   -0.8623    0.0000 C   0  0  0  0  0  0  0  0  0  0  0  0
    3.1096   -2.3232    0.0000 C   0  0  0  0  0  0  0  0  0  0  0  0
    3.5450   -3.7586    0.0000 C   0  0  0  0  0  0  0  0  0  0  0  0
    2.0842   -3.4180    0.0000 C   0  0  0  0  0  0  0  0  0  0  0  0
   -3.8894   -2.0110    0.0000 O   0  0  0  0  0  0  0  0  0  0  0  0
   -5.1933   -1.2695    0.0000 C   0  0  0  0  0  0  0  0  0  0  0  0
   -4.8911    0.1997    0.0000 O   0  0  0  0  0  0  0  0  0  0  0  0
  1  2  2  0
  2  3  1  0
  3  4  1  0
  4  5  1  0
  5  6  1  0
  6  7  2  0
  7  8  1  0
  8  9  2  0
  9 10  1  0
 10 11  2  0
 11 12  1  0
 12 13  1  0
 13 14  1  0
 14 15  1  0
 15 16  1  0
 16 17  1  0
  9 18  1  0
 18 19  1  0
 19 20  1  0
 13  2  1  0
 17 15  1  0
 11  6  1  0
 20  8  1  0
M  END
