BX912
 OpenBabel09072615513D

 34 37  0  0  0  0  0  0  0  0999 V2000
   -5.3072   38.8207   45.7641 Br  0  0  0  0  0  0  0  0  0  0  0  0
   -6.1522   40.3375   45.0231 C   0  0  0  0  0  0  0  0  0  0  0  0
   -5.5358   41.5738   44.8977 C   0  0  0  0  0  0  0  0  0  0  0  0
   -7.4583   40.2641   44.6007 C   0  0  0  0  0  0  0  0  0  0  0  0
   -6.1874   42.6201   44.3484 N   0  0  0  0  0  0  0  0  0  0  0  0
   -8.1312   41.3044   44.0714 N   0  0  0  0  0  0  0  0  0  0  0  0
   -7.4553   42.4523   43.9339 C   0  0  0  0  0  0  0  0  0  0  0  0
   -4.1897   41.7336   45.2820 N   0  0  0  0  0  0  0  0  0  0  0  0
   -4.0424   42.6563   45.6843 H   0  0  0  0  0  0  0  0  0  0  0  0
   -3.1798   41.3830   44.2786 C   0  0  0  0  0  0  0  0  0  0  0  0
   -2.0734   40.4863   44.8628 C   0  0  0  0  0  0  0  0  0  0  0  0
   -0.7929   41.2179   45.0508 C   0  0  0  0  0  0  0  0  0  0  0  0
   -0.7460   42.5032   45.5336 N   0  0  0  0  0  0  0  0  0  0  0  0
    0.5238   40.8761   44.8374 C   0  0  0  0  0  0  0  0  0  0  0  0
    0.5660   42.8774   45.5799 C   0  0  0  0  0  0  0  0  0  0  0  0
    1.3575   41.9142   45.1658 N   0  0  0  0  0  0  0  0  0  0  0  0
   -1.5424   43.0830   45.7746 H   0  0  0  0  0  0  0  0  0  0  0  0
   -8.1686   43.5141   43.3870 N   0  0  0  0  0  0  0  0  0  0  0  0
   -8.8742   43.1577   42.7542 H   0  0  0  0  0  0  0  0  0  0  0  0
   -7.8496   44.8702   43.2199 C   0  0  0  0  0  0  0  0  0  0  0  0
   -6.4925   45.2396   43.2068 C   0  0  0  0  0  0  0  0  0  0  0  0
   -8.8046   45.8605   42.9720 C   0  0  0  0  0  0  0  0  0  0  0  0
   -6.0931   46.5604   42.9765 C   0  0  0  0  0  0  0  0  0  0  0  0
   -8.4222   47.1815   42.7363 C   0  0  0  0  0  0  0  0  0  0  0  0
   -7.0725   47.5285   42.7365 C   0  0  0  0  0  0  0  0  0  0  0  0
   -4.7483   46.9832   42.9399 N   0  0  0  0  0  0  0  0  0  0  0  0
   -4.0488   47.6629   43.9112 C   0  0  0  0  0  0  0  0  0  0  0  0
   -4.5267   48.0925   44.9579 O   0  0  0  0  0  0  0  0  0  0  0  0
   -2.7105   47.8444   43.6175 N   0  0  0  0  0  0  0  0  0  0  0  0
   -1.9406   47.2823   42.5171 C   0  0  0  0  0  0  0  0  0  0  0  0
   -1.8525   48.5787   44.5322 C   0  0  0  0  0  0  0  0  0  0  0  0
   -0.4866   47.5020   42.9122 C   0  0  0  0  0  0  0  0  0  0  0  0
   -0.5504   48.7601   43.7673 C   0  0  0  0  0  0  0  0  0  0  0  0
   -4.2771   46.8784   42.0569 H   0  0  0  0  0  0  0  0  0  0  0  0
  1  2  1  0  0  0  0
  2  3  2  0  0  0  0
  2  4  1  0  0  0  0
  3  5  1  0  0  0  0
  3  8  1  0  0  0  0
  4  6  2  0  0  0  0
  5  7  2  0  0  0  0
  6  7  1  0  0  0  0
  7 18  1  0  0  0  0
  8 10  1  0  0  0  0
  8  9  1  0  0  0  0
 10 11  1  0  0  0  0
 11 12  1  0  0  0  0
 12 13  1  0  0  0  0
 12 14  2  0  0  0  0
 13 15  1  0  0  0  0
 13 17  1  0  0  0  0
 14 16  1  0  0  0  0
 15 16  2  0  0  0  0
 18 20  1  0  0  0  0
 18 19  1  0  0  0  0
 20 21  2  0  0  0  0
 20 22  1  0  0  0  0
 21 23  1  0  0  0  0
 22 24  2  0  0  0  0
 23 26  1  0  0  0  0
 23 25  2  0  0  0  0
 24 25  1  0  0  0  0
 26 27  1  0  0  0  0
 26 34  1  0  0  0  0
 27 28  2  0  0  0  0
 27 29  1  0  0  0  0
 29 30  1  0  0  0  0
 29 31  1  0  0  0  0
 30 32  1  0  0  0  0
 31 33  1  0  0  0  0
 32 33  1  0  0  0  0
M  END
