EL2003A


 37 41  0  0  0  0  0  0  0  0999 V2000
   -7.1166   41.4528   44.4448 C   0  0  0  0  0  0  0  0  0  0  0  0
   -6.3172   42.5186   44.6851 N   0  0  0  0  0  0  0  0  0  0  0  0
   -8.3138   41.5050   43.8252 N   0  0  0  0  0  0  0  0  0  0  0  0
   -6.6819   43.7633   44.2825 C   0  0  0  0  0  0  0  0  0  0  0  0
   -8.6464   42.7466   43.4575 C   0  0  0  0  0  0  0  0  0  0  0  0
   -7.9196   43.9039   43.6413 C   0  0  0  0  0  0  0  0  0  0  0  0
   -9.7872   43.1410   42.8212 N   0  0  0  0  0  0  0  0  0  0  0  0
   -8.5910   44.9943   43.1271 N   0  0  0  0  0  0  0  0  0  0  0  0
   -9.7114   44.4970   42.6445 C   0  0  0  0  0  0  0  0  0  0  0  0
  -10.5414   42.5319   42.5415 H   0  0  0  0  0  0  0  0  0  0  0  0
   -6.7542   40.1800   44.8805 N   0  0  0  0  0  0  0  0  0  0  0  0
   -7.5229   39.5394   44.7397 H   0  0  0  0  0  0  0  0  0  0  0  0
   -3.1940   39.9183   45.8921 C   0  0  0  0  0  0  0  0  0  0  0  0
   -4.4105   40.4090   45.4048 C   0  0  0  0  0  0  0  0  0  0  0  0
   -3.1487   38.6194   46.4055 C   0  0  0  0  0  0  0  0  0  0  0  0
   -5.5881   39.6375   45.4352 C   0  0  0  0  0  0  0  0  0  0  0  0
   -4.3012   37.8381   46.4440 C   0  0  0  0  0  0  0  0  0  0  0  0
   -5.5091   38.3486   45.9655 C   0  0  0  0  0  0  0  0  0  0  0  0
   -0.7722   39.5616   44.2316 O   0  0  0  0  0  0  0  0  0  0  0  0
   -0.8673   40.4162   45.1088 C   0  0  0  0  0  0  0  0  0  0  0  0
    0.1945   41.2537   45.3965 N   0  0  0  0  0  0  0  0  0  0  0  0
   -1.9858   40.6462   45.8771 N   0  0  0  0  0  0  0  0  0  0  0  0
    1.4307   41.1570   44.6391 C   0  0  0  0  0  0  0  0  0  0  0  0
    0.3215   42.2137   46.4836 C   0  0  0  0  0  0  0  0  0  0  0  0
    2.2397   42.3679   45.0778 C   0  0  0  0  0  0  0  0  0  0  0  0
    1.8049   42.5547   46.5250 C   0  0  0  0  0  0  0  0  0  0  0  0
   -1.9816   41.4981   46.4121 H   0  0  0  0  0  0  0  0  0  0  0  0
   -5.8636   44.8621   44.5806 N   0  0  0  0  0  0  0  0  0  0  0  0
   -6.1574   45.2408   45.4836 H   0  0  0  0  0  0  0  0  0  0  0  0
   -5.8282   45.8891   43.5326 C   0  0  0  0  0  0  0  0  0  0  0  0
   -4.8715   47.0240   43.9312 C   0  0  0  0  0  0  0  0  0  0  0  0
   -5.2126   48.3423   43.3179 C   0  0  0  0  0  0  0  0  0  0  0  0
   -4.9701   49.5485   43.9311 N   0  0  0  0  0  0  0  0  0  0  0  0
   -5.8026   48.6785   42.1186 C   0  0  0  0  0  0  0  0  0  0  0  0
   -5.3906   50.5345   43.0866 C   0  0  0  0  0  0  0  0  0  0  0  0
   -5.9015   50.0393   41.9823 N   0  0  0  0  0  0  0  0  0  0  0  0
   -4.5047   49.6761   44.8242 H   0  0  0  0  0  0  0  0  0  0  0  0
 19 20  2  0
 20 21  1  0
 20 22  1  0
 21 23  1  0
 21 24  1  0
 22 13  1  0
 23 25  1  0
 24 26  1  0
 13 14  2  0
 13 15  1  0
 14 16  1  0
 15 17  2  0
 16 11  1  0
 16 18  2  0
 11  1  1  0
  1  2  2  0
  1  3  1  0
  2  4  1  0
  3  5  2  0
  4 28  1  0
  4  6  2  0
  5  7  1  0
 28 30  1  0
  6  8  1  0
  7  9  1  0
 30 31  1  0
 31 32  1  0
 32 33  1  0
 32 34  2  0
 33 35  1  0
 34 36  1  0
 25 26  1  0
 17 18  1  0
  5  6  1  0
  8  9  2  0
 35 36  2  0
 22 27  1  0
 11 12  1  0
 28 29  1  0
  7 10  1  0
 33 37  1  0
M  END
> <Molecule Name>
EL2003A

> <Name>
EL2003A

> <pIC50 PDK>
7.9

> <selection>
Y

> <MMFF94_energy_kcal_mol>
-85.8421

> <Note>
No stereocenters; achiral molecule

> <minimizedAffinity>
-9.80011

> <CNNscore>
0.9702720046

> <CNNaffinity>
7.6332154274

> <CNN_VS>
7.4062952995

> <CNNaffinity_variance>
0.1295842230
$$$$
