EL2003A
 OpenBabel09072615493D

 37 41  0  0  0  0  0  0  0  0999 V2000
   -7.1137   41.4727   44.4765 C   0  0  0  0  0  0  0  0  0  0  0  0
   -6.3094   42.5365   44.7095 N   0  0  0  0  0  0  0  0  0  0  0  0
   -8.3040   41.5240   43.8438 N   0  0  0  0  0  0  0  0  0  0  0  0
   -6.6614   43.7776   44.2850 C   0  0  0  0  0  0  0  0  0  0  0  0
   -8.6242   42.7622   43.4545 C   0  0  0  0  0  0  0  0  0  0  0  0
   -7.8913   43.9172   43.6289 C   0  0  0  0  0  0  0  0  0  0  0  0
   -9.7556   43.1549   42.8006 N   0  0  0  0  0  0  0  0  0  0  0  0
   -8.5498   45.0043   43.0918 N   0  0  0  0  0  0  0  0  0  0  0  0
   -9.6686   44.5076   42.6048 C   0  0  0  0  0  0  0  0  0  0  0  0
  -10.5111   42.5468   42.5220 H   0  0  0  0  0  0  0  0  0  0  0  0
   -6.7646   40.2040   44.9345 N   0  0  0  0  0  0  0  0  0  0  0  0
   -7.5536   39.5794   44.8435 H   0  0  0  0  0  0  0  0  0  0  0  0
   -3.1965   39.9312   45.9146 C   0  0  0  0  0  0  0  0  0  0  0  0
   -4.4203   40.4318   45.4565 C   0  0  0  0  0  0  0  0  0  0  0  0
   -3.1359   38.6107   46.3678 C   0  0  0  0  0  0  0  0  0  0  0  0
   -5.5903   39.6482   45.4578 C   0  0  0  0  0  0  0  0  0  0  0  0
   -4.2806   37.8173   46.3766 C   0  0  0  0  0  0  0  0  0  0  0  0
   -5.4961   38.3372   45.9282 C   0  0  0  0  0  0  0  0  0  0  0  0
   -0.7985   39.7037   44.1976 O   0  0  0  0  0  0  0  0  0  0  0  0
   -0.8873   40.5007   45.1281 C   0  0  0  0  0  0  0  0  0  0  0  0
    0.1714   41.3292   45.4513 N   0  0  0  0  0  0  0  0  0  0  0  0
   -1.9954   40.6708   45.9265 N   0  0  0  0  0  0  0  0  0  0  0  0
    1.3960   41.2926   44.6703 C   0  0  0  0  0  0  0  0  0  0  0  0
    0.3071   42.2205   46.5944 C   0  0  0  0  0  0  0  0  0  0  0  0
    2.2009   42.4818   45.1715 C   0  0  0  0  0  0  0  0  0  0  0  0
    1.7878   42.5732   46.6342 C   0  0  0  0  0  0  0  0  0  0  0  0
   -1.9902   41.4876   46.5138 H   0  0  0  0  0  0  0  0  0  0  0  0
   -5.8386   44.8751   44.5755 N   0  0  0  0  0  0  0  0  0  0  0  0
   -6.3678   45.7282   44.3826 H   0  0  0  0  0  0  0  0  0  0  0  0
   -4.5434   44.8569   43.8852 C   0  0  0  0  0  0  0  0  0  0  0  0
   -4.6987   45.3774   42.4476 C   0  0  0  0  0  0  0  0  0  0  0  0
   -3.7801   46.5066   42.1135 C   0  0  0  0  0  0  0  0  0  0  0  0
   -2.4102   46.3933   42.1108 N   0  0  0  0  0  0  0  0  0  0  0  0
   -4.0175   47.8193   41.7674 C   0  0  0  0  0  0  0  0  0  0  0  0
   -1.8951   47.6039   41.7485 C   0  0  0  0  0  0  0  0  0  0  0  0
   -2.8430   48.4883   41.5365 N   0  0  0  0  0  0  0  0  0  0  0  0
   -1.8858   45.5421   42.2869 H   0  0  0  0  0  0  0  0  0  0  0  0
  1  2  2  0  0  0  0
  1  3  1  0  0  0  0
  2  4  1  0  0  0  0
  3  5  2  0  0  0  0
  4 28  1  0  0  0  0
  4  6  2  0  0  0  0
  5  7  1  0  0  0  0
  5  6  1  0  0  0  0
  6  8  1  0  0  0  0
  7  9  1  0  0  0  0
  7 10  1  0  0  0  0
  8  9  2  0  0  0  0
 11  1  1  0  0  0  0
 11 12  1  0  0  0  0
 13 14  2  0  0  0  0
 13 15  1  0  0  0  0
 14 16  1  0  0  0  0
 15 17  2  0  0  0  0
 16 11  1  0  0  0  0
 16 18  2  0  0  0  0
 17 18  1  0  0  0  0
 19 20  2  0  0  0  0
 20 21  1  0  0  0  0
 20 22  1  0  0  0  0
 21 23  1  0  0  0  0
 21 24  1  0  0  0  0
 22 13  1  0  0  0  0
 22 27  1  0  0  0  0
 23 25  1  0  0  0  0
 24 26  1  0  0  0  0
 25 26  1  0  0  0  0
 28 30  1  0  0  0  0
 28 29  1  0  0  0  0
 30 31  1  0  0  0  0
 31 32  1  0  0  0  0
 32 33  1  0  0  0  0
 32 34  2  0  0  0  0
 33 35  1  0  0  0  0
 33 37  1  0  0  0  0
 34 36  1  0  0  0  0
 35 36  2  0  0  0  0
M  END
