EL2003A-A2U1


 38 42  0  0  0  0  0  0  0  0999 V2000
   -6.2339   40.9904   44.8085 C   0  0  0  0  0  0  0  0  0  0  0  0
   -6.1350   39.7623   45.3647 N   0  0  0  0  0  0  0  0  0  0  0  0
   -5.2000   41.7967   44.4856 N   0  0  0  0  0  0  0  0  0  0  0  0
   -4.9171   39.2064   45.5933 C   0  0  0  0  0  0  0  0  0  0  0  0
   -4.0202   41.2334   44.7688 C   0  0  0  0  0  0  0  0  0  0  0  0
   -3.7853   39.9855   45.3085 C   0  0  0  0  0  0  0  0  0  0  0  0
   -2.7826   41.7703   44.5657 N   0  0  0  0  0  0  0  0  0  0  0  0
   -2.4282   39.7553   45.4404 N   0  0  0  0  0  0  0  0  0  0  0  0
   -1.8589   40.8497   44.9813 C   0  0  0  0  0  0  0  0  0  0  0  0
   -2.5990   42.6792   44.1701 H   0  0  0  0  0  0  0  0  0  0  0  0
   -7.4947   41.5014   44.4596 N   0  0  0  0  0  0  0  0  0  0  0  0
   -8.1504   41.1026   45.1177 H   0  0  0  0  0  0  0  0  0  0  0  0
   -6.9723   45.1017   43.6769 C   0  0  0  0  0  0  0  0  0  0  0  0
   -8.2329   45.4625   43.1645 C   0  0  0  0  0  0  0  0  0  0  0  0
   -6.7698   43.7981   44.1541 C   0  0  0  0  0  0  0  0  0  0  0  0
   -9.2282   44.4784   43.0611 C   0  0  0  0  0  0  0  0  0  0  0  0
   -8.5388   46.8495   42.6713 C   0  0  0  0  0  0  0  0  0  0  0  0
   -7.7662   42.8194   44.0577 C   0  0  0  0  0  0  0  0  0  0  0  0
   -8.9871   43.1692   43.4815 C   0  0  0  0  0  0  0  0  0  0  0  0
   -4.6476   45.3203   41.9416 O   0  0  0  0  0  0  0  0  0  0  0  0
   -4.8151   46.0641   42.9077 C   0  0  0  0  0  0  0  0  0  0  0  0
   -3.8808   47.0176   43.2520 N   0  0  0  0  0  0  0  0  0  0  0  0
   -5.9325   46.0598   43.7136 N   0  0  0  0  0  0  0  0  0  0  0  0
   -3.8525   47.8423   44.4518 C   0  0  0  0  0  0  0  0  0  0  0  0
   -2.6598   47.1742   42.4805 C   0  0  0  0  0  0  0  0  0  0  0  0
   -2.4240   48.3644   44.5248 C   0  0  0  0  0  0  0  0  0  0  0  0
   -2.0031   48.4168   43.0617 C   0  0  0  0  0  0  0  0  0  0  0  0
   -6.1578   46.9576   44.1092 H   0  0  0  0  0  0  0  0  0  0  0  0
   -4.7997   37.9014   46.0952 N   0  0  0  0  0  0  0  0  0  0  0  0
   -5.7401   37.5268   46.2220 H   0  0  0  0  0  0  0  0  0  0  0  0
   -3.9433   37.7764   47.2767 C   0  0  0  0  0  0  0  0  0  0  0  0
   -2.9486   36.6084   47.1979 C   0  0  0  0  0  0  0  0  0  0  0  0
   -3.5180   35.2774   47.5538 C   0  0  0  0  0  0  0  0  0  0  0  0
   -4.7718   35.1688   48.1151 N   0  0  0  0  0  0  0  0  0  0  0  0
   -2.9691   34.0247   47.3770 C   0  0  0  0  0  0  0  0  0  0  0  0
   -4.9557   33.8832   48.3142 C   0  0  0  0  0  0  0  0  0  0  0  0
   -3.8885   33.1482   47.8844 N   0  0  0  0  0  0  0  0  0  0  0  0
   -3.7916   32.1378   47.9510 H   0  0  0  0  0  0  0  0  0  0  0  0
 20 21  2  0
 21 22  1  0
 21 23  1  0
 22 24  1  0
 22 25  1  0
 23 13  1  0
 24 26  1  0
 25 27  1  0
 13 14  2  0
 13 15  1  0
 14 16  1  0
 14 17  1  0
 15 18  2  0
 16 19  2  0
 18 11  1  0
 11  1  1  0
  1  2  2  0
  1  3  1  0
  2  4  1  0
  3  5  2  0
  4 29  1  0
  4  6  2  0
  5  7  1  0
 29 31  1  0
  6  8  1  0
  7  9  1  0
 31 32  1  0
 32 33  1  0
 33 34  1  0
 33 35  2  0
 34 36  2  0
 35 37  1  0
 26 27  1  0
 18 19  1  0
  5  6  1  0
  8  9  2  0
 36 37  1  0
 23 28  1  0
 11 12  1  0
 29 30  1  0
  7 10  1  0
 37 38  1  0
M  END
> <Molecule Name>
EL2003A-A2U1

> <Name>
EL2003A-A2U1

> <pIC50 PDK>
7.6

> <selection>
Y

> <MMFF94_energy_kcal_mol>
-80.5413

> <Note>
No stereocenters; achiral molecule

> <minimizedAffinity>
-9.33293

> <CNNscore>
0.4966093004

> <CNNaffinity>
7.0252957344

> <CNN_VS>
3.4888272285

> <CNNaffinity_variance>
0.3444998264
$$$$
