EL2003A-A4U1


 41 45  0  0  0  0  0  0  0  0999 V2000
   -6.6317   40.3190   44.8644 N   0  0  0  0  0  0  0  0  0  0  0  0
   -7.4580   39.7522   44.7347 H   0  0  0  0  0  0  0  0  0  0  0  0
   -6.8649   41.5923   44.3463 C   0  0  0  0  0  0  0  0  0  0  0  0
   -5.8474   42.4619   44.1579 N   0  0  0  0  0  0  0  0  0  0  0  0
   -8.1644   41.8499   44.0915 N   0  0  0  0  0  0  0  0  0  0  0  0
   -6.0755   43.7072   43.6613 C   0  0  0  0  0  0  0  0  0  0  0  0
   -8.3550   43.0830   43.6124 C   0  0  0  0  0  0  0  0  0  0  0  0
   -7.4045   44.0536   43.3731 C   0  0  0  0  0  0  0  0  0  0  0  0
   -9.5434   43.6513   43.2575 N   0  0  0  0  0  0  0  0  0  0  0  0
   -7.9964   45.2110   42.9029 N   0  0  0  0  0  0  0  0  0  0  0  0
   -9.2805   44.9274   42.8377 C   0  0  0  0  0  0  0  0  0  0  0  0
  -10.4437   43.1987   43.3042 H   0  0  0  0  0  0  0  0  0  0  0  0
   -5.0237   44.6026   43.4541 N   0  0  0  0  0  0  0  0  0  0  0  0
   -4.8338   44.6992   42.4571 H   0  0  0  0  0  0  0  0  0  0  0  0
   -5.0946   45.8746   44.1739 C   0  0  0  0  0  0  0  0  0  0  0  0
   -4.7792   47.0919   43.2965 C   0  0  0  0  0  0  0  0  0  0  0  0
   -4.9622   48.3848   44.0145 C   0  0  0  0  0  0  0  0  0  0  0  0
   -4.4520   48.5655   45.2798 N   0  0  0  0  0  0  0  0  0  0  0  0
   -5.6019   49.5310   43.5917 C   0  0  0  0  0  0  0  0  0  0  0  0
   -4.7723   49.7934   45.6158 C   0  0  0  0  0  0  0  0  0  0  0  0
   -5.4690   50.4186   44.6221 N   0  0  0  0  0  0  0  0  0  0  0  0
   -5.8173   51.3668   44.6477 H   0  0  0  0  0  0  0  0  0  0  0  0
   -3.1823   38.5260   46.5528 C   0  0  0  0  0  0  0  0  0  0  0  0
   -3.1147   39.8065   45.9728 C   0  0  0  0  0  0  0  0  0  0  0  0
   -4.4153   37.8462   46.5628 C   0  0  0  0  0  0  0  0  0  0  0  0
   -4.2890   40.3622   45.4360 C   0  0  0  0  0  0  0  0  0  0  0  0
   -5.5646   38.4199   46.0158 C   0  0  0  0  0  0  0  0  0  0  0  0
   -5.5261   39.6894   45.4474 C   0  0  0  0  0  0  0  0  0  0  0  0
   -1.8823   40.5056   45.9608 N   0  0  0  0  0  0  0  0  0  0  0  0
   -0.8238   40.3764   45.0882 C   0  0  0  0  0  0  0  0  0  0  0  0
   -0.7437   39.5493   44.1846 O   0  0  0  0  0  0  0  0  0  0  0  0
    0.1990   41.2799   45.3107 N   0  0  0  0  0  0  0  0  0  0  0  0
    1.4047   41.2354   44.5002 C   0  0  0  0  0  0  0  0  0  0  0  0
    0.2346   42.4043   46.2368 C   0  0  0  0  0  0  0  0  0  0  0  0
    2.3684   42.1812   45.2003 C   0  0  0  0  0  0  0  0  0  0  0  0
    1.4374   43.2276   45.7971 C   0  0  0  0  0  0  0  0  0  0  0  0
   -1.7030   41.1178   46.7438 H   0  0  0  0  0  0  0  0  0  0  0  0
   -1.2803   38.6156   47.9972 F   0  0  0  0  0  0  0  0  0  0  0  0
   -2.0037   37.8141   47.1658 C   0  0  0  0  0  0  0  0  0  0  0  0
   -1.1039   37.3302   46.2574 F   0  0  0  0  0  0  0  0  0  0  0  0
   -2.3737   36.7387   47.9159 F   0  0  0  0  0  0  0  0  0  0  0  0
 38 39  1  0
 39 40  1  0
 39 41  1  0
 39 23  1  0
 23 24  2  0
 23 25  1  0
 24 29  1  0
 24 26  1  0
 25 27  2  0
 29 30  1  0
 26 28  2  0
 30 31  2  0
 30 32  1  0
 28  1  1  0
 32 33  1  0
 32 34  1  0
  1  3  1  0
 33 35  1  0
 34 36  1  0
  3  4  2  0
  3  5  1  0
  4  6  1  0
  5  7  2  0
  6 13  1  0
  6  8  2  0
  7  9  1  0
 13 15  1  0
  8 10  1  0
  9 11  1  0
 15 16  1  0
 16 17  1  0
 17 18  1  0
 17 19  2  0
 18 20  2  0
 19 21  1  0
 27 28  1  0
 35 36  1  0
  7  8  1  0
 10 11  2  0
 20 21  1  0
 29 37  1  0
  1  2  1  0
 13 14  1  0
  9 12  1  0
 21 22  1  0
M  END
> <Molecule Name>
EL2003A-A4U1

> <Name>
EL2003A-A4U1

> <pIC50 PDK>
7.3

> <selection>
Y

> <MMFF94_energy_kcal_mol>
-61.7183

> <Note>
No stereocenters; achiral molecule

> <minimizedAffinity>
-9.31459

> <CNNscore>
0.9549092054

> <CNNaffinity>
8.0315933228

> <CNN_VS>
7.6694421768

> <CNNaffinity_variance>
0.1075792536
$$$$
EL2003A-A4U1


 41 45  0  0  0  0  0  0  0  0999 V2000
   -6.5996   40.0160   44.8152 N   0  0  0  0  0  0  0  0  0  0  0  0
   -7.2894   39.3606   44.4751 H   0  0  0  0  0  0  0  0  0  0  0  0
   -6.9867   41.3092   44.4663 C   0  0  0  0  0  0  0  0  0  0  0  0
   -6.2050   42.3713   44.7628 N   0  0  0  0  0  0  0  0  0  0  0  0
   -8.1854   41.3744   43.8509 N   0  0  0  0  0  0  0  0  0  0  0  0
   -6.5865   43.6338   44.4310 C   0  0  0  0  0  0  0  0  0  0  0  0
   -8.5340   42.6281   43.5456 C   0  0  0  0  0  0  0  0  0  0  0  0
   -7.8253   43.7862   43.7896 C   0  0  0  0  0  0  0  0  0  0  0  0
   -9.6786   43.0338   42.9240 N   0  0  0  0  0  0  0  0  0  0  0  0
   -8.5299   44.8914   43.3502 N   0  0  0  0  0  0  0  0  0  0  0  0
   -9.6334   44.3985   42.8276 C   0  0  0  0  0  0  0  0  0  0  0  0
  -10.4152   42.4244   42.6018 H   0  0  0  0  0  0  0  0  0  0  0  0
   -5.7741   44.7313   44.7253 N   0  0  0  0  0  0  0  0  0  0  0  0
   -5.0022   44.4474   45.3277 H   0  0  0  0  0  0  0  0  0  0  0  0
   -5.3721   45.5705   43.5960 C   0  0  0  0  0  0  0  0  0  0  0  0
   -4.0219   45.1721   42.9884 C   0  0  0  0  0  0  0  0  0  0  0  0
   -3.3712   46.2873   42.2444 C   0  0  0  0  0  0  0  0  0  0  0  0
   -2.0721   46.6510   42.5162 N   0  0  0  0  0  0  0  0  0  0  0  0
   -3.8868   47.0800   41.2407 C   0  0  0  0  0  0  0  0  0  0  0  0
   -1.8048   47.6395   41.6948 C   0  0  0  0  0  0  0  0  0  0  0  0
   -2.8754   47.9335   40.9003 N   0  0  0  0  0  0  0  0  0  0  0  0
   -2.9071   48.6503   40.1889 H   0  0  0  0  0  0  0  0  0  0  0  0
   -3.1199   38.4773   46.6828 C   0  0  0  0  0  0  0  0  0  0  0  0
   -3.0866   39.7131   46.0100 C   0  0  0  0  0  0  0  0  0  0  0  0
   -4.3285   37.7565   46.7254 C   0  0  0  0  0  0  0  0  0  0  0  0
   -4.2700   40.1851   45.4161 C   0  0  0  0  0  0  0  0  0  0  0  0
   -5.4874   38.2466   46.1205 C   0  0  0  0  0  0  0  0  0  0  0  0
   -5.4831   39.4712   45.4596 C   0  0  0  0  0  0  0  0  0  0  0  0
   -1.8790   40.4529   45.9638 N   0  0  0  0  0  0  0  0  0  0  0  0
   -0.8166   40.3202   45.0966 C   0  0  0  0  0  0  0  0  0  0  0  0
   -0.7079   39.4555   44.2319 O   0  0  0  0  0  0  0  0  0  0  0  0
    0.1743   41.2678   45.2756 N   0  0  0  0  0  0  0  0  0  0  0  0
    1.3808   41.2276   44.4662 C   0  0  0  0  0  0  0  0  0  0  0  0
    0.1709   42.4343   46.1488 C   0  0  0  0  0  0  0  0  0  0  0  0
    2.3113   42.2374   45.1205 C   0  0  0  0  0  0  0  0  0  0  0  0
    1.3446   43.2774   45.6698 C   0  0  0  0  0  0  0  0  0  0  0  0
   -1.7211   41.1065   46.7175 H   0  0  0  0  0  0  0  0  0  0  0  0
   -2.2565   36.7519   48.0934 F   0  0  0  0  0  0  0  0  0  0  0  0
   -1.9281   37.8554   47.3643 C   0  0  0  0  0  0  0  0  0  0  0  0
   -1.2822   38.6859   48.2373 F   0  0  0  0  0  0  0  0  0  0  0  0
   -0.9743   37.4466   46.4816 F   0  0  0  0  0  0  0  0  0  0  0  0
 38 39  1  0
 39 40  1  0
 39 41  1  0
 39 23  1  0
 23 24  2  0
 23 25  1  0
 24 29  1  0
 24 26  1  0
 25 27  2  0
 29 30  1  0
 26 28  2  0
 30 31  2  0
 30 32  1  0
 28  1  1  0
 32 33  1  0
 32 34  1  0
  1  3  1  0
 33 35  1  0
 34 36  1  0
  3  4  2  0
  3  5  1  0
  4  6  1  0
  5  7  2  0
  6 13  1  0
  6  8  2  0
  7  9  1  0
 13 15  1  0
  8 10  1  0
  9 11  1  0
 15 16  1  0
 16 17  1  0
 17 18  1  0
 17 19  2  0
 18 20  2  0
 19 21  1  0
 27 28  1  0
 35 36  1  0
  7  8  1  0
 10 11  2  0
 20 21  1  0
 29 37  1  0
  1  2  1  0
 13 14  1  0
  9 12  1  0
 21 22  1  0
M  END
> <Molecule Name>
EL2003A-A4U1

> <Name>
EL2003A-A4U1

> <pIC50 PDK>
7.3

> <selection>
Y

> <MMFF94_energy_kcal_mol>
-61.7183

> <Note>
No stereocenters; achiral molecule

> <minimizedAffinity>
-9.80193

> <CNNscore>
0.9429221153

> <CNNaffinity>
7.7598137856

> <CNN_VS>
7.3169002533

> <CNNaffinity_variance>
0.6359955668
$$$$
EL2003A-A4U1


 41 45  0  0  0  0  0  0  0  0999 V2000
   -6.3183   40.6643   45.0711 N   0  0  0  0  0  0  0  0  0  0  0  0
   -7.0859   40.0452   45.2910 H   0  0  0  0  0  0  0  0  0  0  0  0
   -6.8249   41.8504   44.5415 C   0  0  0  0  0  0  0  0  0  0  0  0
   -6.1129   42.9977   44.6028 N   0  0  0  0  0  0  0  0  0  0  0  0
   -8.0588   41.7292   44.0097 N   0  0  0  0  0  0  0  0  0  0  0  0
   -6.6105   44.1568   44.0947 C   0  0  0  0  0  0  0  0  0  0  0  0
   -8.5215   42.8864   43.5268 C   0  0  0  0  0  0  0  0  0  0  0  0
   -7.8925   44.1142   43.5257 C   0  0  0  0  0  0  0  0  0  0  0  0
   -9.7284   43.1026   42.9287 N   0  0  0  0  0  0  0  0  0  0  0  0
   -8.7058   45.0787   42.9605 N   0  0  0  0  0  0  0  0  0  0  0  0
   -9.7958   44.4310   42.6054 C   0  0  0  0  0  0  0  0  0  0  0  0
  -10.4325   42.3992   42.7643 H   0  0  0  0  0  0  0  0  0  0  0  0
   -5.8708   45.3406   44.1458 N   0  0  0  0  0  0  0  0  0  0  0  0
   -5.0371   45.2112   44.7182 H   0  0  0  0  0  0  0  0  0  0  0  0
   -5.6203   46.0123   42.8702 C   0  0  0  0  0  0  0  0  0  0  0  0
   -6.1785   47.4392   42.8108 C   0  0  0  0  0  0  0  0  0  0  0  0
   -5.1433   48.4504   42.4549 C   0  0  0  0  0  0  0  0  0  0  0  0
   -3.8644   48.0626   42.1267 N   0  0  0  0  0  0  0  0  0  0  0  0
   -5.2569   49.8229   42.3843 C   0  0  0  0  0  0  0  0  0  0  0  0
   -3.2177   49.1737   41.8607 C   0  0  0  0  0  0  0  0  0  0  0  0
   -4.0227   50.2673   42.0018 N   0  0  0  0  0  0  0  0  0  0  0  0
   -3.7509   51.2280   41.8465 H   0  0  0  0  0  0  0  0  0  0  0  0
   -2.4841   39.0311   45.8426 C   0  0  0  0  0  0  0  0  0  0  0  0
   -3.6459   38.2644   46.0503 C   0  0  0  0  0  0  0  0  0  0  0  0
   -2.6139   40.3528   45.3750 C   0  0  0  0  0  0  0  0  0  0  0  0
   -4.8934   38.8480   45.7694 C   0  0  0  0  0  0  0  0  0  0  0  0
   -3.8668   40.9091   45.1107 C   0  0  0  0  0  0  0  0  0  0  0  0
   -5.0294   40.1677   45.2968 C   0  0  0  0  0  0  0  0  0  0  0  0
   -3.5309   36.9306   46.5147 N   0  0  0  0  0  0  0  0  0  0  0  0
   -4.3148   36.2637   47.4307 C   0  0  0  0  0  0  0  0  0  0  0  0
   -5.2353   36.7597   48.0741 O   0  0  0  0  0  0  0  0  0  0  0  0
   -3.9772   34.9327   47.5931 N   0  0  0  0  0  0  0  0  0  0  0  0
   -4.6841   34.1107   48.5611 C   0  0  0  0  0  0  0  0  0  0  0  0
   -3.0148   34.1395   46.8395 C   0  0  0  0  0  0  0  0  0  0  0  0
   -3.8744   32.8250   48.6313 C   0  0  0  0  0  0  0  0  0  0  0  0
   -3.3240   32.6975   47.2176 C   0  0  0  0  0  0  0  0  0  0  0  0
   -2.7157   36.4163   46.2127 H   0  0  0  0  0  0  0  0  0  0  0  0
   -0.1344   39.4684   45.8301 F   0  0  0  0  0  0  0  0  0  0  0  0
   -1.0858   38.5308   46.1000 C   0  0  0  0  0  0  0  0  0  0  0  0
   -0.7345   37.4364   45.3599 F   0  0  0  0  0  0  0  0  0  0  0  0
   -0.8905   38.1670   47.3983 F   0  0  0  0  0  0  0  0  0  0  0  0
 38 39  1  0
 39 40  1  0
 39 41  1  0
 39 23  1  0
 23 24  2  0
 23 25  1  0
 24 29  1  0
 24 26  1  0
 25 27  2  0
 29 30  1  0
 26 28  2  0
 30 31  2  0
 30 32  1  0
 28  1  1  0
 32 33  1  0
 32 34  1  0
  1  3  1  0
 33 35  1  0
 34 36  1  0
  3  4  2  0
  3  5  1  0
  4  6  1  0
  5  7  2  0
  6 13  1  0
  6  8  2  0
  7  9  1  0
 13 15  1  0
  8 10  1  0
  9 11  1  0
 15 16  1  0
 16 17  1  0
 17 18  1  0
 17 19  2  0
 18 20  2  0
 19 21  1  0
 27 28  1  0
 35 36  1  0
  7  8  1  0
 10 11  2  0
 20 21  1  0
 29 37  1  0
  1  2  1  0
 13 14  1  0
  9 12  1  0
 21 22  1  0
M  END
> <Molecule Name>
EL2003A-A4U1

> <Name>
EL2003A-A4U1

> <pIC50 PDK>
7.3

> <selection>
Y

> <MMFF94_energy_kcal_mol>
-61.7183

> <Note>
No stereocenters; achiral molecule

> <minimizedAffinity>
-8.94159

> <CNNscore>
0.9352845550

> <CNNaffinity>
7.7143683434

> <CNN_VS>
7.2151293755

> <CNNaffinity_variance>
0.2234843224
$$$$
EL2003A-A4U1


 41 45  0  0  0  0  0  0  0  0999 V2000
   -5.7321   41.8417   44.9704 N   0  0  0  0  0  0  0  0  0  0  0  0
   -6.3692   41.3759   45.6013 H   0  0  0  0  0  0  0  0  0  0  0  0
   -6.4229   42.8305   44.2710 C   0  0  0  0  0  0  0  0  0  0  0  0
   -5.7960   43.9544   43.8576 N   0  0  0  0  0  0  0  0  0  0  0  0
   -7.7312   42.5579   44.0867 N   0  0  0  0  0  0  0  0  0  0  0  0
   -6.4715   44.9233   43.1834 C   0  0  0  0  0  0  0  0  0  0  0  0
   -8.3670   43.5322   43.4287 C   0  0  0  0  0  0  0  0  0  0  0  0
   -7.8402   44.7156   42.9541 C   0  0  0  0  0  0  0  0  0  0  0  0
   -9.6869   43.5655   43.0855 N   0  0  0  0  0  0  0  0  0  0  0  0
   -8.8218   45.4795   42.3508 N   0  0  0  0  0  0  0  0  0  0  0  0
   -9.9150   44.7512   42.4408 C   0  0  0  0  0  0  0  0  0  0  0  0
  -10.3592   42.8393   43.2812 H   0  0  0  0  0  0  0  0  0  0  0  0
   -5.8225   46.0797   42.7443 N   0  0  0  0  0  0  0  0  0  0  0  0
   -5.4168   45.9276   41.8214 H   0  0  0  0  0  0  0  0  0  0  0  0
   -6.5634   47.3351   42.8709 C   0  0  0  0  0  0  0  0  0  0  0  0
   -6.1880   48.3762   41.8096 C   0  0  0  0  0  0  0  0  0  0  0  0
   -5.3034   49.4509   42.3417 C   0  0  0  0  0  0  0  0  0  0  0  0
   -5.7542   50.7471   42.4441 N   0  0  0  0  0  0  0  0  0  0  0  0
   -4.0038   49.3623   42.7945 C   0  0  0  0  0  0  0  0  0  0  0  0
   -4.7525   51.4286   42.9496 C   0  0  0  0  0  0  0  0  0  0  0  0
   -3.6697   50.6298   43.1804 N   0  0  0  0  0  0  0  0  0  0  0  0
   -2.7857   50.9266   43.5698 H   0  0  0  0  0  0  0  0  0  0  0  0
   -1.7871   40.2930   45.0143 C   0  0  0  0  0  0  0  0  0  0  0  0
   -2.7827   39.7447   45.8442 C   0  0  0  0  0  0  0  0  0  0  0  0
   -2.1206   41.3676   44.1679 C   0  0  0  0  0  0  0  0  0  0  0  0
   -4.0783   40.2866   45.7848 C   0  0  0  0  0  0  0  0  0  0  0  0
   -3.4147   41.8904   44.1347 C   0  0  0  0  0  0  0  0  0  0  0  0
   -4.4193   41.3579   44.9368 C   0  0  0  0  0  0  0  0  0  0  0  0
   -2.4637   38.6589   46.6970 N   0  0  0  0  0  0  0  0  0  0  0  0
   -2.6869   37.3132   46.5032 C   0  0  0  0  0  0  0  0  0  0  0  0
   -3.2886   36.8215   45.5529 O   0  0  0  0  0  0  0  0  0  0  0  0
   -2.1693   36.5100   47.5028 N   0  0  0  0  0  0  0  0  0  0  0  0
   -2.3670   35.0707   47.4616 C   0  0  0  0  0  0  0  0  0  0  0  0
   -1.3256   36.8884   48.6289 C   0  0  0  0  0  0  0  0  0  0  0  0
   -1.8968   34.5834   48.8236 C   0  0  0  0  0  0  0  0  0  0  0  0
   -0.7896   35.5697   49.1689 C   0  0  0  0  0  0  0  0  0  0  0  0
   -2.1084   38.8937   47.6128 H   0  0  0  0  0  0  0  0  0  0  0  0
   -0.2478   38.5468   44.4726 F   0  0  0  0  0  0  0  0  0  0  0  0
   -0.3604   39.8086   44.9749 C   0  0  0  0  0  0  0  0  0  0  0  0
    0.2539   39.7675   46.1955 F   0  0  0  0  0  0  0  0  0  0  0  0
    0.4370   40.5910   44.1952 F   0  0  0  0  0  0  0  0  0  0  0  0
 38 39  1  0
 39 40  1  0
 39 41  1  0
 39 23  1  0
 23 24  2  0
 23 25  1  0
 24 29  1  0
 24 26  1  0
 25 27  2  0
 29 30  1  0
 26 28  2  0
 30 31  2  0
 30 32  1  0
 28  1  1  0
 32 33  1  0
 32 34  1  0
  1  3  1  0
 33 35  1  0
 34 36  1  0
  3  4  2  0
  3  5  1  0
  4  6  1  0
  5  7  2  0
  6 13  1  0
  6  8  2  0
  7  9  1  0
 13 15  1  0
  8 10  1  0
  9 11  1  0
 15 16  1  0
 16 17  1  0
 17 18  1  0
 17 19  2  0
 18 20  2  0
 19 21  1  0
 27 28  1  0
 35 36  1  0
  7  8  1  0
 10 11  2  0
 20 21  1  0
 29 37  1  0
  1  2  1  0
 13 14  1  0
  9 12  1  0
 21 22  1  0
M  END
> <Molecule Name>
EL2003A-A4U1

> <Name>
EL2003A-A4U1

> <pIC50 PDK>
7.3

> <selection>
Y

> <MMFF94_energy_kcal_mol>
-61.7183

> <Note>
No stereocenters; achiral molecule

> <minimizedAffinity>
-8.67685

> <CNNscore>
0.4979984164

> <CNNaffinity>
7.1444835663

> <CNN_VS>
3.5579414368

> <CNNaffinity_variance>
0.1148083806
$$$$
EL2003A-A4U1


 41 45  0  0  0  0  0  0  0  0999 V2000
   -7.0365   42.1424   44.3775 N   0  0  0  0  0  0  0  0  0  0  0  0
   -7.8940   41.6419   44.5647 H   0  0  0  0  0  0  0  0  0  0  0  0
   -5.9520   41.3314   44.7093 C   0  0  0  0  0  0  0  0  0  0  0  0
   -6.1353   40.0431   45.0751 N   0  0  0  0  0  0  0  0  0  0  0  0
   -4.7599   41.9601   44.6496 N   0  0  0  0  0  0  0  0  0  0  0  0
   -5.0786   39.2543   45.4078 C   0  0  0  0  0  0  0  0  0  0  0  0
   -3.7444   41.1604   44.9895 C   0  0  0  0  0  0  0  0  0  0  0  0
   -3.8024   39.8367   45.3734 C   0  0  0  0  0  0  0  0  0  0  0  0
   -2.4207   41.4874   45.0327 N   0  0  0  0  0  0  0  0  0  0  0  0
   -2.5400   39.3599   45.6739 N   0  0  0  0  0  0  0  0  0  0  0  0
   -1.7356   40.3776   45.4479 C   0  0  0  0  0  0  0  0  0  0  0  0
   -2.0346   42.3897   44.7992 H   0  0  0  0  0  0  0  0  0  0  0  0
   -5.2649   37.9192   45.7737 N   0  0  0  0  0  0  0  0  0  0  0  0
   -4.9780   37.3020   45.0147 H   0  0  0  0  0  0  0  0  0  0  0  0
   -4.7588   37.5233   47.0884 C   0  0  0  0  0  0  0  0  0  0  0  0
   -3.5887   36.5347   47.0205 C   0  0  0  0  0  0  0  0  0  0  0  0
   -3.9045   35.2213   47.6498 C   0  0  0  0  0  0  0  0  0  0  0  0
   -5.0148   35.0729   48.4493 N   0  0  0  0  0  0  0  0  0  0  0  0
   -3.2232   34.0261   47.5557 C   0  0  0  0  0  0  0  0  0  0  0  0
   -5.0087   33.8163   48.8292 C   0  0  0  0  0  0  0  0  0  0  0  0
   -3.9414   33.1416   48.3101 N   0  0  0  0  0  0  0  0  0  0  0  0
   -3.7284   32.1649   48.4571 H   0  0  0  0  0  0  0  0  0  0  0  0
   -7.2708   46.1493   43.0159 C   0  0  0  0  0  0  0  0  0  0  0  0
   -6.0238   45.5528   43.2803 C   0  0  0  0  0  0  0  0  0  0  0  0
   -8.4430   45.3945   43.2122 C   0  0  0  0  0  0  0  0  0  0  0  0
   -5.9989   44.2178   43.7197 C   0  0  0  0  0  0  0  0  0  0  0  0
   -8.3886   44.0720   43.6563 C   0  0  0  0  0  0  0  0  0  0  0  0
   -7.1675   43.4562   43.9131 C   0  0  0  0  0  0  0  0  0  0  0  0
   -4.8350   46.2979   43.0815 N   0  0  0  0  0  0  0  0  0  0  0  0
   -4.1763   47.1261   43.9638 C   0  0  0  0  0  0  0  0  0  0  0  0
   -4.5679   47.4222   45.0891 O   0  0  0  0  0  0  0  0  0  0  0  0
   -2.9877   47.6349   43.4735 N   0  0  0  0  0  0  0  0  0  0  0  0
   -2.2036   48.5626   44.2717 C   0  0  0  0  0  0  0  0  0  0  0  0
   -2.3003   47.3056   42.2317 C   0  0  0  0  0  0  0  0  0  0  0  0
   -1.1418   49.0834   43.3153 C   0  0  0  0  0  0  0  0  0  0  0  0
   -0.9054   47.8931   42.3960 C   0  0  0  0  0  0  0  0  0  0  0  0
   -4.4588   46.3058   42.1442 H   0  0  0  0  0  0  0  0  0  0  0  0
   -6.7773   47.8160   41.3755 F   0  0  0  0  0  0  0  0  0  0  0  0
   -7.4430   47.5685   42.5386 C   0  0  0  0  0  0  0  0  0  0  0  0
   -6.9980   48.5159   43.4180 F   0  0  0  0  0  0  0  0  0  0  0  0
   -8.7456   47.8848   42.2952 F   0  0  0  0  0  0  0  0  0  0  0  0
 38 39  1  0
 39 40  1  0
 39 41  1  0
 39 23  1  0
 23 24  2  0
 23 25  1  0
 24 29  1  0
 24 26  1  0
 25 27  2  0
 29 30  1  0
 26 28  2  0
 30 31  2  0
 30 32  1  0
 28  1  1  0
 32 33  1  0
 32 34  1  0
  1  3  1  0
 33 35  1  0
 34 36  1  0
  3  4  2  0
  3  5  1  0
  4  6  1  0
  5  7  2  0
  6 13  1  0
  6  8  2  0
  7  9  1  0
 13 15  1  0
  8 10  1  0
  9 11  1  0
 15 16  1  0
 16 17  1  0
 17 18  1  0
 17 19  2  0
 18 20  2  0
 19 21  1  0
 27 28  1  0
 35 36  1  0
  7  8  1  0
 10 11  2  0
 20 21  1  0
 29 37  1  0
  1  2  1  0
 13 14  1  0
  9 12  1  0
 21 22  1  0
M  END
> <Molecule Name>
EL2003A-A4U1

> <Name>
EL2003A-A4U1

> <pIC50 PDK>
7.3

> <selection>
Y

> <MMFF94_energy_kcal_mol>
-61.7183

> <Note>
No stereocenters; achiral molecule

> <minimizedAffinity>
-9.20286

> <CNNscore>
0.4920539558

> <CNNaffinity>
7.1838550568

> <CNN_VS>
3.5348443985

> <CNNaffinity_variance>
0.2038888484
$$$$
