Compound_10_ent1
     RDKit          3D

 37 40  0  0  0  0  0  0  0  0999 V2000
   83.8035  149.5555   16.3003 C   0  0  0  0  0  0  0  0  0  0  0  0
   81.9134  149.6110   18.1662 S   0  0  0  0  0  0  0  0  0  0  0  0
   82.0828  148.4717   19.1442 O   0  0  0  0  0  0  0  0  0  0  0  0
   82.7972  150.7360   18.7057 O   0  0  0  0  0  0  0  0  0  0  0  0
   82.4902  149.1637   16.6560 N   0  0  0  0  0  0  0  0  0  0  0  0
   80.2447  150.1361   18.2487 C   0  0  0  0  0  0  0  0  0  0  0  0
   81.5720  148.8725   15.6260 C   0  0  0  0  0  0  0  0  0  0  0  0
   79.3144  149.4457   17.2977 C   0  0  0  0  0  0  0  0  0  0  0  0
   80.6780  150.0194   15.2074 C   0  0  0  0  0  0  0  0  0  0  0  0
   79.4473  149.9259   15.9438 N   0  0  0  0  0  0  0  0  0  0  0  0
   78.2925  150.3533   15.2460 C   0  0  0  0  0  0  0  0  0  0  0  0
   78.4016  150.7686   14.0727 O   0  0  0  0  0  0  0  0  0  0  0  0
   76.9407  150.3222   15.8737 C   0  0  0  0  0  0  0  0  0  0  0  0
   77.0076  150.3310   17.2645 O   0  0  0  0  0  0  0  0  0  0  0  0
   76.2086  151.0421   18.1332 C   0  0  0  0  0  0  0  0  0  0  0  0
   74.8790  151.3131   17.9515 C   0  0  0  0  0  0  0  0  0  0  0  0
   76.8049  151.5301   19.2994 C   0  0  0  0  0  0  0  0  0  0  0  0
   74.1710  152.0373   18.8859 C   0  0  0  0  0  0  0  0  0  0  0  0
   76.1011  152.2539   20.2351 C   0  0  0  0  0  0  0  0  0  0  0  0
   74.7630  152.5228   20.0444 C   0  0  0  0  0  0  0  0  0  0  0  0
   83.8601  150.4650   15.1263 C   0  0  0  0  0  0  0  0  0  0  0  0
   84.1226  151.8186   15.2662 C   0  0  0  0  0  0  0  0  0  0  0  0
   83.6464  149.9087   13.8835 C   0  0  0  0  0  0  0  0  0  0  0  0
   84.1829  152.6714   14.1737 C   0  0  0  0  0  0  0  0  0  0  0  0
   83.7026  150.7419   12.7863 C   0  0  0  0  0  0  0  0  0  0  0  0
   83.9650  152.0857   12.9436 C   0  0  0  0  0  0  0  0  0  0  0  0
   84.4551  154.0915   14.2928 C   0  0  0  0  0  0  0  0  0  0  0  0
   85.2242  154.4666   15.2183 O   0  0  0  0  0  0  0  0  0  0  0  0
   83.9308  155.0896   13.4580 N   0  0  0  0  0  0  0  0  0  0  0  0
   84.2063  156.5039   13.5833 C   0  0  2  0  0  0  0  0  0  0  0  0
   85.4416  156.9109   12.8835 C   0  0  0  0  0  0  0  0  0  0  0  0
   84.3914  156.8239   15.0503 C   0  0  0  0  0  0  0  0  0  0  0  0
   86.1275  156.1629   12.1408 O   0  0  0  0  0  0  0  0  0  0  0  0
   85.8646  158.2614   13.0850 N   0  0  0  0  0  0  0  0  0  0  0  0
   84.7630  158.2404   15.3182 C   0  0  0  0  0  0  0  0  0  0  0  0
   85.2350  158.9927   14.1313 C   0  0  0  0  0  0  0  0  0  0  0  0
   85.1062  160.2359   14.0070 O   0  0  0  0  0  0  0  0  0  0  0  0
  2  3  2  0
  2  4  2  0
  2  5  1  0
  2  6  1  0
  5  7  1  0
  5  1  1  0
  6  8  1  0
  7  9  1  0
  1 21  1  0
  8 10  1  0
  9 10  1  0
 21 22  4  0
 21 23  4  0
 10 11  1  0
 22 24  4  0
 23 25  4  0
 11 12  2  0
 11 13  1  0
 24 27  1  0
 24 26  4  0
 25 26  4  0
 13 14  1  0
 27 28  2  0
 27 29  1  0
 14 15  1  0
 15 16  4  0
 15 17  4  0
 30 29  1  1
 30 31  1  0
 30 32  1  0
 16 18  4  0
 17 19  4  0
 31 33  2  0
 31 34  1  0
 32 35  1  0
 18 20  4  0
 19 20  4  0
 34 36  1  0
 35 36  1  0
 36 37  2  0
M  END
>  <SMILES_stereo>  (1) 
O=C1CC[C@H](NC(=O)c2cccc(CN3CCN(C(=O)COc4ccccc4)CCS3(=O)=O)c2)C(=O)N1

>  <Docking_Affinity_kcal_mol>  (1) 
-9.47

>  <CNN_Affinity>  (1) 
6.68

>  <CNN_Pose_Score>  (1) 
0.5844

>  <N_Docking_Poses>  (1) 
5

>  <MMGBSA_dG_kcal_mol>  (1) 
-33.0223

>  <MMGBSA_dG_std>  (1) 
0.0000

>  <MMGBSA_VdW_kcal_mol>  (1) 
65832.9321

>  <MMGBSA_EEL_kcal_mol>  (1) 
-24464.9759

>  <MMGBSA_EGB_kcal_mol>  (1) 
-6191.4354

>  <MMGBSA_ESURF_kcal_mol>  (1) 
140.0776

>  <Interacting_Residues>  (1) 
GLU379, HID359, HID380, HID399, PHE404, SER381, TRP382, TRP388, TRP402, TYR357

>  <HBond_Residues>  (1) 
GLU379, HID380

>  <Hydrophobic_Residues>  (1) 
HID359, HID399, PHE404, SER381, TRP382, TRP388, TRP402, TYR357

>  <PiStacking_Residues>  (1) 
HID359, HID399, TRP382, TRP388

>  <N_Interactions>  (1) 
16

$$$$
Compound_10_ent2
     RDKit          3D

 37 40  0  0  0  0  0  0  0  0999 V2000
   81.7588  151.6231   15.2152 C   0  0  0  0  0  0  0  0  0  0  0  0
   83.3199  150.4231   13.5073 S   0  0  0  0  0  0  0  0  0  0  0  0
   83.3091  149.0527   14.1750 O   0  0  0  0  0  0  0  0  0  0  0  0
   82.1849  150.4007   12.5193 O   0  0  0  0  0  0  0  0  0  0  0  0
   83.0419  151.5930   14.6517 N   0  0  0  0  0  0  0  0  0  0  0  0
   84.8156  150.5619   12.5972 C   0  0  0  0  0  0  0  0  0  0  0  0
   84.0987  152.2891   15.2498 C   0  0  0  0  0  0  0  0  0  0  0  0
   85.9217  151.2426   13.3569 C   0  0  0  0  0  0  0  0  0  0  0  0
   84.7063  153.3176   14.2773 C   0  0  0  0  0  0  0  0  0  0  0  0
   85.6099  152.6797   13.3777 N   0  0  0  0  0  0  0  0  0  0  0  0
   86.2691  153.4493   12.4260 C   0  0  0  0  0  0  0  0  0  0  0  0
   87.0783  152.8892   11.6111 O   0  0  0  0  0  0  0  0  0  0  0  0
   86.1092  154.8955   12.2733 C   0  0  0  0  0  0  0  0  0  0  0  0
   84.9823  155.4531   12.8648 O   0  0  0  0  0  0  0  0  0  0  0  0
   84.9703  156.6570   13.5119 C   0  0  0  0  0  0  0  0  0  0  0  0
   84.6124  156.7160   14.8355 C   0  0  0  0  0  0  0  0  0  0  0  0
   85.3228  157.8170   12.8195 C   0  0  0  0  0  0  0  0  0  0  0  0
   84.6189  157.9527   15.4331 C   0  0  0  0  0  0  0  0  0  0  0  0
   85.3214  159.0435   13.4401 C   0  0  0  0  0  0  0  0  0  0  0  0
   84.9642  159.1112   14.7658 C   0  0  0  0  0  0  0  0  0  0  0  0
   81.5967  150.9858   16.5376 C   0  0  0  0  0  0  0  0  0  0  0  0
   80.3394  150.7007   17.0598 C   0  0  0  0  0  0  0  0  0  0  0  0
   82.6901  150.6455   17.3037 C   0  0  0  0  0  0  0  0  0  0  0  0
   80.1691  150.1029   18.2896 C   0  0  0  0  0  0  0  0  0  0  0  0
   82.5678  150.0450   18.5421 C   0  0  0  0  0  0  0  0  0  0  0  0
   81.3031  149.7873   19.0066 C   0  0  0  0  0  0  0  0  0  0  0  0
   78.8742  149.7906   18.8667 C   0  0  0  0  0  0  0  0  0  0  0  0
   78.6963  148.6438   19.3586 O   0  0  0  0  0  0  0  0  0  0  0  0
   77.7856  150.7009   18.9137 N   0  0  0  0  0  0  0  0  0  0  0  0
   76.5450  150.2696   19.5161 C   0  0  1  0  0  0  0  0  0  0  0  0
   76.3943  150.7868   20.8941 C   0  0  0  0  0  0  0  0  0  0  0  0
   75.3800  150.7953   18.6965 C   0  0  0  0  0  0  0  0  0  0  0  0
   76.6052  150.0278   21.8681 O   0  0  0  0  0  0  0  0  0  0  0  0
   76.0114  152.1407   21.0651 N   0  0  0  0  0  0  0  0  0  0  0  0
   75.3887  152.3078   18.6205 C   0  0  0  0  0  0  0  0  0  0  0  0
   75.5553  152.9264   19.9569 C   0  0  0  0  0  0  0  0  0  0  0  0
   75.2993  154.1354   20.1240 O   0  0  0  0  0  0  0  0  0  0  0  0
  2  3  2  0
  2  4  2  0
  2  5  1  0
  2  6  1  0
  5  7  1  0
  5  1  1  0
  6  8  1  0
  7  9  1  0
  1 21  1  0
  8 10  1  0
  9 10  1  0
 21 22  4  0
 21 23  4  0
 10 11  1  0
 22 24  4  0
 23 25  4  0
 11 12  2  0
 11 13  1  0
 24 27  1  0
 24 26  4  0
 25 26  4  0
 13 14  1  0
 27 28  2  0
 27 29  1  0
 14 15  1  0
 15 16  4  0
 15 17  4  0
 30 29  1  6
 30 31  1  0
 30 32  1  0
 16 18  4  0
 17 19  4  0
 31 33  2  0
 31 34  1  0
 32 35  1  0
 18 20  4  0
 19 20  4  0
 34 36  1  0
 35 36  1  0
 36 37  2  0
M  END
>  <SMILES_stereo>  (2) 
O=C1CC[C@@H](NC(=O)c2cccc(CN3CCN(C(=O)COc4ccccc4)CCS3(=O)=O)c2)C(=O)N1

>  <Docking_Affinity_kcal_mol>  (2) 
-10.23

>  <CNN_Affinity>  (2) 
6.215

>  <CNN_Pose_Score>  (2) 
0.2336

>  <N_Docking_Poses>  (2) 
5

>  <MMGBSA_dG_kcal_mol>  (2) 
-36.0028

>  <MMGBSA_dG_std>  (2) 
0.0000

>  <MMGBSA_VdW_kcal_mol>  (2) 
65814.0436

>  <MMGBSA_EEL_kcal_mol>  (2) 
-24475.0199

>  <MMGBSA_EGB_kcal_mol>  (2) 
-6182.5613

>  <MMGBSA_ESURF_kcal_mol>  (2) 
139.8413

>  <Interacting_Residues>  (2) 
HID355, HID359, HID380, HID399, PRO354, TRP382, TRP388, TRP402

>  <HBond_Residues>  (2) 
HID355, HID399

>  <Hydrophobic_Residues>  (2) 
HID355, HID359, HID380, HID399, PRO354, TRP388

>  <PiStacking_Residues>  (2) 
HID399, TRP382, TRP388, TRP402

>  <N_Interactions>  (2) 
16

$$$$
Compound_11_ent1
     RDKit          3D

 35 38  0  0  0  0  0  0  0  0999 V2000
   83.4061  150.2662   15.8060 C   0  0  0  0  0  0  0  0  0  0  0  0
   83.4496  149.3419   16.8018 C   0  0  0  0  0  0  0  0  0  0  0  0
   82.9460  151.5323   16.1482 C   0  0  0  0  0  0  0  0  0  0  0  0
   83.0640  149.5978   18.1067 C   0  0  0  0  0  0  0  0  0  0  0  0
   82.5542  151.8307   17.4287 C   0  0  0  0  0  0  0  0  0  0  0  0
   82.6152  150.8550   18.4092 C   0  0  0  0  0  0  0  0  0  0  0  0
   83.1460  148.5288   19.1153 C   0  0  0  0  0  0  0  0  0  0  0  0
   82.3525  147.5291   19.0328 O   0  0  0  0  0  0  0  0  0  0  0  0
   84.0438  148.5043   20.1951 N   0  0  0  0  0  0  0  0  0  0  0  0
   84.0777  147.4261   21.1649 C   0  0  2  0  0  0  0  0  0  0  0  0
   84.5093  147.9736   22.4653 C   0  0  0  0  0  0  0  0  0  0  0  0
   85.0428  146.3786   20.6592 C   0  0  0  0  0  0  0  0  0  0  0  0
   83.6734  148.2815   23.3319 O   0  0  0  0  0  0  0  0  0  0  0  0
   85.8918  148.1395   22.7031 N   0  0  0  0  0  0  0  0  0  0  0  0
   86.4658  146.8010   20.6810 C   0  0  0  0  0  0  0  0  0  0  0  0
   86.7863  147.8937   21.6252 C   0  0  0  0  0  0  0  0  0  0  0  0
   87.8213  148.6060   21.5011 O   0  0  0  0  0  0  0  0  0  0  0  0
   83.7825  149.9761   14.3823 C   0  0  0  0  0  0  0  0  0  0  0  0
   85.7369  151.7136   14.5785 S   0  0  0  0  0  0  0  0  0  0  0  0
   86.9827  151.7684   13.6741 O   0  0  0  0  0  0  0  0  0  0  0  0
   86.1772  150.7293   15.6666 O   0  0  0  0  0  0  0  0  0  0  0  0
   84.4079  151.0939   13.7867 N   0  0  0  0  0  0  0  0  0  0  0  0
   85.5106  153.2403   15.3968 C   0  0  0  0  0  0  0  0  0  0  0  0
   83.6032  151.9764   13.0362 C   0  0  0  0  0  0  0  0  0  0  0  0
   84.7834  154.3174   14.7196 C   0  0  0  0  0  0  0  0  0  0  0  0
   84.3622  153.1067   12.3994 C   0  0  0  0  0  0  0  0  0  0  0  0
   84.5565  154.2387   13.3071 N   0  0  0  0  0  0  0  0  0  0  0  0
   84.5087  155.5119   12.6760 C   0  0  0  0  0  0  0  0  0  0  0  0
   84.3139  155.5742   11.4442 O   0  0  0  0  0  0  0  0  0  0  0  0
   84.6817  156.7379   13.4308 C   0  0  0  0  0  0  0  0  0  0  0  0
   85.3473  157.8013   12.8799 N   0  0  0  0  0  0  0  0  0  0  0  0
   84.1904  156.8629   14.7096 C   0  0  0  0  0  0  0  0  0  0  0  0
   85.5295  158.9453   13.5477 C   0  0  0  0  0  0  0  0  0  0  0  0
   84.3643  158.0240   15.4146 C   0  0  0  0  0  0  0  0  0  0  0  0
   85.0400  159.0914   14.8449 C   0  0  0  0  0  0  0  0  0  0  0  0
 19 20  2  0
 19 21  2  0
 19 22  1  0
 19 23  1  0
 22 24  1  0
 22 18  1  0
 23 25  1  0
 24 26  1  0
 18  1  1  0
 25 27  1  0
 26 27  1  0
  1  2  4  0
  1  3  4  0
 27 28  1  0
  2  4  4  0
  3  5  4  0
 28 29  2  0
 28 30  1  0
  4  7  1  0
  4  6  4  0
  5  6  4  0
 30 31  4  0
 30 32  4  0
  7  8  2  0
  7  9  1  0
 31 33  4  0
 32 34  4  0
 33 35  4  0
 34 35  4  0
 10  9  1  6
 10 11  1  0
 10 12  1  0
 11 13  2  0
 11 14  1  0
 12 15  1  0
 14 16  1  0
 15 16  1  0
 16 17  2  0
M  END
>  <SMILES_stereo>  (3) 
O=C1CC[C@H](NC(=O)c2cccc(CN3CCN(C(=O)c4ccccn4)CCS3(=O)=O)c2)C(=O)N1

>  <Docking_Affinity_kcal_mol>  (3) 
-8.24

>  <CNN_Affinity>  (3) 
6.854

>  <CNN_Pose_Score>  (3) 
0.625

>  <N_Docking_Poses>  (3) 
5

>  <MMGBSA_dG_kcal_mol>  (3) 
9.3483

>  <MMGBSA_dG_std>  (3) 
0.0000

>  <MMGBSA_VdW_kcal_mol>  (3) 
65873.2002

>  <MMGBSA_EEL_kcal_mol>  (3) 
-24457.8877

>  <MMGBSA_EGB_kcal_mol>  (3) 
-6197.3154

>  <MMGBSA_ESURF_kcal_mol>  (3) 
140.4179

>  <Interacting_Residues>  (3) 
ASN353, HID380, HID399, ILE390, PRO354, SER373, TRP382, TRP388, TRP402

>  <HBond_Residues>  (3) 
HID380, SER373

>  <Hydrophobic_Residues>  (3) 
ASN353, ILE390, PRO354, TRP388, TRP402

>  <PiStacking_Residues>  (3) 
HID399, TRP382, TRP388, TRP402

>  <N_Interactions>  (3) 
13

$$$$
Compound_11_ent2
     RDKit          3D

 35 38  0  0  0  0  0  0  0  0999 V2000
   83.2334  150.3564   17.5875 C   0  0  0  0  0  0  0  0  0  0  0  0
   83.1153  149.3587   18.5416 C   0  0  0  0  0  0  0  0  0  0  0  0
   82.0503  151.0143   17.2655 C   0  0  0  0  0  0  0  0  0  0  0  0
   81.9448  149.0099   19.1490 C   0  0  0  0  0  0  0  0  0  0  0  0
   80.8644  150.6792   17.8644 C   0  0  0  0  0  0  0  0  0  0  0  0
   80.7984  149.6629   18.8224 C   0  0  0  0  0  0  0  0  0  0  0  0
   81.9152  147.9436   20.1401 C   0  0  0  0  0  0  0  0  0  0  0  0
   82.9209  147.1554   20.2725 O   0  0  0  0  0  0  0  0  0  0  0  0
   80.8334  147.6825   21.0113 N   0  0  0  0  0  0  0  0  0  0  0  0
   80.8241  146.6063   21.9957 C   0  0  1  0  0  0  0  0  0  0  0  0
   80.9774  147.2112   23.3253 C   0  0  0  0  0  0  0  0  0  0  0  0
   79.5173  145.8775   21.8272 C   0  0  0  0  0  0  0  0  0  0  0  0
   82.0326  147.0653   23.9782 O   0  0  0  0  0  0  0  0  0  0  0  0
   79.8820  147.9686   23.8431 N   0  0  0  0  0  0  0  0  0  0  0  0
   78.3666  146.4849   22.5488 C   0  0  0  0  0  0  0  0  0  0  0  0
   78.6309  147.7838   23.1855 C   0  0  0  0  0  0  0  0  0  0  0  0
   77.8076  148.7426   23.1793 O   0  0  0  0  0  0  0  0  0  0  0  0
   84.5287  150.6807   16.9696 C   0  0  0  0  0  0  0  0  0  0  0  0
   85.6633  151.1923   14.6446 S   0  0  0  0  0  0  0  0  0  0  0  0
   85.6152  149.9319   13.8123 O   0  0  0  0  0  0  0  0  0  0  0  0
   86.9694  151.0367   15.4451 O   0  0  0  0  0  0  0  0  0  0  0  0
   84.4269  151.3656   15.7307 N   0  0  0  0  0  0  0  0  0  0  0  0
   85.9010  152.5826   13.6102 C   0  0  0  0  0  0  0  0  0  0  0  0
   83.1964  151.9427   15.4361 C   0  0  0  0  0  0  0  0  0  0  0  0
   85.3345  153.8784   14.1749 C   0  0  0  0  0  0  0  0  0  0  0  0
   83.0182  152.6717   14.1576 C   0  0  0  0  0  0  0  0  0  0  0  0
   83.8785  153.8482   14.1045 N   0  0  0  0  0  0  0  0  0  0  0  0
   83.2762  155.1099   13.9646 C   0  0  0  0  0  0  0  0  0  0  0  0
   82.0141  155.1896   13.8986 O   0  0  0  0  0  0  0  0  0  0  0  0
   83.9937  156.3762   13.8849 C   0  0  0  0  0  0  0  0  0  0  0  0
   84.4939  156.8164   12.6947 N   0  0  0  0  0  0  0  0  0  0  0  0
   84.1714  157.1376   15.0150 C   0  0  0  0  0  0  0  0  0  0  0  0
   85.1510  157.9691   12.6041 C   0  0  0  0  0  0  0  0  0  0  0  0
   84.8465  158.3392   14.9659 C   0  0  0  0  0  0  0  0  0  0  0  0
   85.3366  158.7492   13.7453 C   0  0  0  0  0  0  0  0  0  0  0  0
 19 20  2  0
 19 21  2  0
 19 22  1  0
 19 23  1  0
 22 24  1  0
 22 18  1  0
 23 25  1  0
 24 26  1  0
 18  1  1  0
 25 27  1  0
 26 27  1  0
  1  2  4  0
  1  3  4  0
 27 28  1  0
  2  4  4  0
  3  5  4  0
 28 29  2  0
 28 30  1  0
  4  7  1  0
  4  6  4  0
  5  6  4  0
 30 31  4  0
 30 32  4  0
  7  8  2  0
  7  9  1  0
 31 33  4  0
 32 34  4  0
 33 35  4  0
 34 35  4  0
 10  9  1  6
 10 11  1  0
 10 12  1  0
 11 13  2  0
 11 14  1  0
 12 15  1  0
 14 16  1  0
 15 16  1  0
 16 17  2  0
M  END
>  <SMILES_stereo>  (4) 
O=C1CC[C@@H](NC(=O)c2cccc(CN3CCN(C(=O)c4ccccn4)CCS3(=O)=O)c2)C(=O)N1

>  <Docking_Affinity_kcal_mol>  (4) 
-8.59

>  <CNN_Affinity>  (4) 
6.489

>  <CNN_Pose_Score>  (4) 
0.4683

>  <N_Docking_Poses>  (4) 
5

>  <MMGBSA_dG_kcal_mol>  (4) 
-30.2705

>  <MMGBSA_dG_std>  (4) 
0.0000

>  <MMGBSA_VdW_kcal_mol>  (4) 
65885.3222

>  <MMGBSA_EEL_kcal_mol>  (4) 
-24471.1373

>  <MMGBSA_EGB_kcal_mol>  (4) 
-6193.0115

>  <MMGBSA_ESURF_kcal_mol>  (4) 
140.8452

>  <Interacting_Residues>  (4) 
ASN353, GLN392, GLY397, HID399, ILE390, TRP382, TRP388, TRP402

>  <HBond_Residues>  (4) 
GLN392, GLY397, HID399

>  <Hydrophobic_Residues>  (4) 
ASN353, HID399, ILE390, TRP388, TRP402

>  <PiStacking_Residues>  (4) 
HID399, TRP382, TRP402

>  <N_Interactions>  (4) 
12

$$$$
Compound_12_ent1
     RDKit          3D

 38 41  0  0  0  0  0  0  0  0999 V2000
   86.8853  147.9759   14.5941 S   0  0  0  0  0  0  0  0  0  0  0  0
   87.5753  146.7823   15.1831 O   0  0  0  0  0  0  0  0  0  0  0  0
   85.3931  147.6762   14.6421 O   0  0  0  0  0  0  0  0  0  0  0  0
   87.2615  149.4335   15.3962 N   0  0  0  0  0  0  0  0  0  0  0  0
   87.3099  148.0204   12.8632 C   0  0  0  0  0  0  0  0  0  0  0  0
   87.8124  150.4475   14.5235 C   0  0  0  0  0  0  0  0  0  0  0  0
   86.3511  148.9036   12.0895 C   0  0  0  0  0  0  0  0  0  0  0  0
   86.7007  150.9523   13.5920 C   0  0  0  0  0  0  0  0  0  0  0  0
   86.7516  150.2816   12.3207 N   0  0  0  0  0  0  0  0  0  0  0  0
   87.2292  151.0246   11.2152 C   0  0  0  0  0  0  0  0  0  0  0  0
   87.3015  150.4961   10.0586 O   0  0  0  0  0  0  0  0  0  0  0  0
   86.2437  149.9228   16.2651 C   0  0  0  0  0  0  0  0  0  0  0  0
   85.1898  150.7215   15.6382 C   0  0  0  0  0  0  0  0  0  0  0  0
   85.3483  152.1007   15.4423 C   0  0  0  0  0  0  0  0  0  0  0  0
   84.0350  150.0842   15.2454 C   0  0  0  0  0  0  0  0  0  0  0  0
   84.3690  152.8598   14.8580 C   0  0  0  0  0  0  0  0  0  0  0  0
   83.0482  150.8451   14.6574 C   0  0  0  0  0  0  0  0  0  0  0  0
   83.2001  152.2016   14.4630 C   0  0  0  0  0  0  0  0  0  0  0  0
   84.5136  154.2918   14.6447 C   0  0  0  0  0  0  0  0  0  0  0  0
   85.2902  154.9862   15.3907 O   0  0  0  0  0  0  0  0  0  0  0  0
   83.8436  155.0312   13.6396 N   0  0  0  0  0  0  0  0  0  0  0  0
   84.0132  156.4643   13.4553 C   0  0  2  0  0  0  0  0  0  0  0  0
   85.3234  156.7902   12.8585 C   0  0  0  0  0  0  0  0  0  0  0  0
   83.6691  157.2458   14.6795 C   0  0  0  0  0  0  0  0  0  0  0  0
   85.9654  155.9125   12.2539 O   0  0  0  0  0  0  0  0  0  0  0  0
   85.8272  158.1068   12.9876 N   0  0  0  0  0  0  0  0  0  0  0  0
   84.8103  158.0698   15.2345 C   0  0  0  0  0  0  0  0  0  0  0  0
   85.3537  158.8716   14.1040 C   0  0  0  0  0  0  0  0  0  0  0  0
   85.4132  160.1146   14.0840 O   0  0  0  0  0  0  0  0  0  0  0  0
   87.6575  152.4398   11.3795 C   0  0  0  0  0  0  0  0  0  0  0  0
   88.8298  152.6992   10.4835 C   0  0  0  0  0  0  0  0  0  0  0  0
   88.6667  153.6193    9.4813 O   0  0  0  0  0  0  0  0  0  0  0  0
   88.7729  153.5012    8.1205 C   0  0  0  0  0  0  0  0  0  0  0  0
   89.2212  154.6135    7.4161 C   0  0  0  0  0  0  0  0  0  0  0  0
   88.4796  152.3970    7.3763 C   0  0  0  0  0  0  0  0  0  0  0  0
   89.3723  154.6354    6.0551 C   0  0  0  0  0  0  0  0  0  0  0  0
   88.6093  152.3487    5.9979 C   0  0  0  0  0  0  0  0  0  0  0  0
   89.0569  153.4765    5.3530 C   0  0  0  0  0  0  0  0  0  0  0  0
  1  2  2  0
  1  3  2  0
  1  4  1  0
  1  5  1  0
  4  6  1  0
  4 12  1  0
  5  7  1  0
  6  8  1  0
 12 13  1  0
  7  9  1  0
  8  9  1  0
 13 14  4  0
 13 15  4  0
  9 10  1  0
 14 16  4  0
 15 17  4  0
 10 11  2  0
 10 30  1  0
 16 19  1  0
 16 18  4  0
 17 18  4  0
 30 31  1  0
 19 20  2  0
 19 21  1  0
 31 32  1  0
 32 33  1  0
 22 21  1  1
 22 23  1  0
 22 24  1  0
 33 34  4  0
 33 35  4  0
 23 25  2  0
 23 26  1  0
 24 27  1  0
 34 36  4  0
 35 37  4  0
 26 28  1  0
 27 28  1  0
 36 38  4  0
 37 38  4  0
 28 29  2  0
M  END
>  <SMILES_stereo>  (5) 
O=C1CC[C@H](NC(=O)c2cccc(CN3CCN(C(=O)CCOc4ccccc4)CCS3(=O)=O)c2)C(=O)N1

>  <Docking_Affinity_kcal_mol>  (5) 
-8.63

>  <CNN_Affinity>  (5) 
6.869

>  <CNN_Pose_Score>  (5) 
0.6131

>  <N_Docking_Poses>  (5) 
5

>  <MMGBSA_dG_kcal_mol>  (5) 
-29.1534

>  <MMGBSA_dG_std>  (5) 
0.0000

>  <MMGBSA_VdW_kcal_mol>  (5) 
65852.9021

>  <MMGBSA_EEL_kcal_mol>  (5) 
-24452.2434

>  <MMGBSA_EGB_kcal_mol>  (5) 
-6195.8346

>  <MMGBSA_ESURF_kcal_mol>  (5) 
141.1997

>  <Interacting_Residues>  (5) 
GLU379, HID355, HID380, ILE390, PRO354, SER381, TRP382, TRP388, TRP402

>  <HBond_Residues>  (5) 
HID380

>  <Hydrophobic_Residues>  (5) 
GLU379, HID355, ILE390, PRO354, SER381, TRP382, TRP388, TRP402

>  <PiStacking_Residues>  (5) 
HID380, TRP382, TRP388, TRP402

>  <N_Interactions>  (5) 
14

$$$$
Compound_12_ent2
     RDKit          3D

 38 41  0  0  0  0  0  0  0  0999 V2000
   83.4478  148.8967   19.1862 S   0  0  0  0  0  0  0  0  0  0  0  0
   82.8524  150.0611   19.9081 O   0  0  0  0  0  0  0  0  0  0  0  0
   82.3372  147.8679   19.0162 O   0  0  0  0  0  0  0  0  0  0  0  0
   84.0947  149.2817   17.6626 N   0  0  0  0  0  0  0  0  0  0  0  0
   84.6429  148.1446   20.2639 C   0  0  0  0  0  0  0  0  0  0  0  0
   85.4697  148.9336   17.4803 C   0  0  0  0  0  0  0  0  0  0  0  0
   84.9898  146.7447   19.8183 C   0  0  0  0  0  0  0  0  0  0  0  0
   85.6920  147.4183   17.4289 C   0  0  0  0  0  0  0  0  0  0  0  0
   85.9267  146.8499   18.7185 N   0  0  0  0  0  0  0  0  0  0  0  0
   87.2077  146.3120   18.9995 C   0  0  0  0  0  0  0  0  0  0  0  0
   87.5024  145.7901   20.0994 O   0  0  0  0  0  0  0  0  0  0  0  0
   83.2729  148.9266   16.5404 C   0  0  0  0  0  0  0  0  0  0  0  0
   83.1897  149.9872   15.4999 C   0  0  0  0  0  0  0  0  0  0  0  0
   83.8571  151.1712   15.6548 C   0  0  0  0  0  0  0  0  0  0  0  0
   82.4266  149.7451   14.3851 C   0  0  0  0  0  0  0  0  0  0  0  0
   83.7563  152.1396   14.6640 C   0  0  0  0  0  0  0  0  0  0  0  0
   82.3471  150.7252   13.4214 C   0  0  0  0  0  0  0  0  0  0  0  0
   82.9982  151.9279   13.5324 C   0  0  0  0  0  0  0  0  0  0  0  0
   84.4818  153.3829   14.8670 C   0  0  0  0  0  0  0  0  0  0  0  0
   85.2304  153.5059   15.8874 O   0  0  0  0  0  0  0  0  0  0  0  0
   84.4314  154.5080   14.0061 N   0  0  0  0  0  0  0  0  0  0  0  0
   85.2040  155.7239   14.2969 C   0  0  1  0  0  0  0  0  0  0  0  0
   85.6988  156.2867   13.0363 C   0  0  0  0  0  0  0  0  0  0  0  0
   84.2068  156.7133   14.8930 C   0  0  0  0  0  0  0  0  0  0  0  0
   86.2693  155.5004   12.2301 O   0  0  0  0  0  0  0  0  0  0  0  0
   85.5360  157.6747   12.7415 N   0  0  0  0  0  0  0  0  0  0  0  0
   84.8299  158.0663   15.1136 C   0  0  0  0  0  0  0  0  0  0  0  0
   85.1891  158.6119   13.7779 C   0  0  0  0  0  0  0  0  0  0  0  0
   85.1901  159.8480   13.5605 O   0  0  0  0  0  0  0  0  0  0  0  0
   88.2450  146.3723   17.9388 C   0  0  0  0  0  0  0  0  0  0  0  0
   89.2768  147.3991   18.3534 C   0  0  0  0  0  0  0  0  0  0  0  0
   88.9813  148.7001   18.0504 O   0  0  0  0  0  0  0  0  0  0  0  0
   89.7834  149.7919   17.8933 C   0  0  0  0  0  0  0  0  0  0  0  0
   90.1797  150.0954   16.5782 C   0  0  0  0  0  0  0  0  0  0  0  0
   90.2319  150.6061   18.8986 C   0  0  0  0  0  0  0  0  0  0  0  0
   90.9862  151.1649   16.2905 C   0  0  0  0  0  0  0  0  0  0  0  0
   91.0501  151.6986   18.6429 C   0  0  0  0  0  0  0  0  0  0  0  0
   91.4064  151.9484   17.3356 C   0  0  0  0  0  0  0  0  0  0  0  0
  1  2  2  0
  1  3  2  0
  1  4  1  0
  1  5  1  0
  4  6  1  0
  4 12  1  0
  5  7  1  0
  6  8  1  0
 12 13  1  0
  7  9  1  0
  8  9  1  0
 13 14  4  0
 13 15  4  0
  9 10  1  0
 14 16  4  0
 15 17  4  0
 10 11  2  0
 10 30  1  0
 16 19  1  0
 16 18  4  0
 17 18  4  0
 30 31  1  0
 19 20  2  0
 19 21  1  0
 31 32  1  0
 32 33  1  0
 22 21  1  6
 22 23  1  0
 22 24  1  0
 33 34  4  0
 33 35  4  0
 23 25  2  0
 23 26  1  0
 24 27  1  0
 34 36  4  0
 35 37  4  0
 26 28  1  0
 27 28  1  0
 36 38  4  0
 37 38  4  0
 28 29  2  0
M  END
>  <SMILES_stereo>  (6) 
O=C1CC[C@@H](NC(=O)c2cccc(CN3CCN(C(=O)CCOc4ccccc4)CCS3(=O)=O)c2)C(=O)N1

>  <Docking_Affinity_kcal_mol>  (6) 
-7.9

>  <CNN_Affinity>  (6) 
6.903

>  <CNN_Pose_Score>  (6) 
0.536

>  <N_Docking_Poses>  (6) 
5

>  <MMGBSA_dG_kcal_mol>  (6) 
-24.3203

>  <MMGBSA_dG_std>  (6) 
0.0000

>  <MMGBSA_VdW_kcal_mol>  (6) 
65820.1855

>  <MMGBSA_EEL_kcal_mol>  (6) 
-24455.7108

>  <MMGBSA_EGB_kcal_mol>  (6) 
-6191.1376

>  <MMGBSA_ESURF_kcal_mol>  (6) 
141.0535

>  <Interacting_Residues>  (6) 
HID380, ILE390, TRP382, TRP388, TRP402

>  <HBond_Residues>  (6) 
HID380, TRP402

>  <Hydrophobic_Residues>  (6) 
ILE390, TRP382, TRP388, TRP402

>  <PiStacking_Residues>  (6) 
TRP382, TRP388

>  <N_Interactions>  (6) 
9

$$$$
Compound_1_ent1
     RDKit          3D

 33 35  0  0  0  0  0  0  0  0999 V2000
   82.8192  150.3899   16.3773 N   0  0  1  0  0  0  0  0  0  0  0  0
   81.8565  149.6036   15.7398 C   0  0  1  0  0  0  0  0  0  0  0  0
   82.4841  151.0697   17.5529 C   0  0  0  0  0  0  0  0  0  0  0  0
   81.1981  148.5527   16.5913 C   0  0  0  0  0  0  0  0  0  0  0  0
   82.1967  150.1921   18.7450 C   0  0  0  0  0  0  0  0  0  0  0  0
   80.3472  149.0552   17.6157 N   0  0  0  0  0  0  0  0  0  0  0  0
   80.7117  149.8102   18.7867 C   0  0  0  0  0  0  0  0  0  0  0  0
   78.9704  148.7880   17.4830 C   0  0  0  0  0  0  0  0  0  0  0  0
   78.4741  148.1406   16.5239 O   0  0  0  0  0  0  0  0  0  0  0  0
   80.8362  150.4466   15.0887 C   0  0  0  0  0  0  0  0  0  0  0  0
   80.0509  150.0115   14.2014 O   0  0  0  0  0  0  0  0  0  0  0  0
   80.6995  151.7777   15.4355 O   0  0  0  0  0  0  0  0  0  0  0  0
   81.3864  152.8333   14.8032 C   0  0  0  0  0  0  0  0  0  0  0  0
   84.1759  150.1761   16.0725 C   0  0  0  0  0  0  0  0  0  0  0  0
   85.2068  152.9003   13.6451 C   0  0  0  0  0  0  0  0  0  0  0  0
   84.8768  152.2143   14.7877 C   0  0  0  0  0  0  0  0  0  0  0  0
   85.1731  152.1616   12.4589 C   0  0  0  0  0  0  0  0  0  0  0  0
   84.5235  150.8591   14.7970 C   0  0  0  0  0  0  0  0  0  0  0  0
   84.8350  150.8285   12.4022 C   0  0  0  0  0  0  0  0  0  0  0  0
   84.5164  150.2088   13.5850 C   0  0  0  0  0  0  0  0  0  0  0  0
   86.8595  154.2067   11.6660 O   0  0  0  0  0  0  0  0  0  0  0  0
   86.1372  154.8495   12.4832 C   0  0  0  0  0  0  0  0  0  0  0  0
   85.5416  154.3026   13.6247 N   0  0  0  0  0  0  0  0  0  0  0  0
   85.9166  156.2534   12.2140 N   0  0  0  0  0  0  0  0  0  0  0  0
   85.1999  155.0563   14.8118 C   0  0  0  0  0  0  0  0  0  0  0  0
   85.1018  156.9142   13.1746 C   0  0  0  0  0  0  0  0  0  0  0  0
   85.1023  156.5415   14.5991 C   0  0  0  0  0  0  0  0  0  0  0  0
   84.3606  157.8448   12.7908 O   0  0  0  0  0  0  0  0  0  0  0  0
   78.0913  149.2502   18.4444 O   0  0  0  0  0  0  0  0  0  0  0  0
   77.4405  148.4343   19.3792 C   0  0  0  0  0  0  0  0  0  0  0  0
   78.1835  147.1268   19.4846 C   0  0  0  0  0  0  0  0  0  0  0  0
   76.0215  148.2155   18.8868 C   0  0  0  0  0  0  0  0  0  0  0  0
   77.3708  149.1326   20.7388 C   0  0  0  0  0  0  0  0  0  0  0  0
 21 22  2  0
 22 23  1  0
 22 24  1  0
 23 15  1  0
 23 25  1  0
 24 26  1  0
 15 16  4  0
 15 17  4  0
 25 27  1  0
 26 28  2  0
 26 27  1  0
 16 18  4  0
 17 19  4  0
 18 20  4  0
 18 14  1  0
 19 20  4  0
  1 14  1  1
  1  2  1  0
  1  3  1  0
  2 10  1  1
  2  4  1  0
  3  5  1  0
 10 11  2  0
 10 12  1  0
  4  6  1  0
  5  7  1  0
 12 13  1  0
  6  8  1  0
  6  7  1  0
  8  9  2  0
  8 29  1  0
 29 30  1  0
 30 31  1  0
 30 32  1  0
 30 33  1  0
M  CHG  1   1   1
M  END
>  <SMILES_stereo>  (7) 
COC(=O)[C@@H]1CN(C(=O)OC(C)(C)C)CCC[N@H+]1Cc1cccc(N2CCC(=O)NC2=O)c1

>  <Docking_Affinity_kcal_mol>  (7) 
-6.6

>  <CNN_Affinity>  (7) 
5.841

>  <CNN_Pose_Score>  (7) 
0.3537

>  <N_Docking_Poses>  (7) 
5

>  <MMGBSA_dG_kcal_mol>  (7) 
-14.9464

>  <MMGBSA_dG_std>  (7) 
0.0000

>  <MMGBSA_VdW_kcal_mol>  (7) 
65825.2239

>  <MMGBSA_EEL_kcal_mol>  (7) 
-24353.1740

>  <MMGBSA_EGB_kcal_mol>  (7) 
-6279.9612

>  <MMGBSA_ESURF_kcal_mol>  (7) 
140.8633

>  <Interacting_Residues>  (7) 
ASN353, HID359, HID380, HID399, PRO354, TRP388, TRP402

>  <HBond_Residues>  (7) 
ASN353, HID359, HID380

>  <Hydrophobic_Residues>  (7) 
ASN353, HID359, HID399, PRO354, TRP388, TRP402

>  <PiStacking_Residues>  (7) 
HID380, TRP388

>  <N_Interactions>  (7) 
11

$$$$
Compound_1_ent2
     RDKit          3D

 33 35  0  0  0  0  0  0  0  0999 V2000
   84.3576  150.0717   14.3972 N   0  0  2  0  0  0  0  0  0  0  0  0
   82.9856  150.1660   14.1907 C   0  0  2  0  0  0  0  0  0  0  0  0
   84.9308  150.9704   15.3609 C   0  0  0  0  0  0  0  0  0  0  0  0
   82.2651  149.7473   15.5066 C   0  0  0  0  0  0  0  0  0  0  0  0
   84.4925  150.9350   16.7541 C   0  0  0  0  0  0  0  0  0  0  0  0
   82.1134  150.9182   16.3238 N   0  0  0  0  0  0  0  0  0  0  0  0
   83.1811  151.6653   17.0131 C   0  0  0  0  0  0  0  0  0  0  0  0
   80.8051  151.3923   16.4902 C   0  0  0  0  0  0  0  0  0  0  0  0
   80.5164  152.4146   17.1708 O   0  0  0  0  0  0  0  0  0  0  0  0
   82.3812  149.3624   13.0992 C   0  0  0  0  0  0  0  0  0  0  0  0
   81.4804  149.9015   12.3576 O   0  0  0  0  0  0  0  0  0  0  0  0
   82.6761  148.0630   12.7747 O   0  0  0  0  0  0  0  0  0  0  0  0
   81.8871  146.9711   13.2016 C   0  0  0  0  0  0  0  0  0  0  0  0
   85.2322  149.9260   13.2613 C   0  0  0  0  0  0  0  0  0  0  0  0
   85.6705  153.6596   12.8044 C   0  0  0  0  0  0  0  0  0  0  0  0
   85.1969  152.4279   13.1767 C   0  0  0  0  0  0  0  0  0  0  0  0
   86.8158  153.6865   12.0008 C   0  0  0  0  0  0  0  0  0  0  0  0
   85.7878  151.2091   12.8033 C   0  0  0  0  0  0  0  0  0  0  0  0
   87.4120  152.5169   11.6226 C   0  0  0  0  0  0  0  0  0  0  0  0
   86.8920  151.2814   12.0283 C   0  0  0  0  0  0  0  0  0  0  0  0
   85.0897  154.5686   15.4829 O   0  0  0  0  0  0  0  0  0  0  0  0
   85.1081  155.3206   14.5009 C   0  0  0  0  0  0  0  0  0  0  0  0
   85.0704  154.9017   13.1519 N   0  0  0  0  0  0  0  0  0  0  0  0
   85.1693  156.7405   14.7615 N   0  0  0  0  0  0  0  0  0  0  0  0
   84.4679  155.7019   12.1052 C   0  0  0  0  0  0  0  0  0  0  0  0
   85.1827  157.5679   13.6098 C   0  0  0  0  0  0  0  0  0  0  0  0
   84.3772  157.1721   12.4412 C   0  0  0  0  0  0  0  0  0  0  0  0
   85.8662  158.6133   13.5918 O   0  0  0  0  0  0  0  0  0  0  0  0
   79.7572  150.7292   15.8924 O   0  0  0  0  0  0  0  0  0  0  0  0
   78.7685  149.9709   16.5094 C   0  0  0  0  0  0  0  0  0  0  0  0
   77.4099  150.5089   16.0385 C   0  0  0  0  0  0  0  0  0  0  0  0
   78.8208  150.0276   18.0388 C   0  0  0  0  0  0  0  0  0  0  0  0
   78.8646  148.5465   16.0161 C   0  0  0  0  0  0  0  0  0  0  0  0
 21 22  2  0
 22 23  1  0
 22 24  1  0
 23 15  1  0
 23 25  1  0
 24 26  1  0
 15 16  4  0
 15 17  4  0
 25 27  1  0
 26 28  2  0
 26 27  1  0
 16 18  4  0
 17 19  4  0
 18 20  4  0
 18 14  1  0
 19 20  4  0
  1 14  1  6
  1  2  1  0
  1  3  1  0
  2 10  1  6
  2  4  1  0
  3  5  1  0
 10 11  2  0
 10 12  1  0
  4  6  1  0
  5  7  1  0
 12 13  1  0
  6  8  1  0
  6  7  1  0
  8  9  2  0
  8 29  1  0
 29 30  1  0
 30 31  1  0
 30 32  1  0
 30 33  1  0
M  CHG  1   1   1
M  END
>  <SMILES_stereo>  (8) 
COC(=O)[C@H]1CN(C(=O)OC(C)(C)C)CCC[N@@H+]1Cc1cccc(N2CCC(=O)NC2=O)c1

>  <Docking_Affinity_kcal_mol>  (8) 
-7.8

>  <CNN_Affinity>  (8) 
5.157

>  <CNN_Pose_Score>  (8) 
0.3152

>  <N_Docking_Poses>  (8) 
5

>  <MMGBSA_dG_kcal_mol>  (8) 
-21.3815

>  <MMGBSA_dG_std>  (8) 
0.0000

>  <MMGBSA_VdW_kcal_mol>  (8) 
65831.6145

>  <MMGBSA_EEL_kcal_mol>  (8) 
-24370.4127

>  <MMGBSA_EGB_kcal_mol>  (8) 
-6271.2951

>  <MMGBSA_ESURF_kcal_mol>  (8) 
140.3670

>  <Interacting_Residues>  (8) 
ASN353, HID355, HID359, ILE390, PRO354, TRP382, TRP388, TRP402, TYR357

>  <HBond_Residues>  (8) 
HID355

>  <Hydrophobic_Residues>  (8) 
ASN353, HID355, HID359, ILE390, PRO354, TRP382, TRP388, TRP402, TYR357

>  <PiStacking_Residues>  (8) 
TRP382, TRP388, TRP402

>  <N_Interactions>  (8) 
13

$$$$
Compound_4_s1
     RDKit          3D

 28 31  0  0  0  0  0  0  0  0999 V2000
   83.9846  154.9627   14.3503 C   0  0  0  0  0  0  0  0  0  0  0  0
   84.6303  153.7887   14.6882 C   0  0  0  0  0  0  0  0  0  0  0  0
   82.6296  154.9952   14.1501 C   0  0  0  0  0  0  0  0  0  0  0  0
   83.9573  152.6180   14.8372 C   0  0  0  0  0  0  0  0  0  0  0  0
   81.9386  153.7995   14.3017 C   0  0  0  0  0  0  0  0  0  0  0  0
   82.5847  152.6321   14.6382 C   0  0  0  0  0  0  0  0  0  0  0  0
   84.2932  151.2037   15.1828 C   0  0  2  0  0  0  0  0  0  0  0  0
   82.1112  151.2516   14.8578 C   0  0  1  0  0  0  0  0  0  0  0  0
   83.2818  150.5138   14.4008 N   0  0  0  0  0  0  0  0  0  0  0  0
   83.7331  150.9826   16.5689 C   0  0  1  0  0  0  0  0  0  0  0  0
   82.2199  150.9943   16.3460 C   0  0  2  0  0  0  0  0  0  0  0  0
   83.3295  149.4663   13.4803 C   0  0  0  0  0  0  0  0  0  0  0  0
   84.1714  149.7366   17.0021 O   0  0  0  0  0  0  0  0  0  0  0  0
   81.7212  149.7200   16.5828 O   0  0  0  0  0  0  0  0  0  0  0  0
   84.3716  148.8673   13.1247 O   0  0  0  0  0  0  0  0  0  0  0  0
   84.9074  156.0103   11.8932 O   0  0  0  0  0  0  0  0  0  0  0  0
   84.9086  156.7436   12.9188 C   0  0  0  0  0  0  0  0  0  0  0  0
   84.7399  156.1803   14.2032 N   0  0  0  0  0  0  0  0  0  0  0  0
   85.0796  158.1499   12.8013 N   0  0  0  0  0  0  0  0  0  0  0  0
   85.3327  156.8438   15.3427 C   0  0  0  0  0  0  0  0  0  0  0  0
   85.0712  158.9216   14.0005 C   0  0  0  0  0  0  0  0  0  0  0  0
   84.9321  158.2894   15.3295 C   0  0  0  0  0  0  0  0  0  0  0  0
   85.1843  160.1546   13.9109 O   0  0  0  0  0  0  0  0  0  0  0  0
   82.1436  149.0350   12.8981 O   0  0  0  0  0  0  0  0  0  0  0  0
   81.6395  147.7364   13.0137 C   0  0  0  0  0  0  0  0  0  0  0  0
   80.3669  147.5206   12.2237 C   0  0  0  0  0  0  0  0  0  0  0  0
   82.6367  146.6735   12.6302 C   0  0  0  0  0  0  0  0  0  0  0  0
   81.3164  147.5162   14.4965 C   0  0  0  0  0  0  0  0  0  0  0  0
 16 17  2  0
 17 18  1  0
 17 19  1  0
 18  1  1  0
 18 20  1  0
 19 21  1  0
  1  2  4  0
  1  3  4  0
 20 22  1  0
 21 23  2  0
 21 22  1  0
  2  4  4  0
  3  5  4  0
  4  6  4  0
  5  6  4  0
  7  4  1  6
  7  9  1  0
  7 10  1  0
  8  6  1  1
  8 11  1  0
  8  9  1  0
  9 12  1  0
 10 13  1  6
 10 11  1  0
 11 14  1  6
 12 15  2  0
 12 24  1  0
 24 25  1  0
 25 26  1  0
 25 27  1  0
 25 28  1  0
M  END
>  <SMILES_stereo>  (9) 
CC(C)(C)OC(=O)N1[C@@H]2c3ccc(N4CCC(=O)NC4=O)cc3[C@H]1[C@H](O)[C@@H]2O

>  <Docking_Affinity_kcal_mol>  (9) 
-8.36

>  <CNN_Affinity>  (9) 
7.139

>  <CNN_Pose_Score>  (9) 
0.8732

>  <N_Docking_Poses>  (9) 
5

>  <MMGBSA_dG_kcal_mol>  (9) 
-33.0584

>  <MMGBSA_dG_std>  (9) 
0.0000

>  <MMGBSA_VdW_kcal_mol>  (9) 
65826.4863

>  <MMGBSA_EEL_kcal_mol>  (9) 
-24440.8738

>  <MMGBSA_EGB_kcal_mol>  (9) 
-6173.5819

>  <MMGBSA_ESURF_kcal_mol>  (9) 
140.7756

>  <Interacting_Residues>  (9) 
HID355, HID359, HID380, PHE404, TRP382, TRP388, TRP402

>  <HBond_Residues>  (9) 
HID355, HID380

>  <Hydrophobic_Residues>  (9) 
HID355, PHE404, TRP382, TRP388, TRP402

>  <PiStacking_Residues>  (9) 
HID359, TRP382, TRP388, TRP402

>  <N_Interactions>  (9) 
12

$$$$
Compound_4_s12
     RDKit          3D

 28 31  0  0  0  0  0  0  0  0999 V2000
   84.0971  154.8436   14.1559 C   0  0  0  0  0  0  0  0  0  0  0  0
   84.8202  153.6522   14.2425 C   0  0  0  0  0  0  0  0  0  0  0  0
   82.7239  154.7236   14.1748 C   0  0  0  0  0  0  0  0  0  0  0  0
   84.1828  152.4334   14.3406 C   0  0  0  0  0  0  0  0  0  0  0  0
   82.0842  153.4894   14.2741 C   0  0  0  0  0  0  0  0  0  0  0  0
   82.8038  152.3371   14.3575 C   0  0  0  0  0  0  0  0  0  0  0  0
   84.7063  151.0424   14.4491 C   0  0  1  0  0  0  0  0  0  0  0  0
   82.5029  150.8765   14.4674 C   0  0  2  0  0  0  0  0  0  0  0  0
   83.6339  150.4635   15.2808 N   0  0  0  0  0  0  0  0  0  0  0  0
   84.4417  150.3561   13.1501 C   0  0  1  0  0  0  0  0  0  0  0  0
   82.9075  150.2844   13.1381 C   0  0  1  0  0  0  0  0  0  0  0  0
   83.7050  149.7468   16.4729 C   0  0  0  0  0  0  0  0  0  0  0  0
   84.9173  151.0492   12.0443 O   0  0  0  0  0  0  0  0  0  0  0  0
   82.4710  148.9919   12.9636 O   0  0  0  0  0  0  0  0  0  0  0  0
   84.7973  149.4864   17.0296 O   0  0  0  0  0  0  0  0  0  0  0  0
   84.7452  156.1391   11.7407 O   0  0  0  0  0  0  0  0  0  0  0  0
   84.8099  156.8074   12.8038 C   0  0  0  0  0  0  0  0  0  0  0  0
   84.7175  156.1189   14.0534 N   0  0  0  0  0  0  0  0  0  0  0  0
   84.9722  158.2197   12.7417 N   0  0  0  0  0  0  0  0  0  0  0  0
   85.2936  156.7969   15.2115 C   0  0  0  0  0  0  0  0  0  0  0  0
   85.0362  158.8991   13.9909 C   0  0  0  0  0  0  0  0  0  0  0  0
   84.7060  158.1837   15.2567 C   0  0  0  0  0  0  0  0  0  0  0  0
   85.3789  160.1160   13.9877 O   0  0  0  0  0  0  0  0  0  0  0  0
   82.5433  149.2991   17.0776 O   0  0  0  0  0  0  0  0  0  0  0  0
   81.9092  150.0616   18.0606 C   0  0  0  0  0  0  0  0  0  0  0  0
   82.9135  151.0113   18.6606 C   0  0  0  0  0  0  0  0  0  0  0  0
   81.2745  149.2495   19.1529 C   0  0  0  0  0  0  0  0  0  0  0  0
   80.7898  150.8851   17.4186 C   0  0  0  0  0  0  0  0  0  0  0  0
 16 17  2  0
 17 18  1  0
 17 19  1  0
 18  1  1  0
 18 20  1  0
 19 21  1  0
  1  2  4  0
  1  3  4  0
 20 22  1  0
 21 23  2  0
 21 22  1  0
  2  4  4  0
  3  5  4  0
  4  6  4  0
  5  6  4  0
  7  4  1  6
  7  9  1  0
  7 10  1  0
  8  6  1  6
  8 11  1  0
  8  9  1  0
  9 12  1  0
 10 13  1  6
 10 11  1  0
 11 14  1  1
 12 15  2  0
 12 24  1  0
 24 25  1  0
 25 26  1  0
 25 27  1  0
 25 28  1  0
M  END
>  <SMILES_stereo>  (10) 
CC(C)(C)OC(=O)N1[C@@H]2c3cc(N4CCC(=O)NC4=O)ccc3[C@H]1[C@H](O)[C@H]2O

>  <Docking_Affinity_kcal_mol>  (10) 
-9.52

>  <CNN_Affinity>  (10) 
7.292

>  <CNN_Pose_Score>  (10) 
0.964

>  <N_Docking_Poses>  (10) 
5

>  <MMGBSA_dG_kcal_mol>  (10) 
-37.5615

>  <MMGBSA_dG_std>  (10) 
0.0000

>  <MMGBSA_VdW_kcal_mol>  (10) 
65821.2821

>  <MMGBSA_EEL_kcal_mol>  (10) 
-24435.7366

>  <MMGBSA_EGB_kcal_mol>  (10) 
-6173.6207

>  <MMGBSA_ESURF_kcal_mol>  (10) 
140.2078

>  <Interacting_Residues>  (10) 
HID355, HID380, HID399, ILE390, PHE404, TRP382, TRP388, TRP402

>  <HBond_Residues>  (10) 
HID355, HID380

>  <Hydrophobic_Residues>  (10) 
HID355, HID399, ILE390, PHE404, TRP382, TRP388, TRP402

>  <PiStacking_Residues>  (10) 
TRP382, TRP388, TRP402

>  <N_Interactions>  (10) 
13

$$$$
Compound_4_s13
     RDKit          3D

 28 31  0  0  0  0  0  0  0  0999 V2000
   85.3656  154.7443   13.6732 C   0  0  0  0  0  0  0  0  0  0  0  0
   85.3946  153.8625   14.7232 C   0  0  0  0  0  0  0  0  0  0  0  0
   85.8415  154.3129   12.4517 C   0  0  0  0  0  0  0  0  0  0  0  0
   85.8947  152.5668   14.5480 C   0  0  0  0  0  0  0  0  0  0  0  0
   86.3433  153.0195   12.2668 C   0  0  0  0  0  0  0  0  0  0  0  0
   86.3707  152.1384   13.3231 C   0  0  0  0  0  0  0  0  0  0  0  0
   86.0606  151.3951   15.4552 C   0  0  2  0  0  0  0  0  0  0  0  0
   86.8200  150.7397   13.4856 C   0  0  1  0  0  0  0  0  0  0  0  0
   87.2801  150.8186   14.8786 N   0  0  0  0  0  0  0  0  0  0  0  0
   85.0592  150.3669   14.9873 C   0  0  2  0  0  0  0  0  0  0  0  0
   85.6339  149.8224   13.6860 C   0  0  1  0  0  0  0  0  0  0  0  0
   88.4954  150.4532   15.4406 C   0  0  0  0  0  0  0  0  0  0  0  0
   83.8856  151.0552   14.6524 O   0  0  0  0  0  0  0  0  0  0  0  0
   84.7259  149.8983   12.6446 O   0  0  0  0  0  0  0  0  0  0  0  0
   89.3807  149.9727   14.6853 O   0  0  0  0  0  0  0  0  0  0  0  0
   84.2077  156.3090   11.5703 O   0  0  0  0  0  0  0  0  0  0  0  0
   84.5988  156.8549   12.6173 C   0  0  0  0  0  0  0  0  0  0  0  0
   84.8869  156.1028   13.7825 N   0  0  0  0  0  0  0  0  0  0  0  0
   84.7706  158.2867   12.6805 N   0  0  0  0  0  0  0  0  0  0  0  0
   84.7272  156.7094   15.0800 C   0  0  0  0  0  0  0  0  0  0  0  0
   85.2233  158.8358   13.9445 C   0  0  0  0  0  0  0  0  0  0  0  0
   84.6222  158.1805   15.1267 C   0  0  0  0  0  0  0  0  0  0  0  0
   86.0362  159.7640   13.9366 O   0  0  0  0  0  0  0  0  0  0  0  0
   88.8201  150.5749   16.7827 O   0  0  0  0  0  0  0  0  0  0  0  0
   90.1458  150.7547   17.2509 C   0  0  0  0  0  0  0  0  0  0  0  0
   90.9618  151.4551   16.1802 C   0  0  0  0  0  0  0  0  0  0  0  0
   90.1985  151.5413   18.5315 C   0  0  0  0  0  0  0  0  0  0  0  0
   90.7217  149.3751   17.5001 C   0  0  0  0  0  0  0  0  0  0  0  0
 16 17  2  0
 17 18  1  0
 17 19  1  0
 18  1  1  0
 18 20  1  0
 19 21  1  0
  1  2  4  0
  1  3  4  0
 20 22  1  0
 21 23  2  0
 21 22  1  0
  2  4  4  0
  3  5  4  0
  4  6  4  0
  5  6  4  0
  7  4  1  6
  7  9  1  0
  7 10  1  0
  8  6  1  1
  8 11  1  0
  8  9  1  0
  9 12  1  0
 10 13  1  6
 10 11  1  0
 11 14  1  6
 12 15  2  0
 12 24  1  0
 24 25  1  0
 25 26  1  0
 25 27  1  0
 25 28  1  0
M  END
>  <SMILES_stereo>  (11) 
CC(C)(C)OC(=O)N1[C@@H]2c3ccc(N4CCC(=O)NC4=O)cc3[C@H]1[C@@H](O)[C@H]2O

>  <Docking_Affinity_kcal_mol>  (11) 
-9.15

>  <CNN_Affinity>  (11) 
6.858

>  <CNN_Pose_Score>  (11) 
0.9682

>  <N_Docking_Poses>  (11) 
5

>  <MMGBSA_dG_kcal_mol>  (11) 
-24.3718

>  <MMGBSA_dG_std>  (11) 
0.0000

>  <MMGBSA_VdW_kcal_mol>  (11) 
65845.5151

>  <MMGBSA_EEL_kcal_mol>  (11) 
-24437.1435

>  <MMGBSA_EGB_kcal_mol>  (11) 
-6173.9912

>  <MMGBSA_ESURF_kcal_mol>  (11) 
140.5783

>  <Interacting_Residues>  (11) 
HID380, ILE390, SER381, TRP382, TRP388, TRP402

>  <HBond_Residues>  (11) 
HID380, TRP382

>  <Hydrophobic_Residues>  (11) 
ILE390, SER381, TRP382, TRP388, TRP402

>  <PiStacking_Residues>  (11) 
TRP382, TRP388

>  <N_Interactions>  (11) 
10

$$$$
Compound_4_s16
     RDKit          3D

 28 31  0  0  0  0  0  0  0  0999 V2000
   84.1340  154.8819   14.2582 C   0  0  0  0  0  0  0  0  0  0  0  0
   84.9028  153.7299   14.3269 C   0  0  0  0  0  0  0  0  0  0  0  0
   82.7698  154.6813   14.2623 C   0  0  0  0  0  0  0  0  0  0  0  0
   84.3357  152.4740   14.3947 C   0  0  0  0  0  0  0  0  0  0  0  0
   82.1919  153.4328   14.3294 C   0  0  0  0  0  0  0  0  0  0  0  0
   82.9660  152.3040   14.3968 C   0  0  0  0  0  0  0  0  0  0  0  0
   84.9017  151.0884   14.4843 C   0  0  1  0  0  0  0  0  0  0  0  0
   82.7074  150.8380   14.4696 C   0  0  2  0  0  0  0  0  0  0  0  0
   83.8436  150.4463   15.2857 N   0  0  0  0  0  0  0  0  0  0  0  0
   84.6678  150.4317   13.1656 C   0  0  2  0  0  0  0  0  0  0  0  0
   83.1529  150.2723   13.1421 C   0  0  1  0  0  0  0  0  0  0  0  0
   83.9198  149.7014   16.4549 C   0  0  0  0  0  0  0  0  0  0  0  0
   85.3084  149.2083   13.0337 O   0  0  0  0  0  0  0  0  0  0  0  0
   82.8528  148.9216   13.0152 O   0  0  0  0  0  0  0  0  0  0  0  0
   84.9831  149.4355   17.0625 O   0  0  0  0  0  0  0  0  0  0  0  0
   84.5629  156.1080   11.8784 O   0  0  0  0  0  0  0  0  0  0  0  0
   84.7217  156.8382   12.9003 C   0  0  0  0  0  0  0  0  0  0  0  0
   84.6721  156.1942   14.1871 N   0  0  0  0  0  0  0  0  0  0  0  0
   84.9382  158.2312   12.7627 N   0  0  0  0  0  0  0  0  0  0  0  0
   85.1732  156.9288   15.3119 C   0  0  0  0  0  0  0  0  0  0  0  0
   85.1074  158.9780   13.9716 C   0  0  0  0  0  0  0  0  0  0  0  0
   84.6248  158.3402   15.2239 C   0  0  0  0  0  0  0  0  0  0  0  0
   85.6431  160.1157   13.9345 O   0  0  0  0  0  0  0  0  0  0  0  0
   82.7447  149.2096   17.0018 O   0  0  0  0  0  0  0  0  0  0  0  0
   81.9841  149.8640   17.9767 C   0  0  0  0  0  0  0  0  0  0  0  0
   81.3390  148.8586   18.8939 C   0  0  0  0  0  0  0  0  0  0  0  0
   80.9291  150.7694   17.3819 C   0  0  0  0  0  0  0  0  0  0  0  0
   82.9208  150.7358   18.7874 C   0  0  0  0  0  0  0  0  0  0  0  0
 16 17  2  0
 17 18  1  0
 17 19  1  0
 18  1  1  0
 18 20  1  0
 19 21  1  0
  1  2  4  0
  1  3  4  0
 20 22  1  0
 21 23  2  0
 21 22  1  0
  2  4  4  0
  3  5  4  0
  4  6  4  0
  5  6  4  0
  7  4  1  6
  7  9  1  0
  7 10  1  0
  8  6  1  6
  8 11  1  0
  8  9  1  0
  9 12  1  0
 10 13  1  1
 10 11  1  0
 11 14  1  1
 12 15  2  0
 12 24  1  0
 24 25  1  0
 25 26  1  0
 25 27  1  0
 25 28  1  0
M  END
>  <SMILES_stereo>  (12) 
CC(C)(C)OC(=O)N1[C@@H]2c3cc(N4CCC(=O)NC4=O)ccc3[C@H]1[C@H](O)[C@@H]2O

>  <Docking_Affinity_kcal_mol>  (12) 
-9.23

>  <CNN_Affinity>  (12) 
7.218

>  <CNN_Pose_Score>  (12) 
0.9668

>  <N_Docking_Poses>  (12) 
5

>  <MMGBSA_dG_kcal_mol>  (12) 
-36.0568

>  <MMGBSA_dG_std>  (12) 
0.0000

>  <MMGBSA_VdW_kcal_mol>  (12) 
65823.5991

>  <MMGBSA_EEL_kcal_mol>  (12) 
-24441.7072

>  <MMGBSA_EGB_kcal_mol>  (12) 
-6174.4287

>  <MMGBSA_ESURF_kcal_mol>  (12) 
140.4509

>  <Interacting_Residues>  (12) 
HID355, HID380, HID399, ILE390, PHE404, SER381, TRP382, TRP388, TRP402

>  <HBond_Residues>  (12) 
HID355, HID380

>  <Hydrophobic_Residues>  (12) 
HID355, HID399, ILE390, PHE404, SER381, TRP382, TRP388, TRP402

>  <PiStacking_Residues>  (12) 
TRP382, TRP388, TRP402

>  <N_Interactions>  (12) 
14

$$$$
Compound_4_s4
     RDKit          3D

 28 31  0  0  0  0  0  0  0  0999 V2000
   84.1574  154.9794   14.2387 C   0  0  0  0  0  0  0  0  0  0  0  0
   85.0555  153.9263   14.2117 C   0  0  0  0  0  0  0  0  0  0  0  0
   82.8195  154.6224   14.3468 C   0  0  0  0  0  0  0  0  0  0  0  0
   84.6765  152.6044   14.2855 C   0  0  0  0  0  0  0  0  0  0  0  0
   82.3882  153.3146   14.4237 C   0  0  0  0  0  0  0  0  0  0  0  0
   83.3276  152.3090   14.3921 C   0  0  0  0  0  0  0  0  0  0  0  0
   85.4000  151.2863   14.2839 C   0  0  1  0  0  0  0  0  0  0  0  0
   83.2506  150.8214   14.4464 C   0  0  2  0  0  0  0  0  0  0  0  0
   84.4958  150.5406   15.1279 N   0  0  0  0  0  0  0  0  0  0  0  0
   85.1229  150.6249   12.9526 C   0  0  1  0  0  0  0  0  0  0  0  0
   83.6222  150.3467   13.0538 C   0  0  2  0  0  0  0  0  0  0  0  0
   84.6856  149.7592   16.2733 C   0  0  0  0  0  0  0  0  0  0  0  0
   85.4031  151.4533   11.8738 O   0  0  0  0  0  0  0  0  0  0  0  0
   82.9946  151.0853   12.0707 O   0  0  0  0  0  0  0  0  0  0  0  0
   85.8267  149.5696   16.8025 O   0  0  0  0  0  0  0  0  0  0  0  0
   84.3060  156.3476   11.8262 O   0  0  0  0  0  0  0  0  0  0  0  0
   84.5800  156.9618   12.8912 C   0  0  0  0  0  0  0  0  0  0  0  0
   84.5693  156.3341   14.1614 N   0  0  0  0  0  0  0  0  0  0  0  0
   84.9092  158.3529   12.7538 N   0  0  0  0  0  0  0  0  0  0  0  0
   84.9664  157.0630   15.3212 C   0  0  0  0  0  0  0  0  0  0  0  0
   85.2203  159.0534   13.9564 C   0  0  0  0  0  0  0  0  0  0  0  0
   84.6199  158.5455   15.2142 C   0  0  0  0  0  0  0  0  0  0  0  0
   85.9854  160.0708   13.9227 O   0  0  0  0  0  0  0  0  0  0  0  0
   83.6330  149.1163   16.9383 O   0  0  0  0  0  0  0  0  0  0  0  0
   83.0683  149.5716   18.1267 C   0  0  0  0  0  0  0  0  0  0  0  0
   83.7689  149.0919   19.3606 C   0  0  0  0  0  0  0  0  0  0  0  0
   81.5888  149.2773   18.1478 C   0  0  0  0  0  0  0  0  0  0  0  0
   83.2003  151.1016   18.1173 C   0  0  0  0  0  0  0  0  0  0  0  0
 16 17  2  0
 17 18  1  0
 17 19  1  0
 18  1  1  0
 18 20  1  0
 19 21  1  0
  1  2  4  0
  1  3  4  0
 20 22  1  0
 21 23  2  0
 21 22  1  0
  2  4  4  0
  3  5  4  0
  4  6  4  0
  5  6  4  0
  7  4  1  6
  7  9  1  0
  7 10  1  0
  8  6  1  6
  8 11  1  0
  8  9  1  0
  9 12  1  0
 10 13  1  6
 10 11  1  0
 11 14  1  6
 12 15  2  0
 12 24  1  0
 24 25  1  0
 25 26  1  0
 25 27  1  0
 25 28  1  0
M  END
>  <SMILES_stereo>  (13) 
CC(C)(C)OC(=O)N1[C@@H]2c3cc(N4CCC(=O)NC4=O)ccc3[C@H]1[C@@H](O)[C@H]2O

>  <Docking_Affinity_kcal_mol>  (13) 
-9.39

>  <CNN_Affinity>  (13) 
7.397

>  <CNN_Pose_Score>  (13) 
0.972

>  <N_Docking_Poses>  (13) 
5

>  <MMGBSA_dG_kcal_mol>  (13) 
-25.9935

>  <MMGBSA_dG_std>  (13) 
0.0000

>  <MMGBSA_VdW_kcal_mol>  (13) 
65833.2928

>  <MMGBSA_EEL_kcal_mol>  (13) 
-24437.5687

>  <MMGBSA_EGB_kcal_mol>  (13) 
-6173.8504

>  <MMGBSA_ESURF_kcal_mol>  (13) 
140.2387

>  <Interacting_Residues>  (13) 
HID355, HID380, ILE390, PHE404, SER381, TRP382, TRP388, TRP402

>  <HBond_Residues>  (13) 
HID380

>  <Hydrophobic_Residues>  (13) 
HID355, ILE390, PHE404, SER381, TRP382, TRP388, TRP402

>  <PiStacking_Residues>  (13) 
TRP382, TRP388, TRP402

>  <N_Interactions>  (13) 
13

$$$$
Compound_4_s5
     RDKit          3D

 28 31  0  0  0  0  0  0  0  0999 V2000
   83.9619  154.9773   14.3233 C   0  0  0  0  0  0  0  0  0  0  0  0
   84.6168  153.8332   14.7242 C   0  0  0  0  0  0  0  0  0  0  0  0
   82.6040  154.9701   14.0509 C   0  0  0  0  0  0  0  0  0  0  0  0
   83.9503  152.6534   14.8666 C   0  0  0  0  0  0  0  0  0  0  0  0
   81.9329  153.7573   14.2001 C   0  0  0  0  0  0  0  0  0  0  0  0
   82.5949  152.6250   14.5996 C   0  0  0  0  0  0  0  0  0  0  0  0
   84.3187  151.2635   15.2698 C   0  0  2  0  0  0  0  0  0  0  0  0
   82.1564  151.2238   14.8372 C   0  0  1  0  0  0  0  0  0  0  0  0
   83.3706  150.5300   14.4740 N   0  0  0  0  0  0  0  0  0  0  0  0
   83.7028  151.0742   16.6429 C   0  0  2  0  0  0  0  0  0  0  0  0
   82.2040  151.0278   16.3383 C   0  0  2  0  0  0  0  0  0  0  0  0
   83.5090  149.4617   13.5952 C   0  0  0  0  0  0  0  0  0  0  0  0
   84.0085  152.1658   17.4333 O   0  0  0  0  0  0  0  0  0  0  0  0
   81.7095  149.7823   16.6432 O   0  0  0  0  0  0  0  0  0  0  0  0
   84.6492  148.9346   13.3592 O   0  0  0  0  0  0  0  0  0  0  0  0
   84.8358  156.0479   11.8576 O   0  0  0  0  0  0  0  0  0  0  0  0
   84.8596  156.7674   12.8945 C   0  0  0  0  0  0  0  0  0  0  0  0
   84.6886  156.1945   14.1843 N   0  0  0  0  0  0  0  0  0  0  0  0
   85.0589  158.1799   12.8050 N   0  0  0  0  0  0  0  0  0  0  0  0
   85.2664  156.8774   15.3207 C   0  0  0  0  0  0  0  0  0  0  0  0
   85.0770  158.9445   14.0049 C   0  0  0  0  0  0  0  0  0  0  0  0
   84.8587  158.3304   15.3309 C   0  0  0  0  0  0  0  0  0  0  0  0
   85.2861  160.1982   13.9577 O   0  0  0  0  0  0  0  0  0  0  0  0
   82.4554  148.8729   12.9026 O   0  0  0  0  0  0  0  0  0  0  0  0
   81.6562  147.8492   13.4052 C   0  0  0  0  0  0  0  0  0  0  0  0
   82.2913  147.0983   14.5484 C   0  0  0  0  0  0  0  0  0  0  0  0
   80.2698  148.2908   13.7966 C   0  0  0  0  0  0  0  0  0  0  0  0
   81.4808  146.8243   12.2758 C   0  0  0  0  0  0  0  0  0  0  0  0
 16 17  2  0
 17 18  1  0
 17 19  1  0
 18  1  1  0
 18 20  1  0
 19 21  1  0
  1  2  4  0
  1  3  4  0
 20 22  1  0
 21 23  2  0
 21 22  1  0
  2  4  4  0
  3  5  4  0
  4  6  4  0
  5  6  4  0
  7  4  1  6
  7  9  1  0
  7 10  1  0
  8  6  1  1
  8 11  1  0
  8  9  1  0
  9 12  1  0
 10 13  1  1
 10 11  1  0
 11 14  1  6
 12 15  2  0
 12 24  1  0
 24 25  1  0
 25 26  1  0
 25 27  1  0
 25 28  1  0
M  END
>  <SMILES_stereo>  (14) 
CC(C)(C)OC(=O)N1[C@@H]2c3ccc(N4CCC(=O)NC4=O)cc3[C@H]1[C@@H](O)[C@@H]2O

>  <Docking_Affinity_kcal_mol>  (14) 
-8.67

>  <CNN_Affinity>  (14) 
7.097

>  <CNN_Pose_Score>  (14) 
0.8525

>  <N_Docking_Poses>  (14) 
5

>  <MMGBSA_dG_kcal_mol>  (14) 
-30.6559

>  <MMGBSA_dG_std>  (14) 
0.0000

>  <MMGBSA_VdW_kcal_mol>  (14) 
65824.9824

>  <MMGBSA_EEL_kcal_mol>  (14) 
-24434.1644

>  <MMGBSA_EGB_kcal_mol>  (14) 
-6173.0287

>  <MMGBSA_ESURF_kcal_mol>  (14) 
140.6380

>  <Interacting_Residues>  (14) 
HID355, HID359, HID380, PHE404, TRP382, TRP388, TRP402

>  <HBond_Residues>  (14) 
HID355, HID380, TRP402

>  <Hydrophobic_Residues>  (14) 
HID355, PHE404, TRP382, TRP388, TRP402

>  <PiStacking_Residues>  (14) 
HID359, TRP382, TRP388, TRP402

>  <N_Interactions>  (14) 
13

$$$$
Compound_4_s8
     RDKit          3D

 28 31  0  0  0  0  0  0  0  0999 V2000
   84.3676  154.8764   14.3062 C   0  0  0  0  0  0  0  0  0  0  0  0
   85.0701  153.6869   14.4213 C   0  0  0  0  0  0  0  0  0  0  0  0
   82.9943  154.7512   14.2636 C   0  0  0  0  0  0  0  0  0  0  0  0
   84.4612  152.4396   14.4919 C   0  0  0  0  0  0  0  0  0  0  0  0
   82.3571  153.5131   14.3321 C   0  0  0  0  0  0  0  0  0  0  0  0
   83.0829  152.3575   14.4461 C   0  0  0  0  0  0  0  0  0  0  0  0
   84.9443  151.0411   14.6142 C   0  0  1  0  0  0  0  0  0  0  0  0
   82.7435  150.9046   14.5431 C   0  0  2  0  0  0  0  0  0  0  0  0
   83.8526  150.4812   15.3969 N   0  0  0  0  0  0  0  0  0  0  0  0
   84.6623  150.3869   13.2813 C   0  0  2  0  0  0  0  0  0  0  0  0
   83.1439  150.2343   13.2493 C   0  0  2  0  0  0  0  0  0  0  0  0
   83.8550  149.7532   16.6071 C   0  0  0  0  0  0  0  0  0  0  0  0
   85.2997  149.1654   13.1471 O   0  0  0  0  0  0  0  0  0  0  0  0
   82.5857  150.8251   12.1368 O   0  0  0  0  0  0  0  0  0  0  0  0
   84.9608  149.5088   17.1630 O   0  0  0  0  0  0  0  0  0  0  0  0
   85.8212  156.0155   12.0751 O   0  0  0  0  0  0  0  0  0  0  0  0
   85.4733  156.7144   13.0413 C   0  0  0  0  0  0  0  0  0  0  0  0
   85.0307  156.1288   14.2599 N   0  0  0  0  0  0  0  0  0  0  0  0
   85.5074  158.1495   12.9640 N   0  0  0  0  0  0  0  0  0  0  0  0
   85.2787  156.9299   15.4414 C   0  0  0  0  0  0  0  0  0  0  0  0
   85.1089  158.9325   14.0803 C   0  0  0  0  0  0  0  0  0  0  0  0
   84.5335  158.2545   15.2592 C   0  0  0  0  0  0  0  0  0  0  0  0
   85.2712  160.1745   13.9990 O   0  0  0  0  0  0  0  0  0  0  0  0
   82.7233  149.2915   17.2213 O   0  0  0  0  0  0  0  0  0  0  0  0
   81.9409  150.0118   18.1279 C   0  0  0  0  0  0  0  0  0  0  0  0
   81.2262  149.1178   19.1191 C   0  0  0  0  0  0  0  0  0  0  0  0
   80.9696  150.9526   17.4383 C   0  0  0  0  0  0  0  0  0  0  0  0
   82.8863  150.8907   18.9491 C   0  0  0  0  0  0  0  0  0  0  0  0
 16 17  2  0
 17 18  1  0
 17 19  1  0
 18  1  1  0
 18 20  1  0
 19 21  1  0
  1  2  4  0
  1  3  4  0
 20 22  1  0
 21 23  2  0
 21 22  1  0
  2  4  4  0
  3  5  4  0
  4  6  4  0
  5  6  4  0
  7  4  1  6
  7  9  1  0
  7 10  1  0
  8  6  1  6
  8 11  1  0
  8  9  1  0
  9 12  1  0
 10 13  1  1
 10 11  1  0
 11 14  1  6
 12 15  2  0
 12 24  1  0
 24 25  1  0
 25 26  1  0
 25 27  1  0
 25 28  1  0
M  END
>  <SMILES_stereo>  (15) 
CC(C)(C)OC(=O)N1[C@@H]2c3cc(N4CCC(=O)NC4=O)ccc3[C@H]1[C@@H](O)[C@@H]2O

>  <Docking_Affinity_kcal_mol>  (15) 
-9.63

>  <CNN_Affinity>  (15) 
7.39

>  <CNN_Pose_Score>  (15) 
0.9507

>  <N_Docking_Poses>  (15) 
5

>  <MMGBSA_dG_kcal_mol>  (15) 
-35.6270

>  <MMGBSA_dG_std>  (15) 
0.0000

>  <MMGBSA_VdW_kcal_mol>  (15) 
65822.7767

>  <MMGBSA_EEL_kcal_mol>  (15) 
-24434.9115

>  <MMGBSA_EGB_kcal_mol>  (15) 
-6174.7468

>  <MMGBSA_ESURF_kcal_mol>  (15) 
140.3097

>  <Interacting_Residues>  (15) 
HID355, HID380, HID399, ILE390, PHE404, TRP382, TRP388, TRP402

>  <HBond_Residues>  (15) 
HID355, HID380

>  <Hydrophobic_Residues>  (15) 
HID355, HID399, ILE390, PHE404, TRP382, TRP388, TRP402

>  <PiStacking_Residues>  (15) 
TRP382, TRP388, TRP402

>  <N_Interactions>  (15) 
14

$$$$
Compound_4_s9
     RDKit          3D

 28 31  0  0  0  0  0  0  0  0999 V2000
   84.1777  154.9178   14.4076 C   0  0  0  0  0  0  0  0  0  0  0  0
   84.9232  153.8052   14.7578 C   0  0  0  0  0  0  0  0  0  0  0  0
   82.8180  154.8771   14.1957 C   0  0  0  0  0  0  0  0  0  0  0  0
   84.3043  152.5966   14.9066 C   0  0  0  0  0  0  0  0  0  0  0  0
   82.1838  153.6454   14.3467 C   0  0  0  0  0  0  0  0  0  0  0  0
   82.9319  152.5450   14.6947 C   0  0  0  0  0  0  0  0  0  0  0  0
   84.6951  151.2032   15.2595 C   0  0  2  0  0  0  0  0  0  0  0  0
   82.5172  151.1340   14.9156 C   0  0  1  0  0  0  0  0  0  0  0  0
   83.7283  150.4659   14.4732 N   0  0  0  0  0  0  0  0  0  0  0  0
   84.1257  150.9616   16.6434 C   0  0  1  0  0  0  0  0  0  0  0  0
   82.6158  150.8964   16.4060 C   0  0  1  0  0  0  0  0  0  0  0  0
   83.8218  149.4252   13.5520 C   0  0  0  0  0  0  0  0  0  0  0  0
   84.5846  149.7736   17.1958 O   0  0  0  0  0  0  0  0  0  0  0  0
   81.9965  151.9382   17.0685 O   0  0  0  0  0  0  0  0  0  0  0  0
   84.9629  148.9303   13.2559 O   0  0  0  0  0  0  0  0  0  0  0  0
   85.1358  155.9251   11.9869 O   0  0  0  0  0  0  0  0  0  0  0  0
   85.0495  156.7021   12.9731 C   0  0  0  0  0  0  0  0  0  0  0  0
   84.8236  156.1688   14.2544 N   0  0  0  0  0  0  0  0  0  0  0  0
   85.1753  158.1130   12.8228 N   0  0  0  0  0  0  0  0  0  0  0  0
   85.2691  156.9328   15.4134 C   0  0  0  0  0  0  0  0  0  0  0  0
   85.0637  158.9077   13.9925 C   0  0  0  0  0  0  0  0  0  0  0  0
   84.6775  158.3237   15.3049 C   0  0  0  0  0  0  0  0  0  0  0  0
   85.2900  160.1407   13.9528 O   0  0  0  0  0  0  0  0  0  0  0  0
   82.7483  148.8516   12.8987 O   0  0  0  0  0  0  0  0  0  0  0  0
   81.9037  147.8895   13.4648 C   0  0  0  0  0  0  0  0  0  0  0  0
   81.5836  146.7589   12.5212 C   0  0  0  0  0  0  0  0  0  0  0  0
   82.6125  147.2889   14.6625 C   0  0  0  0  0  0  0  0  0  0  0  0
   80.5979  148.4744   13.9565 C   0  0  0  0  0  0  0  0  0  0  0  0
 16 17  2  0
 17 18  1  0
 17 19  1  0
 18  1  1  0
 18 20  1  0
 19 21  1  0
  1  2  4  0
  1  3  4  0
 20 22  1  0
 21 23  2  0
 21 22  1  0
  2  4  4  0
  3  5  4  0
  4  6  4  0
  5  6  4  0
  7  4  1  6
  7  9  1  0
  7 10  1  0
  8  6  1  1
  8 11  1  0
  8  9  1  0
  9 12  1  0
 10 13  1  6
 10 11  1  0
 11 14  1  1
 12 15  2  0
 12 24  1  0
 24 25  1  0
 25 26  1  0
 25 27  1  0
 25 28  1  0
M  END
>  <SMILES_stereo>  (16) 
CC(C)(C)OC(=O)N1[C@@H]2c3ccc(N4CCC(=O)NC4=O)cc3[C@H]1[C@H](O)[C@H]2O

>  <Docking_Affinity_kcal_mol>  (16) 
-8.69

>  <CNN_Affinity>  (16) 
7.212

>  <CNN_Pose_Score>  (16) 
0.8844

>  <N_Docking_Poses>  (16) 
5

>  <MMGBSA_dG_kcal_mol>  (16) 
-32.9987

>  <MMGBSA_dG_std>  (16) 
0.0000

>  <MMGBSA_VdW_kcal_mol>  (16) 
65823.0487

>  <MMGBSA_EEL_kcal_mol>  (16) 
-24433.4218

>  <MMGBSA_EGB_kcal_mol>  (16) 
-6174.0262

>  <MMGBSA_ESURF_kcal_mol>  (16) 
140.6787

>  <Interacting_Residues>  (16) 
HID355, HID380, PHE404, TRP382, TRP388, TRP402

>  <HBond_Residues>  (16) 
HID355, HID380

>  <Hydrophobic_Residues>  (16) 
HID355, PHE404, TRP382, TRP388, TRP402

>  <PiStacking_Residues>  (16) 
TRP382, TRP388, TRP402

>  <N_Interactions>  (16) 
12

$$$$
Compound_7_ent1
     RDKit          3D

 34 36  0  0  0  0  0  0  0  0999 V2000
   86.8801  150.9519   12.4694 C   0  0  0  0  0  0  0  0  0  0  0  0
   86.2652  152.1383   12.7961 C   0  0  0  0  0  0  0  0  0  0  0  0
   87.8732  150.9794   11.5247 C   0  0  0  0  0  0  0  0  0  0  0  0
   86.5820  153.3394   12.2379 C   0  0  0  0  0  0  0  0  0  0  0  0
   88.2477  152.1693   10.9125 C   0  0  0  0  0  0  0  0  0  0  0  0
   87.5979  153.3195   11.2803 C   0  0  0  0  0  0  0  0  0  0  0  0
   85.9959  154.6237   12.5615 C   0  0  0  0  0  0  0  0  0  0  0  0
   86.6346  155.6859   12.4007 O   0  0  0  0  0  0  0  0  0  0  0  0
   84.6655  154.6957   13.0794 N   0  0  0  0  0  0  0  0  0  0  0  0
   84.0336  155.9796   13.4235 C   0  0  2  0  0  0  0  0  0  0  0  0
   84.3142  156.9776   12.3716 C   0  0  0  0  0  0  0  0  0  0  0  0
   84.3242  156.4100   14.8122 C   0  0  0  0  0  0  0  0  0  0  0  0
   84.1826  156.6124   11.1755 O   0  0  0  0  0  0  0  0  0  0  0  0
   84.7138  158.2895   12.6385 N   0  0  0  0  0  0  0  0  0  0  0  0
   85.3194  157.5389   14.9089 C   0  0  0  0  0  0  0  0  0  0  0  0
   85.0273  158.6486   13.9865 C   0  0  0  0  0  0  0  0  0  0  0  0
   85.0334  159.8658   14.2867 O   0  0  0  0  0  0  0  0  0  0  0  0
   86.4748  149.7070   13.1037 C   0  0  0  0  0  0  0  0  0  0  0  0
   86.0470  150.5403   15.6131 S   0  0  0  0  0  0  0  0  0  0  0  0
   87.4853  150.4027   15.9548 O   0  0  0  0  0  0  0  0  0  0  0  0
   85.2876  149.8718   16.7616 O   0  0  0  0  0  0  0  0  0  0  0  0
   85.5947  149.7934   14.1898 N   0  0  0  0  0  0  0  0  0  0  0  0
   85.5825  152.2621   15.6921 C   0  0  0  0  0  0  0  0  0  0  0  0
   84.2134  149.5995   13.9834 C   0  0  0  0  0  0  0  0  0  0  0  0
   84.0915  152.3996   15.9766 C   0  0  0  0  0  0  0  0  0  0  0  0
   83.5472  150.9622   13.8981 C   0  0  0  0  0  0  0  0  0  0  0  0
   83.3418  151.3838   15.2669 N   0  0  0  0  0  0  0  0  0  0  0  0
   82.3030  150.7155   15.9589 C   0  0  0  0  0  0  0  0  0  0  0  0
   81.5871  149.8222   15.4473 O   0  0  0  0  0  0  0  0  0  0  0  0
   82.0223  151.0355   17.2984 O   0  0  0  0  0  0  0  0  0  0  0  0
   81.9312  150.0251   18.2808 C   0  0  0  0  0  0  0  0  0  0  0  0
   80.5141  149.7999   18.7576 C   0  0  0  0  0  0  0  0  0  0  0  0
   82.5272  148.7273   17.7634 C   0  0  0  0  0  0  0  0  0  0  0  0
   82.8221  150.4858   19.4316 C   0  0  0  0  0  0  0  0  0  0  0  0
 19 20  2  0
 19 21  2  0
 19 22  1  0
 19 23  1  0
 22 24  1  0
 22 18  1  0
 23 25  1  0
 24 26  1  0
 18  1  1  0
 25 27  1  0
 26 27  1  0
  1  2  4  0
  1  3  4  0
 27 28  1  0
  2  4  4  0
  3  5  4  0
 28 29  2  0
 28 30  1  0
  4  7  1  0
  4  6  4  0
  5  6  4  0
 30 31  1  0
  7  8  2  0
  7  9  1  0
 31 32  1  0
 31 33  1  0
 31 34  1  0
 10  9  1  6
 10 11  1  0
 10 12  1  0
 11 13  2  0
 11 14  1  0
 12 15  1  0
 14 16  1  0
 15 16  1  0
 16 17  2  0
M  END
>  <SMILES_stereo>  (17) 
CC(C)(C)OC(=O)N1CCN(Cc2cccc(C(=O)N[C@H]3CCC(=O)NC3=O)c2)S(=O)(=O)CC1

>  <Docking_Affinity_kcal_mol>  (17) 
-8.29

>  <CNN_Affinity>  (17) 
6.869

>  <CNN_Pose_Score>  (17) 
0.8966

>  <N_Docking_Poses>  (17) 
5

>  <MMGBSA_dG_kcal_mol>  (17) 
-29.9509

>  <MMGBSA_dG_std>  (17) 
0.0000

>  <MMGBSA_VdW_kcal_mol>  (17) 
65823.9596

>  <MMGBSA_EEL_kcal_mol>  (17) 
-24460.1698

>  <MMGBSA_EGB_kcal_mol>  (17) 
-6188.5856

>  <MMGBSA_ESURF_kcal_mol>  (17) 
140.7343

>  <Interacting_Residues>  (17) 
GLU379, HID380, HID399, ILE390, PRO354, TRP382, TRP388, TRP402

>  <HBond_Residues>  (17) 
GLU379, HID380

>  <Hydrophobic_Residues>  (17) 
HID399, ILE390, PRO354, TRP382, TRP388, TRP402

>  <PiStacking_Residues>  (17) 
TRP382, TRP388

>  <N_Interactions>  (17) 
11

$$$$
Compound_7_ent2
     RDKit          3D

 34 36  0  0  0  0  0  0  0  0999 V2000
   83.9112  150.6298   13.5024 C   0  0  0  0  0  0  0  0  0  0  0  0
   84.2544  151.9612   13.5412 C   0  0  0  0  0  0  0  0  0  0  0  0
   82.7221  150.2464   14.0606 C   0  0  0  0  0  0  0  0  0  0  0  0
   83.4633  152.9223   14.1119 C   0  0  0  0  0  0  0  0  0  0  0  0
   81.8954  151.1602   14.6420 C   0  0  0  0  0  0  0  0  0  0  0  0
   82.2718  152.5006   14.6651 C   0  0  0  0  0  0  0  0  0  0  0  0
   83.7931  154.3259   14.1737 C   0  0  0  0  0  0  0  0  0  0  0  0
   82.9119  155.2199   13.9164 O   0  0  0  0  0  0  0  0  0  0  0  0
   85.0703  154.8125   14.5111 N   0  0  0  0  0  0  0  0  0  0  0  0
   85.3727  156.2485   14.5668 C   0  0  1  0  0  0  0  0  0  0  0  0
   85.6198  156.7224   13.1806 C   0  0  0  0  0  0  0  0  0  0  0  0
   84.1575  157.0308   15.0722 C   0  0  0  0  0  0  0  0  0  0  0  0
   85.9640  155.9674   12.2376 O   0  0  0  0  0  0  0  0  0  0  0  0
   85.4498  158.1117   12.9352 N   0  0  0  0  0  0  0  0  0  0  0  0
   84.6768  158.4447   15.3415 C   0  0  0  0  0  0  0  0  0  0  0  0
   85.1557  158.9777   14.0304 C   0  0  0  0  0  0  0  0  0  0  0  0
   85.2902  160.2263   13.9290 O   0  0  0  0  0  0  0  0  0  0  0  0
   84.7903  149.6497   12.8873 C   0  0  0  0  0  0  0  0  0  0  0  0
   87.1445  150.2287   11.7441 S   0  0  0  0  0  0  0  0  0  0  0  0
   86.4494  150.5083   10.4529 O   0  0  0  0  0  0  0  0  0  0  0  0
   88.0506  149.0319   11.4547 O   0  0  0  0  0  0  0  0  0  0  0  0
   86.1629  149.8296   13.0286 N   0  0  0  0  0  0  0  0  0  0  0  0
   88.2574  151.5773   12.0675 C   0  0  0  0  0  0  0  0  0  0  0  0
   86.8510  149.2901   14.1328 C   0  0  0  0  0  0  0  0  0  0  0  0
   89.3860  151.1823   12.9819 C   0  0  0  0  0  0  0  0  0  0  0  0
   87.7268  150.3621   14.7889 C   0  0  0  0  0  0  0  0  0  0  0  0
   88.9920  150.3700   14.0886 N   0  0  0  0  0  0  0  0  0  0  0  0
   89.9521  149.4420   14.5842 C   0  0  0  0  0  0  0  0  0  0  0  0
   89.7133  148.6810   15.5512 O   0  0  0  0  0  0  0  0  0  0  0  0
   91.2049  149.3581   13.9920 O   0  0  0  0  0  0  0  0  0  0  0  0
   91.6926  148.0986   13.5690 C   0  0  0  0  0  0  0  0  0  0  0  0
   92.1213  147.2457   14.7475 C   0  0  0  0  0  0  0  0  0  0  0  0
   90.5770  147.3945   12.8488 C   0  0  0  0  0  0  0  0  0  0  0  0
   92.8312  148.3450   12.6128 C   0  0  0  0  0  0  0  0  0  0  0  0
 19 20  2  0
 19 21  2  0
 19 22  1  0
 19 23  1  0
 22 24  1  0
 22 18  1  0
 23 25  1  0
 24 26  1  0
 18  1  1  0
 25 27  1  0
 26 27  1  0
  1  2  4  0
  1  3  4  0
 27 28  1  0
  2  4  4  0
  3  5  4  0
 28 29  2  0
 28 30  1  0
  4  7  1  0
  4  6  4  0
  5  6  4  0
 30 31  1  0
  7  8  2  0
  7  9  1  0
 31 32  1  0
 31 33  1  0
 31 34  1  0
 10  9  1  6
 10 11  1  0
 10 12  1  0
 11 13  2  0
 11 14  1  0
 12 15  1  0
 14 16  1  0
 15 16  1  0
 16 17  2  0
M  END
>  <SMILES_stereo>  (18) 
CC(C)(C)OC(=O)N1CCN(Cc2cccc(C(=O)N[C@@H]3CCC(=O)NC3=O)c2)S(=O)(=O)CC1

>  <Docking_Affinity_kcal_mol>  (18) 
-7.89

>  <CNN_Affinity>  (18) 
7.016

>  <CNN_Pose_Score>  (18) 
0.8314

>  <N_Docking_Poses>  (18) 
5

>  <MMGBSA_dG_kcal_mol>  (18) 
-30.6136

>  <MMGBSA_dG_std>  (18) 
0.0000

>  <MMGBSA_VdW_kcal_mol>  (18) 
65832.4631

>  <MMGBSA_EEL_kcal_mol>  (18) 
-24451.8366

>  <MMGBSA_EGB_kcal_mol>  (18) 
-6202.9705

>  <MMGBSA_ESURF_kcal_mol>  (18) 
141.5959

>  <Interacting_Residues>  (18) 
HID355, HID380, PHE404, SER381, TRP382, TRP388, TRP402

>  <HBond_Residues>  (18) 
HID380

>  <Hydrophobic_Residues>  (18) 
HID355, PHE404, SER381, TRP382, TRP388, TRP402

>  <PiStacking_Residues>  (18) 
TRP382, TRP388, TRP402

>  <N_Interactions>  (18) 
11

$$$$
Compound_8_ent1
     RDKit          3D

 27 29  0  0  0  0  0  0  0  0999 V2000
   86.9656  150.9736   13.9869 C   0  0  0  0  0  0  0  0  0  0  0  0
   86.0285  151.9581   13.6400 C   0  0  0  0  0  0  0  0  0  0  0  0
   87.1958  150.6619   15.2844 C   0  0  0  0  0  0  0  0  0  0  0  0
   85.3116  152.6395   14.5994 C   0  0  0  0  0  0  0  0  0  0  0  0
   86.4741  151.3459   16.2715 C   0  0  0  0  0  0  0  0  0  0  0  0
   85.5580  152.3091   15.9109 C   0  0  0  0  0  0  0  0  0  0  0  0
   84.3416  153.6614   14.1911 C   0  0  0  0  0  0  0  0  0  0  0  0
   83.1300  153.3429   14.0256 O   0  0  0  0  0  0  0  0  0  0  0  0
   84.6925  154.9952   13.9710 N   0  0  0  0  0  0  0  0  0  0  0  0
   83.7156  156.0196   13.5608 C   0  0  2  0  0  0  0  0  0  0  0  0
   84.2164  156.7418   12.3702 C   0  0  0  0  0  0  0  0  0  0  0  0
   83.4702  156.9155   14.7301 C   0  0  0  0  0  0  0  0  0  0  0  0
   83.7779  156.4722   11.2255 O   0  0  0  0  0  0  0  0  0  0  0  0
   85.2016  157.7425   12.5588 N   0  0  0  0  0  0  0  0  0  0  0  0
   84.7577  157.6376   15.0636 C   0  0  0  0  0  0  0  0  0  0  0  0
   85.3853  158.2596   13.8895 C   0  0  0  0  0  0  0  0  0  0  0  0
   86.1073  159.2769   14.0468 O   0  0  0  0  0  0  0  0  0  0  0  0
   87.6909  150.3332   12.8614 C   0  0  0  0  0  0  0  0  0  0  0  0
   89.0925  151.6674   11.1329 S   0  0  0  0  0  0  0  0  0  0  0  0
   90.4806  152.2405   10.8997 O   0  0  0  0  0  0  0  0  0  0  0  0
   88.0629  152.7321   11.0138 O   0  0  0  0  0  0  0  0  0  0  0  0
   88.9813  150.9126   12.6544 N   0  0  0  0  0  0  0  0  0  0  0  0
   88.7593  150.4183    9.8801 C   0  0  0  0  0  0  0  0  0  0  0  0
   89.9949  149.9427   12.9214 C   0  0  0  0  0  0  0  0  0  0  0  0
   89.6535  149.2114   10.1968 C   0  0  0  0  0  0  0  0  0  0  0  0
   91.1549  149.9158   11.9816 C   0  0  0  0  0  0  0  0  0  0  0  0
   90.8948  149.7358   10.6309 N   0  0  0  0  0  0  0  0  0  0  0  0
 19 20  2  0
 19 21  2  0
 19 22  1  0
 19 23  1  0
 22 24  1  0
 22 18  1  0
 23 25  1  0
 24 26  1  0
 18  1  1  0
 25 27  1  0
 26 27  1  0
  1  2  4  0
  1  3  4  0
  2  4  4  0
  3  5  4  0
  4  7  1  0
  4  6  4  0
  5  6  4  0
  7  8  2  0
  7  9  1  0
 10  9  1  1
 10 11  1  0
 10 12  1  0
 11 13  2  0
 11 14  1  0
 12 15  1  0
 14 16  1  0
 15 16  1  0
 16 17  2  0
M  CHG  1  27   1
M  END
>  <SMILES_stereo>  (19) 
O=C1CC[C@H](NC(=O)c2cccc(CN3CC[NH2+]CCS3(=O)=O)c2)C(=O)N1

>  <Docking_Affinity_kcal_mol>  (19) 
-6.92

>  <CNN_Affinity>  (19) 
6.521

>  <CNN_Pose_Score>  (19) 
0.7899

>  <N_Docking_Poses>  (19) 
5

>  <MMGBSA_dG_kcal_mol>  (19) 
-8.8026

>  <MMGBSA_dG_std>  (19) 
0.0000

>  <MMGBSA_VdW_kcal_mol>  (19) 
65852.1464

>  <MMGBSA_EEL_kcal_mol>  (19) 
-24517.7358

>  <MMGBSA_EGB_kcal_mol>  (19) 
-6280.6372

>  <MMGBSA_ESURF_kcal_mol>  (19) 
140.8993

>  <Interacting_Residues>  (19) 
ASN353, HID380, TRP382, TRP388, TRP402

>  <HBond_Residues>  (19) 
HID380

>  <Hydrophobic_Residues>  (19) 
ASN353, TRP382, TRP388, TRP402

>  <PiStacking_Residues>  (19) 
TRP382, TRP388

>  <N_Interactions>  (19) 
8

$$$$
Compound_8_ent2
     RDKit          3D

 27 29  0  0  0  0  0  0  0  0999 V2000
   82.1823  151.0385   14.9622 C   0  0  0  0  0  0  0  0  0  0  0  0
   82.5565  152.3602   14.9816 C   0  0  0  0  0  0  0  0  0  0  0  0
   82.5117  150.2507   13.9008 C   0  0  0  0  0  0  0  0  0  0  0  0
   83.2607  152.9143   13.9496 C   0  0  0  0  0  0  0  0  0  0  0  0
   83.2245  150.8191   12.8603 C   0  0  0  0  0  0  0  0  0  0  0  0
   83.6037  152.1544   12.8777 C   0  0  0  0  0  0  0  0  0  0  0  0
   83.6370  154.3328   14.0173 C   0  0  0  0  0  0  0  0  0  0  0  0
   82.7158  155.2085   13.8851 O   0  0  0  0  0  0  0  0  0  0  0  0
   84.9370  154.8050   14.2168 N   0  0  0  0  0  0  0  0  0  0  0  0
   85.1869  156.2259   14.2655 C   0  0  1  0  0  0  0  0  0  0  0  0
   85.3057  156.8185   12.9107 C   0  0  0  0  0  0  0  0  0  0  0  0
   84.1012  156.9754   14.9951 C   0  0  0  0  0  0  0  0  0  0  0  0
   85.4368  156.1581   11.8500 O   0  0  0  0  0  0  0  0  0  0  0  0
   85.2663  158.2340   12.8289 N   0  0  0  0  0  0  0  0  0  0  0  0
   84.6560  158.3753   15.2725 C   0  0  0  0  0  0  0  0  0  0  0  0
   85.1557  158.9974   14.0229 C   0  0  0  0  0  0  0  0  0  0  0  0
   85.4744  160.2027   14.0483 O   0  0  0  0  0  0  0  0  0  0  0  0
   81.4218  150.5241   16.1225 C   0  0  0  0  0  0  0  0  0  0  0  0
   79.2128  150.1733   17.3906 S   0  0  0  0  0  0  0  0  0  0  0  0
   78.7271  151.4344   18.0173 O   0  0  0  0  0  0  0  0  0  0  0  0
   80.1262  149.3936   18.2960 O   0  0  0  0  0  0  0  0  0  0  0  0
   79.9867  150.5544   15.9204 N   0  0  0  0  0  0  0  0  0  0  0  0
   77.7589  149.1944   16.9888 C   0  0  0  0  0  0  0  0  0  0  0  0
   79.6618  149.6849   14.8358 C   0  0  0  0  0  0  0  0  0  0  0  0
   76.8051  150.0705   16.2063 C   0  0  0  0  0  0  0  0  0  0  0  0
   78.2603  149.8663   14.3146 C   0  0  0  0  0  0  0  0  0  0  0  0
   77.5236  150.7754   15.1662 N   0  0  0  0  0  0  0  0  0  0  0  0
 19 20  2  0
 19 21  2  0
 19 22  1  0
 19 23  1  0
 22 24  1  0
 22 18  1  0
 23 25  1  0
 24 26  1  0
 18  1  1  0
 25 27  1  0
 26 27  1  0
  1  2  4  0
  1  3  4  0
  2  4  4  0
  3  5  4  0
  4  7  1  0
  4  6  4  0
  5  6  4  0
  7  8  2  0
  7  9  1  0
 10  9  1  6
 10 11  1  0
 10 12  1  0
 11 13  2  0
 11 14  1  0
 12 15  1  0
 14 16  1  0
 15 16  1  0
 16 17  2  0
M  CHG  1  27   1
M  END
>  <SMILES_stereo>  (20) 
O=C1CC[C@@H](NC(=O)c2cccc(CN3CC[NH2+]CCS3(=O)=O)c2)C(=O)N1

>  <Docking_Affinity_kcal_mol>  (20) 
-9.6

>  <CNN_Affinity>  (20) 
6.939

>  <CNN_Pose_Score>  (20) 
0.9038

>  <N_Docking_Poses>  (20) 
5

>  <MMGBSA_dG_kcal_mol>  (20) 
-13.2072

>  <MMGBSA_dG_std>  (20) 
0.0000

>  <MMGBSA_VdW_kcal_mol>  (20) 
65833.2532

>  <MMGBSA_EEL_kcal_mol>  (20) 
-24486.2624

>  <MMGBSA_EGB_kcal_mol>  (20) 
-6288.2115

>  <MMGBSA_ESURF_kcal_mol>  (20) 
140.4274

>  <Interacting_Residues>  (20) 
ASN353, HID355, HID359, HID380, HID399, PHE404, SER381, TRP382, TRP388, TRP402, TYR357

>  <HBond_Residues>  (20) 
HID359, HID380, HID399

>  <Hydrophobic_Residues>  (20) 
ASN353, PHE404, SER381, TRP382, TRP388, TRP402, TYR357

>  <PiStacking_Residues>  (20) 
HID355, HID359, TRP382, TRP388, TYR357

>  <N_Interactions>  (20) 
16

$$$$
Compound_9_ent1
     RDKit          3D

 33 35  0  0  0  0  0  0  0  0999 V2000
   80.8721  150.2191   17.1834 C   0  0  0  0  0  0  0  0  0  0  0  0
   79.6077  150.7372   17.3568 C   0  0  0  0  0  0  0  0  0  0  0  0
   80.9259  148.8824   16.7715 C   0  0  0  0  0  0  0  0  0  0  0  0
   78.4695  149.9905   17.1391 C   0  0  0  0  0  0  0  0  0  0  0  0
   79.8100  148.1304   16.5522 C   0  0  0  0  0  0  0  0  0  0  0  0
   78.5364  148.6828   16.7362 C   0  0  0  0  0  0  0  0  0  0  0  0
   77.1720  150.6067   17.3424 C   0  0  0  0  0  0  0  0  0  0  0  0
   76.2841  150.6056   16.4269 O   0  0  0  0  0  0  0  0  0  0  0  0
   76.7826  151.2489   18.5469 N   0  0  0  0  0  0  0  0  0  0  0  0
   75.4532  151.8600   18.7016 C   0  0  2  0  0  0  0  0  0  0  0  0
   75.6148  153.0364   19.5653 C   0  0  0  0  0  0  0  0  0  0  0  0
   74.4681  150.8410   19.2358 C   0  0  0  0  0  0  0  0  0  0  0  0
   75.7296  154.2184   19.1105 O   0  0  0  0  0  0  0  0  0  0  0  0
   75.6429  152.8286   20.9843 N   0  0  0  0  0  0  0  0  0  0  0  0
   74.5456  150.6090   20.7018 C   0  0  0  0  0  0  0  0  0  0  0  0
   75.4286  151.5066   21.4427 C   0  0  0  0  0  0  0  0  0  0  0  0
   75.9980  151.1166   22.4823 O   0  0  0  0  0  0  0  0  0  0  0  0
   82.1259  150.9873   17.4002 C   0  0  0  0  0  0  0  0  0  0  0  0
   84.1056  150.6959   15.7784 S   0  0  0  0  0  0  0  0  0  0  0  0
   84.8848  150.3997   17.0557 O   0  0  0  0  0  0  0  0  0  0  0  0
   83.8810  149.3257   15.1481 O   0  0  0  0  0  0  0  0  0  0  0  0
   82.6700  151.3863   16.1547 N   0  0  0  0  0  0  0  0  0  0  0  0
   85.1963  151.5754   14.7193 C   0  0  0  0  0  0  0  0  0  0  0  0
   82.0426  152.3909   15.4461 C   0  0  0  0  0  0  0  0  0  0  0  0
   85.1767  153.0357   15.1741 C   0  0  0  0  0  0  0  0  0  0  0  0
   82.7535  152.9909   14.2789 C   0  0  0  0  0  0  0  0  0  0  0  0
   83.9884  153.6264   14.6025 N   0  0  0  0  0  0  0  0  0  0  0  0
   84.0901  155.0134   14.3434 C   0  0  0  0  0  0  0  0  0  0  0  0
   83.0821  155.5882   13.8398 O   0  0  0  0  0  0  0  0  0  0  0  0
   85.3159  155.8004   14.6376 C   0  0  0  0  0  0  0  0  0  0  0  0
   85.2156  157.1602   14.1966 N   0  0  0  0  0  0  0  0  0  0  0  0
   84.4312  158.0114   15.0343 C   0  0  0  0  0  0  0  0  0  0  0  0
   84.7792  157.2734   12.8188 C   0  0  0  0  0  0  0  0  0  0  0  0
 19 20  2  0
 19 21  2  0
 19 22  1  0
 19 23  1  0
 22 24  1  0
 22 18  1  0
 23 25  1  0
 24 26  1  0
 18  1  1  0
 25 27  1  0
 26 27  1  0
  1  2  4  0
  1  3  4  0
 27 28  1  0
  2  4  4  0
  3  5  4  0
 28 29  2  0
 28 30  1  0
  4  7  1  0
  4  6  4  0
  5  6  4  0
 30 31  1  0
  7  8  2  0
  7  9  1  0
 31 32  1  0
 31 33  1  0
 10  9  1  1
 10 11  1  0
 10 12  1  0
 11 13  2  0
 11 14  1  0
 12 15  1  0
 14 16  1  0
 15 16  1  0
 16 17  2  0
M  CHG  1  31   1
M  END
>  <SMILES_stereo>  (21) 
C[NH+](C)CC(=O)N1CCN(Cc2cccc(C(=O)N[C@H]3CCC(=O)NC3=O)c2)S(=O)(=O)CC1

>  <Docking_Affinity_kcal_mol>  (21) 
-7.87

>  <CNN_Affinity>  (21) 
5.906

>  <CNN_Pose_Score>  (21) 
0.2992

>  <N_Docking_Poses>  (21) 
5

>  <MMGBSA_dG_kcal_mol>  (21) 
-19.4285

>  <MMGBSA_dG_std>  (21) 
0.0000

>  <MMGBSA_VdW_kcal_mol>  (21) 
65820.4015

>  <MMGBSA_EEL_kcal_mol>  (21) 
-24444.1623

>  <MMGBSA_EGB_kcal_mol>  (21) 
-6288.1126

>  <MMGBSA_ESURF_kcal_mol>  (21) 
140.3511

>  <Interacting_Residues>  (21) 
ASN353, ASN398, HID359, HID399, TRP382, TRP388, TRP402

>  <HBond_Residues>  (21) 
ASN398, HID359, HID399

>  <Hydrophobic_Residues>  (21) 
ASN353, HID359, HID399, TRP382, TRP388, TRP402

>  <PiStacking_Residues>  (21) 
HID359, HID399, TRP382, TRP388, TRP402

>  <N_Interactions>  (21) 
17

$$$$
Compound_9_ent2
     RDKit          3D

 33 35  0  0  0  0  0  0  0  0999 V2000
   82.4104  150.3827   15.6561 C   0  0  0  0  0  0  0  0  0  0  0  0
   83.4163  151.2699   15.3570 C   0  0  0  0  0  0  0  0  0  0  0  0
   81.1047  150.8584   15.6705 C   0  0  0  0  0  0  0  0  0  0  0  0
   83.2025  152.6034   15.0707 C   0  0  0  0  0  0  0  0  0  0  0  0
   80.8587  152.1798   15.3902 C   0  0  0  0  0  0  0  0  0  0  0  0
   81.9058  153.0567   15.0895 C   0  0  0  0  0  0  0  0  0  0  0  0
   84.3093  153.4995   14.7625 C   0  0  0  0  0  0  0  0  0  0  0  0
   85.4832  153.2337   15.1848 O   0  0  0  0  0  0  0  0  0  0  0  0
   84.1721  154.6764   14.0067 N   0  0  0  0  0  0  0  0  0  0  0  0
   85.3238  155.5251   13.7372 C   0  0  1  0  0  0  0  0  0  0  0  0
   85.0980  156.3628   12.5417 C   0  0  0  0  0  0  0  0  0  0  0  0
   85.5297  156.3633   14.9836 C   0  0  0  0  0  0  0  0  0  0  0  0
   84.9132  155.8152   11.4359 O   0  0  0  0  0  0  0  0  0  0  0  0
   85.0864  157.7766   12.6196 N   0  0  0  0  0  0  0  0  0  0  0  0
   84.5384  157.5172   15.0313 C   0  0  0  0  0  0  0  0  0  0  0  0
   84.8437  158.3970   13.8755 C   0  0  0  0  0  0  0  0  0  0  0  0
   84.8802  159.6422   14.0273 O   0  0  0  0  0  0  0  0  0  0  0  0
   82.7008  148.9441   15.9555 C   0  0  0  0  0  0  0  0  0  0  0  0
   85.0998  147.9335   16.1244 S   0  0  0  0  0  0  0  0  0  0  0  0
   84.9604  148.2976   17.5741 O   0  0  0  0  0  0  0  0  0  0  0  0
   85.1718  146.4262   16.0606 O   0  0  0  0  0  0  0  0  0  0  0  0
   83.8123  148.4878   15.2408 N   0  0  0  0  0  0  0  0  0  0  0  0
   86.6726  148.5411   15.5786 C   0  0  0  0  0  0  0  0  0  0  0  0
   83.7840  148.3949   13.8542 C   0  0  0  0  0  0  0  0  0  0  0  0
   86.3874  149.8665   14.9043 C   0  0  0  0  0  0  0  0  0  0  0  0
   85.0809  148.5042   13.1214 C   0  0  0  0  0  0  0  0  0  0  0  0
   85.9265  149.5748   13.5710 N   0  0  0  0  0  0  0  0  0  0  0  0
   86.3751  150.4772   12.5833 C   0  0  0  0  0  0  0  0  0  0  0  0
   86.0224  150.3012   11.3710 O   0  0  0  0  0  0  0  0  0  0  0  0
   87.2437  151.6409   12.8477 C   0  0  0  0  0  0  0  0  0  0  0  0
   87.9293  152.1140   11.6872 N   0  0  0  0  0  0  0  0  0  0  0  0
   89.2843  151.6787   11.5584 C   0  0  0  0  0  0  0  0  0  0  0  0
   87.6945  153.4839   11.3610 C   0  0  0  0  0  0  0  0  0  0  0  0
 19 20  2  0
 19 21  2  0
 19 22  1  0
 19 23  1  0
 22 24  1  0
 22 18  1  0
 23 25  1  0
 24 26  1  0
 18  1  1  0
 25 27  1  0
 26 27  1  0
  1  2  4  0
  1  3  4  0
 27 28  1  0
  2  4  4  0
  3  5  4  0
 28 29  2  0
 28 30  1  0
  4  7  1  0
  4  6  4  0
  5  6  4  0
 30 31  1  0
  7  8  2  0
  7  9  1  0
 31 32  1  0
 31 33  1  0
 10  9  1  1
 10 11  1  0
 10 12  1  0
 11 13  2  0
 11 14  1  0
 12 15  1  0
 14 16  1  0
 15 16  1  0
 16 17  2  0
M  CHG  1  31   1
M  END
>  <SMILES_stereo>  (22) 
C[NH+](C)CC(=O)N1CCN(Cc2cccc(C(=O)N[C@@H]3CCC(=O)NC3=O)c2)S(=O)(=O)CC1

>  <Docking_Affinity_kcal_mol>  (22) 
-7.22

>  <CNN_Affinity>  (22) 
6.741

>  <CNN_Pose_Score>  (22) 
0.6437

>  <N_Docking_Poses>  (22) 
5

>  <MMGBSA_dG_kcal_mol>  (22) 
-11.6335

>  <MMGBSA_dG_std>  (22) 
0.0000

>  <MMGBSA_VdW_kcal_mol>  (22) 
65825.4941

>  <MMGBSA_EEL_kcal_mol>  (22) 
-24449.1223

>  <MMGBSA_EGB_kcal_mol>  (22) 
-6290.5063

>  <MMGBSA_ESURF_kcal_mol>  (22) 
140.7928

>  <Interacting_Residues>  (22) 
HID355, HID359, HID380, PRO354, TRP382, TRP388, TRP402

>  <HBond_Residues>  (22) 
HID380

>  <Hydrophobic_Residues>  (22) 
HID355, PRO354, TRP382, TRP388, TRP402

>  <PiStacking_Residues>  (22) 
HID359, TRP382, TRP388, TRP402

>  <N_Interactions>  (22) 
11

$$$$
