Compound_10_ent1
     RDKit          2D

 37 40  0  0  0  0  0  0  0  0999 V2000
   -0.0592    1.1807    0.0000 C   0  0  0  0  0  0  0  0  0  0  0  0
   -0.8566   -0.3125    0.0000 S   0  0  0  0  0  0  0  0  0  0  0  0
    0.1008   -0.0227    0.0000 O   0  0  0  0  0  0  0  0  0  0  0  0
   -0.3598   -1.1817    0.0000 O   0  0  0  0  0  0  0  0  0  0  0  0
   -0.9272    0.6837    0.0000 N   0  0  0  0  0  0  0  0  0  0  0  0
   -1.5920   -0.9913    0.0000 C   0  0  0  0  0  0  0  0  0  0  0  0
   -1.7510    1.2519    0.0000 C   0  0  0  0  0  0  0  0  0  0  0  0
   -2.5802   -0.8365    0.0000 C   0  0  0  0  0  0  0  0  0  0  0  0
   -2.7076    0.9589    0.0000 C   0  0  0  0  0  0  0  0  0  0  0  0
   -3.0786    0.0305    0.0000 N   0  0  0  0  0  0  0  0  0  0  0  0
   -4.0750   -0.0401    0.0000 C   0  0  0  0  0  0  0  0  0  0  0  0
   -4.6350    0.7883    0.0000 O   0  0  0  0  0  0  0  0  0  0  0  0
   -4.5122   -0.9393    0.0000 C   0  0  0  0  0  0  0  0  0  0  0  0
   -5.5096   -1.0101    0.0000 O   0  0  0  0  0  0  0  0  0  0  0  0
   -5.9462   -1.9087    0.0000 C   0  0  0  0  0  0  0  0  0  0  0  0
   -6.9460   -1.9797    0.0000 C   0  0  0  0  0  0  0  0  0  0  0  0
   -5.3882   -2.7379    0.0000 C   0  0  0  0  0  0  0  0  0  0  0  0
   -7.3814   -2.8793    0.0000 C   0  0  0  0  0  0  0  0  0  0  0  0
   -5.8236   -3.6373    0.0000 C   0  0  0  0  0  0  0  0  0  0  0  0
   -6.8236   -3.7083    0.0000 C   0  0  0  0  0  0  0  0  0  0  0  0
    0.8038    0.6771    0.0000 C   0  0  0  0  0  0  0  0  0  0  0  0
    1.6728    1.1731    0.0000 C   0  0  0  0  0  0  0  0  0  0  0  0
    0.8006   -0.3227    0.0000 C   0  0  0  0  0  0  0  0  0  0  0  0
    2.5372    0.6713    0.0000 C   0  0  0  0  0  0  0  0  0  0  0  0
    1.6638   -0.8269    0.0000 C   0  0  0  0  0  0  0  0  0  0  0  0
    2.5314   -0.3287    0.0000 C   0  0  0  0  0  0  0  0  0  0  0  0
    3.4044    1.1675    0.0000 C   0  0  0  0  0  0  0  0  0  0  0  0
    3.4084    2.1675    0.0000 O   0  0  0  0  0  0  0  0  0  0  0  0
    4.2686    0.6641    0.0000 N   0  0  0  0  0  0  0  0  0  0  0  0
    5.1360    1.1603    0.0000 C   0  0  0  0  0  0  0  0  0  0  0  0
    6.0004    0.6573    0.0000 C   0  0  0  0  0  0  0  0  0  0  0  0
    5.1404    2.1605    0.0000 C   0  0  0  0  0  0  0  0  0  0  0  0
    5.9952   -0.3435    0.0000 O   0  0  0  0  0  0  0  0  0  0  0  0
    6.8680    1.1535    0.0000 N   0  0  0  0  0  0  0  0  0  0  0  0
    6.0080    2.6569    0.0000 C   0  0  0  0  0  0  0  0  0  0  0  0
    6.8724    2.1537    0.0000 C   0  0  0  0  0  0  0  0  0  0  0  0
    7.7396    2.6499    0.0000 O   0  0  0  0  0  0  0  0  0  0  0  0
  2  3  2  0
  2  4  2  0
  2  5  1  0
  2  6  1  0
  5  7  1  0
  5  1  1  0
  6  8  1  0
  7  9  1  0
  1 21  1  0
  8 10  1  0
  9 10  1  0
 21 22  4  0
 21 23  4  0
 10 11  1  0
 22 24  4  0
 23 25  4  0
 11 12  2  0
 11 13  1  0
 24 27  1  0
 24 26  4  0
 25 26  4  0
 13 14  1  0
 27 28  2  0
 27 29  1  0
 14 15  1  0
 15 16  4  0
 15 17  4  0
 30 29  1  1
 30 31  1  0
 30 32  1  0
 16 18  4  0
 17 19  4  0
 31 33  2  0
 31 34  1  0
 32 35  1  0
 18 20  4  0
 19 20  4  0
 34 36  1  0
 35 36  1  0
 36 37  2  0
M  END
>  <SMILES_stereo>  (1) 
O=C1CC[C@H](NC(=O)c2cccc(CN3CCN(C(=O)COc4ccccc4)CCS3(=O)=O)c2)C(=O)N1

>  <Docking_Affinity_kcal_mol>  (1) 
-9.47

>  <CNN_Affinity>  (1) 
6.68

>  <CNN_Pose_Score>  (1) 
0.5844

>  <N_Docking_Poses>  (1) 
5

>  <MMGBSA_dG_kcal_mol>  (1) 
-33.0223

>  <MMGBSA_dG_std>  (1) 
0.0000

>  <MMGBSA_VdW_kcal_mol>  (1) 
65832.9321

>  <MMGBSA_EEL_kcal_mol>  (1) 
-24464.9759

>  <MMGBSA_EGB_kcal_mol>  (1) 
-6191.4354

>  <MMGBSA_ESURF_kcal_mol>  (1) 
140.0776

>  <Interacting_Residues>  (1) 
GLU379, HID359, HID380, HID399, PHE404, SER381, TRP382, TRP388, TRP402, TYR357

>  <HBond_Residues>  (1) 
GLU379, HID380

>  <Hydrophobic_Residues>  (1) 
HID359, HID399, PHE404, SER381, TRP382, TRP388, TRP402, TYR357

>  <PiStacking_Residues>  (1) 
HID359, HID399, TRP382, TRP388

>  <N_Interactions>  (1) 
16

$$$$
Compound_10_ent2
     RDKit          2D

 37 40  0  0  0  0  0  0  0  0999 V2000
   -0.0592    1.1807    0.0000 C   0  0  0  0  0  0  0  0  0  0  0  0
   -0.8566   -0.3125    0.0000 S   0  0  0  0  0  0  0  0  0  0  0  0
    0.1008   -0.0227    0.0000 O   0  0  0  0  0  0  0  0  0  0  0  0
   -0.3598   -1.1817    0.0000 O   0  0  0  0  0  0  0  0  0  0  0  0
   -0.9272    0.6837    0.0000 N   0  0  0  0  0  0  0  0  0  0  0  0
   -1.5920   -0.9913    0.0000 C   0  0  0  0  0  0  0  0  0  0  0  0
   -1.7510    1.2519    0.0000 C   0  0  0  0  0  0  0  0  0  0  0  0
   -2.5802   -0.8365    0.0000 C   0  0  0  0  0  0  0  0  0  0  0  0
   -2.7076    0.9589    0.0000 C   0  0  0  0  0  0  0  0  0  0  0  0
   -3.0786    0.0305    0.0000 N   0  0  0  0  0  0  0  0  0  0  0  0
   -4.0750   -0.0401    0.0000 C   0  0  0  0  0  0  0  0  0  0  0  0
   -4.6350    0.7883    0.0000 O   0  0  0  0  0  0  0  0  0  0  0  0
   -4.5122   -0.9393    0.0000 C   0  0  0  0  0  0  0  0  0  0  0  0
   -5.5096   -1.0101    0.0000 O   0  0  0  0  0  0  0  0  0  0  0  0
   -5.9462   -1.9087    0.0000 C   0  0  0  0  0  0  0  0  0  0  0  0
   -6.9460   -1.9797    0.0000 C   0  0  0  0  0  0  0  0  0  0  0  0
   -5.3882   -2.7379    0.0000 C   0  0  0  0  0  0  0  0  0  0  0  0
   -7.3814   -2.8793    0.0000 C   0  0  0  0  0  0  0  0  0  0  0  0
   -5.8236   -3.6373    0.0000 C   0  0  0  0  0  0  0  0  0  0  0  0
   -6.8236   -3.7083    0.0000 C   0  0  0  0  0  0  0  0  0  0  0  0
    0.8038    0.6771    0.0000 C   0  0  0  0  0  0  0  0  0  0  0  0
    1.6728    1.1731    0.0000 C   0  0  0  0  0  0  0  0  0  0  0  0
    0.8006   -0.3227    0.0000 C   0  0  0  0  0  0  0  0  0  0  0  0
    2.5372    0.6713    0.0000 C   0  0  0  0  0  0  0  0  0  0  0  0
    1.6638   -0.8269    0.0000 C   0  0  0  0  0  0  0  0  0  0  0  0
    2.5314   -0.3287    0.0000 C   0  0  0  0  0  0  0  0  0  0  0  0
    3.4044    1.1675    0.0000 C   0  0  0  0  0  0  0  0  0  0  0  0
    3.4084    2.1675    0.0000 O   0  0  0  0  0  0  0  0  0  0  0  0
    4.2686    0.6641    0.0000 N   0  0  0  0  0  0  0  0  0  0  0  0
    5.1360    1.1603    0.0000 C   0  0  0  0  0  0  0  0  0  0  0  0
    6.0004    0.6573    0.0000 C   0  0  0  0  0  0  0  0  0  0  0  0
    5.1404    2.1605    0.0000 C   0  0  0  0  0  0  0  0  0  0  0  0
    5.9952   -0.3435    0.0000 O   0  0  0  0  0  0  0  0  0  0  0  0
    6.8680    1.1535    0.0000 N   0  0  0  0  0  0  0  0  0  0  0  0
    6.0080    2.6569    0.0000 C   0  0  0  0  0  0  0  0  0  0  0  0
    6.8724    2.1537    0.0000 C   0  0  0  0  0  0  0  0  0  0  0  0
    7.7396    2.6499    0.0000 O   0  0  0  0  0  0  0  0  0  0  0  0
  2  3  2  0
  2  4  2  0
  2  5  1  0
  2  6  1  0
  5  7  1  0
  5  1  1  0
  6  8  1  0
  7  9  1  0
  1 21  1  0
  8 10  1  0
  9 10  1  0
 21 22  4  0
 21 23  4  0
 10 11  1  0
 22 24  4  0
 23 25  4  0
 11 12  2  0
 11 13  1  0
 24 27  1  0
 24 26  4  0
 25 26  4  0
 13 14  1  0
 27 28  2  0
 27 29  1  0
 14 15  1  0
 15 16  4  0
 15 17  4  0
 30 29  1  6
 30 31  1  0
 30 32  1  0
 16 18  4  0
 17 19  4  0
 31 33  2  0
 31 34  1  0
 32 35  1  0
 18 20  4  0
 19 20  4  0
 34 36  1  0
 35 36  1  0
 36 37  2  0
M  END
>  <SMILES_stereo>  (2) 
O=C1CC[C@@H](NC(=O)c2cccc(CN3CCN(C(=O)COc4ccccc4)CCS3(=O)=O)c2)C(=O)N1

>  <Docking_Affinity_kcal_mol>  (2) 
-10.23

>  <CNN_Affinity>  (2) 
6.215

>  <CNN_Pose_Score>  (2) 
0.2336

>  <N_Docking_Poses>  (2) 
5

>  <MMGBSA_dG_kcal_mol>  (2) 
-36.0028

>  <MMGBSA_dG_std>  (2) 
0.0000

>  <MMGBSA_VdW_kcal_mol>  (2) 
65814.0436

>  <MMGBSA_EEL_kcal_mol>  (2) 
-24475.0199

>  <MMGBSA_EGB_kcal_mol>  (2) 
-6182.5613

>  <MMGBSA_ESURF_kcal_mol>  (2) 
139.8413

>  <Interacting_Residues>  (2) 
HID355, HID359, HID380, HID399, PRO354, TRP382, TRP388, TRP402

>  <HBond_Residues>  (2) 
HID355, HID399

>  <Hydrophobic_Residues>  (2) 
HID355, HID359, HID380, HID399, PRO354, TRP388

>  <PiStacking_Residues>  (2) 
HID399, TRP382, TRP388, TRP402

>  <N_Interactions>  (2) 
16

$$$$
Compound_11_ent1
     RDKit          2D

 35 38  0  0  0  0  0  0  0  0999 V2000
    0.2718    0.4545    0.0000 C   0  0  0  0  0  0  0  0  0  0  0  0
    1.1408    0.9503    0.0000 C   0  0  0  0  0  0  0  0  0  0  0  0
    0.2686   -0.5455    0.0000 C   0  0  0  0  0  0  0  0  0  0  0  0
    2.0052    0.4485    0.0000 C   0  0  0  0  0  0  0  0  0  0  0  0
    1.1318   -1.0495    0.0000 C   0  0  0  0  0  0  0  0  0  0  0  0
    1.9994   -0.5515    0.0000 C   0  0  0  0  0  0  0  0  0  0  0  0
    2.8722    0.9441    0.0000 C   0  0  0  0  0  0  0  0  0  0  0  0
    2.8764    1.9443    0.0000 O   0  0  0  0  0  0  0  0  0  0  0  0
    3.7360    0.4405    0.0000 N   0  0  0  0  0  0  0  0  0  0  0  0
    4.6026    0.9367    0.0000 C   0  0  0  0  0  0  0  0  0  0  0  0
    5.4696    0.4351    0.0000 C   0  0  0  0  0  0  0  0  0  0  0  0
    4.6080    1.9381    0.0000 C   0  0  0  0  0  0  0  0  0  0  0  0
    5.4662   -0.5655    0.0000 O   0  0  0  0  0  0  0  0  0  0  0  0
    6.3358    0.9323    0.0000 N   0  0  0  0  0  0  0  0  0  0  0  0
    5.4750    2.4345    0.0000 C   0  0  0  0  0  0  0  0  0  0  0  0
    6.3398    1.9323    0.0000 C   0  0  0  0  0  0  0  0  0  0  0  0
    7.2066    2.4291    0.0000 O   0  0  0  0  0  0  0  0  0  0  0  0
   -0.5910    0.9579    0.0000 C   0  0  0  0  0  0  0  0  0  0  0  0
   -1.3886   -0.5353    0.0000 S   0  0  0  0  0  0  0  0  0  0  0  0
   -0.4312   -0.2455    0.0000 O   0  0  0  0  0  0  0  0  0  0  0  0
   -0.8918   -1.4043    0.0000 O   0  0  0  0  0  0  0  0  0  0  0  0
   -1.4592    0.4609    0.0000 N   0  0  0  0  0  0  0  0  0  0  0  0
   -2.1240   -1.2141    0.0000 C   0  0  0  0  0  0  0  0  0  0  0  0
   -2.2830    1.0291    0.0000 C   0  0  0  0  0  0  0  0  0  0  0  0
   -3.1126   -1.0589    0.0000 C   0  0  0  0  0  0  0  0  0  0  0  0
   -3.2396    0.7363    0.0000 C   0  0  0  0  0  0  0  0  0  0  0  0
   -3.6110   -0.1921    0.0000 N   0  0  0  0  0  0  0  0  0  0  0  0
   -4.6086   -0.2611    0.0000 C   0  0  0  0  0  0  0  0  0  0  0  0
   -5.1674    0.5679    0.0000 O   0  0  0  0  0  0  0  0  0  0  0  0
   -5.0452   -1.1581    0.0000 C   0  0  0  0  0  0  0  0  0  0  0  0
   -6.0444   -1.2299    0.0000 N   0  0  0  0  0  0  0  0  0  0  0  0
   -4.4852   -1.9867    0.0000 C   0  0  0  0  0  0  0  0  0  0  0  0
   -6.4794   -2.1295    0.0000 C   0  0  0  0  0  0  0  0  0  0  0  0
   -4.9214   -2.8867    0.0000 C   0  0  0  0  0  0  0  0  0  0  0  0
   -5.9208   -2.9579    0.0000 C   0  0  0  0  0  0  0  0  0  0  0  0
 19 20  2  0
 19 21  2  0
 19 22  1  0
 19 23  1  0
 22 24  1  0
 22 18  1  0
 23 25  1  0
 24 26  1  0
 18  1  1  0
 25 27  1  0
 26 27  1  0
  1  2  4  0
  1  3  4  0
 27 28  1  0
  2  4  4  0
  3  5  4  0
 28 29  2  0
 28 30  1  0
  4  7  1  0
  4  6  4  0
  5  6  4  0
 30 31  4  0
 30 32  4  0
  7  8  2  0
  7  9  1  0
 31 33  4  0
 32 34  4  0
 33 35  4  0
 34 35  4  0
 10  9  1  1
 10 11  1  0
 10 12  1  0
 11 13  2  0
 11 14  1  0
 12 15  1  0
 14 16  1  0
 15 16  1  0
 16 17  2  0
M  END
>  <SMILES_stereo>  (3) 
O=C1CC[C@H](NC(=O)c2cccc(CN3CCN(C(=O)c4ccccn4)CCS3(=O)=O)c2)C(=O)N1

>  <Docking_Affinity_kcal_mol>  (3) 
-8.24

>  <CNN_Affinity>  (3) 
6.854

>  <CNN_Pose_Score>  (3) 
0.625

>  <N_Docking_Poses>  (3) 
5

>  <MMGBSA_dG_kcal_mol>  (3) 
9.3483

>  <MMGBSA_dG_std>  (3) 
0.0000

>  <MMGBSA_VdW_kcal_mol>  (3) 
65873.2002

>  <MMGBSA_EEL_kcal_mol>  (3) 
-24457.8877

>  <MMGBSA_EGB_kcal_mol>  (3) 
-6197.3154

>  <MMGBSA_ESURF_kcal_mol>  (3) 
140.4179

>  <Interacting_Residues>  (3) 
ASN353, HID380, HID399, ILE390, PRO354, SER373, TRP382, TRP388, TRP402

>  <HBond_Residues>  (3) 
HID380, SER373

>  <Hydrophobic_Residues>  (3) 
ASN353, ILE390, PRO354, TRP388, TRP402

>  <PiStacking_Residues>  (3) 
HID399, TRP382, TRP388, TRP402

>  <N_Interactions>  (3) 
13

$$$$
Compound_11_ent2
     RDKit          2D

 35 38  0  0  0  0  0  0  0  0999 V2000
    0.2718    0.4545    0.0000 C   0  0  0  0  0  0  0  0  0  0  0  0
    1.1408    0.9503    0.0000 C   0  0  0  0  0  0  0  0  0  0  0  0
    0.2686   -0.5455    0.0000 C   0  0  0  0  0  0  0  0  0  0  0  0
    2.0052    0.4485    0.0000 C   0  0  0  0  0  0  0  0  0  0  0  0
    1.1318   -1.0495    0.0000 C   0  0  0  0  0  0  0  0  0  0  0  0
    1.9994   -0.5515    0.0000 C   0  0  0  0  0  0  0  0  0  0  0  0
    2.8722    0.9441    0.0000 C   0  0  0  0  0  0  0  0  0  0  0  0
    2.8764    1.9443    0.0000 O   0  0  0  0  0  0  0  0  0  0  0  0
    3.7360    0.4405    0.0000 N   0  0  0  0  0  0  0  0  0  0  0  0
    4.6026    0.9367    0.0000 C   0  0  0  0  0  0  0  0  0  0  0  0
    5.4696    0.4351    0.0000 C   0  0  0  0  0  0  0  0  0  0  0  0
    4.6080    1.9381    0.0000 C   0  0  0  0  0  0  0  0  0  0  0  0
    5.4662   -0.5655    0.0000 O   0  0  0  0  0  0  0  0  0  0  0  0
    6.3358    0.9323    0.0000 N   0  0  0  0  0  0  0  0  0  0  0  0
    5.4750    2.4345    0.0000 C   0  0  0  0  0  0  0  0  0  0  0  0
    6.3398    1.9323    0.0000 C   0  0  0  0  0  0  0  0  0  0  0  0
    7.2066    2.4291    0.0000 O   0  0  0  0  0  0  0  0  0  0  0  0
   -0.5910    0.9579    0.0000 C   0  0  0  0  0  0  0  0  0  0  0  0
   -1.3886   -0.5353    0.0000 S   0  0  0  0  0  0  0  0  0  0  0  0
   -0.4312   -0.2455    0.0000 O   0  0  0  0  0  0  0  0  0  0  0  0
   -0.8918   -1.4043    0.0000 O   0  0  0  0  0  0  0  0  0  0  0  0
   -1.4592    0.4609    0.0000 N   0  0  0  0  0  0  0  0  0  0  0  0
   -2.1240   -1.2141    0.0000 C   0  0  0  0  0  0  0  0  0  0  0  0
   -2.2830    1.0291    0.0000 C   0  0  0  0  0  0  0  0  0  0  0  0
   -3.1126   -1.0589    0.0000 C   0  0  0  0  0  0  0  0  0  0  0  0
   -3.2396    0.7363    0.0000 C   0  0  0  0  0  0  0  0  0  0  0  0
   -3.6110   -0.1921    0.0000 N   0  0  0  0  0  0  0  0  0  0  0  0
   -4.6086   -0.2611    0.0000 C   0  0  0  0  0  0  0  0  0  0  0  0
   -5.1674    0.5679    0.0000 O   0  0  0  0  0  0  0  0  0  0  0  0
   -5.0452   -1.1581    0.0000 C   0  0  0  0  0  0  0  0  0  0  0  0
   -6.0444   -1.2299    0.0000 N   0  0  0  0  0  0  0  0  0  0  0  0
   -4.4852   -1.9867    0.0000 C   0  0  0  0  0  0  0  0  0  0  0  0
   -6.4794   -2.1295    0.0000 C   0  0  0  0  0  0  0  0  0  0  0  0
   -4.9214   -2.8867    0.0000 C   0  0  0  0  0  0  0  0  0  0  0  0
   -5.9208   -2.9579    0.0000 C   0  0  0  0  0  0  0  0  0  0  0  0
 19 20  2  0
 19 21  2  0
 19 22  1  0
 19 23  1  0
 22 24  1  0
 22 18  1  0
 23 25  1  0
 24 26  1  0
 18  1  1  0
 25 27  1  0
 26 27  1  0
  1  2  4  0
  1  3  4  0
 27 28  1  0
  2  4  4  0
  3  5  4  0
 28 29  2  0
 28 30  1  0
  4  7  1  0
  4  6  4  0
  5  6  4  0
 30 31  4  0
 30 32  4  0
  7  8  2  0
  7  9  1  0
 31 33  4  0
 32 34  4  0
 33 35  4  0
 34 35  4  0
 10  9  1  6
 10 11  1  0
 10 12  1  0
 11 13  2  0
 11 14  1  0
 12 15  1  0
 14 16  1  0
 15 16  1  0
 16 17  2  0
M  END
>  <SMILES_stereo>  (4) 
O=C1CC[C@@H](NC(=O)c2cccc(CN3CCN(C(=O)c4ccccn4)CCS3(=O)=O)c2)C(=O)N1

>  <Docking_Affinity_kcal_mol>  (4) 
-8.59

>  <CNN_Affinity>  (4) 
6.489

>  <CNN_Pose_Score>  (4) 
0.4683

>  <N_Docking_Poses>  (4) 
5

>  <MMGBSA_dG_kcal_mol>  (4) 
-30.2705

>  <MMGBSA_dG_std>  (4) 
0.0000

>  <MMGBSA_VdW_kcal_mol>  (4) 
65885.3222

>  <MMGBSA_EEL_kcal_mol>  (4) 
-24471.1373

>  <MMGBSA_EGB_kcal_mol>  (4) 
-6193.0115

>  <MMGBSA_ESURF_kcal_mol>  (4) 
140.8452

>  <Interacting_Residues>  (4) 
ASN353, GLN392, GLY397, HID399, ILE390, TRP382, TRP388, TRP402

>  <HBond_Residues>  (4) 
GLN392, GLY397, HID399

>  <Hydrophobic_Residues>  (4) 
ASN353, HID399, ILE390, TRP388, TRP402

>  <PiStacking_Residues>  (4) 
HID399, TRP382, TRP402

>  <N_Interactions>  (4) 
12

$$$$
Compound_12_ent1
     RDKit          2D

 38 41  0  0  0  0  0  0  0  0999 V2000
   -0.4541   -0.3819    0.0000 S   0  0  0  0  0  0  0  0  0  0  0  0
    0.5033   -0.0919    0.0000 O   0  0  0  0  0  0  0  0  0  0  0  0
    0.0427   -1.2509    0.0000 O   0  0  0  0  0  0  0  0  0  0  0  0
   -0.5247    0.6143    0.0000 N   0  0  0  0  0  0  0  0  0  0  0  0
   -1.1895   -1.0607    0.0000 C   0  0  0  0  0  0  0  0  0  0  0  0
   -1.3485    1.1825    0.0000 C   0  0  0  0  0  0  0  0  0  0  0  0
   -2.1779   -0.9057    0.0000 C   0  0  0  0  0  0  0  0  0  0  0  0
   -2.3051    0.8897    0.0000 C   0  0  0  0  0  0  0  0  0  0  0  0
   -2.6761   -0.0389    0.0000 N   0  0  0  0  0  0  0  0  0  0  0  0
   -3.6725   -0.1095    0.0000 C   0  0  0  0  0  0  0  0  0  0  0  0
   -4.2325    0.7189    0.0000 O   0  0  0  0  0  0  0  0  0  0  0  0
    0.3433    1.1113    0.0000 C   0  0  0  0  0  0  0  0  0  0  0  0
    1.2063    0.6079    0.0000 C   0  0  0  0  0  0  0  0  0  0  0  0
    2.0753    1.1037    0.0000 C   0  0  0  0  0  0  0  0  0  0  0  0
    1.2031   -0.3921    0.0000 C   0  0  0  0  0  0  0  0  0  0  0  0
    2.9397    0.6019    0.0000 C   0  0  0  0  0  0  0  0  0  0  0  0
    2.0663   -0.8963    0.0000 C   0  0  0  0  0  0  0  0  0  0  0  0
    2.9339   -0.3981    0.0000 C   0  0  0  0  0  0  0  0  0  0  0  0
    3.8069    1.0981    0.0000 C   0  0  0  0  0  0  0  0  0  0  0  0
    3.8107    2.0981    0.0000 O   0  0  0  0  0  0  0  0  0  0  0  0
    4.6711    0.5947    0.0000 N   0  0  0  0  0  0  0  0  0  0  0  0
    5.5385    1.0909    0.0000 C   0  0  0  0  0  0  0  0  0  0  0  0
    6.4029    0.5879    0.0000 C   0  0  0  0  0  0  0  0  0  0  0  0
    5.5429    2.0911    0.0000 C   0  0  0  0  0  0  0  0  0  0  0  0
    6.3977   -0.4129    0.0000 O   0  0  0  0  0  0  0  0  0  0  0  0
    7.2705    1.0843    0.0000 N   0  0  0  0  0  0  0  0  0  0  0  0
    6.4105    2.5875    0.0000 C   0  0  0  0  0  0  0  0  0  0  0  0
    7.2749    2.0845    0.0000 C   0  0  0  0  0  0  0  0  0  0  0  0
    8.1421    2.5805    0.0000 O   0  0  0  0  0  0  0  0  0  0  0  0
   -4.1101   -1.0087    0.0000 C   0  0  0  0  0  0  0  0  0  0  0  0
   -5.1075   -1.0795    0.0000 C   0  0  0  0  0  0  0  0  0  0  0  0
   -5.5449   -1.9787    0.0000 O   0  0  0  0  0  0  0  0  0  0  0  0
   -6.5433   -2.0495    0.0000 C   0  0  0  0  0  0  0  0  0  0  0  0
   -7.1011   -1.2203    0.0000 C   0  0  0  0  0  0  0  0  0  0  0  0
   -6.9787   -2.9489    0.0000 C   0  0  0  0  0  0  0  0  0  0  0  0
   -8.1011   -1.2913    0.0000 C   0  0  0  0  0  0  0  0  0  0  0  0
   -7.9785   -3.0199    0.0000 C   0  0  0  0  0  0  0  0  0  0  0  0
   -8.5365   -2.1907    0.0000 C   0  0  0  0  0  0  0  0  0  0  0  0
  1  2  2  0
  1  3  2  0
  1  4  1  0
  1  5  1  0
  4  6  1  0
  4 12  1  0
  5  7  1  0
  6  8  1  0
 12 13  1  0
  7  9  1  0
  8  9  1  0
 13 14  4  0
 13 15  4  0
  9 10  1  0
 14 16  4  0
 15 17  4  0
 10 11  2  0
 10 30  1  0
 16 19  1  0
 16 18  4  0
 17 18  4  0
 30 31  1  0
 19 20  2  0
 19 21  1  0
 31 32  1  0
 32 33  1  0
 22 21  1  1
 22 23  1  0
 22 24  1  0
 33 34  4  0
 33 35  4  0
 23 25  2  0
 23 26  1  0
 24 27  1  0
 34 36  4  0
 35 37  4  0
 26 28  1  0
 27 28  1  0
 36 38  4  0
 37 38  4  0
 28 29  2  0
M  END
>  <SMILES_stereo>  (5) 
O=C1CC[C@H](NC(=O)c2cccc(CN3CCN(C(=O)CCOc4ccccc4)CCS3(=O)=O)c2)C(=O)N1

>  <Docking_Affinity_kcal_mol>  (5) 
-8.63

>  <CNN_Affinity>  (5) 
6.869

>  <CNN_Pose_Score>  (5) 
0.6131

>  <N_Docking_Poses>  (5) 
5

>  <MMGBSA_dG_kcal_mol>  (5) 
-29.1534

>  <MMGBSA_dG_std>  (5) 
0.0000

>  <MMGBSA_VdW_kcal_mol>  (5) 
65852.9021

>  <MMGBSA_EEL_kcal_mol>  (5) 
-24452.2434

>  <MMGBSA_EGB_kcal_mol>  (5) 
-6195.8346

>  <MMGBSA_ESURF_kcal_mol>  (5) 
141.1997

>  <Interacting_Residues>  (5) 
GLU379, HID355, HID380, ILE390, PRO354, SER381, TRP382, TRP388, TRP402

>  <HBond_Residues>  (5) 
HID380

>  <Hydrophobic_Residues>  (5) 
GLU379, HID355, ILE390, PRO354, SER381, TRP382, TRP388, TRP402

>  <PiStacking_Residues>  (5) 
HID380, TRP382, TRP388, TRP402

>  <N_Interactions>  (5) 
14

$$$$
Compound_12_ent2
     RDKit          2D

 38 41  0  0  0  0  0  0  0  0999 V2000
   -0.4541   -0.3819    0.0000 S   0  0  0  0  0  0  0  0  0  0  0  0
    0.5033   -0.0919    0.0000 O   0  0  0  0  0  0  0  0  0  0  0  0
    0.0427   -1.2509    0.0000 O   0  0  0  0  0  0  0  0  0  0  0  0
   -0.5247    0.6143    0.0000 N   0  0  0  0  0  0  0  0  0  0  0  0
   -1.1895   -1.0607    0.0000 C   0  0  0  0  0  0  0  0  0  0  0  0
   -1.3485    1.1825    0.0000 C   0  0  0  0  0  0  0  0  0  0  0  0
   -2.1779   -0.9057    0.0000 C   0  0  0  0  0  0  0  0  0  0  0  0
   -2.3051    0.8897    0.0000 C   0  0  0  0  0  0  0  0  0  0  0  0
   -2.6761   -0.0389    0.0000 N   0  0  0  0  0  0  0  0  0  0  0  0
   -3.6725   -0.1095    0.0000 C   0  0  0  0  0  0  0  0  0  0  0  0
   -4.2325    0.7189    0.0000 O   0  0  0  0  0  0  0  0  0  0  0  0
    0.3433    1.1113    0.0000 C   0  0  0  0  0  0  0  0  0  0  0  0
    1.2063    0.6079    0.0000 C   0  0  0  0  0  0  0  0  0  0  0  0
    2.0753    1.1037    0.0000 C   0  0  0  0  0  0  0  0  0  0  0  0
    1.2031   -0.3921    0.0000 C   0  0  0  0  0  0  0  0  0  0  0  0
    2.9397    0.6019    0.0000 C   0  0  0  0  0  0  0  0  0  0  0  0
    2.0663   -0.8963    0.0000 C   0  0  0  0  0  0  0  0  0  0  0  0
    2.9339   -0.3981    0.0000 C   0  0  0  0  0  0  0  0  0  0  0  0
    3.8069    1.0981    0.0000 C   0  0  0  0  0  0  0  0  0  0  0  0
    3.8107    2.0981    0.0000 O   0  0  0  0  0  0  0  0  0  0  0  0
    4.6711    0.5947    0.0000 N   0  0  0  0  0  0  0  0  0  0  0  0
    5.5385    1.0909    0.0000 C   0  0  0  0  0  0  0  0  0  0  0  0
    6.4029    0.5879    0.0000 C   0  0  0  0  0  0  0  0  0  0  0  0
    5.5429    2.0911    0.0000 C   0  0  0  0  0  0  0  0  0  0  0  0
    6.3977   -0.4129    0.0000 O   0  0  0  0  0  0  0  0  0  0  0  0
    7.2705    1.0843    0.0000 N   0  0  0  0  0  0  0  0  0  0  0  0
    6.4105    2.5875    0.0000 C   0  0  0  0  0  0  0  0  0  0  0  0
    7.2749    2.0845    0.0000 C   0  0  0  0  0  0  0  0  0  0  0  0
    8.1421    2.5805    0.0000 O   0  0  0  0  0  0  0  0  0  0  0  0
   -4.1101   -1.0087    0.0000 C   0  0  0  0  0  0  0  0  0  0  0  0
   -5.1075   -1.0795    0.0000 C   0  0  0  0  0  0  0  0  0  0  0  0
   -5.5449   -1.9787    0.0000 O   0  0  0  0  0  0  0  0  0  0  0  0
   -6.5433   -2.0495    0.0000 C   0  0  0  0  0  0  0  0  0  0  0  0
   -7.1011   -1.2203    0.0000 C   0  0  0  0  0  0  0  0  0  0  0  0
   -6.9787   -2.9489    0.0000 C   0  0  0  0  0  0  0  0  0  0  0  0
   -8.1011   -1.2913    0.0000 C   0  0  0  0  0  0  0  0  0  0  0  0
   -7.9785   -3.0199    0.0000 C   0  0  0  0  0  0  0  0  0  0  0  0
   -8.5365   -2.1907    0.0000 C   0  0  0  0  0  0  0  0  0  0  0  0
  1  2  2  0
  1  3  2  0
  1  4  1  0
  1  5  1  0
  4  6  1  0
  4 12  1  0
  5  7  1  0
  6  8  1  0
 12 13  1  0
  7  9  1  0
  8  9  1  0
 13 14  4  0
 13 15  4  0
  9 10  1  0
 14 16  4  0
 15 17  4  0
 10 11  2  0
 10 30  1  0
 16 19  1  0
 16 18  4  0
 17 18  4  0
 30 31  1  0
 19 20  2  0
 19 21  1  0
 31 32  1  0
 32 33  1  0
 22 21  1  6
 22 23  1  0
 22 24  1  0
 33 34  4  0
 33 35  4  0
 23 25  2  0
 23 26  1  0
 24 27  1  0
 34 36  4  0
 35 37  4  0
 26 28  1  0
 27 28  1  0
 36 38  4  0
 37 38  4  0
 28 29  2  0
M  END
>  <SMILES_stereo>  (6) 
O=C1CC[C@@H](NC(=O)c2cccc(CN3CCN(C(=O)CCOc4ccccc4)CCS3(=O)=O)c2)C(=O)N1

>  <Docking_Affinity_kcal_mol>  (6) 
-7.9

>  <CNN_Affinity>  (6) 
6.903

>  <CNN_Pose_Score>  (6) 
0.536

>  <N_Docking_Poses>  (6) 
5

>  <MMGBSA_dG_kcal_mol>  (6) 
-24.3203

>  <MMGBSA_dG_std>  (6) 
0.0000

>  <MMGBSA_VdW_kcal_mol>  (6) 
65820.1855

>  <MMGBSA_EEL_kcal_mol>  (6) 
-24455.7108

>  <MMGBSA_EGB_kcal_mol>  (6) 
-6191.1376

>  <MMGBSA_ESURF_kcal_mol>  (6) 
141.0535

>  <Interacting_Residues>  (6) 
HID380, ILE390, TRP382, TRP388, TRP402

>  <HBond_Residues>  (6) 
HID380, TRP402

>  <Hydrophobic_Residues>  (6) 
ILE390, TRP382, TRP388, TRP402

>  <PiStacking_Residues>  (6) 
TRP382, TRP388

>  <N_Interactions>  (6) 
9

$$$$
Compound_1_ent1
     RDKit          2D

 33 35  0  0  0  0  0  0  0  0999 V2000
    0.2151   -0.5484    0.0000 N   0  0  0  0  0  0  0  0  0  0  0  0
    1.0585   -1.0848    0.0000 C   0  0  0  0  0  0  0  0  0  0  0  0
   -0.7315   -0.8750    0.0000 C   0  0  0  0  0  0  0  0  0  0  0  0
    1.1677   -2.0784    0.0000 C   0  0  0  0  0  0  0  0  0  0  0  0
   -1.0643   -1.8182    0.0000 C   0  0  0  0  0  0  0  0  0  0  0  0
    0.4567   -2.7836    0.0000 N   0  0  0  0  0  0  0  0  0  0  0  0
   -0.5365   -2.6660    0.0000 C   0  0  0  0  0  0  0  0  0  0  0  0
    0.7833   -3.7278    0.0000 C   0  0  0  0  0  0  0  0  0  0  0  0
    1.7651   -3.9180    0.0000 O   0  0  0  0  0  0  0  0  0  0  0  0
    1.9083   -0.5560    0.0000 C   0  0  0  0  0  0  0  0  0  0  0  0
    1.8753    0.4436    0.0000 O   0  0  0  0  0  0  0  0  0  0  0  0
    2.7903   -1.0270    0.0000 O   0  0  0  0  0  0  0  0  0  0  0  0
    3.6395   -0.4988    0.0000 C   0  0  0  0  0  0  0  0  0  0  0  0
    0.3305    0.4442    0.0000 C   0  0  0  0  0  0  0  0  0  0  0  0
   -1.1581    2.6330    0.0000 C   0  0  0  0  0  0  0  0  0  0  0  0
   -0.3539    2.0344    0.0000 C   0  0  0  0  0  0  0  0  0  0  0  0
   -2.0749    2.2354    0.0000 C   0  0  0  0  0  0  0  0  0  0  0  0
   -0.4721    1.0420    0.0000 C   0  0  0  0  0  0  0  0  0  0  0  0
   -2.1929    1.2430    0.0000 C   0  0  0  0  0  0  0  0  0  0  0  0
   -1.3889    0.6444    0.0000 C   0  0  0  0  0  0  0  0  0  0  0  0
   -2.7619    3.8264    0.0000 O   0  0  0  0  0  0  0  0  0  0  0  0
   -1.8445    4.2228    0.0000 C   0  0  0  0  0  0  0  0  0  0  0  0
   -1.0405    3.6240    0.0000 N   0  0  0  0  0  0  0  0  0  0  0  0
   -1.7265    5.2150    0.0000 N   0  0  0  0  0  0  0  0  0  0  0  0
   -0.1237    4.0218    0.0000 C   0  0  0  0  0  0  0  0  0  0  0  0
   -0.8097    5.6126    0.0000 C   0  0  0  0  0  0  0  0  0  0  0  0
   -0.0055    5.0140    0.0000 C   0  0  0  0  0  0  0  0  0  0  0  0
   -0.6931    6.6052    0.0000 O   0  0  0  0  0  0  0  0  0  0  0  0
    0.1277   -4.4832    0.0000 O   0  0  0  0  0  0  0  0  0  0  0  0
    0.4539   -5.4284    0.0000 C   0  0  0  0  0  0  0  0  0  0  0  0
    1.3993   -5.1022    0.0000 C   0  0  0  0  0  0  0  0  0  0  0  0
    1.2091   -6.0840    0.0000 C   0  0  0  0  0  0  0  0  0  0  0  0
   -0.2017   -6.1836    0.0000 C   0  0  0  0  0  0  0  0  0  0  0  0
 21 22  2  0
 22 23  1  0
 22 24  1  0
 23 15  1  0
 23 25  1  0
 24 26  1  0
 15 16  4  0
 15 17  4  0
 25 27  1  0
 26 28  2  0
 26 27  1  0
 16 18  4  0
 17 19  4  0
 18 20  4  0
 18 14  1  0
 19 20  4  0
  1 14  1  1
  1  2  1  0
  1  3  1  0
  2 10  1  6
  2  4  1  0
  3  5  1  0
 10 11  2  0
 10 12  1  0
  4  6  1  0
  5  7  1  0
 12 13  1  0
  6  8  1  0
  6  7  1  0
  8  9  2  0
  8 29  1  0
 29 30  1  0
 30 31  1  0
 30 32  1  0
 30 33  1  0
M  CHG  1   1   1
M  END
>  <SMILES_stereo>  (7) 
COC(=O)[C@@H]1CN(C(=O)OC(C)(C)C)CCC[N@H+]1Cc1cccc(N2CCC(=O)NC2=O)c1

>  <Docking_Affinity_kcal_mol>  (7) 
-6.6

>  <CNN_Affinity>  (7) 
5.841

>  <CNN_Pose_Score>  (7) 
0.3537

>  <N_Docking_Poses>  (7) 
5

>  <MMGBSA_dG_kcal_mol>  (7) 
-14.9464

>  <MMGBSA_dG_std>  (7) 
0.0000

>  <MMGBSA_VdW_kcal_mol>  (7) 
65825.2239

>  <MMGBSA_EEL_kcal_mol>  (7) 
-24353.1740

>  <MMGBSA_EGB_kcal_mol>  (7) 
-6279.9612

>  <MMGBSA_ESURF_kcal_mol>  (7) 
140.8633

>  <Interacting_Residues>  (7) 
ASN353, HID359, HID380, HID399, PRO354, TRP388, TRP402

>  <HBond_Residues>  (7) 
ASN353, HID359, HID380

>  <Hydrophobic_Residues>  (7) 
ASN353, HID359, HID399, PRO354, TRP388, TRP402

>  <PiStacking_Residues>  (7) 
HID380, TRP388

>  <N_Interactions>  (7) 
11

$$$$
Compound_1_ent2
     RDKit          2D

 33 35  0  0  0  0  0  0  0  0999 V2000
    0.2151   -0.5484    0.0000 N   0  0  0  0  0  0  0  0  0  0  0  0
    1.0585   -1.0848    0.0000 C   0  0  0  0  0  0  0  0  0  0  0  0
   -0.7315   -0.8750    0.0000 C   0  0  0  0  0  0  0  0  0  0  0  0
    1.1677   -2.0784    0.0000 C   0  0  0  0  0  0  0  0  0  0  0  0
   -1.0643   -1.8182    0.0000 C   0  0  0  0  0  0  0  0  0  0  0  0
    0.4567   -2.7836    0.0000 N   0  0  0  0  0  0  0  0  0  0  0  0
   -0.5365   -2.6660    0.0000 C   0  0  0  0  0  0  0  0  0  0  0  0
    0.7833   -3.7278    0.0000 C   0  0  0  0  0  0  0  0  0  0  0  0
    1.7651   -3.9180    0.0000 O   0  0  0  0  0  0  0  0  0  0  0  0
    1.9083   -0.5560    0.0000 C   0  0  0  0  0  0  0  0  0  0  0  0
    1.8753    0.4436    0.0000 O   0  0  0  0  0  0  0  0  0  0  0  0
    2.7903   -1.0270    0.0000 O   0  0  0  0  0  0  0  0  0  0  0  0
    3.6395   -0.4988    0.0000 C   0  0  0  0  0  0  0  0  0  0  0  0
    0.3305    0.4442    0.0000 C   0  0  0  0  0  0  0  0  0  0  0  0
   -1.1581    2.6330    0.0000 C   0  0  0  0  0  0  0  0  0  0  0  0
   -0.3539    2.0344    0.0000 C   0  0  0  0  0  0  0  0  0  0  0  0
   -2.0749    2.2354    0.0000 C   0  0  0  0  0  0  0  0  0  0  0  0
   -0.4721    1.0420    0.0000 C   0  0  0  0  0  0  0  0  0  0  0  0
   -2.1929    1.2430    0.0000 C   0  0  0  0  0  0  0  0  0  0  0  0
   -1.3889    0.6444    0.0000 C   0  0  0  0  0  0  0  0  0  0  0  0
   -2.7619    3.8264    0.0000 O   0  0  0  0  0  0  0  0  0  0  0  0
   -1.8445    4.2228    0.0000 C   0  0  0  0  0  0  0  0  0  0  0  0
   -1.0405    3.6240    0.0000 N   0  0  0  0  0  0  0  0  0  0  0  0
   -1.7265    5.2150    0.0000 N   0  0  0  0  0  0  0  0  0  0  0  0
   -0.1237    4.0218    0.0000 C   0  0  0  0  0  0  0  0  0  0  0  0
   -0.8097    5.6126    0.0000 C   0  0  0  0  0  0  0  0  0  0  0  0
   -0.0055    5.0140    0.0000 C   0  0  0  0  0  0  0  0  0  0  0  0
   -0.6931    6.6052    0.0000 O   0  0  0  0  0  0  0  0  0  0  0  0
    0.1277   -4.4832    0.0000 O   0  0  0  0  0  0  0  0  0  0  0  0
    0.4539   -5.4284    0.0000 C   0  0  0  0  0  0  0  0  0  0  0  0
    1.3993   -5.1022    0.0000 C   0  0  0  0  0  0  0  0  0  0  0  0
    1.2091   -6.0840    0.0000 C   0  0  0  0  0  0  0  0  0  0  0  0
   -0.2017   -6.1836    0.0000 C   0  0  0  0  0  0  0  0  0  0  0  0
 21 22  2  0
 22 23  1  0
 22 24  1  0
 23 15  1  0
 23 25  1  0
 24 26  1  0
 15 16  4  0
 15 17  4  0
 25 27  1  0
 26 28  2  0
 26 27  1  0
 16 18  4  0
 17 19  4  0
 18 20  4  0
 18 14  1  0
 19 20  4  0
  1 14  1  6
  1  2  1  0
  1  3  1  0
  2 10  1  1
  2  4  1  0
  3  5  1  0
 10 11  2  0
 10 12  1  0
  4  6  1  0
  5  7  1  0
 12 13  1  0
  6  8  1  0
  6  7  1  0
  8  9  2  0
  8 29  1  0
 29 30  1  0
 30 31  1  0
 30 32  1  0
 30 33  1  0
M  CHG  1   1   1
M  END
>  <SMILES_stereo>  (8) 
COC(=O)[C@H]1CN(C(=O)OC(C)(C)C)CCC[N@@H+]1Cc1cccc(N2CCC(=O)NC2=O)c1

>  <Docking_Affinity_kcal_mol>  (8) 
-7.8

>  <CNN_Affinity>  (8) 
5.157

>  <CNN_Pose_Score>  (8) 
0.3152

>  <N_Docking_Poses>  (8) 
5

>  <MMGBSA_dG_kcal_mol>  (8) 
-21.3815

>  <MMGBSA_dG_std>  (8) 
0.0000

>  <MMGBSA_VdW_kcal_mol>  (8) 
65831.6145

>  <MMGBSA_EEL_kcal_mol>  (8) 
-24370.4127

>  <MMGBSA_EGB_kcal_mol>  (8) 
-6271.2951

>  <MMGBSA_ESURF_kcal_mol>  (8) 
140.3670

>  <Interacting_Residues>  (8) 
ASN353, HID355, HID359, ILE390, PRO354, TRP382, TRP388, TRP402, TYR357

>  <HBond_Residues>  (8) 
HID355

>  <Hydrophobic_Residues>  (8) 
ASN353, HID355, HID359, ILE390, PRO354, TRP382, TRP388, TRP402, TYR357

>  <PiStacking_Residues>  (8) 
TRP382, TRP388, TRP402

>  <N_Interactions>  (8) 
13

$$$$
Compound_4_s1
     RDKit          2D

 28 31  0  0  0  0  0  0  0  0999 V2000
    0.3821    0.4061    0.0000 C   0  0  0  0  0  0  0  0  0  0  0  0
   -0.4673    0.9431    0.0000 C   0  0  0  0  0  0  0  0  0  0  0  0
    0.3763   -0.7753    0.0000 C   0  0  0  0  0  0  0  0  0  0  0  0
   -1.3095    0.4873    0.0000 C   0  0  0  0  0  0  0  0  0  0  0  0
   -0.4739   -1.3001    0.0000 C   0  0  0  0  0  0  0  0  0  0  0  0
   -1.3123   -0.8373    0.0000 C   0  0  0  0  0  0  0  0  0  0  0  0
   -2.2873    0.4897    0.0000 C   0  0  0  0  0  0  0  0  0  0  0  0
   -2.2849   -0.8389    0.0000 C   0  0  0  0  0  0  0  0  0  0  0  0
   -2.0859   -0.1663    0.0000 N   0  0  0  0  0  0  0  0  0  0  0  0
   -3.2777    0.3259    0.0000 C   0  0  0  0  0  0  0  0  0  0  0  0
   -3.2717   -0.6893    0.0000 C   0  0  0  0  0  0  0  0  0  0  0  0
    0.9429   -0.2019    0.0000 C   0  0  0  0  0  0  0  0  0  0  0  0
   -4.0425    0.9691    0.0000 O   0  0  0  0  0  0  0  0  0  0  0  0
   -4.0287   -1.3419    0.0000 O   0  0  0  0  0  0  0  0  0  0  0  0
    1.3213    0.1627    0.0000 O   0  0  0  0  0  0  0  0  0  0  0  0
    2.2061   -0.3011    0.0000 O   0  0  0  0  0  0  0  0  0  0  0  0
    2.0871    0.7035    0.0000 C   0  0  0  0  0  0  0  0  0  0  0  0
    1.1671    1.0881    0.0000 N   0  0  0  0  0  0  0  0  0  0  0  0
    2.8819    1.3029    0.0000 N   0  0  0  0  0  0  0  0  0  0  0  0
    1.0441    2.0785    0.0000 C   0  0  0  0  0  0  0  0  0  0  0  0
    2.7567    2.2913    0.0000 C   0  0  0  0  0  0  0  0  0  0  0  0
    1.8387    2.6815    0.0000 C   0  0  0  0  0  0  0  0  0  0  0  0
    3.5611    2.8857    0.0000 O   0  0  0  0  0  0  0  0  0  0  0  0
    1.3445   -1.1217    0.0000 O   0  0  0  0  0  0  0  0  0  0  0  0
    0.7885   -1.9387    0.0000 C   0  0  0  0  0  0  0  0  0  0  0  0
    1.6227   -2.4953    0.0000 C   0  0  0  0  0  0  0  0  0  0  0  0
    0.7259   -2.9357    0.0000 C   0  0  0  0  0  0  0  0  0  0  0  0
   -0.2053   -1.8707    0.0000 C   0  0  0  0  0  0  0  0  0  0  0  0
 16 17  2  0
 17 18  1  0
 17 19  1  0
 18  1  1  0
 18 20  1  0
 19 21  1  0
  1  2  4  0
  1  3  4  0
 20 22  1  0
 21 23  2  0
 21 22  1  0
  2  4  4  0
  3  5  4  0
  4  6  4  0
  5  6  4  0
  7  4  1  6
  7  9  1  0
  7 10  1  0
  8  6  1  6
  8 11  1  0
  8  9  1  0
  9 12  1  0
 10 13  1  1
 10 11  1  0
 11 14  1  1
 12 15  2  0
 12 24  1  0
 24 25  1  0
 25 26  1  0
 25 27  1  0
 25 28  1  0
M  END
>  <SMILES_stereo>  (9) 
CC(C)(C)OC(=O)N1[C@@H]2c3ccc(N4CCC(=O)NC4=O)cc3[C@H]1[C@H](O)[C@@H]2O

>  <Docking_Affinity_kcal_mol>  (9) 
-8.36

>  <CNN_Affinity>  (9) 
7.139

>  <CNN_Pose_Score>  (9) 
0.8732

>  <N_Docking_Poses>  (9) 
5

>  <MMGBSA_dG_kcal_mol>  (9) 
-33.0584

>  <MMGBSA_dG_std>  (9) 
0.0000

>  <MMGBSA_VdW_kcal_mol>  (9) 
65826.4863

>  <MMGBSA_EEL_kcal_mol>  (9) 
-24440.8738

>  <MMGBSA_EGB_kcal_mol>  (9) 
-6173.5819

>  <MMGBSA_ESURF_kcal_mol>  (9) 
140.7756

>  <Interacting_Residues>  (9) 
HID355, HID359, HID380, PHE404, TRP382, TRP388, TRP402

>  <HBond_Residues>  (9) 
HID355, HID380

>  <Hydrophobic_Residues>  (9) 
HID355, PHE404, TRP382, TRP388, TRP402

>  <PiStacking_Residues>  (9) 
HID359, TRP382, TRP388, TRP402

>  <N_Interactions>  (9) 
12

$$$$
Compound_4_s12
     RDKit          2D

 28 31  0  0  0  0  0  0  0  0999 V2000
    0.3821    0.4061    0.0000 C   0  0  0  0  0  0  0  0  0  0  0  0
   -0.4673    0.9431    0.0000 C   0  0  0  0  0  0  0  0  0  0  0  0
    0.3763   -0.7753    0.0000 C   0  0  0  0  0  0  0  0  0  0  0  0
   -1.3095    0.4873    0.0000 C   0  0  0  0  0  0  0  0  0  0  0  0
   -0.4739   -1.3001    0.0000 C   0  0  0  0  0  0  0  0  0  0  0  0
   -1.3123   -0.8373    0.0000 C   0  0  0  0  0  0  0  0  0  0  0  0
   -2.2873    0.4897    0.0000 C   0  0  0  0  0  0  0  0  0  0  0  0
   -2.2849   -0.8389    0.0000 C   0  0  0  0  0  0  0  0  0  0  0  0
   -2.0859   -0.1663    0.0000 N   0  0  0  0  0  0  0  0  0  0  0  0
   -3.2777    0.3259    0.0000 C   0  0  0  0  0  0  0  0  0  0  0  0
   -3.2717   -0.6893    0.0000 C   0  0  0  0  0  0  0  0  0  0  0  0
    0.9429   -0.2019    0.0000 C   0  0  0  0  0  0  0  0  0  0  0  0
   -4.0425    0.9691    0.0000 O   0  0  0  0  0  0  0  0  0  0  0  0
   -4.0287   -1.3419    0.0000 O   0  0  0  0  0  0  0  0  0  0  0  0
    1.3213    0.1627    0.0000 O   0  0  0  0  0  0  0  0  0  0  0  0
    2.2061   -0.3011    0.0000 O   0  0  0  0  0  0  0  0  0  0  0  0
    2.0871    0.7035    0.0000 C   0  0  0  0  0  0  0  0  0  0  0  0
    1.1671    1.0881    0.0000 N   0  0  0  0  0  0  0  0  0  0  0  0
    2.8819    1.3029    0.0000 N   0  0  0  0  0  0  0  0  0  0  0  0
    1.0441    2.0785    0.0000 C   0  0  0  0  0  0  0  0  0  0  0  0
    2.7567    2.2913    0.0000 C   0  0  0  0  0  0  0  0  0  0  0  0
    1.8387    2.6815    0.0000 C   0  0  0  0  0  0  0  0  0  0  0  0
    3.5611    2.8857    0.0000 O   0  0  0  0  0  0  0  0  0  0  0  0
    1.3445   -1.1217    0.0000 O   0  0  0  0  0  0  0  0  0  0  0  0
    0.7885   -1.9387    0.0000 C   0  0  0  0  0  0  0  0  0  0  0  0
    1.6227   -2.4953    0.0000 C   0  0  0  0  0  0  0  0  0  0  0  0
    0.7259   -2.9357    0.0000 C   0  0  0  0  0  0  0  0  0  0  0  0
   -0.2053   -1.8707    0.0000 C   0  0  0  0  0  0  0  0  0  0  0  0
 16 17  2  0
 17 18  1  0
 17 19  1  0
 18  1  1  0
 18 20  1  0
 19 21  1  0
  1  2  4  0
  1  3  4  0
 20 22  1  0
 21 23  2  0
 21 22  1  0
  2  4  4  0
  3  5  4  0
  4  6  4  0
  5  6  4  0
  7  4  1  1
  7  9  1  0
  7 10  1  0
  8  6  1  1
  8 11  1  0
  8  9  1  0
  9 12  1  0
 10 13  1  1
 10 11  1  0
 11 14  1  6
 12 15  2  0
 12 24  1  0
 24 25  1  0
 25 26  1  0
 25 27  1  0
 25 28  1  0
M  END
>  <SMILES_stereo>  (10) 
CC(C)(C)OC(=O)N1[C@@H]2c3cc(N4CCC(=O)NC4=O)ccc3[C@H]1[C@H](O)[C@H]2O

>  <Docking_Affinity_kcal_mol>  (10) 
-9.52

>  <CNN_Affinity>  (10) 
7.292

>  <CNN_Pose_Score>  (10) 
0.964

>  <N_Docking_Poses>  (10) 
5

>  <MMGBSA_dG_kcal_mol>  (10) 
-37.5615

>  <MMGBSA_dG_std>  (10) 
0.0000

>  <MMGBSA_VdW_kcal_mol>  (10) 
65821.2821

>  <MMGBSA_EEL_kcal_mol>  (10) 
-24435.7366

>  <MMGBSA_EGB_kcal_mol>  (10) 
-6173.6207

>  <MMGBSA_ESURF_kcal_mol>  (10) 
140.2078

>  <Interacting_Residues>  (10) 
HID355, HID380, HID399, ILE390, PHE404, TRP382, TRP388, TRP402

>  <HBond_Residues>  (10) 
HID355, HID380

>  <Hydrophobic_Residues>  (10) 
HID355, HID399, ILE390, PHE404, TRP382, TRP388, TRP402

>  <PiStacking_Residues>  (10) 
TRP382, TRP388, TRP402

>  <N_Interactions>  (10) 
13

$$$$
Compound_4_s13
     RDKit          2D

 28 31  0  0  0  0  0  0  0  0999 V2000
    0.3821    0.4061    0.0000 C   0  0  0  0  0  0  0  0  0  0  0  0
   -0.4673    0.9431    0.0000 C   0  0  0  0  0  0  0  0  0  0  0  0
    0.3763   -0.7753    0.0000 C   0  0  0  0  0  0  0  0  0  0  0  0
   -1.3095    0.4873    0.0000 C   0  0  0  0  0  0  0  0  0  0  0  0
   -0.4739   -1.3001    0.0000 C   0  0  0  0  0  0  0  0  0  0  0  0
   -1.3123   -0.8373    0.0000 C   0  0  0  0  0  0  0  0  0  0  0  0
   -2.2873    0.4897    0.0000 C   0  0  0  0  0  0  0  0  0  0  0  0
   -2.2849   -0.8389    0.0000 C   0  0  0  0  0  0  0  0  0  0  0  0
   -2.0859   -0.1663    0.0000 N   0  0  0  0  0  0  0  0  0  0  0  0
   -3.2777    0.3259    0.0000 C   0  0  0  0  0  0  0  0  0  0  0  0
   -3.2717   -0.6893    0.0000 C   0  0  0  0  0  0  0  0  0  0  0  0
    0.9429   -0.2019    0.0000 C   0  0  0  0  0  0  0  0  0  0  0  0
   -4.0425    0.9691    0.0000 O   0  0  0  0  0  0  0  0  0  0  0  0
   -4.0287   -1.3419    0.0000 O   0  0  0  0  0  0  0  0  0  0  0  0
    1.3213    0.1627    0.0000 O   0  0  0  0  0  0  0  0  0  0  0  0
    2.2061   -0.3011    0.0000 O   0  0  0  0  0  0  0  0  0  0  0  0
    2.0871    0.7035    0.0000 C   0  0  0  0  0  0  0  0  0  0  0  0
    1.1671    1.0881    0.0000 N   0  0  0  0  0  0  0  0  0  0  0  0
    2.8819    1.3029    0.0000 N   0  0  0  0  0  0  0  0  0  0  0  0
    1.0441    2.0785    0.0000 C   0  0  0  0  0  0  0  0  0  0  0  0
    2.7567    2.2913    0.0000 C   0  0  0  0  0  0  0  0  0  0  0  0
    1.8387    2.6815    0.0000 C   0  0  0  0  0  0  0  0  0  0  0  0
    3.5611    2.8857    0.0000 O   0  0  0  0  0  0  0  0  0  0  0  0
    1.3445   -1.1217    0.0000 O   0  0  0  0  0  0  0  0  0  0  0  0
    0.7885   -1.9387    0.0000 C   0  0  0  0  0  0  0  0  0  0  0  0
    1.6227   -2.4953    0.0000 C   0  0  0  0  0  0  0  0  0  0  0  0
    0.7259   -2.9357    0.0000 C   0  0  0  0  0  0  0  0  0  0  0  0
   -0.2053   -1.8707    0.0000 C   0  0  0  0  0  0  0  0  0  0  0  0
 16 17  2  0
 17 18  1  0
 17 19  1  0
 18  1  1  0
 18 20  1  0
 19 21  1  0
  1  2  4  0
  1  3  4  0
 20 22  1  0
 21 23  2  0
 21 22  1  0
  2  4  4  0
  3  5  4  0
  4  6  4  0
  5  6  4  0
  7  4  1  6
  7  9  1  0
  7 10  1  0
  8  6  1  6
  8 11  1  0
  8  9  1  0
  9 12  1  0
 10 13  1  6
 10 11  1  0
 11 14  1  6
 12 15  2  0
 12 24  1  0
 24 25  1  0
 25 26  1  0
 25 27  1  0
 25 28  1  0
M  END
>  <SMILES_stereo>  (11) 
CC(C)(C)OC(=O)N1[C@@H]2c3ccc(N4CCC(=O)NC4=O)cc3[C@H]1[C@@H](O)[C@H]2O

>  <Docking_Affinity_kcal_mol>  (11) 
-9.15

>  <CNN_Affinity>  (11) 
6.858

>  <CNN_Pose_Score>  (11) 
0.9682

>  <N_Docking_Poses>  (11) 
5

>  <MMGBSA_dG_kcal_mol>  (11) 
-24.3718

>  <MMGBSA_dG_std>  (11) 
0.0000

>  <MMGBSA_VdW_kcal_mol>  (11) 
65845.5151

>  <MMGBSA_EEL_kcal_mol>  (11) 
-24437.1435

>  <MMGBSA_EGB_kcal_mol>  (11) 
-6173.9912

>  <MMGBSA_ESURF_kcal_mol>  (11) 
140.5783

>  <Interacting_Residues>  (11) 
HID380, ILE390, SER381, TRP382, TRP388, TRP402

>  <HBond_Residues>  (11) 
HID380, TRP382

>  <Hydrophobic_Residues>  (11) 
ILE390, SER381, TRP382, TRP388, TRP402

>  <PiStacking_Residues>  (11) 
TRP382, TRP388

>  <N_Interactions>  (11) 
10

$$$$
Compound_4_s16
     RDKit          2D

 28 31  0  0  0  0  0  0  0  0999 V2000
    0.3821    0.4061    0.0000 C   0  0  0  0  0  0  0  0  0  0  0  0
   -0.4673    0.9431    0.0000 C   0  0  0  0  0  0  0  0  0  0  0  0
    0.3763   -0.7753    0.0000 C   0  0  0  0  0  0  0  0  0  0  0  0
   -1.3095    0.4873    0.0000 C   0  0  0  0  0  0  0  0  0  0  0  0
   -0.4739   -1.3001    0.0000 C   0  0  0  0  0  0  0  0  0  0  0  0
   -1.3123   -0.8373    0.0000 C   0  0  0  0  0  0  0  0  0  0  0  0
   -2.2873    0.4897    0.0000 C   0  0  0  0  0  0  0  0  0  0  0  0
   -2.2849   -0.8389    0.0000 C   0  0  0  0  0  0  0  0  0  0  0  0
   -2.0859   -0.1663    0.0000 N   0  0  0  0  0  0  0  0  0  0  0  0
   -3.2777    0.3259    0.0000 C   0  0  0  0  0  0  0  0  0  0  0  0
   -3.2717   -0.6893    0.0000 C   0  0  0  0  0  0  0  0  0  0  0  0
    0.9429   -0.2019    0.0000 C   0  0  0  0  0  0  0  0  0  0  0  0
   -4.0425    0.9691    0.0000 O   0  0  0  0  0  0  0  0  0  0  0  0
   -4.0287   -1.3419    0.0000 O   0  0  0  0  0  0  0  0  0  0  0  0
    1.3213    0.1627    0.0000 O   0  0  0  0  0  0  0  0  0  0  0  0
    2.2061   -0.3011    0.0000 O   0  0  0  0  0  0  0  0  0  0  0  0
    2.0871    0.7035    0.0000 C   0  0  0  0  0  0  0  0  0  0  0  0
    1.1671    1.0881    0.0000 N   0  0  0  0  0  0  0  0  0  0  0  0
    2.8819    1.3029    0.0000 N   0  0  0  0  0  0  0  0  0  0  0  0
    1.0441    2.0785    0.0000 C   0  0  0  0  0  0  0  0  0  0  0  0
    2.7567    2.2913    0.0000 C   0  0  0  0  0  0  0  0  0  0  0  0
    1.8387    2.6815    0.0000 C   0  0  0  0  0  0  0  0  0  0  0  0
    3.5611    2.8857    0.0000 O   0  0  0  0  0  0  0  0  0  0  0  0
    1.3445   -1.1217    0.0000 O   0  0  0  0  0  0  0  0  0  0  0  0
    0.7885   -1.9387    0.0000 C   0  0  0  0  0  0  0  0  0  0  0  0
    1.6227   -2.4953    0.0000 C   0  0  0  0  0  0  0  0  0  0  0  0
    0.7259   -2.9357    0.0000 C   0  0  0  0  0  0  0  0  0  0  0  0
   -0.2053   -1.8707    0.0000 C   0  0  0  0  0  0  0  0  0  0  0  0
 16 17  2  0
 17 18  1  0
 17 19  1  0
 18  1  1  0
 18 20  1  0
 19 21  1  0
  1  2  4  0
  1  3  4  0
 20 22  1  0
 21 23  2  0
 21 22  1  0
  2  4  4  0
  3  5  4  0
  4  6  4  0
  5  6  4  0
  7  4  1  1
  7  9  1  0
  7 10  1  0
  8  6  1  1
  8 11  1  0
  8  9  1  0
  9 12  1  0
 10 13  1  6
 10 11  1  0
 11 14  1  6
 12 15  2  0
 12 24  1  0
 24 25  1  0
 25 26  1  0
 25 27  1  0
 25 28  1  0
M  END
>  <SMILES_stereo>  (12) 
CC(C)(C)OC(=O)N1[C@@H]2c3cc(N4CCC(=O)NC4=O)ccc3[C@H]1[C@H](O)[C@@H]2O

>  <Docking_Affinity_kcal_mol>  (12) 
-9.23

>  <CNN_Affinity>  (12) 
7.218

>  <CNN_Pose_Score>  (12) 
0.9668

>  <N_Docking_Poses>  (12) 
5

>  <MMGBSA_dG_kcal_mol>  (12) 
-36.0568

>  <MMGBSA_dG_std>  (12) 
0.0000

>  <MMGBSA_VdW_kcal_mol>  (12) 
65823.5991

>  <MMGBSA_EEL_kcal_mol>  (12) 
-24441.7072

>  <MMGBSA_EGB_kcal_mol>  (12) 
-6174.4287

>  <MMGBSA_ESURF_kcal_mol>  (12) 
140.4509

>  <Interacting_Residues>  (12) 
HID355, HID380, HID399, ILE390, PHE404, SER381, TRP382, TRP388, TRP402

>  <HBond_Residues>  (12) 
HID355, HID380

>  <Hydrophobic_Residues>  (12) 
HID355, HID399, ILE390, PHE404, SER381, TRP382, TRP388, TRP402

>  <PiStacking_Residues>  (12) 
TRP382, TRP388, TRP402

>  <N_Interactions>  (12) 
14

$$$$
Compound_4_s4
     RDKit          2D

 28 31  0  0  0  0  0  0  0  0999 V2000
    0.3821    0.4061    0.0000 C   0  0  0  0  0  0  0  0  0  0  0  0
   -0.4673    0.9431    0.0000 C   0  0  0  0  0  0  0  0  0  0  0  0
    0.3763   -0.7753    0.0000 C   0  0  0  0  0  0  0  0  0  0  0  0
   -1.3095    0.4873    0.0000 C   0  0  0  0  0  0  0  0  0  0  0  0
   -0.4739   -1.3001    0.0000 C   0  0  0  0  0  0  0  0  0  0  0  0
   -1.3123   -0.8373    0.0000 C   0  0  0  0  0  0  0  0  0  0  0  0
   -2.2873    0.4897    0.0000 C   0  0  0  0  0  0  0  0  0  0  0  0
   -2.2849   -0.8389    0.0000 C   0  0  0  0  0  0  0  0  0  0  0  0
   -2.0859   -0.1663    0.0000 N   0  0  0  0  0  0  0  0  0  0  0  0
   -3.2777    0.3259    0.0000 C   0  0  0  0  0  0  0  0  0  0  0  0
   -3.2717   -0.6893    0.0000 C   0  0  0  0  0  0  0  0  0  0  0  0
    0.9429   -0.2019    0.0000 C   0  0  0  0  0  0  0  0  0  0  0  0
   -4.0425    0.9691    0.0000 O   0  0  0  0  0  0  0  0  0  0  0  0
   -4.0287   -1.3419    0.0000 O   0  0  0  0  0  0  0  0  0  0  0  0
    1.3213    0.1627    0.0000 O   0  0  0  0  0  0  0  0  0  0  0  0
    2.2061   -0.3011    0.0000 O   0  0  0  0  0  0  0  0  0  0  0  0
    2.0871    0.7035    0.0000 C   0  0  0  0  0  0  0  0  0  0  0  0
    1.1671    1.0881    0.0000 N   0  0  0  0  0  0  0  0  0  0  0  0
    2.8819    1.3029    0.0000 N   0  0  0  0  0  0  0  0  0  0  0  0
    1.0441    2.0785    0.0000 C   0  0  0  0  0  0  0  0  0  0  0  0
    2.7567    2.2913    0.0000 C   0  0  0  0  0  0  0  0  0  0  0  0
    1.8387    2.6815    0.0000 C   0  0  0  0  0  0  0  0  0  0  0  0
    3.5611    2.8857    0.0000 O   0  0  0  0  0  0  0  0  0  0  0  0
    1.3445   -1.1217    0.0000 O   0  0  0  0  0  0  0  0  0  0  0  0
    0.7885   -1.9387    0.0000 C   0  0  0  0  0  0  0  0  0  0  0  0
    1.6227   -2.4953    0.0000 C   0  0  0  0  0  0  0  0  0  0  0  0
    0.7259   -2.9357    0.0000 C   0  0  0  0  0  0  0  0  0  0  0  0
   -0.2053   -1.8707    0.0000 C   0  0  0  0  0  0  0  0  0  0  0  0
 16 17  2  0
 17 18  1  0
 17 19  1  0
 18  1  1  0
 18 20  1  0
 19 21  1  0
  1  2  4  0
  1  3  4  0
 20 22  1  0
 21 23  2  0
 21 22  1  0
  2  4  4  0
  3  5  4  0
  4  6  4  0
  5  6  4  0
  7  4  1  1
  7  9  1  0
  7 10  1  0
  8  6  1  1
  8 11  1  0
  8  9  1  0
  9 12  1  0
 10 13  1  1
 10 11  1  0
 11 14  1  1
 12 15  2  0
 12 24  1  0
 24 25  1  0
 25 26  1  0
 25 27  1  0
 25 28  1  0
M  END
>  <SMILES_stereo>  (13) 
CC(C)(C)OC(=O)N1[C@@H]2c3cc(N4CCC(=O)NC4=O)ccc3[C@H]1[C@@H](O)[C@H]2O

>  <Docking_Affinity_kcal_mol>  (13) 
-9.39

>  <CNN_Affinity>  (13) 
7.397

>  <CNN_Pose_Score>  (13) 
0.972

>  <N_Docking_Poses>  (13) 
5

>  <MMGBSA_dG_kcal_mol>  (13) 
-25.9935

>  <MMGBSA_dG_std>  (13) 
0.0000

>  <MMGBSA_VdW_kcal_mol>  (13) 
65833.2928

>  <MMGBSA_EEL_kcal_mol>  (13) 
-24437.5687

>  <MMGBSA_EGB_kcal_mol>  (13) 
-6173.8504

>  <MMGBSA_ESURF_kcal_mol>  (13) 
140.2387

>  <Interacting_Residues>  (13) 
HID355, HID380, ILE390, PHE404, SER381, TRP382, TRP388, TRP402

>  <HBond_Residues>  (13) 
HID380

>  <Hydrophobic_Residues>  (13) 
HID355, ILE390, PHE404, SER381, TRP382, TRP388, TRP402

>  <PiStacking_Residues>  (13) 
TRP382, TRP388, TRP402

>  <N_Interactions>  (13) 
13

$$$$
Compound_4_s5
     RDKit          2D

 28 31  0  0  0  0  0  0  0  0999 V2000
    0.3821    0.4061    0.0000 C   0  0  0  0  0  0  0  0  0  0  0  0
   -0.4673    0.9431    0.0000 C   0  0  0  0  0  0  0  0  0  0  0  0
    0.3763   -0.7753    0.0000 C   0  0  0  0  0  0  0  0  0  0  0  0
   -1.3095    0.4873    0.0000 C   0  0  0  0  0  0  0  0  0  0  0  0
   -0.4739   -1.3001    0.0000 C   0  0  0  0  0  0  0  0  0  0  0  0
   -1.3123   -0.8373    0.0000 C   0  0  0  0  0  0  0  0  0  0  0  0
   -2.2873    0.4897    0.0000 C   0  0  0  0  0  0  0  0  0  0  0  0
   -2.2849   -0.8389    0.0000 C   0  0  0  0  0  0  0  0  0  0  0  0
   -2.0859   -0.1663    0.0000 N   0  0  0  0  0  0  0  0  0  0  0  0
   -3.2777    0.3259    0.0000 C   0  0  0  0  0  0  0  0  0  0  0  0
   -3.2717   -0.6893    0.0000 C   0  0  0  0  0  0  0  0  0  0  0  0
    0.9429   -0.2019    0.0000 C   0  0  0  0  0  0  0  0  0  0  0  0
   -4.0425    0.9691    0.0000 O   0  0  0  0  0  0  0  0  0  0  0  0
   -4.0287   -1.3419    0.0000 O   0  0  0  0  0  0  0  0  0  0  0  0
    1.3213    0.1627    0.0000 O   0  0  0  0  0  0  0  0  0  0  0  0
    2.2061   -0.3011    0.0000 O   0  0  0  0  0  0  0  0  0  0  0  0
    2.0871    0.7035    0.0000 C   0  0  0  0  0  0  0  0  0  0  0  0
    1.1671    1.0881    0.0000 N   0  0  0  0  0  0  0  0  0  0  0  0
    2.8819    1.3029    0.0000 N   0  0  0  0  0  0  0  0  0  0  0  0
    1.0441    2.0785    0.0000 C   0  0  0  0  0  0  0  0  0  0  0  0
    2.7567    2.2913    0.0000 C   0  0  0  0  0  0  0  0  0  0  0  0
    1.8387    2.6815    0.0000 C   0  0  0  0  0  0  0  0  0  0  0  0
    3.5611    2.8857    0.0000 O   0  0  0  0  0  0  0  0  0  0  0  0
    1.3445   -1.1217    0.0000 O   0  0  0  0  0  0  0  0  0  0  0  0
    0.7885   -1.9387    0.0000 C   0  0  0  0  0  0  0  0  0  0  0  0
    1.6227   -2.4953    0.0000 C   0  0  0  0  0  0  0  0  0  0  0  0
    0.7259   -2.9357    0.0000 C   0  0  0  0  0  0  0  0  0  0  0  0
   -0.2053   -1.8707    0.0000 C   0  0  0  0  0  0  0  0  0  0  0  0
 16 17  2  0
 17 18  1  0
 17 19  1  0
 18  1  1  0
 18 20  1  0
 19 21  1  0
  1  2  4  0
  1  3  4  0
 20 22  1  0
 21 23  2  0
 21 22  1  0
  2  4  4  0
  3  5  4  0
  4  6  4  0
  5  6  4  0
  7  4  1  6
  7  9  1  0
  7 10  1  0
  8  6  1  6
  8 11  1  0
  8  9  1  0
  9 12  1  0
 10 13  1  6
 10 11  1  0
 11 14  1  1
 12 15  2  0
 12 24  1  0
 24 25  1  0
 25 26  1  0
 25 27  1  0
 25 28  1  0
M  END
>  <SMILES_stereo>  (14) 
CC(C)(C)OC(=O)N1[C@@H]2c3ccc(N4CCC(=O)NC4=O)cc3[C@H]1[C@@H](O)[C@@H]2O

>  <Docking_Affinity_kcal_mol>  (14) 
-8.67

>  <CNN_Affinity>  (14) 
7.097

>  <CNN_Pose_Score>  (14) 
0.8525

>  <N_Docking_Poses>  (14) 
5

>  <MMGBSA_dG_kcal_mol>  (14) 
-30.6559

>  <MMGBSA_dG_std>  (14) 
0.0000

>  <MMGBSA_VdW_kcal_mol>  (14) 
65824.9824

>  <MMGBSA_EEL_kcal_mol>  (14) 
-24434.1644

>  <MMGBSA_EGB_kcal_mol>  (14) 
-6173.0287

>  <MMGBSA_ESURF_kcal_mol>  (14) 
140.6380

>  <Interacting_Residues>  (14) 
HID355, HID359, HID380, PHE404, TRP382, TRP388, TRP402

>  <HBond_Residues>  (14) 
HID355, HID380, TRP402

>  <Hydrophobic_Residues>  (14) 
HID355, PHE404, TRP382, TRP388, TRP402

>  <PiStacking_Residues>  (14) 
HID359, TRP382, TRP388, TRP402

>  <N_Interactions>  (14) 
13

$$$$
Compound_4_s8
     RDKit          2D

 28 31  0  0  0  0  0  0  0  0999 V2000
    0.3821    0.4061    0.0000 C   0  0  0  0  0  0  0  0  0  0  0  0
   -0.4673    0.9431    0.0000 C   0  0  0  0  0  0  0  0  0  0  0  0
    0.3763   -0.7753    0.0000 C   0  0  0  0  0  0  0  0  0  0  0  0
   -1.3095    0.4873    0.0000 C   0  0  0  0  0  0  0  0  0  0  0  0
   -0.4739   -1.3001    0.0000 C   0  0  0  0  0  0  0  0  0  0  0  0
   -1.3123   -0.8373    0.0000 C   0  0  0  0  0  0  0  0  0  0  0  0
   -2.2873    0.4897    0.0000 C   0  0  0  0  0  0  0  0  0  0  0  0
   -2.2849   -0.8389    0.0000 C   0  0  0  0  0  0  0  0  0  0  0  0
   -2.0859   -0.1663    0.0000 N   0  0  0  0  0  0  0  0  0  0  0  0
   -3.2777    0.3259    0.0000 C   0  0  0  0  0  0  0  0  0  0  0  0
   -3.2717   -0.6893    0.0000 C   0  0  0  0  0  0  0  0  0  0  0  0
    0.9429   -0.2019    0.0000 C   0  0  0  0  0  0  0  0  0  0  0  0
   -4.0425    0.9691    0.0000 O   0  0  0  0  0  0  0  0  0  0  0  0
   -4.0287   -1.3419    0.0000 O   0  0  0  0  0  0  0  0  0  0  0  0
    1.3213    0.1627    0.0000 O   0  0  0  0  0  0  0  0  0  0  0  0
    2.2061   -0.3011    0.0000 O   0  0  0  0  0  0  0  0  0  0  0  0
    2.0871    0.7035    0.0000 C   0  0  0  0  0  0  0  0  0  0  0  0
    1.1671    1.0881    0.0000 N   0  0  0  0  0  0  0  0  0  0  0  0
    2.8819    1.3029    0.0000 N   0  0  0  0  0  0  0  0  0  0  0  0
    1.0441    2.0785    0.0000 C   0  0  0  0  0  0  0  0  0  0  0  0
    2.7567    2.2913    0.0000 C   0  0  0  0  0  0  0  0  0  0  0  0
    1.8387    2.6815    0.0000 C   0  0  0  0  0  0  0  0  0  0  0  0
    3.5611    2.8857    0.0000 O   0  0  0  0  0  0  0  0  0  0  0  0
    1.3445   -1.1217    0.0000 O   0  0  0  0  0  0  0  0  0  0  0  0
    0.7885   -1.9387    0.0000 C   0  0  0  0  0  0  0  0  0  0  0  0
    1.6227   -2.4953    0.0000 C   0  0  0  0  0  0  0  0  0  0  0  0
    0.7259   -2.9357    0.0000 C   0  0  0  0  0  0  0  0  0  0  0  0
   -0.2053   -1.8707    0.0000 C   0  0  0  0  0  0  0  0  0  0  0  0
 16 17  2  0
 17 18  1  0
 17 19  1  0
 18  1  1  0
 18 20  1  0
 19 21  1  0
  1  2  4  0
  1  3  4  0
 20 22  1  0
 21 23  2  0
 21 22  1  0
  2  4  4  0
  3  5  4  0
  4  6  4  0
  5  6  4  0
  7  4  1  1
  7  9  1  0
  7 10  1  0
  8  6  1  1
  8 11  1  0
  8  9  1  0
  9 12  1  0
 10 13  1  6
 10 11  1  0
 11 14  1  1
 12 15  2  0
 12 24  1  0
 24 25  1  0
 25 26  1  0
 25 27  1  0
 25 28  1  0
M  END
>  <SMILES_stereo>  (15) 
CC(C)(C)OC(=O)N1[C@@H]2c3cc(N4CCC(=O)NC4=O)ccc3[C@H]1[C@@H](O)[C@@H]2O

>  <Docking_Affinity_kcal_mol>  (15) 
-9.63

>  <CNN_Affinity>  (15) 
7.39

>  <CNN_Pose_Score>  (15) 
0.9507

>  <N_Docking_Poses>  (15) 
5

>  <MMGBSA_dG_kcal_mol>  (15) 
-35.6270

>  <MMGBSA_dG_std>  (15) 
0.0000

>  <MMGBSA_VdW_kcal_mol>  (15) 
65822.7767

>  <MMGBSA_EEL_kcal_mol>  (15) 
-24434.9115

>  <MMGBSA_EGB_kcal_mol>  (15) 
-6174.7468

>  <MMGBSA_ESURF_kcal_mol>  (15) 
140.3097

>  <Interacting_Residues>  (15) 
HID355, HID380, HID399, ILE390, PHE404, TRP382, TRP388, TRP402

>  <HBond_Residues>  (15) 
HID355, HID380

>  <Hydrophobic_Residues>  (15) 
HID355, HID399, ILE390, PHE404, TRP382, TRP388, TRP402

>  <PiStacking_Residues>  (15) 
TRP382, TRP388, TRP402

>  <N_Interactions>  (15) 
14

$$$$
Compound_4_s9
     RDKit          2D

 28 31  0  0  0  0  0  0  0  0999 V2000
    0.3821    0.4061    0.0000 C   0  0  0  0  0  0  0  0  0  0  0  0
   -0.4673    0.9431    0.0000 C   0  0  0  0  0  0  0  0  0  0  0  0
    0.3763   -0.7753    0.0000 C   0  0  0  0  0  0  0  0  0  0  0  0
   -1.3095    0.4873    0.0000 C   0  0  0  0  0  0  0  0  0  0  0  0
   -0.4739   -1.3001    0.0000 C   0  0  0  0  0  0  0  0  0  0  0  0
   -1.3123   -0.8373    0.0000 C   0  0  0  0  0  0  0  0  0  0  0  0
   -2.2873    0.4897    0.0000 C   0  0  0  0  0  0  0  0  0  0  0  0
   -2.2849   -0.8389    0.0000 C   0  0  0  0  0  0  0  0  0  0  0  0
   -2.0859   -0.1663    0.0000 N   0  0  0  0  0  0  0  0  0  0  0  0
   -3.2777    0.3259    0.0000 C   0  0  0  0  0  0  0  0  0  0  0  0
   -3.2717   -0.6893    0.0000 C   0  0  0  0  0  0  0  0  0  0  0  0
    0.9429   -0.2019    0.0000 C   0  0  0  0  0  0  0  0  0  0  0  0
   -4.0425    0.9691    0.0000 O   0  0  0  0  0  0  0  0  0  0  0  0
   -4.0287   -1.3419    0.0000 O   0  0  0  0  0  0  0  0  0  0  0  0
    1.3213    0.1627    0.0000 O   0  0  0  0  0  0  0  0  0  0  0  0
    2.2061   -0.3011    0.0000 O   0  0  0  0  0  0  0  0  0  0  0  0
    2.0871    0.7035    0.0000 C   0  0  0  0  0  0  0  0  0  0  0  0
    1.1671    1.0881    0.0000 N   0  0  0  0  0  0  0  0  0  0  0  0
    2.8819    1.3029    0.0000 N   0  0  0  0  0  0  0  0  0  0  0  0
    1.0441    2.0785    0.0000 C   0  0  0  0  0  0  0  0  0  0  0  0
    2.7567    2.2913    0.0000 C   0  0  0  0  0  0  0  0  0  0  0  0
    1.8387    2.6815    0.0000 C   0  0  0  0  0  0  0  0  0  0  0  0
    3.5611    2.8857    0.0000 O   0  0  0  0  0  0  0  0  0  0  0  0
    1.3445   -1.1217    0.0000 O   0  0  0  0  0  0  0  0  0  0  0  0
    0.7885   -1.9387    0.0000 C   0  0  0  0  0  0  0  0  0  0  0  0
    1.6227   -2.4953    0.0000 C   0  0  0  0  0  0  0  0  0  0  0  0
    0.7259   -2.9357    0.0000 C   0  0  0  0  0  0  0  0  0  0  0  0
   -0.2053   -1.8707    0.0000 C   0  0  0  0  0  0  0  0  0  0  0  0
 16 17  2  0
 17 18  1  0
 17 19  1  0
 18  1  1  0
 18 20  1  0
 19 21  1  0
  1  2  4  0
  1  3  4  0
 20 22  1  0
 21 23  2  0
 21 22  1  0
  2  4  4  0
  3  5  4  0
  4  6  4  0
  5  6  4  0
  7  4  1  6
  7  9  1  0
  7 10  1  0
  8  6  1  6
  8 11  1  0
  8  9  1  0
  9 12  1  0
 10 13  1  1
 10 11  1  0
 11 14  1  6
 12 15  2  0
 12 24  1  0
 24 25  1  0
 25 26  1  0
 25 27  1  0
 25 28  1  0
M  END
>  <SMILES_stereo>  (16) 
CC(C)(C)OC(=O)N1[C@@H]2c3ccc(N4CCC(=O)NC4=O)cc3[C@H]1[C@H](O)[C@H]2O

>  <Docking_Affinity_kcal_mol>  (16) 
-8.69

>  <CNN_Affinity>  (16) 
7.212

>  <CNN_Pose_Score>  (16) 
0.8844

>  <N_Docking_Poses>  (16) 
5

>  <MMGBSA_dG_kcal_mol>  (16) 
-32.9987

>  <MMGBSA_dG_std>  (16) 
0.0000

>  <MMGBSA_VdW_kcal_mol>  (16) 
65823.0487

>  <MMGBSA_EEL_kcal_mol>  (16) 
-24433.4218

>  <MMGBSA_EGB_kcal_mol>  (16) 
-6174.0262

>  <MMGBSA_ESURF_kcal_mol>  (16) 
140.6787

>  <Interacting_Residues>  (16) 
HID355, HID380, PHE404, TRP382, TRP388, TRP402

>  <HBond_Residues>  (16) 
HID355, HID380

>  <Hydrophobic_Residues>  (16) 
HID355, PHE404, TRP382, TRP388, TRP402

>  <PiStacking_Residues>  (16) 
TRP382, TRP388, TRP402

>  <N_Interactions>  (16) 
12

$$$$
Compound_7_ent1
     RDKit          2D

 34 36  0  0  0  0  0  0  0  0999 V2000
    0.2046    0.2550    0.0000 C   0  0  0  0  0  0  0  0  0  0  0  0
    1.0736    0.7508    0.0000 C   0  0  0  0  0  0  0  0  0  0  0  0
    0.2016   -0.7450    0.0000 C   0  0  0  0  0  0  0  0  0  0  0  0
    1.9380    0.2490    0.0000 C   0  0  0  0  0  0  0  0  0  0  0  0
    1.0646   -1.2492    0.0000 C   0  0  0  0  0  0  0  0  0  0  0  0
    1.9322   -0.7510    0.0000 C   0  0  0  0  0  0  0  0  0  0  0  0
    2.8054    0.7452    0.0000 C   0  0  0  0  0  0  0  0  0  0  0  0
    2.8092    1.7452    0.0000 O   0  0  0  0  0  0  0  0  0  0  0  0
    3.6696    0.2418    0.0000 N   0  0  0  0  0  0  0  0  0  0  0  0
    4.5368    0.7380    0.0000 C   0  0  0  0  0  0  0  0  0  0  0  0
    5.4014    0.2350    0.0000 C   0  0  0  0  0  0  0  0  0  0  0  0
    4.5412    1.7382    0.0000 C   0  0  0  0  0  0  0  0  0  0  0  0
    5.3960   -0.7658    0.0000 O   0  0  0  0  0  0  0  0  0  0  0  0
    6.2688    0.7314    0.0000 N   0  0  0  0  0  0  0  0  0  0  0  0
    5.4088    2.2346    0.0000 C   0  0  0  0  0  0  0  0  0  0  0  0
    6.2734    1.7316    0.0000 C   0  0  0  0  0  0  0  0  0  0  0  0
    7.1404    2.2276    0.0000 O   0  0  0  0  0  0  0  0  0  0  0  0
   -0.6582    0.7584    0.0000 C   0  0  0  0  0  0  0  0  0  0  0  0
   -1.4556   -0.7348    0.0000 S   0  0  0  0  0  0  0  0  0  0  0  0
   -0.4984   -0.4450    0.0000 O   0  0  0  0  0  0  0  0  0  0  0  0
   -0.9590   -1.6038    0.0000 O   0  0  0  0  0  0  0  0  0  0  0  0
   -1.5264    0.2614    0.0000 N   0  0  0  0  0  0  0  0  0  0  0  0
   -2.1910   -1.4136    0.0000 C   0  0  0  0  0  0  0  0  0  0  0  0
   -2.3502    0.8296    0.0000 C   0  0  0  0  0  0  0  0  0  0  0  0
   -3.1794   -1.2586    0.0000 C   0  0  0  0  0  0  0  0  0  0  0  0
   -3.3068    0.5368    0.0000 C   0  0  0  0  0  0  0  0  0  0  0  0
   -3.6778   -0.3918    0.0000 N   0  0  0  0  0  0  0  0  0  0  0  0
   -4.6742   -0.4624    0.0000 C   0  0  0  0  0  0  0  0  0  0  0  0
   -5.2342    0.3660    0.0000 O   0  0  0  0  0  0  0  0  0  0  0  0
   -5.1116   -1.3616    0.0000 O   0  0  0  0  0  0  0  0  0  0  0  0
   -6.1090   -1.4324    0.0000 C   0  0  0  0  0  0  0  0  0  0  0  0
   -6.1798   -0.4348    0.0000 C   0  0  0  0  0  0  0  0  0  0  0  0
   -7.0082   -0.9948    0.0000 C   0  0  0  0  0  0  0  0  0  0  0  0
   -6.5466   -2.3316    0.0000 C   0  0  0  0  0  0  0  0  0  0  0  0
 19 20  2  0
 19 21  2  0
 19 22  1  0
 19 23  1  0
 22 24  1  0
 22 18  1  0
 23 25  1  0
 24 26  1  0
 18  1  1  0
 25 27  1  0
 26 27  1  0
  1  2  4  0
  1  3  4  0
 27 28  1  0
  2  4  4  0
  3  5  4  0
 28 29  2  0
 28 30  1  0
  4  7  1  0
  4  6  4  0
  5  6  4  0
 30 31  1  0
  7  8  2  0
  7  9  1  0
 31 32  1  0
 31 33  1  0
 31 34  1  0
 10  9  1  1
 10 11  1  0
 10 12  1  0
 11 13  2  0
 11 14  1  0
 12 15  1  0
 14 16  1  0
 15 16  1  0
 16 17  2  0
M  END
>  <SMILES_stereo>  (17) 
CC(C)(C)OC(=O)N1CCN(Cc2cccc(C(=O)N[C@H]3CCC(=O)NC3=O)c2)S(=O)(=O)CC1

>  <Docking_Affinity_kcal_mol>  (17) 
-8.29

>  <CNN_Affinity>  (17) 
6.869

>  <CNN_Pose_Score>  (17) 
0.8966

>  <N_Docking_Poses>  (17) 
5

>  <MMGBSA_dG_kcal_mol>  (17) 
-29.9509

>  <MMGBSA_dG_std>  (17) 
0.0000

>  <MMGBSA_VdW_kcal_mol>  (17) 
65823.9596

>  <MMGBSA_EEL_kcal_mol>  (17) 
-24460.1698

>  <MMGBSA_EGB_kcal_mol>  (17) 
-6188.5856

>  <MMGBSA_ESURF_kcal_mol>  (17) 
140.7343

>  <Interacting_Residues>  (17) 
GLU379, HID380, HID399, ILE390, PRO354, TRP382, TRP388, TRP402

>  <HBond_Residues>  (17) 
GLU379, HID380

>  <Hydrophobic_Residues>  (17) 
HID399, ILE390, PRO354, TRP382, TRP388, TRP402

>  <PiStacking_Residues>  (17) 
TRP382, TRP388

>  <N_Interactions>  (17) 
11

$$$$
Compound_7_ent2
     RDKit          2D

 34 36  0  0  0  0  0  0  0  0999 V2000
    0.2046    0.2550    0.0000 C   0  0  0  0  0  0  0  0  0  0  0  0
    1.0736    0.7508    0.0000 C   0  0  0  0  0  0  0  0  0  0  0  0
    0.2016   -0.7450    0.0000 C   0  0  0  0  0  0  0  0  0  0  0  0
    1.9380    0.2490    0.0000 C   0  0  0  0  0  0  0  0  0  0  0  0
    1.0646   -1.2492    0.0000 C   0  0  0  0  0  0  0  0  0  0  0  0
    1.9322   -0.7510    0.0000 C   0  0  0  0  0  0  0  0  0  0  0  0
    2.8054    0.7452    0.0000 C   0  0  0  0  0  0  0  0  0  0  0  0
    2.8092    1.7452    0.0000 O   0  0  0  0  0  0  0  0  0  0  0  0
    3.6696    0.2418    0.0000 N   0  0  0  0  0  0  0  0  0  0  0  0
    4.5368    0.7380    0.0000 C   0  0  0  0  0  0  0  0  0  0  0  0
    5.4014    0.2350    0.0000 C   0  0  0  0  0  0  0  0  0  0  0  0
    4.5412    1.7382    0.0000 C   0  0  0  0  0  0  0  0  0  0  0  0
    5.3960   -0.7658    0.0000 O   0  0  0  0  0  0  0  0  0  0  0  0
    6.2688    0.7314    0.0000 N   0  0  0  0  0  0  0  0  0  0  0  0
    5.4088    2.2346    0.0000 C   0  0  0  0  0  0  0  0  0  0  0  0
    6.2734    1.7316    0.0000 C   0  0  0  0  0  0  0  0  0  0  0  0
    7.1404    2.2276    0.0000 O   0  0  0  0  0  0  0  0  0  0  0  0
   -0.6582    0.7584    0.0000 C   0  0  0  0  0  0  0  0  0  0  0  0
   -1.4556   -0.7348    0.0000 S   0  0  0  0  0  0  0  0  0  0  0  0
   -0.4984   -0.4450    0.0000 O   0  0  0  0  0  0  0  0  0  0  0  0
   -0.9590   -1.6038    0.0000 O   0  0  0  0  0  0  0  0  0  0  0  0
   -1.5264    0.2614    0.0000 N   0  0  0  0  0  0  0  0  0  0  0  0
   -2.1910   -1.4136    0.0000 C   0  0  0  0  0  0  0  0  0  0  0  0
   -2.3502    0.8296    0.0000 C   0  0  0  0  0  0  0  0  0  0  0  0
   -3.1794   -1.2586    0.0000 C   0  0  0  0  0  0  0  0  0  0  0  0
   -3.3068    0.5368    0.0000 C   0  0  0  0  0  0  0  0  0  0  0  0
   -3.6778   -0.3918    0.0000 N   0  0  0  0  0  0  0  0  0  0  0  0
   -4.6742   -0.4624    0.0000 C   0  0  0  0  0  0  0  0  0  0  0  0
   -5.2342    0.3660    0.0000 O   0  0  0  0  0  0  0  0  0  0  0  0
   -5.1116   -1.3616    0.0000 O   0  0  0  0  0  0  0  0  0  0  0  0
   -6.1090   -1.4324    0.0000 C   0  0  0  0  0  0  0  0  0  0  0  0
   -6.1798   -0.4348    0.0000 C   0  0  0  0  0  0  0  0  0  0  0  0
   -7.0082   -0.9948    0.0000 C   0  0  0  0  0  0  0  0  0  0  0  0
   -6.5466   -2.3316    0.0000 C   0  0  0  0  0  0  0  0  0  0  0  0
 19 20  2  0
 19 21  2  0
 19 22  1  0
 19 23  1  0
 22 24  1  0
 22 18  1  0
 23 25  1  0
 24 26  1  0
 18  1  1  0
 25 27  1  0
 26 27  1  0
  1  2  4  0
  1  3  4  0
 27 28  1  0
  2  4  4  0
  3  5  4  0
 28 29  2  0
 28 30  1  0
  4  7  1  0
  4  6  4  0
  5  6  4  0
 30 31  1  0
  7  8  2  0
  7  9  1  0
 31 32  1  0
 31 33  1  0
 31 34  1  0
 10  9  1  6
 10 11  1  0
 10 12  1  0
 11 13  2  0
 11 14  1  0
 12 15  1  0
 14 16  1  0
 15 16  1  0
 16 17  2  0
M  END
>  <SMILES_stereo>  (18) 
CC(C)(C)OC(=O)N1CCN(Cc2cccc(C(=O)N[C@@H]3CCC(=O)NC3=O)c2)S(=O)(=O)CC1

>  <Docking_Affinity_kcal_mol>  (18) 
-7.89

>  <CNN_Affinity>  (18) 
7.016

>  <CNN_Pose_Score>  (18) 
0.8314

>  <N_Docking_Poses>  (18) 
5

>  <MMGBSA_dG_kcal_mol>  (18) 
-30.6136

>  <MMGBSA_dG_std>  (18) 
0.0000

>  <MMGBSA_VdW_kcal_mol>  (18) 
65832.4631

>  <MMGBSA_EEL_kcal_mol>  (18) 
-24451.8366

>  <MMGBSA_EGB_kcal_mol>  (18) 
-6202.9705

>  <MMGBSA_ESURF_kcal_mol>  (18) 
141.5959

>  <Interacting_Residues>  (18) 
HID355, HID380, PHE404, SER381, TRP382, TRP388, TRP402

>  <HBond_Residues>  (18) 
HID380

>  <Hydrophobic_Residues>  (18) 
HID355, PHE404, SER381, TRP382, TRP388, TRP402

>  <PiStacking_Residues>  (18) 
TRP382, TRP388, TRP402

>  <N_Interactions>  (18) 
11

$$$$
Compound_8_ent1
     RDKit          2D

 27 29  0  0  0  0  0  0  0  0999 V2000
   -1.1972   -0.1854    0.0000 C   0  0  0  0  0  0  0  0  0  0  0  0
   -0.3290    0.3092    0.0000 C   0  0  0  0  0  0  0  0  0  0  0  0
   -1.2006   -1.1880    0.0000 C   0  0  0  0  0  0  0  0  0  0  0  0
    0.5356   -0.1912    0.0000 C   0  0  0  0  0  0  0  0  0  0  0  0
   -0.3358   -1.6884    0.0000 C   0  0  0  0  0  0  0  0  0  0  0  0
    0.5324   -1.1938    0.0000 C   0  0  0  0  0  0  0  0  0  0  0  0
    1.4028    0.3050    0.0000 C   0  0  0  0  0  0  0  0  0  0  0  0
    1.4060    1.3050    0.0000 O   0  0  0  0  0  0  0  0  0  0  0  0
    2.2670   -0.1976    0.0000 N   0  0  0  0  0  0  0  0  0  0  0  0
    3.1342    0.2986    0.0000 C   0  0  0  0  0  0  0  0  0  0  0  0
    3.9990   -0.2018    0.0000 C   0  0  0  0  0  0  0  0  0  0  0  0
    3.1376    1.3010    0.0000 C   0  0  0  0  0  0  0  0  0  0  0  0
    3.9956   -1.2030    0.0000 O   0  0  0  0  0  0  0  0  0  0  0  0
    4.8670    0.2928    0.0000 N   0  0  0  0  0  0  0  0  0  0  0  0
    4.0056    1.7956    0.0000 C   0  0  0  0  0  0  0  0  0  0  0  0
    4.8704    1.2952    0.0000 C   0  0  0  0  0  0  0  0  0  0  0  0
    5.7376    1.7916    0.0000 O   0  0  0  0  0  0  0  0  0  0  0  0
   -2.0608    0.3162    0.0000 C   0  0  0  0  0  0  0  0  0  0  0  0
   -3.7524    0.3846    0.0000 S   0  0  0  0  0  0  0  0  0  0  0  0
   -3.0178    1.0634    0.0000 O   0  0  0  0  0  0  0  0  0  0  0  0
   -4.2504    1.2530    0.0000 O   0  0  0  0  0  0  0  0  0  0  0  0
   -2.9292   -0.1806    0.0000 N   0  0  0  0  0  0  0  0  0  0  0  0
   -4.7102    0.0940    0.0000 C   0  0  0  0  0  0  0  0  0  0  0  0
   -2.8562   -1.1788    0.0000 C   0  0  0  0  0  0  0  0  0  0  0  0
   -5.0768   -0.8368    0.0000 C   0  0  0  0  0  0  0  0  0  0  0  0
   -3.5930   -1.8554    0.0000 C   0  0  0  0  0  0  0  0  0  0  0  0
   -4.5816   -1.7054    0.0000 N   0  0  0  0  0  0  0  0  0  0  0  0
 19 20  2  0
 19 21  2  0
 19 22  1  0
 19 23  1  0
 22 24  1  0
 22 18  1  0
 23 25  1  0
 24 26  1  0
 18  1  1  0
 25 27  1  0
 26 27  1  0
  1  2  4  0
  1  3  4  0
  2  4  4  0
  3  5  4  0
  4  7  1  0
  4  6  4  0
  5  6  4  0
  7  8  2  0
  7  9  1  0
 10  9  1  1
 10 11  1  0
 10 12  1  0
 11 13  2  0
 11 14  1  0
 12 15  1  0
 14 16  1  0
 15 16  1  0
 16 17  2  0
M  CHG  1  27   1
M  END
>  <SMILES_stereo>  (19) 
O=C1CC[C@H](NC(=O)c2cccc(CN3CC[NH2+]CCS3(=O)=O)c2)C(=O)N1

>  <Docking_Affinity_kcal_mol>  (19) 
-6.92

>  <CNN_Affinity>  (19) 
6.521

>  <CNN_Pose_Score>  (19) 
0.7899

>  <N_Docking_Poses>  (19) 
5

>  <MMGBSA_dG_kcal_mol>  (19) 
-8.8026

>  <MMGBSA_dG_std>  (19) 
0.0000

>  <MMGBSA_VdW_kcal_mol>  (19) 
65852.1464

>  <MMGBSA_EEL_kcal_mol>  (19) 
-24517.7358

>  <MMGBSA_EGB_kcal_mol>  (19) 
-6280.6372

>  <MMGBSA_ESURF_kcal_mol>  (19) 
140.8993

>  <Interacting_Residues>  (19) 
ASN353, HID380, TRP382, TRP388, TRP402

>  <HBond_Residues>  (19) 
HID380

>  <Hydrophobic_Residues>  (19) 
ASN353, TRP382, TRP388, TRP402

>  <PiStacking_Residues>  (19) 
TRP382, TRP388

>  <N_Interactions>  (19) 
8

$$$$
Compound_8_ent2
     RDKit          2D

 27 29  0  0  0  0  0  0  0  0999 V2000
   -1.1972   -0.1854    0.0000 C   0  0  0  0  0  0  0  0  0  0  0  0
   -0.3290    0.3092    0.0000 C   0  0  0  0  0  0  0  0  0  0  0  0
   -1.2006   -1.1880    0.0000 C   0  0  0  0  0  0  0  0  0  0  0  0
    0.5356   -0.1912    0.0000 C   0  0  0  0  0  0  0  0  0  0  0  0
   -0.3358   -1.6884    0.0000 C   0  0  0  0  0  0  0  0  0  0  0  0
    0.5324   -1.1938    0.0000 C   0  0  0  0  0  0  0  0  0  0  0  0
    1.4028    0.3050    0.0000 C   0  0  0  0  0  0  0  0  0  0  0  0
    1.4060    1.3050    0.0000 O   0  0  0  0  0  0  0  0  0  0  0  0
    2.2670   -0.1976    0.0000 N   0  0  0  0  0  0  0  0  0  0  0  0
    3.1342    0.2986    0.0000 C   0  0  0  0  0  0  0  0  0  0  0  0
    3.9990   -0.2018    0.0000 C   0  0  0  0  0  0  0  0  0  0  0  0
    3.1376    1.3010    0.0000 C   0  0  0  0  0  0  0  0  0  0  0  0
    3.9956   -1.2030    0.0000 O   0  0  0  0  0  0  0  0  0  0  0  0
    4.8670    0.2928    0.0000 N   0  0  0  0  0  0  0  0  0  0  0  0
    4.0056    1.7956    0.0000 C   0  0  0  0  0  0  0  0  0  0  0  0
    4.8704    1.2952    0.0000 C   0  0  0  0  0  0  0  0  0  0  0  0
    5.7376    1.7916    0.0000 O   0  0  0  0  0  0  0  0  0  0  0  0
   -2.0608    0.3162    0.0000 C   0  0  0  0  0  0  0  0  0  0  0  0
   -3.7524    0.3846    0.0000 S   0  0  0  0  0  0  0  0  0  0  0  0
   -3.0178    1.0634    0.0000 O   0  0  0  0  0  0  0  0  0  0  0  0
   -4.2504    1.2530    0.0000 O   0  0  0  0  0  0  0  0  0  0  0  0
   -2.9292   -0.1806    0.0000 N   0  0  0  0  0  0  0  0  0  0  0  0
   -4.7102    0.0940    0.0000 C   0  0  0  0  0  0  0  0  0  0  0  0
   -2.8562   -1.1788    0.0000 C   0  0  0  0  0  0  0  0  0  0  0  0
   -5.0768   -0.8368    0.0000 C   0  0  0  0  0  0  0  0  0  0  0  0
   -3.5930   -1.8554    0.0000 C   0  0  0  0  0  0  0  0  0  0  0  0
   -4.5816   -1.7054    0.0000 N   0  0  0  0  0  0  0  0  0  0  0  0
 19 20  2  0
 19 21  2  0
 19 22  1  0
 19 23  1  0
 22 24  1  0
 22 18  1  0
 23 25  1  0
 24 26  1  0
 18  1  1  0
 25 27  1  0
 26 27  1  0
  1  2  4  0
  1  3  4  0
  2  4  4  0
  3  5  4  0
  4  7  1  0
  4  6  4  0
  5  6  4  0
  7  8  2  0
  7  9  1  0
 10  9  1  6
 10 11  1  0
 10 12  1  0
 11 13  2  0
 11 14  1  0
 12 15  1  0
 14 16  1  0
 15 16  1  0
 16 17  2  0
M  CHG  1  27   1
M  END
>  <SMILES_stereo>  (20) 
O=C1CC[C@@H](NC(=O)c2cccc(CN3CC[NH2+]CCS3(=O)=O)c2)C(=O)N1

>  <Docking_Affinity_kcal_mol>  (20) 
-9.6

>  <CNN_Affinity>  (20) 
6.939

>  <CNN_Pose_Score>  (20) 
0.9038

>  <N_Docking_Poses>  (20) 
5

>  <MMGBSA_dG_kcal_mol>  (20) 
-13.2072

>  <MMGBSA_dG_std>  (20) 
0.0000

>  <MMGBSA_VdW_kcal_mol>  (20) 
65833.2532

>  <MMGBSA_EEL_kcal_mol>  (20) 
-24486.2624

>  <MMGBSA_EGB_kcal_mol>  (20) 
-6288.2115

>  <MMGBSA_ESURF_kcal_mol>  (20) 
140.4274

>  <Interacting_Residues>  (20) 
ASN353, HID355, HID359, HID380, HID399, PHE404, SER381, TRP382, TRP388, TRP402, TYR357

>  <HBond_Residues>  (20) 
HID359, HID380, HID399

>  <Hydrophobic_Residues>  (20) 
ASN353, PHE404, SER381, TRP382, TRP388, TRP402, TYR357

>  <PiStacking_Residues>  (20) 
HID355, HID359, TRP382, TRP388, TYR357

>  <N_Interactions>  (20) 
16

$$$$
Compound_9_ent1
     RDKit          2D

 33 35  0  0  0  0  0  0  0  0999 V2000
    0.0073    0.2299    0.0000 C   0  0  0  0  0  0  0  0  0  0  0  0
    0.8763    0.7257    0.0000 C   0  0  0  0  0  0  0  0  0  0  0  0
    0.0041   -0.7701    0.0000 C   0  0  0  0  0  0  0  0  0  0  0  0
    1.7407    0.2239    0.0000 C   0  0  0  0  0  0  0  0  0  0  0  0
    0.8671   -1.2743    0.0000 C   0  0  0  0  0  0  0  0  0  0  0  0
    1.7349   -0.7761    0.0000 C   0  0  0  0  0  0  0  0  0  0  0  0
    2.6075    0.7195    0.0000 C   0  0  0  0  0  0  0  0  0  0  0  0
    2.6119    1.7195    0.0000 O   0  0  0  0  0  0  0  0  0  0  0  0
    3.4715    0.2159    0.0000 N   0  0  0  0  0  0  0  0  0  0  0  0
    4.3381    0.7121    0.0000 C   0  0  0  0  0  0  0  0  0  0  0  0
    5.2049    0.2105    0.0000 C   0  0  0  0  0  0  0  0  0  0  0  0
    4.3435    1.7135    0.0000 C   0  0  0  0  0  0  0  0  0  0  0  0
    5.2015   -0.7903    0.0000 O   0  0  0  0  0  0  0  0  0  0  0  0
    6.0713    0.7077    0.0000 N   0  0  0  0  0  0  0  0  0  0  0  0
    5.2103    2.2097    0.0000 C   0  0  0  0  0  0  0  0  0  0  0  0
    6.0753    1.7077    0.0000 C   0  0  0  0  0  0  0  0  0  0  0  0
    6.9419    2.2045    0.0000 O   0  0  0  0  0  0  0  0  0  0  0  0
   -0.8557    0.7333    0.0000 C   0  0  0  0  0  0  0  0  0  0  0  0
   -1.6531   -0.7599    0.0000 S   0  0  0  0  0  0  0  0  0  0  0  0
   -0.6959   -0.4701    0.0000 O   0  0  0  0  0  0  0  0  0  0  0  0
   -1.1563   -1.6289    0.0000 O   0  0  0  0  0  0  0  0  0  0  0  0
   -1.7237    0.2363    0.0000 N   0  0  0  0  0  0  0  0  0  0  0  0
   -2.3885   -1.4387    0.0000 C   0  0  0  0  0  0  0  0  0  0  0  0
   -2.5477    0.8045    0.0000 C   0  0  0  0  0  0  0  0  0  0  0  0
   -3.3771   -1.2835    0.0000 C   0  0  0  0  0  0  0  0  0  0  0  0
   -3.5043    0.5115    0.0000 C   0  0  0  0  0  0  0  0  0  0  0  0
   -3.8757   -0.4169    0.0000 N   0  0  0  0  0  0  0  0  0  0  0  0
   -4.8719   -0.4875    0.0000 C   0  0  0  0  0  0  0  0  0  0  0  0
   -5.4319    0.3409    0.0000 O   0  0  0  0  0  0  0  0  0  0  0  0
   -5.3093   -1.3867    0.0000 C   0  0  0  0  0  0  0  0  0  0  0  0
   -6.3065   -1.4575    0.0000 N   0  0  0  0  0  0  0  0  0  0  0  0
   -6.7439   -2.3569    0.0000 C   0  0  0  0  0  0  0  0  0  0  0  0
   -6.8667   -0.6291    0.0000 C   0  0  0  0  0  0  0  0  0  0  0  0
 19 20  2  0
 19 21  2  0
 19 22  1  0
 19 23  1  0
 22 24  1  0
 22 18  1  0
 23 25  1  0
 24 26  1  0
 18  1  1  0
 25 27  1  0
 26 27  1  0
  1  2  4  0
  1  3  4  0
 27 28  1  0
  2  4  4  0
  3  5  4  0
 28 29  2  0
 28 30  1  0
  4  7  1  0
  4  6  4  0
  5  6  4  0
 30 31  1  0
  7  8  2  0
  7  9  1  0
 31 32  1  0
 31 33  1  0
 10  9  1  1
 10 11  1  0
 10 12  1  0
 11 13  2  0
 11 14  1  0
 12 15  1  0
 14 16  1  0
 15 16  1  0
 16 17  2  0
M  CHG  1  31   1
M  END
>  <SMILES_stereo>  (21) 
C[NH+](C)CC(=O)N1CCN(Cc2cccc(C(=O)N[C@H]3CCC(=O)NC3=O)c2)S(=O)(=O)CC1

>  <Docking_Affinity_kcal_mol>  (21) 
-7.87

>  <CNN_Affinity>  (21) 
5.906

>  <CNN_Pose_Score>  (21) 
0.2992

>  <N_Docking_Poses>  (21) 
5

>  <MMGBSA_dG_kcal_mol>  (21) 
-19.4285

>  <MMGBSA_dG_std>  (21) 
0.0000

>  <MMGBSA_VdW_kcal_mol>  (21) 
65820.4015

>  <MMGBSA_EEL_kcal_mol>  (21) 
-24444.1623

>  <MMGBSA_EGB_kcal_mol>  (21) 
-6288.1126

>  <MMGBSA_ESURF_kcal_mol>  (21) 
140.3511

>  <Interacting_Residues>  (21) 
ASN353, ASN398, HID359, HID399, TRP382, TRP388, TRP402

>  <HBond_Residues>  (21) 
ASN398, HID359, HID399

>  <Hydrophobic_Residues>  (21) 
ASN353, HID359, HID399, TRP382, TRP388, TRP402

>  <PiStacking_Residues>  (21) 
HID359, HID399, TRP382, TRP388, TRP402

>  <N_Interactions>  (21) 
17

$$$$
Compound_9_ent2
     RDKit          2D

 33 35  0  0  0  0  0  0  0  0999 V2000
    0.0073    0.2299    0.0000 C   0  0  0  0  0  0  0  0  0  0  0  0
    0.8763    0.7257    0.0000 C   0  0  0  0  0  0  0  0  0  0  0  0
    0.0041   -0.7701    0.0000 C   0  0  0  0  0  0  0  0  0  0  0  0
    1.7407    0.2239    0.0000 C   0  0  0  0  0  0  0  0  0  0  0  0
    0.8671   -1.2743    0.0000 C   0  0  0  0  0  0  0  0  0  0  0  0
    1.7349   -0.7761    0.0000 C   0  0  0  0  0  0  0  0  0  0  0  0
    2.6075    0.7195    0.0000 C   0  0  0  0  0  0  0  0  0  0  0  0
    2.6119    1.7195    0.0000 O   0  0  0  0  0  0  0  0  0  0  0  0
    3.4715    0.2159    0.0000 N   0  0  0  0  0  0  0  0  0  0  0  0
    4.3381    0.7121    0.0000 C   0  0  0  0  0  0  0  0  0  0  0  0
    5.2049    0.2105    0.0000 C   0  0  0  0  0  0  0  0  0  0  0  0
    4.3435    1.7135    0.0000 C   0  0  0  0  0  0  0  0  0  0  0  0
    5.2015   -0.7903    0.0000 O   0  0  0  0  0  0  0  0  0  0  0  0
    6.0713    0.7077    0.0000 N   0  0  0  0  0  0  0  0  0  0  0  0
    5.2103    2.2097    0.0000 C   0  0  0  0  0  0  0  0  0  0  0  0
    6.0753    1.7077    0.0000 C   0  0  0  0  0  0  0  0  0  0  0  0
    6.9419    2.2045    0.0000 O   0  0  0  0  0  0  0  0  0  0  0  0
   -0.8557    0.7333    0.0000 C   0  0  0  0  0  0  0  0  0  0  0  0
   -1.6531   -0.7599    0.0000 S   0  0  0  0  0  0  0  0  0  0  0  0
   -0.6959   -0.4701    0.0000 O   0  0  0  0  0  0  0  0  0  0  0  0
   -1.1563   -1.6289    0.0000 O   0  0  0  0  0  0  0  0  0  0  0  0
   -1.7237    0.2363    0.0000 N   0  0  0  0  0  0  0  0  0  0  0  0
   -2.3885   -1.4387    0.0000 C   0  0  0  0  0  0  0  0  0  0  0  0
   -2.5477    0.8045    0.0000 C   0  0  0  0  0  0  0  0  0  0  0  0
   -3.3771   -1.2835    0.0000 C   0  0  0  0  0  0  0  0  0  0  0  0
   -3.5043    0.5115    0.0000 C   0  0  0  0  0  0  0  0  0  0  0  0
   -3.8757   -0.4169    0.0000 N   0  0  0  0  0  0  0  0  0  0  0  0
   -4.8719   -0.4875    0.0000 C   0  0  0  0  0  0  0  0  0  0  0  0
   -5.4319    0.3409    0.0000 O   0  0  0  0  0  0  0  0  0  0  0  0
   -5.3093   -1.3867    0.0000 C   0  0  0  0  0  0  0  0  0  0  0  0
   -6.3065   -1.4575    0.0000 N   0  0  0  0  0  0  0  0  0  0  0  0
   -6.7439   -2.3569    0.0000 C   0  0  0  0  0  0  0  0  0  0  0  0
   -6.8667   -0.6291    0.0000 C   0  0  0  0  0  0  0  0  0  0  0  0
 19 20  2  0
 19 21  2  0
 19 22  1  0
 19 23  1  0
 22 24  1  0
 22 18  1  0
 23 25  1  0
 24 26  1  0
 18  1  1  0
 25 27  1  0
 26 27  1  0
  1  2  4  0
  1  3  4  0
 27 28  1  0
  2  4  4  0
  3  5  4  0
 28 29  2  0
 28 30  1  0
  4  7  1  0
  4  6  4  0
  5  6  4  0
 30 31  1  0
  7  8  2  0
  7  9  1  0
 31 32  1  0
 31 33  1  0
 10  9  1  6
 10 11  1  0
 10 12  1  0
 11 13  2  0
 11 14  1  0
 12 15  1  0
 14 16  1  0
 15 16  1  0
 16 17  2  0
M  CHG  1  31   1
M  END
>  <SMILES_stereo>  (22) 
C[NH+](C)CC(=O)N1CCN(Cc2cccc(C(=O)N[C@@H]3CCC(=O)NC3=O)c2)S(=O)(=O)CC1

>  <Docking_Affinity_kcal_mol>  (22) 
-7.22

>  <CNN_Affinity>  (22) 
6.741

>  <CNN_Pose_Score>  (22) 
0.6437

>  <N_Docking_Poses>  (22) 
5

>  <MMGBSA_dG_kcal_mol>  (22) 
-11.6335

>  <MMGBSA_dG_std>  (22) 
0.0000

>  <MMGBSA_VdW_kcal_mol>  (22) 
65825.4941

>  <MMGBSA_EEL_kcal_mol>  (22) 
-24449.1223

>  <MMGBSA_EGB_kcal_mol>  (22) 
-6290.5063

>  <MMGBSA_ESURF_kcal_mol>  (22) 
140.7928

>  <Interacting_Residues>  (22) 
HID355, HID359, HID380, PRO354, TRP382, TRP388, TRP402

>  <HBond_Residues>  (22) 
HID380

>  <Hydrophobic_Residues>  (22) 
HID355, PRO354, TRP382, TRP388, TRP402

>  <PiStacking_Residues>  (22) 
HID359, TRP382, TRP388, TRP402

>  <N_Interactions>  (22) 
11

$$$$
