EL2003A-A2U1


 38 42  0  0  0  0  0  0  0  0999 V2000
   -7.2260   41.5464   44.4815 C   0  0  0  0  0  0  0  0  0  0  0  0
   -6.4210   42.6032   44.7317 N   0  0  0  0  0  0  0  0  0  0  0  0
   -8.4067   41.5903   43.8278 N   0  0  0  0  0  0  0  0  0  0  0  0
   -6.7404   43.8375   44.2636 C   0  0  0  0  0  0  0  0  0  0  0  0
   -8.7081   42.8294   43.4240 C   0  0  0  0  0  0  0  0  0  0  0  0
   -7.9642   43.9793   43.5920 C   0  0  0  0  0  0  0  0  0  0  0  0
   -9.8186   43.2231   42.7363 N   0  0  0  0  0  0  0  0  0  0  0  0
   -8.6036   45.0651   43.0222 N   0  0  0  0  0  0  0  0  0  0  0  0
   -9.7132   44.5699   42.5162 C   0  0  0  0  0  0  0  0  0  0  0  0
  -10.5679   42.6162   42.4420 H   0  0  0  0  0  0  0  0  0  0  0  0
   -6.8235   40.2549   44.8594 N   0  0  0  0  0  0  0  0  0  0  0  0
   -7.2695   39.6214   44.2098 H   0  0  0  0  0  0  0  0  0  0  0  0
   -3.9957   38.1367   46.0271 C   0  0  0  0  0  0  0  0  0  0  0  0
   -2.9363   39.0637   46.0352 C   0  0  0  0  0  0  0  0  0  0  0  0
   -5.2871   38.5689   45.6899 C   0  0  0  0  0  0  0  0  0  0  0  0
   -3.1855   40.3798   45.6160 C   0  0  0  0  0  0  0  0  0  0  0  0
   -1.5337   38.6859   46.4233 C   0  0  0  0  0  0  0  0  0  0  0  0
   -5.5358   39.8840   45.2795 C   0  0  0  0  0  0  0  0  0  0  0  0
   -4.4649   40.7754   45.2216 C   0  0  0  0  0  0  0  0  0  0  0  0
   -5.2292   36.5405   48.1233 O   0  0  0  0  0  0  0  0  0  0  0  0
   -4.3119   36.1082   47.4260 C   0  0  0  0  0  0  0  0  0  0  0  0
   -3.7820   34.8523   47.6321 N   0  0  0  0  0  0  0  0  0  0  0  0
   -3.7461   36.7872   46.3691 N   0  0  0  0  0  0  0  0  0  0  0  0
   -2.5960   34.2753   47.0149 C   0  0  0  0  0  0  0  0  0  0  0  0
   -4.2926   33.9944   48.6874 C   0  0  0  0  0  0  0  0  0  0  0  0
   -2.2356   33.0946   47.9063 C   0  0  0  0  0  0  0  0  0  0  0  0
   -3.5844   32.6662   48.4696 C   0  0  0  0  0  0  0  0  0  0  0  0
   -3.3983   36.1911   45.6363 H   0  0  0  0  0  0  0  0  0  0  0  0
   -5.8755   44.9271   44.4465 N   0  0  0  0  0  0  0  0  0  0  0  0
   -6.3559   45.7681   44.1259 H   0  0  0  0  0  0  0  0  0  0  0  0
   -4.5391   44.7485   43.8744 C   0  0  0  0  0  0  0  0  0  0  0  0
   -3.6684   46.0128   43.9322 C   0  0  0  0  0  0  0  0  0  0  0  0
   -3.8739   46.9655   42.8041 C   0  0  0  0  0  0  0  0  0  0  0  0
   -4.1197   48.3009   43.0387 N   0  0  0  0  0  0  0  0  0  0  0  0
   -3.8288   46.7243   41.4470 C   0  0  0  0  0  0  0  0  0  0  0  0
   -4.2649   48.8437   41.8510 C   0  0  0  0  0  0  0  0  0  0  0  0
   -4.0995   47.9265   40.8533 N   0  0  0  0  0  0  0  0  0  0  0  0
   -4.1839   48.1053   39.8555 H   0  0  0  0  0  0  0  0  0  0  0  0
 20 21  2  0
 21 22  1  0
 21 23  1  0
 22 24  1  0
 22 25  1  0
 23 13  1  0
 24 26  1  0
 25 27  1  0
 13 14  2  0
 13 15  1  0
 14 16  1  0
 14 17  1  0
 15 18  2  0
 16 19  2  0
 18 11  1  0
 11  1  1  0
  1  2  2  0
  1  3  1  0
  2  4  1  0
  3  5  2  0
  4 29  1  0
  4  6  2  0
  5  7  1  0
 29 31  1  0
  6  8  1  0
  7  9  1  0
 31 32  1  0
 32 33  1  0
 33 34  1  0
 33 35  2  0
 34 36  2  0
 35 37  1  0
 26 27  1  0
 18 19  1  0
  5  6  1  0
  8  9  2  0
 36 37  1  0
 23 28  1  0
 11 12  1  0
 29 30  1  0
  7 10  1  0
 37 38  1  0
M  END
>  <Molecule_Name>
EL2003A-A2U1

>  <Pose_Rank>
1

>  <pIC50_PDK1>
7.6

>  <GNINA_Affinity_kcal_mol>
-9.3551

>  <CNN_Score>
0.9744

>  <CNN_Affinity>
7.8899

>  <MMGBSA_dG_kcal_mol>
-55.468

>  <MMGBSA_VdW>
-52.163

>  <MMGBSA_Elec>
-4.540

>  <MMGBSA_PolarSolv>
7.301

>  <MMGBSA_NonPolarSolv>
-6.065

$$$$
EL2003A-A2U1


 38 42  0  0  0  0  0  0  0  0999 V2000
   -7.0304   41.1871   44.4266 C   0  0  0  0  0  0  0  0  0  0  0  0
   -6.2529   42.2163   44.8312 N   0  0  0  0  0  0  0  0  0  0  0  0
   -8.2139   41.2959   43.7855 N   0  0  0  0  0  0  0  0  0  0  0  0
   -6.6061   43.4974   44.5506 C   0  0  0  0  0  0  0  0  0  0  0  0
   -8.5491   42.5728   43.5693 C   0  0  0  0  0  0  0  0  0  0  0  0
   -7.8353   43.7045   43.9063 C   0  0  0  0  0  0  0  0  0  0  0  0
   -9.6717   43.0343   42.9465 N   0  0  0  0  0  0  0  0  0  0  0  0
   -8.5048   44.8453   43.5029 N   0  0  0  0  0  0  0  0  0  0  0  0
   -9.6025   44.4012   42.9282 C   0  0  0  0  0  0  0  0  0  0  0  0
  -10.4055   42.4579   42.5649 H   0  0  0  0  0  0  0  0  0  0  0  0
   -6.5929   39.8651   44.6095 N   0  0  0  0  0  0  0  0  0  0  0  0
   -6.7356   39.3980   43.7243 H   0  0  0  0  0  0  0  0  0  0  0  0
   -3.1584   39.9235   46.0405 C   0  0  0  0  0  0  0  0  0  0  0  0
   -3.1672   38.7628   46.8370 C   0  0  0  0  0  0  0  0  0  0  0  0
   -4.2853   40.2364   45.2658 C   0  0  0  0  0  0  0  0  0  0  0  0
   -4.3415   37.9970   46.9040 C   0  0  0  0  0  0  0  0  0  0  0  0
   -1.9846   38.3398   47.6636 C   0  0  0  0  0  0  0  0  0  0  0  0
   -5.4534   39.4671   45.3275 C   0  0  0  0  0  0  0  0  0  0  0  0
   -5.4757   38.3603   46.1756 C   0  0  0  0  0  0  0  0  0  0  0  0
   -0.8400   39.7722   44.2897 O   0  0  0  0  0  0  0  0  0  0  0  0
   -0.9088   40.5797   45.2158 C   0  0  0  0  0  0  0  0  0  0  0  0
    0.1358   41.4311   45.5070 N   0  0  0  0  0  0  0  0  0  0  0  0
   -2.0114   40.7509   46.0240 N   0  0  0  0  0  0  0  0  0  0  0  0
    0.2732   42.3075   46.6618 C   0  0  0  0  0  0  0  0  0  0  0  0
    1.3597   41.4003   44.7249 C   0  0  0  0  0  0  0  0  0  0  0  0
    1.7545   42.6579   46.7032 C   0  0  0  0  0  0  0  0  0  0  0  0
    2.1653   42.5837   45.2383 C   0  0  0  0  0  0  0  0  0  0  0  0
   -2.1242   41.6885   46.3725 H   0  0  0  0  0  0  0  0  0  0  0  0
   -5.7697   44.5705   44.8935 N   0  0  0  0  0  0  0  0  0  0  0  0
   -6.1992   45.0679   45.6738 H   0  0  0  0  0  0  0  0  0  0  0  0
   -5.3919   45.4328   43.7715 C   0  0  0  0  0  0  0  0  0  0  0  0
   -4.0772   45.0216   43.0918 C   0  0  0  0  0  0  0  0  0  0  0  0
   -3.4288   46.0940   42.2843 C   0  0  0  0  0  0  0  0  0  0  0  0
   -2.1898   46.5901   42.6276 N   0  0  0  0  0  0  0  0  0  0  0  0
   -3.8831   46.7093   41.1368 C   0  0  0  0  0  0  0  0  0  0  0  0
   -1.9237   47.5154   41.7335 C   0  0  0  0  0  0  0  0  0  0  0  0
   -2.9223   47.6262   40.8092 N   0  0  0  0  0  0  0  0  0  0  0  0
   -2.9510   48.2850   40.0346 H   0  0  0  0  0  0  0  0  0  0  0  0
 20 21  2  0
 21 22  1  0
 21 23  1  0
 22 24  1  0
 22 25  1  0
 23 13  1  0
 24 26  1  0
 25 27  1  0
 13 14  2  0
 13 15  1  0
 14 16  1  0
 14 17  1  0
 15 18  2  0
 16 19  2  0
 18 11  1  0
 11  1  1  0
  1  2  2  0
  1  3  1  0
  2  4  1  0
  3  5  2  0
  4 29  1  0
  4  6  2  0
  5  7  1  0
 29 31  1  0
  6  8  1  0
  7  9  1  0
 31 32  1  0
 32 33  1  0
 33 34  1  0
 33 35  2  0
 34 36  2  0
 35 37  1  0
 26 27  1  0
 18 19  1  0
  5  6  1  0
  8  9  2  0
 36 37  1  0
 23 28  1  0
 11 12  1  0
 29 30  1  0
  7 10  1  0
 37 38  1  0
M  END
>  <Molecule_Name>
EL2003A-A2U1

>  <Pose_Rank>
2

>  <pIC50_PDK1>
7.6

>  <GNINA_Affinity_kcal_mol>
-9.7599

>  <CNN_Score>
0.9423

>  <CNN_Affinity>
7.7118

>  <MMGBSA_dG_kcal_mol>
-61.665

>  <MMGBSA_VdW>
-58.044

>  <MMGBSA_Elec>
-3.665

>  <MMGBSA_PolarSolv>
6.378

>  <MMGBSA_NonPolarSolv>
-6.335

$$$$
EL2003A-A2U1


 38 42  0  0  0  0  0  0  0  0999 V2000
   -6.2969   40.5124   45.0998 C   0  0  0  0  0  0  0  0  0  0  0  0
   -5.4512   41.5629   45.1924 N   0  0  0  0  0  0  0  0  0  0  0  0
   -7.5431   40.5452   44.5808 N   0  0  0  0  0  0  0  0  0  0  0  0
   -5.8005   42.7742   44.6872 C   0  0  0  0  0  0  0  0  0  0  0  0
   -7.8673   41.7648   44.1371 C   0  0  0  0  0  0  0  0  0  0  0  0
   -7.0899   42.9047   44.1491 C   0  0  0  0  0  0  0  0  0  0  0  0
   -9.0416   42.1429   43.5548 N   0  0  0  0  0  0  0  0  0  0  0  0
   -7.7711   43.9693   43.5881 N   0  0  0  0  0  0  0  0  0  0  0  0
   -8.9391   43.4713   43.2411 C   0  0  0  0  0  0  0  0  0  0  0  0
   -9.8295   41.5375   43.3844 H   0  0  0  0  0  0  0  0  0  0  0  0
   -5.8762   39.2367   45.5097 N   0  0  0  0  0  0  0  0  0  0  0  0
   -6.3851   38.5767   44.9373 H   0  0  0  0  0  0  0  0  0  0  0  0
   -2.3322   39.5151   46.6095 C   0  0  0  0  0  0  0  0  0  0  0  0
   -1.9276   38.1668   46.5943 C   0  0  0  0  0  0  0  0  0  0  0  0
   -3.6281   39.8506   46.1897 C   0  0  0  0  0  0  0  0  0  0  0  0
   -2.8655   37.1829   46.2448 C   0  0  0  0  0  0  0  0  0  0  0  0
   -0.5440   37.7328   46.9915 C   0  0  0  0  0  0  0  0  0  0  0  0
   -4.5602   38.8686   45.8337 C   0  0  0  0  0  0  0  0  0  0  0  0
   -4.1707   37.5308   45.8922 C   0  0  0  0  0  0  0  0  0  0  0  0
   -1.6826   40.3312   49.3252 O   0  0  0  0  0  0  0  0  0  0  0  0
   -1.2169   40.9045   48.3407 C   0  0  0  0  0  0  0  0  0  0  0  0
   -0.3936   42.0027   48.4703 N   0  0  0  0  0  0  0  0  0  0  0  0
   -1.4245   40.5123   47.0364 N   0  0  0  0  0  0  0  0  0  0  0  0
    0.0874   42.8830   47.4147 C   0  0  0  0  0  0  0  0  0  0  0  0
   -0.0488   42.5222   49.7824 C   0  0  0  0  0  0  0  0  0  0  0  0
    0.5620   44.1326   48.1439 C   0  0  0  0  0  0  0  0  0  0  0  0
    0.9932   43.5939   49.5019 C   0  0  0  0  0  0  0  0  0  0  0  0
   -0.6603   40.7245   46.4165 H   0  0  0  0  0  0  0  0  0  0  0  0
   -4.9023   43.8520   44.7042 N   0  0  0  0  0  0  0  0  0  0  0  0
   -5.0113   44.3390   45.5940 H   0  0  0  0  0  0  0  0  0  0  0  0
   -4.9762   44.7270   43.5320 C   0  0  0  0  0  0  0  0  0  0  0  0
   -3.6793   44.7689   42.7097 C   0  0  0  0  0  0  0  0  0  0  0  0
   -3.3489   46.1025   42.1310 C   0  0  0  0  0  0  0  0  0  0  0  0
   -2.1579   46.7293   42.4270 N   0  0  0  0  0  0  0  0  0  0  0  0
   -4.0820   46.8713   41.2517 C   0  0  0  0  0  0  0  0  0  0  0  0
   -2.1925   47.8706   41.7770 C   0  0  0  0  0  0  0  0  0  0  0  0
   -3.3412   48.0036   41.0512 N   0  0  0  0  0  0  0  0  0  0  0  0
   -3.6020   48.8072   40.4848 H   0  0  0  0  0  0  0  0  0  0  0  0
 20 21  2  0
 21 22  1  0
 21 23  1  0
 22 24  1  0
 22 25  1  0
 23 13  1  0
 24 26  1  0
 25 27  1  0
 13 14  2  0
 13 15  1  0
 14 16  1  0
 14 17  1  0
 15 18  2  0
 16 19  2  0
 18 11  1  0
 11  1  1  0
  1  2  2  0
  1  3  1  0
  2  4  1  0
  3  5  2  0
  4 29  1  0
  4  6  2  0
  5  7  1  0
 29 31  1  0
  6  8  1  0
  7  9  1  0
 31 32  1  0
 32 33  1  0
 33 34  1  0
 33 35  2  0
 34 36  2  0
 35 37  1  0
 26 27  1  0
 18 19  1  0
  5  6  1  0
  8  9  2  0
 36 37  1  0
 23 28  1  0
 11 12  1  0
 29 30  1  0
  7 10  1  0
 37 38  1  0
M  END
>  <Molecule_Name>
EL2003A-A2U1

>  <Pose_Rank>
3

>  <pIC50_PDK1>
7.6

>  <GNINA_Affinity_kcal_mol>
-8.3525

>  <CNN_Score>
0.8996

>  <CNN_Affinity>
7.3751

>  <MMGBSA_dG_kcal_mol>
-57.839

>  <MMGBSA_VdW>
-55.391

>  <MMGBSA_Elec>
-3.545

>  <MMGBSA_PolarSolv>
6.822

>  <MMGBSA_NonPolarSolv>
-5.724

$$$$
EL2003A-A2U1


 38 42  0  0  0  0  0  0  0  0999 V2000
   -6.5503   42.2434   44.6287 C   0  0  0  0  0  0  0  0  0  0  0  0
   -5.9432   43.4507   44.6654 N   0  0  0  0  0  0  0  0  0  0  0  0
   -7.7733   41.9898   44.1156 N   0  0  0  0  0  0  0  0  0  0  0  0
   -6.5356   44.5363   44.1040 C   0  0  0  0  0  0  0  0  0  0  0  0
   -8.3432   43.0917   43.6151 C   0  0  0  0  0  0  0  0  0  0  0  0
   -7.8212   44.3681   43.5675 C   0  0  0  0  0  0  0  0  0  0  0  0
   -9.5678   43.1873   43.0216 N   0  0  0  0  0  0  0  0  0  0  0  0
   -8.7073   45.2383   42.9592 N   0  0  0  0  0  0  0  0  0  0  0  0
   -9.7437   44.4909   42.6433 C   0  0  0  0  0  0  0  0  0  0  0  0
  -10.2109   42.4230   42.8852 H   0  0  0  0  0  0  0  0  0  0  0  0
   -5.8741   41.1053   45.0977 N   0  0  0  0  0  0  0  0  0  0  0  0
   -6.4318   40.3113   44.8132 H   0  0  0  0  0  0  0  0  0  0  0  0
   -2.5374   39.6238   45.8178 C   0  0  0  0  0  0  0  0  0  0  0  0
   -1.7020   40.4016   44.9938 C   0  0  0  0  0  0  0  0  0  0  0  0
   -3.9085   39.9143   45.8795 C   0  0  0  0  0  0  0  0  0  0  0  0
   -2.2814   41.3913   44.1846 C   0  0  0  0  0  0  0  0  0  0  0  0
   -0.2180   40.1775   44.9045 C   0  0  0  0  0  0  0  0  0  0  0  0
   -4.4839   40.9072   45.0776 C   0  0  0  0  0  0  0  0  0  0  0  0
   -3.6579   41.6227   44.2113 C   0  0  0  0  0  0  0  0  0  0  0  0
   -2.6911   36.7601   45.3292 O   0  0  0  0  0  0  0  0  0  0  0  0
   -2.1552   37.2243   46.3352 C   0  0  0  0  0  0  0  0  0  0  0  0
   -1.6365   36.4064   47.3164 N   0  0  0  0  0  0  0  0  0  0  0  0
   -1.9820   38.5691   46.5792 N   0  0  0  0  0  0  0  0  0  0  0  0
   -1.1365   36.7971   48.6271 C   0  0  0  0  0  0  0  0  0  0  0  0
   -1.7083   34.9607   47.1933 C   0  0  0  0  0  0  0  0  0  0  0  0
   -1.1138   35.5035   49.4301 C   0  0  0  0  0  0  0  0  0  0  0  0
   -0.8857   34.4413   48.3624 C   0  0  0  0  0  0  0  0  0  0  0  0
   -1.1643   38.7862   47.1247 H   0  0  0  0  0  0  0  0  0  0  0  0
   -5.8826   45.7775   44.0638 N   0  0  0  0  0  0  0  0  0  0  0  0
   -6.4576   46.4526   44.5681 H   0  0  0  0  0  0  0  0  0  0  0  0
   -5.4852   46.2151   42.7237 C   0  0  0  0  0  0  0  0  0  0  0  0
   -4.3636   47.2647   42.7239 C   0  0  0  0  0  0  0  0  0  0  0  0
   -4.7994   48.6453   43.0796 C   0  0  0  0  0  0  0  0  0  0  0  0
   -5.0863   49.5730   42.1019 N   0  0  0  0  0  0  0  0  0  0  0  0
   -5.0099   49.1931   44.3275 C   0  0  0  0  0  0  0  0  0  0  0  0
   -5.4180   50.6689   42.7463 C   0  0  0  0  0  0  0  0  0  0  0  0
   -5.3845   50.4887   44.0992 N   0  0  0  0  0  0  0  0  0  0  0  0
   -5.5821   51.1964   44.8026 H   0  0  0  0  0  0  0  0  0  0  0  0
 20 21  2  0
 21 22  1  0
 21 23  1  0
 22 24  1  0
 22 25  1  0
 23 13  1  0
 24 26  1  0
 25 27  1  0
 13 14  2  0
 13 15  1  0
 14 16  1  0
 14 17  1  0
 15 18  2  0
 16 19  2  0
 18 11  1  0
 11  1  1  0
  1  2  2  0
  1  3  1  0
  2  4  1  0
  3  5  2  0
  4 29  1  0
  4  6  2  0
  5  7  1  0
 29 31  1  0
  6  8  1  0
  7  9  1  0
 31 32  1  0
 32 33  1  0
 33 34  1  0
 33 35  2  0
 34 36  2  0
 35 37  1  0
 26 27  1  0
 18 19  1  0
  5  6  1  0
  8  9  2  0
 36 37  1  0
 23 28  1  0
 11 12  1  0
 29 30  1  0
  7 10  1  0
 37 38  1  0
M  END
>  <Molecule_Name>
EL2003A-A2U1

>  <Pose_Rank>
4

>  <pIC50_PDK1>
7.6

>  <GNINA_Affinity_kcal_mol>
-8.3026

>  <CNN_Score>
0.7282

>  <CNN_Affinity>
7.2732

>  <MMGBSA_dG_kcal_mol>
-54.938

>  <MMGBSA_VdW>
-52.098

>  <MMGBSA_Elec>
-0.205

>  <MMGBSA_PolarSolv>
3.744

>  <MMGBSA_NonPolarSolv>
-6.380

$$$$
EL2003A-A2U1


 38 42  0  0  0  0  0  0  0  0999 V2000
   -6.2339   40.9904   44.8085 C   0  0  0  0  0  0  0  0  0  0  0  0
   -6.1350   39.7623   45.3647 N   0  0  0  0  0  0  0  0  0  0  0  0
   -5.2000   41.7967   44.4856 N   0  0  0  0  0  0  0  0  0  0  0  0
   -4.9171   39.2064   45.5933 C   0  0  0  0  0  0  0  0  0  0  0  0
   -4.0202   41.2334   44.7688 C   0  0  0  0  0  0  0  0  0  0  0  0
   -3.7853   39.9855   45.3085 C   0  0  0  0  0  0  0  0  0  0  0  0
   -2.7826   41.7703   44.5657 N   0  0  0  0  0  0  0  0  0  0  0  0
   -2.4282   39.7553   45.4404 N   0  0  0  0  0  0  0  0  0  0  0  0
   -1.8589   40.8497   44.9813 C   0  0  0  0  0  0  0  0  0  0  0  0
   -2.5990   42.6792   44.1701 H   0  0  0  0  0  0  0  0  0  0  0  0
   -7.4947   41.5014   44.4596 N   0  0  0  0  0  0  0  0  0  0  0  0
   -8.1504   41.1026   45.1177 H   0  0  0  0  0  0  0  0  0  0  0  0
   -6.9723   45.1017   43.6769 C   0  0  0  0  0  0  0  0  0  0  0  0
   -8.2329   45.4625   43.1645 C   0  0  0  0  0  0  0  0  0  0  0  0
   -6.7698   43.7981   44.1541 C   0  0  0  0  0  0  0  0  0  0  0  0
   -9.2282   44.4784   43.0611 C   0  0  0  0  0  0  0  0  0  0  0  0
   -8.5388   46.8495   42.6713 C   0  0  0  0  0  0  0  0  0  0  0  0
   -7.7662   42.8194   44.0577 C   0  0  0  0  0  0  0  0  0  0  0  0
   -8.9871   43.1692   43.4815 C   0  0  0  0  0  0  0  0  0  0  0  0
   -4.6476   45.3203   41.9416 O   0  0  0  0  0  0  0  0  0  0  0  0
   -4.8151   46.0641   42.9077 C   0  0  0  0  0  0  0  0  0  0  0  0
   -3.8808   47.0176   43.2520 N   0  0  0  0  0  0  0  0  0  0  0  0
   -5.9325   46.0598   43.7136 N   0  0  0  0  0  0  0  0  0  0  0  0
   -3.8525   47.8423   44.4518 C   0  0  0  0  0  0  0  0  0  0  0  0
   -2.6598   47.1742   42.4805 C   0  0  0  0  0  0  0  0  0  0  0  0
   -2.4240   48.3644   44.5248 C   0  0  0  0  0  0  0  0  0  0  0  0
   -2.0031   48.4168   43.0617 C   0  0  0  0  0  0  0  0  0  0  0  0
   -6.1578   46.9576   44.1092 H   0  0  0  0  0  0  0  0  0  0  0  0
   -4.7997   37.9014   46.0952 N   0  0  0  0  0  0  0  0  0  0  0  0
   -5.7401   37.5268   46.2220 H   0  0  0  0  0  0  0  0  0  0  0  0
   -3.9433   37.7764   47.2767 C   0  0  0  0  0  0  0  0  0  0  0  0
   -2.9486   36.6084   47.1979 C   0  0  0  0  0  0  0  0  0  0  0  0
   -3.5180   35.2774   47.5538 C   0  0  0  0  0  0  0  0  0  0  0  0
   -4.7718   35.1688   48.1151 N   0  0  0  0  0  0  0  0  0  0  0  0
   -2.9691   34.0247   47.3770 C   0  0  0  0  0  0  0  0  0  0  0  0
   -4.9557   33.8832   48.3142 C   0  0  0  0  0  0  0  0  0  0  0  0
   -3.8885   33.1482   47.8844 N   0  0  0  0  0  0  0  0  0  0  0  0
   -3.7916   32.1378   47.9510 H   0  0  0  0  0  0  0  0  0  0  0  0
 20 21  2  0
 21 22  1  0
 21 23  1  0
 22 24  1  0
 22 25  1  0
 23 13  1  0
 24 26  1  0
 25 27  1  0
 13 14  2  0
 13 15  1  0
 14 16  1  0
 14 17  1  0
 15 18  2  0
 16 19  2  0
 18 11  1  0
 11  1  1  0
  1  2  2  0
  1  3  1  0
  2  4  1  0
  3  5  2  0
  4 29  1  0
  4  6  2  0
  5  7  1  0
 29 31  1  0
  6  8  1  0
  7  9  1  0
 31 32  1  0
 32 33  1  0
 33 34  1  0
 33 35  2  0
 34 36  2  0
 35 37  1  0
 26 27  1  0
 18 19  1  0
  5  6  1  0
  8  9  2  0
 36 37  1  0
 23 28  1  0
 11 12  1  0
 29 30  1  0
  7 10  1  0
 37 38  1  0
M  END
>  <Molecule_Name>
EL2003A-A2U1

>  <Pose_Rank>
5

>  <pIC50_PDK1>
7.6

>  <GNINA_Affinity_kcal_mol>
-9.3329

>  <CNN_Score>
0.4966

>  <CNN_Affinity>
7.0253

>  <MMGBSA_dG_kcal_mol>
-58.587

>  <MMGBSA_VdW>
-56.530

>  <MMGBSA_Elec>
0.295

>  <MMGBSA_PolarSolv>
4.194

>  <MMGBSA_NonPolarSolv>
-6.545

$$$$
EL2003A


 37 41  0  0  0  0  0  0  0  0999 V2000
   -7.1137   41.4727   44.4765 C   0  0  0  0  0  0  0  0  0  0  0  0
   -6.3094   42.5365   44.7095 N   0  0  0  0  0  0  0  0  0  0  0  0
   -8.3040   41.5240   43.8438 N   0  0  0  0  0  0  0  0  0  0  0  0
   -6.6614   43.7776   44.2850 C   0  0  0  0  0  0  0  0  0  0  0  0
   -8.6242   42.7622   43.4545 C   0  0  0  0  0  0  0  0  0  0  0  0
   -7.8913   43.9172   43.6289 C   0  0  0  0  0  0  0  0  0  0  0  0
   -9.7556   43.1549   42.8006 N   0  0  0  0  0  0  0  0  0  0  0  0
   -8.5498   45.0043   43.0918 N   0  0  0  0  0  0  0  0  0  0  0  0
   -9.6686   44.5076   42.6048 C   0  0  0  0  0  0  0  0  0  0  0  0
  -10.5111   42.5468   42.5220 H   0  0  0  0  0  0  0  0  0  0  0  0
   -6.7646   40.2040   44.9345 N   0  0  0  0  0  0  0  0  0  0  0  0
   -7.5536   39.5794   44.8435 H   0  0  0  0  0  0  0  0  0  0  0  0
   -3.1965   39.9312   45.9146 C   0  0  0  0  0  0  0  0  0  0  0  0
   -4.4203   40.4318   45.4565 C   0  0  0  0  0  0  0  0  0  0  0  0
   -3.1359   38.6107   46.3678 C   0  0  0  0  0  0  0  0  0  0  0  0
   -5.5903   39.6482   45.4578 C   0  0  0  0  0  0  0  0  0  0  0  0
   -4.2806   37.8173   46.3766 C   0  0  0  0  0  0  0  0  0  0  0  0
   -5.4961   38.3372   45.9282 C   0  0  0  0  0  0  0  0  0  0  0  0
   -0.7985   39.7037   44.1976 O   0  0  0  0  0  0  0  0  0  0  0  0
   -0.8873   40.5007   45.1281 C   0  0  0  0  0  0  0  0  0  0  0  0
    0.1714   41.3292   45.4513 N   0  0  0  0  0  0  0  0  0  0  0  0
   -1.9954   40.6708   45.9265 N   0  0  0  0  0  0  0  0  0  0  0  0
    1.3960   41.2926   44.6703 C   0  0  0  0  0  0  0  0  0  0  0  0
    0.3071   42.2205   46.5944 C   0  0  0  0  0  0  0  0  0  0  0  0
    2.2009   42.4818   45.1715 C   0  0  0  0  0  0  0  0  0  0  0  0
    1.7878   42.5732   46.6342 C   0  0  0  0  0  0  0  0  0  0  0  0
   -1.9902   41.4876   46.5138 H   0  0  0  0  0  0  0  0  0  0  0  0
   -5.8386   44.8751   44.5755 N   0  0  0  0  0  0  0  0  0  0  0  0
   -6.3678   45.7282   44.3826 H   0  0  0  0  0  0  0  0  0  0  0  0
   -4.5434   44.8569   43.8852 C   0  0  0  0  0  0  0  0  0  0  0  0
   -4.6987   45.3774   42.4476 C   0  0  0  0  0  0  0  0  0  0  0  0
   -3.7801   46.5066   42.1135 C   0  0  0  0  0  0  0  0  0  0  0  0
   -2.4102   46.3933   42.1108 N   0  0  0  0  0  0  0  0  0  0  0  0
   -4.0175   47.8193   41.7674 C   0  0  0  0  0  0  0  0  0  0  0  0
   -1.8951   47.6039   41.7485 C   0  0  0  0  0  0  0  0  0  0  0  0
   -2.8430   48.4883   41.5365 N   0  0  0  0  0  0  0  0  0  0  0  0
   -1.8858   45.5421   42.2869 H   0  0  0  0  0  0  0  0  0  0  0  0
 19 20  2  0
 20 21  1  0
 20 22  1  0
 21 23  1  0
 21 24  1  0
 22 13  1  0
 23 25  1  0
 24 26  1  0
 13 14  2  0
 13 15  1  0
 14 16  1  0
 15 17  2  0
 16 11  1  0
 16 18  2  0
 11  1  1  0
  1  2  2  0
  1  3  1  0
  2  4  1  0
  3  5  2  0
  4 28  1  0
  4  6  2  0
  5  7  1  0
 28 30  1  0
  6  8  1  0
  7  9  1  0
 30 31  1  0
 31 32  1  0
 32 33  1  0
 32 34  2  0
 33 35  1  0
 34 36  1  0
 25 26  1  0
 17 18  1  0
  5  6  1  0
  8  9  2  0
 35 36  2  0
 22 27  1  0
 11 12  1  0
 28 29  1  0
  7 10  1  0
 33 37  1  0
M  END
>  <Molecule_Name>
EL2003A

>  <Pose_Rank>
1

>  <pIC50_PDK1>
7.5

>  <GNINA_Affinity_kcal_mol>
-9.7353

>  <CNN_Score>
0.9759

>  <CNN_Affinity>
7.7116

>  <MMGBSA_dG_kcal_mol>
-60.397

>  <MMGBSA_VdW>
-57.307

>  <MMGBSA_Elec>
-3.185

>  <MMGBSA_PolarSolv>
6.276

>  <MMGBSA_NonPolarSolv>
-6.180

$$$$
EL2003A


 37 41  0  0  0  0  0  0  0  0999 V2000
   -7.1166   41.4528   44.4448 C   0  0  0  0  0  0  0  0  0  0  0  0
   -6.3172   42.5186   44.6851 N   0  0  0  0  0  0  0  0  0  0  0  0
   -8.3138   41.5050   43.8252 N   0  0  0  0  0  0  0  0  0  0  0  0
   -6.6819   43.7633   44.2825 C   0  0  0  0  0  0  0  0  0  0  0  0
   -8.6464   42.7466   43.4575 C   0  0  0  0  0  0  0  0  0  0  0  0
   -7.9196   43.9039   43.6413 C   0  0  0  0  0  0  0  0  0  0  0  0
   -9.7872   43.1410   42.8212 N   0  0  0  0  0  0  0  0  0  0  0  0
   -8.5910   44.9943   43.1271 N   0  0  0  0  0  0  0  0  0  0  0  0
   -9.7114   44.4970   42.6445 C   0  0  0  0  0  0  0  0  0  0  0  0
  -10.5414   42.5319   42.5415 H   0  0  0  0  0  0  0  0  0  0  0  0
   -6.7542   40.1800   44.8805 N   0  0  0  0  0  0  0  0  0  0  0  0
   -7.5229   39.5394   44.7397 H   0  0  0  0  0  0  0  0  0  0  0  0
   -3.1940   39.9183   45.8921 C   0  0  0  0  0  0  0  0  0  0  0  0
   -4.4105   40.4090   45.4048 C   0  0  0  0  0  0  0  0  0  0  0  0
   -3.1487   38.6194   46.4055 C   0  0  0  0  0  0  0  0  0  0  0  0
   -5.5881   39.6375   45.4352 C   0  0  0  0  0  0  0  0  0  0  0  0
   -4.3012   37.8381   46.4440 C   0  0  0  0  0  0  0  0  0  0  0  0
   -5.5091   38.3486   45.9655 C   0  0  0  0  0  0  0  0  0  0  0  0
   -0.7722   39.5616   44.2316 O   0  0  0  0  0  0  0  0  0  0  0  0
   -0.8673   40.4162   45.1088 C   0  0  0  0  0  0  0  0  0  0  0  0
    0.1945   41.2537   45.3965 N   0  0  0  0  0  0  0  0  0  0  0  0
   -1.9858   40.6462   45.8771 N   0  0  0  0  0  0  0  0  0  0  0  0
    1.4307   41.1570   44.6391 C   0  0  0  0  0  0  0  0  0  0  0  0
    0.3215   42.2137   46.4836 C   0  0  0  0  0  0  0  0  0  0  0  0
    2.2397   42.3679   45.0778 C   0  0  0  0  0  0  0  0  0  0  0  0
    1.8049   42.5547   46.5250 C   0  0  0  0  0  0  0  0  0  0  0  0
   -1.9816   41.4981   46.4121 H   0  0  0  0  0  0  0  0  0  0  0  0
   -5.8636   44.8621   44.5806 N   0  0  0  0  0  0  0  0  0  0  0  0
   -6.1574   45.2408   45.4836 H   0  0  0  0  0  0  0  0  0  0  0  0
   -5.8282   45.8891   43.5326 C   0  0  0  0  0  0  0  0  0  0  0  0
   -4.8715   47.0240   43.9312 C   0  0  0  0  0  0  0  0  0  0  0  0
   -5.2126   48.3423   43.3179 C   0  0  0  0  0  0  0  0  0  0  0  0
   -4.9701   49.5485   43.9311 N   0  0  0  0  0  0  0  0  0  0  0  0
   -5.8026   48.6785   42.1186 C   0  0  0  0  0  0  0  0  0  0  0  0
   -5.3906   50.5345   43.0866 C   0  0  0  0  0  0  0  0  0  0  0  0
   -5.9015   50.0393   41.9823 N   0  0  0  0  0  0  0  0  0  0  0  0
   -4.5047   49.6761   44.8242 H   0  0  0  0  0  0  0  0  0  0  0  0
 19 20  2  0
 20 21  1  0
 20 22  1  0
 21 23  1  0
 21 24  1  0
 22 13  1  0
 23 25  1  0
 24 26  1  0
 13 14  2  0
 13 15  1  0
 14 16  1  0
 15 17  2  0
 16 11  1  0
 16 18  2  0
 11  1  1  0
  1  2  2  0
  1  3  1  0
  2  4  1  0
  3  5  2  0
  4 28  1  0
  4  6  2  0
  5  7  1  0
 28 30  1  0
  6  8  1  0
  7  9  1  0
 30 31  1  0
 31 32  1  0
 32 33  1  0
 32 34  2  0
 33 35  1  0
 34 36  1  0
 25 26  1  0
 17 18  1  0
  5  6  1  0
  8  9  2  0
 35 36  2  0
 22 27  1  0
 11 12  1  0
 28 29  1  0
  7 10  1  0
 33 37  1  0
M  END
>  <Molecule_Name>
EL2003A

>  <Pose_Rank>
2

>  <pIC50_PDK1>
7.5

>  <GNINA_Affinity_kcal_mol>
-9.8001

>  <CNN_Score>
0.9703

>  <CNN_Affinity>
7.6332

>  <MMGBSA_dG_kcal_mol>
-61.835

>  <MMGBSA_VdW>
-58.363

>  <MMGBSA_Elec>
-2.574

>  <MMGBSA_PolarSolv>
5.609

>  <MMGBSA_NonPolarSolv>
-6.507

$$$$
EL2003A


 37 41  0  0  0  0  0  0  0  0999 V2000
   -6.7473   41.6503   44.5476 C   0  0  0  0  0  0  0  0  0  0  0  0
   -6.0091   42.7837   44.6069 N   0  0  0  0  0  0  0  0  0  0  0  0
   -8.0028   41.5669   44.0610 N   0  0  0  0  0  0  0  0  0  0  0  0
   -6.5055   43.9593   44.1423 C   0  0  0  0  0  0  0  0  0  0  0  0
   -8.4635   42.7447   43.6276 C   0  0  0  0  0  0  0  0  0  0  0  0
   -7.8099   43.9590   43.6313 C   0  0  0  0  0  0  0  0  0  0  0  0
   -9.6903   43.0034   43.0892 N   0  0  0  0  0  0  0  0  0  0  0  0
   -8.6105   44.9510   43.1029 N   0  0  0  0  0  0  0  0  0  0  0  0
   -9.7346   44.3392   42.7904 C   0  0  0  0  0  0  0  0  0  0  0  0
  -10.4218   42.3231   42.9469 H   0  0  0  0  0  0  0  0  0  0  0  0
   -6.2477   40.4497   45.0476 N   0  0  0  0  0  0  0  0  0  0  0  0
   -7.0121   39.8231   45.2574 H   0  0  0  0  0  0  0  0  0  0  0  0
   -3.5715   38.0806   46.0435 C   0  0  0  0  0  0  0  0  0  0  0  0
   -4.8203   38.6282   45.7292 C   0  0  0  0  0  0  0  0  0  0  0  0
   -2.4357   38.8876   45.9360 C   0  0  0  0  0  0  0  0  0  0  0  0
   -4.9586   39.9596   45.2923 C   0  0  0  0  0  0  0  0  0  0  0  0
   -2.5496   40.2079   45.5070 C   0  0  0  0  0  0  0  0  0  0  0  0
   -3.8020   40.7338   45.1852 C   0  0  0  0  0  0  0  0  0  0  0  0
   -2.2264   37.0677   48.4755 O   0  0  0  0  0  0  0  0  0  0  0  0
   -2.7099   36.3330   47.6179 C   0  0  0  0  0  0  0  0  0  0  0  0
   -2.6157   34.9583   47.7313 N   0  0  0  0  0  0  0  0  0  0  0  0
   -3.3798   36.7574   46.4930 N   0  0  0  0  0  0  0  0  0  0  0  0
   -1.9710   34.3606   48.8881 C   0  0  0  0  0  0  0  0  0  0  0  0
   -2.9904   33.9419   46.7587 C   0  0  0  0  0  0  0  0  0  0  0  0
   -2.2749   32.8753   48.7662 C   0  0  0  0  0  0  0  0  0  0  0  0
   -2.3256   32.6666   47.2587 C   0  0  0  0  0  0  0  0  0  0  0  0
   -3.8846   36.0470   45.9903 H   0  0  0  0  0  0  0  0  0  0  0  0
   -5.7450   45.1319   44.2541 N   0  0  0  0  0  0  0  0  0  0  0  0
   -6.3632   45.8820   44.5709 H   0  0  0  0  0  0  0  0  0  0  0  0
   -5.0125   45.4938   43.0347 C   0  0  0  0  0  0  0  0  0  0  0  0
   -5.2893   46.9589   42.6621 C   0  0  0  0  0  0  0  0  0  0  0  0
   -4.3398   47.9285   43.2857 C   0  0  0  0  0  0  0  0  0  0  0  0
   -4.4311   48.3439   44.5929 N   0  0  0  0  0  0  0  0  0  0  0  0
   -3.2475   48.6036   42.7855 C   0  0  0  0  0  0  0  0  0  0  0  0
   -3.4022   49.2096   44.8252 C   0  0  0  0  0  0  0  0  0  0  0  0
   -2.6696   49.3891   43.7496 N   0  0  0  0  0  0  0  0  0  0  0  0
   -5.1078   48.0135   45.2737 H   0  0  0  0  0  0  0  0  0  0  0  0
 19 20  2  0
 20 21  1  0
 20 22  1  0
 21 23  1  0
 21 24  1  0
 22 13  1  0
 23 25  1  0
 24 26  1  0
 13 14  2  0
 13 15  1  0
 14 16  1  0
 15 17  2  0
 16 11  1  0
 16 18  2  0
 11  1  1  0
  1  2  2  0
  1  3  1  0
  2  4  1  0
  3  5  2  0
  4 28  1  0
  4  6  2  0
  5  7  1  0
 28 30  1  0
  6  8  1  0
  7  9  1  0
 30 31  1  0
 31 32  1  0
 32 33  1  0
 32 34  2  0
 33 35  1  0
 34 36  1  0
 25 26  1  0
 17 18  1  0
  5  6  1  0
  8  9  2  0
 35 36  2  0
 22 27  1  0
 11 12  1  0
 28 29  1  0
  7 10  1  0
 33 37  1  0
M  END
>  <Molecule_Name>
EL2003A

>  <Pose_Rank>
3

>  <pIC50_PDK1>
7.5

>  <GNINA_Affinity_kcal_mol>
-8.0657

>  <CNN_Score>
0.9404

>  <CNN_Affinity>
7.4355

>  <MMGBSA_dG_kcal_mol>
-54.417

>  <MMGBSA_VdW>
-52.042

>  <MMGBSA_Elec>
-1.259

>  <MMGBSA_PolarSolv>
4.521

>  <MMGBSA_NonPolarSolv>
-5.637

$$$$
EL2003A


 37 41  0  0  0  0  0  0  0  0999 V2000
   -5.7489   40.6110   44.8863 C   0  0  0  0  0  0  0  0  0  0  0  0
   -4.9241   41.6838   44.8440 N   0  0  0  0  0  0  0  0  0  0  0  0
   -7.0567   40.6246   44.5554 N   0  0  0  0  0  0  0  0  0  0  0  0
   -5.3811   42.8936   44.4297 C   0  0  0  0  0  0  0  0  0  0  0  0
   -7.4745   41.8339   44.1678 C   0  0  0  0  0  0  0  0  0  0  0  0
   -6.7339   42.9938   44.0795 C   0  0  0  0  0  0  0  0  0  0  0  0
   -8.7338   42.1861   43.7782 N   0  0  0  0  0  0  0  0  0  0  0  0
   -7.5139   44.0441   43.6407 N   0  0  0  0  0  0  0  0  0  0  0  0
   -8.7112   43.5209   43.4724 C   0  0  0  0  0  0  0  0  0  0  0  0
   -9.5273   41.5645   43.7325 H   0  0  0  0  0  0  0  0  0  0  0  0
   -5.2863   39.3760   45.3356 N   0  0  0  0  0  0  0  0  0  0  0  0
   -5.8931   38.6414   44.9991 H   0  0  0  0  0  0  0  0  0  0  0  0
   -2.2626   39.6413   47.4694 C   0  0  0  0  0  0  0  0  0  0  0  0
   -3.4004   39.9627   46.7209 C   0  0  0  0  0  0  0  0  0  0  0  0
   -1.8977   38.2984   47.5975 C   0  0  0  0  0  0  0  0  0  0  0  0
   -4.1931   38.9710   46.1119 C   0  0  0  0  0  0  0  0  0  0  0  0
   -2.6666   37.3012   47.0023 C   0  0  0  0  0  0  0  0  0  0  0  0
   -3.8060   37.6391   46.2701 C   0  0  0  0  0  0  0  0  0  0  0  0
   -0.0186   41.2234   46.3688 O   0  0  0  0  0  0  0  0  0  0  0  0
   -0.3696   41.2802   47.5446 C   0  0  0  0  0  0  0  0  0  0  0  0
    0.3076   42.0811   48.4455 N   0  0  0  0  0  0  0  0  0  0  0  0
   -1.4309   40.5957   48.0916 N   0  0  0  0  0  0  0  0  0  0  0  0
    1.4268   42.8961   48.0049 C   0  0  0  0  0  0  0  0  0  0  0  0
    0.1360   42.1654   49.8888 C   0  0  0  0  0  0  0  0  0  0  0  0
    1.7391   43.7875   49.1970 C   0  0  0  0  0  0  0  0  0  0  0  0
    1.3736   42.9030   50.3813 C   0  0  0  0  0  0  0  0  0  0  0  0
   -1.7146   40.8903   49.0107 H   0  0  0  0  0  0  0  0  0  0  0  0
   -4.5249   44.0039   44.4364 N   0  0  0  0  0  0  0  0  0  0  0  0
   -4.4806   44.3647   45.3918 H   0  0  0  0  0  0  0  0  0  0  0  0
   -4.8809   45.0454   43.4653 C   0  0  0  0  0  0  0  0  0  0  0  0
   -3.7464   45.2331   42.4457 C   0  0  0  0  0  0  0  0  0  0  0  0
   -3.2626   46.6418   42.3358 C   0  0  0  0  0  0  0  0  0  0  0  0
   -2.6590   47.1498   41.2100 N   0  0  0  0  0  0  0  0  0  0  0  0
   -3.2739   47.6946   43.2250 C   0  0  0  0  0  0  0  0  0  0  0  0
   -2.3630   48.4594   41.4538 C   0  0  0  0  0  0  0  0  0  0  0  0
   -2.7207   48.8179   42.6660 N   0  0  0  0  0  0  0  0  0  0  0  0
   -2.5191   46.6514   40.3367 H   0  0  0  0  0  0  0  0  0  0  0  0
 19 20  2  0
 20 21  1  0
 20 22  1  0
 21 23  1  0
 21 24  1  0
 22 13  1  0
 23 25  1  0
 24 26  1  0
 13 14  2  0
 13 15  1  0
 14 16  1  0
 15 17  2  0
 16 11  1  0
 16 18  2  0
 11  1  1  0
  1  2  2  0
  1  3  1  0
  2  4  1  0
  3  5  2  0
  4 28  1  0
  4  6  2  0
  5  7  1  0
 28 30  1  0
  6  8  1  0
  7  9  1  0
 30 31  1  0
 31 32  1  0
 32 33  1  0
 32 34  2  0
 33 35  1  0
 34 36  1  0
 25 26  1  0
 17 18  1  0
  5  6  1  0
  8  9  2  0
 35 36  2  0
 22 27  1  0
 11 12  1  0
 28 29  1  0
  7 10  1  0
 33 37  1  0
M  END
>  <Molecule_Name>
EL2003A

>  <Pose_Rank>
4

>  <pIC50_PDK1>
7.5

>  <GNINA_Affinity_kcal_mol>
-7.8587

>  <CNN_Score>
0.8123

>  <CNN_Affinity>
7.1894

>  <MMGBSA_dG_kcal_mol>
-50.454

>  <MMGBSA_VdW>
-49.034

>  <MMGBSA_Elec>
-1.310

>  <MMGBSA_PolarSolv>
5.091

>  <MMGBSA_NonPolarSolv>
-5.201

$$$$
EL2003A


 37 41  0  0  0  0  0  0  0  0999 V2000
   -6.4423   41.1513   44.8820 C   0  0  0  0  0  0  0  0  0  0  0  0
   -5.2333   41.7395   44.7234 N   0  0  0  0  0  0  0  0  0  0  0  0
   -6.6400   39.8897   45.3172 N   0  0  0  0  0  0  0  0  0  0  0  0
   -4.0913   41.0685   45.0233 C   0  0  0  0  0  0  0  0  0  0  0  0
   -5.4945   39.2557   45.5875 C   0  0  0  0  0  0  0  0  0  0  0  0
   -4.2111   39.7464   45.4707 C   0  0  0  0  0  0  0  0  0  0  0  0
   -5.3458   37.9754   46.0352 N   0  0  0  0  0  0  0  0  0  0  0  0
   -3.2839   38.7941   45.8416 N   0  0  0  0  0  0  0  0  0  0  0  0
   -4.0034   37.7413   46.1724 C   0  0  0  0  0  0  0  0  0  0  0  0
   -6.0986   37.3303   46.2231 H   0  0  0  0  0  0  0  0  0  0  0  0
   -7.6124   41.8308   44.5500 N   0  0  0  0  0  0  0  0  0  0  0  0
   -8.4096   41.3486   44.9411 H   0  0  0  0  0  0  0  0  0  0  0  0
   -7.1138   45.2160   43.1154 C   0  0  0  0  0  0  0  0  0  0  0  0
   -6.8973   43.9998   43.7727 C   0  0  0  0  0  0  0  0  0  0  0  0
   -8.3545   45.4458   42.5148 C   0  0  0  0  0  0  0  0  0  0  0  0
   -7.8868   42.9995   43.8283 C   0  0  0  0  0  0  0  0  0  0  0  0
   -9.3481   44.4707   42.5589 C   0  0  0  0  0  0  0  0  0  0  0  0
   -9.1102   43.2578   43.2078 C   0  0  0  0  0  0  0  0  0  0  0  0
   -7.4711   48.0998   42.5617 O   0  0  0  0  0  0  0  0  0  0  0  0
   -6.3727   47.5790   42.7378 C   0  0  0  0  0  0  0  0  0  0  0  0
   -5.2139   48.3278   42.6481 N   0  0  0  0  0  0  0  0  0  0  0  0
   -6.1603   46.2527   43.0381 N   0  0  0  0  0  0  0  0  0  0  0  0
   -5.2815   49.7537   42.3771 C   0  0  0  0  0  0  0  0  0  0  0  0
   -3.8333   47.8666   42.6779 C   0  0  0  0  0  0  0  0  0  0  0  0
   -3.8591   50.2480   42.5904 C   0  0  0  0  0  0  0  0  0  0  0  0
   -3.0210   49.0490   42.1677 C   0  0  0  0  0  0  0  0  0  0  0  0
   -5.2316   46.0168   43.3446 H   0  0  0  0  0  0  0  0  0  0  0  0
   -2.8464   41.6770   44.8091 N   0  0  0  0  0  0  0  0  0  0  0  0
   -2.9088   42.2351   43.9548 H   0  0  0  0  0  0  0  0  0  0  0  0
   -1.7155   40.7418   44.7800 C   0  0  0  0  0  0  0  0  0  0  0  0
   -0.7790   41.0014   45.9706 C   0  0  0  0  0  0  0  0  0  0  0  0
    0.1384   42.1632   45.7729 C   0  0  0  0  0  0  0  0  0  0  0  0
   -0.1599   43.4418   46.1800 N   0  0  0  0  0  0  0  0  0  0  0  0
    1.3827   42.2692   45.1899 C   0  0  0  0  0  0  0  0  0  0  0  0
    0.9000   44.2378   45.8558 C   0  0  0  0  0  0  0  0  0  0  0  0
    1.8484   43.5574   45.2530 N   0  0  0  0  0  0  0  0  0  0  0  0
   -0.9939   43.7230   46.6860 H   0  0  0  0  0  0  0  0  0  0  0  0
 19 20  2  0
 20 21  1  0
 20 22  1  0
 21 23  1  0
 21 24  1  0
 22 13  1  0
 23 25  1  0
 24 26  1  0
 13 14  2  0
 13 15  1  0
 14 16  1  0
 15 17  2  0
 16 11  1  0
 16 18  2  0
 11  1  1  0
  1  2  2  0
  1  3  1  0
  2  4  1  0
  3  5  2  0
  4 28  1  0
  4  6  2  0
  5  7  1  0
 28 30  1  0
  6  8  1  0
  7  9  1  0
 30 31  1  0
 31 32  1  0
 32 33  1  0
 32 34  2  0
 33 35  1  0
 34 36  1  0
 25 26  1  0
 17 18  1  0
  5  6  1  0
  8  9  2  0
 35 36  2  0
 22 27  1  0
 11 12  1  0
 28 29  1  0
  7 10  1  0
 33 37  1  0
M  END
>  <Molecule_Name>
EL2003A

>  <Pose_Rank>
5

>  <pIC50_PDK1>
7.5

>  <GNINA_Affinity_kcal_mol>
-9.3621

>  <CNN_Score>
0.6381

>  <CNN_Affinity>
7.2967

>  <MMGBSA_dG_kcal_mol>
-56.184

>  <MMGBSA_VdW>
-53.843

>  <MMGBSA_Elec>
-1.937

>  <MMGBSA_PolarSolv>
5.853

>  <MMGBSA_NonPolarSolv>
-6.257

$$$$
EL2003A-A4U1


 41 45  0  0  0  0  0  0  0  0999 V2000
   -6.6317   40.3190   44.8644 N   0  0  0  0  0  0  0  0  0  0  0  0
   -7.4580   39.7522   44.7347 H   0  0  0  0  0  0  0  0  0  0  0  0
   -6.8649   41.5923   44.3463 C   0  0  0  0  0  0  0  0  0  0  0  0
   -5.8474   42.4619   44.1579 N   0  0  0  0  0  0  0  0  0  0  0  0
   -8.1644   41.8499   44.0915 N   0  0  0  0  0  0  0  0  0  0  0  0
   -6.0755   43.7072   43.6613 C   0  0  0  0  0  0  0  0  0  0  0  0
   -8.3550   43.0830   43.6124 C   0  0  0  0  0  0  0  0  0  0  0  0
   -7.4045   44.0536   43.3731 C   0  0  0  0  0  0  0  0  0  0  0  0
   -9.5434   43.6513   43.2575 N   0  0  0  0  0  0  0  0  0  0  0  0
   -7.9964   45.2110   42.9029 N   0  0  0  0  0  0  0  0  0  0  0  0
   -9.2805   44.9274   42.8377 C   0  0  0  0  0  0  0  0  0  0  0  0
  -10.4437   43.1987   43.3042 H   0  0  0  0  0  0  0  0  0  0  0  0
   -5.0237   44.6026   43.4541 N   0  0  0  0  0  0  0  0  0  0  0  0
   -4.8338   44.6992   42.4571 H   0  0  0  0  0  0  0  0  0  0  0  0
   -5.0946   45.8746   44.1739 C   0  0  0  0  0  0  0  0  0  0  0  0
   -4.7792   47.0919   43.2965 C   0  0  0  0  0  0  0  0  0  0  0  0
   -4.9622   48.3848   44.0145 C   0  0  0  0  0  0  0  0  0  0  0  0
   -4.4520   48.5655   45.2798 N   0  0  0  0  0  0  0  0  0  0  0  0
   -5.6019   49.5310   43.5917 C   0  0  0  0  0  0  0  0  0  0  0  0
   -4.7723   49.7934   45.6158 C   0  0  0  0  0  0  0  0  0  0  0  0
   -5.4690   50.4186   44.6221 N   0  0  0  0  0  0  0  0  0  0  0  0
   -5.8173   51.3668   44.6477 H   0  0  0  0  0  0  0  0  0  0  0  0
   -3.1823   38.5260   46.5528 C   0  0  0  0  0  0  0  0  0  0  0  0
   -3.1147   39.8065   45.9728 C   0  0  0  0  0  0  0  0  0  0  0  0
   -4.4153   37.8462   46.5628 C   0  0  0  0  0  0  0  0  0  0  0  0
   -4.2890   40.3622   45.4360 C   0  0  0  0  0  0  0  0  0  0  0  0
   -5.5646   38.4199   46.0158 C   0  0  0  0  0  0  0  0  0  0  0  0
   -5.5261   39.6894   45.4474 C   0  0  0  0  0  0  0  0  0  0  0  0
   -1.8823   40.5056   45.9608 N   0  0  0  0  0  0  0  0  0  0  0  0
   -0.8238   40.3764   45.0882 C   0  0  0  0  0  0  0  0  0  0  0  0
   -0.7437   39.5493   44.1846 O   0  0  0  0  0  0  0  0  0  0  0  0
    0.1990   41.2799   45.3107 N   0  0  0  0  0  0  0  0  0  0  0  0
    1.4047   41.2354   44.5002 C   0  0  0  0  0  0  0  0  0  0  0  0
    0.2346   42.4043   46.2368 C   0  0  0  0  0  0  0  0  0  0  0  0
    2.3684   42.1812   45.2003 C   0  0  0  0  0  0  0  0  0  0  0  0
    1.4374   43.2276   45.7971 C   0  0  0  0  0  0  0  0  0  0  0  0
   -1.7030   41.1178   46.7438 H   0  0  0  0  0  0  0  0  0  0  0  0
   -1.2803   38.6156   47.9972 F   0  0  0  0  0  0  0  0  0  0  0  0
   -2.0037   37.8141   47.1658 C   0  0  0  0  0  0  0  0  0  0  0  0
   -1.1039   37.3302   46.2574 F   0  0  0  0  0  0  0  0  0  0  0  0
   -2.3737   36.7387   47.9159 F   0  0  0  0  0  0  0  0  0  0  0  0
 38 39  1  0
 39 40  1  0
 39 41  1  0
 39 23  1  0
 23 24  2  0
 23 25  1  0
 24 29  1  0
 24 26  1  0
 25 27  2  0
 29 30  1  0
 26 28  2  0
 30 31  2  0
 30 32  1  0
 28  1  1  0
 32 33  1  0
 32 34  1  0
  1  3  1  0
 33 35  1  0
 34 36  1  0
  3  4  2  0
  3  5  1  0
  4  6  1  0
  5  7  2  0
  6 13  1  0
  6  8  2  0
  7  9  1  0
 13 15  1  0
  8 10  1  0
  9 11  1  0
 15 16  1  0
 16 17  1  0
 17 18  1  0
 17 19  2  0
 18 20  2  0
 19 21  1  0
 27 28  1  0
 35 36  1  0
  7  8  1  0
 10 11  2  0
 20 21  1  0
 29 37  1  0
  1  2  1  0
 13 14  1  0
  9 12  1  0
 21 22  1  0
M  END
>  <Molecule_Name>
EL2003A-A4U1

>  <Pose_Rank>
1

>  <pIC50_PDK1>
7.5

>  <GNINA_Affinity_kcal_mol>
-9.3146

>  <CNN_Score>
0.9549

>  <CNN_Affinity>
8.0316

>  <MMGBSA_dG_kcal_mol>
-64.741

>  <MMGBSA_VdW>
-61.437

>  <MMGBSA_Elec>
-4.200

>  <MMGBSA_PolarSolv>
7.878

>  <MMGBSA_NonPolarSolv>
-6.982

$$$$
EL2003A-A4U1


 41 45  0  0  0  0  0  0  0  0999 V2000
   -6.5996   40.0160   44.8152 N   0  0  0  0  0  0  0  0  0  0  0  0
   -7.2894   39.3606   44.4751 H   0  0  0  0  0  0  0  0  0  0  0  0
   -6.9867   41.3092   44.4663 C   0  0  0  0  0  0  0  0  0  0  0  0
   -6.2050   42.3713   44.7628 N   0  0  0  0  0  0  0  0  0  0  0  0
   -8.1854   41.3744   43.8509 N   0  0  0  0  0  0  0  0  0  0  0  0
   -6.5865   43.6338   44.4310 C   0  0  0  0  0  0  0  0  0  0  0  0
   -8.5340   42.6281   43.5456 C   0  0  0  0  0  0  0  0  0  0  0  0
   -7.8253   43.7862   43.7896 C   0  0  0  0  0  0  0  0  0  0  0  0
   -9.6786   43.0338   42.9240 N   0  0  0  0  0  0  0  0  0  0  0  0
   -8.5299   44.8914   43.3502 N   0  0  0  0  0  0  0  0  0  0  0  0
   -9.6334   44.3985   42.8276 C   0  0  0  0  0  0  0  0  0  0  0  0
  -10.4152   42.4244   42.6018 H   0  0  0  0  0  0  0  0  0  0  0  0
   -5.7741   44.7313   44.7253 N   0  0  0  0  0  0  0  0  0  0  0  0
   -5.0022   44.4474   45.3277 H   0  0  0  0  0  0  0  0  0  0  0  0
   -5.3721   45.5705   43.5960 C   0  0  0  0  0  0  0  0  0  0  0  0
   -4.0219   45.1721   42.9884 C   0  0  0  0  0  0  0  0  0  0  0  0
   -3.3712   46.2873   42.2444 C   0  0  0  0  0  0  0  0  0  0  0  0
   -2.0721   46.6510   42.5162 N   0  0  0  0  0  0  0  0  0  0  0  0
   -3.8868   47.0800   41.2407 C   0  0  0  0  0  0  0  0  0  0  0  0
   -1.8048   47.6395   41.6948 C   0  0  0  0  0  0  0  0  0  0  0  0
   -2.8754   47.9335   40.9003 N   0  0  0  0  0  0  0  0  0  0  0  0
   -2.9071   48.6503   40.1889 H   0  0  0  0  0  0  0  0  0  0  0  0
   -3.1199   38.4773   46.6828 C   0  0  0  0  0  0  0  0  0  0  0  0
   -3.0866   39.7131   46.0100 C   0  0  0  0  0  0  0  0  0  0  0  0
   -4.3285   37.7565   46.7254 C   0  0  0  0  0  0  0  0  0  0  0  0
   -4.2700   40.1851   45.4161 C   0  0  0  0  0  0  0  0  0  0  0  0
   -5.4874   38.2466   46.1205 C   0  0  0  0  0  0  0  0  0  0  0  0
   -5.4831   39.4712   45.4596 C   0  0  0  0  0  0  0  0  0  0  0  0
   -1.8790   40.4529   45.9638 N   0  0  0  0  0  0  0  0  0  0  0  0
   -0.8166   40.3202   45.0966 C   0  0  0  0  0  0  0  0  0  0  0  0
   -0.7079   39.4555   44.2319 O   0  0  0  0  0  0  0  0  0  0  0  0
    0.1743   41.2678   45.2756 N   0  0  0  0  0  0  0  0  0  0  0  0
    1.3808   41.2276   44.4662 C   0  0  0  0  0  0  0  0  0  0  0  0
    0.1709   42.4343   46.1488 C   0  0  0  0  0  0  0  0  0  0  0  0
    2.3113   42.2374   45.1205 C   0  0  0  0  0  0  0  0  0  0  0  0
    1.3446   43.2774   45.6698 C   0  0  0  0  0  0  0  0  0  0  0  0
   -1.7211   41.1065   46.7175 H   0  0  0  0  0  0  0  0  0  0  0  0
   -2.2565   36.7519   48.0934 F   0  0  0  0  0  0  0  0  0  0  0  0
   -1.9281   37.8554   47.3643 C   0  0  0  0  0  0  0  0  0  0  0  0
   -1.2822   38.6859   48.2373 F   0  0  0  0  0  0  0  0  0  0  0  0
   -0.9743   37.4466   46.4816 F   0  0  0  0  0  0  0  0  0  0  0  0
 38 39  1  0
 39 40  1  0
 39 41  1  0
 39 23  1  0
 23 24  2  0
 23 25  1  0
 24 29  1  0
 24 26  1  0
 25 27  2  0
 29 30  1  0
 26 28  2  0
 30 31  2  0
 30 32  1  0
 28  1  1  0
 32 33  1  0
 32 34  1  0
  1  3  1  0
 33 35  1  0
 34 36  1  0
  3  4  2  0
  3  5  1  0
  4  6  1  0
  5  7  2  0
  6 13  1  0
  6  8  2  0
  7  9  1  0
 13 15  1  0
  8 10  1  0
  9 11  1  0
 15 16  1  0
 16 17  1  0
 17 18  1  0
 17 19  2  0
 18 20  2  0
 19 21  1  0
 27 28  1  0
 35 36  1  0
  7  8  1  0
 10 11  2  0
 20 21  1  0
 29 37  1  0
  1  2  1  0
 13 14  1  0
  9 12  1  0
 21 22  1  0
M  END
>  <Molecule_Name>
EL2003A-A4U1

>  <Pose_Rank>
2

>  <pIC50_PDK1>
7.5

>  <GNINA_Affinity_kcal_mol>
-9.8019

>  <CNN_Score>
0.9429

>  <CNN_Affinity>
7.7598

>  <MMGBSA_dG_kcal_mol>
-62.331

>  <MMGBSA_VdW>
-58.959

>  <MMGBSA_Elec>
-4.143

>  <MMGBSA_PolarSolv>
7.493

>  <MMGBSA_NonPolarSolv>
-6.723

$$$$
EL2003A-A4U1


 41 45  0  0  0  0  0  0  0  0999 V2000
   -6.3183   40.6643   45.0711 N   0  0  0  0  0  0  0  0  0  0  0  0
   -7.0859   40.0452   45.2910 H   0  0  0  0  0  0  0  0  0  0  0  0
   -6.8249   41.8504   44.5415 C   0  0  0  0  0  0  0  0  0  0  0  0
   -6.1129   42.9977   44.6028 N   0  0  0  0  0  0  0  0  0  0  0  0
   -8.0588   41.7292   44.0097 N   0  0  0  0  0  0  0  0  0  0  0  0
   -6.6105   44.1568   44.0947 C   0  0  0  0  0  0  0  0  0  0  0  0
   -8.5215   42.8864   43.5268 C   0  0  0  0  0  0  0  0  0  0  0  0
   -7.8925   44.1142   43.5257 C   0  0  0  0  0  0  0  0  0  0  0  0
   -9.7284   43.1026   42.9287 N   0  0  0  0  0  0  0  0  0  0  0  0
   -8.7058   45.0787   42.9605 N   0  0  0  0  0  0  0  0  0  0  0  0
   -9.7958   44.4310   42.6054 C   0  0  0  0  0  0  0  0  0  0  0  0
  -10.4325   42.3992   42.7643 H   0  0  0  0  0  0  0  0  0  0  0  0
   -5.8708   45.3406   44.1458 N   0  0  0  0  0  0  0  0  0  0  0  0
   -5.0371   45.2112   44.7182 H   0  0  0  0  0  0  0  0  0  0  0  0
   -5.6203   46.0123   42.8702 C   0  0  0  0  0  0  0  0  0  0  0  0
   -6.1785   47.4392   42.8108 C   0  0  0  0  0  0  0  0  0  0  0  0
   -5.1433   48.4504   42.4549 C   0  0  0  0  0  0  0  0  0  0  0  0
   -3.8644   48.0626   42.1267 N   0  0  0  0  0  0  0  0  0  0  0  0
   -5.2569   49.8229   42.3843 C   0  0  0  0  0  0  0  0  0  0  0  0
   -3.2177   49.1737   41.8607 C   0  0  0  0  0  0  0  0  0  0  0  0
   -4.0227   50.2673   42.0018 N   0  0  0  0  0  0  0  0  0  0  0  0
   -3.7509   51.2280   41.8465 H   0  0  0  0  0  0  0  0  0  0  0  0
   -2.4841   39.0311   45.8426 C   0  0  0  0  0  0  0  0  0  0  0  0
   -3.6459   38.2644   46.0503 C   0  0  0  0  0  0  0  0  0  0  0  0
   -2.6139   40.3528   45.3750 C   0  0  0  0  0  0  0  0  0  0  0  0
   -4.8934   38.8480   45.7694 C   0  0  0  0  0  0  0  0  0  0  0  0
   -3.8668   40.9091   45.1107 C   0  0  0  0  0  0  0  0  0  0  0  0
   -5.0294   40.1677   45.2968 C   0  0  0  0  0  0  0  0  0  0  0  0
   -3.5309   36.9306   46.5147 N   0  0  0  0  0  0  0  0  0  0  0  0
   -4.3148   36.2637   47.4307 C   0  0  0  0  0  0  0  0  0  0  0  0
   -5.2353   36.7597   48.0741 O   0  0  0  0  0  0  0  0  0  0  0  0
   -3.9772   34.9327   47.5931 N   0  0  0  0  0  0  0  0  0  0  0  0
   -4.6841   34.1107   48.5611 C   0  0  0  0  0  0  0  0  0  0  0  0
   -3.0148   34.1395   46.8395 C   0  0  0  0  0  0  0  0  0  0  0  0
   -3.8744   32.8250   48.6313 C   0  0  0  0  0  0  0  0  0  0  0  0
   -3.3240   32.6975   47.2176 C   0  0  0  0  0  0  0  0  0  0  0  0
   -2.7157   36.4163   46.2127 H   0  0  0  0  0  0  0  0  0  0  0  0
   -0.1344   39.4684   45.8301 F   0  0  0  0  0  0  0  0  0  0  0  0
   -1.0858   38.5308   46.1000 C   0  0  0  0  0  0  0  0  0  0  0  0
   -0.7345   37.4364   45.3599 F   0  0  0  0  0  0  0  0  0  0  0  0
   -0.8905   38.1670   47.3983 F   0  0  0  0  0  0  0  0  0  0  0  0
 38 39  1  0
 39 40  1  0
 39 41  1  0
 39 23  1  0
 23 24  2  0
 23 25  1  0
 24 29  1  0
 24 26  1  0
 25 27  2  0
 29 30  1  0
 26 28  2  0
 30 31  2  0
 30 32  1  0
 28  1  1  0
 32 33  1  0
 32 34  1  0
  1  3  1  0
 33 35  1  0
 34 36  1  0
  3  4  2  0
  3  5  1  0
  4  6  1  0
  5  7  2  0
  6 13  1  0
  6  8  2  0
  7  9  1  0
 13 15  1  0
  8 10  1  0
  9 11  1  0
 15 16  1  0
 16 17  1  0
 17 18  1  0
 17 19  2  0
 18 20  2  0
 19 21  1  0
 27 28  1  0
 35 36  1  0
  7  8  1  0
 10 11  2  0
 20 21  1  0
 29 37  1  0
  1  2  1  0
 13 14  1  0
  9 12  1  0
 21 22  1  0
M  END
>  <Molecule_Name>
EL2003A-A4U1

>  <Pose_Rank>
3

>  <pIC50_PDK1>
7.5

>  <GNINA_Affinity_kcal_mol>
-8.9416

>  <CNN_Score>
0.9353

>  <CNN_Affinity>
7.7144

>  <MMGBSA_dG_kcal_mol>
-60.520

>  <MMGBSA_VdW>
-58.038

>  <MMGBSA_Elec>
-3.551

>  <MMGBSA_PolarSolv>
7.684

>  <MMGBSA_NonPolarSolv>
-6.615

$$$$
EL2003A-A4U1


 41 45  0  0  0  0  0  0  0  0999 V2000
   -5.7321   41.8417   44.9704 N   0  0  0  0  0  0  0  0  0  0  0  0
   -6.3692   41.3759   45.6013 H   0  0  0  0  0  0  0  0  0  0  0  0
   -6.4229   42.8305   44.2710 C   0  0  0  0  0  0  0  0  0  0  0  0
   -5.7960   43.9544   43.8576 N   0  0  0  0  0  0  0  0  0  0  0  0
   -7.7312   42.5579   44.0867 N   0  0  0  0  0  0  0  0  0  0  0  0
   -6.4715   44.9233   43.1834 C   0  0  0  0  0  0  0  0  0  0  0  0
   -8.3670   43.5322   43.4287 C   0  0  0  0  0  0  0  0  0  0  0  0
   -7.8402   44.7156   42.9541 C   0  0  0  0  0  0  0  0  0  0  0  0
   -9.6869   43.5655   43.0855 N   0  0  0  0  0  0  0  0  0  0  0  0
   -8.8218   45.4795   42.3508 N   0  0  0  0  0  0  0  0  0  0  0  0
   -9.9150   44.7512   42.4408 C   0  0  0  0  0  0  0  0  0  0  0  0
  -10.3592   42.8393   43.2812 H   0  0  0  0  0  0  0  0  0  0  0  0
   -5.8225   46.0797   42.7443 N   0  0  0  0  0  0  0  0  0  0  0  0
   -5.4168   45.9276   41.8214 H   0  0  0  0  0  0  0  0  0  0  0  0
   -6.5634   47.3351   42.8709 C   0  0  0  0  0  0  0  0  0  0  0  0
   -6.1880   48.3762   41.8096 C   0  0  0  0  0  0  0  0  0  0  0  0
   -5.3034   49.4509   42.3417 C   0  0  0  0  0  0  0  0  0  0  0  0
   -5.7542   50.7471   42.4441 N   0  0  0  0  0  0  0  0  0  0  0  0
   -4.0038   49.3623   42.7945 C   0  0  0  0  0  0  0  0  0  0  0  0
   -4.7525   51.4286   42.9496 C   0  0  0  0  0  0  0  0  0  0  0  0
   -3.6697   50.6298   43.1804 N   0  0  0  0  0  0  0  0  0  0  0  0
   -2.7857   50.9266   43.5698 H   0  0  0  0  0  0  0  0  0  0  0  0
   -1.7871   40.2930   45.0143 C   0  0  0  0  0  0  0  0  0  0  0  0
   -2.7827   39.7447   45.8442 C   0  0  0  0  0  0  0  0  0  0  0  0
   -2.1206   41.3676   44.1679 C   0  0  0  0  0  0  0  0  0  0  0  0
   -4.0783   40.2866   45.7848 C   0  0  0  0  0  0  0  0  0  0  0  0
   -3.4147   41.8904   44.1347 C   0  0  0  0  0  0  0  0  0  0  0  0
   -4.4193   41.3579   44.9368 C   0  0  0  0  0  0  0  0  0  0  0  0
   -2.4637   38.6589   46.6970 N   0  0  0  0  0  0  0  0  0  0  0  0
   -2.6869   37.3132   46.5032 C   0  0  0  0  0  0  0  0  0  0  0  0
   -3.2886   36.8215   45.5529 O   0  0  0  0  0  0  0  0  0  0  0  0
   -2.1693   36.5100   47.5028 N   0  0  0  0  0  0  0  0  0  0  0  0
   -2.3670   35.0707   47.4616 C   0  0  0  0  0  0  0  0  0  0  0  0
   -1.3256   36.8884   48.6289 C   0  0  0  0  0  0  0  0  0  0  0  0
   -1.8968   34.5834   48.8236 C   0  0  0  0  0  0  0  0  0  0  0  0
   -0.7896   35.5697   49.1689 C   0  0  0  0  0  0  0  0  0  0  0  0
   -2.1084   38.8937   47.6128 H   0  0  0  0  0  0  0  0  0  0  0  0
   -0.2478   38.5468   44.4726 F   0  0  0  0  0  0  0  0  0  0  0  0
   -0.3604   39.8086   44.9749 C   0  0  0  0  0  0  0  0  0  0  0  0
    0.2539   39.7675   46.1955 F   0  0  0  0  0  0  0  0  0  0  0  0
    0.4370   40.5910   44.1952 F   0  0  0  0  0  0  0  0  0  0  0  0
 38 39  1  0
 39 40  1  0
 39 41  1  0
 39 23  1  0
 23 24  2  0
 23 25  1  0
 24 29  1  0
 24 26  1  0
 25 27  2  0
 29 30  1  0
 26 28  2  0
 30 31  2  0
 30 32  1  0
 28  1  1  0
 32 33  1  0
 32 34  1  0
  1  3  1  0
 33 35  1  0
 34 36  1  0
  3  4  2  0
  3  5  1  0
  4  6  1  0
  5  7  2  0
  6 13  1  0
  6  8  2  0
  7  9  1  0
 13 15  1  0
  8 10  1  0
  9 11  1  0
 15 16  1  0
 16 17  1  0
 17 18  1  0
 17 19  2  0
 18 20  2  0
 19 21  1  0
 27 28  1  0
 35 36  1  0
  7  8  1  0
 10 11  2  0
 20 21  1  0
 29 37  1  0
  1  2  1  0
 13 14  1  0
  9 12  1  0
 21 22  1  0
M  END
>  <Molecule_Name>
EL2003A-A4U1

>  <Pose_Rank>
4

>  <pIC50_PDK1>
7.5

>  <GNINA_Affinity_kcal_mol>
-8.6768

>  <CNN_Score>
0.4980

>  <CNN_Affinity>
7.1445

>  <MMGBSA_dG_kcal_mol>
-56.194

>  <MMGBSA_VdW>
-54.017

>  <MMGBSA_Elec>
-1.346

>  <MMGBSA_PolarSolv>
6.003

>  <MMGBSA_NonPolarSolv>
-6.833

$$$$
EL2003A-A4U1


 41 45  0  0  0  0  0  0  0  0999 V2000
   -7.0365   42.1424   44.3775 N   0  0  0  0  0  0  0  0  0  0  0  0
   -7.8940   41.6419   44.5647 H   0  0  0  0  0  0  0  0  0  0  0  0
   -5.9520   41.3314   44.7093 C   0  0  0  0  0  0  0  0  0  0  0  0
   -6.1353   40.0431   45.0751 N   0  0  0  0  0  0  0  0  0  0  0  0
   -4.7599   41.9601   44.6496 N   0  0  0  0  0  0  0  0  0  0  0  0
   -5.0786   39.2543   45.4078 C   0  0  0  0  0  0  0  0  0  0  0  0
   -3.7444   41.1604   44.9895 C   0  0  0  0  0  0  0  0  0  0  0  0
   -3.8024   39.8367   45.3734 C   0  0  0  0  0  0  0  0  0  0  0  0
   -2.4207   41.4874   45.0327 N   0  0  0  0  0  0  0  0  0  0  0  0
   -2.5400   39.3599   45.6739 N   0  0  0  0  0  0  0  0  0  0  0  0
   -1.7356   40.3776   45.4479 C   0  0  0  0  0  0  0  0  0  0  0  0
   -2.0346   42.3897   44.7992 H   0  0  0  0  0  0  0  0  0  0  0  0
   -5.2649   37.9192   45.7737 N   0  0  0  0  0  0  0  0  0  0  0  0
   -4.9780   37.3020   45.0147 H   0  0  0  0  0  0  0  0  0  0  0  0
   -4.7588   37.5233   47.0884 C   0  0  0  0  0  0  0  0  0  0  0  0
   -3.5887   36.5347   47.0205 C   0  0  0  0  0  0  0  0  0  0  0  0
   -3.9045   35.2213   47.6498 C   0  0  0  0  0  0  0  0  0  0  0  0
   -5.0148   35.0729   48.4493 N   0  0  0  0  0  0  0  0  0  0  0  0
   -3.2232   34.0261   47.5557 C   0  0  0  0  0  0  0  0  0  0  0  0
   -5.0087   33.8163   48.8292 C   0  0  0  0  0  0  0  0  0  0  0  0
   -3.9414   33.1416   48.3101 N   0  0  0  0  0  0  0  0  0  0  0  0
   -3.7284   32.1649   48.4571 H   0  0  0  0  0  0  0  0  0  0  0  0
   -7.2708   46.1493   43.0159 C   0  0  0  0  0  0  0  0  0  0  0  0
   -6.0238   45.5528   43.2803 C   0  0  0  0  0  0  0  0  0  0  0  0
   -8.4430   45.3945   43.2122 C   0  0  0  0  0  0  0  0  0  0  0  0
   -5.9989   44.2178   43.7197 C   0  0  0  0  0  0  0  0  0  0  0  0
   -8.3886   44.0720   43.6563 C   0  0  0  0  0  0  0  0  0  0  0  0
   -7.1675   43.4562   43.9131 C   0  0  0  0  0  0  0  0  0  0  0  0
   -4.8350   46.2979   43.0815 N   0  0  0  0  0  0  0  0  0  0  0  0
   -4.1763   47.1261   43.9638 C   0  0  0  0  0  0  0  0  0  0  0  0
   -4.5679   47.4222   45.0891 O   0  0  0  0  0  0  0  0  0  0  0  0
   -2.9877   47.6349   43.4735 N   0  0  0  0  0  0  0  0  0  0  0  0
   -2.2036   48.5626   44.2717 C   0  0  0  0  0  0  0  0  0  0  0  0
   -2.3003   47.3056   42.2317 C   0  0  0  0  0  0  0  0  0  0  0  0
   -1.1418   49.0834   43.3153 C   0  0  0  0  0  0  0  0  0  0  0  0
   -0.9054   47.8931   42.3960 C   0  0  0  0  0  0  0  0  0  0  0  0
   -4.4588   46.3058   42.1442 H   0  0  0  0  0  0  0  0  0  0  0  0
   -6.7773   47.8160   41.3755 F   0  0  0  0  0  0  0  0  0  0  0  0
   -7.4430   47.5685   42.5386 C   0  0  0  0  0  0  0  0  0  0  0  0
   -6.9980   48.5159   43.4180 F   0  0  0  0  0  0  0  0  0  0  0  0
   -8.7456   47.8848   42.2952 F   0  0  0  0  0  0  0  0  0  0  0  0
 38 39  1  0
 39 40  1  0
 39 41  1  0
 39 23  1  0
 23 24  2  0
 23 25  1  0
 24 29  1  0
 24 26  1  0
 25 27  2  0
 29 30  1  0
 26 28  2  0
 30 31  2  0
 30 32  1  0
 28  1  1  0
 32 33  1  0
 32 34  1  0
  1  3  1  0
 33 35  1  0
 34 36  1  0
  3  4  2  0
  3  5  1  0
  4  6  1  0
  5  7  2  0
  6 13  1  0
  6  8  2  0
  7  9  1  0
 13 15  1  0
  8 10  1  0
  9 11  1  0
 15 16  1  0
 16 17  1  0
 17 18  1  0
 17 19  2  0
 18 20  2  0
 19 21  1  0
 27 28  1  0
 35 36  1  0
  7  8  1  0
 10 11  2  0
 20 21  1  0
 29 37  1  0
  1  2  1  0
 13 14  1  0
  9 12  1  0
 21 22  1  0
M  END
>  <Molecule_Name>
EL2003A-A4U1

>  <Pose_Rank>
5

>  <pIC50_PDK1>
7.5

>  <GNINA_Affinity_kcal_mol>
-9.2029

>  <CNN_Score>
0.4921

>  <CNN_Affinity>
7.1839

>  <MMGBSA_dG_kcal_mol>
-57.567

>  <MMGBSA_VdW>
-55.566

>  <MMGBSA_Elec>
-4.324

>  <MMGBSA_PolarSolv>
9.270

>  <MMGBSA_NonPolarSolv>
-6.948

$$$$
BX912


 34 37  0  0  0  0  0  0  0  0999 V2000
   -9.0634   45.3846   42.8389 Br  0  0  0  0  0  0  0  0  0  0  0  0
   -8.3047   43.7770   43.4742 C   0  0  0  0  0  0  0  0  0  0  0  0
   -7.0456   43.6988   44.0509 C   0  0  0  0  0  0  0  0  0  0  0  0
   -8.9911   42.5923   43.3503 C   0  0  0  0  0  0  0  0  0  0  0  0
   -6.5603   42.5215   44.4977 N   0  0  0  0  0  0  0  0  0  0  0  0
   -8.5122   41.4049   43.7700 N   0  0  0  0  0  0  0  0  0  0  0  0
   -7.3118   41.4148   44.3636 C   0  0  0  0  0  0  0  0  0  0  0  0
   -6.2822   44.8677   44.2405 N   0  0  0  0  0  0  0  0  0  0  0  0
   -6.8128   45.6882   43.9571 H   0  0  0  0  0  0  0  0  0  0  0  0
   -4.9220   44.8533   43.6935 C   0  0  0  0  0  0  0  0  0  0  0  0
   -4.5707   46.1746   42.9862 C   0  0  0  0  0  0  0  0  0  0  0  0
   -3.5107   46.9338   43.7003 C   0  0  0  0  0  0  0  0  0  0  0  0
   -2.2123   46.4905   43.7722 N   0  0  0  0  0  0  0  0  0  0  0  0
   -3.5118   48.1262   44.3891 C   0  0  0  0  0  0  0  0  0  0  0  0
   -1.5040   47.4078   44.4936 C   0  0  0  0  0  0  0  0  0  0  0  0
   -2.2627   48.4083   44.8797 N   0  0  0  0  0  0  0  0  0  0  0  0
   -1.8533   45.6214   43.3926 H   0  0  0  0  0  0  0  0  0  0  0  0
   -6.8352   40.1787   44.7879 N   0  0  0  0  0  0  0  0  0  0  0  0
   -7.6155   39.5633   44.9819 H   0  0  0  0  0  0  0  0  0  0  0  0
   -5.6149   39.7918   45.3625 C   0  0  0  0  0  0  0  0  0  0  0  0
   -5.4925   38.4767   45.8462 C   0  0  0  0  0  0  0  0  0  0  0  0
   -4.4847   40.6138   45.3949 C   0  0  0  0  0  0  0  0  0  0  0  0
   -4.2875   37.9958   46.3693 C   0  0  0  0  0  0  0  0  0  0  0  0
   -3.2744   40.1477   45.9095 C   0  0  0  0  0  0  0  0  0  0  0  0
   -3.1765   38.8440   46.3922 C   0  0  0  0  0  0  0  0  0  0  0  0
   -4.1056   36.6846   46.8553 N   0  0  0  0  0  0  0  0  0  0  0  0
   -2.9348   36.0912   47.2701 C   0  0  0  0  0  0  0  0  0  0  0  0
   -1.8195   36.6009   47.2001 O   0  0  0  0  0  0  0  0  0  0  0  0
   -3.1013   34.8220   47.7911 N   0  0  0  0  0  0  0  0  0  0  0  0
   -4.3421   34.1229   48.0936 C   0  0  0  0  0  0  0  0  0  0  0  0
   -1.9494   34.0552   48.2352 C   0  0  0  0  0  0  0  0  0  0  0  0
   -3.9222   32.9591   48.9811 C   0  0  0  0  0  0  0  0  0  0  0  0
   -2.5032   32.6662   48.5133 C   0  0  0  0  0  0  0  0  0  0  0  0
   -4.9017   36.0734   46.7833 H   0  0  0  0  0  0  0  0  0  0  0  0
  1  2  1  0
  2  3  2  0
  2  4  1  0
  3  5  1  0
  3  8  1  0
  4  6  2  0
  5  7  2  0
  8 10  1  0
  7 18  1  0
 10 11  1  0
 18 20  1  0
 11 12  1  0
 20 21  2  0
 20 22  1  0
 12 13  1  0
 12 14  2  0
 21 23  1  0
 22 24  2  0
 13 15  1  0
 14 16  1  0
 23 26  1  0
 23 25  2  0
 26 27  1  0
 27 28  2  0
 27 29  1  0
 29 30  1  0
 29 31  1  0
 30 32  1  0
 31 33  1  0
  6  7  1  0
 24 25  1  0
 15 16  2  0
 32 33  1  0
  8  9  1  0
 18 19  1  0
 13 17  1  0
 26 34  1  0
M  END
>  <Molecule_Name>
BX912

>  <Pose_Rank>
1

>  <pIC50_PDK1>
6.0

>  <GNINA_Affinity_kcal_mol>
-8.5627

>  <CNN_Score>
0.9673

>  <CNN_Affinity>
7.6688

>  <MMGBSA_dG_kcal_mol>
-54.775

>  <MMGBSA_VdW>
-52.296

>  <MMGBSA_Elec>
-2.480

>  <MMGBSA_PolarSolv>
5.584

>  <MMGBSA_NonPolarSolv>
-5.583

$$$$
BX912


 34 37  0  0  0  0  0  0  0  0999 V2000
   -8.7442   45.2244   43.1458 Br  0  0  0  0  0  0  0  0  0  0  0  0
   -8.0393   43.5517   43.6642 C   0  0  0  0  0  0  0  0  0  0  0  0
   -6.7351   43.3713   44.1007 C   0  0  0  0  0  0  0  0  0  0  0  0
   -8.8177   42.4209   43.5914 C   0  0  0  0  0  0  0  0  0  0  0  0
   -6.2906   42.1518   44.4697 N   0  0  0  0  0  0  0  0  0  0  0  0
   -8.3831   41.1924   43.9338 N   0  0  0  0  0  0  0  0  0  0  0  0
   -7.1290   41.1035   44.3953 C   0  0  0  0  0  0  0  0  0  0  0  0
   -5.8745   44.4794   44.2303 N   0  0  0  0  0  0  0  0  0  0  0  0
   -6.2364   45.1311   44.9226 H   0  0  0  0  0  0  0  0  0  0  0  0
   -5.4701   45.1392   42.9850 C   0  0  0  0  0  0  0  0  0  0  0  0
   -3.9457   45.0930   42.7765 C   0  0  0  0  0  0  0  0  0  0  0  0
   -3.4154   46.3559   42.1988 C   0  0  0  0  0  0  0  0  0  0  0  0
   -2.0686   46.5988   42.0772 N   0  0  0  0  0  0  0  0  0  0  0  0
   -4.0214   47.4810   41.6858 C   0  0  0  0  0  0  0  0  0  0  0  0
   -1.9227   47.8359   41.5188 C   0  0  0  0  0  0  0  0  0  0  0  0
   -3.0859   48.3936   41.2704 N   0  0  0  0  0  0  0  0  0  0  0  0
   -1.3190   45.9878   42.3825 H   0  0  0  0  0  0  0  0  0  0  0  0
   -6.6996   39.8264   44.7415 N   0  0  0  0  0  0  0  0  0  0  0  0
   -7.4979   39.2068   44.8065 H   0  0  0  0  0  0  0  0  0  0  0  0
   -5.5382   39.3700   45.3831 C   0  0  0  0  0  0  0  0  0  0  0  0
   -4.3819   40.1682   45.3166 C   0  0  0  0  0  0  0  0  0  0  0  0
   -5.4949   38.2109   46.1634 C   0  0  0  0  0  0  0  0  0  0  0  0
   -3.2063   39.8150   45.9875 C   0  0  0  0  0  0  0  0  0  0  0  0
   -4.3314   37.8473   46.8420 C   0  0  0  0  0  0  0  0  0  0  0  0
   -3.1935   38.6473   46.7558 C   0  0  0  0  0  0  0  0  0  0  0  0
   -2.0240   40.5834   45.9656 N   0  0  0  0  0  0  0  0  0  0  0  0
   -0.8742   40.3459   45.2469 C   0  0  0  0  0  0  0  0  0  0  0  0
   -0.6636   39.3521   44.5566 O   0  0  0  0  0  0  0  0  0  0  0  0
    0.0763   41.3427   45.3608 N   0  0  0  0  0  0  0  0  0  0  0  0
   -0.0500   42.6459   45.9976 C   0  0  0  0  0  0  0  0  0  0  0  0
    1.3582   41.2132   44.6886 C   0  0  0  0  0  0  0  0  0  0  0  0
    1.1436   43.4416   45.4872 C   0  0  0  0  0  0  0  0  0  0  0  0
    2.1896   42.3648   45.2328 C   0  0  0  0  0  0  0  0  0  0  0  0
   -1.9698   41.3282   46.6400 H   0  0  0  0  0  0  0  0  0  0  0  0
  1  2  1  0
  2  3  2  0
  2  4  1  0
  3  5  1  0
  3  8  1  0
  4  6  2  0
  5  7  2  0
  8 10  1  0
  7 18  1  0
 10 11  1  0
 18 20  1  0
 11 12  1  0
 20 21  2  0
 20 22  1  0
 12 13  1  0
 12 14  2  0
 21 23  1  0
 22 24  2  0
 13 15  1  0
 14 16  1  0
 23 26  1  0
 23 25  2  0
 26 27  1  0
 27 28  2  0
 27 29  1  0
 29 30  1  0
 29 31  1  0
 30 32  1  0
 31 33  1  0
  6  7  1  0
 24 25  1  0
 15 16  2  0
 32 33  1  0
  8  9  1  0
 18 19  1  0
 13 17  1  0
 26 34  1  0
M  END
>  <Molecule_Name>
BX912

>  <Pose_Rank>
2

>  <pIC50_PDK1>
6.0

>  <GNINA_Affinity_kcal_mol>
-8.9076

>  <CNN_Score>
0.9054

>  <CNN_Affinity>
7.5617

>  <MMGBSA_dG_kcal_mol>
-60.328

>  <MMGBSA_VdW>
-57.289

>  <MMGBSA_Elec>
-2.944

>  <MMGBSA_PolarSolv>
6.028

>  <MMGBSA_NonPolarSolv>
-6.123

$$$$
BX912


 34 37  0  0  0  0  0  0  0  0999 V2000
   -7.4287   45.7447   43.2070 Br  0  0  0  0  0  0  0  0  0  0  0  0
   -6.9904   43.9636   43.6534 C   0  0  0  0  0  0  0  0  0  0  0  0
   -5.7063   43.4460   43.5694 C   0  0  0  0  0  0  0  0  0  0  0  0
   -7.9721   43.0910   44.0590 C   0  0  0  0  0  0  0  0  0  0  0  0
   -5.4514   42.1663   43.9136 N   0  0  0  0  0  0  0  0  0  0  0  0
   -7.7392   41.8044   44.3843 N   0  0  0  0  0  0  0  0  0  0  0  0
   -6.4670   41.3894   44.3288 C   0  0  0  0  0  0  0  0  0  0  0  0
   -4.6342   44.2763   43.1867 N   0  0  0  0  0  0  0  0  0  0  0  0
   -3.9520   43.7491   42.6466 H   0  0  0  0  0  0  0  0  0  0  0  0
   -4.0207   45.0792   44.2490 C   0  0  0  0  0  0  0  0  0  0  0  0
   -3.2020   46.2540   43.6843 C   0  0  0  0  0  0  0  0  0  0  0  0
   -4.0576   47.4096   43.3067 C   0  0  0  0  0  0  0  0  0  0  0  0
   -4.4332   47.6511   42.0074 N   0  0  0  0  0  0  0  0  0  0  0  0
   -4.6440   48.4211   44.0341 C   0  0  0  0  0  0  0  0  0  0  0  0
   -5.2037   48.7780   42.0049 C   0  0  0  0  0  0  0  0  0  0  0  0
   -5.3494   49.2658   43.2159 N   0  0  0  0  0  0  0  0  0  0  0  0
   -4.1567   47.1136   41.1932 H   0  0  0  0  0  0  0  0  0  0  0  0
   -6.2485   40.0578   44.6669 N   0  0  0  0  0  0  0  0  0  0  0  0
   -7.1071   39.5337   44.5511 H   0  0  0  0  0  0  0  0  0  0  0  0
   -5.2804   39.4429   45.4753 C   0  0  0  0  0  0  0  0  0  0  0  0
   -4.2429   40.2377   45.9954 C   0  0  0  0  0  0  0  0  0  0  0  0
   -5.3441   38.1028   45.8680 C   0  0  0  0  0  0  0  0  0  0  0  0
   -3.2805   39.7124   46.8641 C   0  0  0  0  0  0  0  0  0  0  0  0
   -4.3943   37.5650   46.7371 C   0  0  0  0  0  0  0  0  0  0  0  0
   -3.3689   38.3673   47.2341 C   0  0  0  0  0  0  0  0  0  0  0  0
   -2.2281   40.4657   47.4242 N   0  0  0  0  0  0  0  0  0  0  0  0
   -1.7540   40.4260   48.7160 C   0  0  0  0  0  0  0  0  0  0  0  0
   -2.2444   39.7684   49.6300 O   0  0  0  0  0  0  0  0  0  0  0  0
   -0.6400   41.2153   48.9308 N   0  0  0  0  0  0  0  0  0  0  0  0
    0.1632   41.9338   47.9517 C   0  0  0  0  0  0  0  0  0  0  0  0
   -0.0496   41.3048   50.2557 C   0  0  0  0  0  0  0  0  0  0  0  0
    1.4436   42.2937   48.6930 C   0  0  0  0  0  0  0  0  0  0  0  0
    0.9794   42.4186   50.1377 C   0  0  0  0  0  0  0  0  0  0  0  0
   -1.8549   41.1998   46.8459 H   0  0  0  0  0  0  0  0  0  0  0  0
  1  2  1  0
  2  3  2  0
  2  4  1  0
  3  5  1  0
  3  8  1  0
  4  6  2  0
  5  7  2  0
  8 10  1  0
  7 18  1  0
 10 11  1  0
 18 20  1  0
 11 12  1  0
 20 21  2  0
 20 22  1  0
 12 13  1  0
 12 14  2  0
 21 23  1  0
 22 24  2  0
 13 15  1  0
 14 16  1  0
 23 26  1  0
 23 25  2  0
 26 27  1  0
 27 28  2  0
 27 29  1  0
 29 30  1  0
 29 31  1  0
 30 32  1  0
 31 33  1  0
  6  7  1  0
 24 25  1  0
 15 16  2  0
 32 33  1  0
  8  9  1  0
 18 19  1  0
 13 17  1  0
 26 34  1  0
M  END
>  <Molecule_Name>
BX912

>  <Pose_Rank>
3

>  <pIC50_PDK1>
6.0

>  <GNINA_Affinity_kcal_mol>
-7.7329

>  <CNN_Score>
0.8352

>  <CNN_Affinity>
7.7852

>  <MMGBSA_dG_kcal_mol>
-52.636

>  <MMGBSA_VdW>
-49.826

>  <MMGBSA_Elec>
-4.348

>  <MMGBSA_PolarSolv>
7.000

>  <MMGBSA_NonPolarSolv>
-5.461

$$$$
BX912


 34 37  0  0  0  0  0  0  0  0999 V2000
   -9.5062   44.3401   43.1496 Br  0  0  0  0  0  0  0  0  0  0  0  0
   -8.1785   43.1439   43.7578 C   0  0  0  0  0  0  0  0  0  0  0  0
   -6.8884   43.5331   44.0865 C   0  0  0  0  0  0  0  0  0  0  0  0
   -8.4546   41.8016   43.8661 C   0  0  0  0  0  0  0  0  0  0  0  0
   -5.9846   42.6332   44.5274 N   0  0  0  0  0  0  0  0  0  0  0  0
   -7.5578   40.8864   44.2825 N   0  0  0  0  0  0  0  0  0  0  0  0
   -6.3483   41.3431   44.6318 C   0  0  0  0  0  0  0  0  0  0  0  0
   -6.5251   44.8932   44.0289 N   0  0  0  0  0  0  0  0  0  0  0  0
   -7.2904   45.4793   44.3541 H   0  0  0  0  0  0  0  0  0  0  0  0
   -5.9487   45.3605   42.7644 C   0  0  0  0  0  0  0  0  0  0  0  0
   -4.4623   44.9826   42.6335 C   0  0  0  0  0  0  0  0  0  0  0  0
   -3.5623   46.1477   42.8399 C   0  0  0  0  0  0  0  0  0  0  0  0
   -2.4440   46.3568   42.0696 N   0  0  0  0  0  0  0  0  0  0  0  0
   -3.5819   47.2046   43.7223 C   0  0  0  0  0  0  0  0  0  0  0  0
   -1.8446   47.4989   42.5167 C   0  0  0  0  0  0  0  0  0  0  0  0
   -2.5099   48.0342   43.5150 N   0  0  0  0  0  0  0  0  0  0  0  0
   -2.1037   45.7526   41.3297 H   0  0  0  0  0  0  0  0  0  0  0  0
   -5.4370   40.3819   45.0572 N   0  0  0  0  0  0  0  0  0  0  0  0
   -5.9347   39.6022   45.4690 H   0  0  0  0  0  0  0  0  0  0  0  0
   -4.0767   40.4634   45.3919 C   0  0  0  0  0  0  0  0  0  0  0  0
   -3.6550   39.9031   46.6112 C   0  0  0  0  0  0  0  0  0  0  0  0
   -3.1037   40.9879   44.5362 C   0  0  0  0  0  0  0  0  0  0  0  0
   -2.3066   39.8835   46.9829 C   0  0  0  0  0  0  0  0  0  0  0  0
   -1.7544   40.9721   44.8905 C   0  0  0  0  0  0  0  0  0  0  0  0
   -1.3582   40.4203   46.1074 C   0  0  0  0  0  0  0  0  0  0  0  0
   -1.8276   39.3242   48.1856 N   0  0  0  0  0  0  0  0  0  0  0  0
   -1.3150   38.0625   48.3863 C   0  0  0  0  0  0  0  0  0  0  0  0
   -1.2717   37.1733   47.5403 O   0  0  0  0  0  0  0  0  0  0  0  0
   -0.8332   37.8478   49.6638 N   0  0  0  0  0  0  0  0  0  0  0  0
   -0.6598   38.8127   50.7403 C   0  0  0  0  0  0  0  0  0  0  0  0
   -0.2960   36.5498   50.0359 C   0  0  0  0  0  0  0  0  0  0  0  0
    0.2436   38.1109   51.7452 C   0  0  0  0  0  0  0  0  0  0  0  0
   -0.0942   36.6404   51.5407 C   0  0  0  0  0  0  0  0  0  0  0  0
   -1.9840   39.8680   49.0177 H   0  0  0  0  0  0  0  0  0  0  0  0
  1  2  1  0
  2  3  2  0
  2  4  1  0
  3  5  1  0
  3  8  1  0
  4  6  2  0
  5  7  2  0
  8 10  1  0
  7 18  1  0
 10 11  1  0
 18 20  1  0
 11 12  1  0
 20 21  2  0
 20 22  1  0
 12 13  1  0
 12 14  2  0
 21 23  1  0
 22 24  2  0
 13 15  1  0
 14 16  1  0
 23 26  1  0
 23 25  2  0
 26 27  1  0
 27 28  2  0
 27 29  1  0
 29 30  1  0
 29 31  1  0
 30 32  1  0
 31 33  1  0
  6  7  1  0
 24 25  1  0
 15 16  2  0
 32 33  1  0
  8  9  1  0
 18 19  1  0
 13 17  1  0
 26 34  1  0
M  END
>  <Molecule_Name>
BX912

>  <Pose_Rank>
4

>  <pIC50_PDK1>
6.0

>  <GNINA_Affinity_kcal_mol>
-7.6424

>  <CNN_Score>
0.6398

>  <CNN_Affinity>
7.1800

>  <MMGBSA_dG_kcal_mol>
-48.450

>  <MMGBSA_VdW>
-46.553

>  <MMGBSA_Elec>
-0.802

>  <MMGBSA_PolarSolv>
4.186

>  <MMGBSA_NonPolarSolv>
-5.280

$$$$
BX912


 34 37  0  0  0  0  0  0  0  0999 V2000
   -5.3072   38.8207   45.7641 Br  0  0  0  0  0  0  0  0  0  0  0  0
   -6.1522   40.3375   45.0231 C   0  0  0  0  0  0  0  0  0  0  0  0
   -5.5358   41.5738   44.8977 C   0  0  0  0  0  0  0  0  0  0  0  0
   -7.4583   40.2641   44.6007 C   0  0  0  0  0  0  0  0  0  0  0  0
   -6.1874   42.6201   44.3484 N   0  0  0  0  0  0  0  0  0  0  0  0
   -8.1312   41.3044   44.0714 N   0  0  0  0  0  0  0  0  0  0  0  0
   -7.4553   42.4523   43.9339 C   0  0  0  0  0  0  0  0  0  0  0  0
   -4.1897   41.7336   45.2820 N   0  0  0  0  0  0  0  0  0  0  0  0
   -4.0424   42.6563   45.6843 H   0  0  0  0  0  0  0  0  0  0  0  0
   -3.1798   41.3830   44.2786 C   0  0  0  0  0  0  0  0  0  0  0  0
   -2.0734   40.4863   44.8628 C   0  0  0  0  0  0  0  0  0  0  0  0
   -0.7929   41.2179   45.0508 C   0  0  0  0  0  0  0  0  0  0  0  0
   -0.7460   42.5032   45.5336 N   0  0  0  0  0  0  0  0  0  0  0  0
    0.5238   40.8761   44.8374 C   0  0  0  0  0  0  0  0  0  0  0  0
    0.5660   42.8774   45.5799 C   0  0  0  0  0  0  0  0  0  0  0  0
    1.3575   41.9142   45.1658 N   0  0  0  0  0  0  0  0  0  0  0  0
   -1.5424   43.0830   45.7746 H   0  0  0  0  0  0  0  0  0  0  0  0
   -8.1686   43.5141   43.3870 N   0  0  0  0  0  0  0  0  0  0  0  0
   -8.8742   43.1577   42.7542 H   0  0  0  0  0  0  0  0  0  0  0  0
   -7.8496   44.8702   43.2199 C   0  0  0  0  0  0  0  0  0  0  0  0
   -6.4925   45.2396   43.2068 C   0  0  0  0  0  0  0  0  0  0  0  0
   -8.8046   45.8605   42.9720 C   0  0  0  0  0  0  0  0  0  0  0  0
   -6.0931   46.5604   42.9765 C   0  0  0  0  0  0  0  0  0  0  0  0
   -8.4222   47.1815   42.7363 C   0  0  0  0  0  0  0  0  0  0  0  0
   -7.0725   47.5285   42.7365 C   0  0  0  0  0  0  0  0  0  0  0  0
   -4.7483   46.9832   42.9399 N   0  0  0  0  0  0  0  0  0  0  0  0
   -4.0488   47.6629   43.9112 C   0  0  0  0  0  0  0  0  0  0  0  0
   -4.5267   48.0925   44.9579 O   0  0  0  0  0  0  0  0  0  0  0  0
   -2.7105   47.8444   43.6175 N   0  0  0  0  0  0  0  0  0  0  0  0
   -1.9406   47.2823   42.5171 C   0  0  0  0  0  0  0  0  0  0  0  0
   -1.8525   48.5787   44.5322 C   0  0  0  0  0  0  0  0  0  0  0  0
   -0.4866   47.5020   42.9122 C   0  0  0  0  0  0  0  0  0  0  0  0
   -0.5504   48.7601   43.7673 C   0  0  0  0  0  0  0  0  0  0  0  0
   -4.2771   46.8784   42.0569 H   0  0  0  0  0  0  0  0  0  0  0  0
  1  2  1  0
  2  3  2  0
  2  4  1  0
  3  5  1  0
  3  8  1  0
  4  6  2  0
  5  7  2  0
  8 10  1  0
  7 18  1  0
 10 11  1  0
 18 20  1  0
 11 12  1  0
 20 21  2  0
 20 22  1  0
 12 13  1  0
 12 14  2  0
 21 23  1  0
 22 24  2  0
 13 15  1  0
 14 16  1  0
 23 26  1  0
 23 25  2  0
 26 27  1  0
 27 28  2  0
 27 29  1  0
 29 30  1  0
 29 31  1  0
 30 32  1  0
 31 33  1  0
  6  7  1  0
 24 25  1  0
 15 16  2  0
 32 33  1  0
  8  9  1  0
 18 19  1  0
 13 17  1  0
 26 34  1  0
M  END
>  <Molecule_Name>
BX912

>  <Pose_Rank>
5

>  <pIC50_PDK1>
6.0

>  <GNINA_Affinity_kcal_mol>
-8.5778

>  <CNN_Score>
0.5918

>  <CNN_Affinity>
7.1861

>  <MMGBSA_dG_kcal_mol>
-51.900

>  <MMGBSA_VdW>
-48.951

>  <MMGBSA_Elec>
-1.866

>  <MMGBSA_PolarSolv>
5.174

>  <MMGBSA_NonPolarSolv>
-6.258

$$$$
EL5001A


 30 32  0  0  0  0  0  0  0  0999 V2000
   -5.3211   39.6727   45.4087 Br  0  0  0  0  0  0  0  0  0  0  0  0
   -6.4005   41.0618   44.7230 C   0  0  0  0  0  0  0  0  0  0  0  0
   -5.9285   42.3347   44.4382 C   0  0  0  0  0  0  0  0  0  0  0  0
   -7.7318   40.8365   44.4639 C   0  0  0  0  0  0  0  0  0  0  0  0
   -6.7539   43.2903   43.9604 N   0  0  0  0  0  0  0  0  0  0  0  0
   -8.5663   41.7720   43.9703 N   0  0  0  0  0  0  0  0  0  0  0  0
   -8.0385   42.9784   43.7420 C   0  0  0  0  0  0  0  0  0  0  0  0
   -4.5923   42.6680   44.7240 N   0  0  0  0  0  0  0  0  0  0  0  0
   -4.0615   41.8140   44.9415 H   0  0  0  0  0  0  0  0  0  0  0  0
   -3.8937   43.4267   43.6842 C   0  0  0  0  0  0  0  0  0  0  0  0
   -3.9379   44.9274   44.0001 C   0  0  0  0  0  0  0  0  0  0  0  0
   -3.5179   45.7778   42.8452 C   0  0  0  0  0  0  0  0  0  0  0  0
   -2.3592   46.5255   42.8990 N   0  0  0  0  0  0  0  0  0  0  0  0
   -4.1476   45.9685   41.6337 C   0  0  0  0  0  0  0  0  0  0  0  0
   -2.2916   47.1537   41.7483 C   0  0  0  0  0  0  0  0  0  0  0  0
   -3.3542   46.8463   40.9480 N   0  0  0  0  0  0  0  0  0  0  0  0
   -3.5205   47.2093   40.0194 H   0  0  0  0  0  0  0  0  0  0  0  0
   -8.9214   43.9290   43.2516 N   0  0  0  0  0  0  0  0  0  0  0  0
   -9.6842   43.4028   42.8370 H   0  0  0  0  0  0  0  0  0  0  0  0
   -8.3320   44.9339   42.3656 C   0  0  0  0  0  0  0  0  0  0  0  0
   -8.6317   46.3612   42.8538 C   0  0  0  0  0  0  0  0  0  0  0  0
   -7.4192   47.0795   43.2152 N   0  0  0  0  0  0  0  0  0  0  0  0
   -7.0122   48.1566   42.4737 C   0  0  0  0  0  0  0  0  0  0  0  0
   -7.5662   48.4848   41.4275 O   0  0  0  0  0  0  0  0  0  0  0  0
   -5.9230   48.8215   42.9779 N   0  0  0  0  0  0  0  0  0  0  0  0
   -5.1260   48.4672   44.1425 C   0  0  0  0  0  0  0  0  0  0  0  0
   -5.3362   49.9381   42.2590 C   0  0  0  0  0  0  0  0  0  0  0  0
   -4.1435   49.6199   44.2951 C   0  0  0  0  0  0  0  0  0  0  0  0
   -3.9469   50.0922   42.8610 C   0  0  0  0  0  0  0  0  0  0  0  0
   -7.3129   47.1893   44.2123 H   0  0  0  0  0  0  0  0  0  0  0  0
  1  2  1  0
  2  3  2  0
  2  4  1  0
  3  5  1  0
  3  8  1  0
  4  6  2  0
  5  7  2  0
  8 10  1  0
  7 18  1  0
 10 11  1  0
 18 20  1  0
 11 12  1  0
 20 21  1  0
 12 13  1  0
 12 14  2  0
 21 22  1  0
 13 15  2  0
 14 16  1  0
 22 23  1  0
 23 24  2  0
 23 25  1  0
 25 26  1  0
 25 27  1  0
 26 28  1  0
 27 29  1  0
  6  7  1  0
 15 16  1  0
 28 29  1  0
  8  9  1  0
 18 19  1  0
 22 30  1  0
 16 17  1  0
M  END
>  <Molecule_Name>
EL5001A

>  <Pose_Rank>
1

>  <pIC50_PDK1>
6.5

>  <GNINA_Affinity_kcal_mol>
-7.7303

>  <CNN_Score>
0.9245

>  <CNN_Affinity>
7.5344

>  <MMGBSA_dG_kcal_mol>
-54.420

>  <MMGBSA_VdW>
-51.665

>  <MMGBSA_Elec>
-1.529

>  <MMGBSA_PolarSolv>
4.894

>  <MMGBSA_NonPolarSolv>
-6.120

$$$$
EL5001A


 30 32  0  0  0  0  0  0  0  0999 V2000
   -8.9693   45.3227   43.1328 Br  0  0  0  0  0  0  0  0  0  0  0  0
   -8.2306   43.6658   43.6560 C   0  0  0  0  0  0  0  0  0  0  0  0
   -7.0024   43.5353   44.2874 C   0  0  0  0  0  0  0  0  0  0  0  0
   -8.9231   42.4999   43.4296 C   0  0  0  0  0  0  0  0  0  0  0  0
   -6.5218   42.3200   44.6263 N   0  0  0  0  0  0  0  0  0  0  0  0
   -8.4679   41.2803   43.7768 N   0  0  0  0  0  0  0  0  0  0  0  0
   -7.2673   41.2385   44.3625 C   0  0  0  0  0  0  0  0  0  0  0  0
   -6.2028   44.6710   44.5088 N   0  0  0  0  0  0  0  0  0  0  0  0
   -5.3361   44.3957   44.9898 H   0  0  0  0  0  0  0  0  0  0  0  0
   -5.8726   45.4539   43.3158 C   0  0  0  0  0  0  0  0  0  0  0  0
   -4.6055   44.9009   42.6505 C   0  0  0  0  0  0  0  0  0  0  0  0
   -3.7127   45.9740   42.1171 C   0  0  0  0  0  0  0  0  0  0  0  0
   -2.5319   46.2965   42.7544 N   0  0  0  0  0  0  0  0  0  0  0  0
   -3.8844   46.7737   41.0072 C   0  0  0  0  0  0  0  0  0  0  0  0
   -2.0041   47.2685   42.0473 C   0  0  0  0  0  0  0  0  0  0  0  0
   -2.7885   47.5911   40.9775 N   0  0  0  0  0  0  0  0  0  0  0  0
   -2.5911   48.3089   40.2937 H   0  0  0  0  0  0  0  0  0  0  0  0
   -6.8127   39.9706   44.6936 N   0  0  0  0  0  0  0  0  0  0  0  0
   -7.5731   39.5347   45.2060 H   0  0  0  0  0  0  0  0  0  0  0  0
   -5.5212   39.9276   45.3809 C   0  0  0  0  0  0  0  0  0  0  0  0
   -5.2262   38.5251   45.9390 C   0  0  0  0  0  0  0  0  0  0  0  0
   -3.8292   38.1547   45.7718 N   0  0  0  0  0  0  0  0  0  0  0  0
   -3.2516   37.2512   46.6237 C   0  0  0  0  0  0  0  0  0  0  0  0
   -3.8316   36.8144   47.6148 O   0  0  0  0  0  0  0  0  0  0  0  0
   -1.9677   36.8943   46.2969 N   0  0  0  0  0  0  0  0  0  0  0  0
   -1.1470   37.4191   45.2160 C   0  0  0  0  0  0  0  0  0  0  0  0
   -1.2048   36.0013   47.1504 C   0  0  0  0  0  0  0  0  0  0  0  0
    0.1187   36.5742   45.2558 C   0  0  0  0  0  0  0  0  0  0  0  0
    0.2423   36.2147   46.7302 C   0  0  0  0  0  0  0  0  0  0  0  0
   -3.5663   38.0494   44.8037 H   0  0  0  0  0  0  0  0  0  0  0  0
  1  2  1  0
  2  3  2  0
  2  4  1  0
  3  5  1  0
  3  8  1  0
  4  6  2  0
  5  7  2  0
  8 10  1  0
  7 18  1  0
 10 11  1  0
 18 20  1  0
 11 12  1  0
 20 21  1  0
 12 13  1  0
 12 14  2  0
 21 22  1  0
 13 15  2  0
 14 16  1  0
 22 23  1  0
 23 24  2  0
 23 25  1  0
 25 26  1  0
 25 27  1  0
 26 28  1  0
 27 29  1  0
  6  7  1  0
 15 16  1  0
 28 29  1  0
  8  9  1  0
 18 19  1  0
 22 30  1  0
 16 17  1  0
M  END
>  <Molecule_Name>
EL5001A

>  <Pose_Rank>
2

>  <pIC50_PDK1>
6.5

>  <GNINA_Affinity_kcal_mol>
-7.6172

>  <CNN_Score>
0.9039

>  <CNN_Affinity>
7.0420

>  <MMGBSA_dG_kcal_mol>
-50.053

>  <MMGBSA_VdW>
-47.176

>  <MMGBSA_Elec>
-3.023

>  <MMGBSA_PolarSolv>
5.712

>  <MMGBSA_NonPolarSolv>
-5.567

$$$$
EL5001A


 30 32  0  0  0  0  0  0  0  0999 V2000
   -9.3004   44.7915   43.2627 Br  0  0  0  0  0  0  0  0  0  0  0  0
   -8.1310   43.3539   43.6242 C   0  0  0  0  0  0  0  0  0  0  0  0
   -6.7776   43.5093   43.8857 C   0  0  0  0  0  0  0  0  0  0  0  0
   -8.6104   42.0657   43.6532 C   0  0  0  0  0  0  0  0  0  0  0  0
   -5.9897   42.4394   44.1253 N   0  0  0  0  0  0  0  0  0  0  0  0
   -7.8433   40.9879   43.9081 N   0  0  0  0  0  0  0  0  0  0  0  0
   -6.5461   41.2206   44.1300 C   0  0  0  0  0  0  0  0  0  0  0  0
   -6.1927   44.7867   43.8226 N   0  0  0  0  0  0  0  0  0  0  0  0
   -6.6306   45.4028   44.5206 H   0  0  0  0  0  0  0  0  0  0  0  0
   -4.7372   44.8242   43.9817 C   0  0  0  0  0  0  0  0  0  0  0  0
   -4.0586   45.0341   42.6218 C   0  0  0  0  0  0  0  0  0  0  0  0
   -4.2107   46.4279   42.1046 C   0  0  0  0  0  0  0  0  0  0  0  0
   -5.3707   47.1430   42.3225 N   0  0  0  0  0  0  0  0  0  0  0  0
   -3.3186   47.1852   41.3755 C   0  0  0  0  0  0  0  0  0  0  0  0
   -5.1841   48.3035   41.7380 C   0  0  0  0  0  0  0  0  0  0  0  0
   -3.9535   48.3754   41.1510 N   0  0  0  0  0  0  0  0  0  0  0  0
   -3.5865   49.1666   40.6403 H   0  0  0  0  0  0  0  0  0  0  0  0
   -5.7742   40.0939   44.3717 N   0  0  0  0  0  0  0  0  0  0  0  0
   -6.0150   39.4369   43.6361 H   0  0  0  0  0  0  0  0  0  0  0  0
   -5.8728   39.5451   45.7249 C   0  0  0  0  0  0  0  0  0  0  0  0
   -4.6508   38.6782   46.0721 C   0  0  0  0  0  0  0  0  0  0  0  0
   -3.4024   39.3133   45.6784 N   0  0  0  0  0  0  0  0  0  0  0  0
   -2.5752   39.8499   46.6290 C   0  0  0  0  0  0  0  0  0  0  0  0
   -2.8937   39.9279   47.8129 O   0  0  0  0  0  0  0  0  0  0  0  0
   -1.3770   40.3158   46.1497 N   0  0  0  0  0  0  0  0  0  0  0  0
   -0.9350   40.3721   44.7646 C   0  0  0  0  0  0  0  0  0  0  0  0
   -0.4311   40.9769   47.0307 C   0  0  0  0  0  0  0  0  0  0  0  0
    0.5062   40.8556   44.8453 C   0  0  0  0  0  0  0  0  0  0  0  0
    0.5036   41.7278   46.0933 C   0  0  0  0  0  0  0  0  0  0  0  0
   -2.9289   38.8182   44.9380 H   0  0  0  0  0  0  0  0  0  0  0  0
  1  2  1  0
  2  3  2  0
  2  4  1  0
  3  5  1  0
  3  8  1  0
  4  6  2  0
  5  7  2  0
  8 10  1  0
  7 18  1  0
 10 11  1  0
 18 20  1  0
 11 12  1  0
 20 21  1  0
 12 13  1  0
 12 14  2  0
 21 22  1  0
 13 15  2  0
 14 16  1  0
 22 23  1  0
 23 24  2  0
 23 25  1  0
 25 26  1  0
 25 27  1  0
 26 28  1  0
 27 29  1  0
  6  7  1  0
 15 16  1  0
 28 29  1  0
  8  9  1  0
 18 19  1  0
 22 30  1  0
 16 17  1  0
M  END
>  <Molecule_Name>
EL5001A

>  <Pose_Rank>
3

>  <pIC50_PDK1>
6.5

>  <GNINA_Affinity_kcal_mol>
-6.9999

>  <CNN_Score>
0.8963

>  <CNN_Affinity>
7.2765

>  <MMGBSA_dG_kcal_mol>
-52.259

>  <MMGBSA_VdW>
-48.684

>  <MMGBSA_Elec>
-3.140

>  <MMGBSA_PolarSolv>
5.451

>  <MMGBSA_NonPolarSolv>
-5.886

$$$$
EL5001A


 30 32  0  0  0  0  0  0  0  0999 V2000
   -9.4894   44.4641   43.0972 Br  0  0  0  0  0  0  0  0  0  0  0  0
   -8.2619   43.1760   43.7290 C   0  0  0  0  0  0  0  0  0  0  0  0
   -6.9582   43.4714   44.0993 C   0  0  0  0  0  0  0  0  0  0  0  0
   -8.6462   41.8623   43.8576 C   0  0  0  0  0  0  0  0  0  0  0  0
   -6.1233   42.5028   44.5324 N   0  0  0  0  0  0  0  0  0  0  0  0
   -7.8330   40.8857   44.3048 N   0  0  0  0  0  0  0  0  0  0  0  0
   -6.5865   41.2488   44.6218 C   0  0  0  0  0  0  0  0  0  0  0  0
   -6.4649   44.7798   43.9483 N   0  0  0  0  0  0  0  0  0  0  0  0
   -6.0320   45.0902   44.8284 H   0  0  0  0  0  0  0  0  0  0  0  0
   -5.5233   44.9770   42.8439 C   0  0  0  0  0  0  0  0  0  0  0  0
   -4.1562   45.4183   43.3827 C   0  0  0  0  0  0  0  0  0  0  0  0
   -3.4239   46.3201   42.4427 C   0  0  0  0  0  0  0  0  0  0  0  0
   -2.1165   46.6886   42.6868 N   0  0  0  0  0  0  0  0  0  0  0  0
   -3.8705   46.9065   41.2776 C   0  0  0  0  0  0  0  0  0  0  0  0
   -1.7823   47.4794   41.6937 C   0  0  0  0  0  0  0  0  0  0  0  0
   -2.8139   47.6403   40.8139 N   0  0  0  0  0  0  0  0  0  0  0  0
   -2.7945   48.2049   39.9758 H   0  0  0  0  0  0  0  0  0  0  0  0
   -5.7636   40.2227   45.0619 N   0  0  0  0  0  0  0  0  0  0  0  0
   -6.3183   39.6976   45.7307 H   0  0  0  0  0  0  0  0  0  0  0  0
   -4.4537   40.6411   45.5634 C   0  0  0  0  0  0  0  0  0  0  0  0
   -3.4947   40.9895   44.4126 C   0  0  0  0  0  0  0  0  0  0  0  0
   -2.2350   41.5319   44.8980 N   0  0  0  0  0  0  0  0  0  0  0  0
   -1.0773   40.8145   44.7539 C   0  0  0  0  0  0  0  0  0  0  0  0
   -1.0639   39.6612   44.3311 O   0  0  0  0  0  0  0  0  0  0  0  0
    0.0599   41.4763   45.1434 N   0  0  0  0  0  0  0  0  0  0  0  0
    0.1570   42.7945   45.7515 C   0  0  0  0  0  0  0  0  0  0  0  0
    1.3513   40.8135   45.1157 C   0  0  0  0  0  0  0  0  0  0  0  0
    1.6531   43.0593   45.8469 C   0  0  0  0  0  0  0  0  0  0  0  0
    2.2361   41.6630   46.0166 C   0  0  0  0  0  0  0  0  0  0  0  0
   -2.1428   42.5212   44.7236 H   0  0  0  0  0  0  0  0  0  0  0  0
  1  2  1  0
  2  3  2  0
  2  4  1  0
  3  5  1  0
  3  8  1  0
  4  6  2  0
  5  7  2  0
  8 10  1  0
  7 18  1  0
 10 11  1  0
 18 20  1  0
 11 12  1  0
 20 21  1  0
 12 13  1  0
 12 14  2  0
 21 22  1  0
 13 15  2  0
 14 16  1  0
 22 23  1  0
 23 24  2  0
 23 25  1  0
 25 26  1  0
 25 27  1  0
 26 28  1  0
 27 29  1  0
  6  7  1  0
 15 16  1  0
 28 29  1  0
  8  9  1  0
 18 19  1  0
 22 30  1  0
 16 17  1  0
M  END
>  <Molecule_Name>
EL5001A

>  <Pose_Rank>
4

>  <pIC50_PDK1>
6.5

>  <GNINA_Affinity_kcal_mol>
-7.6342

>  <CNN_Score>
0.7356

>  <CNN_Affinity>
7.0853

>  <MMGBSA_dG_kcal_mol>
-52.974

>  <MMGBSA_VdW>
-50.030

>  <MMGBSA_Elec>
-2.826

>  <MMGBSA_PolarSolv>
5.565

>  <MMGBSA_NonPolarSolv>
-5.682

$$$$
EL5001A


 30 32  0  0  0  0  0  0  0  0999 V2000
   -9.5675   44.3386   42.9005 Br  0  0  0  0  0  0  0  0  0  0  0  0
   -8.3459   43.1115   43.6534 C   0  0  0  0  0  0  0  0  0  0  0  0
   -7.0853   43.4635   44.1128 C   0  0  0  0  0  0  0  0  0  0  0  0
   -8.6916   41.7873   43.7850 C   0  0  0  0  0  0  0  0  0  0  0  0
   -6.2515   42.5365   44.6307 N   0  0  0  0  0  0  0  0  0  0  0  0
   -7.8800   40.8518   44.3154 N   0  0  0  0  0  0  0  0  0  0  0  0
   -6.6749   41.2682   44.7157 C   0  0  0  0  0  0  0  0  0  0  0  0
   -6.6292   44.7859   43.9672 N   0  0  0  0  0  0  0  0  0  0  0  0
   -6.0827   45.0567   44.7957 H   0  0  0  0  0  0  0  0  0  0  0  0
   -5.8496   45.0562   42.7572 C   0  0  0  0  0  0  0  0  0  0  0  0
   -4.3491   45.0433   43.0771 C   0  0  0  0  0  0  0  0  0  0  0  0
   -3.5819   46.0714   42.3106 C   0  0  0  0  0  0  0  0  0  0  0  0
   -2.3549   46.5193   42.7559 N   0  0  0  0  0  0  0  0  0  0  0  0
   -3.9220   46.7128   41.1385 C   0  0  0  0  0  0  0  0  0  0  0  0
   -1.9642   47.4105   41.8748 C   0  0  0  0  0  0  0  0  0  0  0  0
   -2.8821   47.5609   40.8754 N   0  0  0  0  0  0  0  0  0  0  0  0
   -2.8029   48.1906   40.0887 H   0  0  0  0  0  0  0  0  0  0  0  0
   -5.8514   40.2835   45.2410 N   0  0  0  0  0  0  0  0  0  0  0  0
   -6.2679   40.0274   46.1307 H   0  0  0  0  0  0  0  0  0  0  0  0
   -4.4314   40.6297   45.3187 C   0  0  0  0  0  0  0  0  0  0  0  0
   -3.6719   39.6850   46.2653 C   0  0  0  0  0  0  0  0  0  0  0  0
   -2.5219   40.3340   46.8760 N   0  0  0  0  0  0  0  0  0  0  0  0
   -2.1570   40.0203   48.1583 C   0  0  0  0  0  0  0  0  0  0  0  0
   -2.8335   39.2887   48.8767 O   0  0  0  0  0  0  0  0  0  0  0  0
   -0.9923   40.6082   48.5833 N   0  0  0  0  0  0  0  0  0  0  0  0
   -0.1667   41.5668   47.8647 C   0  0  0  0  0  0  0  0  0  0  0  0
   -0.5213   40.4247   49.9443 C   0  0  0  0  0  0  0  0  0  0  0  0
    1.0474   41.7688   48.7605 C   0  0  0  0  0  0  0  0  0  0  0  0
    0.4809   41.5501   50.1567 C   0  0  0  0  0  0  0  0  0  0  0  0
   -1.7521   40.4491   46.2345 H   0  0  0  0  0  0  0  0  0  0  0  0
  1  2  1  0
  2  3  2  0
  2  4  1  0
  3  5  1  0
  3  8  1  0
  4  6  2  0
  5  7  2  0
  8 10  1  0
  7 18  1  0
 10 11  1  0
 18 20  1  0
 11 12  1  0
 20 21  1  0
 12 13  1  0
 12 14  2  0
 21 22  1  0
 13 15  2  0
 14 16  1  0
 22 23  1  0
 23 24  2  0
 23 25  1  0
 25 26  1  0
 25 27  1  0
 26 28  1  0
 27 29  1  0
  6  7  1  0
 15 16  1  0
 28 29  1  0
  8  9  1  0
 18 19  1  0
 22 30  1  0
 16 17  1  0
M  END
>  <Molecule_Name>
EL5001A

>  <Pose_Rank>
5

>  <pIC50_PDK1>
6.5

>  <GNINA_Affinity_kcal_mol>
-7.4582

>  <CNN_Score>
0.7332

>  <CNN_Affinity>
6.9116

>  <MMGBSA_dG_kcal_mol>
-49.710

>  <MMGBSA_VdW>
-46.991

>  <MMGBSA_Elec>
-3.327

>  <MMGBSA_PolarSolv>
5.752

>  <MMGBSA_NonPolarSolv>
-5.145

$$$$
EL5003A


 33 36  0  0  0  0  0  0  0  0999 V2000
   -9.3412   44.6238   42.5438 Br  0  0  0  0  0  0  0  0  0  0  0  0
   -8.3520   43.2976   43.4530 C   0  0  0  0  0  0  0  0  0  0  0  0
   -7.1269   43.5322   44.0593 C   0  0  0  0  0  0  0  0  0  0  0  0
   -8.8347   42.0116   43.5361 C   0  0  0  0  0  0  0  0  0  0  0  0
   -6.4743   42.5418   44.6968 N   0  0  0  0  0  0  0  0  0  0  0  0
   -8.1958   41.0118   44.1744 N   0  0  0  0  0  0  0  0  0  0  0  0
   -7.0353   41.3286   44.7566 C   0  0  0  0  0  0  0  0  0  0  0  0
   -6.5322   44.8096   43.9822 N   0  0  0  0  0  0  0  0  0  0  0  0
   -7.2469   45.5142   44.1479 H   0  0  0  0  0  0  0  0  0  0  0  0
   -5.3415   45.0156   44.8230 C   0  0  0  0  0  0  0  0  0  0  0  0
   -4.1516   45.5052   43.9866 C   0  0  0  0  0  0  0  0  0  0  0  0
   -4.5180   46.5665   43.0102 C   0  0  0  0  0  0  0  0  0  0  0  0
   -5.5267   47.4661   43.2721 N   0  0  0  0  0  0  0  0  0  0  0  0
   -3.9750   46.8100   41.7679 C   0  0  0  0  0  0  0  0  0  0  0  0
   -5.5722   48.2548   42.2211 C   0  0  0  0  0  0  0  0  0  0  0  0
   -4.6473   47.8976   41.2823 N   0  0  0  0  0  0  0  0  0  0  0  0
   -4.4656   48.3697   40.3990 H   0  0  0  0  0  0  0  0  0  0  0  0
   -6.3363   40.3963   45.5024 N   0  0  0  0  0  0  0  0  0  0  0  0
   -6.1548   40.8386   46.3990 H   0  0  0  0  0  0  0  0  0  0  0  0
   -5.2240   39.7226   44.8498 C   0  0  0  0  0  0  0  0  0  0  0  0
   -3.9495   40.5662   44.8676 C   0  0  0  0  0  0  0  0  0  0  0  0
   -4.8353   38.4830   45.6679 C   0  0  0  0  0  0  0  0  0  0  0  0
   -3.4287   40.3823   46.2883 C   0  0  0  0  0  0  0  0  0  0  0  0
   -3.7110   38.9151   46.6147 C   0  0  0  0  0  0  0  0  0  0  0  0
   -2.0327   40.7395   46.4314 N   0  0  0  0  0  0  0  0  0  0  0  0
   -1.1506   40.5694   45.3956 C   0  0  0  0  0  0  0  0  0  0  0  0
   -1.4600   40.0158   44.3420 O   0  0  0  0  0  0  0  0  0  0  0  0
    0.1151   41.0364   45.6391 N   0  0  0  0  0  0  0  0  0  0  0  0
    0.6528   41.5471   46.8918 C   0  0  0  0  0  0  0  0  0  0  0  0
    1.1537   40.9293   44.6295 C   0  0  0  0  0  0  0  0  0  0  0  0
    2.1626   41.5338   46.6953 C   0  0  0  0  0  0  0  0  0  0  0  0
    2.3140   41.7349   45.1932 C   0  0  0  0  0  0  0  0  0  0  0  0
   -1.8205   41.5017   47.0558 H   0  0  0  0  0  0  0  0  0  0  0  0
  1  2  1  0
  2  3  2  0
  2  4  1  0
  3  5  1  0
  3  8  1  0
  4  6  2  0
  5  7  2  0
  8 10  1  0
  7 18  1  0
 10 11  1  0
 20 18  1  0
 11 12  1  0
 20 21  1  0
 20 22  1  0
 12 13  1  0
 12 14  2  0
 21 23  1  0
 22 24  1  0
 13 15  2  0
 14 16  1  0
 23 25  1  0
 25 26  1  0
 26 27  2  0
 26 28  1  0
 28 29  1  0
 28 30  1  0
 29 31  1  0
 30 32  1  0
  6  7  1  0
 23 24  1  0
 15 16  1  0
 31 32  1  0
  8  9  1  0
 18 19  1  0
 16 17  1  0
 25 33  1  0
M  END
>  <Molecule_Name>
EL5003A

>  <Pose_Rank>
1

>  <pIC50_PDK1>
6.8

>  <GNINA_Affinity_kcal_mol>
-7.8053

>  <CNN_Score>
0.9197

>  <CNN_Affinity>
7.7364

>  <MMGBSA_dG_kcal_mol>
-52.207

>  <MMGBSA_VdW>
-49.113

>  <MMGBSA_Elec>
-1.812

>  <MMGBSA_PolarSolv>
4.638

>  <MMGBSA_NonPolarSolv>
-5.920

$$$$
EL5003A


 33 36  0  0  0  0  0  0  0  0999 V2000
   -9.3447   44.6114   42.5419 Br  0  0  0  0  0  0  0  0  0  0  0  0
   -8.3615   43.2812   43.4518 C   0  0  0  0  0  0  0  0  0  0  0  0
   -7.1110   43.4967   44.0115 C   0  0  0  0  0  0  0  0  0  0  0  0
   -8.8754   42.0114   43.5835 C   0  0  0  0  0  0  0  0  0  0  0  0
   -6.4642   42.5047   44.6524 N   0  0  0  0  0  0  0  0  0  0  0  0
   -8.2426   41.0104   44.2258 N   0  0  0  0  0  0  0  0  0  0  0  0
   -7.0552   41.3093   44.7614 C   0  0  0  0  0  0  0  0  0  0  0  0
   -6.4852   44.7549   43.8823 N   0  0  0  0  0  0  0  0  0  0  0  0
   -7.1657   45.4820   44.0894 H   0  0  0  0  0  0  0  0  0  0  0  0
   -5.2345   44.9309   44.6387 C   0  0  0  0  0  0  0  0  0  0  0  0
   -4.7332   46.3786   44.5496 C   0  0  0  0  0  0  0  0  0  0  0  0
   -3.7232   46.5848   43.4766 C   0  0  0  0  0  0  0  0  0  0  0  0
   -2.9858   47.7447   43.3976 N   0  0  0  0  0  0  0  0  0  0  0  0
   -3.3843   45.7353   42.4466 C   0  0  0  0  0  0  0  0  0  0  0  0
   -2.1972   47.5864   42.3576 C   0  0  0  0  0  0  0  0  0  0  0  0
   -2.4005   46.3810   41.7494 N   0  0  0  0  0  0  0  0  0  0  0  0
   -1.8940   46.0129   40.9468 H   0  0  0  0  0  0  0  0  0  0  0  0
   -6.3569   40.3767   45.5075 N   0  0  0  0  0  0  0  0  0  0  0  0
   -6.2826   40.7690   46.4420 H   0  0  0  0  0  0  0  0  0  0  0  0
   -5.1491   39.8220   44.9154 C   0  0  0  0  0  0  0  0  0  0  0  0
   -3.8956   40.5854   45.3424 C   0  0  0  0  0  0  0  0  0  0  0  0
   -4.9115   38.4143   45.4800 C   0  0  0  0  0  0  0  0  0  0  0  0
   -3.6310   40.0631   46.7497 C   0  0  0  0  0  0  0  0  0  0  0  0
   -3.9687   38.5734   46.6771 C   0  0  0  0  0  0  0  0  0  0  0  0
   -2.2806   40.3198   47.2053 N   0  0  0  0  0  0  0  0  0  0  0  0
   -1.9184   40.0872   48.5072 C   0  0  0  0  0  0  0  0  0  0  0  0
   -2.7259   39.7564   49.3737 O   0  0  0  0  0  0  0  0  0  0  0  0
   -0.5886   40.2842   48.7752 N   0  0  0  0  0  0  0  0  0  0  0  0
    0.4279   40.8378   47.8922 C   0  0  0  0  0  0  0  0  0  0  0  0
   -0.0600   40.0697   50.1110 C   0  0  0  0  0  0  0  0  0  0  0  0
    1.5853   41.1943   48.8152 C   0  0  0  0  0  0  0  0  0  0  0  0
    1.4475   40.1811   49.9439 C   0  0  0  0  0  0  0  0  0  0  0  0
   -1.5433   40.2070   46.5274 H   0  0  0  0  0  0  0  0  0  0  0  0
  1  2  1  0
  2  3  2  0
  2  4  1  0
  3  5  1  0
  3  8  1  0
  4  6  2  0
  5  7  2  0
  8 10  1  0
  7 18  1  0
 10 11  1  0
 20 18  1  0
 11 12  1  0
 20 21  1  0
 20 22  1  0
 12 13  1  0
 12 14  2  0
 21 23  1  0
 22 24  1  0
 13 15  2  0
 14 16  1  0
 23 25  1  0
 25 26  1  0
 26 27  2  0
 26 28  1  0
 28 29  1  0
 28 30  1  0
 29 31  1  0
 30 32  1  0
  6  7  1  0
 23 24  1  0
 15 16  1  0
 31 32  1  0
  8  9  1  0
 18 19  1  0
 16 17  1  0
 25 33  1  0
M  END
>  <Molecule_Name>
EL5003A

>  <Pose_Rank>
2

>  <pIC50_PDK1>
6.8

>  <GNINA_Affinity_kcal_mol>
-7.5918

>  <CNN_Score>
0.8556

>  <CNN_Affinity>
7.3521

>  <MMGBSA_dG_kcal_mol>
-46.162

>  <MMGBSA_VdW>
-44.285

>  <MMGBSA_Elec>
-2.239

>  <MMGBSA_PolarSolv>
5.484

>  <MMGBSA_NonPolarSolv>
-5.121

$$$$
EL5003A


 33 36  0  0  0  0  0  0  0  0999 V2000
   -4.8303   38.5280   45.9961 Br  0  0  0  0  0  0  0  0  0  0  0  0
   -4.3923   40.1873   45.2093 C   0  0  0  0  0  0  0  0  0  0  0  0
   -5.3365   41.1041   44.7717 C   0  0  0  0  0  0  0  0  0  0  0  0
   -3.0743   40.5427   45.0357 C   0  0  0  0  0  0  0  0  0  0  0  0
   -4.9566   42.2735   44.2227 N   0  0  0  0  0  0  0  0  0  0  0  0
   -2.6789   41.7106   44.4928 N   0  0  0  0  0  0  0  0  0  0  0  0
   -3.6513   42.5501   44.1239 C   0  0  0  0  0  0  0  0  0  0  0  0
   -6.7119   40.8028   44.8650 N   0  0  0  0  0  0  0  0  0  0  0  0
   -6.9851   40.8191   45.8447 H   0  0  0  0  0  0  0  0  0  0  0  0
   -7.6060   41.6153   44.0239 C   0  0  0  0  0  0  0  0  0  0  0  0
   -7.7141   43.0504   44.5567 C   0  0  0  0  0  0  0  0  0  0  0  0
   -8.3397   43.9904   43.5877 C   0  0  0  0  0  0  0  0  0  0  0  0
   -9.3401   43.5820   42.7346 N   0  0  0  0  0  0  0  0  0  0  0  0
   -8.0458   45.3190   43.3735 C   0  0  0  0  0  0  0  0  0  0  0  0
   -9.6633   44.6501   42.0394 C   0  0  0  0  0  0  0  0  0  0  0  0
   -8.9067   45.7302   42.3936 N   0  0  0  0  0  0  0  0  0  0  0  0
   -8.9872   46.6751   42.0238 H   0  0  0  0  0  0  0  0  0  0  0  0
   -3.3548   43.8067   43.6268 N   0  0  0  0  0  0  0  0  0  0  0  0
   -2.4751   44.0750   44.0588 H   0  0  0  0  0  0  0  0  0  0  0  0
   -4.4275   44.7897   43.6236 C   0  0  0  0  0  0  0  0  0  0  0  0
   -3.9358   46.1797   44.0268 C   0  0  0  0  0  0  0  0  0  0  0  0
   -4.9184   44.9957   42.1836 C   0  0  0  0  0  0  0  0  0  0  0  0
   -3.2555   46.6901   42.7619 C   0  0  0  0  0  0  0  0  0  0  0  0
   -4.1411   46.1895   41.6200 C   0  0  0  0  0  0  0  0  0  0  0  0
   -3.0751   48.1269   42.7552 N   0  0  0  0  0  0  0  0  0  0  0  0
   -4.1519   48.9740   42.8078 C   0  0  0  0  0  0  0  0  0  0  0  0
   -5.3145   48.5767   42.7561 O   0  0  0  0  0  0  0  0  0  0  0  0
   -3.8303   50.3041   42.8896 N   0  0  0  0  0  0  0  0  0  0  0  0
   -2.5119   50.9123   42.7833 C   0  0  0  0  0  0  0  0  0  0  0  0
   -4.8691   51.3169   42.9586 C   0  0  0  0  0  0  0  0  0  0  0  0
   -2.7890   52.3901   42.5431 C   0  0  0  0  0  0  0  0  0  0  0  0
   -4.1201   52.6080   43.2504 C   0  0  0  0  0  0  0  0  0  0  0  0
   -2.2293   48.4804   43.1742 H   0  0  0  0  0  0  0  0  0  0  0  0
  1  2  1  0
  2  3  2  0
  2  4  1  0
  3  5  1  0
  3  8  1  0
  4  6  2  0
  5  7  2  0
  8 10  1  0
  7 18  1  0
 10 11  1  0
 20 18  1  0
 11 12  1  0
 20 21  1  0
 20 22  1  0
 12 13  1  0
 12 14  2  0
 21 23  1  0
 22 24  1  0
 13 15  2  0
 14 16  1  0
 23 25  1  0
 25 26  1  0
 26 27  2  0
 26 28  1  0
 28 29  1  0
 28 30  1  0
 29 31  1  0
 30 32  1  0
  6  7  1  0
 23 24  1  0
 15 16  1  0
 31 32  1  0
  8  9  1  0
 18 19  1  0
 16 17  1  0
 25 33  1  0
M  END
>  <Molecule_Name>
EL5003A

>  <Pose_Rank>
3

>  <pIC50_PDK1>
6.8

>  <GNINA_Affinity_kcal_mol>
-8.1076

>  <CNN_Score>
0.4980

>  <CNN_Affinity>
7.4018

>  <MMGBSA_dG_kcal_mol>
-57.187

>  <MMGBSA_VdW>
-54.403

>  <MMGBSA_Elec>
-1.366

>  <MMGBSA_PolarSolv>
5.158

>  <MMGBSA_NonPolarSolv>
-6.576

$$$$
EL5003A


 33 36  0  0  0  0  0  0  0  0999 V2000
   -8.3918   42.0262   43.7609 Br  0  0  0  0  0  0  0  0  0  0  0  0
   -6.7261   41.4739   44.4569 C   0  0  0  0  0  0  0  0  0  0  0  0
   -5.5543   42.2024   44.3168 C   0  0  0  0  0  0  0  0  0  0  0  0
   -6.6241   40.2850   45.1424 C   0  0  0  0  0  0  0  0  0  0  0  0
   -4.3986   41.7536   44.8425 N   0  0  0  0  0  0  0  0  0  0  0  0
   -5.4764   39.8255   45.6780 N   0  0  0  0  0  0  0  0  0  0  0  0
   -4.3995   40.6016   45.5230 C   0  0  0  0  0  0  0  0  0  0  0  0
   -5.5546   43.4099   43.5867 N   0  0  0  0  0  0  0  0  0  0  0  0
   -6.4357   43.4887   43.0844 H   0  0  0  0  0  0  0  0  0  0  0  0
   -5.2411   44.6256   44.3555 C   0  0  0  0  0  0  0  0  0  0  0  0
   -5.2301   45.8650   43.4505 C   0  0  0  0  0  0  0  0  0  0  0  0
   -6.5927   46.3252   43.0694 C   0  0  0  0  0  0  0  0  0  0  0  0
   -7.6861   45.4949   43.1717 N   0  0  0  0  0  0  0  0  0  0  0  0
   -6.9729   47.5519   42.5712 C   0  0  0  0  0  0  0  0  0  0  0  0
   -8.7100   46.2154   42.7706 C   0  0  0  0  0  0  0  0  0  0  0  0
   -8.3273   47.4722   42.3986 N   0  0  0  0  0  0  0  0  0  0  0  0
   -8.9368   48.2238   42.0827 H   0  0  0  0  0  0  0  0  0  0  0  0
   -3.1888   40.2608   46.0992 N   0  0  0  0  0  0  0  0  0  0  0  0
   -2.4959   40.3510   45.3615 H   0  0  0  0  0  0  0  0  0  0  0  0
   -3.1548   39.0509   46.9067 C   0  0  0  0  0  0  0  0  0  0  0  0
   -2.7268   37.8287   46.0948 C   0  0  0  0  0  0  0  0  0  0  0  0
   -2.0447   39.1786   47.9595 C   0  0  0  0  0  0  0  0  0  0  0  0
   -1.2144   37.9888   45.9935 C   0  0  0  0  0  0  0  0  0  0  0  0
   -0.7925   38.5311   47.3597 C   0  0  0  0  0  0  0  0  0  0  0  0
   -0.5368   36.7605   45.6339 N   0  0  0  0  0  0  0  0  0  0  0  0
   -0.0834   36.5519   44.3569 C   0  0  0  0  0  0  0  0  0  0  0  0
   -0.3138   37.3305   43.4333 O   0  0  0  0  0  0  0  0  0  0  0  0
    0.6207   35.3887   44.1823 N   0  0  0  0  0  0  0  0  0  0  0  0
    0.8120   34.3085   45.1393 C   0  0  0  0  0  0  0  0  0  0  0  0
    1.1672   35.0388   42.8829 C   0  0  0  0  0  0  0  0  0  0  0  0
    1.3053   33.1365   44.3018 C   0  0  0  0  0  0  0  0  0  0  0  0
    2.0359   33.8200   43.1535 C   0  0  0  0  0  0  0  0  0  0  0  0
   -0.0031   36.3071   46.3589 H   0  0  0  0  0  0  0  0  0  0  0  0
  1  2  1  0
  2  3  2  0
  2  4  1  0
  3  5  1  0
  3  8  1  0
  4  6  2  0
  5  7  2  0
  8 10  1  0
  7 18  1  0
 10 11  1  0
 20 18  1  0
 11 12  1  0
 20 21  1  0
 20 22  1  0
 12 13  1  0
 12 14  2  0
 21 23  1  0
 22 24  1  0
 13 15  2  0
 14 16  1  0
 23 25  1  0
 25 26  1  0
 26 27  2  0
 26 28  1  0
 28 29  1  0
 28 30  1  0
 29 31  1  0
 30 32  1  0
  6  7  1  0
 23 24  1  0
 15 16  1  0
 31 32  1  0
  8  9  1  0
 18 19  1  0
 16 17  1  0
 25 33  1  0
M  END
>  <Molecule_Name>
EL5003A

>  <Pose_Rank>
4

>  <pIC50_PDK1>
6.8

>  <GNINA_Affinity_kcal_mol>
-7.7141

>  <CNN_Score>
0.3582

>  <CNN_Affinity>
6.7255

>  <MMGBSA_dG_kcal_mol>
-46.890

>  <MMGBSA_VdW>
-44.811

>  <MMGBSA_Elec>
0.413

>  <MMGBSA_PolarSolv>
3.537

>  <MMGBSA_NonPolarSolv>
-6.029

$$$$
EL5003A


 33 36  0  0  0  0  0  0  0  0999 V2000
   -9.7260   44.2130   43.1059 Br  0  0  0  0  0  0  0  0  0  0  0  0
   -8.4502   45.5918   42.9181 C   0  0  0  0  0  0  0  0  0  0  0  0
   -7.0882   45.4103   43.1061 C   0  0  0  0  0  0  0  0  0  0  0  0
   -8.8531   46.8644   42.5834 C   0  0  0  0  0  0  0  0  0  0  0  0
   -6.2299   46.4364   42.9515 N   0  0  0  0  0  0  0  0  0  0  0  0
   -8.0062   47.8995   42.4206 N   0  0  0  0  0  0  0  0  0  0  0  0
   -6.7077   47.6332   42.5918 C   0  0  0  0  0  0  0  0  0  0  0  0
   -6.5898   44.1500   43.4989 N   0  0  0  0  0  0  0  0  0  0  0  0
   -6.5980   43.5289   42.6934 H   0  0  0  0  0  0  0  0  0  0  0  0
   -5.2856   44.1593   44.1817 C   0  0  0  0  0  0  0  0  0  0  0  0
   -4.5438   42.8317   43.9759 C   0  0  0  0  0  0  0  0  0  0  0  0
   -5.3336   41.6458   44.4045 C   0  0  0  0  0  0  0  0  0  0  0  0
   -4.8133   40.7115   45.2716 N   0  0  0  0  0  0  0  0  0  0  0  0
   -6.6103   41.2880   44.0311 C   0  0  0  0  0  0  0  0  0  0  0  0
   -5.7674   39.8229   45.4405 C   0  0  0  0  0  0  0  0  0  0  0  0
   -6.8789   40.1315   44.7099 N   0  0  0  0  0  0  0  0  0  0  0  0
   -7.7577   39.6179   44.6955 H   0  0  0  0  0  0  0  0  0  0  0  0
   -5.7479   48.6055   42.3736 N   0  0  0  0  0  0  0  0  0  0  0  0
   -5.8973   48.9338   41.4236 H   0  0  0  0  0  0  0  0  0  0  0  0
   -4.3829   48.2914   42.7674 C   0  0  0  0  0  0  0  0  0  0  0  0
   -3.3526   48.9825   41.8746 C   0  0  0  0  0  0  0  0  0  0  0  0
   -4.1066   48.8936   44.1524 C   0  0  0  0  0  0  0  0  0  0  0  0
   -3.3391   50.4134   42.3998 C   0  0  0  0  0  0  0  0  0  0  0  0
   -3.4720   50.2679   43.9163 C   0  0  0  0  0  0  0  0  0  0  0  0
   -2.1604   51.1534   41.9995 N   0  0  0  0  0  0  0  0  0  0  0  0
   -2.2527   52.4558   41.5810 C   0  0  0  0  0  0  0  0  0  0  0  0
   -3.3290   53.0287   41.4206 O   0  0  0  0  0  0  0  0  0  0  0  0
   -1.0499   53.0608   41.3233 N   0  0  0  0  0  0  0  0  0  0  0  0
    0.2712   52.4495   41.3042 C   0  0  0  0  0  0  0  0  0  0  0  0
   -0.9932   54.4421   40.8780 C   0  0  0  0  0  0  0  0  0  0  0  0
    1.1517   53.4607   40.5828 C   0  0  0  0  0  0  0  0  0  0  0  0
    0.4869   54.7906   40.9130 C   0  0  0  0  0  0  0  0  0  0  0  0
   -1.2943   50.9080   42.4528 H   0  0  0  0  0  0  0  0  0  0  0  0
  1  2  1  0
  2  3  2  0
  2  4  1  0
  3  5  1  0
  3  8  1  0
  4  6  2  0
  5  7  2  0
  8 10  1  0
  7 18  1  0
 10 11  1  0
 20 18  1  0
 11 12  1  0
 20 21  1  0
 20 22  1  0
 12 13  1  0
 12 14  2  0
 21 23  1  0
 22 24  1  0
 13 15  2  0
 14 16  1  0
 23 25  1  0
 25 26  1  0
 26 27  2  0
 26 28  1  0
 28 29  1  0
 28 30  1  0
 29 31  1  0
 30 32  1  0
  6  7  1  0
 23 24  1  0
 15 16  1  0
 31 32  1  0
  8  9  1  0
 18 19  1  0
 16 17  1  0
 25 33  1  0
M  END
>  <Molecule_Name>
EL5003A

>  <Pose_Rank>
5

>  <pIC50_PDK1>
6.8

>  <GNINA_Affinity_kcal_mol>
-8.1196

>  <CNN_Score>
0.3417

>  <CNN_Affinity>
7.2250

>  <MMGBSA_dG_kcal_mol>
-48.434

>  <MMGBSA_VdW>
-46.216

>  <MMGBSA_Elec>
-0.674

>  <MMGBSA_PolarSolv>
4.462

>  <MMGBSA_NonPolarSolv>
-6.006

$$$$
