EDS01806218_ent1
     RDKit          3D

 34 39  0  0  0  0  0  0  0  0999 V2000
   83.8000  151.9293   15.3975 N   0  0  0  0  0  0  0  0  0  0  0  0
   83.7839  150.5332   14.8512 C   0  0  0  0  0  0  0  0  0  0  0  0
   82.5728  152.7048   15.0595 C   0  0  0  0  0  0  0  0  0  0  0  0
   82.4776  149.8009   15.2639 C   0  0  2  0  0  0  0  0  0  0  0  0
   81.2819  151.9214   15.4058 C   0  0  1  0  0  0  0  0  0  0  0  0
   81.3115  150.5795   14.8044 N   0  0  0  0  0  0  0  0  0  0  0  0
   82.4283  149.6613   16.7684 C   0  0  0  0  0  0  0  0  0  0  0  0
   81.0498  151.7785   16.9222 C   0  0  0  0  0  0  0  0  0  0  0  0
   80.1312  150.0339   14.3294 C   0  0  0  0  0  0  0  0  0  0  0  0
   83.1089  148.6652   17.4489 C   0  0  0  0  0  0  0  0  0  0  0  0
   81.8163  150.6345   17.5484 C   0  0  0  0  0  0  0  0  0  0  0  0
   79.0946  150.6906   14.2388 O   0  0  0  0  0  0  0  0  0  0  0  0
   80.1599  148.5919   13.8940 C   0  0  0  0  0  0  0  0  0  0  0  0
   83.1409  148.6256   18.7886 N   0  0  0  0  0  0  0  0  0  0  0  0
   81.8362  150.5997   18.8942 N   0  0  0  0  0  0  0  0  0  0  0  0
   82.5177  149.5994   19.4810 C   0  0  0  0  0  0  0  0  0  0  0  0
   85.2794  152.7558   15.3585 S   0  0  0  0  0  0  0  0  0  0  0  0
   86.2168  151.9684   14.5878 O   0  0  0  0  0  0  0  0  0  0  0  0
   85.5878  153.1788   16.7079 O   0  0  0  0  0  0  0  0  0  0  0  0
   84.9187  154.2066   14.4263 C   0  0  0  0  0  0  0  0  0  0  0  0
   84.5786  154.0892   13.0909 C   0  0  0  0  0  0  0  0  0  0  0  0
   85.0336  155.4772   14.9879 C   0  0  0  0  0  0  0  0  0  0  0  0
   84.2880  155.1545   12.3062 N   0  0  0  0  0  0  0  0  0  0  0  0
   84.7558  156.5874   14.1957 C   0  0  0  0  0  0  0  0  0  0  0  0
   84.3861  156.3779   12.8751 C   0  0  0  0  0  0  0  0  0  0  0  0
   82.5746  149.5573   20.9878 C   0  0  0  0  0  0  0  0  0  0  0  0
   81.8156  148.4927   21.7490 C   0  0  0  0  0  0  0  0  0  0  0  0
   83.3125  148.4366   21.6862 C   0  0  0  0  0  0  0  0  0  0  0  0
   83.7509  147.6542   16.7055 N   0  0  0  0  0  0  0  0  0  0  0  0
   83.5367  146.7673   17.1546 H   0  0  0  0  0  0  0  0  0  0  0  0
   85.1981  147.8035   16.5553 C   0  0  0  0  0  0  0  0  0  0  0  0
   85.8784  147.5471   17.8681 C   0  0  0  0  0  0  0  0  0  0  0  0
   87.3744  147.3614   17.9385 C   0  0  0  0  0  0  0  0  0  0  0  0
   86.4612  146.1934   18.1903 C   0  0  0  0  0  0  0  0  0  0  0  0
 17 18  2  0
 17 19  2  0
 17  1  1  0
 17 20  1  0
  1  2  1  0
  1  3  1  0
 20 21  2  0
 20 22  1  0
  4  2  1  1
  5  3  1  1
 21 23  1  0
 22 24  2  0
  4  6  1  0
  4  7  1  0
  5  8  1  0
 23 25  2  0
  6  9  1  0
  7 10  1  0
  7 11  2  0
  9 12  2  0
  9 13  1  0
 10 14  2  0
 10 29  1  0
 11 15  1  0
 14 16  1  0
 29 31  1  0
 16 26  1  0
 31 32  1  0
 26 27  1  0
 26 28  1  0
 32 33  1  0
 32 34  1  0
  5  6  1  0
 24 25  1  0
  8 11  1  0
 15 16  2  0
 27 28  1  0
 33 34  1  0
 29 30  1  0
M  END
>  <ID>  (1) 
EDS01806218

>  <MMFF94_energy_kcal_mol>  (1) 
-25.934

>  <minimizedAffinity>  (1) 
-6.81381

>  <CNNscore>  (1) 
0.3035575747

>  <CNNaffinity>  (1) 
6.3276348114

>  <CNN_VS>  (1) 
1.9208015203

>  <CNNaffinity_variance>  (1) 
0.3074273169

>  <Ligand>  (1) 
EDS01806218_ent1

>  <Pose>  (1) 
1

$$$$
EDS01806218_ent1
     RDKit          3D

 34 39  0  0  0  0  0  0  0  0999 V2000
   85.2606  152.3456   13.8919 N   0  0  0  0  0  0  0  0  0  0  0  0
   86.3299  152.0249   14.8925 C   0  0  0  0  0  0  0  0  0  0  0  0
   85.8008  152.6705   12.5411 C   0  0  0  0  0  0  0  0  0  0  0  0
   87.2782  150.9236   14.3437 C   0  0  2  0  0  0  0  0  0  0  0  0
   86.8056  151.5990   12.0488 C   0  0  1  0  0  0  0  0  0  0  0  0
   87.8503  151.3642   13.0570 N   0  0  0  0  0  0  0  0  0  0  0  0
   86.5018  149.6430   14.1370 C   0  0  0  0  0  0  0  0  0  0  0  0
   86.1362  150.2538   11.7081 C   0  0  0  0  0  0  0  0  0  0  0  0
   89.1418  151.1029   12.6327 C   0  0  0  0  0  0  0  0  0  0  0  0
   86.2135  148.7689   15.1720 C   0  0  0  0  0  0  0  0  0  0  0  0
   85.9053  149.3684   12.9128 C   0  0  0  0  0  0  0  0  0  0  0  0
   89.4832  151.2239   11.4568 O   0  0  0  0  0  0  0  0  0  0  0  0
   90.1431  150.6828   13.6772 C   0  0  0  0  0  0  0  0  0  0  0  0
   85.4308  147.6961   14.9881 N   0  0  0  0  0  0  0  0  0  0  0  0
   85.1238  148.2899   12.7157 N   0  0  0  0  0  0  0  0  0  0  0  0
   84.8920  147.4880   13.7705 C   0  0  0  0  0  0  0  0  0  0  0  0
   83.9376  153.2521   14.4405 S   0  0  0  0  0  0  0  0  0  0  0  0
   83.9633  153.2592   15.8869 O   0  0  0  0  0  0  0  0  0  0  0  0
   82.7655  152.8119   13.7142 O   0  0  0  0  0  0  0  0  0  0  0  0
   84.3034  154.8882   13.8990 C   0  0  0  0  0  0  0  0  0  0  0  0
   84.0130  155.2540   12.5972 C   0  0  0  0  0  0  0  0  0  0  0  0
   84.9412  155.8035   14.7347 C   0  0  0  0  0  0  0  0  0  0  0  0
   84.2636  156.4905   12.1041 N   0  0  0  0  0  0  0  0  0  0  0  0
   85.2234  157.0750   14.2439 C   0  0  0  0  0  0  0  0  0  0  0  0
   84.8651  157.3707   12.9368 C   0  0  0  0  0  0  0  0  0  0  0  0
   83.9975  146.2889   13.5772 C   0  0  0  0  0  0  0  0  0  0  0  0
   82.7866  146.3797   12.6748 C   0  0  0  0  0  0  0  0  0  0  0  0
   83.9732  145.5694   12.2468 C   0  0  0  0  0  0  0  0  0  0  0  0
   86.7902  149.0030   16.4368 N   0  0  0  0  0  0  0  0  0  0  0  0
   87.1757  149.9440   16.4231 H   0  0  0  0  0  0  0  0  0  0  0  0
   87.8170  148.0466   16.8492 C   0  0  0  0  0  0  0  0  0  0  0  0
   89.1731  148.6840   16.7676 C   0  0  0  0  0  0  0  0  0  0  0  0
   89.9827  148.9378   18.0157 C   0  0  0  0  0  0  0  0  0  0  0  0
   89.3995  150.0946   17.2520 C   0  0  0  0  0  0  0  0  0  0  0  0
 17 18  2  0
 17 19  2  0
 17  1  1  0
 17 20  1  0
  1  2  1  0
  1  3  1  0
 20 21  2  0
 20 22  1  0
  4  2  1  6
  5  3  1  1
 21 23  1  0
 22 24  2  0
  4  6  1  0
  4  7  1  0
  5  8  1  0
 23 25  2  0
  6  9  1  0
  7 10  1  0
  7 11  2  0
  9 12  2  0
  9 13  1  0
 10 14  2  0
 10 29  1  0
 11 15  1  0
 14 16  1  0
 29 31  1  0
 16 26  1  0
 31 32  1  0
 26 27  1  0
 26 28  1  0
 32 33  1  0
 32 34  1  0
  5  6  1  0
 24 25  1  0
  8 11  1  0
 15 16  2  0
 27 28  1  0
 33 34  1  0
 29 30  1  0
M  END
>  <ID>  (2) 
EDS01806218

>  <MMFF94_energy_kcal_mol>  (2) 
-25.934

>  <minimizedAffinity>  (2) 
-6.16821

>  <CNNscore>  (2) 
0.2969136238

>  <CNNaffinity>  (2) 
6.1231188774

>  <CNN_VS>  (2) 
1.8180373907

>  <CNNaffinity_variance>  (2) 
0.3063416779

>  <Ligand>  (2) 
EDS01806218_ent1

>  <Pose>  (2) 
2

$$$$
EDS01806218_ent1
     RDKit          3D

 34 39  0  0  0  0  0  0  0  0999 V2000
   84.7458  152.0264   13.9660 N   0  0  0  0  0  0  0  0  0  0  0  0
   86.2214  152.2778   14.0498 C   0  0  0  0  0  0  0  0  0  0  0  0
   84.3243  151.4416   12.6613 C   0  0  0  0  0  0  0  0  0  0  0  0
   87.0152  150.9941   13.6822 C   0  0  2  0  0  0  0  0  0  0  0  0
   85.1830  150.2107   12.2768 C   0  0  1  0  0  0  0  0  0  0  0  0
   86.6157  150.5374   12.3373 N   0  0  0  0  0  0  0  0  0  0  0  0
   86.7186  149.9082   14.6912 C   0  0  0  0  0  0  0  0  0  0  0  0
   84.9172  148.9849   13.1716 C   0  0  0  0  0  0  0  0  0  0  0  0
   87.4697  149.9727   11.4055 C   0  0  0  0  0  0  0  0  0  0  0  0
   87.3421  149.8456   15.9264 C   0  0  0  0  0  0  0  0  0  0  0  0
   85.6810  149.0094   14.4771 C   0  0  0  0  0  0  0  0  0  0  0  0
   87.0556  149.3443   10.4321 O   0  0  0  0  0  0  0  0  0  0  0  0
   88.9487  150.1760   11.6080 C   0  0  0  0  0  0  0  0  0  0  0  0
   86.9852  148.9401   16.8484 N   0  0  0  0  0  0  0  0  0  0  0  0
   85.3199  148.0914   15.3934 N   0  0  0  0  0  0  0  0  0  0  0  0
   85.9743  148.0939   16.5685 C   0  0  0  0  0  0  0  0  0  0  0  0
   83.7251  153.1840   14.6669 S   0  0  0  0  0  0  0  0  0  0  0  0
   84.0059  153.2346   16.0851 O   0  0  0  0  0  0  0  0  0  0  0  0
   82.3837  152.9489   14.1766 O   0  0  0  0  0  0  0  0  0  0  0  0
   84.2784  154.7027   13.9658 C   0  0  0  0  0  0  0  0  0  0  0  0
   84.1779  154.8972   12.6002 C   0  0  0  0  0  0  0  0  0  0  0  0
   84.8774  155.6878   14.7492 C   0  0  0  0  0  0  0  0  0  0  0  0
   84.5807  156.0346   11.9846 N   0  0  0  0  0  0  0  0  0  0  0  0
   85.3139  156.8583   14.1354 C   0  0  0  0  0  0  0  0  0  0  0  0
   85.1415  156.9867   12.7649 C   0  0  0  0  0  0  0  0  0  0  0  0
   85.5670  147.0907   17.6187 C   0  0  0  0  0  0  0  0  0  0  0  0
   84.7515  147.5292   18.8152 C   0  0  0  0  0  0  0  0  0  0  0  0
   84.1166  146.6825   17.7533 C   0  0  0  0  0  0  0  0  0  0  0  0
   88.3995  150.7375   16.1973 N   0  0  0  0  0  0  0  0  0  0  0  0
   88.7899  151.0232   15.3028 H   0  0  0  0  0  0  0  0  0  0  0  0
   89.4576  150.2178   17.0630 C   0  0  0  0  0  0  0  0  0  0  0  0
   90.0952  151.3428   17.8244 C   0  0  0  0  0  0  0  0  0  0  0  0
   91.5972  151.4592   17.9152 C   0  0  0  0  0  0  0  0  0  0  0  0
   90.7983  151.0938   19.1357 C   0  0  0  0  0  0  0  0  0  0  0  0
 17 18  2  0
 17 19  2  0
 17  1  1  0
 17 20  1  0
  1  2  1  0
  1  3  1  0
 20 21  2  0
 20 22  1  0
  4  2  1  1
  5  3  1  1
 21 23  1  0
 22 24  2  0
  4  6  1  0
  4  7  1  0
  5  8  1  0
 23 25  2  0
  6  9  1  0
  7 10  1  0
  7 11  2  0
  9 12  2  0
  9 13  1  0
 10 14  2  0
 10 29  1  0
 11 15  1  0
 14 16  1  0
 29 31  1  0
 16 26  1  0
 31 32  1  0
 26 27  1  0
 26 28  1  0
 32 33  1  0
 32 34  1  0
  5  6  1  0
 24 25  1  0
  8 11  1  0
 15 16  2  0
 27 28  1  0
 33 34  1  0
 29 30  1  0
M  END
>  <ID>  (3) 
EDS01806218

>  <MMFF94_energy_kcal_mol>  (3) 
-25.934

>  <minimizedAffinity>  (3) 
-6.46649

>  <CNNscore>  (3) 
0.2876161337

>  <CNNaffinity>  (3) 
6.0667214394

>  <CNN_VS>  (3) 
1.7448869944

>  <CNNaffinity_variance>  (3) 
0.4194786251

>  <Ligand>  (3) 
EDS01806218_ent1

>  <Pose>  (3) 
3

$$$$
EDS01806218_ent1
     RDKit          3D

 34 39  0  0  0  0  0  0  0  0999 V2000
   85.0332  152.1434   14.3174 N   0  0  0  0  0  0  0  0  0  0  0  0
   85.8755  151.7521   15.4943 C   0  0  0  0  0  0  0  0  0  0  0  0
   85.8360  152.4639   13.1031 C   0  0  0  0  0  0  0  0  0  0  0  0
   86.8592  150.6140   15.1067 C   0  0  2  0  0  0  0  0  0  0  0  0
   86.8658  151.3517   12.7826 C   0  0  1  0  0  0  0  0  0  0  0  0
   87.6865  151.0473   13.9644 N   0  0  0  0  0  0  0  0  0  0  0  0
   86.0784  149.3779   14.7224 C   0  0  0  0  0  0  0  0  0  0  0  0
   86.2125  150.0480   12.2853 C   0  0  0  0  0  0  0  0  0  0  0  0
   89.0218  150.7285   13.7866 C   0  0  0  0  0  0  0  0  0  0  0  0
   85.5574  148.5018   15.6602 C   0  0  0  0  0  0  0  0  0  0  0  0
   85.7149  149.1548   13.4002 C   0  0  0  0  0  0  0  0  0  0  0  0
   89.5869  150.8523   12.7006 O   0  0  0  0  0  0  0  0  0  0  0  0
   89.7844  150.2406   14.9909 C   0  0  0  0  0  0  0  0  0  0  0  0
   84.7756  147.4731   15.3024 N   0  0  0  0  0  0  0  0  0  0  0  0
   84.9365  148.1206   13.0297 N   0  0  0  0  0  0  0  0  0  0  0  0
   84.4705  147.3134   13.9995 C   0  0  0  0  0  0  0  0  0  0  0  0
   83.6730  153.1059   14.6284 S   0  0  0  0  0  0  0  0  0  0  0  0
   83.4967  153.1896   16.0618 O   0  0  0  0  0  0  0  0  0  0  0  0
   82.6016  152.6527   13.7670 O   0  0  0  0  0  0  0  0  0  0  0  0
   84.1574  154.7026   14.0630 C   0  0  0  0  0  0  0  0  0  0  0  0
   83.8083  155.1065   12.7871 C   0  0  0  0  0  0  0  0  0  0  0  0
   84.9432  155.5434   14.8495 C   0  0  0  0  0  0  0  0  0  0  0  0
   84.1425  156.3166   12.2781 N   0  0  0  0  0  0  0  0  0  0  0  0
   85.3124  156.7851   14.3405 C   0  0  0  0  0  0  0  0  0  0  0  0
   84.8886  157.1259   13.0644 C   0  0  0  0  0  0  0  0  0  0  0  0
   83.5750  146.1644   13.6081 C   0  0  0  0  0  0  0  0  0  0  0  0
   84.0252  145.1711   12.5594 C   0  0  0  0  0  0  0  0  0  0  0  0
   83.9454  144.7500   13.9961 C   0  0  0  0  0  0  0  0  0  0  0  0
   85.8919  148.6848   17.0173 N   0  0  0  0  0  0  0  0  0  0  0  0
   86.5671  147.9646   17.2614 H   0  0  0  0  0  0  0  0  0  0  0  0
   84.7686  148.6568   17.9536 C   0  0  0  0  0  0  0  0  0  0  0  0
   84.0289  149.9616   17.9051 C   0  0  0  0  0  0  0  0  0  0  0  0
   83.1842  150.4133   19.0713 C   0  0  0  0  0  0  0  0  0  0  0  0
   82.5256  149.9989   17.7845 C   0  0  0  0  0  0  0  0  0  0  0  0
 17 18  2  0
 17 19  2  0
 17  1  1  0
 17 20  1  0
  1  2  1  0
  1  3  1  0
 20 21  2  0
 20 22  1  0
  4  2  1  6
  5  3  1  1
 21 23  1  0
 22 24  2  0
  4  6  1  0
  4  7  1  0
  5  8  1  0
 23 25  2  0
  6  9  1  0
  7 10  1  0
  7 11  2  0
  9 12  2  0
  9 13  1  0
 10 14  2  0
 10 29  1  0
 11 15  1  0
 14 16  1  0
 29 31  1  0
 16 26  1  0
 31 32  1  0
 26 27  1  0
 26 28  1  0
 32 33  1  0
 32 34  1  0
  5  6  1  0
 24 25  1  0
  8 11  1  0
 15 16  2  0
 27 28  1  0
 33 34  1  0
 29 30  1  0
M  END
>  <ID>  (4) 
EDS01806218

>  <MMFF94_energy_kcal_mol>  (4) 
-25.934

>  <minimizedAffinity>  (4) 
-6.11091

>  <CNNscore>  (4) 
0.2407439947

>  <CNNaffinity>  (4) 
6.1338825226

>  <CNN_VS>  (4) 
1.4766954184

>  <CNNaffinity_variance>  (4) 
0.3241752684

>  <Ligand>  (4) 
EDS01806218_ent1

>  <Pose>  (4) 
4

$$$$
EDS01806218_ent1
     RDKit          3D

 34 39  0  0  0  0  0  0  0  0999 V2000
   83.9897  150.2192   14.2134 N   0  0  0  0  0  0  0  0  0  0  0  0
   85.1592  150.2260   13.2753 C   0  0  0  0  0  0  0  0  0  0  0  0
   84.3537  149.8122   15.6004 C   0  0  0  0  0  0  0  0  0  0  0  0
   86.3247  151.0686   13.8625 C   0  0  2  0  0  0  0  0  0  0  0  0
   85.5694  150.6098   16.1352 C   0  0  1  0  0  0  0  0  0  0  0  0
   86.6936  150.5395   15.1895 N   0  0  0  0  0  0  0  0  0  0  0  0
   85.8899  152.5100   13.9985 C   0  0  0  0  0  0  0  0  0  0  0  0
   85.2469  152.0911   16.4104 C   0  0  0  0  0  0  0  0  0  0  0  0
   87.9835  150.4789   15.6883 C   0  0  0  0  0  0  0  0  0  0  0  0
   85.8915  153.3945   12.9326 C   0  0  0  0  0  0  0  0  0  0  0  0
   85.3162  152.9664   15.1786 C   0  0  0  0  0  0  0  0  0  0  0  0
   88.2171  150.3138   16.8850 O   0  0  0  0  0  0  0  0  0  0  0  0
   89.1150  150.5976   14.7006 C   0  0  0  0  0  0  0  0  0  0  0  0
   85.3989  154.6359   13.0492 N   0  0  0  0  0  0  0  0  0  0  0  0
   84.8255  154.2134   15.3082 N   0  0  0  0  0  0  0  0  0  0  0  0
   84.8643  155.0132   14.2274 C   0  0  0  0  0  0  0  0  0  0  0  0
   82.5119  149.6599   13.5998 S   0  0  0  0  0  0  0  0  0  0  0  0
   82.5526  148.2142   13.5712 O   0  0  0  0  0  0  0  0  0  0  0  0
   82.2072  150.4247   12.4093 O   0  0  0  0  0  0  0  0  0  0  0  0
   81.3464  150.1298   14.8346 C   0  0  0  0  0  0  0  0  0  0  0  0
   81.5226  151.3194   15.5177 C   0  0  0  0  0  0  0  0  0  0  0  0
   80.2857  149.2964   15.1858 C   0  0  0  0  0  0  0  0  0  0  0  0
   80.6728  151.7512   16.4803 N   0  0  0  0  0  0  0  0  0  0  0  0
   79.4091  149.7122   16.1838 C   0  0  0  0  0  0  0  0  0  0  0  0
   79.6385  150.9373   16.7930 C   0  0  0  0  0  0  0  0  0  0  0  0
   84.2955  156.4053   14.3441 C   0  0  0  0  0  0  0  0  0  0  0  0
   85.0183  157.4578   15.1556 C   0  0  0  0  0  0  0  0  0  0  0  0
   84.9859  157.5648   13.6605 C   0  0  0  0  0  0  0  0  0  0  0  0
   86.4587  152.9810   11.7102 N   0  0  0  0  0  0  0  0  0  0  0  0
   86.7369  152.0090   11.8201 H   0  0  0  0  0  0  0  0  0  0  0  0
   87.5919  153.7766   11.2390 C   0  0  0  0  0  0  0  0  0  0  0  0
   88.6931  152.8716   10.7694 C   0  0  0  0  0  0  0  0  0  0  0  0
   89.1213  152.8642    9.3223 C   0  0  0  0  0  0  0  0  0  0  0  0
   88.3985  151.6770    9.8964 C   0  0  0  0  0  0  0  0  0  0  0  0
 17 18  2  0
 17 19  2  0
 17  1  1  0
 17 20  1  0
  1  2  1  0
  1  3  1  0
 20 21  2  0
 20 22  1  0
  4  2  1  1
  5  3  1  6
 21 23  1  0
 22 24  2  0
  4  6  1  0
  4  7  1  0
  5  8  1  0
 23 25  2  0
  6  9  1  0
  7 10  1  0
  7 11  2  0
  9 12  2  0
  9 13  1  0
 10 14  2  0
 10 29  1  0
 11 15  1  0
 14 16  1  0
 29 31  1  0
 16 26  1  0
 31 32  1  0
 26 27  1  0
 26 28  1  0
 32 33  1  0
 32 34  1  0
  5  6  1  0
 24 25  1  0
  8 11  1  0
 15 16  2  0
 27 28  1  0
 33 34  1  0
 29 30  1  0
M  END
>  <ID>  (5) 
EDS01806218

>  <MMFF94_energy_kcal_mol>  (5) 
-25.934

>  <minimizedAffinity>  (5) 
-8.62481

>  <CNNscore>  (5) 
0.2057639062

>  <CNNaffinity>  (5) 
5.8363347054

>  <CNN_VS>  (5) 
1.2009069920

>  <CNNaffinity_variance>  (5) 
0.9808419347

>  <Ligand>  (5) 
EDS01806218_ent1

>  <Pose>  (5) 
5

$$$$
