EDS01357518_ent1
     RDKit          3D

 34 37  0  0  0  0  0  0  0  0999 V2000
   80.9309  148.9095   17.7393 C   0  0  0  0  0  0  0  0  0  0  0  0
   81.6626  149.9365   17.2167 N   0  0  0  0  0  0  0  0  0  0  0  0
   81.2217  148.2844   18.9418 C   0  0  0  0  0  0  0  0  0  0  0  0
   82.7454  150.3540   17.9201 C   0  0  0  0  0  0  0  0  0  0  0  0
   82.3245  148.7335   19.6568 C   0  0  0  0  0  0  0  0  0  0  0  0
   83.0925  149.7779   19.1449 C   0  0  0  0  0  0  0  0  0  0  0  0
   83.5748  151.5050   17.3636 C   0  0  1  0  0  0  0  0  0  0  0  0
   84.9599  151.0918   17.2877 O   0  0  0  0  0  0  0  0  0  0  0  0
   83.0135  152.0473   16.0291 C   0  0  0  0  0  0  0  0  0  0  0  0
   85.6225  151.4675   16.0772 C   0  0  0  0  0  0  0  0  0  0  0  0
   83.8673  153.0938   15.4559 N   0  0  0  0  0  0  0  0  0  0  0  0
   85.3049  152.9089   15.6695 C   0  0  0  0  0  0  0  0  0  0  0  0
   83.3114  153.9514   14.5076 C   0  0  0  0  0  0  0  0  0  0  0  0
   82.1631  153.7712   14.1033 O   0  0  0  0  0  0  0  0  0  0  0  0
   84.1145  155.0496   14.0158 C   0  0  0  0  0  0  0  0  0  0  0  0
   85.0831  154.9219   13.0480 N   0  0  0  0  0  0  0  0  0  0  0  0
   84.0746  156.4069   14.2872 C   0  0  0  0  0  0  0  0  0  0  0  0
   85.7106  156.0771   12.7497 N   0  0  0  0  0  0  0  0  0  0  0  0
   85.4943  153.7093   12.3765 C   0  0  0  0  0  0  0  0  0  0  0  0
   85.0801  156.9936   13.4885 C   0  0  0  0  0  0  0  0  0  0  0  0
   85.4613  158.4319   13.3996 C   0  0  0  0  0  0  0  0  0  0  0  0
   84.9663  159.2358   14.5920 C   0  0  0  0  0  0  0  0  0  0  0  0
   78.5444  148.5923   17.5653 N   0  0  0  0  0  0  0  0  0  0  0  0
   79.7553  148.4595   16.9244 C   0  0  0  0  0  0  0  0  0  0  0  0
   79.8887  148.0248   15.7866 O   0  0  0  0  0  0  0  0  0  0  0  0
   78.5622  149.0399   18.4771 H   0  0  0  0  0  0  0  0  0  0  0  0
   77.2788  148.3647   16.9168 C   0  0  0  0  0  0  0  0  0  0  0  0
   76.9232  150.8336   18.1687 S   0  0  0  0  0  0  0  0  0  0  0  0
   76.3551  149.4758   17.2845 C   0  0  0  0  0  0  0  0  0  0  0  0
   75.3478  151.5102   18.1319 C   0  0  0  0  0  0  0  0  0  0  0  0
   75.0040  149.6273   17.0151 C   0  0  0  0  0  0  0  0  0  0  0  0
   74.4395  150.7949   17.5066 N   0  0  0  0  0  0  0  0  0  0  0  0
   75.0845  152.8226   18.7802 C   0  0  0  0  0  0  0  0  0  0  0  0
   74.1332  148.6883   16.2587 C   0  0  0  0  0  0  0  0  0  0  0  0
 28 29  1  0
 28 30  1  0
 29 31  2  0
 29 27  1  0
 30 32  2  0
 30 33  1  0
 31 34  1  0
 27 23  1  0
 23 24  1  0
 24 25  2  0
 24  1  1  0
  1  2  2  0
  1  3  1  0
  2  4  1  0
  3  5  2  0
  4  6  2  0
  7  4  1  6
  7  8  1  0
  7  9  1  0
  8 10  1  0
  9 11  1  0
 10 12  1  0
 11 13  1  0
 13 14  2  0
 13 15  1  0
 15 16  1  0
 15 17  2  0
 16 18  1  0
 16 19  1  0
 17 20  1  0
 20 21  1  0
 21 22  1  0
 31 32  1  0
  5  6  1  0
 11 12  1  0
 18 20  2  0
 23 26  1  0
M  END
>  <ID>  (1) 
EDS01357518

>  <MMFF94_energy_kcal_mol>  (1) 
77.479

>  <minimizedAffinity>  (1) 
-7.51933

>  <CNNscore>  (1) 
0.5576950312

>  <CNNaffinity>  (1) 
7.0287857056

>  <CNN_VS>  (1) 
3.9199187756

>  <CNNaffinity_variance>  (1) 
0.0035518475

>  <Ligand>  (1) 
EDS01357518_ent1

>  <Pose>  (1) 
1

$$$$
EDS01357518_ent1
     RDKit          3D

 34 37  0  0  0  0  0  0  0  0999 V2000
   79.6313  149.5151   18.9926 C   0  0  0  0  0  0  0  0  0  0  0  0
   80.4866  150.3429   18.3245 N   0  0  0  0  0  0  0  0  0  0  0  0
   79.9924  148.7519   20.0920 C   0  0  0  0  0  0  0  0  0  0  0  0
   81.7687  150.4048   18.7649 C   0  0  0  0  0  0  0  0  0  0  0  0
   81.3044  148.8379   20.5393 C   0  0  0  0  0  0  0  0  0  0  0  0
   82.2008  149.6720   19.8734 C   0  0  0  0  0  0  0  0  0  0  0  0
   82.7423  151.3280   18.0423 C   0  0  1  0  0  0  0  0  0  0  0  0
   84.0683  150.7505   18.1008 O   0  0  0  0  0  0  0  0  0  0  0  0
   82.2771  151.6732   16.6091 C   0  0  0  0  0  0  0  0  0  0  0  0
   84.7949  150.8147   16.8706 C   0  0  0  0  0  0  0  0  0  0  0  0
   83.2625  152.4886   15.8902 N   0  0  0  0  0  0  0  0  0  0  0  0
   84.6627  152.1817   16.1935 C   0  0  0  0  0  0  0  0  0  0  0  0
   82.8334  153.2129   14.7789 C   0  0  0  0  0  0  0  0  0  0  0  0
   81.6797  153.0945   14.3670 O   0  0  0  0  0  0  0  0  0  0  0  0
   83.7733  154.0997   14.1285 C   0  0  0  0  0  0  0  0  0  0  0  0
   84.6992  153.6912   13.1974 N   0  0  0  0  0  0  0  0  0  0  0  0
   83.9265  155.4747   14.1875 C   0  0  0  0  0  0  0  0  0  0  0  0
   85.4761  154.6880   12.7284 N   0  0  0  0  0  0  0  0  0  0  0  0
   84.9272  152.3446   12.7229 C   0  0  0  0  0  0  0  0  0  0  0  0
   84.9909  155.7858   13.3136 C   0  0  0  0  0  0  0  0  0  0  0  0
   85.5666  157.1260   13.0065 C   0  0  0  0  0  0  0  0  0  0  0  0
   85.0436  158.2073   13.9395 C   0  0  0  0  0  0  0  0  0  0  0  0
   77.8851  150.5194   17.6630 N   0  0  0  0  0  0  0  0  0  0  0  0
   78.2292  149.4548   18.4647 C   0  0  0  0  0  0  0  0  0  0  0  0
   77.4799  148.5227   18.7317 O   0  0  0  0  0  0  0  0  0  0  0  0
   78.6230  151.1860   17.4553 H   0  0  0  0  0  0  0  0  0  0  0  0
   76.6467  150.5887   16.9311 C   0  0  0  0  0  0  0  0  0  0  0  0
   78.2205  150.2419   14.6526 S   0  0  0  0  0  0  0  0  0  0  0  0
   76.8385  149.9120   15.6165 C   0  0  0  0  0  0  0  0  0  0  0  0
   77.6522  149.1385   13.4691 C   0  0  0  0  0  0  0  0  0  0  0  0
   76.0359  148.9804   14.9769 C   0  0  0  0  0  0  0  0  0  0  0  0
   76.5122  148.5470   13.7486 N   0  0  0  0  0  0  0  0  0  0  0  0
   78.4386  148.9049   12.2285 C   0  0  0  0  0  0  0  0  0  0  0  0
   74.7570  148.4096   15.4775 C   0  0  0  0  0  0  0  0  0  0  0  0
 28 29  1  0
 28 30  1  0
 29 31  2  0
 29 27  1  0
 30 32  2  0
 30 33  1  0
 31 34  1  0
 27 23  1  0
 23 24  1  0
 24 25  2  0
 24  1  1  0
  1  2  2  0
  1  3  1  0
  2  4  1  0
  3  5  2  0
  4  6  2  0
  7  4  1  6
  7  8  1  0
  7  9  1  0
  8 10  1  0
  9 11  1  0
 10 12  1  0
 11 13  1  0
 13 14  2  0
 13 15  1  0
 15 16  1  0
 15 17  2  0
 16 18  1  0
 16 19  1  0
 17 20  1  0
 20 21  1  0
 21 22  1  0
 31 32  1  0
  5  6  1  0
 11 12  1  0
 18 20  2  0
 23 26  1  0
M  END
>  <ID>  (2) 
EDS01357518

>  <MMFF94_energy_kcal_mol>  (2) 
77.479

>  <minimizedAffinity>  (2) 
-8.35297

>  <CNNscore>  (2) 
0.5549460053

>  <CNNaffinity>  (2) 
6.5257897377

>  <CNN_VS>  (2) 
3.6214609146

>  <CNNaffinity_variance>  (2) 
0.3075999618

>  <Ligand>  (2) 
EDS01357518_ent1

>  <Pose>  (2) 
2

$$$$
EDS01357518_ent1
     RDKit          3D

 34 37  0  0  0  0  0  0  0  0999 V2000
   81.0677  147.4748   12.7264 C   0  0  0  0  0  0  0  0  0  0  0  0
   81.1726  148.8357   12.7378 N   0  0  0  0  0  0  0  0  0  0  0  0
   81.8860  146.6284   13.4582 C   0  0  0  0  0  0  0  0  0  0  0  0
   82.1490  149.3812   13.5064 C   0  0  0  0  0  0  0  0  0  0  0  0
   82.8707  147.2032   14.2513 C   0  0  0  0  0  0  0  0  0  0  0  0
   83.0036  148.5904   14.2789 C   0  0  0  0  0  0  0  0  0  0  0  0
   82.2825  150.8988   13.5441 C   0  0  1  0  0  0  0  0  0  0  0  0
   81.2395  151.4409   14.3887 O   0  0  0  0  0  0  0  0  0  0  0  0
   83.7046  151.3578   13.9399 C   0  0  0  0  0  0  0  0  0  0  0  0
   81.6768  152.4713   15.2790 C   0  0  0  0  0  0  0  0  0  0  0  0
   83.8000  152.8169   14.0608 N   0  0  0  0  0  0  0  0  0  0  0  0
   82.6023  153.4762   14.5876 C   0  0  0  0  0  0  0  0  0  0  0  0
   85.0642  153.4016   14.0006 C   0  0  0  0  0  0  0  0  0  0  0  0
   86.0723  152.6986   13.9381 O   0  0  0  0  0  0  0  0  0  0  0  0
   85.1579  154.8452   14.0138 C   0  0  0  0  0  0  0  0  0  0  0  0
   85.6751  155.5925   12.9817 N   0  0  0  0  0  0  0  0  0  0  0  0
   84.7171  155.7833   14.9320 C   0  0  0  0  0  0  0  0  0  0  0  0
   85.6689  156.9202   13.2143 N   0  0  0  0  0  0  0  0  0  0  0  0
   86.2311  155.1027   11.7401 C   0  0  0  0  0  0  0  0  0  0  0  0
   85.0613  157.0437   14.3970 C   0  0  0  0  0  0  0  0  0  0  0  0
   84.8167  158.3907   14.9865 C   0  0  0  0  0  0  0  0  0  0  0  0
   85.3534  159.5115   14.1096 C   0  0  0  0  0  0  0  0  0  0  0  0
   80.3531  145.7475   11.1994 N   0  0  0  0  0  0  0  0  0  0  0  0
   79.9929  146.9063   11.8490 C   0  0  0  0  0  0  0  0  0  0  0  0
   78.8957  147.4418   11.7453 O   0  0  0  0  0  0  0  0  0  0  0  0
   81.2645  145.3635   11.4319 H   0  0  0  0  0  0  0  0  0  0  0  0
   79.4299  144.9540   10.4299 C   0  0  0  0  0  0  0  0  0  0  0  0
   81.0627  144.5697    8.1994 S   0  0  0  0  0  0  0  0  0  0  0  0
   79.6778  145.2146    8.9830 C   0  0  0  0  0  0  0  0  0  0  0  0
   80.5668  145.3031    6.7306 C   0  0  0  0  0  0  0  0  0  0  0  0
   78.9255  145.9432    8.0750 C   0  0  0  0  0  0  0  0  0  0  0  0
   79.4459  145.9870    6.7901 N   0  0  0  0  0  0  0  0  0  0  0  0
   81.3890  145.1419    5.5017 C   0  0  0  0  0  0  0  0  0  0  0  0
   77.6436  146.6492    8.3400 C   0  0  0  0  0  0  0  0  0  0  0  0
 28 29  1  0
 28 30  1  0
 29 31  2  0
 29 27  1  0
 30 32  2  0
 30 33  1  0
 31 34  1  0
 27 23  1  0
 23 24  1  0
 24 25  2  0
 24  1  1  0
  1  2  2  0
  1  3  1  0
  2  4  1  0
  3  5  2  0
  4  6  2  0
  7  4  1  1
  7  8  1  0
  7  9  1  0
  8 10  1  0
  9 11  1  0
 10 12  1  0
 11 13  1  0
 13 14  2  0
 13 15  1  0
 15 16  1  0
 15 17  2  0
 16 18  1  0
 16 19  1  0
 17 20  1  0
 20 21  1  0
 21 22  1  0
 31 32  1  0
  5  6  1  0
 11 12  1  0
 18 20  2  0
 23 26  1  0
M  END
>  <ID>  (3) 
EDS01357518

>  <MMFF94_energy_kcal_mol>  (3) 
77.479

>  <minimizedAffinity>  (3) 
-7.95409

>  <CNNscore>  (3) 
0.4214746952

>  <CNNaffinity>  (3) 
6.0916914940

>  <CNN_VS>  (3) 
2.5674939156

>  <CNNaffinity_variance>  (3) 
0.1943019032

>  <Ligand>  (3) 
EDS01357518_ent1

>  <Pose>  (3) 
3

$$$$
EDS01357518_ent1
     RDKit          3D

 34 37  0  0  0  0  0  0  0  0999 V2000
   79.6801  149.4488   19.1885 C   0  0  0  0  0  0  0  0  0  0  0  0
   80.5270  150.2550   18.4843 N   0  0  0  0  0  0  0  0  0  0  0  0
   80.0637  148.6912   20.2842 C   0  0  0  0  0  0  0  0  0  0  0  0
   81.8235  150.2999   18.8827 C   0  0  0  0  0  0  0  0  0  0  0  0
   81.3907  148.7598   20.6883 C   0  0  0  0  0  0  0  0  0  0  0  0
   82.2788  149.5716   19.9849 C   0  0  0  0  0  0  0  0  0  0  0  0
   82.7884  151.1989   18.1191 C   0  0  1  0  0  0  0  0  0  0  0  0
   84.0993  150.5853   18.1164 O   0  0  0  0  0  0  0  0  0  0  0  0
   82.2687  151.5618   16.7092 C   0  0  0  0  0  0  0  0  0  0  0  0
   84.7714  150.6342   16.8549 C   0  0  0  0  0  0  0  0  0  0  0  0
   83.2428  152.3526   15.9486 N   0  0  0  0  0  0  0  0  0  0  0  0
   84.6462  152.0067   16.1878 C   0  0  0  0  0  0  0  0  0  0  0  0
   82.7840  153.0924   14.8595 C   0  0  0  0  0  0  0  0  0  0  0  0
   81.6102  153.0070   14.4997 O   0  0  0  0  0  0  0  0  0  0  0  0
   83.7175  153.9557   14.1695 C   0  0  0  0  0  0  0  0  0  0  0  0
   84.5696  153.5311   13.1771 N   0  0  0  0  0  0  0  0  0  0  0  0
   83.9278  155.3223   14.2436 C   0  0  0  0  0  0  0  0  0  0  0  0
   85.3557  154.5067   12.6799 N   0  0  0  0  0  0  0  0  0  0  0  0
   84.7159  152.1866   12.6658 C   0  0  0  0  0  0  0  0  0  0  0  0
   84.9497  155.6102   13.3128 C   0  0  0  0  0  0  0  0  0  0  0  0
   85.5583  156.9334   12.9955 C   0  0  0  0  0  0  0  0  0  0  0  0
   84.9212  158.0667   13.7847 C   0  0  0  0  0  0  0  0  0  0  0  0
   77.4426  150.3487   19.2874 N   0  0  0  0  0  0  0  0  0  0  0  0
   78.2609  149.4066   18.7065 C   0  0  0  0  0  0  0  0  0  0  0  0
   77.8914  148.5999   17.8615 O   0  0  0  0  0  0  0  0  0  0  0  0
   77.8897  151.0101   19.9156 H   0  0  0  0  0  0  0  0  0  0  0  0
   76.0865  150.5854   18.8641 C   0  0  0  0  0  0  0  0  0  0  0  0
   74.3506  150.6144   21.0491 S   0  0  0  0  0  0  0  0  0  0  0  0
   75.3953  151.3781   19.9208 C   0  0  0  0  0  0  0  0  0  0  0  0
   74.0501  152.1315   21.7901 C   0  0  0  0  0  0  0  0  0  0  0  0
   75.4509  152.7379   20.1836 C   0  0  0  0  0  0  0  0  0  0  0  0
   74.6756  153.1561   21.2548 N   0  0  0  0  0  0  0  0  0  0  0  0
   73.1342  152.2225   22.9584 C   0  0  0  0  0  0  0  0  0  0  0  0
   76.2517  153.7568   19.4536 C   0  0  0  0  0  0  0  0  0  0  0  0
 28 29  1  0
 28 30  1  0
 29 31  2  0
 29 27  1  0
 30 32  2  0
 30 33  1  0
 31 34  1  0
 27 23  1  0
 23 24  1  0
 24 25  2  0
 24  1  1  0
  1  2  2  0
  1  3  1  0
  2  4  1  0
  3  5  2  0
  4  6  2  0
  7  4  1  6
  7  8  1  0
  7  9  1  0
  8 10  1  0
  9 11  1  0
 10 12  1  0
 11 13  1  0
 13 14  2  0
 13 15  1  0
 15 16  1  0
 15 17  2  0
 16 18  1  0
 16 19  1  0
 17 20  1  0
 20 21  1  0
 21 22  1  0
 31 32  1  0
  5  6  1  0
 11 12  1  0
 18 20  2  0
 23 26  1  0
M  END
>  <ID>  (4) 
EDS01357518

>  <MMFF94_energy_kcal_mol>  (4) 
77.479

>  <minimizedAffinity>  (4) 
-8.64027

>  <CNNscore>  (4) 
0.3278943300

>  <CNNaffinity>  (4) 
6.0096468925

>  <CNN_VS>  (4) 
1.9705291986

>  <CNNaffinity_variance>  (4) 
0.6534456611

>  <Ligand>  (4) 
EDS01357518_ent1

>  <Pose>  (4) 
4

$$$$
EDS01357518_ent1
     RDKit          3D

 34 37  0  0  0  0  0  0  0  0999 V2000
   81.5627  147.1308   12.7557 C   0  0  0  0  0  0  0  0  0  0  0  0
   81.6870  148.4886   12.6905 N   0  0  0  0  0  0  0  0  0  0  0  0
   81.8712  146.3775   13.8777 C   0  0  0  0  0  0  0  0  0  0  0  0
   82.1536  149.1274   13.7931 C   0  0  0  0  0  0  0  0  0  0  0  0
   82.3333  147.0480   15.0028 C   0  0  0  0  0  0  0  0  0  0  0  0
   82.4742  148.4341   14.9632 C   0  0  0  0  0  0  0  0  0  0  0  0
   82.2937  150.6443   13.7503 C   0  0  1  0  0  0  0  0  0  0  0  0
   81.2312  151.2362   14.5351 O   0  0  0  0  0  0  0  0  0  0  0  0
   83.7070  151.1195   14.1582 C   0  0  0  0  0  0  0  0  0  0  0  0
   81.6498  152.3129   15.3783 C   0  0  0  0  0  0  0  0  0  0  0  0
   83.8064  152.5827   14.2006 N   0  0  0  0  0  0  0  0  0  0  0  0
   82.5985  153.2746   14.6574 C   0  0  0  0  0  0  0  0  0  0  0  0
   85.0748  153.1587   14.1422 C   0  0  0  0  0  0  0  0  0  0  0  0
   86.0807  152.4497   14.1460 O   0  0  0  0  0  0  0  0  0  0  0  0
   85.1754  154.6005   14.0778 C   0  0  0  0  0  0  0  0  0  0  0  0
   85.7097  155.2881   13.0134 N   0  0  0  0  0  0  0  0  0  0  0  0
   84.7272  155.5892   14.9375 C   0  0  0  0  0  0  0  0  0  0  0  0
   85.7070  156.6265   13.1732 N   0  0  0  0  0  0  0  0  0  0  0  0
   86.2795  154.7289   11.8080 C   0  0  0  0  0  0  0  0  0  0  0  0
   85.0846  156.8170   14.3391 C   0  0  0  0  0  0  0  0  0  0  0  0
   84.8389  158.1952   14.8510 C   0  0  0  0  0  0  0  0  0  0  0  0
   85.3676  159.2648   13.9077 C   0  0  0  0  0  0  0  0  0  0  0  0
   79.6968  146.4759   11.3717 N   0  0  0  0  0  0  0  0  0  0  0  0
   81.0659  146.4564   11.5121 C   0  0  0  0  0  0  0  0  0  0  0  0
   81.8343  145.9489   10.7037 O   0  0  0  0  0  0  0  0  0  0  0  0
   79.1780  146.9975   12.0722 H   0  0  0  0  0  0  0  0  0  0  0  0
   79.0182  146.0226   10.1850 C   0  0  0  0  0  0  0  0  0  0  0  0
   76.8039  146.6606    8.6106 S   0  0  0  0  0  0  0  0  0  0  0  0
   77.9182  146.9808    9.8770 C   0  0  0  0  0  0  0  0  0  0  0  0
   75.9967  148.1339    8.9554 C   0  0  0  0  0  0  0  0  0  0  0  0
   77.6013  148.1865   10.4829 C   0  0  0  0  0  0  0  0  0  0  0  0
   76.5006  148.8367    9.9452 N   0  0  0  0  0  0  0  0  0  0  0  0
   74.8098  148.5388    8.1557 C   0  0  0  0  0  0  0  0  0  0  0  0
   78.3030  148.8211   11.6304 C   0  0  0  0  0  0  0  0  0  0  0  0
 28 29  1  0
 28 30  1  0
 29 31  2  0
 29 27  1  0
 30 32  2  0
 30 33  1  0
 31 34  1  0
 27 23  1  0
 23 24  1  0
 24 25  2  0
 24  1  1  0
  1  2  2  0
  1  3  1  0
  2  4  1  0
  3  5  2  0
  4  6  2  0
  7  4  1  1
  7  8  1  0
  7  9  1  0
  8 10  1  0
  9 11  1  0
 10 12  1  0
 11 13  1  0
 13 14  2  0
 13 15  1  0
 15 16  1  0
 15 17  2  0
 16 18  1  0
 16 19  1  0
 17 20  1  0
 20 21  1  0
 21 22  1  0
 31 32  1  0
  5  6  1  0
 11 12  1  0
 18 20  2  0
 23 26  1  0
M  END
>  <ID>  (5) 
EDS01357518

>  <MMFF94_energy_kcal_mol>  (5) 
77.479

>  <minimizedAffinity>  (5) 
-8.54836

>  <CNNscore>  (5) 
0.2748624980

>  <CNNaffinity>  (5) 
6.2824845314

>  <CNN_VS>  (5) 
1.7268193960

>  <CNNaffinity_variance>  (5) 
0.2457500696

>  <Ligand>  (5) 
EDS01357518_ent1

>  <Pose>  (5) 
5

$$$$
