EDS01806218_ent2
     RDKit          3D

 34 39  0  0  0  0  0  0  0  0999 V2000
   84.1369  154.3386   14.4659 N   0  0  0  0  0  0  0  0  0  0  0  0
   82.8772  153.5135   14.2592 C   0  0  0  0  0  0  0  0  0  0  0  0
   85.2171  153.6392   15.2333 C   0  0  0  0  0  0  0  0  0  0  0  0
   83.1039  151.9803   14.3541 C   0  0  1  0  0  0  0  0  0  0  0  0
   85.4832  152.1728   14.7697 C   0  0  2  0  0  0  0  0  0  0  0  0
   84.4441  151.6914   13.8525 N   0  0  0  0  0  0  0  0  0  0  0  0
   82.9464  151.4572   15.7698 C   0  0  0  0  0  0  0  0  0  0  0  0
   85.4569  151.2339   15.9844 C   0  0  0  0  0  0  0  0  0  0  0  0
   84.6125  151.2618   12.5519 C   0  0  0  0  0  0  0  0  0  0  0  0
   81.7096  151.3297   16.3866 C   0  0  0  0  0  0  0  0  0  0  0  0
   84.0547  151.1324   16.5470 C   0  0  0  0  0  0  0  0  0  0  0  0
   83.6548  151.0181   11.8174 O   0  0  0  0  0  0  0  0  0  0  0  0
   86.0248  151.0611   12.0688 C   0  0  0  0  0  0  0  0  0  0  0  0
   81.6075  150.9496   17.6700 N   0  0  0  0  0  0  0  0  0  0  0  0
   83.9577  150.7239   17.8247 N   0  0  0  0  0  0  0  0  0  0  0  0
   82.7259  150.6507   18.3583 C   0  0  0  0  0  0  0  0  0  0  0  0
   84.7013  155.2216   13.1199 S   0  0  0  0  0  0  0  0  0  0  0  0
   83.6699  155.1877   12.1076 O   0  0  0  0  0  0  0  0  0  0  0  0
   86.0425  154.7649   12.8226 O   0  0  0  0  0  0  0  0  0  0  0  0
   84.8409  156.8569   13.7430 C   0  0  0  0  0  0  0  0  0  0  0  0
   85.2512  157.8814   12.9111 C   0  0  0  0  0  0  0  0  0  0  0  0
   84.5549  157.1333   15.0789 C   0  0  0  0  0  0  0  0  0  0  0  0
   85.3730  159.1643   13.3305 N   0  0  0  0  0  0  0  0  0  0  0  0
   84.6801  158.4428   15.5319 C   0  0  0  0  0  0  0  0  0  0  0  0
   85.0873  159.4144   14.6292 C   0  0  0  0  0  0  0  0  0  0  0  0
   82.5891  150.2038   19.7924 C   0  0  0  0  0  0  0  0  0  0  0  0
   81.5912  149.1284   20.1609 C   0  0  0  0  0  0  0  0  0  0  0  0
   83.0593  148.8281   20.2103 C   0  0  0  0  0  0  0  0  0  0  0  0
   80.5460  151.6492   15.6647 N   0  0  0  0  0  0  0  0  0  0  0  0
   80.7482  152.4067   15.0156 H   0  0  0  0  0  0  0  0  0  0  0  0
   79.8946  150.5517   14.9523 C   0  0  0  0  0  0  0  0  0  0  0  0
   78.4040  150.7262   14.9730 C   0  0  0  0  0  0  0  0  0  0  0  0
   77.5328  149.8440   15.8337 C   0  0  0  0  0  0  0  0  0  0  0  0
   77.5016  149.6986   14.3371 C   0  0  0  0  0  0  0  0  0  0  0  0
 17 18  2  0
 17 19  2  0
 17  1  1  0
 17 20  1  0
  1  2  1  0
  1  3  1  0
 20 21  2  0
 20 22  1  0
  4  2  1  1
  5  3  1  1
 21 23  1  0
 22 24  2  0
  4  6  1  0
  4  7  1  0
  5  8  1  0
 23 25  2  0
  6  9  1  0
  7 10  1  0
  7 11  2  0
  9 12  2  0
  9 13  1  0
 10 14  2  0
 10 29  1  0
 11 15  1  0
 14 16  1  0
 29 31  1  0
 16 26  1  0
 31 32  1  0
 26 27  1  0
 26 28  1  0
 32 33  1  0
 32 34  1  0
  5  6  1  0
 24 25  1  0
  8 11  1  0
 15 16  2  0
 27 28  1  0
 33 34  1  0
 29 30  1  0
M  END
>  <ID>  (1) 
EDS01806218

>  <MMFF94_energy_kcal_mol>  (1) 
-18.278

>  <minimizedAffinity>  (1) 
-9.08412

>  <CNNscore>  (1) 
0.7395398617

>  <CNNaffinity>  (1) 
7.4311842918

>  <CNN_VS>  (1) 
5.4956569672

>  <CNNaffinity_variance>  (1) 
0.0659416616

>  <Ligand>  (1) 
EDS01806218_ent2

>  <Pose>  (1) 
1

$$$$
EDS01806218_ent2
     RDKit          3D

 34 39  0  0  0  0  0  0  0  0999 V2000
   84.3725  152.8226   14.9448 N   0  0  0  0  0  0  0  0  0  0  0  0
   82.9325  152.3381   14.9896 C   0  0  0  0  0  0  0  0  0  0  0  0
   85.3441  151.9476   15.6762 C   0  0  0  0  0  0  0  0  0  0  0  0
   82.7865  150.8167   15.2638 C   0  0  1  0  0  0  0  0  0  0  0  0
   85.1741  150.4232   15.3871 C   0  0  2  0  0  0  0  0  0  0  0  0
   83.9307  150.1389   14.6619 N   0  0  0  0  0  0  0  0  0  0  0  0
   82.7050  150.4996   16.7456 C   0  0  0  0  0  0  0  0  0  0  0  0
   85.0882  149.6523   16.7122 C   0  0  0  0  0  0  0  0  0  0  0  0
   83.8047  149.5502   13.4201 C   0  0  0  0  0  0  0  0  0  0  0  0
   81.5738  150.7624   17.5054 C   0  0  0  0  0  0  0  0  0  0  0  0
   83.7971  149.9778   17.4333 C   0  0  0  0  0  0  0  0  0  0  0  0
   82.7234  149.4913   12.8341 O   0  0  0  0  0  0  0  0  0  0  0  0
   85.0423  148.9401   12.8167 C   0  0  0  0  0  0  0  0  0  0  0  0
   81.5621  150.5547   18.8316 N   0  0  0  0  0  0  0  0  0  0  0  0
   83.7825  149.7408   18.7572 N   0  0  0  0  0  0  0  0  0  0  0  0
   82.6577  150.0461   19.4272 C   0  0  0  0  0  0  0  0  0  0  0  0
   84.9425  153.3863   13.4389 S   0  0  0  0  0  0  0  0  0  0  0  0
   83.9954  152.9738   12.4277 O   0  0  0  0  0  0  0  0  0  0  0  0
   86.3402  153.0251   13.3322 O   0  0  0  0  0  0  0  0  0  0  0  0
   84.8738  155.1319   13.6121 C   0  0  0  0  0  0  0  0  0  0  0  0
   84.6883  155.9306   12.4996 C   0  0  0  0  0  0  0  0  0  0  0  0
   85.0198  155.7264   14.8644 C   0  0  0  0  0  0  0  0  0  0  0  0
   84.6209  157.2824   12.5685 N   0  0  0  0  0  0  0  0  0  0  0  0
   84.9607  157.1133   14.9566 C   0  0  0  0  0  0  0  0  0  0  0  0
   84.7607  157.8414   13.7928 C   0  0  0  0  0  0  0  0  0  0  0  0
   82.6174  149.7985   20.9146 C   0  0  0  0  0  0  0  0  0  0  0  0
   81.7438  148.6998   21.4783 C   0  0  0  0  0  0  0  0  0  0  0  0
   83.2351  148.5461   21.4960 C   0  0  0  0  0  0  0  0  0  0  0  0
   80.4351  151.2992   16.8789 N   0  0  0  0  0  0  0  0  0  0  0  0
   80.5598  151.2707   15.8691 H   0  0  0  0  0  0  0  0  0  0  0  0
   79.1492  150.7013   17.2327 C   0  0  0  0  0  0  0  0  0  0  0  0
   78.6100  149.9014   16.0828 C   0  0  0  0  0  0  0  0  0  0  0  0
   78.2931  150.5601   14.7623 C   0  0  0  0  0  0  0  0  0  0  0  0
   77.1774  150.0630   15.6398 C   0  0  0  0  0  0  0  0  0  0  0  0
 17 18  2  0
 17 19  2  0
 17  1  1  0
 17 20  1  0
  1  2  1  0
  1  3  1  0
 20 21  2  0
 20 22  1  0
  4  2  1  1
  5  3  1  1
 21 23  1  0
 22 24  2  0
  4  6  1  0
  4  7  1  0
  5  8  1  0
 23 25  2  0
  6  9  1  0
  7 10  1  0
  7 11  2  0
  9 12  2  0
  9 13  1  0
 10 14  2  0
 10 29  1  0
 11 15  1  0
 14 16  1  0
 29 31  1  0
 16 26  1  0
 31 32  1  0
 26 27  1  0
 26 28  1  0
 32 33  1  0
 32 34  1  0
  5  6  1  0
 24 25  1  0
  8 11  1  0
 15 16  2  0
 27 28  1  0
 33 34  1  0
 29 30  1  0
M  END
>  <ID>  (2) 
EDS01806218

>  <MMFF94_energy_kcal_mol>  (2) 
-18.278

>  <minimizedAffinity>  (2) 
-8.12365

>  <CNNscore>  (2) 
0.4453930855

>  <CNNaffinity>  (2) 
6.9363436699

>  <CNN_VS>  (2) 
3.0893995762

>  <CNNaffinity_variance>  (2) 
0.0497996174

>  <Ligand>  (2) 
EDS01806218_ent2

>  <Pose>  (2) 
2

$$$$
EDS01806218_ent2
     RDKit          3D

 34 39  0  0  0  0  0  0  0  0999 V2000
   84.8300  152.6250   13.1393 N   0  0  0  0  0  0  0  0  0  0  0  0
   86.3396  152.6355   13.3172 C   0  0  0  0  0  0  0  0  0  0  0  0
   84.2473  151.2717   12.8675 C   0  0  0  0  0  0  0  0  0  0  0  0
   86.9345  151.2664   13.7442 C   0  0  1  0  0  0  0  0  0  0  0  0
   84.7880  150.1440   13.8012 C   0  0  2  0  0  0  0  0  0  0  0  0
   85.9489  150.5883   14.5808 N   0  0  0  0  0  0  0  0  0  0  0  0
   87.3043  150.3985   12.5556 C   0  0  0  0  0  0  0  0  0  0  0  0
   85.2650  148.9557   12.9537 C   0  0  0  0  0  0  0  0  0  0  0  0
   86.0589  150.6459   15.9552 C   0  0  0  0  0  0  0  0  0  0  0  0
   88.4135  150.6519   11.7609 C   0  0  0  0  0  0  0  0  0  0  0  0
   86.5038  149.3281   12.1666 C   0  0  0  0  0  0  0  0  0  0  0  0
   87.0229  151.1745   16.5097 O   0  0  0  0  0  0  0  0  0  0  0  0
   84.9655  149.9976   16.7629 C   0  0  0  0  0  0  0  0  0  0  0  0
   88.6652  149.9213   10.6632 N   0  0  0  0  0  0  0  0  0  0  0  0
   86.7659  148.5743   11.0839 N   0  0  0  0  0  0  0  0  0  0  0  0
   87.8449  148.8997   10.3509 C   0  0  0  0  0  0  0  0  0  0  0  0
   83.9245  153.5632   14.2392 S   0  0  0  0  0  0  0  0  0  0  0  0
   84.4576  153.3270   15.5620 O   0  0  0  0  0  0  0  0  0  0  0  0
   82.5217  153.3417   13.9586 O   0  0  0  0  0  0  0  0  0  0  0  0
   84.2917  155.2110   13.7579 C   0  0  0  0  0  0  0  0  0  0  0  0
   84.0915  155.6105   12.4500 C   0  0  0  0  0  0  0  0  0  0  0  0
   84.7997  156.1229   14.6816 C   0  0  0  0  0  0  0  0  0  0  0  0
   84.3502  156.8688   12.0183 N   0  0  0  0  0  0  0  0  0  0  0  0
   85.0787  157.4183   14.2576 C   0  0  0  0  0  0  0  0  0  0  0  0
   84.8390  157.7412   12.9298 C   0  0  0  0  0  0  0  0  0  0  0  0
   88.1571  148.0762    9.1264 C   0  0  0  0  0  0  0  0  0  0  0  0
   87.1789  147.0266    8.6473 C   0  0  0  0  0  0  0  0  0  0  0  0
   87.3724  148.2811    7.8495 C   0  0  0  0  0  0  0  0  0  0  0  0
   89.2627  151.7237   12.0886 N   0  0  0  0  0  0  0  0  0  0  0  0
   90.2311  151.4135   12.0446 H   0  0  0  0  0  0  0  0  0  0  0  0
   89.1028  152.9489   11.3079 C   0  0  0  0  0  0  0  0  0  0  0  0
   88.8331  152.6206    9.8684 C   0  0  0  0  0  0  0  0  0  0  0  0
   89.9378  152.6757    8.8414 C   0  0  0  0  0  0  0  0  0  0  0  0
   88.8407  153.7041    8.8192 C   0  0  0  0  0  0  0  0  0  0  0  0
 17 18  2  0
 17 19  2  0
 17  1  1  0
 17 20  1  0
  1  2  1  0
  1  3  1  0
 20 21  2  0
 20 22  1  0
  4  2  1  6
  5  3  1  6
 21 23  1  0
 22 24  2  0
  4  6  1  0
  4  7  1  0
  5  8  1  0
 23 25  2  0
  6  9  1  0
  7 10  1  0
  7 11  2  0
  9 12  2  0
  9 13  1  0
 10 14  2  0
 10 29  1  0
 11 15  1  0
 14 16  1  0
 29 31  1  0
 16 26  1  0
 31 32  1  0
 26 27  1  0
 26 28  1  0
 32 33  1  0
 32 34  1  0
  5  6  1  0
 24 25  1  0
  8 11  1  0
 15 16  2  0
 27 28  1  0
 33 34  1  0
 29 30  1  0
M  END
>  <ID>  (3) 
EDS01806218

>  <MMFF94_energy_kcal_mol>  (3) 
-18.278

>  <minimizedAffinity>  (3) 
-7.19606

>  <CNNscore>  (3) 
0.3612717986

>  <CNNaffinity>  (3) 
6.6294593811

>  <CNN_VS>  (3) 
2.3950366974

>  <CNNaffinity_variance>  (3) 
0.1140490174

>  <Ligand>  (3) 
EDS01806218_ent2

>  <Pose>  (3) 
3

$$$$
EDS01806218_ent2
     RDKit          3D

 34 39  0  0  0  0  0  0  0  0999 V2000
   84.7273  152.7813   13.2018 N   0  0  0  0  0  0  0  0  0  0  0  0
   86.2312  152.7094   13.4112 C   0  0  0  0  0  0  0  0  0  0  0  0
   84.0794  151.4639   12.9026 C   0  0  0  0  0  0  0  0  0  0  0  0
   86.7432  151.3061   13.8349 C   0  0  1  0  0  0  0  0  0  0  0  0
   84.5393  150.2994   13.8344 C   0  0  2  0  0  0  0  0  0  0  0  0
   85.7053  150.6731   14.6429 N   0  0  0  0  0  0  0  0  0  0  0  0
   87.0915  150.4319   12.6444 C   0  0  0  0  0  0  0  0  0  0  0  0
   84.9704  149.0961   12.9835 C   0  0  0  0  0  0  0  0  0  0  0  0
   85.7887  150.7106   16.0199 C   0  0  0  0  0  0  0  0  0  0  0  0
   88.2294  150.6339   11.8758 C   0  0  0  0  0  0  0  0  0  0  0  0
   86.2438  149.4099   12.2266 C   0  0  0  0  0  0  0  0  0  0  0  0
   86.7674  151.1812   16.6004 O   0  0  0  0  0  0  0  0  0  0  0  0
   84.6454  150.1133   16.7972 C   0  0  0  0  0  0  0  0  0  0  0  0
   88.4653  149.9022   10.7753 N   0  0  0  0  0  0  0  0  0  0  0  0
   86.4885  148.6544   11.1411 N   0  0  0  0  0  0  0  0  0  0  0  0
   87.5987  148.9292   10.4344 C   0  0  0  0  0  0  0  0  0  0  0  0
   83.8496  153.7552   14.2933 S   0  0  0  0  0  0  0  0  0  0  0  0
   84.3857  153.5262   15.6162 O   0  0  0  0  0  0  0  0  0  0  0  0
   82.4406  153.5610   14.0242 O   0  0  0  0  0  0  0  0  0  0  0  0
   84.2503  155.3873   13.7859 C   0  0  0  0  0  0  0  0  0  0  0  0
   84.1072  155.7546   12.4612 C   0  0  0  0  0  0  0  0  0  0  0  0
   84.7278  156.3188   14.7063 C   0  0  0  0  0  0  0  0  0  0  0  0
   84.3941  156.9994   12.0088 N   0  0  0  0  0  0  0  0  0  0  0  0
   85.0350  157.6008   14.2615 C   0  0  0  0  0  0  0  0  0  0  0  0
   84.8526  157.8912   12.9172 C   0  0  0  0  0  0  0  0  0  0  0  0
   87.8928  148.1028    9.2074 C   0  0  0  0  0  0  0  0  0  0  0  0
   88.1744  148.7805    7.8848 C   0  0  0  0  0  0  0  0  0  0  0  0
   89.2845  148.0861    8.6150 C   0  0  0  0  0  0  0  0  0  0  0  0
   89.1272  151.6554   12.2333 N   0  0  0  0  0  0  0  0  0  0  0  0
   88.6044  152.4706   12.5467 H   0  0  0  0  0  0  0  0  0  0  0  0
   90.1470  151.3148   13.2234 C   0  0  0  0  0  0  0  0  0  0  0  0
   91.4547  151.0209   12.5476 C   0  0  0  0  0  0  0  0  0  0  0  0
   92.7145  150.8179   13.3537 C   0  0  0  0  0  0  0  0  0  0  0  0
   92.5517  152.0555   12.5148 C   0  0  0  0  0  0  0  0  0  0  0  0
 17 18  2  0
 17 19  2  0
 17  1  1  0
 17 20  1  0
  1  2  1  0
  1  3  1  0
 20 21  2  0
 20 22  1  0
  4  2  1  6
  5  3  1  6
 21 23  1  0
 22 24  2  0
  4  6  1  0
  4  7  1  0
  5  8  1  0
 23 25  2  0
  6  9  1  0
  7 10  1  0
  7 11  2  0
  9 12  2  0
  9 13  1  0
 10 14  2  0
 10 29  1  0
 11 15  1  0
 14 16  1  0
 29 31  1  0
 16 26  1  0
 31 32  1  0
 26 27  1  0
 26 28  1  0
 32 33  1  0
 32 34  1  0
  5  6  1  0
 24 25  1  0
  8 11  1  0
 15 16  2  0
 27 28  1  0
 33 34  1  0
 29 30  1  0
M  END
>  <ID>  (4) 
EDS01806218

>  <MMFF94_energy_kcal_mol>  (4) 
-18.278

>  <minimizedAffinity>  (4) 
-6.75001

>  <CNNscore>  (4) 
0.3406845629

>  <CNNaffinity>  (4) 
6.4571189880

>  <CNN_VS>  (4) 
2.1998407841

>  <CNNaffinity_variance>  (4) 
0.0299983937

>  <Ligand>  (4) 
EDS01806218_ent2

>  <Pose>  (4) 
4

$$$$
EDS01806218_ent2
     RDKit          3D

 34 39  0  0  0  0  0  0  0  0999 V2000
   85.7593  152.7907   13.9581 N   0  0  0  0  0  0  0  0  0  0  0  0
   86.3787  151.8931   15.0169 C   0  0  0  0  0  0  0  0  0  0  0  0
   85.8475  152.2544   12.5619 C   0  0  0  0  0  0  0  0  0  0  0  0
   86.4760  150.4003   14.6009 C   0  0  1  0  0  0  0  0  0  0  0  0
   85.4579  150.7488   12.4300 C   0  0  2  0  0  0  0  0  0  0  0  0
   85.3370  150.0978   13.7394 N   0  0  0  0  0  0  0  0  0  0  0  0
   87.7766  150.0805   13.8876 C   0  0  0  0  0  0  0  0  0  0  0  0
   86.5595  149.9944   11.6718 C   0  0  0  0  0  0  0  0  0  0  0  0
   84.2161  149.4926   14.2703 C   0  0  0  0  0  0  0  0  0  0  0  0
   88.9918  149.9921   14.5522 C   0  0  0  0  0  0  0  0  0  0  0  0
   87.8210  149.9171   12.5058 C   0  0  0  0  0  0  0  0  0  0  0  0
   84.1765  149.1063   15.4388 O   0  0  0  0  0  0  0  0  0  0  0  0
   83.0432  149.2830   13.3492 C   0  0  0  0  0  0  0  0  0  0  0  0
   90.1390  149.7970   13.8828 N   0  0  0  0  0  0  0  0  0  0  0  0
   88.9633  149.6933   11.8320 N   0  0  0  0  0  0  0  0  0  0  0  0
   90.1022  149.6469   12.5448 C   0  0  0  0  0  0  0  0  0  0  0  0
   84.2520  153.4933   14.3386 S   0  0  0  0  0  0  0  0  0  0  0  0
   84.0623  153.3807   15.7673 O   0  0  0  0  0  0  0  0  0  0  0  0
   83.2703  152.9578   13.4193 O   0  0  0  0  0  0  0  0  0  0  0  0
   84.4804  155.1830   13.9210 C   0  0  0  0  0  0  0  0  0  0  0  0
   84.2713  155.6091   12.6229 C   0  0  0  0  0  0  0  0  0  0  0  0
   84.8867  156.1031   14.8859 C   0  0  0  0  0  0  0  0  0  0  0  0
   84.4253  156.8997   12.2395 N   0  0  0  0  0  0  0  0  0  0  0  0
   85.0575  157.4322   14.5119 C   0  0  0  0  0  0  0  0  0  0  0  0
   84.8163  157.7793   13.1905 C   0  0  0  0  0  0  0  0  0  0  0  0
   91.3989  149.4059   11.8131 C   0  0  0  0  0  0  0  0  0  0  0  0
   91.5372  149.8057   10.3608 C   0  0  0  0  0  0  0  0  0  0  0  0
   92.2781  150.5710   11.4159 C   0  0  0  0  0  0  0  0  0  0  0  0
   89.0245  150.1559   15.9483 N   0  0  0  0  0  0  0  0  0  0  0  0
   88.9547  149.2451   16.3974 H   0  0  0  0  0  0  0  0  0  0  0  0
   90.1649  150.8880   16.4958 C   0  0  0  0  0  0  0  0  0  0  0  0
   90.1324  150.8612   17.9962 C   0  0  0  0  0  0  0  0  0  0  0  0
   90.5063  152.0821   18.8010 C   0  0  0  0  0  0  0  0  0  0  0  0
   91.4131  150.8823   18.7926 C   0  0  0  0  0  0  0  0  0  0  0  0
 17 18  2  0
 17 19  2  0
 17  1  1  0
 17 20  1  0
  1  2  1  0
  1  3  1  0
 20 21  2  0
 20 22  1  0
  4  2  1  6
  5  3  1  1
 21 23  1  0
 22 24  2  0
  4  6  1  0
  4  7  1  0
  5  8  1  0
 23 25  2  0
  6  9  1  0
  7 10  1  0
  7 11  2  0
  9 12  2  0
  9 13  1  0
 10 14  2  0
 10 29  1  0
 11 15  1  0
 14 16  1  0
 29 31  1  0
 16 26  1  0
 31 32  1  0
 26 27  1  0
 26 28  1  0
 32 33  1  0
 32 34  1  0
  5  6  1  0
 24 25  1  0
  8 11  1  0
 15 16  2  0
 27 28  1  0
 33 34  1  0
 29 30  1  0
M  END
>  <ID>  (5) 
EDS01806218

>  <MMFF94_energy_kcal_mol>  (5) 
-18.278

>  <minimizedAffinity>  (5) 
-6.95547

>  <CNNscore>  (5) 
0.3051366806

>  <CNNaffinity>  (5) 
6.6453928947

>  <CNN_VS>  (5) 
2.0277531147

>  <CNNaffinity_variance>  (5) 
0.0541801304

>  <Ligand>  (5) 
EDS01806218_ent2

>  <Pose>  (5) 
5

$$$$
