EDS01357518_ent2
     RDKit          3D

 34 37  0  0  0  0  0  0  0  0999 V2000
   80.8120  150.7869   15.8610 C   0  0  0  0  0  0  0  0  0  0  0  0
   81.8869  150.4190   15.1042 N   0  0  0  0  0  0  0  0  0  0  0  0
   80.9043  151.3721   17.1137 C   0  0  0  0  0  0  0  0  0  0  0  0
   83.1200  150.6449   15.6226 C   0  0  0  0  0  0  0  0  0  0  0  0
   82.1722  151.6001   17.6291 C   0  0  0  0  0  0  0  0  0  0  0  0
   83.2896  151.2359   16.8799 C   0  0  0  0  0  0  0  0  0  0  0  0
   84.3572  150.2547   14.8129 C   0  0  2  0  0  0  0  0  0  0  0  0
   85.6120  150.3924   15.5252 O   0  0  0  0  0  0  0  0  0  0  0  0
   84.4317  150.9090   13.4124 C   0  0  0  0  0  0  0  0  0  0  0  0
   86.1205  151.7346   15.5529 C   0  0  0  0  0  0  0  0  0  0  0  0
   84.9685  152.2692   13.4587 N   0  0  0  0  0  0  0  0  0  0  0  0
   86.2603  152.3286   14.1477 C   0  0  0  0  0  0  0  0  0  0  0  0
   84.0590  153.3313   13.4773 C   0  0  0  0  0  0  0  0  0  0  0  0
   82.8467  153.1283   13.5066 O   0  0  0  0  0  0  0  0  0  0  0  0
   84.5985  154.6691   13.4084 C   0  0  0  0  0  0  0  0  0  0  0  0
   85.6451  155.0526   12.6060 N   0  0  0  0  0  0  0  0  0  0  0  0
   84.2901  155.7979   14.1483 C   0  0  0  0  0  0  0  0  0  0  0  0
   85.9661  156.3586   12.7261 N   0  0  0  0  0  0  0  0  0  0  0  0
   86.3731  154.2262   11.6685 C   0  0  0  0  0  0  0  0  0  0  0  0
   85.1585  156.8104   13.6894 C   0  0  0  0  0  0  0  0  0  0  0  0
   85.2515  158.2218   14.1601 C   0  0  0  0  0  0  0  0  0  0  0  0
   84.5529  158.4375   15.4936 C   0  0  0  0  0  0  0  0  0  0  0  0
   78.5458  150.0332   16.1816 N   0  0  0  0  0  0  0  0  0  0  0  0
   79.4660  150.4980   15.2692 C   0  0  0  0  0  0  0  0  0  0  0  0
   79.2248  150.6879   14.0831 O   0  0  0  0  0  0  0  0  0  0  0  0
   78.8634  150.0046   17.1460 H   0  0  0  0  0  0  0  0  0  0  0  0
   77.1384  149.9436   15.8941 C   0  0  0  0  0  0  0  0  0  0  0  0
   77.0981  151.1412   18.4168 S   0  0  0  0  0  0  0  0  0  0  0  0
   76.3824  150.2296   17.1481 C   0  0  0  0  0  0  0  0  0  0  0  0
   75.6573  150.9869   19.3347 C   0  0  0  0  0  0  0  0  0  0  0  0
   75.0920  149.8699   17.5039 C   0  0  0  0  0  0  0  0  0  0  0  0
   74.6910  150.3097   18.7553 N   0  0  0  0  0  0  0  0  0  0  0  0
   75.5612  151.5890   20.6917 C   0  0  0  0  0  0  0  0  0  0  0  0
   74.1149  149.0974   16.6911 C   0  0  0  0  0  0  0  0  0  0  0  0
 28 29  1  0
 28 30  1  0
 29 31  2  0
 29 27  1  0
 30 32  2  0
 30 33  1  0
 31 34  1  0
 27 23  1  0
 23 24  1  0
 24 25  2  0
 24  1  1  0
  1  2  2  0
  1  3  1  0
  2  4  1  0
  3  5  2  0
  4  6  2  0
  7  4  1  1
  7  8  1  0
  7  9  1  0
  8 10  1  0
  9 11  1  0
 10 12  1  0
 11 13  1  0
 13 14  2  0
 13 15  1  0
 15 16  1  0
 15 17  2  0
 16 18  1  0
 16 19  1  0
 17 20  1  0
 20 21  1  0
 21 22  1  0
 31 32  1  0
  5  6  1  0
 11 12  1  0
 18 20  2  0
 23 26  1  0
M  END
>  <ID>  (1) 
EDS01357518

>  <MMFF94_energy_kcal_mol>  (1) 
73.675

>  <minimizedAffinity>  (1) 
-8.08976

>  <CNNscore>  (1) 
0.7691850066

>  <CNNaffinity>  (1) 
6.9793891907

>  <CNN_VS>  (1) 
5.3684415817

>  <CNNaffinity_variance>  (1) 
0.1855909377

>  <Ligand>  (1) 
EDS01357518_ent2

>  <Pose>  (1) 
1

$$$$
EDS01357518_ent2
     RDKit          3D

 34 37  0  0  0  0  0  0  0  0999 V2000
   80.6276  150.6171   15.7388 C   0  0  0  0  0  0  0  0  0  0  0  0
   81.8046  150.2422   15.1578 N   0  0  0  0  0  0  0  0  0  0  0  0
   80.5357  151.3651   16.9017 C   0  0  0  0  0  0  0  0  0  0  0  0
   82.9519  150.6321   15.7677 C   0  0  0  0  0  0  0  0  0  0  0  0
   81.7177  151.7594   17.5120 C   0  0  0  0  0  0  0  0  0  0  0  0
   82.9357  151.3927   16.9425 C   0  0  0  0  0  0  0  0  0  0  0  0
   84.2975  150.2416   15.1549 C   0  0  2  0  0  0  0  0  0  0  0  0
   85.4431  150.4907   16.0072 O   0  0  0  0  0  0  0  0  0  0  0  0
   84.5290  150.7928   13.7275 C   0  0  0  0  0  0  0  0  0  0  0  0
   85.8936  151.8538   15.9920 C   0  0  0  0  0  0  0  0  0  0  0  0
   85.0043  152.1765   13.7328 N   0  0  0  0  0  0  0  0  0  0  0  0
   86.1925  152.3477   14.5729 C   0  0  0  0  0  0  0  0  0  0  0  0
   84.0613  153.1931   13.5513 C   0  0  0  0  0  0  0  0  0  0  0  0
   82.8639  152.9359   13.4430 O   0  0  0  0  0  0  0  0  0  0  0  0
   84.5551  154.5459   13.4449 C   0  0  0  0  0  0  0  0  0  0  0  0
   85.6233  154.9327   12.6732 N   0  0  0  0  0  0  0  0  0  0  0  0
   84.1724  155.6940   14.1174 C   0  0  0  0  0  0  0  0  0  0  0  0
   85.8914  156.2540   12.7471 N   0  0  0  0  0  0  0  0  0  0  0  0
   86.4232  154.0936   11.8083 C   0  0  0  0  0  0  0  0  0  0  0  0
   85.0243  156.7173   13.6514 C   0  0  0  0  0  0  0  0  0  0  0  0
   85.0447  158.1508   14.0601 C   0  0  0  0  0  0  0  0  0  0  0  0
   84.7003  158.3417   15.5290 C   0  0  0  0  0  0  0  0  0  0  0  0
   79.6089  149.2236   14.0574 N   0  0  0  0  0  0  0  0  0  0  0  0
   79.3810  150.1464   15.0533 C   0  0  0  0  0  0  0  0  0  0  0  0
   78.2701  150.5446   15.3825 O   0  0  0  0  0  0  0  0  0  0  0  0
   80.5741  148.9252   13.9513 H   0  0  0  0  0  0  0  0  0  0  0  0
   78.5557  148.4499   13.4545 C   0  0  0  0  0  0  0  0  0  0  0  0
   80.5976  146.7846   12.5286 S   0  0  0  0  0  0  0  0  0  0  0  0
   79.1352  147.6640   12.3265 C   0  0  0  0  0  0  0  0  0  0  0  0
   80.4968  146.2512   10.9014 C   0  0  0  0  0  0  0  0  0  0  0  0
   78.6631  147.4917   11.0348 C   0  0  0  0  0  0  0  0  0  0  0  0
   79.4506  146.6820   10.2321 N   0  0  0  0  0  0  0  0  0  0  0  0
   81.5510  145.3697   10.3316 C   0  0  0  0  0  0  0  0  0  0  0  0
   77.4198  148.0575   10.4464 C   0  0  0  0  0  0  0  0  0  0  0  0
 28 29  1  0
 28 30  1  0
 29 31  2  0
 29 27  1  0
 30 32  2  0
 30 33  1  0
 31 34  1  0
 27 23  1  0
 23 24  1  0
 24 25  2  0
 24  1  1  0
  1  2  2  0
  1  3  1  0
  2  4  1  0
  3  5  2  0
  4  6  2  0
  7  4  1  1
  7  8  1  0
  7  9  1  0
  8 10  1  0
  9 11  1  0
 10 12  1  0
 11 13  1  0
 13 14  2  0
 13 15  1  0
 15 16  1  0
 15 17  2  0
 16 18  1  0
 16 19  1  0
 17 20  1  0
 20 21  1  0
 21 22  1  0
 31 32  1  0
  5  6  1  0
 11 12  1  0
 18 20  2  0
 23 26  1  0
M  END
>  <ID>  (2) 
EDS01357518

>  <MMFF94_energy_kcal_mol>  (2) 
73.675

>  <minimizedAffinity>  (2) 
-7.88118

>  <CNNscore>  (2) 
0.6062185764

>  <CNNaffinity>  (2) 
6.5475921631

>  <CNN_VS>  (2) 
3.9692718983

>  <CNNaffinity_variance>  (2) 
0.1388883442

>  <Ligand>  (2) 
EDS01357518_ent2

>  <Pose>  (2) 
2

$$$$
EDS01357518_ent2
     RDKit          3D

 34 37  0  0  0  0  0  0  0  0999 V2000
   80.4733  149.8938   14.3040 C   0  0  0  0  0  0  0  0  0  0  0  0
   81.8095  149.6424   14.1829 N   0  0  0  0  0  0  0  0  0  0  0  0
   79.9120  150.6564   15.3158 C   0  0  0  0  0  0  0  0  0  0  0  0
   82.6313  150.1781   15.1200 C   0  0  0  0  0  0  0  0  0  0  0  0
   80.7656  151.2007   16.2647 C   0  0  0  0  0  0  0  0  0  0  0  0
   82.1353  150.9623   16.1678 C   0  0  0  0  0  0  0  0  0  0  0  0
   84.1374  149.9297   15.0274 C   0  0  2  0  0  0  0  0  0  0  0  0
   84.8726  150.2232   16.2415 O   0  0  0  0  0  0  0  0  0  0  0  0
   84.8123  150.5737   13.7925 C   0  0  0  0  0  0  0  0  0  0  0  0
   85.1685  151.6167   16.4195 C   0  0  0  0  0  0  0  0  0  0  0  0
   85.1220  151.9886   13.9990 N   0  0  0  0  0  0  0  0  0  0  0  0
   85.9085  152.2085   15.2156 C   0  0  0  0  0  0  0  0  0  0  0  0
   84.2158  152.9349   13.5104 C   0  0  0  0  0  0  0  0  0  0  0  0
   83.1666  152.5893   12.9708 O   0  0  0  0  0  0  0  0  0  0  0  0
   84.5857  154.3267   13.6189 C   0  0  0  0  0  0  0  0  0  0  0  0
   85.5988  154.9265   12.9119 N   0  0  0  0  0  0  0  0  0  0  0  0
   84.1173  155.3137   14.4693 C   0  0  0  0  0  0  0  0  0  0  0  0
   85.7506  156.2380   13.1947 N   0  0  0  0  0  0  0  0  0  0  0  0
   86.4512  154.3117   11.9183 C   0  0  0  0  0  0  0  0  0  0  0  0
   84.8653  156.4710   14.1676 C   0  0  0  0  0  0  0  0  0  0  0  0
   84.7676  157.8172   14.8005 C   0  0  0  0  0  0  0  0  0  0  0  0
   85.2072  158.9329   13.8652 C   0  0  0  0  0  0  0  0  0  0  0  0
   78.7930  148.2559   13.7557 N   0  0  0  0  0  0  0  0  0  0  0  0
   79.5930  149.2644   13.2675 C   0  0  0  0  0  0  0  0  0  0  0  0
   79.5876  149.6455   12.1031 O   0  0  0  0  0  0  0  0  0  0  0  0
   78.8446  148.1048   14.7588 H   0  0  0  0  0  0  0  0  0  0  0  0
   77.6960  147.6992   13.0087 C   0  0  0  0  0  0  0  0  0  0  0  0
   76.1951  149.0017   14.9710 S   0  0  0  0  0  0  0  0  0  0  0  0
   76.4825  147.7085   13.8766 C   0  0  0  0  0  0  0  0  0  0  0  0
   74.7390  148.2471   15.4738 C   0  0  0  0  0  0  0  0  0  0  0  0
   75.4498  146.7880   13.9622 C   0  0  0  0  0  0  0  0  0  0  0  0
   74.4608  147.1087   14.8782 N   0  0  0  0  0  0  0  0  0  0  0  0
   73.8892  148.8740   16.5216 C   0  0  0  0  0  0  0  0  0  0  0  0
   75.2916  145.5349   13.1767 C   0  0  0  0  0  0  0  0  0  0  0  0
 28 29  1  0
 28 30  1  0
 29 31  2  0
 29 27  1  0
 30 32  2  0
 30 33  1  0
 31 34  1  0
 27 23  1  0
 23 24  1  0
 24 25  2  0
 24  1  1  0
  1  2  2  0
  1  3  1  0
  2  4  1  0
  3  5  2  0
  4  6  2  0
  7  4  1  1
  7  8  1  0
  7  9  1  0
  8 10  1  0
  9 11  1  0
 10 12  1  0
 11 13  1  0
 13 14  2  0
 13 15  1  0
 15 16  1  0
 15 17  2  0
 16 18  1  0
 16 19  1  0
 17 20  1  0
 20 21  1  0
 21 22  1  0
 31 32  1  0
  5  6  1  0
 11 12  1  0
 18 20  2  0
 23 26  1  0
M  END
>  <ID>  (3) 
EDS01357518

>  <MMFF94_energy_kcal_mol>  (3) 
73.675

>  <minimizedAffinity>  (3) 
-7.59076

>  <CNNscore>  (3) 
0.4214761853

>  <CNNaffinity>  (3) 
6.4330258369

>  <CNN_VS>  (3) 
2.7113671303

>  <CNNaffinity_variance>  (3) 
0.1190838218

>  <Ligand>  (3) 
EDS01357518_ent2

>  <Pose>  (3) 
3

$$$$
EDS01357518_ent2
     RDKit          3D

 34 37  0  0  0  0  0  0  0  0999 V2000
   87.7159  151.5245   12.3075 C   0  0  0  0  0  0  0  0  0  0  0  0
   89.0366  151.2402   12.5033 N   0  0  0  0  0  0  0  0  0  0  0  0
   86.6747  150.6934   12.6891 C   0  0  0  0  0  0  0  0  0  0  0  0
   89.3372  150.0650   13.1106 C   0  0  0  0  0  0  0  0  0  0  0  0
   86.9978  149.4966   13.3124 C   0  0  0  0  0  0  0  0  0  0  0  0
   88.3376  149.1782   13.5268 C   0  0  0  0  0  0  0  0  0  0  0  0
   90.8019  149.7010   13.3570 C   0  0  2  0  0  0  0  0  0  0  0  0
   91.0832  148.2794   13.3268 O   0  0  0  0  0  0  0  0  0  0  0  0
   91.4203  150.3693   14.6084 C   0  0  0  0  0  0  0  0  0  0  0  0
   90.7647  147.5976   14.5494 C   0  0  0  0  0  0  0  0  0  0  0  0
   91.0997  149.6508   15.8420 N   0  0  0  0  0  0  0  0  0  0  0  0
   91.4551  148.2316   15.7612 C   0  0  0  0  0  0  0  0  0  0  0  0
   90.0242  150.1124   16.6074 C   0  0  0  0  0  0  0  0  0  0  0  0
   89.3369  151.0594   16.2300 O   0  0  0  0  0  0  0  0  0  0  0  0
   89.7876  149.4672   17.8775 C   0  0  0  0  0  0  0  0  0  0  0  0
   90.3339  149.8649   19.0732 N   0  0  0  0  0  0  0  0  0  0  0  0
   89.0846  148.3130   18.1780 C   0  0  0  0  0  0  0  0  0  0  0  0
   89.9625  149.0948   20.1183 N   0  0  0  0  0  0  0  0  0  0  0  0
   91.2023  150.9989   19.3006 C   0  0  0  0  0  0  0  0  0  0  0  0
   89.2218  148.1279   19.5698 C   0  0  0  0  0  0  0  0  0  0  0  0
   88.6664  147.0273   20.4078 C   0  0  0  0  0  0  0  0  0  0  0  0
   87.9837  147.5418   21.6656 C   0  0  0  0  0  0  0  0  0  0  0  0
   86.3994  153.5390   12.1844 N   0  0  0  0  0  0  0  0  0  0  0  0
   87.4218  152.8177   11.6100 C   0  0  0  0  0  0  0  0  0  0  0  0
   88.0618  153.1877   10.6331 O   0  0  0  0  0  0  0  0  0  0  0  0
   86.0157  153.1474   13.0395 H   0  0  0  0  0  0  0  0  0  0  0  0
   86.1269  154.9112   11.8465 C   0  0  0  0  0  0  0  0  0  0  0  0
   85.4786  157.3218   13.0990 S   0  0  0  0  0  0  0  0  0  0  0  0
   85.6472  155.6119   13.0732 C   0  0  0  0  0  0  0  0  0  0  0  0
   84.9300  157.2390   14.7221 C   0  0  0  0  0  0  0  0  0  0  0  0
   85.2715  155.0885   14.3004 C   0  0  0  0  0  0  0  0  0  0  0  0
   84.8637  156.0293   15.2324 N   0  0  0  0  0  0  0  0  0  0  0  0
   84.5743  158.4804   15.4607 C   0  0  0  0  0  0  0  0  0  0  0  0
   85.2444  153.6559   14.6993 C   0  0  0  0  0  0  0  0  0  0  0  0
 28 29  1  0
 28 30  1  0
 29 31  2  0
 29 27  1  0
 30 32  2  0
 30 33  1  0
 31 34  1  0
 27 23  1  0
 23 24  1  0
 24 25  2  0
 24  1  1  0
  1  2  2  0
  1  3  1  0
  2  4  1  0
  3  5  2  0
  4  6  2  0
  7  4  1  1
  7  8  1  0
  7  9  1  0
  8 10  1  0
  9 11  1  0
 10 12  1  0
 11 13  1  0
 13 14  2  0
 13 15  1  0
 15 16  1  0
 15 17  2  0
 16 18  1  0
 16 19  1  0
 17 20  1  0
 20 21  1  0
 21 22  1  0
 31 32  1  0
  5  6  1  0
 11 12  1  0
 18 20  2  0
 23 26  1  0
M  END
>  <ID>  (4) 
EDS01357518

>  <MMFF94_energy_kcal_mol>  (4) 
73.675

>  <minimizedAffinity>  (4) 
-6.71319

>  <CNNscore>  (4) 
0.4002225697

>  <CNNaffinity>  (4) 
6.5831971169

>  <CNN_VS>  (4) 
2.6347441673

>  <CNNaffinity_variance>  (4) 
0.2480350882

>  <Ligand>  (4) 
EDS01357518_ent2

>  <Pose>  (4) 
4

$$$$
EDS01357518_ent2
     RDKit          3D

 34 37  0  0  0  0  0  0  0  0999 V2000
   80.7346  150.2187   15.1750 C   0  0  0  0  0  0  0  0  0  0  0  0
   82.0421  150.2025   15.5672 N   0  0  0  0  0  0  0  0  0  0  0  0
   80.2767  149.7167   13.9673 C   0  0  0  0  0  0  0  0  0  0  0  0
   82.9423  149.6582   14.7107 C   0  0  0  0  0  0  0  0  0  0  0  0
   81.2088  149.1600   13.1034 C   0  0  0  0  0  0  0  0  0  0  0  0
   82.5515  149.1282   13.4757 C   0  0  0  0  0  0  0  0  0  0  0  0
   84.4193  149.6119   15.1042 C   0  0  2  0  0  0  0  0  0  0  0  0
   84.6957  150.0425   16.4604 O   0  0  0  0  0  0  0  0  0  0  0  0
   85.3677  150.2991   14.0926 C   0  0  0  0  0  0  0  0  0  0  0  0
   84.7548  151.4683   16.6171 C   0  0  0  0  0  0  0  0  0  0  0  0
   85.4284  151.7490   14.2790 N   0  0  0  0  0  0  0  0  0  0  0  0
   85.7609  152.1136   15.6587 C   0  0  0  0  0  0  0  0  0  0  0  0
   84.6172  152.5477   13.4669 C   0  0  0  0  0  0  0  0  0  0  0  0
   83.8391  152.0459   12.6579 O   0  0  0  0  0  0  0  0  0  0  0  0
   84.7680  153.9794   13.5804 C   0  0  0  0  0  0  0  0  0  0  0  0
   85.6658  154.7329   12.8646 N   0  0  0  0  0  0  0  0  0  0  0  0
   84.1641  154.8774   14.4439 C   0  0  0  0  0  0  0  0  0  0  0  0
   85.6161  156.0506   13.1549 N   0  0  0  0  0  0  0  0  0  0  0  0
   86.5894  154.2629   11.8556 C   0  0  0  0  0  0  0  0  0  0  0  0
   84.7191  156.1384   14.1408 C   0  0  0  0  0  0  0  0  0  0  0  0
   84.4224  157.4498   14.7846 C   0  0  0  0  0  0  0  0  0  0  0  0
   85.0460  158.6186   14.0376 C   0  0  0  0  0  0  0  0  0  0  0  0
   78.4530  150.5562   15.8730 N   0  0  0  0  0  0  0  0  0  0  0  0
   79.7722  150.8514   16.1336 C   0  0  0  0  0  0  0  0  0  0  0  0
   80.1510  151.5456   17.0694 O   0  0  0  0  0  0  0  0  0  0  0  0
   78.2943  149.9005   15.1136 H   0  0  0  0  0  0  0  0  0  0  0  0
   77.3922  150.8344   16.8049 C   0  0  0  0  0  0  0  0  0  0  0  0
   76.2515  148.9851   15.0502 S   0  0  0  0  0  0  0  0  0  0  0  0
   76.2034  150.0181   16.4226 C   0  0  0  0  0  0  0  0  0  0  0  0
   74.6350  148.5030   15.3616 C   0  0  0  0  0  0  0  0  0  0  0  0
   74.9614  149.9263   17.0310 C   0  0  0  0  0  0  0  0  0  0  0  0
   74.0758  149.0569   16.4145 N   0  0  0  0  0  0  0  0  0  0  0  0
   73.9545  147.5287   14.4668 C   0  0  0  0  0  0  0  0  0  0  0  0
   74.5035  150.6333   18.2569 C   0  0  0  0  0  0  0  0  0  0  0  0
 28 29  1  0
 28 30  1  0
 29 31  2  0
 29 27  1  0
 30 32  2  0
 30 33  1  0
 31 34  1  0
 27 23  1  0
 23 24  1  0
 24 25  2  0
 24  1  1  0
  1  2  2  0
  1  3  1  0
  2  4  1  0
  3  5  2  0
  4  6  2  0
  7  4  1  6
  7  8  1  0
  7  9  1  0
  8 10  1  0
  9 11  1  0
 10 12  1  0
 11 13  1  0
 13 14  2  0
 13 15  1  0
 15 16  1  0
 15 17  2  0
 16 18  1  0
 16 19  1  0
 17 20  1  0
 20 21  1  0
 21 22  1  0
 31 32  1  0
  5  6  1  0
 11 12  1  0
 18 20  2  0
 23 26  1  0
M  END
>  <ID>  (5) 
EDS01357518

>  <MMFF94_energy_kcal_mol>  (5) 
73.675

>  <minimizedAffinity>  (5) 
-7.66458

>  <CNNscore>  (5) 
0.3984459043

>  <CNNaffinity>  (5) 
6.3707280159

>  <CNN_VS>  (5) 
2.5383903980

>  <CNNaffinity_variance>  (5) 
0.1219834089

>  <Ligand>  (5) 
EDS01357518_ent2

>  <Pose>  (5) 
5

$$$$
