EDS01889984
     RDKit          3D

 34 38  0  0  0  0  0  0  0  0999 V2000
   87.5480  152.5568   11.9120 C   0  0  0  0  0  0  0  0  0  0  0  0
   86.8783  153.6915   12.2675 N   0  0  0  0  0  0  0  0  0  0  0  0
   87.0783  151.3398   12.4148 C   0  0  0  0  0  0  0  0  0  0  0  0
   85.8079  153.6492   13.0883 C   0  0  0  0  0  0  0  0  0  0  0  0
   85.9758  151.4087   13.2481 C   0  0  0  0  0  0  0  0  0  0  0  0
   87.4301  149.9663   12.3035 C   0  0  0  0  0  0  0  0  0  0  0  0
   85.3173  152.5165   13.6146 N   0  0  0  0  0  0  0  0  0  0  0  0
   85.6655  150.1318   13.6408 N   0  0  0  0  0  0  0  0  0  0  0  0
   86.5411  149.2431   13.0718 C   0  0  0  0  0  0  0  0  0  0  0  0
   84.5736  149.7920   14.5216 C   0  0  0  0  0  0  0  0  0  0  0  0
   85.2033  154.8508   13.4374 N   0  0  0  0  0  0  0  0  0  0  0  0
   84.0141  155.2456   12.6800 C   0  0  0  0  0  0  0  0  0  0  0  0
   85.3036  155.2503   14.8340 C   0  0  0  0  0  0  0  0  0  0  0  0
   84.1675  156.6304   12.0393 C   0  0  0  0  0  0  0  0  0  0  0  0
   84.8598  156.6963   15.0515 C   0  0  0  0  0  0  0  0  0  0  0  0
   83.7604  156.8662   10.8979 O   0  0  0  0  0  0  0  0  0  0  0  0
   84.6550  157.6817   12.7702 N   0  0  0  0  0  0  0  0  0  0  0  0
   85.4345  157.6245   13.9922 C   0  0  0  0  0  0  0  0  0  0  0  0
   84.7513  158.5144   12.2017 H   0  0  0  0  0  0  0  0  0  0  0  0
   91.4127  150.2655    8.5993 C   0  0  0  0  0  0  0  0  0  0  0  0
   92.6004  150.5911    8.6277 O   0  0  0  0  0  0  0  0  0  0  0  0
   90.4824  150.8463    9.4655 N   0  0  0  0  0  0  0  0  0  0  0  0
   89.0254  150.7957    9.2916 C   0  0  0  0  0  0  0  0  0  0  0  0
   90.9996  151.7264   10.5065 C   0  0  0  0  0  0  0  0  0  0  0  0
   88.3975  152.1634    9.5510 C   0  0  0  0  0  0  0  0  0  0  0  0
   89.9605  152.0295   11.5753 C   0  0  0  0  0  0  0  0  0  0  0  0
   88.7172  152.6936   10.9624 C   0  0  0  0  0  0  0  0  0  0  0  0
   90.2363  146.9999    6.6521 S   0  0  0  0  0  0  0  0  0  0  0  0
   90.1334  148.3664    5.6290 C   0  0  0  0  0  0  0  0  0  0  0  0
   90.7909  147.9552    7.9523 C   0  0  0  0  0  0  0  0  0  0  0  0
   90.5276  149.5278    6.2623 C   0  0  0  0  0  0  0  0  0  0  0  0
   90.9486  149.2893    7.6152 C   0  0  0  0  0  0  0  0  0  0  0  0
   90.5081  150.7771    5.7252 O   0  0  0  0  0  0  0  0  0  0  0  0
   89.2203  151.3559    5.5543 C   0  0  0  0  0  0  0  0  0  0  0  0
 28 29  1  0
 28 30  1  0
 29 31  2  0
 30 32  2  0
 31 33  1  0
 32 20  1  0
 33 34  1  0
 20 21  2  0
 20 22  1  0
 22 23  1  0
 22 24  1  0
 23 25  1  0
 24 26  1  0
 25 27  1  0
 27  1  1  0
  1  2  2  0
  1  3  1  0
  2  4  1  0
  3  5  2  0
  3  6  1  0
  4  7  2  0
  4 11  1  0
  5  8  1  0
  6  9  2  0
 11 12  1  0
 11 13  1  0
  8 10  1  0
 12 14  1  0
 13 15  1  0
 14 16  2  0
 14 17  1  0
 15 18  1  0
 31 32  1  0
 26 27  1  0
  5  7  1  0
  8  9  1  0
 17 18  1  0
 17 19  1  0
M  END
>  <ID>  (1) 
EDS01889984

>  <MMFF94_energy_kcal_mol>  (1) 
-27.711

>  <minimizedAffinity>  (1) 
-6.62817

>  <CNNscore>  (1) 
0.4954573512

>  <CNNaffinity>  (1) 
6.9895324707

>  <CNN_VS>  (1) 
3.4630153179

>  <CNNaffinity_variance>  (1) 
0.6185101867

>  <Ligand>  (1) 
EDS01889984

>  <Pose>  (1) 
1

$$$$
EDS01889984
     RDKit          3D

 34 38  0  0  0  0  0  0  0  0999 V2000
   79.7819  150.6162   15.8698 C   0  0  0  0  0  0  0  0  0  0  0  0
   78.5313  150.5914   16.4156 N   0  0  0  0  0  0  0  0  0  0  0  0
   80.0228  149.8024   14.7587 C   0  0  0  0  0  0  0  0  0  0  0  0
   77.5601  149.7996   15.9145 C   0  0  0  0  0  0  0  0  0  0  0  0
   78.9597  149.0294   14.3266 C   0  0  0  0  0  0  0  0  0  0  0  0
   81.1155  149.5295   13.8903 C   0  0  0  0  0  0  0  0  0  0  0  0
   77.7318  148.9866   14.8608 N   0  0  0  0  0  0  0  0  0  0  0  0
   79.3814  148.3037   13.2419 N   0  0  0  0  0  0  0  0  0  0  0  0
   80.6911  148.5995   12.9636 C   0  0  0  0  0  0  0  0  0  0  0  0
   78.5545  147.3727   12.5120 C   0  0  0  0  0  0  0  0  0  0  0  0
   76.3241  149.7989   16.5496 N   0  0  0  0  0  0  0  0  0  0  0  0
   75.9763  150.9835   17.3368 C   0  0  0  0  0  0  0  0  0  0  0  0
   75.2542  149.0597   15.8945 C   0  0  0  0  0  0  0  0  0  0  0  0
   75.6329  150.6341   18.7899 C   0  0  0  0  0  0  0  0  0  0  0  0
   74.0357  148.8882   16.8006 C   0  0  0  0  0  0  0  0  0  0  0  0
   76.0110  151.3356   19.7328 O   0  0  0  0  0  0  0  0  0  0  0  0
   74.7879  149.5930   19.0710 N   0  0  0  0  0  0  0  0  0  0  0  0
   74.4377  148.4796   18.2096 C   0  0  0  0  0  0  0  0  0  0  0  0
   74.6991  149.4477   20.0694 H   0  0  0  0  0  0  0  0  0  0  0  0
   84.8505  152.9548   15.8576 C   0  0  0  0  0  0  0  0  0  0  0  0
   85.5532  153.0405   16.8657 O   0  0  0  0  0  0  0  0  0  0  0  0
   83.5975  152.3372   15.8994 N   0  0  0  0  0  0  0  0  0  0  0  0
   82.5541  152.4815   14.8767 C   0  0  0  0  0  0  0  0  0  0  0  0
   83.2296  151.6590   17.1365 C   0  0  0  0  0  0  0  0  0  0  0  0
   81.1869  152.7029   15.5202 C   0  0  0  0  0  0  0  0  0  0  0  0
   82.0179  150.7561   16.9617 C   0  0  0  0  0  0  0  0  0  0  0  0
   80.7995  151.5571   16.4753 C   0  0  0  0  0  0  0  0  0  0  0  0
   86.2578  153.6559   12.2013 S   0  0  0  0  0  0  0  0  0  0  0  0
   85.7592  155.1193   12.9326 C   0  0  0  0  0  0  0  0  0  0  0  0
   85.7897  152.7552   13.5726 C   0  0  0  0  0  0  0  0  0  0  0  0
   85.2576  154.9270   14.2041 C   0  0  0  0  0  0  0  0  0  0  0  0
   85.3050  153.5468   14.6006 C   0  0  0  0  0  0  0  0  0  0  0  0
   84.7393  155.8898   15.0127 O   0  0  0  0  0  0  0  0  0  0  0  0
   84.2629  157.0577   14.3556 C   0  0  0  0  0  0  0  0  0  0  0  0
 28 29  1  0
 28 30  1  0
 29 31  2  0
 30 32  2  0
 31 33  1  0
 32 20  1  0
 33 34  1  0
 20 21  2  0
 20 22  1  0
 22 23  1  0
 22 24  1  0
 23 25  1  0
 24 26  1  0
 25 27  1  0
 27  1  1  0
  1  2  2  0
  1  3  1  0
  2  4  1  0
  3  5  2  0
  3  6  1  0
  4  7  2  0
  4 11  1  0
  5  8  1  0
  6  9  2  0
 11 12  1  0
 11 13  1  0
  8 10  1  0
 12 14  1  0
 13 15  1  0
 14 16  2  0
 14 17  1  0
 15 18  1  0
 31 32  1  0
 26 27  1  0
  5  7  1  0
  8  9  1  0
 17 18  1  0
 17 19  1  0
M  END
>  <ID>  (2) 
EDS01889984

>  <MMFF94_energy_kcal_mol>  (2) 
-27.711

>  <minimizedAffinity>  (2) 
-7.20252

>  <CNNscore>  (2) 
0.2549655139

>  <CNNaffinity>  (2) 
5.8825163841

>  <CNN_VS>  (2) 
1.4998388290

>  <CNNaffinity_variance>  (2) 
0.8944489956

>  <Ligand>  (2) 
EDS01889984

>  <Pose>  (2) 
2

$$$$
EDS01889984
     RDKit          3D

 34 38  0  0  0  0  0  0  0  0999 V2000
   78.4762  150.0228   17.1890 C   0  0  0  0  0  0  0  0  0  0  0  0
   77.3907  150.6153   17.7661 N   0  0  0  0  0  0  0  0  0  0  0  0
   79.3009  149.2418   18.0042 C   0  0  0  0  0  0  0  0  0  0  0  0
   77.1250  150.4691   19.0811 C   0  0  0  0  0  0  0  0  0  0  0  0
   78.9394  149.1592   19.3373 C   0  0  0  0  0  0  0  0  0  0  0  0
   80.4754  148.4563   17.8425 C   0  0  0  0  0  0  0  0  0  0  0  0
   77.8842  149.7457   19.9183 N   0  0  0  0  0  0  0  0  0  0  0  0
   79.8572  148.3627   19.9730 N   0  0  0  0  0  0  0  0  0  0  0  0
   80.7970  147.9260   19.0750 C   0  0  0  0  0  0  0  0  0  0  0  0
   79.8222  148.0406   21.3796 C   0  0  0  0  0  0  0  0  0  0  0  0
   76.0240  151.1365   19.6042 N   0  0  0  0  0  0  0  0  0  0  0  0
   75.3920  152.1498   18.7570 C   0  0  0  0  0  0  0  0  0  0  0  0
   75.1907  150.3902   20.5363 C   0  0  0  0  0  0  0  0  0  0  0  0
   75.3243  153.5195   19.4433 C   0  0  0  0  0  0  0  0  0  0  0  0
   74.1879  151.2896   21.2578 C   0  0  0  0  0  0  0  0  0  0  0  0
   75.5468  154.5659   18.8270 O   0  0  0  0  0  0  0  0  0  0  0  0
   74.8921  153.6246   20.7391 N   0  0  0  0  0  0  0  0  0  0  0  0
   74.8367  152.5775   21.7416 C   0  0  0  0  0  0  0  0  0  0  0  0
   74.9536  154.5787   21.0734 H   0  0  0  0  0  0  0  0  0  0  0  0
   78.2752  148.0663   11.9648 C   0  0  0  0  0  0  0  0  0  0  0  0
   79.2005  148.1974   11.1623 O   0  0  0  0  0  0  0  0  0  0  0  0
   78.3779  148.5486   13.2725 N   0  0  0  0  0  0  0  0  0  0  0  0
   77.2455  148.7559   14.1838 C   0  0  0  0  0  0  0  0  0  0  0  0
   79.6755  149.0630   13.6934 C   0  0  0  0  0  0  0  0  0  0  0  0
   77.3654  150.0961   14.9062 C   0  0  0  0  0  0  0  0  0  0  0  0
   79.7629  149.2455   15.2011 C   0  0  0  0  0  0  0  0  0  0  0  0
   78.6796  150.2138   15.7026 C   0  0  0  0  0  0  0  0  0  0  0  0
   75.1028  145.7133   11.4753 S   0  0  0  0  0  0  0  0  0  0  0  0
   74.9927  147.0746   10.4459 C   0  0  0  0  0  0  0  0  0  0  0  0
   76.5828  146.2626   12.1226 C   0  0  0  0  0  0  0  0  0  0  0  0
   76.0708  147.9256   10.5829 C   0  0  0  0  0  0  0  0  0  0  0  0
   77.0258  147.4381   11.5393 C   0  0  0  0  0  0  0  0  0  0  0  0
   76.2406  149.1105    9.9374 O   0  0  0  0  0  0  0  0  0  0  0  0
   75.2426  149.4406    8.9794 C   0  0  0  0  0  0  0  0  0  0  0  0
 28 29  1  0
 28 30  1  0
 29 31  2  0
 30 32  2  0
 31 33  1  0
 32 20  1  0
 33 34  1  0
 20 21  2  0
 20 22  1  0
 22 23  1  0
 22 24  1  0
 23 25  1  0
 24 26  1  0
 25 27  1  0
 27  1  1  0
  1  2  2  0
  1  3  1  0
  2  4  1  0
  3  5  2  0
  3  6  1  0
  4  7  2  0
  4 11  1  0
  5  8  1  0
  6  9  2  0
 11 12  1  0
 11 13  1  0
  8 10  1  0
 12 14  1  0
 13 15  1  0
 14 16  2  0
 14 17  1  0
 15 18  1  0
 31 32  1  0
 26 27  1  0
  5  7  1  0
  8  9  1  0
 17 18  1  0
 17 19  1  0
M  END
>  <ID>  (3) 
EDS01889984

>  <MMFF94_energy_kcal_mol>  (3) 
-27.711

>  <minimizedAffinity>  (3) 
-6.43502

>  <CNNscore>  (3) 
0.2370906621

>  <CNNaffinity>  (3) 
5.1394476891

>  <CNN_VS>  (3) 
1.2185150385

>  <CNNaffinity_variance>  (3) 
0.5708372593

>  <Ligand>  (3) 
EDS01889984

>  <Pose>  (3) 
3

$$$$
EDS01889984
     RDKit          3D

 34 38  0  0  0  0  0  0  0  0999 V2000
   78.3717  150.2325   15.7581 C   0  0  0  0  0  0  0  0  0  0  0  0
   77.7815  150.6162   16.9272 N   0  0  0  0  0  0  0  0  0  0  0  0
   77.6168  149.4585   14.8718 C   0  0  0  0  0  0  0  0  0  0  0  0
   76.5179  150.2517   17.2306 C   0  0  0  0  0  0  0  0  0  0  0  0
   76.3339  149.1396   15.2804 C   0  0  0  0  0  0  0  0  0  0  0  0
   77.8020  148.8731   13.5889 C   0  0  0  0  0  0  0  0  0  0  0  0
   75.7474  149.4993   16.4301 N   0  0  0  0  0  0  0  0  0  0  0  0
   75.7548  148.3824   14.2945 N   0  0  0  0  0  0  0  0  0  0  0  0
   76.6362  148.2138   13.2576 C   0  0  0  0  0  0  0  0  0  0  0  0
   74.4139  147.8517   14.3551 C   0  0  0  0  0  0  0  0  0  0  0  0
   75.9999  150.6471   18.4579 N   0  0  0  0  0  0  0  0  0  0  0  0
   75.6349  152.0573   18.6065 C   0  0  0  0  0  0  0  0  0  0  0  0
   75.2392  149.6496   19.1971 C   0  0  0  0  0  0  0  0  0  0  0  0
   76.3477  152.7192   19.7920 C   0  0  0  0  0  0  0  0  0  0  0  0
   74.9601  150.0882   20.6341 C   0  0  0  0  0  0  0  0  0  0  0  0
   76.7991  153.8660   19.7198 O   0  0  0  0  0  0  0  0  0  0  0  0
   76.3936  152.0934   21.0100 N   0  0  0  0  0  0  0  0  0  0  0  0
   76.1973  150.6835   21.2889 C   0  0  0  0  0  0  0  0  0  0  0  0
   76.9421  152.6223   21.6772 H   0  0  0  0  0  0  0  0  0  0  0  0
   83.7500  150.5941   17.2083 C   0  0  0  0  0  0  0  0  0  0  0  0
   84.3832  151.6504   17.1824 O   0  0  0  0  0  0  0  0  0  0  0  0
   82.3967  150.5532   16.8622 N   0  0  0  0  0  0  0  0  0  0  0  0
   81.6505  149.3337   16.5278 C   0  0  0  0  0  0  0  0  0  0  0  0
   81.7293  151.8284   16.6292 C   0  0  0  0  0  0  0  0  0  0  0  0
   80.7744  149.5512   15.2960 C   0  0  0  0  0  0  0  0  0  0  0  0
   80.2150  151.6889   16.5903 C   0  0  0  0  0  0  0  0  0  0  0  0
   79.7797  150.7129   15.4856 C   0  0  0  0  0  0  0  0  0  0  0  0
   86.0049  147.3162   17.3146 S   0  0  0  0  0  0  0  0  0  0  0  0
   85.1424  147.4873   18.7815 C   0  0  0  0  0  0  0  0  0  0  0  0
   85.3344  148.7582   16.6964 C   0  0  0  0  0  0  0  0  0  0  0  0
   84.3473  148.6155   18.7950 C   0  0  0  0  0  0  0  0  0  0  0  0
   84.4272  149.3477   17.5613 C   0  0  0  0  0  0  0  0  0  0  0  0
   83.5860  149.0441   19.8372 O   0  0  0  0  0  0  0  0  0  0  0  0
   84.0348  148.6573   21.1301 C   0  0  0  0  0  0  0  0  0  0  0  0
 28 29  1  0
 28 30  1  0
 29 31  2  0
 30 32  2  0
 31 33  1  0
 32 20  1  0
 33 34  1  0
 20 21  2  0
 20 22  1  0
 22 23  1  0
 22 24  1  0
 23 25  1  0
 24 26  1  0
 25 27  1  0
 27  1  1  0
  1  2  2  0
  1  3  1  0
  2  4  1  0
  3  5  2  0
  3  6  1  0
  4  7  2  0
  4 11  1  0
  5  8  1  0
  6  9  2  0
 11 12  1  0
 11 13  1  0
  8 10  1  0
 12 14  1  0
 13 15  1  0
 14 16  2  0
 14 17  1  0
 15 18  1  0
 31 32  1  0
 26 27  1  0
  5  7  1  0
  8  9  1  0
 17 18  1  0
 17 19  1  0
M  END
>  <ID>  (4) 
EDS01889984

>  <MMFF94_energy_kcal_mol>  (4) 
-27.711

>  <minimizedAffinity>  (4) 
-6.32545

>  <CNNscore>  (4) 
0.2317606360

>  <CNNaffinity>  (4) 
5.1800613403

>  <CNN_VS>  (4) 
1.2005343437

>  <CNNaffinity_variance>  (4) 
0.4435619414

>  <Ligand>  (4) 
EDS01889984

>  <Pose>  (4) 
4

$$$$
EDS01889984
     RDKit          3D

 34 38  0  0  0  0  0  0  0  0999 V2000
   83.8133  151.8946   16.5326 C   0  0  0  0  0  0  0  0  0  0  0  0
   83.8319  152.9827   15.7092 N   0  0  0  0  0  0  0  0  0  0  0  0
   84.8673  150.9820   16.4283 C   0  0  0  0  0  0  0  0  0  0  0  0
   84.8226  153.1698   14.8121 C   0  0  0  0  0  0  0  0  0  0  0  0
   85.8297  151.2675   15.4760 C   0  0  0  0  0  0  0  0  0  0  0  0
   85.2582  149.7715   17.0645 C   0  0  0  0  0  0  0  0  0  0  0  0
   85.8530  152.3249   14.6535 N   0  0  0  0  0  0  0  0  0  0  0  0
   86.7705  150.2705   15.5174 N   0  0  0  0  0  0  0  0  0  0  0  0
   86.4367  149.3540   16.4811 C   0  0  0  0  0  0  0  0  0  0  0  0
   87.9349  150.2121   14.6663 C   0  0  0  0  0  0  0  0  0  0  0  0
   84.7509  154.2808   13.9804 N   0  0  0  0  0  0  0  0  0  0  0  0
   85.0078  154.0666   12.5550 C   0  0  0  0  0  0  0  0  0  0  0  0
   83.8173  155.3282   14.3698 C   0  0  0  0  0  0  0  0  0  0  0  0
   86.1387  154.9587   12.0289 C   0  0  0  0  0  0  0  0  0  0  0  0
   84.0179  156.6076   13.5585 C   0  0  0  0  0  0  0  0  0  0  0  0
   86.9824  154.5355   11.2331 O   0  0  0  0  0  0  0  0  0  0  0  0
   86.1690  156.2932   12.3376 N   0  0  0  0  0  0  0  0  0  0  0  0
   85.4908  156.9648   13.4299 C   0  0  0  0  0  0  0  0  0  0  0  0
   86.9996  156.7397   11.9678 H   0  0  0  0  0  0  0  0  0  0  0  0
   80.1386  148.8082   19.3841 C   0  0  0  0  0  0  0  0  0  0  0  0
   78.9441  149.0962   19.4715 O   0  0  0  0  0  0  0  0  0  0  0  0
   81.0197  149.5950   18.6372 N   0  0  0  0  0  0  0  0  0  0  0  0
   82.4834  149.5506   18.7434 C   0  0  0  0  0  0  0  0  0  0  0  0
   80.4412  150.6690   17.8387 C   0  0  0  0  0  0  0  0  0  0  0  0
   83.0708  150.9599   18.7744 C   0  0  0  0  0  0  0  0  0  0  0  0
   81.4286  151.2335   16.8285 C   0  0  0  0  0  0  0  0  0  0  0  0
   82.6818  151.7814   17.5298 C   0  0  0  0  0  0  0  0  0  0  0  0
   81.3501  145.1994   20.5453 S   0  0  0  0  0  0  0  0  0  0  0  0
   81.6684  146.3510   21.7690 C   0  0  0  0  0  0  0  0  0  0  0  0
   80.6934  146.3966   19.5225 C   0  0  0  0  0  0  0  0  0  0  0  0
   81.2691  147.6227   21.4103 C   0  0  0  0  0  0  0  0  0  0  0  0
   80.6637  147.6517   20.1076 C   0  0  0  0  0  0  0  0  0  0  0  0
   81.4352  148.7511   22.1510 O   0  0  0  0  0  0  0  0  0  0  0  0
   82.7778  149.0759   22.4893 C   0  0  0  0  0  0  0  0  0  0  0  0
 28 29  1  0
 28 30  1  0
 29 31  2  0
 30 32  2  0
 31 33  1  0
 32 20  1  0
 33 34  1  0
 20 21  2  0
 20 22  1  0
 22 23  1  0
 22 24  1  0
 23 25  1  0
 24 26  1  0
 25 27  1  0
 27  1  1  0
  1  2  2  0
  1  3  1  0
  2  4  1  0
  3  5  2  0
  3  6  1  0
  4  7  2  0
  4 11  1  0
  5  8  1  0
  6  9  2  0
 11 12  1  0
 11 13  1  0
  8 10  1  0
 12 14  1  0
 13 15  1  0
 14 16  2  0
 14 17  1  0
 15 18  1  0
 31 32  1  0
 26 27  1  0
  5  7  1  0
  8  9  1  0
 17 18  1  0
 17 19  1  0
M  END
>  <ID>  (5) 
EDS01889984

>  <MMFF94_energy_kcal_mol>  (5) 
-27.711

>  <minimizedAffinity>  (5) 
-7.18463

>  <CNNscore>  (5) 
0.2198036462

>  <CNNaffinity>  (5) 
5.9916644096

>  <CNN_VS>  (5) 
1.3169896603

>  <CNNaffinity_variance>  (5) 
0.8239611983

>  <Ligand>  (5) 
EDS01889984

>  <Pose>  (5) 
5

$$$$
