102EDL248
OCL MolfileCreator  2D

  0  0  0  0  0  0              0 V3000
M  V30 BEGIN CTAB
M  V30 COUNTS 20 23 0 0 0
M  V30 BEGIN ATOM
M  V30 1 O 0.0 0.0 0.0 0
M  V30 2 C 1.4514 0.3894 0.0 0
M  V30 3 N 1.652 1.8762 0.0 0
M  V30 4 C 2.36 -0.8024 0.0 0
M  V30 5 C 2.8438 2.7848 0.0 0
M  V30 6 C 0.354 2.6196 0.0 0
M  V30 7 C 3.8468 -1.003 0.0 0
M  V30 8 C 4.3307 2.5842 0.0 0
M  V30 9 C -0.944 1.8644 0.0 0
M  V30 10 N 5.0387 -0.0944 0.0 0
M  V30 11 C 5.2393 1.3924 0.0 0
M  V30 12 C 4.9089 3.9649 0.0 0
M  V30 13 C -2.4426 1.8644 0.0 0
M  V30 14 C -1.6992 0.5664 0.0 0
M  V30 15 C 6.7261 1.593 0.0 0
M  V30 16 C 6.3957 4.1655 0.0 0
M  V30 17 C 7.3043 2.9736 0.0 0
M  V30 18 O 7.2453 5.4045 0.0 0
M  V30 19 O 8.7204 3.4692 0.0 0
M  V30 20 C 8.685 4.9797 0.0 0
M  V30 END ATOM
M  V30 BEGIN BOND
M  V30 1 2 1 2
M  V30 2 1 2 3
M  V30 3 1 2 4
M  V30 4 1 3 5
M  V30 5 1 3 6
M  V30 6 1 4 7
M  V30 7 1 5 8
M  V30 8 1 6 9
M  V30 9 1 7 10
M  V30 10 2 8 11
M  V30 11 1 8 12
M  V30 12 1 9 13
M  V30 13 1 9 14
M  V30 14 1 11 15
M  V30 15 2 12 16
M  V30 16 2 15 17
M  V30 17 1 16 18
M  V30 18 1 17 19
M  V30 19 1 18 20
M  V30 20 1 10 11
M  V30 21 1 13 14
M  V30 22 1 16 17
M  V30 23 1 19 20
M  V30 END BOND
M  V30 END CTAB
M  END
>  <ED>
102EDL248

$$$$
056EDL307
OCL MolfileCreator  2D

  0  0  0  0  0  0              0 V3000
M  V30 BEGIN CTAB
M  V30 COUNTS 24 27 0 0 0
M  V30 BEGIN ATOM
M  V30 1 O 0.0 0.0 0.0 0
M  V30 2 C -1.3015 -0.7567 0.0 0
M  V30 3 O -1.3015 -2.255 0.0 0
M  V30 4 N -2.6031 -0.0151 0.0 0
M  V30 5 C 0.0 -3.0117 0.0 0
M  V30 6 C -2.6031 1.9069 0.0 0 CFG=2
M  V30 7 C -3.8441 -0.7415 0.0 0
M  V30 8 C 0.0 -4.51 0.0 0
M  V30 9 C -2.6031 3.3447 0.0 0
M  V30 10 C -3.8441 1.1804 0.0 0
M  V30 11 C -5.0851 -0.0151 0.0 0 CFG=1
M  V30 12 C -1.3015 -5.2667 0.0 0
M  V30 13 C 1.3015 -5.2667 0.0 0
M  V30 14 C -3.8441 4.0711 0.0 0
M  V30 15 C -1.3621 4.0711 0.0 0
M  V30 16 C -5.0851 1.9069 0.0 0 CFG=2
M  V30 17 O -6.3262 -0.7415 0.0 0
M  V30 18 C -1.3015 -6.7651 0.0 0
M  V30 19 C 1.3015 -6.7651 0.0 0
M  V30 20 N -3.8441 5.5089 0.0 0
M  V30 21 C -5.0851 3.3447 0.0 0
M  V30 22 C -1.3621 5.5089 0.0 0
M  V30 23 C 0.0 -7.5218 0.0 0
M  V30 24 C -2.6031 6.2354 0.0 0
M  V30 END ATOM
M  V30 BEGIN BOND
M  V30 1 2 1 2
M  V30 2 1 2 3
M  V30 3 1 2 4
M  V30 4 1 3 5
M  V30 5 1 6 4 CFG=1
M  V30 6 1 4 7
M  V30 7 1 5 8
M  V30 8 1 6 9
M  V30 9 1 6 10
M  V30 10 1 7 11
M  V30 11 2 8 12
M  V30 12 1 8 13
M  V30 13 2 9 14
M  V30 14 1 9 15
M  V30 15 1 10 16
M  V30 16 1 11 17 CFG=3
M  V30 17 1 12 18
M  V30 18 2 13 19
M  V30 19 1 14 20
M  V30 20 1 14 21
M  V30 21 2 15 22
M  V30 22 2 18 23
M  V30 23 2 20 24
M  V30 24 1 16 11 CFG=3
M  V30 25 1 16 21
M  V30 26 1 19 23
M  V30 27 1 22 24
M  V30 END BOND
M  V30 BEGIN COLLECTION
M  V30 MDLV30/STERAC1 ATOMS=(1 6)
M  V30 MDLV30/STERAC2 ATOMS=(1 11)
M  V30 MDLV30/STERAC3 ATOMS=(1 16)
M  V30 END COLLECTION
M  V30 END CTAB
M  END
>  <ED>
056EDL307

$$$$
587EDL247
OCL MolfileCreator  2D

  0  0  0  0  0  0              0 V3000
M  V30 BEGIN CTAB
M  V30 COUNTS 20 21 0 0 0
M  V30 BEGIN ATOM
M  V30 1 O 0.0 0.0 0.0 0
M  V30 2 C 1.3009 -0.745 0.0 0
M  V30 3 O 2.6018 0.0118 0.0 0
M  V30 4 N 1.3009 -2.247 0.0 0
M  V30 5 C 2.6018 1.5137 0.0 0
M  V30 6 C -0.0473 -2.8975 0.0 0
M  V30 7 C 2.6491 -2.8975 0.0 0
M  V30 8 C 1.0998 1.5137 0.0 0
M  V30 9 C 2.6018 3.0157 0.0 0
M  V30 10 C 4.1038 1.5137 0.0 0
M  V30 11 C -0.3784 -4.3639 0.0 0 CFG=2
M  V30 12 C 2.9802 -4.3639 0.0 0
M  V30 13 N 0.5558 -5.5348 0.0 0
M  V30 14 C -1.8449 -4.6951 0.0 0
M  V30 15 C 2.0459 -5.5348 0.0 0
M  V30 16 N -2.862 -3.5952 0.0 0
M  V30 17 C -2.2825 -6.1261 0.0 0
M  V30 18 C -4.3285 -3.9264 0.0 0
M  V30 19 C -3.749 -6.4572 0.0 0
M  V30 20 C -4.7661 -5.3574 0.0 0
M  V30 END ATOM
M  V30 BEGIN BOND
M  V30 1 2 1 2
M  V30 2 1 2 3
M  V30 3 1 2 4
M  V30 4 1 3 5
M  V30 5 1 4 6
M  V30 6 1 4 7
M  V30 7 1 5 8
M  V30 8 1 5 9
M  V30 9 1 5 10
M  V30 10 1 6 11
M  V30 11 1 7 12
M  V30 12 1 11 13
M  V30 13 1 11 14 CFG=3
M  V30 14 1 12 15
M  V30 15 2 14 16
M  V30 16 1 14 17
M  V30 17 1 16 18
M  V30 18 2 17 19
M  V30 19 2 18 20
M  V30 20 1 13 15
M  V30 21 1 19 20
M  V30 END BOND
M  V30 BEGIN COLLECTION
M  V30 MDLV30/STERAC1 ATOMS=(1 11)
M  V30 END COLLECTION
M  V30 END CTAB
M  END
>  <ED>
587EDL247

$$$$
ED091205
OCL MolfileCreator  2D

  0  0  0  0  0  0              0 V3000
M  V30 BEGIN CTAB
M  V30 COUNTS 26 30 0 0 0
M  V30 BEGIN ATOM
M  V30 1 O 0.0 0.0 0.0 0
M  V30 2 C 0.1534 1.4877 0.0 0
M  V30 3 N -1.0626 2.3733 0.0 0
M  V30 4 C 1.5231 2.1017 0.0 0
M  V30 5 C -2.4914 1.9128 0.0 0
M  V30 6 C -1.0626 3.8729 0.0 0
M  V30 7 C 2.7393 1.2161 0.0 0
M  V30 8 C 1.6766 3.5895 0.0 0
M  V30 9 C -3.3769 3.129 0.0 0 CFG=1
M  V30 10 C -2.4914 4.3334 0.0 0 CFG=2
M  V30 11 O 2.5858 -0.2715 0.0 0
M  V30 12 C 4.109 1.8301 0.0 0
M  V30 13 C 3.0463 4.2035 0.0 0
M  V30 14 O -4.8057 3.5895 0.0 0
M  V30 15 C -3.3769 5.5495 0.0 0
M  V30 16 C 3.802 -1.1571 0.0 0
M  V30 17 O 5.3252 0.9446 0.0 0
M  V30 18 C 4.2625 3.3179 0.0 0
M  V30 19 N -4.8057 5.089 0.0 0
M  V30 20 N -2.9164 6.9783 0.0 0
M  V30 21 C 5.1717 -0.5431 0.0 0
M  V30 22 C -3.9201 8.0882 0.0 0
M  V30 23 C -1.4523 7.2853 0.0 0
M  V30 24 C -3.4596 9.5169 0.0 0
M  V30 25 C -0.9918 8.714 0.0 0
M  V30 26 O -1.9954 9.8239 0.0 0
M  V30 END ATOM
M  V30 BEGIN BOND
M  V30 1 2 1 2
M  V30 2 1 2 3
M  V30 3 1 2 4
M  V30 4 1 3 5
M  V30 5 1 3 6
M  V30 6 2 4 7
M  V30 7 1 4 8
M  V30 8 1 5 9
M  V30 9 1 10 6 CFG=3
M  V30 10 1 7 11
M  V30 11 1 7 12
M  V30 12 2 8 13
M  V30 13 1 9 14 CFG=3
M  V30 14 1 10 15
M  V30 15 1 11 16
M  V30 16 1 12 17
M  V30 17 2 12 18
M  V30 18 1 14 19
M  V30 19 1 15 20
M  V30 20 1 16 21
M  V30 21 1 20 22
M  V30 22 1 20 23
M  V30 23 1 22 24
M  V30 24 1 23 25
M  V30 25 1 24 26
M  V30 26 1 9 10
M  V30 27 1 13 18
M  V30 28 2 15 19
M  V30 29 1 17 21
M  V30 30 1 25 26
M  V30 END BOND
M  V30 BEGIN COLLECTION
M  V30 MDLV30/STERAC1 ATOMS=(2 9 10)
M  V30 END COLLECTION
M  V30 END CTAB
M  END
>  <ED>
ED091205

$$$$
ED205141
OCL MolfileCreator  2D

  0  0  0  0  0  0              0 V3000
M  V30 BEGIN CTAB
M  V30 COUNTS 33 38 0 0 0
M  V30 BEGIN ATOM
M  V30 1 F 0.0 0.0 0.0 0
M  V30 2 C -1.3008 0.7518 0.0 0
M  V30 3 C -2.6017 0.0 0.0 0
M  V30 4 C -1.3008 2.2556 0.0 0
M  V30 5 C -3.9026 0.7518 0.0 0
M  V30 6 C -2.6017 -1.5037 0.0 0
M  V30 7 N -2.6017 3.0075 0.0 0
M  V30 8 C -3.9026 2.2556 0.0 0
M  V30 9 N -1.265 -2.2914 0.0 0
M  V30 10 C -1.265 -3.8071 0.0 0 CFG=2
M  V30 11 C 0.0477 -1.5395 0.0 0
M  V30 12 C -1.2411 -5.287 0.0 0
M  V30 13 C 0.0477 -4.559 0.0 0
M  V30 14 C 1.3605 -2.2914 0.0 0 CFG=2
M  V30 15 C 0.0477 -6.015 0.0 0
M  V30 16 C 1.3605 -3.8071 0.0 0 CFG=1
M  V30 17 C 2.6733 -1.5395 0.0 0
M  V30 18 C 0.3461 -7.4591 0.0 0
M  V30 19 C 1.3366 -5.287 0.0 0
M  V30 20 C 3.9861 -2.2914 0.0 0
M  V30 21 C 1.814 -7.6262 0.0 0
M  V30 22 C -0.5251 -8.6525 0.0 0
M  V30 23 N 2.4227 -6.2775 0.0 0
M  V30 24 O 3.9861 -3.8071 0.0 0
M  V30 25 N 5.2989 -1.5395 0.0 0
M  V30 26 C 2.4107 -8.9748 0.0 0
M  V30 27 C 0.0716 -10.0011 0.0 0
M  V30 28 C 6.6117 -2.2914 0.0 0
M  V30 29 C 5.2989 -0.0238 0.0 0
M  V30 30 C 1.5395 -10.1682 0.0 0
M  V30 31 C 7.9245 -1.5395 0.0 0
M  V30 32 C 6.6117 0.728 0.0 0
M  V30 33 O 7.9245 -0.0238 0.0 0
M  V30 END ATOM
M  V30 BEGIN BOND
M  V30 1 1 1 2
M  V30 2 2 2 3
M  V30 3 1 2 4
M  V30 4 1 3 5
M  V30 5 1 3 6
M  V30 6 2 4 7
M  V30 7 2 5 8
M  V30 8 1 6 9
M  V30 9 1 9 10
M  V30 10 1 9 11
M  V30 11 1 10 12 CFG=1
M  V30 12 1 10 13
M  V30 13 1 11 14
M  V30 14 1 12 15
M  V30 15 1 13 16
M  V30 16 1 14 17 CFG=1
M  V30 17 1 15 18
M  V30 18 2 15 19
M  V30 19 1 17 20
M  V30 20 2 18 21
M  V30 21 1 18 22
M  V30 22 1 19 23
M  V30 23 2 20 24
M  V30 24 1 20 25
M  V30 25 1 21 26
M  V30 26 2 22 27
M  V30 27 1 25 28
M  V30 28 1 25 29
M  V30 29 2 26 30
M  V30 30 1 28 31
M  V30 31 1 29 32
M  V30 32 1 31 33
M  V30 33 1 7 8
M  V30 34 1 14 16
M  V30 35 1 16 19 CFG=1
M  V30 36 1 21 23
M  V30 37 1 27 30
M  V30 38 1 32 33
M  V30 END BOND
M  V30 BEGIN COLLECTION
M  V30 MDLV30/STERAC1 ATOMS=(3 10 14 16)
M  V30 END COLLECTION
M  V30 END CTAB
M  END
>  <ED>
ED205141

$$$$
ED636906
OCL MolfileCreator  2D

  0  0  0  0  0  0              0 V3000
M  V30 BEGIN CTAB
M  V30 COUNTS 35 40 0 0 0
M  V30 BEGIN ATOM
M  V30 1 O 0.0 0.0 0.0 0
M  V30 2 C 1.5006 0.0 0.0 0
M  V30 3 N 2.1505 1.347 0.0 0
M  V30 4 C 2.1505 -1.347 0.0 0 CFG=2
M  V30 5 C 3.6158 1.6779 0.0 0
M  V30 6 C 3.6158 -1.6779 0.0 0 CFG=2
M  V30 7 C 1.3825 -2.635 0.0 0
M  V30 8 C 4.7856 0.7444 0.0 0
M  V30 9 C 4.7856 -0.7444 0.0 0
M  V30 10 C 3.7458 -3.1668 0.0 0
M  V30 11 N 2.3751 -3.7694 0.0 0
M  V30 12 C 6.0854 1.5006 0.0 0
M  V30 13 C 6.0854 -1.5006 0.0 0
M  V30 14 C 2.0442 -5.2347 0.0 0
M  V30 15 C 7.3853 0.7444 0.0 0
M  V30 16 C 7.3853 -0.7444 0.0 0
M  V30 17 O 3.1431 -6.2509 0.0 0
M  V30 18 C 0.6144 -5.6719 0.0 0
M  V30 19 C 8.6851 1.5006 0.0 0
M  V30 20 C 0.2835 -7.1371 0.0 0
M  V30 21 C -0.4844 -4.6556 0.0 0
M  V30 22 C 9.9849 0.7444 0.0 0
M  V30 23 C 8.6851 3.0013 0.0 0
M  V30 24 N 1.1461 -8.366 0.0 0
M  V30 25 C -1.1461 -7.5743 0.0 0
M  V30 26 C -1.9142 -5.0929 0.0 0
M  V30 27 C 11.2847 1.5006 0.0 0
M  V30 28 C 9.9849 3.7576 0.0 0
M  V30 29 C 0.2481 -9.5713 0.0 0
M  V30 30 C -2.2451 -6.5581 0.0 0
M  V30 31 C -1.1698 -9.075 0.0 0
M  V30 32 C 11.2847 3.0013 0.0 0
M  V30 33 C 12.5845 0.7444 0.0 0
M  V30 34 O 12.5845 3.7576 0.0 0
M  V30 35 C 12.5845 5.2583 0.0 0
M  V30 END ATOM
M  V30 BEGIN BOND
M  V30 1 2 1 2
M  V30 2 1 2 3
M  V30 3 1 4 2 CFG=3
M  V30 4 1 3 5
M  V30 5 1 4 6
M  V30 6 1 4 7
M  V30 7 1 5 8
M  V30 8 1 6 9 CFG=3
M  V30 9 1 6 10
M  V30 10 1 7 11
M  V30 11 1 8 12
M  V30 12 1 9 13
M  V30 13 1 11 14
M  V30 14 2 12 15
M  V30 15 2 13 16
M  V30 16 2 14 17
M  V30 17 1 14 18
M  V30 18 1 15 19
M  V30 19 2 18 20
M  V30 20 1 18 21
M  V30 21 2 19 22
M  V30 22 1 19 23
M  V30 23 1 20 24
M  V30 24 1 20 25
M  V30 25 2 21 26
M  V30 26 1 22 27
M  V30 27 2 23 28
M  V30 28 1 24 29
M  V30 29 2 25 30
M  V30 30 1 25 31
M  V30 31 2 27 32
M  V30 32 1 27 33
M  V30 33 1 32 34
M  V30 34 1 34 35
M  V30 35 2 8 9
M  V30 36 1 10 11
M  V30 37 1 15 16
M  V30 38 1 26 30
M  V30 39 1 28 32
M  V30 40 2 29 31
M  V30 END BOND
M  V30 BEGIN COLLECTION
M  V30 MDLV30/STERAC1 ATOMS=(2 4 6)
M  V30 END COLLECTION
M  V30 END CTAB
M  END
>  <ED>
ED636906

$$$$
ED249356
OCL MolfileCreator  2D

  0  0  0  0  0  0              0 V3000
M  V30 BEGIN CTAB
M  V30 COUNTS 30 34 0 0 0
M  V30 BEGIN ATOM
M  V30 1 Cl 0.0 0.0 0.0 0
M  V30 2 C 1.2988 0.7557 0.0 0
M  V30 3 C 2.5977 0.0 0.0 0
M  V30 4 C 1.2988 2.2553 0.0 0
M  V30 5 C 3.8966 0.7557 0.0 0
M  V30 6 C 2.5977 3.011 0.0 0
M  V30 7 N 5.1955 0.0 0.0 0
M  V30 8 C 3.8966 2.2553 0.0 0
M  V30 9 C 6.4944 0.7557 0.0 0
M  V30 10 C 5.1955 -1.4996 0.0 0
M  V30 11 C 5.1955 3.011 0.0 0 CFG=1
M  V30 12 O 7.7933 0.0 0.0 0
M  V30 13 N 6.4944 2.2553 0.0 0
M  V30 14 C 5.1955 4.5107 0.0 0
M  V30 15 C 7.7933 3.011 0.0 0
M  V30 16 C 6.4944 5.2546 0.0 0 CFG=1
M  V30 17 C 7.7933 4.5107 0.0 0
M  V30 18 N 6.4944 6.7542 0.0 0
M  V30 19 C 5.1955 7.4981 0.0 0
M  V30 20 C 7.7933 7.4981 0.0 0
M  V30 21 C 4.4398 8.797 0.0 0
M  V30 22 C 3.6959 7.4981 0.0 0
M  V30 23 C 9.0922 6.7542 0.0 0
M  V30 24 C 10.3911 7.4981 0.0 0
M  V30 25 C 9.0922 5.2546 0.0 0
M  V30 26 N 11.69 6.7542 0.0 0
M  V30 27 C 10.3911 4.5107 0.0 0
M  V30 28 C 11.69 5.2546 0.0 0
M  V30 29 O 10.3911 3.011 0.0 0
M  V30 30 C 9.0922 2.2553 0.0 0
M  V30 END ATOM
M  V30 BEGIN BOND
M  V30 1 1 1 2
M  V30 2 2 2 3
M  V30 3 1 2 4
M  V30 4 1 3 5
M  V30 5 2 4 6
M  V30 6 1 5 7
M  V30 7 2 5 8
M  V30 8 1 7 9
M  V30 9 1 7 10
M  V30 10 1 8 11
M  V30 11 2 9 12
M  V30 12 1 9 13
M  V30 13 1 11 14
M  V30 14 1 13 15
M  V30 15 1 14 16
M  V30 16 1 15 17
M  V30 17 1 16 18 CFG=3
M  V30 18 1 18 19
M  V30 19 1 18 20
M  V30 20 1 19 21
M  V30 21 1 19 22
M  V30 22 1 20 23
M  V30 23 2 23 24
M  V30 24 1 23 25
M  V30 25 1 24 26
M  V30 26 2 25 27
M  V30 27 2 26 28
M  V30 28 1 27 29
M  V30 29 1 29 30
M  V30 30 1 6 8
M  V30 31 1 11 13 CFG=3
M  V30 32 1 16 17
M  V30 33 1 21 22
M  V30 34 1 27 28
M  V30 END BOND
M  V30 BEGIN COLLECTION
M  V30 MDLV30/STERAC1 ATOMS=(2 11 16)
M  V30 END COLLECTION
M  V30 END CTAB
M  END
>  <ED>
ED249356

$$$$
ED005228
OCL MolfileCreator  2D

  0  0  0  0  0  0              0 V3000
M  V30 BEGIN CTAB
M  V30 COUNTS 30 34 0 0 0
M  V30 BEGIN ATOM
M  V30 1 S 0.0 0.0 0.0 0
M  V30 2 C 1.1706 0.9341 0.0 0
M  V30 3 C 0.532 -1.407 0.0 0
M  V30 4 C 2.4239 0.1182 0.0 0
M  V30 5 C 1.0996 2.4358 0.0 0
M  V30 6 N 2.0337 -1.3361 0.0 0
M  V30 7 C -0.2956 -2.6604 0.0 0
M  V30 8 C 3.831 0.6503 0.0 0
M  V30 9 N -0.201 3.0979 0.0 0
M  V30 10 C -1.6317 2.6368 0.0 0
M  V30 11 C -0.6621 4.5287 0.0 0
M  V30 12 C -2.0929 4.0675 0.0 0
M  V30 13 N -2.0929 5.5692 0.0 0
M  V30 14 C -3.3935 3.3226 0.0 0
M  V30 15 C -3.3935 6.3141 0.0 0
M  V30 16 C -0.7922 6.3259 0.0 0
M  V30 17 C -4.6942 4.0675 0.0 0
M  V30 18 O -3.3935 7.8158 0.0 0
M  V30 19 C -4.6942 5.5692 0.0 0
M  V30 20 C 0.5084 5.5692 0.0 0
M  V30 21 C -0.7922 7.8276 0.0 0
M  V30 22 C -5.9949 3.3226 0.0 0
M  V30 23 C -5.9949 6.3141 0.0 0
M  V30 24 C 1.8091 6.3259 0.0 0
M  V30 25 C 0.5084 8.5726 0.0 0
M  V30 26 C -7.2955 4.0675 0.0 0
M  V30 27 C -7.2955 5.5692 0.0 0
M  V30 28 C 1.8091 7.8276 0.0 0
M  V30 29 O 3.1097 8.5726 0.0 0
M  V30 30 C 4.4104 7.8276 0.0 0
M  V30 END ATOM
M  V30 BEGIN BOND
M  V30 1 1 1 2
M  V30 2 1 1 3
M  V30 3 2 2 4
M  V30 4 1 2 5
M  V30 5 2 3 6
M  V30 6 1 3 7
M  V30 7 1 4 8
M  V30 8 1 5 9
M  V30 9 1 9 10
M  V30 10 1 9 11
M  V30 11 1 10 12
M  V30 12 1 12 13
M  V30 13 1 12 14
M  V30 14 1 13 15
M  V30 15 1 13 16
M  V30 16 1 14 17
M  V30 17 2 15 18
M  V30 18 1 15 19
M  V30 19 2 16 20
M  V30 20 1 16 21
M  V30 21 1 17 22
M  V30 22 1 19 23
M  V30 23 1 20 24
M  V30 24 2 21 25
M  V30 25 2 22 26
M  V30 26 2 23 27
M  V30 27 2 24 28
M  V30 28 1 28 29
M  V30 29 1 29 30
M  V30 30 1 4 6
M  V30 31 1 11 12
M  V30 32 2 17 19
M  V30 33 1 25 28
M  V30 34 1 26 27
M  V30 END BOND
M  V30 END CTAB
M  END
>  <ED>
ED005228

$$$$
ED963829
OCL MolfileCreator  2D

  0  0  0  0  0  0              0 V3000
M  V30 BEGIN CTAB
M  V30 COUNTS 26 30 0 0 0
M  V30 BEGIN ATOM
M  V30 1 O 0.0 0.0 0.0 0
M  V30 2 C -1.4766 0.3071 0.0 0
M  V30 3 N -2.587 -0.6969 0.0 0
M  V30 4 N -2.0909 1.6774 0.0 0
M  V30 5 C -3.8864 0.059 0.0 0
M  V30 6 C -2.587 -2.1972 0.0 0
M  V30 7 N -3.5793 1.5238 0.0 0
M  V30 8 C -5.1859 -0.6969 0.0 0
M  V30 9 C -3.8864 -2.9532 0.0 0
M  V30 10 C -2.1263 -3.6266 0.0 0
M  V30 11 C -1.1576 -1.7365 0.0 0
M  V30 12 C -5.1859 -2.1972 0.0 0
M  V30 13 C -6.4853 0.059 0.0 0
M  V30 14 N -0.6969 -3.1659 0.0 0
M  V30 15 C -6.4853 -2.9532 0.0 0
M  V30 16 C -7.7848 -0.6969 0.0 0
M  V30 17 C 0.5906 -3.8156 0.0 0
M  V30 18 C -7.7848 -2.1972 0.0 0
M  V30 19 O 0.6615 -5.3158 0.0 0
M  V30 20 C 1.8546 -3.0005 0.0 0
M  V30 21 N 3.1895 -3.6856 0.0 0
M  V30 22 C 1.7837 -1.5002 0.0 0
M  V30 23 C 4.4535 -2.8705 0.0 0
M  V30 24 N 3.0477 -0.6851 0.0 0
M  V30 25 C 4.3826 -1.3703 0.0 0
M  V30 26 C 5.6466 -0.5552 0.0 0
M  V30 END ATOM
M  V30 BEGIN BOND
M  V30 1 2 1 2
M  V30 2 1 2 3
M  V30 3 1 2 4
M  V30 4 1 3 5
M  V30 5 1 3 6
M  V30 6 1 4 7
M  V30 7 1 5 8
M  V30 8 1 6 9
M  V30 9 1 6 10
M  V30 10 1 6 11
M  V30 11 2 8 12
M  V30 12 1 8 13
M  V30 13 1 10 14
M  V30 14 1 12 15
M  V30 15 2 13 16
M  V30 16 1 14 17
M  V30 17 2 15 18
M  V30 18 2 17 19
M  V30 19 1 17 20
M  V30 20 2 20 21
M  V30 21 1 20 22
M  V30 22 1 21 23
M  V30 23 2 22 24
M  V30 24 2 23 25
M  V30 25 1 25 26
M  V30 26 2 5 7
M  V30 27 1 9 12
M  V30 28 1 11 14
M  V30 29 1 16 18
M  V30 30 1 24 25
M  V30 END BOND
M  V30 END CTAB
M  END
>  <ED>
ED963829

$$$$
ED106680
OCL MolfileCreator  2D

  0  0  0  0  0  0              0 V3000
M  V30 BEGIN CTAB
M  V30 COUNTS 31 35 0 0 0
M  V30 BEGIN ATOM
M  V30 1 O 0.0 0.0 0.0 0
M  V30 2 C -0.0117 -1.489 0.0 0
M  V30 3 N 1.2779 -2.2159 0.0 0
M  V30 4 N -1.3248 -2.2159 0.0 0
M  V30 5 C 2.5677 -1.4538 0.0 0
M  V30 6 C 1.2662 -3.705 0.0 0
M  V30 7 C -2.638 -1.4538 0.0 0
M  V30 8 C -3.9512 -2.1808 0.0 0 CFG=1
M  V30 9 O -5.2995 -1.5711 0.0 0
M  V30 10 C -4.1153 -3.6581 0.0 0
M  V30 11 C -6.3548 -2.6615 0.0 0 CFG=1
M  V30 12 C -5.5927 -3.9512 0.0 0 CFG=2
M  V30 13 C -7.8321 -2.9546 0.0 0 CFG=2
M  V30 14 C -5.9561 -1.1841 0.0 0
M  V30 15 C -6.6127 -5.0533 0.0 0
M  V30 16 N -7.9962 -4.4319 0.0 0
M  V30 17 C -8.8521 -1.829 0.0 0
M  V30 18 O -6.9176 -0.0937 0.0 0
M  V30 19 C -9.3094 -5.1588 0.0 0
M  V30 20 C -8.4066 -0.3869 0.0 0
M  V30 21 C -10.3295 -2.1221 0.0 0
M  V30 22 C -9.3211 -6.6479 0.0 0
M  V30 23 C -9.4266 0.7386 0.0 0
M  V30 24 C -11.3495 -0.9966 0.0 0
M  V30 25 C -8.0314 -7.3865 0.0 0
M  V30 26 C -10.6343 -7.3748 0.0 0
M  V30 27 C -10.904 0.4455 0.0 0
M  V30 28 C -8.0431 -8.8756 0.0 0
M  V30 29 C -10.646 -8.8639 0.0 0
M  V30 30 O -6.7534 -9.626 0.0 0
M  V30 31 C -9.3563 -9.6025 0.0 0
M  V30 END ATOM
M  V30 BEGIN BOND
M  V30 1 2 1 2
M  V30 2 1 2 3
M  V30 3 1 2 4
M  V30 4 1 3 5
M  V30 5 1 3 6
M  V30 6 1 4 7
M  V30 7 1 8 7 CFG=3
M  V30 8 1 8 9
M  V30 9 1 8 10
M  V30 10 1 11 9 CFG=1
M  V30 11 1 12 10 CFG=1
M  V30 12 1 11 13
M  V30 13 1 11 14
M  V30 14 1 12 15
M  V30 15 1 13 16 CFG=3
M  V30 16 1 13 17
M  V30 17 1 14 18
M  V30 18 1 16 19
M  V30 19 2 17 20
M  V30 20 1 17 21
M  V30 21 1 19 22
M  V30 22 1 20 23
M  V30 23 2 21 24
M  V30 24 2 22 25
M  V30 25 1 22 26
M  V30 26 2 23 27
M  V30 27 1 25 28
M  V30 28 2 26 29
M  V30 29 1 28 30
M  V30 30 2 28 31
M  V30 31 1 11 12
M  V30 32 1 15 16
M  V30 33 1 18 20
M  V30 34 1 24 27
M  V30 35 1 29 31
M  V30 END BOND
M  V30 BEGIN COLLECTION
M  V30 MDLV30/STERAC1 ATOMS=(4 8 11 12 13)
M  V30 END COLLECTION
M  V30 END CTAB
M  END
>  <ED>
ED106680

$$$$
test_001
OCL MolfileCreator  2D

  0  0  0  0  0  0              0 V3000
M  V30 BEGIN CTAB
M  V30 COUNTS 35 39 0 0 0
M  V30 BEGIN ATOM
M  V30 1 O 0.0 0.0 0.0 0
M  V30 2 C -0.0589 -1.4742 0.0 0
M  V30 3 N 1.2265 -2.17 0.0 0
M  V30 4 C -1.4388 -2.1582 0.0 0
M  V30 5 C 2.4884 -1.3444 0.0 0
M  V30 6 C 1.309 -3.6678 0.0 0
M  V30 7 C -2.6889 -1.3208 0.0 0
M  V30 8 C -1.5331 -3.656 0.0 0
M  V30 9 C 3.8211 -2.0285 0.0 0
M  V30 10 C 2.6417 -4.3518 0.0 0
M  V30 11 O -2.5945 0.1769 0.0 0
M  V30 12 C -4.0334 -1.9813 0.0 0
M  V30 13 C -2.8776 -4.3164 0.0 0
M  V30 14 C 3.9036 -3.5262 0.0 0
M  V30 15 C -3.8447 1.0142 0.0 0
M  V30 16 C -4.1277 -3.4791 0.0 0
M  V30 17 C 5.2363 -4.2103 0.0 0
M  V30 18 C 5.1656 -2.7125 0.0 0
M  V30 19 N 5.3189 -5.7081 0.0 0
M  V30 20 C 6.4982 -3.3965 0.0 0
M  V30 21 C 6.6516 -6.3921 0.0 0
M  V30 22 C 7.8309 -4.0805 0.0 0
M  V30 23 C 6.4157 -1.8987 0.0 0
M  V30 24 C 7.9135 -5.5783 0.0 0
M  V30 25 C 9.0928 -3.2668 0.0 0
M  V30 26 C 7.6776 -1.085 0.0 0
M  V30 27 C 9.2462 -6.2624 0.0 0
M  V30 28 C 9.0103 -1.769 0.0 0
M  V30 29 C 10.5081 -5.4486 0.0 0
M  V30 30 C 9.3287 -7.7602 0.0 0
M  V30 31 O 10.4255 -3.9508 0.0 0
M  V30 32 C 11.8408 -6.1326 0.0 0
M  V30 33 C 10.6614 -8.4442 0.0 0
M  V30 34 C 11.6874 -3.1371 0.0 0
M  V30 35 C 11.9233 -7.6304 0.0 0
M  V30 END ATOM
M  V30 BEGIN BOND
M  V30 1 2 1 2
M  V30 2 1 2 3
M  V30 3 1 2 4
M  V30 4 1 3 5
M  V30 5 1 3 6
M  V30 6 2 4 7
M  V30 7 1 4 8
M  V30 8 1 5 9
M  V30 9 1 6 10
M  V30 10 1 7 11
M  V30 11 1 7 12
M  V30 12 2 8 13
M  V30 13 1 9 14
M  V30 14 1 11 15
M  V30 15 2 12 16
M  V30 16 1 14 17
M  V30 17 1 14 18
M  V30 18 2 17 19
M  V30 19 1 17 20
M  V30 20 1 19 21
M  V30 21 2 20 22
M  V30 22 1 20 23
M  V30 23 2 21 24
M  V30 24 1 22 25
M  V30 25 2 23 26
M  V30 26 1 24 27
M  V30 27 2 25 28
M  V30 28 2 27 29
M  V30 29 1 27 30
M  V30 30 1 29 31
M  V30 31 1 29 32
M  V30 32 2 30 33
M  V30 33 1 31 34
M  V30 34 2 32 35
M  V30 35 1 10 14
M  V30 36 1 13 16
M  V30 37 1 22 24
M  V30 38 1 26 28
M  V30 39 1 33 35
M  V30 END BOND
M  V30 END CTAB
M  END
>  <ED>
test_001

$$$$
test_002
OCL MolfileCreator  2D

  0  0  0  0  0  0              0 V3000
M  V30 BEGIN CTAB
M  V30 COUNTS 36 40 0 0 0
M  V30 BEGIN ATOM
M  V30 1 F 0.0 0.0 0.0 0
M  V30 2 C 1.479 0.2322 0.0 0
M  V30 3 F 1.2467 1.7112 0.0 0
M  V30 4 F 2.958 0.4644 0.0 0
M  V30 5 C 1.7112 -1.2467 0.0 0
M  V30 6 C 0.5378 -2.2246 0.0 0
M  V30 7 C 3.1414 -1.8335 0.0 0
M  V30 8 N -0.8678 -1.6868 0.0 0
M  V30 9 C 0.7822 -3.7281 0.0 0
M  V30 10 C 3.3858 -3.3369 0.0 0
M  V30 11 C -2.029 -2.628 0.0 0
M  V30 12 C 2.2246 -4.3148 0.0 0
M  V30 13 O -3.4347 -2.0901 0.0 0
M  V30 14 N -1.7968 -4.107 0.0 0
M  V30 15 N 2.518 -5.6227 0.0 0
M  V30 16 C -2.8602 -5.1704 0.0 0
M  V30 17 C -0.4644 -4.7915 0.0 0
M  V30 18 C 3.9848 -6.0139 0.0 0
M  V30 19 C -2.1757 -6.5028 0.0 0
M  V30 20 C -0.6967 -6.2705 0.0 0
M  V30 21 N 5.0115 -5.0849 0.0 0
M  V30 22 N 4.327 -7.5662 0.0 0
M  V30 23 C 6.4783 -5.4027 0.0 0
M  V30 24 C 5.7938 -7.884 0.0 0
M  V30 25 N 7.5051 -4.3148 0.0 0
M  V30 26 C 6.8695 -6.8206 0.0 0
M  V30 27 N 6.4783 -9.2164 0.0 0
M  V30 28 C 7.0773 -2.8724 0.0 0
M  V30 29 N 8.2018 -7.5051 0.0 0
M  V30 30 C 7.9574 -8.9841 0.0 0
M  V30 31 C 8.104 -1.7846 0.0 0
M  V30 32 C 7.6762 -0.3422 0.0 0
M  V30 33 N 8.593 0.8434 0.0 0
M  V30 34 C 6.2583 0.1589 0.0 0
M  V30 35 C 7.7373 2.0779 0.0 0
M  V30 36 N 6.295 1.6623 0.0 0
M  V30 END ATOM
M  V30 BEGIN BOND
M  V30 1 1 1 2
M  V30 2 1 2 3
M  V30 3 1 2 4
M  V30 4 1 2 5
M  V30 5 2 5 6
M  V30 6 1 5 7
M  V30 7 1 6 8
M  V30 8 1 6 9
M  V30 9 2 7 10
M  V30 10 1 8 11
M  V30 11 2 9 12
M  V30 12 2 11 13
M  V30 13 1 11 14
M  V30 14 1 12 15
M  V30 15 1 14 16
M  V30 16 1 14 17
M  V30 17 1 15 18
M  V30 18 1 16 19
M  V30 19 1 17 20
M  V30 20 2 18 21
M  V30 21 1 18 22
M  V30 22 1 21 23
M  V30 23 2 22 24
M  V30 24 1 23 25
M  V30 25 2 23 26
M  V30 26 1 24 27
M  V30 27 1 25 28
M  V30 28 1 26 29
M  V30 29 1 27 30
M  V30 30 1 28 31
M  V30 31 1 31 32
M  V30 32 1 32 33
M  V30 33 2 32 34
M  V30 34 2 33 35
M  V30 35 1 34 36
M  V30 36 1 10 12
M  V30 37 1 19 20
M  V30 38 1 24 26
M  V30 39 2 29 30
M  V30 40 1 35 36
M  V30 END BOND
M  V30 END CTAB
M  END
>  <ED>
test_002

$$$$
test_003
OCL MolfileCreator  2D

  0  0  0  0  0  0              0 V3000
M  V30 BEGIN CTAB
M  V30 COUNTS 54 62 0 0 0
M  V30 BEGIN ATOM
M  V30 1 O 0.0 0.0 0.0 0
M  V30 2 C 0.3419 -1.4622 0.0 0
M  V30 3 N 1.7806 -1.8986 0.0 0
M  V30 4 C -0.7547 -2.4882 0.0 0 CFG=1
M  V30 5 C 2.1226 -3.3608 0.0 0
M  V30 6 N -2.1816 -2.0519 0.0 0
M  V30 7 C -0.4127 -3.9505 0.0 0
M  V30 8 O 3.5613 -3.7972 0.0 0
M  V30 9 C 1.0259 -4.3868 0.0 0
M  V30 10 C -2.6651 -0.6367 0.0 0
M  V30 11 C -3.3844 -2.9481 0.0 0
M  V30 12 O -1.8042 0.5896 0.0 0
M  V30 13 C -4.1627 -0.6603 0.0 0
M  V30 14 C -4.6108 -2.0872 0.0 0
M  V30 15 C -5.1769 0.4363 0.0 0
M  V30 16 C -6.0731 -2.4174 0.0 0
M  V30 17 C -6.6392 0.1061 0.0 0
M  V30 18 C -7.0873 -1.3207 0.0 0
M  V30 19 N -8.5496 -1.6509 0.0 0
M  V30 20 C -8.9977 -3.0778 0.0 0
M  V30 21 C -9.5637 -0.5424 0.0 0
M  V30 22 C -10.4599 -3.3962 0.0 0
M  V30 23 C -11.026 -0.8608 0.0 0
M  V30 24 N -11.4741 -2.2877 0.0 0
M  V30 25 C -12.9364 -2.6061 0.0 0
M  V30 26 C -13.3963 -4.033 0.0 0
M  V30 27 C -12.3939 -5.1533 0.0 0
M  V30 28 C -14.8586 -4.3396 0.0 0
M  V30 29 C -12.8656 -6.5802 0.0 0
M  V30 30 C -15.3303 -5.7665 0.0 0
M  V30 31 N -14.3397 -6.8868 0.0 0
M  V30 32 C -14.8114 -8.3137 0.0 0
M  V30 33 C -13.8208 -9.434 0.0 0
M  V30 34 C -16.2855 -8.6085 0.0 0
M  V30 35 C -14.2925 -10.8609 0.0 0
M  V30 36 C -16.7572 -10.0354 0.0 0
M  V30 37 C -15.7666 -11.1557 0.0 0
M  V30 38 C -16.2383 -12.5826 0.0 0 CFG=2
M  V30 39 C -17.7124 -12.8892 0.0 0
M  V30 40 C -15.2477 -13.7029 0.0 0 CFG=1
M  V30 41 C -18.1841 -14.3161 0.0 0
M  V30 42 C -18.7147 -11.7689 0.0 0
M  V30 43 C -13.7737 -13.4081 0.0 0
M  V30 44 C -15.7194 -15.1298 0.0 0
M  V30 45 C -19.6463 -14.6227 0.0 0
M  V30 46 C -17.1935 -15.4364 0.0 0
M  V30 47 C -20.1888 -12.0755 0.0 0
M  V30 48 C -12.7831 -14.5284 0.0 0
M  V30 49 C -13.302 -11.9812 0.0 0
M  V30 50 C -20.6487 -13.5024 0.0 0
M  V30 51 C -11.309 -14.2336 0.0 0
M  V30 52 C -11.8279 -11.6864 0.0 0
M  V30 53 O -22.1228 -13.809 0.0 0
M  V30 54 C -10.8373 -12.8067 0.0 0
M  V30 END ATOM
M  V30 BEGIN BOND
M  V30 1 2 1 2
M  V30 2 1 2 3
M  V30 3 1 2 4
M  V30 4 1 3 5
M  V30 5 1 4 6 CFG=3
M  V30 6 1 4 7
M  V30 7 2 5 8
M  V30 8 1 5 9
M  V30 9 1 6 10
M  V30 10 1 6 11
M  V30 11 2 10 12
M  V30 12 1 10 13
M  V30 13 1 11 14
M  V30 14 1 13 15
M  V30 15 1 14 16
M  V30 16 2 15 17
M  V30 17 2 16 18
M  V30 18 1 18 19
M  V30 19 1 19 20
M  V30 20 1 19 21
M  V30 21 1 20 22
M  V30 22 1 21 23
M  V30 23 1 22 24
M  V30 24 1 24 25
M  V30 25 1 25 26
M  V30 26 1 26 27
M  V30 27 1 26 28
M  V30 28 1 27 29
M  V30 29 1 28 30
M  V30 30 1 29 31
M  V30 31 1 31 32
M  V30 32 2 32 33
M  V30 33 1 32 34
M  V30 34 1 33 35
M  V30 35 2 34 36
M  V30 36 2 35 37
M  V30 37 1 38 37 CFG=1
M  V30 38 1 38 39
M  V30 39 1 38 40
M  V30 40 2 39 41
M  V30 41 1 39 42
M  V30 42 1 40 43 CFG=1
M  V30 43 1 40 44
M  V30 44 1 41 45
M  V30 45 1 41 46
M  V30 46 2 42 47
M  V30 47 2 43 48
M  V30 48 1 43 49
M  V30 49 2 45 50
M  V30 50 1 48 51
M  V30 51 2 49 52
M  V30 52 1 50 53
M  V30 53 2 51 54
M  V30 54 1 7 9
M  V30 55 2 13 14
M  V30 56 1 17 18
M  V30 57 1 23 24
M  V30 58 1 30 31
M  V30 59 1 36 37
M  V30 60 1 44 46
M  V30 61 1 47 50
M  V30 62 1 52 54
M  V30 END BOND
M  V30 BEGIN COLLECTION
M  V30 MDLV30/STEABS ATOMS=(2 38 40)
M  V30 MDLV30/STERAC1 ATOMS=(1 4)
M  V30 END COLLECTION
M  V30 END CTAB
M  END
>  <ED>
test_003

$$$$
test_004
OCL MolfileCreator  2D

  0  0  0  0  0  0              0 V3000
M  V30 BEGIN CTAB
M  V30 COUNTS 39 41 0 0 0
M  V30 BEGIN ATOM
M  V30 1 O 0.0 0.0 0.0 0
M  V30 2 C 0.0 -1.4967 0.0 0
M  V30 3 N -1.2888 -2.2451 0.0 0
M  V30 4 C 1.2888 -2.2451 0.0 0
M  V30 5 C -2.5777 -1.4967 0.0 0 CFG=1
M  V30 6 C -2.5777 0.0 0.0 0 CFG=1
M  V30 7 C -3.8666 -2.2451 0.0 0 CFG=1
M  V30 8 O -3.8666 0.7483 0.0 0
M  V30 9 O -1.2888 0.7483 0.0 0
M  V30 10 O -3.8666 -3.7419 0.0 0
M  V30 11 C -5.1555 -1.4967 0.0 0 CFG=1
M  V30 12 C -5.1555 0.0 0.0 0 CFG=1
M  V30 13 C -1.2888 2.2451 0.0 0
M  V30 14 C -3.9497 -5.5019 0.0 0 CFG=2
M  V30 15 O -6.4444 -2.2451 0.0 0
M  V30 16 C -6.4444 0.7483 0.0 0
M  V30 17 C 0.0 2.9935 0.0 0
M  V30 18 O -5.2802 -6.1949 0.0 0
M  V30 19 C -2.6886 -6.3058 0.0 0 CFG=1
M  V30 20 C -7.7332 -1.4967 0.0 0 CFG=2
M  V30 21 O -6.4444 2.2451 0.0 0
M  V30 22 C 0.0 4.4902 0.0 0
M  V30 23 C -5.3495 -7.6917 0.0 0 CFG=2
M  V30 24 O -1.3997 -5.5574 0.0 0
M  V30 25 C -2.7579 -7.8025 0.0 0 CFG=1
M  V30 26 O -7.7332 0.0 0.0 0
M  V30 27 C -9.0221 -2.2451 0.0 0 CFG=2
M  V30 28 C -4.0883 -8.4955 0.0 0 CFG=2
M  V30 29 C -6.6384 -8.44 0.0 0
M  V30 30 O -1.469 -8.5509 0.0 0
M  V30 31 C -9.0221 0.7483 0.0 0 CFG=1
M  V30 32 O -9.0221 -3.7419 0.0 0
M  V30 33 C -10.311 -1.4967 0.0 0 CFG=2
M  V30 34 O -4.0883 -9.9922 0.0 0
M  V30 35 C -10.311 0.0 0.0 0 CFG=1
M  V30 36 C -9.0221 2.2451 0.0 0
M  V30 37 O -11.5999 -2.2451 0.0 0
M  V30 38 O -11.5999 0.7483 0.0 0
M  V30 39 O -10.311 2.9935 0.0 0
M  V30 END ATOM
M  V30 BEGIN BOND
M  V30 1 2 1 2
M  V30 2 1 2 3
M  V30 3 1 2 4
M  V30 4 1 5 3 CFG=3
M  V30 5 1 5 6
M  V30 6 1 5 7
M  V30 7 1 6 8
M  V30 8 1 6 9 CFG=1
M  V30 9 1 7 10 CFG=1
M  V30 10 1 7 11
M  V30 11 1 8 12
M  V30 12 1 9 13
M  V30 13 1 14 10 CFG=1
M  V30 14 1 11 15 CFG=3
M  V30 15 1 12 16 CFG=1
M  V30 16 1 13 17
M  V30 17 1 14 18
M  V30 18 1 14 19
M  V30 19 1 20 15 CFG=1
M  V30 20 1 16 21
M  V30 21 2 17 22
M  V30 22 1 18 23
M  V30 23 1 19 24 CFG=1
M  V30 24 1 19 25
M  V30 25 1 20 26
M  V30 26 1 20 27
M  V30 27 1 23 28
M  V30 28 1 23 29 CFG=3
M  V30 29 1 25 30 CFG=3
M  V30 30 1 26 31
M  V30 31 1 27 32 CFG=3
M  V30 32 1 27 33
M  V30 33 1 28 34 CFG=3
M  V30 34 1 31 35
M  V30 35 1 31 36 CFG=1
M  V30 36 1 33 37 CFG=1
M  V30 37 1 35 38 CFG=1
M  V30 38 1 36 39
M  V30 39 1 11 12
M  V30 40 1 25 28
M  V30 41 1 33 35
M  V30 END BOND
M  V30 BEGIN COLLECTION
M  V30 MDLV30/STEABS ATOMS=(15 5 6 7 11 12 14 19 20 23 25 27 28 31 33 35)
M  V30 END COLLECTION
M  V30 END CTAB
M  END
>  <ED>
test_004

$$$$
