EDEL-CRBN-0009_ent
 OpenBabel09062620533D

 35 39  0  0  0  0  0  0  0  0999 V2000
   84.5639  154.7304   14.1925 C   0  0  0  0  0  0  0  0  0  0  0  0
   85.0301  153.9429   15.2586 C   0  0  0  0  0  0  0  0  0  0  0  0
   83.7663  154.1089   13.1945 C   0  0  0  0  0  0  0  0  0  0  0  0
   84.6997  152.5994   15.2945 C   0  0  0  0  0  0  0  0  0  0  0  0
   83.4311  152.7470   13.2387 C   0  0  0  0  0  0  0  0  0  0  0  0
   83.9103  152.0053   14.2929 C   0  0  0  0  0  0  0  0  0  0  0  0
   85.0235  151.5354   16.3188 C   0  0  2  0  0  0  0  0  0  0  0  0
   83.7157  150.5510   14.6588 C   0  0  1  0  0  0  0  0  0  0  0  0
   84.8984  150.3394   15.4869 N   0  0  0  0  0  0  0  0  0  0  0  0
   83.8835  151.4474   17.3893 C   0  0  0  0  0  0  0  0  0  0  0  0
   82.4778  150.3875   15.6044 C   0  0  0  0  0  0  0  0  0  0  0  0
   85.3130  149.0875   15.8419 C   0  0  0  0  0  0  0  0  0  0  0  0
   82.5128  151.2807   16.8090 N   0  0  0  0  0  0  0  0  0  0  0  0
   84.9050  148.0662   15.3059 O   0  0  0  0  0  0  0  0  0  0  0  0
   85.1404  156.2401   11.7677 O   0  0  0  0  0  0  0  0  0  0  0  0
   85.1679  156.7539   12.8833 C   0  0  0  0  0  0  0  0  0  0  0  0
   84.8979  156.1277   14.1061 N   0  0  0  0  0  0  0  0  0  0  0  0
   85.5058  158.0849   12.9680 N   0  0  0  0  0  0  0  0  0  0  0  0
   85.1833  156.8761   15.3268 C   0  0  0  0  0  0  0  0  0  0  0  0
   85.2001  158.9359   13.9918 C   0  0  0  0  0  0  0  0  0  0  0  0
   84.6584  158.2932   15.2300 C   0  0  0  0  0  0  0  0  0  0  0  0
   85.2905  160.1538   13.8661 O   0  0  0  0  0  0  0  0  0  0  0  0
   86.0186  158.4611   12.2165 H   0  0  0  0  0  0  0  0  0  0  0  0
   86.2092  149.1309   16.8592 O   0  0  0  0  0  0  0  0  0  0  0  0
   87.6008  148.7849   16.6432 C   0  0  0  0  0  0  0  0  0  0  0  0
   88.2954  150.1275   16.3683 C   0  0  0  0  0  0  0  0  0  0  0  0
   88.2194  148.1633   17.9002 C   0  0  0  0  0  0  0  0  0  0  0  0
   87.7695  147.8859   15.4139 C   0  0  0  0  0  0  0  0  0  0  0  0
   81.5405  150.8903   17.8343 C   0  0  0  0  0  0  0  0  0  0  0  0
   82.0982  149.9097   18.8433 C   0  0  0  0  0  0  0  0  0  0  0  0
   81.2423  149.0381   19.5342 C   0  0  0  0  0  0  0  0  0  0  0  0
   83.4734  149.8631   19.1126 C   0  0  0  0  0  0  0  0  0  0  0  0
   81.7511  148.1380   20.4711 C   0  0  0  0  0  0  0  0  0  0  0  0
   83.9806  148.9620   20.0509 C   0  0  0  0  0  0  0  0  0  0  0  0
   83.1199  148.1007   20.7295 C   0  0  0  0  0  0  0  0  0  0  0  0
  1 17  1  0  0  0  0
  1  2  2  0  0  0  0
  1  3  5  0  0  0  0
  3  5  2  0  0  0  0
  4  2  5  0  0  0  0
  4  6  2  0  0  0  0
  4  7  1  0  0  0  0
  6  8  1  0  0  0  0
  6  5  5  0  0  0  0
  7  9  1  0  0  0  0
  7 10  1  1  0  0  0
  8 11  1  1  0  0  0
  8  9  1  0  0  0  0
  9 12  1  0  0  0  0
 10 13  1  0  0  0  0
 11 13  1  0  0  0  0
 12 14  2  0  0  0  0
 12 24  1  0  0  0  0
 13 29  1  0  0  0  0
 15 16  2  0  0  0  0
 16 17  1  0  0  0  0
 16 18  1  0  0  0  0
 17 19  1  0  0  0  0
 18 20  1  0  0  0  0
 18 23  1  0  0  0  0
 19 21  1  0  0  0  0
 20 22  2  0  0  0  0
 20 21  1  0  0  0  0
 24 25  1  0  0  0  0
 25 26  1  0  0  0  0
 25 27  1  0  0  0  0
 25 28  1  0  0  0  0
 29 30  1  0  0  0  0
 30 31  2  0  0  0  0
 30 32  5  0  0  0  0
 31 33  5  0  0  0  0
 32 34  2  0  0  0  0
 33 35  2  0  0  0  0
 34 35  5  0  0  0  0
M  END
>  <ID>
EDEL-CRBN-0009_ent

>  <Stereoisomer>
enantiomer

>  <MW>
462.23

>  <HBD>
1

>  <HBA>
5

>  <RotBonds>
3

>  <cLogP>
3.98

>  <minimizedAffinity>
-9.24529

>  <CNNscore>
0.9317962527

>  <CNNaffinity>
7.5924477577

>  <CNN_VS>
7.0746145248

>  <CNNaffinity_variance>
0.0404398032
> <Compound_ID>
EDEL-CRBN-0009_ent

> <Vina_dG_kcal_mol>
-9.250

> <CNN_pKd>
7.592

> <GBSA_dG_kcal_mol>
-44.752

> <GBSA_dG_std>
0.420

> <GBSA_VDWAALS>
-47.224

> <GBSA_EEL>
-3.380

> <GBSA_EGB>
10.116

> <GBSA_ESURF>
-4.264

> <GBSA_rank>
1

$$$$
EDEL-CRBN-0013
 OpenBabel09062620533D

 37 41  0  0  0  0  0  0  0  0999 V2000
   84.8805  154.3830   14.0171 C   0  0  0  0  0  0  0  0  0  0  0  0
   85.5926  153.5126   13.1423 C   0  0  0  0  0  0  0  0  0  0  0  0
   84.1184  153.8055   15.0492 C   0  0  0  0  0  0  0  0  0  0  0  0
   85.4994  152.1153   13.2320 C   0  0  0  0  0  0  0  0  0  0  0  0
   84.0596  152.4256   15.1519 C   0  0  0  0  0  0  0  0  0  0  0  0
   84.7316  151.5903   14.2470 C   0  0  0  0  0  0  0  0  0  0  0  0
   83.3026  151.5450   16.1213 C   0  0  2  0  0  0  0  0  0  0  0  0
   84.4139  150.1589   14.6128 C   0  0  1  0  0  0  0  0  0  0  0  0
   84.1027  150.3275   16.0304 N   0  0  0  0  0  0  0  0  0  0  0  0
   81.8889  151.2299   15.5196 C   0  0  0  0  0  0  0  0  0  0  0  0
   83.0960  149.7363   13.8789 C   0  0  0  0  0  0  0  0  0  0  0  0
   83.8988  149.2930   16.9033 C   0  0  0  0  0  0  0  0  0  0  0  0
   81.8381  150.0336   14.6216 N   0  0  0  0  0  0  0  0  0  0  0  0
   83.3209  149.4179   17.9747 O   0  0  0  0  0  0  0  0  0  0  0  0
   86.2530  155.8777   11.9619 O   0  0  0  0  0  0  0  0  0  0  0  0
   85.5889  156.4360   12.8315 C   0  0  0  0  0  0  0  0  0  0  0  0
   84.8842  155.8124   13.8620 N   0  0  0  0  0  0  0  0  0  0  0  0
   85.5059  157.8077   12.8114 N   0  0  0  0  0  0  0  0  0  0  0  0
   84.0051  156.6317   14.6892 C   0  0  0  0  0  0  0  0  0  0  0  0
   85.2102  158.6122   13.8759 C   0  0  0  0  0  0  0  0  0  0  0  0
   84.6983  157.9146   15.0989 C   0  0  0  0  0  0  0  0  0  0  0  0
   85.4330  159.8194   13.8503 O   0  0  0  0  0  0  0  0  0  0  0  0
   85.6754  158.2524   11.9496 H   0  0  0  0  0  0  0  0  0  0  0  0
   86.4331  154.0032   12.1679 O   0  0  0  0  0  0  0  0  0  0  0  0
   87.3056  152.9616   11.7192 C   0  0  0  0  0  0  0  0  0  0  0  0
   84.4187  148.1325   16.4268 O   0  0  0  0  0  0  0  0  0  0  0  0
   85.4371  147.4175   17.1699 C   0  0  0  0  0  0  0  0  0  0  0  0
   86.7337  147.6637   16.3829 C   0  0  0  0  0  0  0  0  0  0  0  0
   85.1559  145.9104   17.1867 C   0  0  0  0  0  0  0  0  0  0  0  0
   85.6066  147.9881   18.5818 C   0  0  0  0  0  0  0  0  0  0  0  0
   80.6611  150.0063   13.7510 C   0  0  0  0  0  0  0  0  0  0  0  0
   79.3507  149.9472   14.5063 C   0  0  0  0  0  0  0  0  0  0  0  0
   78.1677  149.5699   13.8549 C   0  0  0  0  0  0  0  0  0  0  0  0
   79.3031  150.2448   15.8770 C   0  0  0  0  0  0  0  0  0  0  0  0
   76.9630  149.5016   14.5576 C   0  0  0  0  0  0  0  0  0  0  0  0
   78.0979  150.1779   16.5772 C   0  0  0  0  0  0  0  0  0  0  0  0
   76.9285  149.8060   15.9174 C   0  0  0  0  0  0  0  0  0  0  0  0
  1 17  1  0  0  0  0
  1  2  2  0  0  0  0
  1  3  5  0  0  0  0
  2 24  1  0  0  0  0
  2  4  5  0  0  0  0
  5  3  2  0  0  0  0
  5  7  1  0  0  0  0
  5  6  5  0  0  0  0
  6  4  2  0  0  0  0
  6  8  1  0  0  0  0
  7  9  1  0  0  0  0
  7 10  1  6  0  0  0
  8 11  1  6  0  0  0
  8  9  1  0  0  0  0
  9 12  1  0  0  0  0
 10 13  1  0  0  0  0
 11 13  1  0  0  0  0
 12 14  2  0  0  0  0
 12 26  1  0  0  0  0
 13 31  1  0  0  0  0
 15 16  2  0  0  0  0
 16 17  1  0  0  0  0
 16 18  1  0  0  0  0
 17 19  1  0  0  0  0
 18 20  1  0  0  0  0
 18 23  1  0  0  0  0
 19 21  1  0  0  0  0
 20 22  2  0  0  0  0
 20 21  1  0  0  0  0
 24 25  1  0  0  0  0
 26 27  1  0  0  0  0
 27 28  1  0  0  0  0
 27 29  1  0  0  0  0
 27 30  1  0  0  0  0
 31 32  1  0  0  0  0
 32 33  2  0  0  0  0
 32 34  5  0  0  0  0
 33 35  5  0  0  0  0
 34 36  2  0  0  0  0
 35 37  2  0  0  0  0
 36 37  5  0  0  0  0
M  END
>  <ID>
EDEL-CRBN-0013

>  <Stereoisomer>
original

>  <MW>
492.24

>  <HBD>
1

>  <HBA>
6

>  <RotBonds>
4

>  <cLogP>
3.99

>  <minimizedAffinity>
-8.84591

>  <CNNscore>
0.8051082492

>  <CNNaffinity>
7.3772778511

>  <CNN_VS>
5.9395074844

>  <CNNaffinity_variance>
0.0731441304
> <Compound_ID>
EDEL-CRBN-0013

> <Vina_dG_kcal_mol>
-8.850

> <CNN_pKd>
7.377

> <GBSA_dG_kcal_mol>
-43.804

> <GBSA_dG_std>
0.377

> <GBSA_VDWAALS>
-47.143

> <GBSA_EEL>
-3.578

> <GBSA_EGB>
11.690

> <GBSA_ESURF>
-4.773

> <GBSA_rank>
2

$$$$
EDEL-CRBN-0009
 OpenBabel09062620533D

 35 39  0  0  0  0  0  0  0  0999 V2000
   84.2316  154.5901   13.8388 C   0  0  0  0  0  0  0  0  0  0  0  0
   83.0976  154.1818   14.5606 C   0  0  0  0  0  0  0  0  0  0  0  0
   84.9904  153.5981   13.1639 C   0  0  0  0  0  0  0  0  0  0  0  0
   82.7637  152.8379   14.5862 C   0  0  0  0  0  0  0  0  0  0  0  0
   84.6503  152.2378   13.2007 C   0  0  0  0  0  0  0  0  0  0  0  0
   83.5334  151.8759   13.9184 C   0  0  0  0  0  0  0  0  0  0  0  0
   81.6429  152.1197   15.3029 C   0  0  1  0  0  0  0  0  0  0  0  0
   82.9250  150.5208   14.1948 C   0  0  2  0  0  0  0  0  0  0  0  0
   81.5511  150.9100   14.4866 N   0  0  0  0  0  0  0  0  0  0  0  0
   82.1441  151.6999   16.7249 C   0  0  0  0  0  0  0  0  0  0  0  0
   83.5463  149.9479   15.5140 C   0  0  0  0  0  0  0  0  0  0  0  0
   80.5636  149.9715   14.6013 C   0  0  0  0  0  0  0  0  0  0  0  0
   82.9320  150.4450   16.7698 N   0  0  0  0  0  0  0  0  0  0  0  0
   80.6711  148.8267   14.1808 O   0  0  0  0  0  0  0  0  0  0  0  0
   84.2458  156.3486   11.5148 O   0  0  0  0  0  0  0  0  0  0  0  0
   84.6047  156.7273   12.6269 C   0  0  0  0  0  0  0  0  0  0  0  0
   84.6276  155.9731   13.8062 N   0  0  0  0  0  0  0  0  0  0  0  0
   85.0415  158.0257   12.7527 N   0  0  0  0  0  0  0  0  0  0  0  0
   85.2709  156.5660   14.9752 C   0  0  0  0  0  0  0  0  0  0  0  0
   85.0616  158.7640   13.9017 C   0  0  0  0  0  0  0  0  0  0  0  0
   84.8276  158.0012   15.1679 C   0  0  0  0  0  0  0  0  0  0  0  0
   85.1819  159.9857   13.8807 O   0  0  0  0  0  0  0  0  0  0  0  0
   85.3714  158.4650   11.9358 H   0  0  0  0  0  0  0  0  0  0  0  0
   79.4706  150.4745   15.2290 O   0  0  0  0  0  0  0  0  0  0  0  0
   78.2139  149.7523   15.2285 C   0  0  0  0  0  0  0  0  0  0  0  0
   78.5113  148.4583   16.0018 C   0  0  0  0  0  0  0  0  0  0  0  0
   77.1224  150.5275   15.9738 C   0  0  0  0  0  0  0  0  0  0  0  0
   77.7867  149.3821   13.8038 C   0  0  0  0  0  0  0  0  0  0  0  0
   83.6525  150.1684   18.0041 C   0  0  0  0  0  0  0  0  0  0  0  0
   82.8287  149.5702   19.1250 C   0  0  0  0  0  0  0  0  0  0  0  0
   81.4847  149.2231   18.9197 C   0  0  0  0  0  0  0  0  0  0  0  0
   83.3869  149.3637   20.3955 C   0  0  0  0  0  0  0  0  0  0  0  0
   80.7242  148.6712   19.9525 C   0  0  0  0  0  0  0  0  0  0  0  0
   82.6263  148.8113   21.4280 C   0  0  0  0  0  0  0  0  0  0  0  0
   81.2959  148.4637   21.2057 C   0  0  0  0  0  0  0  0  0  0  0  0
  1 17  1  0  0  0  0
  1  2  2  0  0  0  0
  1  3  5  0  0  0  0
  3  5  2  0  0  0  0
  4  2  5  0  0  0  0
  4  6  2  0  0  0  0
  4  7  1  0  0  0  0
  6  8  1  0  0  0  0
  6  5  5  0  0  0  0
  7  9  1  0  0  0  0
  7 10  1  1  0  0  0
  8 11  1  1  0  0  0
  8  9  1  0  0  0  0
  9 12  1  0  0  0  0
 10 13  1  0  0  0  0
 11 13  1  0  0  0  0
 12 14  2  0  0  0  0
 12 24  1  0  0  0  0
 13 29  1  0  0  0  0
 15 16  2  0  0  0  0
 16 17  1  0  0  0  0
 16 18  1  0  0  0  0
 17 19  1  0  0  0  0
 18 20  1  0  0  0  0
 18 23  1  0  0  0  0
 19 21  1  0  0  0  0
 20 22  2  0  0  0  0
 20 21  1  0  0  0  0
 24 25  1  0  0  0  0
 25 26  1  0  0  0  0
 25 27  1  0  0  0  0
 25 28  1  0  0  0  0
 29 30  1  0  0  0  0
 30 31  2  0  0  0  0
 30 32  5  0  0  0  0
 31 33  5  0  0  0  0
 32 34  2  0  0  0  0
 33 35  2  0  0  0  0
 34 35  5  0  0  0  0
M  END
>  <ID>
EDEL-CRBN-0009

>  <Stereoisomer>
original

>  <MW>
462.23

>  <HBD>
1

>  <HBA>
5

>  <RotBonds>
3

>  <cLogP>
3.98

>  <minimizedAffinity>
-10.19955

>  <CNNscore>
0.9455377460

>  <CNNaffinity>
7.3959488869

>  <CNN_VS>
6.9931488037

>  <CNNaffinity_variance>
0.0117455050
> <Compound_ID>
EDEL-CRBN-0009

> <Vina_dG_kcal_mol>
-10.200

> <CNN_pKd>
7.396

> <GBSA_dG_kcal_mol>
-43.750

> <GBSA_dG_std>
0.465

> <GBSA_VDWAALS>
-47.055

> <GBSA_EEL>
-2.719

> <GBSA_EGB>
10.687

> <GBSA_ESURF>
-4.662

> <GBSA_rank>
3

$$$$
EDEL-CRBN-0008_ent
 OpenBabel09062620533D

 33 37  0  0  0  0  0  0  0  0999 V2000
   84.8548  149.1546   17.6075 N   0  0  0  0  0  0  0  0  0  0  0  0
   83.3914  149.2341   17.4593 C   0  0  0  0  0  0  0  0  0  0  0  0
   85.5640  149.0392   16.3245 C   0  0  0  0  0  0  0  0  0  0  0  0
   83.0068  150.0540   16.2316 C   0  0  0  0  0  0  0  0  0  0  0  0
   84.7082  148.4391   15.2116 C   0  0  0  0  0  0  0  0  0  0  0  0
   83.4777  149.3216   14.9664 C   0  0  1  0  0  0  0  0  0  0  0  0
   82.3870  148.4883   14.4455 O   0  0  0  0  0  0  0  0  0  0  0  0
   83.4820  150.1265   13.6220 C   0  0  1  0  0  0  0  0  0  0  0  0
   82.1053  149.4754   13.4215 C   0  0  0  0  0  0  0  0  0  0  0  0
   83.6757  151.7019   13.6380 C   0  0  0  0  0  0  0  0  0  0  0  0
   84.8775  152.2764   13.1878 C   0  0  0  0  0  0  0  0  0  0  0  0
   82.7016  152.6112   14.0793 C   0  0  0  0  0  0  0  0  0  0  0  0
   85.0977  153.6620   13.1839 C   0  0  0  0  0  0  0  0  0  0  0  0
   82.9166  153.9998   14.0816 C   0  0  0  0  0  0  0  0  0  0  0  0
   84.1207  154.5541   13.6314 C   0  0  0  0  0  0  0  0  0  0  0  0
   84.3489  155.9723   13.6481 N   0  0  0  0  0  0  0  0  0  0  0  0
   84.8017  156.6654   12.5194 C   0  0  0  0  0  0  0  0  0  0  0  0
   83.8964  156.7612   14.7905 C   0  0  0  0  0  0  0  0  0  0  0  0
   85.0612  156.1892   11.4171 O   0  0  0  0  0  0  0  0  0  0  0  0
   84.9510  158.0228   12.6848 N   0  0  0  0  0  0  0  0  0  0  0  0
   84.8754  157.8732   15.1035 C   0  0  0  0  0  0  0  0  0  0  0  0
   85.1070  158.6866   13.8688 C   0  0  0  0  0  0  0  0  0  0  0  0
   85.4890  159.8526   13.9084 O   0  0  0  0  0  0  0  0  0  0  0  0
   84.9447  158.5715   11.8674 H   0  0  0  0  0  0  0  0  0  0  0  0
   85.2143  148.1164   18.5835 C   0  0  0  0  0  0  0  0  0  0  0  0
   82.1498  148.6662   22.7906 Cl  0  0  0  0  0  0  0  0  0  0  0  0
   82.5921  147.8513   21.3388 C   0  0  0  0  0  0  0  0  0  0  0  0
   83.6734  148.2928   20.5759 C   0  0  0  0  0  0  0  0  0  0  0  0
   81.8518  146.7437   20.9260 C   0  0  0  0  0  0  0  0  0  0  0  0
   84.3688  149.3734   20.9662 F   0  0  0  0  0  0  0  0  0  0  0  0
   84.0335  147.6348   19.3928 C   0  0  0  0  0  0  0  0  0  0  0  0
   82.1945  146.0816   19.7465 C   0  0  0  0  0  0  0  0  0  0  0  0
   83.2778  146.5246   18.9833 C   0  0  0  0  0  0  0  0  0  0  0  0
  1  2  1  0  0  0  0
  1  3  1  0  0  0  0
  2  4  1  0  0  0  0
  3  5  1  0  0  0  0
  6  5  1  1  0  0  0
  6  4  1  0  0  0  0
  6  7  1  0  0  0  0
  6  8  1  0  0  0  0
  7  9  1  0  0  0  0
  8 10  1  1  0  0  0
  8  9  1  0  0  0  0
 10 11  2  0  0  0  0
 10 12  5  0  0  0  0
 11 13  5  0  0  0  0
 12 14  2  0  0  0  0
 15 14  5  0  0  0  0
 15 13  2  0  0  0  0
 15 16  1  0  0  0  0
 16 17  1  0  0  0  0
 16 18  1  0  0  0  0
 17 19  2  0  0  0  0
 17 20  1  0  0  0  0
 18 21  1  0  0  0  0
 20 22  1  0  0  0  0
 20 24  1  0  0  0  0
 21 22  1  0  0  0  0
 22 23  2  0  0  0  0
 25  1  1  0  0  0  0
 27 26  1  0  0  0  0
 27 28  2  0  0  0  0
 27 29  5  0  0  0  0
 28 30  1  0  0  0  0
 28 31  5  0  0  0  0
 29 32  2  0  0  0  0
 31 33  2  0  0  0  0
 31 25  1  0  0  0  0
 32 33  5  0  0  0  0
M  END
>  <ID>
EDEL-CRBN-0008_ent

>  <Stereoisomer>
enantiomer

>  <MW>
457.16

>  <HBD>
1

>  <HBA>
4

>  <RotBonds>
4

>  <cLogP>
4.07

>  <minimizedAffinity>
-8.47839

>  <CNNscore>
0.7928389311

>  <CNNaffinity>
7.3925871849

>  <CNN_VS>
5.8611307144

>  <CNNaffinity_variance>
0.0425307192
> <Compound_ID>
EDEL-CRBN-0008_ent

> <Vina_dG_kcal_mol>
-8.480

> <CNN_pKd>
7.393

> <GBSA_dG_kcal_mol>
-43.630

> <GBSA_dG_std>
0.377

> <GBSA_VDWAALS>
-46.925

> <GBSA_EEL>
-4.530

> <GBSA_EGB>
12.190

> <GBSA_ESURF>
-4.364

> <GBSA_rank>
4

$$$$
EDEL-CRBN-0005_ent
 OpenBabel09062620533D

 32 36  0  0  0  0  0  0  0  0999 V2000
   85.5709  149.0583   13.0197 O   0  0  0  0  0  0  0  0  0  0  0  0
   85.0989  149.6338   14.0029 C   0  0  0  0  0  0  0  0  0  0  0  0
   85.9407  150.3955   14.7557 N   0  0  0  0  0  0  0  0  0  0  0  0
   83.6640  149.3988   14.4523 C   0  0  1  0  0  0  0  0  0  0  0  0
   85.5582  151.3251   15.7896 C   0  0  0  0  0  0  0  0  0  0  0  0
   82.8670  150.4754   15.2052 C   0  0  1  0  0  0  0  0  0  0  0  0
   82.7687  149.0228   13.2561 C   0  0  0  0  0  0  0  0  0  0  0  0
   84.5758  152.3268   15.2425 C   0  0  0  0  0  0  0  0  0  0  0  0
   83.2756  151.9087   14.8954 C   0  0  0  0  0  0  0  0  0  0  0  0
   81.4249  150.0558   14.8796 C   0  0  0  0  0  0  0  0  0  0  0  0
   81.4937  149.7279   13.4568 N   0  0  0  0  0  0  0  0  0  0  0  0
   84.9827  153.6540   15.0071 C   0  0  0  0  0  0  0  0  0  0  0  0
   82.4205  152.8464   14.3103 C   0  0  0  0  0  0  0  0  0  0  0  0
   84.1228  154.5995   14.4350 C   0  0  0  0  0  0  0  0  0  0  0  0
   82.8375  154.1660   14.0850 C   0  0  0  0  0  0  0  0  0  0  0  0
   86.9043  150.3024   14.5763 H   0  0  0  0  0  0  0  0  0  0  0  0
   84.5523  155.9491   14.1906 N   0  0  0  0  0  0  0  0  0  0  0  0
   84.6030  156.4901   12.9006 C   0  0  0  0  0  0  0  0  0  0  0  0
   85.1707  156.7138   15.2704 C   0  0  0  0  0  0  0  0  0  0  0  0
   84.2874  155.9295   11.8539 O   0  0  0  0  0  0  0  0  0  0  0  0
   85.0677  157.7824   12.8238 N   0  0  0  0  0  0  0  0  0  0  0  0
   84.7722  158.1729   15.1988 C   0  0  0  0  0  0  0  0  0  0  0  0
   85.0834  158.7022   13.8339 C   0  0  0  0  0  0  0  0  0  0  0  0
   85.2626  159.8967   13.6141 O   0  0  0  0  0  0  0  0  0  0  0  0
   85.4247  158.0737   11.9539 H   0  0  0  0  0  0  0  0  0  0  0  0
   80.3428  148.9758   12.9580 C   0  0  0  0  0  0  0  0  0  0  0  0
   79.0748  149.2759   13.7285 C   0  0  0  0  0  0  0  0  0  0  0  0
   79.0368  150.3104   14.6738 C   0  0  0  0  0  0  0  0  0  0  0  0
   77.9146  148.5189   13.5044 C   0  0  0  0  0  0  0  0  0  0  0  0
   77.8628  150.5807   15.3796 C   0  0  0  0  0  0  0  0  0  0  0  0
   76.7422  148.7905   14.2106 C   0  0  0  0  0  0  0  0  0  0  0  0
   76.7171  149.8210   15.1482 C   0  0  0  0  0  0  0  0  0  0  0  0
  1  2  2  0  0  0  0
  2  3  1  0  0  0  0
  3  5  1  0  0  0  0
  3 16  1  0  0  0  0
  4  2  1  0  0  0  0
  4  6  1  0  0  0  0
  4  7  1  6  0  0  0
  6  9  1  0  0  0  0
  6 10  1  6  0  0  0
  7 11  1  0  0  0  0
  8  5  1  0  0  0  0
  8 12  2  0  0  0  0
  8  9  5  0  0  0  0
  9 13  2  0  0  0  0
 10 11  1  0  0  0  0
 11 26  1  0  0  0  0
 13 15  5  0  0  0  0
 14 12  5  0  0  0  0
 14 17  1  0  0  0  0
 14 15  2  0  0  0  0
 17 18  1  0  0  0  0
 17 19  1  0  0  0  0
 18 20  2  0  0  0  0
 18 21  1  0  0  0  0
 19 22  1  0  0  0  0
 21 23  1  0  0  0  0
 21 25  1  0  0  0  0
 22 23  1  0  0  0  0
 23 24  2  0  0  0  0
 26 27  1  0  0  0  0
 27 28  2  0  0  0  0
 27 29  5  0  0  0  0
 28 30  5  0  0  0  0
 29 31  2  0  0  0  0
 30 32  2  0  0  0  0
 31 32  5  0  0  0  0
M  END
>  <ID>
EDEL-CRBN-0005_ent

>  <Stereoisomer>
enantiomer

>  <MW>
404.18

>  <HBD>
2

>  <HBA>
4

>  <RotBonds>
3

>  <cLogP>
1.98

>  <minimizedAffinity>
-10.21305

>  <CNNscore>
0.8760065436

>  <CNNaffinity>
7.1399464607

>  <CNN_VS>
6.2546396255

>  <CNNaffinity_variance>
0.0545090139
> <Compound_ID>
EDEL-CRBN-0005_ent

> <Vina_dG_kcal_mol>
-10.210

> <CNN_pKd>
7.140

> <GBSA_dG_kcal_mol>
-43.403

> <GBSA_dG_std>
0.315

> <GBSA_VDWAALS>
-46.076

> <GBSA_EEL>
-3.257

> <GBSA_EGB>
10.409

> <GBSA_ESURF>
-4.479

> <GBSA_rank>
5

$$$$
EDEL-CRBN-0013_ent
 OpenBabel09062620533D

 37 41  0  0  0  0  0  0  0  0999 V2000
   84.1042  154.3495   13.7313 C   0  0  0  0  0  0  0  0  0  0  0  0
   84.8657  153.3597   13.0428 C   0  0  0  0  0  0  0  0  0  0  0  0
   82.9310  153.9782   14.4128 C   0  0  0  0  0  0  0  0  0  0  0  0
   84.4778  152.0121   13.0436 C   0  0  0  0  0  0  0  0  0  0  0  0
   82.5739  152.6436   14.4211 C   0  0  0  0  0  0  0  0  0  0  0  0
   83.3407  151.6729   13.7461 C   0  0  0  0  0  0  0  0  0  0  0  0
   81.4394  151.9268   15.1166 C   0  0  1  0  0  0  0  0  0  0  0  0
   82.7020  150.3272   13.9947 C   0  0  2  0  0  0  0  0  0  0  0  0
   81.3352  150.7440   14.2715 N   0  0  0  0  0  0  0  0  0  0  0  0
   81.8901  151.4270   16.5301 C   0  0  0  0  0  0  0  0  0  0  0  0
   83.2606  149.7041   15.3175 C   0  0  0  0  0  0  0  0  0  0  0  0
   80.3016  149.8504   14.2883 C   0  0  0  0  0  0  0  0  0  0  0  0
   83.0805  150.5096   16.5790 N   0  0  0  0  0  0  0  0  0  0  0  0
   80.3804  148.7223   13.8219 O   0  0  0  0  0  0  0  0  0  0  0  0
   84.1159  156.0975   11.4618 O   0  0  0  0  0  0  0  0  0  0  0  0
   84.4390  156.4916   12.5805 C   0  0  0  0  0  0  0  0  0  0  0  0
   84.5189  155.7174   13.7387 N   0  0  0  0  0  0  0  0  0  0  0  0
   84.8138  157.8070   12.7366 N   0  0  0  0  0  0  0  0  0  0  0  0
   85.3098  156.2220   14.8493 C   0  0  0  0  0  0  0  0  0  0  0  0
   85.0241  158.4734   13.9127 C   0  0  0  0  0  0  0  0  0  0  0  0
   84.9165  157.6497   15.1623 C   0  0  0  0  0  0  0  0  0  0  0  0
   85.2268  159.6844   13.9379 O   0  0  0  0  0  0  0  0  0  0  0  0
   84.9451  158.3256   11.9102 H   0  0  0  0  0  0  0  0  0  0  0  0
   85.9109  153.7849   12.2532 O   0  0  0  0  0  0  0  0  0  0  0  0
   86.9775  152.8417   12.1649 C   0  0  0  0  0  0  0  0  0  0  0  0
   79.2015  150.3759   14.8834 O   0  0  0  0  0  0  0  0  0  0  0  0
   78.0324  149.5572   15.1414 C   0  0  0  0  0  0  0  0  0  0  0  0
   77.5097  149.1793   13.7469 C   0  0  0  0  0  0  0  0  0  0  0  0
   76.9454  150.3545   15.8707 C   0  0  0  0  0  0  0  0  0  0  0  0
   78.4034  148.2722   15.8894 C   0  0  0  0  0  0  0  0  0  0  0  0
   84.2991  151.2408   16.9723 C   0  0  0  0  0  0  0  0  0  0  0  0
   85.5900  150.5304   16.6167 C   0  0  0  0  0  0  0  0  0  0  0  0
   86.5683  151.1868   15.8543 C   0  0  0  0  0  0  0  0  0  0  0  0
   85.8484  149.2296   17.0737 C   0  0  0  0  0  0  0  0  0  0  0  0
   87.7692  150.5477   15.5411 C   0  0  0  0  0  0  0  0  0  0  0  0
   87.0489  148.5918   16.7583 C   0  0  0  0  0  0  0  0  0  0  0  0
   88.0081  149.2504   15.9913 C   0  0  0  0  0  0  0  0  0  0  0  0
  1 17  1  0  0  0  0
  1  2  2  0  0  0  0
  1  3  5  0  0  0  0
  2 24  1  0  0  0  0
  2  4  5  0  0  0  0
  5  3  2  0  0  0  0
  5  7  1  0  0  0  0
  5  6  5  0  0  0  0
  6  4  2  0  0  0  0
  6  8  1  0  0  0  0
  7  9  1  0  0  0  0
  7 10  1  1  0  0  0
  8 11  1  1  0  0  0
  8  9  1  0  0  0  0
  9 12  1  0  0  0  0
 10 13  1  0  0  0  0
 11 13  1  0  0  0  0
 12 14  2  0  0  0  0
 12 26  1  0  0  0  0
 13 31  1  0  0  0  0
 15 16  2  0  0  0  0
 16 17  1  0  0  0  0
 16 18  1  0  0  0  0
 17 19  1  0  0  0  0
 18 20  1  0  0  0  0
 18 23  1  0  0  0  0
 19 21  1  0  0  0  0
 20 22  2  0  0  0  0
 20 21  1  0  0  0  0
 24 25  1  0  0  0  0
 26 27  1  0  0  0  0
 27 28  1  0  0  0  0
 27 29  1  0  0  0  0
 27 30  1  0  0  0  0
 31 32  1  0  0  0  0
 32 33  2  0  0  0  0
 32 34  5  0  0  0  0
 33 35  5  0  0  0  0
 34 36  2  0  0  0  0
 35 37  2  0  0  0  0
 36 37  5  0  0  0  0
M  END
>  <ID>
EDEL-CRBN-0013_ent

>  <Stereoisomer>
enantiomer

>  <MW>
492.24

>  <HBD>
1

>  <HBA>
6

>  <RotBonds>
4

>  <cLogP>
3.99

>  <minimizedAffinity>
-9.71276

>  <CNNscore>
0.8723109961

>  <CNNaffinity>
7.0751376152

>  <CNN_VS>
6.1717205048

>  <CNNaffinity_variance>
0.1427398324
> <Compound_ID>
EDEL-CRBN-0013_ent

> <Vina_dG_kcal_mol>
-9.710

> <CNN_pKd>
7.075

> <GBSA_dG_kcal_mol>
-42.867

> <GBSA_dG_std>
0.349

> <GBSA_VDWAALS>
-48.370

> <GBSA_EEL>
-1.445

> <GBSA_EGB>
11.909

> <GBSA_ESURF>
-4.960

> <GBSA_rank>
6

$$$$
EDEL-CRBN-0001
 OpenBabel09062620533D

 28 30  0  0  0  0  0  0  0  0999 V2000
   84.2787  154.7281   13.8259 C   0  0  0  0  0  0  0  0  0  0  0  0
   85.1962  153.7197   13.4847 C   0  0  0  0  0  0  0  0  0  0  0  0
   82.9822  154.3281   14.1752 C   0  0  0  0  0  0  0  0  0  0  0  0
   84.8479  152.3548   13.5047 C   0  0  0  0  0  0  0  0  0  0  0  0
   82.6156  152.9785   14.1870 C   0  0  0  0  0  0  0  0  0  0  0  0
   83.5424  151.9962   13.8518 C   0  0  0  0  0  0  0  0  0  0  0  0
   84.4234  156.5189   11.5339 O   0  0  0  0  0  0  0  0  0  0  0  0
   84.7050  156.8846   12.6723 C   0  0  0  0  0  0  0  0  0  0  0  0
   84.6639  156.1127   13.8381 N   0  0  0  0  0  0  0  0  0  0  0  0
   85.1187  158.1854   12.8446 N   0  0  0  0  0  0  0  0  0  0  0  0
   85.2357  156.6866   15.0536 C   0  0  0  0  0  0  0  0  0  0  0  0
   85.0835  158.9019   14.0072 C   0  0  0  0  0  0  0  0  0  0  0  0
   84.7780  158.1173   15.2445 C   0  0  0  0  0  0  0  0  0  0  0  0
   85.2153  160.1226   14.0155 O   0  0  0  0  0  0  0  0  0  0  0  0
   85.4756  158.6457   12.0509 H   0  0  0  0  0  0  0  0  0  0  0  0
   85.8488  151.2889   13.0965 C   0  0  0  0  0  0  0  0  0  0  0  0
   86.3973  151.4946   11.7494 N   0  0  0  0  0  0  0  0  0  0  0  0
   86.5891  150.2431   10.9740 C   0  0  1  0  0  0  0  0  0  0  0  0
   87.4668  152.4913   11.6936 C   0  0  0  0  0  0  0  0  0  0  0  0
   87.2893  150.3659    9.5855 C   0  0  0  0  0  0  0  0  0  0  0  0
   88.9168  152.0028   11.7543 C   0  0  0  0  0  0  0  0  0  0  0  0
   88.4899  151.2086    9.4279 N   0  0  0  0  0  0  0  0  0  0  0  0
   89.3857  151.1477   10.5736 C   0  0  0  0  0  0  0  0  0  0  0  0
   88.1928  152.1759    9.2994 H   0  0  0  0  0  0  0  0  0  0  0  0
   87.2251  149.0905   11.7706 C   0  0  0  0  0  0  0  0  0  0  0  0
   88.2807  149.0779   12.3833 O   0  0  0  0  0  0  0  0  0  0  0  0
   86.4515  147.9800   11.7741 O   0  0  0  0  0  0  0  0  0  0  0  0
   85.6384  147.9739   11.3086 H   0  0  0  0  0  0  0  0  0  0  0  0
  1  9  1  0  0  0  0
  1  2  2  0  0  0  0
  1  3  5  0  0  0  0
  2  4  5  0  0  0  0
  3  5  2  0  0  0  0
  4  6  2  0  0  0  0
  4 16  1  0  0  0  0
  5  6  5  0  0  0  0
  7  8  2  0  0  0  0
  8  9  1  0  0  0  0
  8 10  1  0  0  0  0
  9 11  1  0  0  0  0
 10 12  1  0  0  0  0
 10 15  1  0  0  0  0
 11 13  1  0  0  0  0
 12 14  2  0  0  0  0
 12 13  1  0  0  0  0
 16 17  1  0  0  0  0
 17 18  1  0  0  0  0
 17 19  1  0  0  0  0
 18 25  1  1  0  0  0
 18 20  1  0  0  0  0
 19 21  1  0  0  0  0
 20 22  1  0  0  0  0
 21 23  1  0  0  0  0
 22 23  1  0  0  0  0
 22 24  1  0  0  0  0
 25 26  2  0  0  0  0
 25 27  1  0  0  0  0
 27 28  1  0  0  0  0
M  END
>  <ID>
EDEL-CRBN-0001

>  <Stereoisomer>
original

>  <MW>
346.16

>  <HBD>
3

>  <HBA>
5

>  <RotBonds>
4

>  <cLogP>
0.38

>  <minimizedAffinity>
-8.58648

>  <CNNscore>
0.9658514261

>  <CNNaffinity>
7.0123391151

>  <CNN_VS>
6.7728776932

>  <CNNaffinity_variance>
0.7394548059
> <Compound_ID>
EDEL-CRBN-0001

> <Vina_dG_kcal_mol>
-8.590

> <CNN_pKd>
7.012

> <GBSA_dG_kcal_mol>
-42.023

> <GBSA_dG_std>
1.239

> <GBSA_VDWAALS>
-42.100

> <GBSA_EEL>
-7.141

> <GBSA_EGB>
10.808

> <GBSA_ESURF>
-3.590

> <GBSA_rank>
7

$$$$
EDEL-CRBN-0005
 OpenBabel09062620533D

 32 36  0  0  0  0  0  0  0  0999 V2000
   85.3429  148.4815   14.5056 O   0  0  0  0  0  0  0  0  0  0  0  0
   84.8895  149.3976   13.8251 C   0  0  0  0  0  0  0  0  0  0  0  0
   85.7241  150.4019   13.4342 N   0  0  0  0  0  0  0  0  0  0  0  0
   83.4632  149.4606   13.3000 C   0  0  2  0  0  0  0  0  0  0  0  0
   85.3735  151.4686   12.5389 C   0  0  0  0  0  0  0  0  0  0  0  0
   82.6495  150.6862   13.7407 C   0  0  2  0  0  0  0  0  0  0  0  0
   82.6128  148.3100   13.8349 C   0  0  0  0  0  0  0  0  0  0  0  0
   84.4586  152.4606   13.2020 C   0  0  0  0  0  0  0  0  0  0  0  0
   83.2201  152.0952   13.7550 C   0  0  0  0  0  0  0  0  0  0  0  0
   82.0330  150.2371   15.0850 C   0  0  0  0  0  0  0  0  0  0  0  0
   82.1569  148.7791   15.1425 N   0  0  0  0  0  0  0  0  0  0  0  0
   84.8743  153.8135   13.2416 C   0  0  0  0  0  0  0  0  0  0  0  0
   82.4323  153.1202   14.3103 C   0  0  0  0  0  0  0  0  0  0  0  0
   84.1011  154.8282   13.8192 C   0  0  0  0  0  0  0  0  0  0  0  0
   82.8645  154.4523   14.3486 C   0  0  0  0  0  0  0  0  0  0  0  0
   86.6403  150.3954   13.7943 H   0  0  0  0  0  0  0  0  0  0  0  0
   84.5475  156.1953   13.8448 N   0  0  0  0  0  0  0  0  0  0  0  0
   84.6550  156.9658   12.6797 C   0  0  0  0  0  0  0  0  0  0  0  0
   85.1324  156.7391   15.0679 C   0  0  0  0  0  0  0  0  0  0  0  0
   84.3658  156.6205   11.5370 O   0  0  0  0  0  0  0  0  0  0  0  0
   85.1436  158.2389   12.8607 N   0  0  0  0  0  0  0  0  0  0  0  0
   84.7514  158.1930   15.2525 C   0  0  0  0  0  0  0  0  0  0  0  0
   85.1190  158.9594   14.0210 C   0  0  0  0  0  0  0  0  0  0  0  0
   85.3064  160.1726   14.0305 O   0  0  0  0  0  0  0  0  0  0  0  0
   85.5511  158.6735   12.0769 H   0  0  0  0  0  0  0  0  0  0  0  0
   80.9728  148.0763   15.6315 C   0  0  0  0  0  0  0  0  0  0  0  0
   79.7014  148.8900   15.5080 C   0  0  0  0  0  0  0  0  0  0  0  0
   79.1790  149.5699   16.6189 C   0  0  0  0  0  0  0  0  0  0  0  0
   79.0082  148.9523   14.2905 C   0  0  0  0  0  0  0  0  0  0  0  0
   77.9984  150.3060   16.5114 C   0  0  0  0  0  0  0  0  0  0  0  0
   77.8261  149.6884   14.1849 C   0  0  0  0  0  0  0  0  0  0  0  0
   77.3224  150.3652   15.2945 C   0  0  0  0  0  0  0  0  0  0  0  0
  1  2  2  0  0  0  0
  2  3  1  0  0  0  0
  3  5  1  0  0  0  0
  3 16  1  0  0  0  0
  4  2  1  0  0  0  0
  4  6  1  0  0  0  0
  4  7  1  1  0  0  0
  6  9  1  0  0  0  0
  6 10  1  1  0  0  0
  7 11  1  0  0  0  0
  8  5  1  0  0  0  0
  8 12  2  0  0  0  0
  8  9  5  0  0  0  0
  9 13  2  0  0  0  0
 10 11  1  0  0  0  0
 11 26  1  0  0  0  0
 13 15  5  0  0  0  0
 14 12  5  0  0  0  0
 14 17  1  0  0  0  0
 14 15  2  0  0  0  0
 17 18  1  0  0  0  0
 17 19  1  0  0  0  0
 18 20  2  0  0  0  0
 18 21  1  0  0  0  0
 19 22  1  0  0  0  0
 21 23  1  0  0  0  0
 21 25  1  0  0  0  0
 22 23  1  0  0  0  0
 23 24  2  0  0  0  0
 26 27  1  0  0  0  0
 27 28  2  0  0  0  0
 27 29  5  0  0  0  0
 28 30  5  0  0  0  0
 29 31  2  0  0  0  0
 30 32  2  0  0  0  0
 31 32  5  0  0  0  0
M  END
>  <ID>
EDEL-CRBN-0005

>  <Stereoisomer>
original

>  <MW>
404.18

>  <HBD>
2

>  <HBA>
4

>  <RotBonds>
3

>  <cLogP>
1.98

>  <minimizedAffinity>
-10.16652

>  <CNNscore>
0.8544766903

>  <CNNaffinity>
7.0146789551

>  <CNN_VS>
5.9938797951

>  <CNNaffinity_variance>
0.0678329691
> <Compound_ID>
EDEL-CRBN-0005

> <Vina_dG_kcal_mol>
-10.170

> <CNN_pKd>
7.015

> <GBSA_dG_kcal_mol>
-41.825

> <GBSA_dG_std>
0.390

> <GBSA_VDWAALS>
-44.773

> <GBSA_EEL>
-4.384

> <GBSA_EGB>
11.595

> <GBSA_ESURF>
-4.263

> <GBSA_rank>
8

$$$$
EDEL-CRBN-0016
 OpenBabel09062620533D

 39 43  0  0  0  0  0  0  0  0999 V2000
   84.7514  153.9843   13.2628 C   0  0  0  0  0  0  0  0  0  0  0  0
   83.7161  153.1961   13.8089 C   0  0  0  0  0  0  0  0  0  0  0  0
   85.8118  153.3298   12.5750 C   0  0  0  0  0  0  0  0  0  0  0  0
   83.7887  151.8215   13.6848 C   0  0  0  0  0  0  0  0  0  0  0  0
   85.8533  151.9376   12.4104 C   0  0  0  0  0  0  0  0  0  0  0  0
   84.8421  151.1985   12.9834 C   0  0  0  0  0  0  0  0  0  0  0  0
   82.8870  150.7359   14.2235 C   0  0  1  0  0  0  0  0  0  0  0  0
   84.6265  149.7039   13.0611 C   0  0  2  0  0  0  0  0  0  0  0  0
   83.1809  149.6689   13.2691 N   0  0  0  0  0  0  0  0  0  0  0  0
   83.4104  150.2453   15.6159 C   0  0  0  0  0  0  0  0  0  0  0  0
   85.2732  149.1282   14.3657 C   0  0  0  0  0  0  0  0  0  0  0  0
   82.3987  148.5533   13.1742 C   0  0  0  0  0  0  0  0  0  0  0  0
   84.8597  149.8473   15.6099 N   0  0  0  0  0  0  0  0  0  0  0  0
   81.2808  148.4698   13.6631 O   0  0  0  0  0  0  0  0  0  0  0  0
   84.4446  155.8311   11.1041 O   0  0  0  0  0  0  0  0  0  0  0  0
   84.5973  156.2155   12.2599 C   0  0  0  0  0  0  0  0  0  0  0  0
   84.7095  155.4092   13.3894 N   0  0  0  0  0  0  0  0  0  0  0  0
   84.6315  157.5683   12.5114 N   0  0  0  0  0  0  0  0  0  0  0  0
   84.4837  156.0110   14.6935 C   0  0  0  0  0  0  0  0  0  0  0  0
   85.0246  158.1792   13.6709 C   0  0  0  0  0  0  0  0  0  0  0  0
   85.3144  157.2694   14.8300 C   0  0  0  0  0  0  0  0  0  0  0  0
   85.1963  159.3939   13.7311 O   0  0  0  0  0  0  0  0  0  0  0  0
   84.3422  158.1593   11.7791 H   0  0  0  0  0  0  0  0  0  0  0  0
   82.6305  153.7336   14.4446 O   0  0  0  0  0  0  0  0  0  0  0  0
   81.7828  152.7007   14.9459 C   0  0  0  0  0  0  0  0  0  0  0  0
   86.8681  154.0450   12.0551 O   0  0  0  0  0  0  0  0  0  0  0  0
   87.7819  153.1495   11.4144 C   0  0  0  0  0  0  0  0  0  0  0  0
   83.0251  147.5661   12.4857 O   0  0  0  0  0  0  0  0  0  0  0  0
   83.1953  146.2469   13.0638 C   0  0  0  0  0  0  0  0  0  0  0  0
   82.1443  145.2647   12.5358 C   0  0  0  0  0  0  0  0  0  0  0  0
   83.2076  146.3092   14.5951 C   0  0  0  0  0  0  0  0  0  0  0  0
   84.5804  145.7891   12.5814 C   0  0  0  0  0  0  0  0  0  0  0  0
   85.2489  149.1084   16.8160 C   0  0  0  0  0  0  0  0  0  0  0  0
   84.3417  149.3503   18.0041 C   0  0  0  0  0  0  0  0  0  0  0  0
   84.1841  148.3629   18.9878 C   0  0  0  0  0  0  0  0  0  0  0  0
   83.6758  150.5753   18.1655 C   0  0  0  0  0  0  0  0  0  0  0  0
   83.3655  148.5897   20.0962 C   0  0  0  0  0  0  0  0  0  0  0  0
   82.8543  150.7986   19.2712 C   0  0  0  0  0  0  0  0  0  0  0  0
   82.6998  149.8060   20.2364 C   0  0  0  0  0  0  0  0  0  0  0  0
  1 17  1  0  0  0  0
  1  2  2  0  0  0  0
  1  3  5  0  0  0  0
  2 24  1  0  0  0  0
  2  4  5  0  0  0  0
  3 26  1  0  0  0  0
  3  5  2  0  0  0  0
  4  6  2  0  0  0  0
  4  7  1  0  0  0  0
  5  6  5  0  0  0  0
  6  8  1  0  0  0  0
  7  9  1  0  0  0  0
  7 10  1  1  0  0  0
  8 11  1  1  0  0  0
  8  9  1  0  0  0  0
  9 12  1  0  0  0  0
 10 13  1  0  0  0  0
 11 13  1  0  0  0  0
 12 14  2  0  0  0  0
 12 28  1  0  0  0  0
 13 33  1  0  0  0  0
 15 16  2  0  0  0  0
 16 17  1  0  0  0  0
 16 18  1  0  0  0  0
 17 19  1  0  0  0  0
 18 20  1  0  0  0  0
 18 23  1  0  0  0  0
 19 21  1  0  0  0  0
 20 22  2  0  0  0  0
 20 21  1  0  0  0  0
 24 25  1  0  0  0  0
 26 27  1  0  0  0  0
 28 29  1  0  0  0  0
 29 30  1  0  0  0  0
 29 31  1  0  0  0  0
 29 32  1  0  0  0  0
 33 34  1  0  0  0  0
 34 35  2  0  0  0  0
 34 36  5  0  0  0  0
 35 37  5  0  0  0  0
 36 38  2  0  0  0  0
 37 39  2  0  0  0  0
 38 39  5  0  0  0  0
M  END
>  <ID>
EDEL-CRBN-0016

>  <Stereoisomer>
original

>  <MW>
522.25

>  <HBD>
1

>  <HBA>
7

>  <RotBonds>
5

>  <cLogP>
4.0

>  <minimizedAffinity>
-8.30065

>  <CNNscore>
0.7572116852

>  <CNNaffinity>
6.2036767006

>  <CNN_VS>
4.6974964142

>  <CNNaffinity_variance>
0.7517269254
> <Compound_ID>
EDEL-CRBN-0016

> <Vina_dG_kcal_mol>
-8.300

> <CNN_pKd>
6.204

> <GBSA_dG_kcal_mol>
-41.430

> <GBSA_dG_std>
0.503

> <GBSA_VDWAALS>
-46.685

> <GBSA_EEL>
-3.133

> <GBSA_EGB>
13.255

> <GBSA_ESURF>
-4.866

> <GBSA_rank>
9

$$$$
EDEL-CRBN-0014_ent
 OpenBabel09062620533D

 37 41  0  0  0  0  0  0  0  0999 V2000
   83.9230  154.8624   14.0147 C   0  0  0  0  0  0  0  0  0  0  0  0
   84.7857  153.7642   13.8162 C   0  0  0  0  0  0  0  0  0  0  0  0
   82.5438  154.6178   14.2452 C   0  0  0  0  0  0  0  0  0  0  0  0
   84.2683  152.4881   13.9264 C   0  0  0  0  0  0  0  0  0  0  0  0
   82.0241  153.3191   14.3375 C   0  0  0  0  0  0  0  0  0  0  0  0
   82.8998  152.2671   14.1841 C   0  0  0  0  0  0  0  0  0  0  0  0
   84.9472  151.1418   13.8417 C   0  0  2  0  0  0  0  0  0  0  0  0
   82.6853  150.7726   14.2732 C   0  0  1  0  0  0  0  0  0  0  0  0
   83.8079  150.3087   13.4615 N   0  0  0  0  0  0  0  0  0  0  0  0
   85.3872  150.6705   15.2690 C   0  0  0  0  0  0  0  0  0  0  0  0
   82.9562  150.2665   15.7299 C   0  0  0  0  0  0  0  0  0  0  0  0
   83.9711  149.0345   12.9981 C   0  0  0  0  0  0  0  0  0  0  0  0
   84.2781  150.6937   16.2824 N   0  0  0  0  0  0  0  0  0  0  0  0
   85.0436  148.5866   12.6173 O   0  0  0  0  0  0  0  0  0  0  0  0
   84.3096  156.4312   11.6360 O   0  0  0  0  0  0  0  0  0  0  0  0
   84.5229  156.8873   12.7551 C   0  0  0  0  0  0  0  0  0  0  0  0
   84.4068  156.2093   13.9712 N   0  0  0  0  0  0  0  0  0  0  0  0
   84.9637  158.1883   12.8581 N   0  0  0  0  0  0  0  0  0  0  0  0
   85.0988  156.7614   15.1255 C   0  0  0  0  0  0  0  0  0  0  0  0
   85.0725  158.9408   13.9948 C   0  0  0  0  0  0  0  0  0  0  0  0
   84.7693  158.2306   15.2805 C   0  0  0  0  0  0  0  0  0  0  0  0
   85.3362  160.1393   13.9528 O   0  0  0  0  0  0  0  0  0  0  0  0
   85.2309  158.6262   12.0178 H   0  0  0  0  0  0  0  0  0  0  0  0
   86.1079  153.8932   13.4944 O   0  0  0  0  0  0  0  0  0  0  0  0
   86.3012  153.7278   12.0907 C   0  0  0  0  0  0  0  0  0  0  0  0
   82.8036  148.3433   13.0276 O   0  0  0  0  0  0  0  0  0  0  0  0
   82.7165  147.0562   13.6903 C   0  0  0  0  0  0  0  0  0  0  0  0
   82.8945  145.9024   12.6979 C   0  0  0  0  0  0  0  0  0  0  0  0
   81.2863  147.0056   14.2499 C   0  0  0  0  0  0  0  0  0  0  0  0
   83.7020  146.9666   14.8608 C   0  0  0  0  0  0  0  0  0  0  0  0
   84.6141  149.9613   17.5080 C   0  0  0  0  0  0  0  0  0  0  0  0
   83.4385  149.7449   18.4376 C   0  0  0  0  0  0  0  0  0  0  0  0
   83.6356  149.3388   19.7666 C   0  0  0  0  0  0  0  0  0  0  0  0
   82.1301  149.9873   17.9941 C   0  0  0  0  0  0  0  0  0  0  0  0
   82.5497  149.1576   20.6240 C   0  0  0  0  0  0  0  0  0  0  0  0
   81.0447  149.8102   18.8548 C   0  0  0  0  0  0  0  0  0  0  0  0
   81.2547  149.3939   20.1681 C   0  0  0  0  0  0  0  0  0  0  0  0
  1 17  1  0  0  0  0
  1  2  2  0  0  0  0
  1  3  5  0  0  0  0
  2 24  1  0  0  0  0
  2  4  5  0  0  0  0
  3  5  2  0  0  0  0
  4  6  2  0  0  0  0
  4  7  1  0  0  0  0
  5  6  5  0  0  0  0
  6  8  1  0  0  0  0
  7  9  1  0  0  0  0
  7 10  1  1  0  0  0
  8 11  1  1  0  0  0
  8  9  1  0  0  0  0
  9 12  1  0  0  0  0
 10 13  1  0  0  0  0
 11 13  1  0  0  0  0
 12 14  2  0  0  0  0
 12 26  1  0  0  0  0
 13 31  1  0  0  0  0
 15 16  2  0  0  0  0
 16 17  1  0  0  0  0
 16 18  1  0  0  0  0
 17 19  1  0  0  0  0
 18 20  1  0  0  0  0
 18 23  1  0  0  0  0
 19 21  1  0  0  0  0
 20 22  2  0  0  0  0
 20 21  1  0  0  0  0
 24 25  1  0  0  0  0
 26 27  1  0  0  0  0
 27 28  1  0  0  0  0
 27 29  1  0  0  0  0
 27 30  1  0  0  0  0
 31 32  1  0  0  0  0
 32 33  2  0  0  0  0
 32 34  5  0  0  0  0
 33 35  5  0  0  0  0
 34 36  2  0  0  0  0
 35 37  2  0  0  0  0
 36 37  5  0  0  0  0
M  END
>  <ID>
EDEL-CRBN-0014_ent

>  <Stereoisomer>
enantiomer

>  <MW>
492.24

>  <HBD>
1

>  <HBA>
6

>  <RotBonds>
4

>  <cLogP>
3.99

>  <minimizedAffinity>
-8.73680

>  <CNNscore>
0.8841939569

>  <CNNaffinity>
6.9701366425

>  <CNN_VS>
6.1629528999

>  <CNNaffinity_variance>
0.1928734779
> <Compound_ID>
EDEL-CRBN-0014_ent

> <Vina_dG_kcal_mol>
-8.740

> <CNN_pKd>
6.970

> <GBSA_dG_kcal_mol>
-40.994

> <GBSA_dG_std>
0.286

> <GBSA_VDWAALS>
-45.099

> <GBSA_EEL>
-4.680

> <GBSA_EGB>
13.001

> <GBSA_ESURF>
-4.216

> <GBSA_rank>
10

$$$$
EDEL-CRBN-0016_ent
 OpenBabel09062620533D

 39 43  0  0  0  0  0  0  0  0999 V2000
   85.2411  153.8864   13.3399 C   0  0  0  0  0  0  0  0  0  0  0  0
   86.3530  153.2967   12.7042 C   0  0  0  0  0  0  0  0  0  0  0  0
   84.2065  153.0554   13.8547 C   0  0  0  0  0  0  0  0  0  0  0  0
   86.3746  151.9258   12.5487 C   0  0  0  0  0  0  0  0  0  0  0  0
   84.2547  151.6597   13.7162 C   0  0  0  0  0  0  0  0  0  0  0  0
   85.3408  151.1151   13.0619 C   0  0  0  0  0  0  0  0  0  0  0  0
   87.4050  151.0176   11.9200 C   0  0  2  0  0  0  0  0  0  0  0  0
   85.6993  149.6745   12.7731 C   0  0  1  0  0  0  0  0  0  0  0  0
   86.5694  149.8593   11.6140 N   0  0  0  0  0  0  0  0  0  0  0  0
   88.4367  150.5405   12.9968 C   0  0  0  0  0  0  0  0  0  0  0  0
   86.6035  149.1043   13.9186 C   0  0  0  0  0  0  0  0  0  0  0  0
   87.0016  148.8583   10.7908 C   0  0  0  0  0  0  0  0  0  0  0  0
   87.8006  149.9566   14.2219 N   0  0  0  0  0  0  0  0  0  0  0  0
   87.9807  148.9597   10.0646 O   0  0  0  0  0  0  0  0  0  0  0  0
   84.7887  155.6852   11.1396 O   0  0  0  0  0  0  0  0  0  0  0  0
   85.0777  156.0880   12.2645 C   0  0  0  0  0  0  0  0  0  0  0  0
   85.1499  155.3094   13.4124 N   0  0  0  0  0  0  0  0  0  0  0  0
   85.2552  157.4359   12.4700 N   0  0  0  0  0  0  0  0  0  0  0  0
   85.5838  155.9303   14.6569 C   0  0  0  0  0  0  0  0  0  0  0  0
   84.9983  158.0924   13.6428 C   0  0  0  0  0  0  0  0  0  0  0  0
   84.8497  157.2352   14.8690 C   0  0  0  0  0  0  0  0  0  0  0  0
   84.8148  159.3072   13.6671 O   0  0  0  0  0  0  0  0  0  0  0  0
   85.5932  157.9698   11.7151 H   0  0  0  0  0  0  0  0  0  0  0  0
   87.4104  154.0175   12.2188 O   0  0  0  0  0  0  0  0  0  0  0  0
   87.6037  153.7476   10.8276 C   0  0  0  0  0  0  0  0  0  0  0  0
   83.0749  153.6539   14.3628 O   0  0  0  0  0  0  0  0  0  0  0  0
   82.1221  152.7023   14.8380 C   0  0  0  0  0  0  0  0  0  0  0  0
   86.2220  147.7538   10.9011 O   0  0  0  0  0  0  0  0  0  0  0  0
   86.8083  146.4451   11.1170 C   0  0  0  0  0  0  0  0  0  0  0  0
   88.1028  146.5449   11.9313 C   0  0  0  0  0  0  0  0  0  0  0  0
   87.0161  145.7000    9.7943 C   0  0  0  0  0  0  0  0  0  0  0  0
   85.7637  145.6856   11.9492 C   0  0  0  0  0  0  0  0  0  0  0  0
   88.7878  149.2699   15.0613 C   0  0  0  0  0  0  0  0  0  0  0  0
   89.6920  150.2204   15.8167 C   0  0  0  0  0  0  0  0  0  0  0  0
   90.8579  150.7230   15.2217 C   0  0  0  0  0  0  0  0  0  0  0  0
   89.3667  150.6279   17.1199 C   0  0  0  0  0  0  0  0  0  0  0  0
   91.6831  151.6079   15.9186 C   0  0  0  0  0  0  0  0  0  0  0  0
   90.1933  151.5114   17.8149 C   0  0  0  0  0  0  0  0  0  0  0  0
   91.3510  152.0011   17.2140 C   0  0  0  0  0  0  0  0  0  0  0  0
  1 17  1  0  0  0  0
  1  2  2  0  0  0  0
  1  3  5  0  0  0  0
  2 24  1  0  0  0  0
  2  4  5  0  0  0  0
  3 26  1  0  0  0  0
  3  5  2  0  0  0  0
  4  6  2  0  0  0  0
  4  7  1  0  0  0  0
  5  6  5  0  0  0  0
  6  8  1  0  0  0  0
  7  9  1  0  0  0  0
  7 10  1  1  0  0  0
  8 11  1  1  0  0  0
  8  9  1  0  0  0  0
  9 12  1  0  0  0  0
 10 13  1  0  0  0  0
 11 13  1  0  0  0  0
 12 14  2  0  0  0  0
 12 28  1  0  0  0  0
 13 33  1  0  0  0  0
 15 16  2  0  0  0  0
 16 17  1  0  0  0  0
 16 18  1  0  0  0  0
 17 19  1  0  0  0  0
 18 20  1  0  0  0  0
 18 23  1  0  0  0  0
 19 21  1  0  0  0  0
 20 22  2  0  0  0  0
 20 21  1  0  0  0  0
 24 25  1  0  0  0  0
 26 27  1  0  0  0  0
 28 29  1  0  0  0  0
 29 30  1  0  0  0  0
 29 31  1  0  0  0  0
 29 32  1  0  0  0  0
 33 34  1  0  0  0  0
 34 35  2  0  0  0  0
 34 36  5  0  0  0  0
 35 37  5  0  0  0  0
 36 38  2  0  0  0  0
 37 39  2  0  0  0  0
 38 39  5  0  0  0  0
M  END
>  <ID>
EDEL-CRBN-0016_ent

>  <Stereoisomer>
enantiomer

>  <MW>
522.25

>  <HBD>
1

>  <HBA>
7

>  <RotBonds>
5

>  <cLogP>
4.0

>  <minimizedAffinity>
-7.08491

>  <CNNscore>
0.6468017101

>  <CNNaffinity>
5.9995422363

>  <CNN_VS>
3.8805141449

>  <CNNaffinity_variance>
0.8845388889
> <Compound_ID>
EDEL-CRBN-0016_ent

> <Vina_dG_kcal_mol>
-7.080

> <CNN_pKd>
6.000

> <GBSA_dG_kcal_mol>
-40.788

> <GBSA_dG_std>
0.561

> <GBSA_VDWAALS>
-44.203

> <GBSA_EEL>
-3.606

> <GBSA_EGB>
11.563

> <GBSA_ESURF>
-4.543

> <GBSA_rank>
11

$$$$
EDEL-CRBN-0002_ent
 OpenBabel09062620533D

 30 32  0  0  0  0  0  0  0  0999 V2000
   84.3289  154.5182   13.6925 C   0  0  0  0  0  0  0  0  0  0  0  0
   85.1029  153.5795   12.9821 C   0  0  0  0  0  0  0  0  0  0  0  0
   83.1761  154.0726   14.3619 C   0  0  0  0  0  0  0  0  0  0  0  0
   84.7272  152.2315   12.9552 C   0  0  0  0  0  0  0  0  0  0  0  0
   82.8088  152.7169   14.3588 C   0  0  0  0  0  0  0  0  0  0  0  0
   83.5949  151.8029   13.6476 C   0  0  0  0  0  0  0  0  0  0  0  0
   84.3109  156.3141   11.4464 O   0  0  0  0  0  0  0  0  0  0  0  0
   84.5881  156.6961   12.5811 C   0  0  0  0  0  0  0  0  0  0  0  0
   84.6814  155.9035   13.7257 N   0  0  0  0  0  0  0  0  0  0  0  0
   84.8919  158.0255   12.7715 N   0  0  0  0  0  0  0  0  0  0  0  0
   85.4096  156.4306   14.8686 C   0  0  0  0  0  0  0  0  0  0  0  0
   85.0272  158.6804   13.9648 C   0  0  0  0  0  0  0  0  0  0  0  0
   84.9285  157.8279   15.1953 C   0  0  0  0  0  0  0  0  0  0  0  0
   85.1586  159.9004   14.0179 O   0  0  0  0  0  0  0  0  0  0  0  0
   85.0266  158.5645   11.9588 H   0  0  0  0  0  0  0  0  0  0  0  0
   86.1293  154.0359   12.1892 O   0  0  0  0  0  0  0  0  0  0  0  0
   87.0857  153.0254   11.8730 C   0  0  0  0  0  0  0  0  0  0  0  0
   81.5788  152.2473   15.1068 C   0  0  0  0  0  0  0  0  0  0  0  0
   81.5347  150.7904   15.3014 N   0  0  0  0  0  0  0  0  0  0  0  0
   80.1931  150.3551   15.7853 C   0  0  2  0  0  0  0  0  0  0  0  0
   82.6662  150.2438   16.0505 C   0  0  0  0  0  0  0  0  0  0  0  0
   80.1511  149.1385   16.7546 C   0  0  0  0  0  0  0  0  0  0  0  0
   82.7702  150.6050   17.5333 C   0  0  0  0  0  0  0  0  0  0  0  0
   80.6758  149.3237   18.1221 N   0  0  0  0  0  0  0  0  0  0  0  0
   81.4738  150.5226   18.3349 C   0  0  0  0  0  0  0  0  0  0  0  0
   81.2573  148.5163   18.3467 H   0  0  0  0  0  0  0  0  0  0  0  0
   79.3277  150.0519   14.5575 C   0  0  0  0  0  0  0  0  0  0  0  0
   79.3791  149.0321   13.8837 O   0  0  0  0  0  0  0  0  0  0  0  0
   78.3987  150.9903   14.2796 O   0  0  0  0  0  0  0  0  0  0  0  0
   78.3553  151.7731   14.7928 H   0  0  0  0  0  0  0  0  0  0  0  0
  1  9  1  0  0  0  0
  1  2  2  0  0  0  0
  1  3  5  0  0  0  0
  2 16  1  0  0  0  0
  2  4  5  0  0  0  0
  3  5  2  0  0  0  0
  4  6  2  0  0  0  0
  5 18  1  0  0  0  0
  5  6  5  0  0  0  0
  7  8  2  0  0  0  0
  8  9  1  0  0  0  0
  8 10  1  0  0  0  0
  9 11  1  0  0  0  0
 10 12  1  0  0  0  0
 10 15  1  0  0  0  0
 11 13  1  0  0  0  0
 12 14  2  0  0  0  0
 12 13  1  0  0  0  0
 16 17  1  0  0  0  0
 18 19  1  0  0  0  0
 19 20  1  0  0  0  0
 19 21  1  0  0  0  0
 20 27  1  6  0  0  0
 20 22  1  0  0  0  0
 21 23  1  0  0  0  0
 22 24  1  0  0  0  0
 23 25  1  0  0  0  0
 24 25  1  0  0  0  0
 24 26  1  0  0  0  0
 27 28  2  0  0  0  0
 27 29  1  0  0  0  0
 29 30  1  0  0  0  0
M  END
>  <ID>
EDEL-CRBN-0002_ent

>  <Stereoisomer>
enantiomer

>  <MW>
376.17

>  <HBD>
3

>  <HBA>
6

>  <RotBonds>
5

>  <cLogP>
0.39

>  <minimizedAffinity>
-9.01392

>  <CNNscore>
0.9268664718

>  <CNNaffinity>
6.6645865440

>  <CNN_VS>
6.1771817207

>  <CNNaffinity_variance>
0.0717135146
> <Compound_ID>
EDEL-CRBN-0002_ent

> <Vina_dG_kcal_mol>
-9.010

> <CNN_pKd>
6.665

> <GBSA_dG_kcal_mol>
-40.308

> <GBSA_dG_std>
0.414

> <GBSA_VDWAALS>
-42.817

> <GBSA_EEL>
-3.146

> <GBSA_EGB>
10.114

> <GBSA_ESURF>
-4.459

> <GBSA_rank>
12

$$$$
EDEL-CRBN-0006
 OpenBabel09062620533D

 34 38  0  0  0  0  0  0  0  0999 V2000
   86.9118  150.1164    8.8615 O   0  0  0  0  0  0  0  0  0  0  0  0
   87.2373  150.3893   10.0183 C   0  0  0  0  0  0  0  0  0  0  0  0
   87.8739  151.5652   10.2556 N   0  0  0  0  0  0  0  0  0  0  0  0
   86.9910  149.4084   11.1442 C   0  0  2  0  0  0  0  0  0  0  0  0
   88.1442  152.1389   11.5469 C   0  0  0  0  0  0  0  0  0  0  0  0
   86.3625  149.8919   12.4623 C   0  0  2  0  0  0  0  0  0  0  0  0
   88.2692  148.6778   11.5496 C   0  0  0  0  0  0  0  0  0  0  0  0
   86.8581  152.4055   12.2788 C   0  0  0  0  0  0  0  0  0  0  0  0
   86.0165  151.3513   12.6716 C   0  0  0  0  0  0  0  0  0  0  0  0
   87.3181  149.3683   13.5514 C   0  0  0  0  0  0  0  0  0  0  0  0
   88.0816  148.2605   12.9527 N   0  0  0  0  0  0  0  0  0  0  0  0
   86.4907  153.7387   12.5587 C   0  0  0  0  0  0  0  0  0  0  0  0
   84.8180  151.6691   13.3281 C   0  0  0  0  0  0  0  0  0  0  0  0
   85.2971  154.0654   13.2206 C   0  0  0  0  0  0  0  0  0  0  0  0
   84.4510  153.0000   13.5688 C   0  0  0  0  0  0  0  0  0  0  0  0
   88.1795  152.0731    9.4695 H   0  0  0  0  0  0  0  0  0  0  0  0
   85.0067  155.4376   13.5338 N   0  0  0  0  0  0  0  0  0  0  0  0
   84.7257  156.3733   12.5371 C   0  0  0  0  0  0  0  0  0  0  0  0
   84.8190  155.8368   14.9248 C   0  0  0  0  0  0  0  0  0  0  0  0
   84.6922  156.1606   11.3273 O   0  0  0  0  0  0  0  0  0  0  0  0
   84.4591  157.6450   12.9849 N   0  0  0  0  0  0  0  0  0  0  0  0
   85.4138  157.2073   15.1742 C   0  0  0  0  0  0  0  0  0  0  0  0
   84.8535  158.1779   14.1801 C   0  0  0  0  0  0  0  0  0  0  0  0
   84.8250  159.3883   14.3839 O   0  0  0  0  0  0  0  0  0  0  0  0
   83.9346  158.2269   12.3887 H   0  0  0  0  0  0  0  0  0  0  0  0
   83.2195  153.2055   14.1437 O   0  0  0  0  0  0  0  0  0  0  0  0
   82.6750  154.4473   13.6870 C   0  0  0  0  0  0  0  0  0  0  0  0
   87.3557  146.9823   13.0718 C   0  0  0  0  0  0  0  0  0  0  0  0
   86.2928  147.0017   14.1503 C   0  0  0  0  0  0  0  0  0  0  0  0
   84.9355  146.8816   13.8153 C   0  0  0  0  0  0  0  0  0  0  0  0
   86.6479  147.1197   15.5019 C   0  0  0  0  0  0  0  0  0  0  0  0
   83.9553  146.8858   14.8087 C   0  0  0  0  0  0  0  0  0  0  0  0
   85.6658  147.1238   16.4945 C   0  0  0  0  0  0  0  0  0  0  0  0
   84.3209  147.0067   16.1479 C   0  0  0  0  0  0  0  0  0  0  0  0
  1  2  2  0  0  0  0
  2  3  1  0  0  0  0
  3  5  1  0  0  0  0
  3 16  1  0  0  0  0
  4  2  1  0  0  0  0
  4  6  1  0  0  0  0
  4  7  1  1  0  0  0
  6  9  1  0  0  0  0
  6 10  1  1  0  0  0
  7 11  1  0  0  0  0
  8  5  1  0  0  0  0
  8 12  2  0  0  0  0
  8  9  5  0  0  0  0
  9 13  2  0  0  0  0
 10 11  1  0  0  0  0
 11 28  1  0  0  0  0
 13 15  5  0  0  0  0
 14 12  5  0  0  0  0
 14 17  1  0  0  0  0
 14 15  2  0  0  0  0
 15 26  1  0  0  0  0
 17 18  1  0  0  0  0
 17 19  1  0  0  0  0
 18 20  2  0  0  0  0
 18 21  1  0  0  0  0
 19 22  1  0  0  0  0
 21 23  1  0  0  0  0
 21 25  1  0  0  0  0
 22 23  1  0  0  0  0
 23 24  2  0  0  0  0
 26 27  1  0  0  0  0
 28 29  1  0  0  0  0
 29 30  2  0  0  0  0
 29 31  5  0  0  0  0
 30 32  5  0  0  0  0
 31 33  2  0  0  0  0
 32 34  2  0  0  0  0
 33 34  5  0  0  0  0
M  END
>  <ID>
EDEL-CRBN-0006

>  <Stereoisomer>
original

>  <MW>
434.2

>  <HBD>
2

>  <HBA>
5

>  <RotBonds>
4

>  <cLogP>
1.99

>  <minimizedAffinity>
-6.52341

>  <CNNscore>
0.5001559258

>  <CNNaffinity>
6.1107387543

>  <CNN_VS>
3.0563220978

>  <CNNaffinity_variance>
0.1932324618
> <Compound_ID>
EDEL-CRBN-0006

> <Vina_dG_kcal_mol>
-6.520

> <CNN_pKd>
6.111

> <GBSA_dG_kcal_mol>
-39.628

> <GBSA_dG_std>
0.293

> <GBSA_VDWAALS>
-44.256

> <GBSA_EEL>
-3.432

> <GBSA_EGB>
12.302

> <GBSA_ESURF>
-4.241

> <GBSA_rank>
13

$$$$
EDEL-CRBN-0002
 OpenBabel09062620533D

 30 32  0  0  0  0  0  0  0  0999 V2000
   84.3227  154.3472   13.7373 C   0  0  0  0  0  0  0  0  0  0  0  0
   85.1017  153.3821   13.0721 C   0  0  0  0  0  0  0  0  0  0  0  0
   83.1613  153.9262   14.4088 C   0  0  0  0  0  0  0  0  0  0  0  0
   84.7193  152.0363   13.0889 C   0  0  0  0  0  0  0  0  0  0  0  0
   82.7866  152.5714   14.4580 C   0  0  0  0  0  0  0  0  0  0  0  0
   83.5768  151.6349   13.7828 C   0  0  0  0  0  0  0  0  0  0  0  0
   84.2712  156.0728   11.4348 O   0  0  0  0  0  0  0  0  0  0  0  0
   84.5668  156.4888   12.5527 C   0  0  0  0  0  0  0  0  0  0  0  0
   84.6744  155.7333   13.7211 N   0  0  0  0  0  0  0  0  0  0  0  0
   84.8771  157.8229   12.6952 N   0  0  0  0  0  0  0  0  0  0  0  0
   85.4205  156.2963   14.8353 C   0  0  0  0  0  0  0  0  0  0  0  0
   85.0300  158.5164   13.8642 C   0  0  0  0  0  0  0  0  0  0  0  0
   84.9472  157.7049   15.1230 C   0  0  0  0  0  0  0  0  0  0  0  0
   85.1635  159.7372   13.8757 O   0  0  0  0  0  0  0  0  0  0  0  0
   85.0028  158.3343   11.8634 H   0  0  0  0  0  0  0  0  0  0  0  0
   86.1379  153.8033   12.2728 O   0  0  0  0  0  0  0  0  0  0  0  0
   86.9472  152.7293   11.7952 C   0  0  0  0  0  0  0  0  0  0  0  0
   81.5418  152.1416   15.2101 C   0  0  0  0  0  0  0  0  0  0  0  0
   81.7234  151.2063   16.3406 N   0  0  0  0  0  0  0  0  0  0  0  0
   81.8044  149.7767   15.9223 C   0  0  1  0  0  0  0  0  0  0  0  0
   82.8118  151.6269   17.2325 C   0  0  0  0  0  0  0  0  0  0  0  0
   81.9671  148.7217   17.0519 C   0  0  0  0  0  0  0  0  0  0  0  0
   82.6995  151.0122   18.6266 C   0  0  0  0  0  0  0  0  0  0  0  0
   83.2939  148.7268   17.6755 N   0  0  0  0  0  0  0  0  0  0  0  0
   83.4129  149.6714   18.7802 C   0  0  0  0  0  0  0  0  0  0  0  0
   83.9837  148.9719   16.9652 H   0  0  0  0  0  0  0  0  0  0  0  0
   80.5302  149.3697   15.1725 C   0  0  0  0  0  0  0  0  0  0  0  0
   80.4539  149.0876   13.9852 O   0  0  0  0  0  0  0  0  0  0  0  0
   79.4147  149.3576   15.9342 O   0  0  0  0  0  0  0  0  0  0  0  0
   79.4666  149.5728   16.8447 H   0  0  0  0  0  0  0  0  0  0  0  0
  1  9  1  0  0  0  0
  1  2  2  0  0  0  0
  1  3  5  0  0  0  0
  2 16  1  0  0  0  0
  2  4  5  0  0  0  0
  3  5  2  0  0  0  0
  4  6  2  0  0  0  0
  5 18  1  0  0  0  0
  5  6  5  0  0  0  0
  7  8  2  0  0  0  0
  8  9  1  0  0  0  0
  8 10  1  0  0  0  0
  9 11  1  0  0  0  0
 10 12  1  0  0  0  0
 10 15  1  0  0  0  0
 11 13  1  0  0  0  0
 12 14  2  0  0  0  0
 12 13  1  0  0  0  0
 16 17  1  0  0  0  0
 18 19  1  0  0  0  0
 19 20  1  0  0  0  0
 19 21  1  0  0  0  0
 20 27  1  1  0  0  0
 20 22  1  0  0  0  0
 21 23  1  0  0  0  0
 22 24  1  0  0  0  0
 23 25  1  0  0  0  0
 24 25  1  0  0  0  0
 24 26  1  0  0  0  0
 27 28  2  0  0  0  0
 27 29  1  0  0  0  0
 29 30  1  0  0  0  0
M  END
>  <ID>
EDEL-CRBN-0002

>  <Stereoisomer>
original

>  <MW>
376.17

>  <HBD>
3

>  <HBA>
6

>  <RotBonds>
5

>  <cLogP>
0.39

>  <minimizedAffinity>
-8.46224

>  <CNNscore>
0.9051148295

>  <CNNaffinity>
6.8049044609

>  <CNN_VS>
6.1592197418

>  <CNNaffinity_variance>
0.0912517235
> <Compound_ID>
EDEL-CRBN-0002

> <Vina_dG_kcal_mol>
-8.460

> <CNN_pKd>
6.805

> <GBSA_dG_kcal_mol>
-39.563

> <GBSA_dG_std>
0.389

> <GBSA_VDWAALS>
-41.377

> <GBSA_EEL>
-2.393

> <GBSA_EGB>
8.408

> <GBSA_ESURF>
-4.201

> <GBSA_rank>
14

$$$$
EDEL-CRBN-0014
 OpenBabel09062620533D

 37 41  0  0  0  0  0  0  0  0999 V2000
   85.3749  153.9858   13.3064 C   0  0  0  0  0  0  0  0  0  0  0  0
   84.8363  153.0365   14.2028 C   0  0  0  0  0  0  0  0  0  0  0  0
   86.2553  153.5290   12.2912 C   0  0  0  0  0  0  0  0  0  0  0  0
   85.2393  151.7172   14.1032 C   0  0  0  0  0  0  0  0  0  0  0  0
   86.6407  152.1856   12.1797 C   0  0  0  0  0  0  0  0  0  0  0  0
   86.1324  151.2958   13.0984 C   0  0  0  0  0  0  0  0  0  0  0  0
   84.9064  150.5157   14.9552 C   0  0  1  0  0  0  0  0  0  0  0  0
   86.3867  149.8181   13.2947 C   0  0  2  0  0  0  0  0  0  0  0  0
   85.1629  149.4431   13.9950 N   0  0  0  0  0  0  0  0  0  0  0  0
   85.9690  150.3517   16.0933 C   0  0  0  0  0  0  0  0  0  0  0  0
   87.5614  149.6012   14.3084 C   0  0  0  0  0  0  0  0  0  0  0  0
   84.8003  148.1366   14.1600 C   0  0  0  0  0  0  0  0  0  0  0  0
   87.3853  150.3362   15.6059 N   0  0  0  0  0  0  0  0  0  0  0  0
   85.3092  147.2130   13.5401 O   0  0  0  0  0  0  0  0  0  0  0  0
   85.4552  155.9217   11.1631 O   0  0  0  0  0  0  0  0  0  0  0  0
   85.1893  156.2457   12.3177 C   0  0  0  0  0  0  0  0  0  0  0  0
   85.1059  155.3927   13.4175 N   0  0  0  0  0  0  0  0  0  0  0  0
   84.9340  157.5699   12.5844 N   0  0  0  0  0  0  0  0  0  0  0  0
   84.5922  155.9306   14.6726 C   0  0  0  0  0  0  0  0  0  0  0  0
   85.0476  158.1820   13.8015 C   0  0  0  0  0  0  0  0  0  0  0  0
   85.2291  157.2706   14.9773 C   0  0  0  0  0  0  0  0  0  0  0  0
   85.0801  159.4053   13.9044 O   0  0  0  0  0  0  0  0  0  0  0  0
   84.6423  158.1295   11.8287 H   0  0  0  0  0  0  0  0  0  0  0  0
   83.9118  153.3537   15.1618 O   0  0  0  0  0  0  0  0  0  0  0  0
   82.6038  152.9956   14.7036 C   0  0  0  0  0  0  0  0  0  0  0  0
   83.8283  148.0062   15.0974 O   0  0  0  0  0  0  0  0  0  0  0  0
   82.4348  147.8845   14.7145 C   0  0  0  0  0  0  0  0  0  0  0  0
   82.0362  146.4664   15.1512 C   0  0  0  0  0  0  0  0  0  0  0  0
   82.2652  147.9934   13.1951 C   0  0  0  0  0  0  0  0  0  0  0  0
   81.5582  148.8923   15.4655 C   0  0  0  0  0  0  0  0  0  0  0  0
   88.3049  149.8695   16.6487 C   0  0  0  0  0  0  0  0  0  0  0  0
   89.5817  150.6786   16.7258 C   0  0  0  0  0  0  0  0  0  0  0  0
   89.9650  151.2893   17.9297 C   0  0  0  0  0  0  0  0  0  0  0  0
   90.4078  150.8202   15.6019 C   0  0  0  0  0  0  0  0  0  0  0  0
   91.1456  152.0292   18.0063 C   0  0  0  0  0  0  0  0  0  0  0  0
   91.5892  151.5603   15.6805 C   0  0  0  0  0  0  0  0  0  0  0  0
   91.9575  152.1639   16.8818 C   0  0  0  0  0  0  0  0  0  0  0  0
  1 17  1  0  0  0  0
  1  2  2  0  0  0  0
  1  3  5  0  0  0  0
  2 24  1  0  0  0  0
  2  4  5  0  0  0  0
  3  5  2  0  0  0  0
  4  6  2  0  0  0  0
  4  7  1  0  0  0  0
  5  6  5  0  0  0  0
  6  8  1  0  0  0  0
  7  9  1  0  0  0  0
  7 10  1  1  0  0  0
  8 11  1  1  0  0  0
  8  9  1  0  0  0  0
  9 12  1  0  0  0  0
 10 13  1  0  0  0  0
 11 13  1  0  0  0  0
 12 14  2  0  0  0  0
 12 26  1  0  0  0  0
 13 31  1  0  0  0  0
 15 16  2  0  0  0  0
 16 17  1  0  0  0  0
 16 18  1  0  0  0  0
 17 19  1  0  0  0  0
 18 20  1  0  0  0  0
 18 23  1  0  0  0  0
 19 21  1  0  0  0  0
 20 22  2  0  0  0  0
 20 21  1  0  0  0  0
 24 25  1  0  0  0  0
 26 27  1  0  0  0  0
 27 28  1  0  0  0  0
 27 29  1  0  0  0  0
 27 30  1  0  0  0  0
 31 32  1  0  0  0  0
 32 33  2  0  0  0  0
 32 34  5  0  0  0  0
 33 35  5  0  0  0  0
 34 36  2  0  0  0  0
 35 37  2  0  0  0  0
 36 37  5  0  0  0  0
M  END
>  <ID>
EDEL-CRBN-0014

>  <Stereoisomer>
original

>  <MW>
492.24

>  <HBD>
1

>  <HBA>
6

>  <RotBonds>
4

>  <cLogP>
3.99

>  <minimizedAffinity>
-8.47006

>  <CNNscore>
0.6648172736

>  <CNNaffinity>
6.6238293648

>  <CNN_VS>
4.4036359787

>  <CNNaffinity_variance>
0.1652669460
> <Compound_ID>
EDEL-CRBN-0014

> <Vina_dG_kcal_mol>
-8.470

> <CNN_pKd>
6.624

> <GBSA_dG_kcal_mol>
-39.478

> <GBSA_dG_std>
0.469

> <GBSA_VDWAALS>
-43.472

> <GBSA_EEL>
-3.312

> <GBSA_EGB>
11.576

> <GBSA_ESURF>
-4.270

> <GBSA_rank>
15

$$$$
EDEL-CRBN-0011_ent
 OpenBabel09062620533D

 35 39  0  0  0  0  0  0  0  0999 V2000
   86.1143  148.5629   15.5780 N   0  0  0  0  0  0  0  0  0  0  0  0
   85.1046  148.9017   16.5850 C   0  0  0  0  0  0  0  0  0  0  0  0
   85.6428  148.6020   14.1937 C   0  0  0  0  0  0  0  0  0  0  0  0
   84.0918  149.9240   16.0766 C   0  0  0  0  0  0  0  0  0  0  0  0
   84.1527  148.2801   14.1105 C   0  0  0  0  0  0  0  0  0  0  0  0
   83.3665  149.3816   14.8334 C   0  0  1  0  0  0  0  0  0  0  0  0
   82.0452  148.8707   15.2125 O   0  0  0  0  0  0  0  0  0  0  0  0
   82.6755  150.4243   13.8904 C   0  0  1  0  0  0  0  0  0  0  0  0
   81.4151  150.0688   14.6925 C   0  0  0  0  0  0  0  0  0  0  0  0
   83.2226  151.9137   13.7951 C   0  0  0  0  0  0  0  0  0  0  0  0
   84.4520  152.2620   13.2118 C   0  0  0  0  0  0  0  0  0  0  0  0
   82.4665  152.9885   14.2976 C   0  0  0  0  0  0  0  0  0  0  0  0
   84.8941  153.5939   13.1316 C   0  0  0  0  0  0  0  0  0  0  0  0
   82.9147  154.3179   14.2485 C   0  0  0  0  0  0  0  0  0  0  0  0
   84.1508  154.6495   13.6842 C   0  0  0  0  0  0  0  0  0  0  0  0
   84.6172  156.0072   13.7245 N   0  0  0  0  0  0  0  0  0  0  0  0
   84.6184  156.8202   12.5913 C   0  0  0  0  0  0  0  0  0  0  0  0
   85.2511  156.5151   14.9375 C   0  0  0  0  0  0  0  0  0  0  0  0
   84.2642  156.4948   11.4603 O   0  0  0  0  0  0  0  0  0  0  0  0
   85.0775  158.1003   12.7886 N   0  0  0  0  0  0  0  0  0  0  0  0
   84.8339  157.9473   15.2003 C   0  0  0  0  0  0  0  0  0  0  0  0
   85.1003  158.7723   13.9787 C   0  0  0  0  0  0  0  0  0  0  0  0
   85.2462  159.9905   14.0235 O   0  0  0  0  0  0  0  0  0  0  0  0
   85.4219  158.5778   11.9996 H   0  0  0  0  0  0  0  0  0  0  0  0
   86.0808  153.8022   12.4691 O   0  0  0  0  0  0  0  0  0  0  0  0
   86.6714  152.5432   12.1321 C   0  0  0  0  0  0  0  0  0  0  0  0
   87.4480  149.1314   15.8014 C   0  0  0  0  0  0  0  0  0  0  0  0
   91.2040  152.0448   13.5925 Cl  0  0  0  0  0  0  0  0  0  0  0  0
   89.9660  150.8508   13.4976 C   0  0  0  0  0  0  0  0  0  0  0  0
   89.2530  150.4751   14.6371 C   0  0  0  0  0  0  0  0  0  0  0  0
   89.6782  150.2616   12.2693 C   0  0  0  0  0  0  0  0  0  0  0  0
   89.5447  151.0430   15.8182 F   0  0  0  0  0  0  0  0  0  0  0  0
   88.2371  149.5134   14.5699 C   0  0  0  0  0  0  0  0  0  0  0  0
   88.6841  149.2876   12.1869 C   0  0  0  0  0  0  0  0  0  0  0  0
   87.9734  148.9114   13.3287 C   0  0  0  0  0  0  0  0  0  0  0  0
  1  2  1  0  0  0  0
  1  3  1  0  0  0  0
  2  4  1  0  0  0  0
  3  5  1  0  0  0  0
  6  5  1  6  0  0  0
  6  4  1  0  0  0  0
  6  7  1  0  0  0  0
  6  8  1  0  0  0  0
  7  9  1  0  0  0  0
  8 10  1  1  0  0  0
  8  9  1  0  0  0  0
 10 11  2  0  0  0  0
 10 12  5  0  0  0  0
 11 13  5  0  0  0  0
 12 14  2  0  0  0  0
 13 25  1  0  0  0  0
 13 15  2  0  0  0  0
 15 14  5  0  0  0  0
 15 16  1  0  0  0  0
 16 17  1  0  0  0  0
 16 18  1  0  0  0  0
 17 19  2  0  0  0  0
 17 20  1  0  0  0  0
 18 21  1  0  0  0  0
 20 22  1  0  0  0  0
 20 24  1  0  0  0  0
 21 22  1  0  0  0  0
 22 23  2  0  0  0  0
 25 26  1  0  0  0  0
 27  1  1  0  0  0  0
 29 28  1  0  0  0  0
 29 30  2  0  0  0  0
 29 31  5  0  0  0  0
 30 32  1  0  0  0  0
 30 33  5  0  0  0  0
 31 34  2  0  0  0  0
 33 35  2  0  0  0  0
 33 27  1  0  0  0  0
 34 35  5  0  0  0  0
M  END
>  <ID>
EDEL-CRBN-0011_ent

>  <Stereoisomer>
enantiomer

>  <MW>
487.17

>  <HBD>
1

>  <HBA>
5

>  <RotBonds>
5

>  <cLogP>
4.08

>  <minimizedAffinity>
-9.14456

>  <CNNscore>
0.9052139521

>  <CNNaffinity>
7.4775595665

>  <CNN_VS>
6.7687911987

>  <CNNaffinity_variance>
0.0992617086
> <Compound_ID>
EDEL-CRBN-0011_ent

> <Vina_dG_kcal_mol>
-9.140

> <CNN_pKd>
7.478

> <GBSA_dG_kcal_mol>
-38.553

> <GBSA_dG_std>
0.318

> <GBSA_VDWAALS>
-43.577

> <GBSA_EEL>
-2.422

> <GBSA_EGB>
11.655

> <GBSA_ESURF>
-4.209

> <GBSA_rank>
16

$$$$
EDEL-CRBN-0012_ent
 OpenBabel09062620533D

 35 39  0  0  0  0  0  0  0  0999 V2000
   86.1143  148.5629   15.5780 N   0  0  0  0  0  0  0  0  0  0  0  0
   85.1046  148.9017   16.5850 C   0  0  0  0  0  0  0  0  0  0  0  0
   85.6428  148.6020   14.1937 C   0  0  0  0  0  0  0  0  0  0  0  0
   84.0918  149.9240   16.0766 C   0  0  0  0  0  0  0  0  0  0  0  0
   84.1527  148.2801   14.1105 C   0  0  0  0  0  0  0  0  0  0  0  0
   83.3665  149.3816   14.8334 C   0  0  1  0  0  0  0  0  0  0  0  0
   82.0452  148.8707   15.2125 O   0  0  0  0  0  0  0  0  0  0  0  0
   82.6755  150.4243   13.8904 C   0  0  1  0  0  0  0  0  0  0  0  0
   81.4151  150.0688   14.6925 C   0  0  0  0  0  0  0  0  0  0  0  0
   83.2226  151.9137   13.7951 C   0  0  0  0  0  0  0  0  0  0  0  0
   84.4520  152.2620   13.2118 C   0  0  0  0  0  0  0  0  0  0  0  0
   82.4665  152.9885   14.2976 C   0  0  0  0  0  0  0  0  0  0  0  0
   84.8941  153.5939   13.1316 C   0  0  0  0  0  0  0  0  0  0  0  0
   82.9147  154.3179   14.2485 C   0  0  0  0  0  0  0  0  0  0  0  0
   84.1508  154.6495   13.6842 C   0  0  0  0  0  0  0  0  0  0  0  0
   84.6172  156.0072   13.7245 N   0  0  0  0  0  0  0  0  0  0  0  0
   84.6184  156.8202   12.5913 C   0  0  0  0  0  0  0  0  0  0  0  0
   85.2511  156.5151   14.9375 C   0  0  0  0  0  0  0  0  0  0  0  0
   84.2642  156.4948   11.4603 O   0  0  0  0  0  0  0  0  0  0  0  0
   85.0775  158.1003   12.7886 N   0  0  0  0  0  0  0  0  0  0  0  0
   84.8339  157.9473   15.2003 C   0  0  0  0  0  0  0  0  0  0  0  0
   85.1003  158.7723   13.9787 C   0  0  0  0  0  0  0  0  0  0  0  0
   85.2462  159.9905   14.0235 O   0  0  0  0  0  0  0  0  0  0  0  0
   85.4219  158.5778   11.9996 H   0  0  0  0  0  0  0  0  0  0  0  0
   86.0808  153.8022   12.4691 O   0  0  0  0  0  0  0  0  0  0  0  0
   86.6714  152.5432   12.1321 C   0  0  0  0  0  0  0  0  0  0  0  0
   87.4480  149.1314   15.8014 C   0  0  0  0  0  0  0  0  0  0  0  0
   91.2040  152.0448   13.5925 Cl  0  0  0  0  0  0  0  0  0  0  0  0
   89.9660  150.8508   13.4976 C   0  0  0  0  0  0  0  0  0  0  0  0
   89.2530  150.4751   14.6371 C   0  0  0  0  0  0  0  0  0  0  0  0
   89.6782  150.2616   12.2693 C   0  0  0  0  0  0  0  0  0  0  0  0
   89.5447  151.0430   15.8182 F   0  0  0  0  0  0  0  0  0  0  0  0
   88.2371  149.5134   14.5699 C   0  0  0  0  0  0  0  0  0  0  0  0
   88.6841  149.2876   12.1869 C   0  0  0  0  0  0  0  0  0  0  0  0
   87.9734  148.9114   13.3287 C   0  0  0  0  0  0  0  0  0  0  0  0
  1  2  1  0  0  0  0
  1  3  1  0  0  0  0
  2  4  1  0  0  0  0
  3  5  1  0  0  0  0
  6  5  1  6  0  0  0
  6  4  1  0  0  0  0
  6  7  1  0  0  0  0
  6  8  1  0  0  0  0
  7  9  1  0  0  0  0
  8 10  1  1  0  0  0
  8  9  1  0  0  0  0
 10 11  2  0  0  0  0
 10 12  5  0  0  0  0
 11 13  5  0  0  0  0
 12 14  2  0  0  0  0
 13 25  1  0  0  0  0
 13 15  2  0  0  0  0
 15 14  5  0  0  0  0
 15 16  1  0  0  0  0
 16 17  1  0  0  0  0
 16 18  1  0  0  0  0
 17 19  2  0  0  0  0
 17 20  1  0  0  0  0
 18 21  1  0  0  0  0
 20 22  1  0  0  0  0
 20 24  1  0  0  0  0
 21 22  1  0  0  0  0
 22 23  2  0  0  0  0
 25 26  1  0  0  0  0
 27  1  1  0  0  0  0
 29 28  1  0  0  0  0
 29 30  2  0  0  0  0
 29 31  5  0  0  0  0
 30 32  1  0  0  0  0
 30 33  5  0  0  0  0
 31 34  2  0  0  0  0
 33 35  2  0  0  0  0
 33 27  1  0  0  0  0
 34 35  5  0  0  0  0
M  END
>  <ID>
EDEL-CRBN-0012_ent

>  <Stereoisomer>
enantiomer

>  <MW>
487.17

>  <HBD>
1

>  <HBA>
5

>  <RotBonds>
5

>  <cLogP>
4.08

>  <minimizedAffinity>
-9.14456

>  <CNNscore>
0.9052139521

>  <CNNaffinity>
7.4775595665

>  <CNN_VS>
6.7687911987

>  <CNNaffinity_variance>
0.0992617086
> <Compound_ID>
EDEL-CRBN-0012_ent

> <Vina_dG_kcal_mol>
-9.140

> <CNN_pKd>
7.478

> <GBSA_dG_kcal_mol>
-38.553

> <GBSA_dG_std>
0.318

> <GBSA_VDWAALS>
-43.577

> <GBSA_EEL>
-2.422

> <GBSA_EGB>
11.655

> <GBSA_ESURF>
-4.209

> <GBSA_rank>
17

$$$$
EDEL-CRBN-0007_ent
 OpenBabel09062620533D

 34 38  0  0  0  0  0  0  0  0999 V2000
   82.6857  148.6801   12.9453 O   0  0  0  0  0  0  0  0  0  0  0  0
   83.4733  149.2730   13.6843 C   0  0  0  0  0  0  0  0  0  0  0  0
   82.9768  150.2089   14.5339 N   0  0  0  0  0  0  0  0  0  0  0  0
   84.9443  148.9201   13.7072 C   0  0  1  0  0  0  0  0  0  0  0  0
   83.7455  151.1340   15.3231 C   0  0  0  0  0  0  0  0  0  0  0  0
   86.0085  150.0349   13.6935 C   0  0  1  0  0  0  0  0  0  0  0  0
   85.2903  148.0468   14.9120 C   0  0  0  0  0  0  0  0  0  0  0  0
   84.5639  152.0356   14.4403 C   0  0  0  0  0  0  0  0  0  0  0  0
   85.6148  151.4990   13.6701 C   0  0  0  0  0  0  0  0  0  0  0  0
   86.9204  149.7066   14.8902 C   0  0  0  0  0  0  0  0  0  0  0  0
   86.7313  148.2675   15.0883 N   0  0  0  0  0  0  0  0  0  0  0  0
   84.2799  153.4195   14.3553 C   0  0  0  0  0  0  0  0  0  0  0  0
   86.3709  152.3695   12.8696 C   0  0  0  0  0  0  0  0  0  0  0  0
   85.0795  154.3026   13.5978 C   0  0  0  0  0  0  0  0  0  0  0  0
   86.1109  153.7424   12.8383 C   0  0  0  0  0  0  0  0  0  0  0  0
   81.9972  150.2591   14.6178 H   0  0  0  0  0  0  0  0  0  0  0  0
   84.9086  155.7288   13.6152 N   0  0  0  0  0  0  0  0  0  0  0  0
   85.0650  156.5027   12.4651 C   0  0  0  0  0  0  0  0  0  0  0  0
   84.4351  156.3855   14.8292 C   0  0  0  0  0  0  0  0  0  0  0  0
   85.3178  156.0862   11.3376 O   0  0  0  0  0  0  0  0  0  0  0  0
   84.9083  157.8562   12.6457 N   0  0  0  0  0  0  0  0  0  0  0  0
   85.1789  157.6856   15.0543 C   0  0  0  0  0  0  0  0  0  0  0  0
   85.0761  158.5325   13.8218 C   0  0  0  0  0  0  0  0  0  0  0  0
   85.2165  159.7520   13.8470 O   0  0  0  0  0  0  0  0  0  0  0  0
   84.6521  158.3865   11.8568 H   0  0  0  0  0  0  0  0  0  0  0  0
   83.1626  153.8829   15.0179 O   0  0  0  0  0  0  0  0  0  0  0  0
   82.0080  153.7195   14.1847 C   0  0  0  0  0  0  0  0  0  0  0  0
   87.2323  147.8185   16.3910 C   0  0  0  0  0  0  0  0  0  0  0  0
   88.3623  148.6755   16.9185 C   0  0  0  0  0  0  0  0  0  0  0  0
   89.1914  148.2117   17.9500 C   0  0  0  0  0  0  0  0  0  0  0  0
   88.5915  149.9544   16.3889 C   0  0  0  0  0  0  0  0  0  0  0  0
   90.2281  149.0098   18.4381 C   0  0  0  0  0  0  0  0  0  0  0  0
   89.6283  150.7503   16.8776 C   0  0  0  0  0  0  0  0  0  0  0  0
   90.4458  150.2779   17.9024 C   0  0  0  0  0  0  0  0  0  0  0  0
  1  2  2  0  0  0  0
  2  3  1  0  0  0  0
  3  5  1  0  0  0  0
  3 16  1  0  0  0  0
  4  2  1  0  0  0  0
  4  6  1  0  0  0  0
  4  7  1  1  0  0  0
  6  9  1  0  0  0  0
  6 10  1  1  0  0  0
  7 11  1  0  0  0  0
  8  5  1  0  0  0  0
  8 12  2  0  0  0  0
  8  9  5  0  0  0  0
  9 13  2  0  0  0  0
 10 11  1  0  0  0  0
 11 28  1  0  0  0  0
 12 26  1  0  0  0  0
 12 14  5  0  0  0  0
 13 15  5  0  0  0  0
 14 17  1  0  0  0  0
 14 15  2  0  0  0  0
 17 18  1  0  0  0  0
 17 19  1  0  0  0  0
 18 20  2  0  0  0  0
 18 21  1  0  0  0  0
 19 22  1  0  0  0  0
 21 23  1  0  0  0  0
 21 25  1  0  0  0  0
 22 23  1  0  0  0  0
 23 24  2  0  0  0  0
 26 27  1  0  0  0  0
 28 29  1  0  0  0  0
 29 30  2  0  0  0  0
 29 31  5  0  0  0  0
 30 32  5  0  0  0  0
 31 33  2  0  0  0  0
 32 34  2  0  0  0  0
 33 34  5  0  0  0  0
M  END
>  <ID>
EDEL-CRBN-0007_ent

>  <Stereoisomer>
enantiomer

>  <MW>
434.2

>  <HBD>
2

>  <HBA>
5

>  <RotBonds>
4

>  <cLogP>
1.99

>  <minimizedAffinity>
-8.04891

>  <CNNscore>
0.8514083028

>  <CNNaffinity>
6.5744991302

>  <CNN_VS>
5.5975832939

>  <CNNaffinity_variance>
0.3581138551
> <Compound_ID>
EDEL-CRBN-0007_ent

> <Vina_dG_kcal_mol>
-8.050

> <CNN_pKd>
6.574

> <GBSA_dG_kcal_mol>
-38.382

> <GBSA_dG_std>
0.339

> <GBSA_VDWAALS>
-42.499

> <GBSA_EEL>
-3.155

> <GBSA_EGB>
11.459

> <GBSA_ESURF>
-4.187

> <GBSA_rank>
18

$$$$
EDEL-CRBN-0001_ent
 OpenBabel09062620533D

 28 30  0  0  0  0  0  0  0  0999 V2000
   84.1434  154.8128   13.7044 C   0  0  0  0  0  0  0  0  0  0  0  0
   84.8634  153.7869   13.0711 C   0  0  0  0  0  0  0  0  0  0  0  0
   82.9113  154.4668   14.2829 C   0  0  0  0  0  0  0  0  0  0  0  0
   84.3910  152.4610   13.0241 C   0  0  0  0  0  0  0  0  0  0  0  0
   82.4262  153.1549   14.2422 C   0  0  0  0  0  0  0  0  0  0  0  0
   83.1626  152.1562   13.6165 C   0  0  0  0  0  0  0  0  0  0  0  0
   84.2940  156.7579   11.5004 O   0  0  0  0  0  0  0  0  0  0  0  0
   84.6948  157.0027   12.6348 C   0  0  0  0  0  0  0  0  0  0  0  0
   84.6353  156.1631   13.7564 N   0  0  0  0  0  0  0  0  0  0  0  0
   85.2020  158.2595   12.8806 N   0  0  0  0  0  0  0  0  0  0  0  0
   85.2760  156.6597   14.9725 C   0  0  0  0  0  0  0  0  0  0  0  0
   85.0716  158.9227   14.0698 C   0  0  0  0  0  0  0  0  0  0  0  0
   84.8047  158.0656   15.2727 C   0  0  0  0  0  0  0  0  0  0  0  0
   85.0974  160.1489   14.1283 O   0  0  0  0  0  0  0  0  0  0  0  0
   85.6899  158.7095   12.1535 H   0  0  0  0  0  0  0  0  0  0  0  0
   85.1946  151.3848   12.3205 C   0  0  0  0  0  0  0  0  0  0  0  0
   86.6515  151.5591   12.4744 N   0  0  0  0  0  0  0  0  0  0  0  0
   87.2252  150.5683   13.4277 C   0  0  2  0  0  0  0  0  0  0  0  0
   87.3421  151.6679   11.1842 C   0  0  0  0  0  0  0  0  0  0  0  0
   88.7551  150.6389   13.6800 C   0  0  0  0  0  0  0  0  0  0  0  0
   88.7036  152.3472   11.3337 C   0  0  0  0  0  0  0  0  0  0  0  0
   89.6225  150.2957   12.5469 N   0  0  0  0  0  0  0  0  0  0  0  0
   89.8660  151.4050   11.6345 C   0  0  0  0  0  0  0  0  0  0  0  0
   89.1825  149.5392   12.0229 H   0  0  0  0  0  0  0  0  0  0  0  0
   86.7889  149.1267   13.1416 C   0  0  0  0  0  0  0  0  0  0  0  0
   85.8407  148.5551   13.6604 O   0  0  0  0  0  0  0  0  0  0  0  0
   87.5057  148.4933   12.1888 O   0  0  0  0  0  0  0  0  0  0  0  0
   88.2338  148.9242   11.7862 H   0  0  0  0  0  0  0  0  0  0  0  0
  1  9  1  0  0  0  0
  1  2  2  0  0  0  0
  1  3  5  0  0  0  0
  2  4  5  0  0  0  0
  3  5  2  0  0  0  0
  4  6  2  0  0  0  0
  4 16  1  0  0  0  0
  5  6  5  0  0  0  0
  7  8  2  0  0  0  0
  8  9  1  0  0  0  0
  8 10  1  0  0  0  0
  9 11  1  0  0  0  0
 10 12  1  0  0  0  0
 10 15  1  0  0  0  0
 11 13  1  0  0  0  0
 12 14  2  0  0  0  0
 12 13  1  0  0  0  0
 16 17  1  0  0  0  0
 17 18  1  0  0  0  0
 17 19  1  0  0  0  0
 18 25  1  6  0  0  0
 18 20  1  0  0  0  0
 19 21  1  0  0  0  0
 20 22  1  0  0  0  0
 21 23  1  0  0  0  0
 22 23  1  0  0  0  0
 22 24  1  0  0  0  0
 25 26  2  0  0  0  0
 25 27  1  0  0  0  0
 27 28  1  0  0  0  0
M  END
>  <ID>
EDEL-CRBN-0001_ent

>  <Stereoisomer>
enantiomer

>  <MW>
346.16

>  <HBD>
3

>  <HBA>
5

>  <RotBonds>
4

>  <cLogP>
0.38

>  <minimizedAffinity>
-8.26589

>  <CNNscore>
0.9102458358

>  <CNNaffinity>
6.7187666893

>  <CNN_VS>
6.1157293320

>  <CNNaffinity_variance>
0.1335707158
> <Compound_ID>
EDEL-CRBN-0001_ent

> <Vina_dG_kcal_mol>
-8.270

> <CNN_pKd>
6.719

> <GBSA_dG_kcal_mol>
-38.354

> <GBSA_dG_std>
0.367

> <GBSA_VDWAALS>
-39.535

> <GBSA_EEL>
-7.779

> <GBSA_EGB>
12.736

> <GBSA_ESURF>
-3.775

> <GBSA_rank>
19

$$$$
EDEL-CRBN-0015
 OpenBabel09062620533D

 37 41  0  0  0  0  0  0  0  0999 V2000
   84.6933  151.1360   13.2522 C   0  0  0  0  0  0  0  0  0  0  0  0
   85.8064  151.8369   12.7358 C   0  0  0  0  0  0  0  0  0  0  0  0
   83.6910  151.9189   13.8514 C   0  0  0  0  0  0  0  0  0  0  0  0
   85.9196  153.2341   12.7913 C   0  0  0  0  0  0  0  0  0  0  0  0
   83.7861  153.3155   13.9365 C   0  0  0  0  0  0  0  0  0  0  0  0
   84.8949  153.9868   13.3964 C   0  0  0  0  0  0  0  0  0  0  0  0
   84.2510  148.5417   17.3199 N   0  0  0  0  0  0  0  0  0  0  0  0
   84.9950  149.6465   16.6913 C   0  0  0  0  0  0  0  0  0  0  0  0
   83.8329  147.5014   16.3616 C   0  0  0  0  0  0  0  0  0  0  0  0
   85.8169  149.1715   15.4967 C   0  0  0  0  0  0  0  0  0  0  0  0
   83.5850  148.0424   14.9568 C   0  0  0  0  0  0  0  0  0  0  0  0
   84.8701  148.6638   14.4001 C   0  0  2  0  0  0  0  0  0  0  0  0
   85.5849  147.6987   13.5577 O   0  0  0  0  0  0  0  0  0  0  0  0
   84.6214  149.5527   13.1349 C   0  0  2  0  0  0  0  0  0  0  0  0
   85.7638  148.7157   12.5369 C   0  0  0  0  0  0  0  0  0  0  0  0
   83.1375  149.0679   18.1284 C   0  0  0  0  0  0  0  0  0  0  0  0
   86.2880  147.7121   22.0775 Cl  0  0  0  0  0  0  0  0  0  0  0  0
   84.7973  148.3372   21.4824 C   0  0  0  0  0  0  0  0  0  0  0  0
   84.5762  148.4588   20.1099 C   0  0  0  0  0  0  0  0  0  0  0  0
   83.8069  148.7195   22.3864 C   0  0  0  0  0  0  0  0  0  0  0  0
   85.5289  148.0796   19.2423 F   0  0  0  0  0  0  0  0  0  0  0  0
   83.3706  148.9716   19.6184 C   0  0  0  0  0  0  0  0  0  0  0  0
   82.5938  149.2198   21.9124 C   0  0  0  0  0  0  0  0  0  0  0  0
   82.3749  149.3401   20.5378 C   0  0  0  0  0  0  0  0  0  0  0  0
   85.0001  155.4087   13.4561 N   0  0  0  0  0  0  0  0  0  0  0  0
   84.9395  156.1922   12.3103 C   0  0  0  0  0  0  0  0  0  0  0  0
   85.5175  155.9982   14.6815 C   0  0  0  0  0  0  0  0  0  0  0  0
   84.5931  155.8158   11.1926 O   0  0  0  0  0  0  0  0  0  0  0  0
   85.2155  157.5250   12.5122 N   0  0  0  0  0  0  0  0  0  0  0  0
   84.8624  157.3396   14.9218 C   0  0  0  0  0  0  0  0  0  0  0  0
   85.0249  158.1914   13.6926 C   0  0  0  0  0  0  0  0  0  0  0  0
   84.9137  159.4147   13.7245 O   0  0  0  0  0  0  0  0  0  0  0  0
   85.5764  158.0365   11.7524 H   0  0  0  0  0  0  0  0  0  0  0  0
   86.9956  153.9370   12.3045 O   0  0  0  0  0  0  0  0  0  0  0  0
   87.8194  153.2989   11.3369 C   0  0  0  0  0  0  0  0  0  0  0  0
   82.7254  154.0536   14.4065 O   0  0  0  0  0  0  0  0  0  0  0  0
   81.7287  153.2476   15.0358 C   0  0  0  0  0  0  0  0  0  0  0  0
  1  2  2  0  0  0  0
  1  3  5  0  0  0  0
  2  4  5  0  0  0  0
  3  5  2  0  0  0  0
  4 34  1  0  0  0  0
  4  6  2  0  0  0  0
  5 36  1  0  0  0  0
  5  6  5  0  0  0  0
  6 25  1  0  0  0  0
  7  8  1  0  0  0  0
  7  9  1  0  0  0  0
  8 10  1  0  0  0  0
  9 11  1  0  0  0  0
 12 11  1  1  0  0  0
 12 10  1  0  0  0  0
 12 13  1  0  0  0  0
 12 14  1  0  0  0  0
 13 15  1  0  0  0  0
 14  1  1  1  0  0  0
 14 15  1  0  0  0  0
 16  7  1  0  0  0  0
 18 17  1  0  0  0  0
 18 19  2  0  0  0  0
 18 20  5  0  0  0  0
 19 21  1  0  0  0  0
 19 22  5  0  0  0  0
 20 23  2  0  0  0  0
 22 24  2  0  0  0  0
 22 16  1  0  0  0  0
 23 24  5  0  0  0  0
 25 26  1  0  0  0  0
 25 27  1  0  0  0  0
 26 28  2  0  0  0  0
 26 29  1  0  0  0  0
 27 30  1  0  0  0  0
 29 31  1  0  0  0  0
 29 33  1  0  0  0  0
 30 31  1  0  0  0  0
 31 32  2  0  0  0  0
 34 35  1  0  0  0  0
 36 37  1  0  0  0  0
M  END
>  <ID>
EDEL-CRBN-0015

>  <Stereoisomer>
original

>  <MW>
517.18

>  <HBD>
1

>  <HBA>
6

>  <RotBonds>
6

>  <cLogP>
4.09

>  <minimizedAffinity>
-8.21368

>  <CNNscore>
0.7422246933

>  <CNNaffinity>
6.2853775024

>  <CNN_VS>
4.6651625633

>  <CNNaffinity_variance>
0.9611489773
> <Compound_ID>
EDEL-CRBN-0015

> <Vina_dG_kcal_mol>
-8.210

> <CNN_pKd>
6.285

> <GBSA_dG_kcal_mol>
-38.322

> <GBSA_dG_std>
0.375

> <GBSA_VDWAALS>
-44.006

> <GBSA_EEL>
-1.709

> <GBSA_EGB>
12.066

> <GBSA_ESURF>
-4.673

> <GBSA_rank>
20

$$$$
EDEL-CRBN-0004
 OpenBabel09062620533D

 32 34  0  0  0  0  0  0  0  0999 V2000
   84.6876  154.1265   13.3557 C   0  0  0  0  0  0  0  0  0  0  0  0
   83.5616  153.5526   13.9887 C   0  0  0  0  0  0  0  0  0  0  0  0
   85.5477  153.3011   12.5958 C   0  0  0  0  0  0  0  0  0  0  0  0
   83.3257  152.1687   13.9371 C   0  0  0  0  0  0  0  0  0  0  0  0
   85.2751  151.9338   12.4921 C   0  0  0  0  0  0  0  0  0  0  0  0
   84.1860  151.3753   13.1645 C   0  0  0  0  0  0  0  0  0  0  0  0
   84.4867  156.1265   11.2830 O   0  0  0  0  0  0  0  0  0  0  0  0
   84.9062  156.3881   12.4069 C   0  0  0  0  0  0  0  0  0  0  0  0
   84.9739  155.5195   13.4910 N   0  0  0  0  0  0  0  0  0  0  0  0
   85.2693  157.6844   12.6962 N   0  0  0  0  0  0  0  0  0  0  0  0
   85.5162  156.0067   14.7494 C   0  0  0  0  0  0  0  0  0  0  0  0
   85.0879  158.2747   13.9180 C   0  0  0  0  0  0  0  0  0  0  0  0
   84.9018  157.3460   15.0879 C   0  0  0  0  0  0  0  0  0  0  0  0
   85.0049  159.4955   14.0324 O   0  0  0  0  0  0  0  0  0  0  0  0
   85.6844  158.2190   11.9813 H   0  0  0  0  0  0  0  0  0  0  0  0
   82.6666  154.3501   14.6650 O   0  0  0  0  0  0  0  0  0  0  0  0
   81.7992  155.0146   13.7473 C   0  0  0  0  0  0  0  0  0  0  0  0
   86.6400  153.9052   12.0183 O   0  0  0  0  0  0  0  0  0  0  0  0
   87.6220  153.0556   11.4384 C   0  0  0  0  0  0  0  0  0  0  0  0
   82.1717  151.5092   14.6722 C   0  0  0  0  0  0  0  0  0  0  0  0
   82.6421  150.5157   15.6569 N   0  0  0  0  0  0  0  0  0  0  0  0
   82.4227  150.9240   17.0687 C   0  0  1  0  0  0  0  0  0  0  0  0
   84.0278  150.0924   15.3668 C   0  0  0  0  0  0  0  0  0  0  0  0
   83.0785  152.2614   17.5190 C   0  0  0  0  0  0  0  0  0  0  0  0
   85.1021  150.3610   16.4293 C   0  0  0  0  0  0  0  0  0  0  0  0
   84.2362  152.7404   16.7550 N   0  0  0  0  0  0  0  0  0  0  0  0
   85.3795  151.8377   16.7094 C   0  0  0  0  0  0  0  0  0  0  0  0
   84.5461  153.6180   17.1725 H   0  0  0  0  0  0  0  0  0  0  0  0
   80.9265  150.9277   17.4313 C   0  0  0  0  0  0  0  0  0  0  0  0
   80.3363  150.2440   18.2534 O   0  0  0  0  0  0  0  0  0  0  0  0
   80.2326  151.8718   16.7517 O   0  0  0  0  0  0  0  0  0  0  0  0
   80.6674  152.4065   16.1168 H   0  0  0  0  0  0  0  0  0  0  0  0
  1  9  1  0  0  0  0
  1  2  2  0  0  0  0
  1  3  5  0  0  0  0
  2 16  1  0  0  0  0
  2  4  5  0  0  0  0
  3 18  1  0  0  0  0
  3  5  2  0  0  0  0
  4  6  2  0  0  0  0
  4 20  1  0  0  0  0
  5  6  5  0  0  0  0
  7  8  2  0  0  0  0
  8  9  1  0  0  0  0
  8 10  1  0  0  0  0
  9 11  1  0  0  0  0
 10 12  1  0  0  0  0
 10 15  1  0  0  0  0
 11 13  1  0  0  0  0
 12 14  2  0  0  0  0
 12 13  1  0  0  0  0
 16 17  1  0  0  0  0
 18 19  1  0  0  0  0
 20 21  1  0  0  0  0
 21 22  1  0  0  0  0
 21 23  1  0  0  0  0
 22 29  1  6  0  0  0
 22 24  1  0  0  0  0
 23 25  1  0  0  0  0
 24 26  1  0  0  0  0
 25 27  1  0  0  0  0
 26 27  1  0  0  0  0
 26 28  1  0  0  0  0
 29 30  2  0  0  0  0
 29 31  1  0  0  0  0
 31 32  1  0  0  0  0
M  END
>  <ID>
EDEL-CRBN-0004

>  <Stereoisomer>
original

>  <MW>
406.19

>  <HBD>
3

>  <HBA>
7

>  <RotBonds>
6

>  <cLogP>
0.4

>  <minimizedAffinity>
-7.74685

>  <CNNscore>
0.7092846632

>  <CNNaffinity>
5.6833777428

>  <CNN_VS>
4.0311326981

>  <CNNaffinity_variance>
0.7767696977
> <Compound_ID>
EDEL-CRBN-0004

> <Vina_dG_kcal_mol>
-7.750

> <CNN_pKd>
5.683

> <GBSA_dG_kcal_mol>
-37.475

> <GBSA_dG_std>
0.389

> <GBSA_VDWAALS>
-40.694

> <GBSA_EEL>
-5.380

> <GBSA_EGB>
13.252

> <GBSA_ESURF>
-4.653

> <GBSA_rank>
21

$$$$
EDEL-CRBN-0003_ent
 OpenBabel09062620533D

 30 32  0  0  0  0  0  0  0  0999 V2000
   84.0649  154.8073   13.8093 C   0  0  0  0  0  0  0  0  0  0  0  0
   84.8592  153.7290   13.3620 C   0  0  0  0  0  0  0  0  0  0  0  0
   82.7631  154.5359   14.2578 C   0  0  0  0  0  0  0  0  0  0  0  0
   84.3344  152.4217   13.2838 C   0  0  0  0  0  0  0  0  0  0  0  0
   82.2471  153.2404   14.2225 C   0  0  0  0  0  0  0  0  0  0  0  0
   83.0228  152.1942   13.7298 C   0  0  0  0  0  0  0  0  0  0  0  0
   83.9593  156.7162   11.6164 O   0  0  0  0  0  0  0  0  0  0  0  0
   84.5146  156.9610   12.6822 C   0  0  0  0  0  0  0  0  0  0  0  0
   84.5232  156.1605   13.8251 N   0  0  0  0  0  0  0  0  0  0  0  0
   85.1212  158.1865   12.8399 N   0  0  0  0  0  0  0  0  0  0  0  0
   85.2131  156.6526   15.0109 C   0  0  0  0  0  0  0  0  0  0  0  0
   85.1248  158.8918   14.0118 C   0  0  0  0  0  0  0  0  0  0  0  0
   84.8550  158.1006   15.2610 C   0  0  0  0  0  0  0  0  0  0  0  0
   85.2591  160.1126   14.0274 O   0  0  0  0  0  0  0  0  0  0  0  0
   85.5801  158.5791   12.0623 H   0  0  0  0  0  0  0  0  0  0  0  0
   86.1829  153.9117   13.0343 O   0  0  0  0  0  0  0  0  0  0  0  0
   86.3038  154.5976   11.7898 C   0  0  0  0  0  0  0  0  0  0  0  0
   85.1440  151.2609   12.7326 C   0  0  0  0  0  0  0  0  0  0  0  0
   86.5901  151.4171   12.9443 N   0  0  0  0  0  0  0  0  0  0  0  0
   87.1688  150.4351   13.8948 C   0  0  2  0  0  0  0  0  0  0  0  0
   87.3740  151.4716   11.7061 C   0  0  0  0  0  0  0  0  0  0  0  0
   86.7884  148.9452   13.7141 C   0  0  0  0  0  0  0  0  0  0  0  0
   87.3702  150.2365   10.7978 C   0  0  0  0  0  0  0  0  0  0  0  0
   86.7454  148.4017   12.3437 N   0  0  0  0  0  0  0  0  0  0  0  0
   87.7843  148.9225   11.4613 C   0  0  0  0  0  0  0  0  0  0  0  0
   85.8375  148.6286   11.9379 H   0  0  0  0  0  0  0  0  0  0  0  0
   86.9377  150.8798   15.3415 C   0  0  0  0  0  0  0  0  0  0  0  0
   87.6411  150.5836   16.2982 O   0  0  0  0  0  0  0  0  0  0  0  0
   85.8541  151.6582   15.5395 O   0  0  0  0  0  0  0  0  0  0  0  0
   85.3070  151.8925   14.8158 H   0  0  0  0  0  0  0  0  0  0  0  0
  1  9  1  0  0  0  0
  1  2  2  0  0  0  0
  1  3  5  0  0  0  0
  2 16  1  0  0  0  0
  2  4  5  0  0  0  0
  3  5  2  0  0  0  0
  4  6  2  0  0  0  0
  4 18  1  0  0  0  0
  5  6  5  0  0  0  0
  7  8  2  0  0  0  0
  8  9  1  0  0  0  0
  8 10  1  0  0  0  0
  9 11  1  0  0  0  0
 10 12  1  0  0  0  0
 10 15  1  0  0  0  0
 11 13  1  0  0  0  0
 12 14  2  0  0  0  0
 12 13  1  0  0  0  0
 16 17  1  0  0  0  0
 18 19  1  0  0  0  0
 19 20  1  0  0  0  0
 19 21  1  0  0  0  0
 20 27  1  1  0  0  0
 20 22  1  0  0  0  0
 21 23  1  0  0  0  0
 22 24  1  0  0  0  0
 23 25  1  0  0  0  0
 24 25  1  0  0  0  0
 24 26  1  0  0  0  0
 27 28  2  0  0  0  0
 27 29  1  0  0  0  0
 29 30  1  0  0  0  0
M  END
>  <ID>
EDEL-CRBN-0003_ent

>  <Stereoisomer>
enantiomer

>  <MW>
376.17

>  <HBD>
3

>  <HBA>
6

>  <RotBonds>
5

>  <cLogP>
0.39

>  <minimizedAffinity>
-8.31194

>  <CNNscore>
0.8921540976

>  <CNNaffinity>
6.0142498016

>  <CNN_VS>
5.3656377792

>  <CNNaffinity_variance>
0.4152761698
> <Compound_ID>
EDEL-CRBN-0003_ent

> <Vina_dG_kcal_mol>
-8.310

> <CNN_pKd>
6.014

> <GBSA_dG_kcal_mol>
-36.759

> <GBSA_dG_std>
0.317

> <GBSA_VDWAALS>
-37.947

> <GBSA_EEL>
-6.617

> <GBSA_EGB>
11.655

> <GBSA_ESURF>
-3.850

> <GBSA_rank>
22

$$$$
EDEL-CRBN-0004_ent
 OpenBabel09062620533D

 32 34  0  0  0  0  0  0  0  0999 V2000
   85.0415  154.0432   13.2772 C   0  0  0  0  0  0  0  0  0  0  0  0
   84.1478  153.1453   13.9034 C   0  0  0  0  0  0  0  0  0  0  0  0
   86.0577  153.5011   12.4699 C   0  0  0  0  0  0  0  0  0  0  0  0
   84.2921  151.7473   13.7713 C   0  0  0  0  0  0  0  0  0  0  0  0
   86.1827  152.1206   12.2947 C   0  0  0  0  0  0  0  0  0  0  0  0
   85.3227  151.2507   12.9613 C   0  0  0  0  0  0  0  0  0  0  0  0
   84.4961  155.9337   11.2120 O   0  0  0  0  0  0  0  0  0  0  0  0
   84.6689  156.2886   12.3747 C   0  0  0  0  0  0  0  0  0  0  0  0
   84.9048  155.4555   13.4658 N   0  0  0  0  0  0  0  0  0  0  0  0
   84.5984  157.6296   12.6780 N   0  0  0  0  0  0  0  0  0  0  0  0
   84.6779  155.9869   14.7998 C   0  0  0  0  0  0  0  0  0  0  0  0
   84.9834  158.2309   13.8452 C   0  0  0  0  0  0  0  0  0  0  0  0
   85.3971  157.3098   14.9568 C   0  0  0  0  0  0  0  0  0  0  0  0
   85.0510  159.4530   13.9462 O   0  0  0  0  0  0  0  0  0  0  0  0
   84.2316  158.2192   11.9801 H   0  0  0  0  0  0  0  0  0  0  0  0
   83.1011  153.6060   14.6707 O   0  0  0  0  0  0  0  0  0  0  0  0
   81.8755  152.9808   14.2905 C   0  0  0  0  0  0  0  0  0  0  0  0
   86.9761  154.3041   11.8364 O   0  0  0  0  0  0  0  0  0  0  0  0
   87.7795  153.5153   10.9537 C   0  0  0  0  0  0  0  0  0  0  0  0
   83.3637  150.7863   14.4859 C   0  0  0  0  0  0  0  0  0  0  0  0
   83.9872  150.0892   15.6232 N   0  0  0  0  0  0  0  0  0  0  0  0
   83.5274  150.4740   16.9813 C   0  0  2  0  0  0  0  0  0  0  0  0
   84.0673  148.6423   15.4239 C   0  0  0  0  0  0  0  0  0  0  0  0
   81.9945  150.4476   17.2312 C   0  0  0  0  0  0  0  0  0  0  0  0
   82.9893  147.7385   16.0295 C   0  0  0  0  0  0  0  0  0  0  0  0
   81.3318  149.1357   17.2413 N   0  0  0  0  0  0  0  0  0  0  0  0
   81.5780  148.3140   16.0596 C   0  0  0  0  0  0  0  0  0  0  0  0
   80.3262  149.2892   17.3167 H   0  0  0  0  0  0  0  0  0  0  0  0
   84.0752  151.8513   17.3760 C   0  0  0  0  0  0  0  0  0  0  0  0
   85.1583  152.3271   17.0673 O   0  0  0  0  0  0  0  0  0  0  0  0
   83.2089  152.5873   18.1084 O   0  0  0  0  0  0  0  0  0  0  0  0
   82.3769  152.2296   18.3488 H   0  0  0  0  0  0  0  0  0  0  0  0
  1  9  1  0  0  0  0
  1  2  2  0  0  0  0
  1  3  5  0  0  0  0
  2 16  1  0  0  0  0
  2  4  5  0  0  0  0
  3 18  1  0  0  0  0
  3  5  2  0  0  0  0
  4  6  2  0  0  0  0
  4 20  1  0  0  0  0
  5  6  5  0  0  0  0
  7  8  2  0  0  0  0
  8  9  1  0  0  0  0
  8 10  1  0  0  0  0
  9 11  1  0  0  0  0
 10 12  1  0  0  0  0
 10 15  1  0  0  0  0
 11 13  1  0  0  0  0
 12 14  2  0  0  0  0
 12 13  1  0  0  0  0
 16 17  1  0  0  0  0
 18 19  1  0  0  0  0
 20 21  1  0  0  0  0
 21 22  1  0  0  0  0
 21 23  1  0  0  0  0
 22 29  1  6  0  0  0
 22 24  1  0  0  0  0
 23 25  1  0  0  0  0
 24 26  1  0  0  0  0
 25 27  1  0  0  0  0
 26 27  1  0  0  0  0
 26 28  1  0  0  0  0
 29 30  2  0  0  0  0
 29 31  1  0  0  0  0
 31 32  1  0  0  0  0
M  END
>  <ID>
EDEL-CRBN-0004_ent

>  <Stereoisomer>
enantiomer

>  <MW>
406.19

>  <HBD>
3

>  <HBA>
7

>  <RotBonds>
6

>  <cLogP>
0.4

>  <minimizedAffinity>
-6.97651

>  <CNNscore>
0.7617416382

>  <CNNaffinity>
5.4753279686

>  <CNN_VS>
4.1707854271

>  <CNNaffinity_variance>
1.5926207304
> <Compound_ID>
EDEL-CRBN-0004_ent

> <Vina_dG_kcal_mol>
-6.980

> <CNN_pKd>
5.475

> <GBSA_dG_kcal_mol>
-36.692

> <GBSA_dG_std>
0.425

> <GBSA_VDWAALS>
-42.325

> <GBSA_EEL>
-4.528

> <GBSA_EGB>
14.868

> <GBSA_ESURF>
-4.708

> <GBSA_rank>
23

$$$$
EDEL-CRBN-0003
 OpenBabel09062620533D

 30 32  0  0  0  0  0  0  0  0999 V2000
   83.9313  154.5878   13.9852 C   0  0  0  0  0  0  0  0  0  0  0  0
   84.7506  153.4759   13.6870 C   0  0  0  0  0  0  0  0  0  0  0  0
   82.5994  154.3440   14.3458 C   0  0  0  0  0  0  0  0  0  0  0  0
   84.2257  152.1691   13.6272 C   0  0  0  0  0  0  0  0  0  0  0  0
   82.0791  153.0480   14.3420 C   0  0  0  0  0  0  0  0  0  0  0  0
   82.8796  151.9717   13.9675 C   0  0  0  0  0  0  0  0  0  0  0  0
   84.0975  156.2417   11.5995 O   0  0  0  0  0  0  0  0  0  0  0  0
   84.5258  156.6163   12.6880 C   0  0  0  0  0  0  0  0  0  0  0  0
   84.4246  155.9296   13.8964 N   0  0  0  0  0  0  0  0  0  0  0  0
   85.0993  157.8640   12.7803 N   0  0  0  0  0  0  0  0  0  0  0  0
   85.1490  156.4793   15.0408 C   0  0  0  0  0  0  0  0  0  0  0  0
   85.0864  158.6487   13.9023 C   0  0  0  0  0  0  0  0  0  0  0  0
   84.8171  157.9456   15.2035 C   0  0  0  0  0  0  0  0  0  0  0  0
   85.2115  159.8686   13.8288 O   0  0  0  0  0  0  0  0  0  0  0  0
   85.5520  158.2183   11.9811 H   0  0  0  0  0  0  0  0  0  0  0  0
   86.1034  153.6365   13.4772 O   0  0  0  0  0  0  0  0  0  0  0  0
   86.3902  153.6057   12.0771 C   0  0  0  0  0  0  0  0  0  0  0  0
   85.0703  150.9856   13.1990 C   0  0  0  0  0  0  0  0  0  0  0  0
   85.2262  149.9543   14.2354 N   0  0  0  0  0  0  0  0  0  0  0  0
   85.4983  148.6180   13.6459 C   0  0  1  0  0  0  0  0  0  0  0  0
   86.1160  150.3131   15.3476 C   0  0  0  0  0  0  0  0  0  0  0  0
   86.9588  148.3284   13.2163 C   0  0  0  0  0  0  0  0  0  0  0  0
   87.5834  150.5549   14.9912 C   0  0  0  0  0  0  0  0  0  0  0  0
   87.8961  148.0986   14.3146 N   0  0  0  0  0  0  0  0  0  0  0  0
   88.4468  149.2961   14.9344 C   0  0  0  0  0  0  0  0  0  0  0  0
   88.6739  147.5467   13.9529 H   0  0  0  0  0  0  0  0  0  0  0  0
   84.9572  147.4931   14.5462 C   0  0  0  0  0  0  0  0  0  0  0  0
   84.0231  147.5179   15.3332 O   0  0  0  0  0  0  0  0  0  0  0  0
   85.6148  146.3221   14.3552 O   0  0  0  0  0  0  0  0  0  0  0  0
   86.3341  146.2811   13.7561 H   0  0  0  0  0  0  0  0  0  0  0  0
  1  9  1  0  0  0  0
  1  2  2  0  0  0  0
  1  3  5  0  0  0  0
  2 16  1  0  0  0  0
  2  4  5  0  0  0  0
  3  5  2  0  0  0  0
  4  6  2  0  0  0  0
  4 18  1  0  0  0  0
  5  6  5  0  0  0  0
  7  8  2  0  0  0  0
  8  9  1  0  0  0  0
  8 10  1  0  0  0  0
  9 11  1  0  0  0  0
 10 12  1  0  0  0  0
 10 15  1  0  0  0  0
 11 13  1  0  0  0  0
 12 14  2  0  0  0  0
 12 13  1  0  0  0  0
 16 17  1  0  0  0  0
 18 19  1  0  0  0  0
 19 20  1  0  0  0  0
 19 21  1  0  0  0  0
 20 27  1  1  0  0  0
 20 22  1  0  0  0  0
 21 23  1  0  0  0  0
 22 24  1  0  0  0  0
 23 25  1  0  0  0  0
 24 25  1  0  0  0  0
 24 26  1  0  0  0  0
 27 28  2  0  0  0  0
 27 29  1  0  0  0  0
 29 30  1  0  0  0  0
M  END
>  <ID>
EDEL-CRBN-0003

>  <Stereoisomer>
original

>  <MW>
376.17

>  <HBD>
3

>  <HBA>
6

>  <RotBonds>
5

>  <cLogP>
0.39

>  <minimizedAffinity>
-7.34638

>  <CNNscore>
0.8932448030

>  <CNNaffinity>
6.3879694939

>  <CNN_VS>
5.7060203552

>  <CNNaffinity_variance>
0.2284001708
> <Compound_ID>
EDEL-CRBN-0003

> <Vina_dG_kcal_mol>
-7.350

> <CNN_pKd>
6.388

> <GBSA_dG_kcal_mol>
-36.002

> <GBSA_dG_std>
0.318

> <GBSA_VDWAALS>
-37.988

> <GBSA_EEL>
-7.487

> <GBSA_EGB>
13.258

> <GBSA_ESURF>
-3.784

> <GBSA_rank>
24

$$$$
EDEL-CRBN-0008
 OpenBabel09062620533D

 33 37  0  0  0  0  0  0  0  0999 V2000
   88.2177  148.9408   14.7933 N   0  0  0  0  0  0  0  0  0  0  0  0
   87.2565  149.1905   15.8794 C   0  0  0  0  0  0  0  0  0  0  0  0
   87.5903  148.9248   13.4592 C   0  0  0  0  0  0  0  0  0  0  0  0
   85.8513  148.6821   15.5688 C   0  0  0  0  0  0  0  0  0  0  0  0
   86.4061  149.8858   13.3809 C   0  0  0  0  0  0  0  0  0  0  0  0
   85.3002  149.3968   14.3276 C   0  0  1  0  0  0  0  0  0  0  0  0
   84.4055  148.4822   13.6063 O   0  0  0  0  0  0  0  0  0  0  0  0
   84.0864  150.3549   14.5831 C   0  0  2  0  0  0  0  0  0  0  0  0
   83.4216  149.5369   13.4652 C   0  0  0  0  0  0  0  0  0  0  0  0
   84.2731  151.9272   14.4728 C   0  0  0  0  0  0  0  0  0  0  0  0
   83.6354  152.6536   13.4524 C   0  0  0  0  0  0  0  0  0  0  0  0
   85.0694  152.6862   15.3446 C   0  0  0  0  0  0  0  0  0  0  0  0
   83.7725  154.0436   13.3153 C   0  0  0  0  0  0  0  0  0  0  0  0
   85.2115  154.0781   15.2128 C   0  0  0  0  0  0  0  0  0  0  0  0
   84.5625  154.7877   14.1951 C   0  0  0  0  0  0  0  0  0  0  0  0
   84.7191  156.2094   14.0502 N   0  0  0  0  0  0  0  0  0  0  0  0
   85.4936  156.7731   13.0285 C   0  0  0  0  0  0  0  0  0  0  0  0
   83.8820  157.1108   14.8371 C   0  0  0  0  0  0  0  0  0  0  0  0
   86.1343  156.1718   12.1704 O   0  0  0  0  0  0  0  0  0  0  0  0
   85.5162  158.1482   12.9995 N   0  0  0  0  0  0  0  0  0  0  0  0
   84.6561  158.3427   15.2574 C   0  0  0  0  0  0  0  0  0  0  0  0
   85.2537  158.9862   14.0459 C   0  0  0  0  0  0  0  0  0  0  0  0
   85.5656  160.1732   14.0161 O   0  0  0  0  0  0  0  0  0  0  0  0
   85.7440  158.5701   12.1397 H   0  0  0  0  0  0  0  0  0  0  0  0
   89.0247  147.7358   15.0450 C   0  0  0  0  0  0  0  0  0  0  0  0
   87.6599  143.8289   11.8387 Cl  0  0  0  0  0  0  0  0  0  0  0  0
   88.7122  145.1149   12.2928 C   0  0  0  0  0  0  0  0  0  0  0  0
   88.4536  145.8780   13.4316 C   0  0  0  0  0  0  0  0  0  0  0  0
   89.8285  145.3929   11.5040 C   0  0  0  0  0  0  0  0  0  0  0  0
   87.3675  145.6185   14.1774 F   0  0  0  0  0  0  0  0  0  0  0  0
   89.3041  146.9280   13.7994 C   0  0  0  0  0  0  0  0  0  0  0  0
   90.6840  146.4373   11.8568 C   0  0  0  0  0  0  0  0  0  0  0  0
   90.4240  147.2009   12.9974 C   0  0  0  0  0  0  0  0  0  0  0  0
  1  2  1  0  0  0  0
  1  3  1  0  0  0  0
  2  4  1  0  0  0  0
  3  5  1  0  0  0  0
  6  5  1  6  0  0  0
  6  4  1  0  0  0  0
  6  7  1  0  0  0  0
  6  8  1  0  0  0  0
  7  9  1  0  0  0  0
  8 10  1  6  0  0  0
  8  9  1  0  0  0  0
 10 11  2  0  0  0  0
 10 12  5  0  0  0  0
 11 13  5  0  0  0  0
 12 14  2  0  0  0  0
 15 14  5  0  0  0  0
 15 13  2  0  0  0  0
 15 16  1  0  0  0  0
 16 17  1  0  0  0  0
 16 18  1  0  0  0  0
 17 19  2  0  0  0  0
 17 20  1  0  0  0  0
 18 21  1  0  0  0  0
 20 22  1  0  0  0  0
 20 24  1  0  0  0  0
 21 22  1  0  0  0  0
 22 23  2  0  0  0  0
 25  1  1  0  0  0  0
 27 26  1  0  0  0  0
 27 28  2  0  0  0  0
 27 29  5  0  0  0  0
 28 30  1  0  0  0  0
 28 31  5  0  0  0  0
 29 32  2  0  0  0  0
 31 33  2  0  0  0  0
 31 25  1  0  0  0  0
 32 33  5  0  0  0  0
M  END
>  <ID>
EDEL-CRBN-0008

>  <Stereoisomer>
original

>  <MW>
457.16

>  <HBD>
1

>  <HBA>
4

>  <RotBonds>
4

>  <cLogP>
4.07

>  <minimizedAffinity>
-7.56416

>  <CNNscore>
0.8149921894

>  <CNNaffinity>
6.9923930168

>  <CNN_VS>
5.6987457275

>  <CNNaffinity_variance>
0.0447334237
> <Compound_ID>
EDEL-CRBN-0008

> <Vina_dG_kcal_mol>
-7.560

> <CNN_pKd>
6.992

> <GBSA_dG_kcal_mol>
-35.655

> <GBSA_dG_std>
0.306

> <GBSA_VDWAALS>
-36.498

> <GBSA_EEL>
-4.191

> <GBSA_EGB>
8.358

> <GBSA_ESURF>
-3.324

> <GBSA_rank>
25

$$$$
EDEL-CRBN-0015_ent
 OpenBabel09062620533D

 37 41  0  0  0  0  0  0  0  0999 V2000
   84.5731  151.2082   13.0735 C   0  0  0  0  0  0  0  0  0  0  0  0
   85.6656  151.9193   12.5306 C   0  0  0  0  0  0  0  0  0  0  0  0
   83.5998  151.9761   13.7397 C   0  0  0  0  0  0  0  0  0  0  0  0
   85.7941  153.3124   12.6403 C   0  0  0  0  0  0  0  0  0  0  0  0
   83.7105  153.3659   13.8781 C   0  0  0  0  0  0  0  0  0  0  0  0
   84.8040  154.0485   13.3214 C   0  0  0  0  0  0  0  0  0  0  0  0
   87.6320  147.5929   14.9348 N   0  0  0  0  0  0  0  0  0  0  0  0
   87.1495  147.5037   13.5474 C   0  0  0  0  0  0  0  0  0  0  0  0
   86.6680  148.2367   15.8438 C   0  0  0  0  0  0  0  0  0  0  0  0
   85.6289  147.3743   13.4867 C   0  0  0  0  0  0  0  0  0  0  0  0
   85.8242  149.3032   15.1508 C   0  0  0  0  0  0  0  0  0  0  0  0
   84.9954  148.6672   14.0282 C   0  0  2  0  0  0  0  0  0  0  0  0
   83.6407  148.3837   14.5022 O   0  0  0  0  0  0  0  0  0  0  0  0
   84.4109  149.6235   12.9325 C   0  0  1  0  0  0  0  0  0  0  0  0
   83.0687  148.9729   13.3119 C   0  0  0  0  0  0  0  0  0  0  0  0
   88.9704  148.1941   15.0360 C   0  0  0  0  0  0  0  0  0  0  0  0
   90.4156  151.7002   18.6445 Cl  0  0  0  0  0  0  0  0  0  0  0  0
   90.0538  150.0861   18.1644 C   0  0  0  0  0  0  0  0  0  0  0  0
   89.6811  149.8005   16.8509 C   0  0  0  0  0  0  0  0  0  0  0  0
   90.1427  149.0592   19.1042 C   0  0  0  0  0  0  0  0  0  0  0  0
   89.6147  150.7896   15.9451 F   0  0  0  0  0  0  0  0  0  0  0  0
   89.3912  148.4882   16.4566 C   0  0  0  0  0  0  0  0  0  0  0  0
   89.8598  147.7461   18.7255 C   0  0  0  0  0  0  0  0  0  0  0  0
   89.4862  147.4614   17.4098 C   0  0  0  0  0  0  0  0  0  0  0  0
   84.9259  155.4660   13.4348 N   0  0  0  0  0  0  0  0  0  0  0  0
   84.8132  156.2989   12.3284 C   0  0  0  0  0  0  0  0  0  0  0  0
   85.5025  156.0013   14.6589 C   0  0  0  0  0  0  0  0  0  0  0  0
   84.4121  155.9731   11.2131 O   0  0  0  0  0  0  0  0  0  0  0  0
   85.1040  157.6209   12.5749 N   0  0  0  0  0  0  0  0  0  0  0  0
   84.8629  157.3312   14.9881 C   0  0  0  0  0  0  0  0  0  0  0  0
   84.9701  158.2354   13.7907 C   0  0  0  0  0  0  0  0  0  0  0  0
   84.8640  159.4564   13.8806 O   0  0  0  0  0  0  0  0  0  0  0  0
   85.4322  158.1642   11.8223 H   0  0  0  0  0  0  0  0  0  0  0  0
   86.8565  154.0270   12.1396 O   0  0  0  0  0  0  0  0  0  0  0  0
   87.7439  153.3585   11.2524 C   0  0  0  0  0  0  0  0  0  0  0  0
   82.6758  154.0907   14.4205 O   0  0  0  0  0  0  0  0  0  0  0  0
   81.6820  153.2616   15.0239 C   0  0  0  0  0  0  0  0  0  0  0  0
  1  2  2  0  0  0  0
  1  3  5  0  0  0  0
  2  4  5  0  0  0  0
  3  5  2  0  0  0  0
  4 34  1  0  0  0  0
  4  6  2  0  0  0  0
  5 36  1  0  0  0  0
  5  6  5  0  0  0  0
  6 25  1  0  0  0  0
  7  8  1  0  0  0  0
  7  9  1  0  0  0  0
  8 10  1  0  0  0  0
  9 11  1  0  0  0  0
 12 11  1  1  0  0  0
 12 10  1  0  0  0  0
 12 13  1  0  0  0  0
 12 14  1  0  0  0  0
 13 15  1  0  0  0  0
 14  1  1  1  0  0  0
 14 15  1  0  0  0  0
 16  7  1  0  0  0  0
 18 17  1  0  0  0  0
 18 19  2  0  0  0  0
 18 20  5  0  0  0  0
 19 21  1  0  0  0  0
 19 22  5  0  0  0  0
 20 23  2  0  0  0  0
 22 24  2  0  0  0  0
 22 16  1  0  0  0  0
 23 24  5  0  0  0  0
 25 26  1  0  0  0  0
 25 27  1  0  0  0  0
 26 28  2  0  0  0  0
 26 29  1  0  0  0  0
 27 30  1  0  0  0  0
 29 31  1  0  0  0  0
 29 33  1  0  0  0  0
 30 31  1  0  0  0  0
 31 32  2  0  0  0  0
 34 35  1  0  0  0  0
 36 37  1  0  0  0  0
M  END
>  <ID>
EDEL-CRBN-0015_ent

>  <Stereoisomer>
enantiomer

>  <MW>
517.18

>  <HBD>
1

>  <HBA>
6

>  <RotBonds>
6

>  <cLogP>
4.09

>  <minimizedAffinity>
-7.68612

>  <CNNscore>
0.7952077389

>  <CNNaffinity>
6.7457432747

>  <CNN_VS>
5.3642673492

>  <CNNaffinity_variance>
0.3262837231
> <Compound_ID>
EDEL-CRBN-0015_ent

> <Vina_dG_kcal_mol>
-7.690

> <CNN_pKd>
6.746

> <GBSA_dG_kcal_mol>
-35.163

> <GBSA_dG_std>
0.405

> <GBSA_VDWAALS>
-40.242

> <GBSA_EEL>
-0.755

> <GBSA_EGB>
10.232

> <GBSA_ESURF>
-4.398

> <GBSA_rank>
26

$$$$
EDEL-CRBN-0011
 OpenBabel09062620533D

 35 39  0  0  0  0  0  0  0  0999 V2000
   88.3078  149.1461   16.4681 N   0  0  0  0  0  0  0  0  0  0  0  0
   88.7264  148.9684   15.0736 C   0  0  0  0  0  0  0  0  0  0  0  0
   86.8714  149.0053   16.7025 C   0  0  0  0  0  0  0  0  0  0  0  0
   87.7030  149.5963   14.1305 C   0  0  0  0  0  0  0  0  0  0  0  0
   86.1660  148.1886   15.6231 C   0  0  0  0  0  0  0  0  0  0  0  0
   86.3671  148.8453   14.2502 C   0  0  2  0  0  0  0  0  0  0  0  0
   86.2880  147.8108   13.2108 O   0  0  0  0  0  0  0  0  0  0  0  0
   85.0956  149.5290   13.6374 C   0  0  2  0  0  0  0  0  0  0  0  0
   85.4262  148.6608   12.4133 C   0  0  0  0  0  0  0  0  0  0  0  0
   85.0049  151.1114   13.5453 C   0  0  0  0  0  0  0  0  0  0  0  0
   83.8118  151.7798   13.8760 C   0  0  0  0  0  0  0  0  0  0  0  0
   86.0637  151.9345   13.1285 C   0  0  0  0  0  0  0  0  0  0  0  0
   83.6852  153.1763   13.8025 C   0  0  0  0  0  0  0  0  0  0  0  0
   85.9531  153.3338   13.0785 C   0  0  0  0  0  0  0  0  0  0  0  0
   84.7695  153.9887   13.4368 C   0  0  0  0  0  0  0  0  0  0  0  0
   84.7189  155.4233   13.4465 N   0  0  0  0  0  0  0  0  0  0  0  0
   85.0879  156.1775   12.3326 C   0  0  0  0  0  0  0  0  0  0  0  0
   84.1132  156.1157   14.5792 C   0  0  0  0  0  0  0  0  0  0  0  0
   85.4655  155.7384   11.2489 O   0  0  0  0  0  0  0  0  0  0  0  0
   84.9987  157.5398   12.4914 N   0  0  0  0  0  0  0  0  0  0  0  0
   84.8857  157.3754   14.9117 C   0  0  0  0  0  0  0  0  0  0  0  0
   85.0127  158.2169   13.6787 C   0  0  0  0  0  0  0  0  0  0  0  0
   85.2008  159.4295   13.7238 O   0  0  0  0  0  0  0  0  0  0  0  0
   84.9170  158.0793   11.6720 H   0  0  0  0  0  0  0  0  0  0  0  0
   82.4450  153.6973   14.0860 O   0  0  0  0  0  0  0  0  0  0  0  0
   81.8081  152.9052   15.0924 C   0  0  0  0  0  0  0  0  0  0  0  0
   89.1860  148.4968   17.4463 C   0  0  0  0  0  0  0  0  0  0  0  0
   94.2751  148.5053   18.6746 Cl  0  0  0  0  0  0  0  0  0  0  0  0
   92.7728  149.3195   18.4595 C   0  0  0  0  0  0  0  0  0  0  0  0
   91.6363  148.6193   18.0539 C   0  0  0  0  0  0  0  0  0  0  0  0
   92.7006  150.6920   18.6915 C   0  0  0  0  0  0  0  0  0  0  0  0
   91.7136  147.2983   17.8242 F   0  0  0  0  0  0  0  0  0  0  0  0
   90.4088  149.2720   17.8796 C   0  0  0  0  0  0  0  0  0  0  0  0
   91.4897  151.3606   18.5119 C   0  0  0  0  0  0  0  0  0  0  0  0
   90.3525  150.6565   18.1061 C   0  0  0  0  0  0  0  0  0  0  0  0
  1  2  1  0  0  0  0
  1  3  1  0  0  0  0
  2  4  1  0  0  0  0
  3  5  1  0  0  0  0
  6  5  1  1  0  0  0
  6  4  1  0  0  0  0
  6  7  1  0  0  0  0
  6  8  1  0  0  0  0
  7  9  1  0  0  0  0
  8 10  1  6  0  0  0
  8  9  1  0  0  0  0
 10 11  2  0  0  0  0
 10 12  5  0  0  0  0
 11 13  5  0  0  0  0
 12 14  2  0  0  0  0
 13 25  1  0  0  0  0
 13 15  2  0  0  0  0
 15 14  5  0  0  0  0
 15 16  1  0  0  0  0
 16 17  1  0  0  0  0
 16 18  1  0  0  0  0
 17 19  2  0  0  0  0
 17 20  1  0  0  0  0
 18 21  1  0  0  0  0
 20 22  1  0  0  0  0
 20 24  1  0  0  0  0
 21 22  1  0  0  0  0
 22 23  2  0  0  0  0
 25 26  1  0  0  0  0
 27  1  1  0  0  0  0
 29 28  1  0  0  0  0
 29 30  2  0  0  0  0
 29 31  5  0  0  0  0
 30 32  1  0  0  0  0
 30 33  5  0  0  0  0
 31 34  2  0  0  0  0
 33 35  2  0  0  0  0
 33 27  1  0  0  0  0
 34 35  5  0  0  0  0
M  END
>  <ID>
EDEL-CRBN-0011

>  <Stereoisomer>
original

>  <MW>
487.17

>  <HBD>
1

>  <HBA>
5

>  <RotBonds>
5

>  <cLogP>
4.08

>  <minimizedAffinity>
-7.93425

>  <CNNscore>
0.5687072873

>  <CNNaffinity>
6.7179055214

>  <CNN_VS>
3.8205218315

>  <CNNaffinity_variance>
0.0631243959
> <Compound_ID>
EDEL-CRBN-0011

> <Vina_dG_kcal_mol>
-7.930

> <CNN_pKd>
6.718

> <GBSA_dG_kcal_mol>
-34.663

> <GBSA_dG_std>
0.301

> <GBSA_VDWAALS>
-37.368

> <GBSA_EEL>
-4.447

> <GBSA_EGB>
10.702

> <GBSA_ESURF>
-3.551

> <GBSA_rank>
27

$$$$
EDEL-CRBN-0012
 OpenBabel09062620533D

 35 39  0  0  0  0  0  0  0  0999 V2000
   88.3078  149.1461   16.4681 N   0  0  0  0  0  0  0  0  0  0  0  0
   88.7264  148.9684   15.0736 C   0  0  0  0  0  0  0  0  0  0  0  0
   86.8714  149.0053   16.7025 C   0  0  0  0  0  0  0  0  0  0  0  0
   87.7030  149.5963   14.1305 C   0  0  0  0  0  0  0  0  0  0  0  0
   86.1660  148.1886   15.6231 C   0  0  0  0  0  0  0  0  0  0  0  0
   86.3671  148.8453   14.2502 C   0  0  2  0  0  0  0  0  0  0  0  0
   86.2880  147.8108   13.2108 O   0  0  0  0  0  0  0  0  0  0  0  0
   85.0956  149.5290   13.6374 C   0  0  2  0  0  0  0  0  0  0  0  0
   85.4262  148.6608   12.4133 C   0  0  0  0  0  0  0  0  0  0  0  0
   85.0049  151.1114   13.5453 C   0  0  0  0  0  0  0  0  0  0  0  0
   83.8118  151.7798   13.8760 C   0  0  0  0  0  0  0  0  0  0  0  0
   86.0637  151.9345   13.1285 C   0  0  0  0  0  0  0  0  0  0  0  0
   83.6852  153.1763   13.8025 C   0  0  0  0  0  0  0  0  0  0  0  0
   85.9531  153.3338   13.0785 C   0  0  0  0  0  0  0  0  0  0  0  0
   84.7695  153.9887   13.4368 C   0  0  0  0  0  0  0  0  0  0  0  0
   84.7189  155.4233   13.4465 N   0  0  0  0  0  0  0  0  0  0  0  0
   85.0879  156.1775   12.3326 C   0  0  0  0  0  0  0  0  0  0  0  0
   84.1132  156.1157   14.5792 C   0  0  0  0  0  0  0  0  0  0  0  0
   85.4655  155.7384   11.2489 O   0  0  0  0  0  0  0  0  0  0  0  0
   84.9987  157.5398   12.4914 N   0  0  0  0  0  0  0  0  0  0  0  0
   84.8857  157.3754   14.9117 C   0  0  0  0  0  0  0  0  0  0  0  0
   85.0127  158.2169   13.6787 C   0  0  0  0  0  0  0  0  0  0  0  0
   85.2008  159.4295   13.7238 O   0  0  0  0  0  0  0  0  0  0  0  0
   84.9170  158.0793   11.6720 H   0  0  0  0  0  0  0  0  0  0  0  0
   82.4450  153.6973   14.0860 O   0  0  0  0  0  0  0  0  0  0  0  0
   81.8081  152.9052   15.0924 C   0  0  0  0  0  0  0  0  0  0  0  0
   89.1860  148.4968   17.4463 C   0  0  0  0  0  0  0  0  0  0  0  0
   94.2751  148.5053   18.6746 Cl  0  0  0  0  0  0  0  0  0  0  0  0
   92.7728  149.3195   18.4595 C   0  0  0  0  0  0  0  0  0  0  0  0
   91.6363  148.6193   18.0539 C   0  0  0  0  0  0  0  0  0  0  0  0
   92.7006  150.6920   18.6915 C   0  0  0  0  0  0  0  0  0  0  0  0
   91.7136  147.2983   17.8242 F   0  0  0  0  0  0  0  0  0  0  0  0
   90.4088  149.2720   17.8796 C   0  0  0  0  0  0  0  0  0  0  0  0
   91.4897  151.3606   18.5119 C   0  0  0  0  0  0  0  0  0  0  0  0
   90.3525  150.6565   18.1061 C   0  0  0  0  0  0  0  0  0  0  0  0
  1  2  1  0  0  0  0
  1  3  1  0  0  0  0
  2  4  1  0  0  0  0
  3  5  1  0  0  0  0
  6  5  1  1  0  0  0
  6  4  1  0  0  0  0
  6  7  1  0  0  0  0
  6  8  1  0  0  0  0
  7  9  1  0  0  0  0
  8 10  1  6  0  0  0
  8  9  1  0  0  0  0
 10 11  2  0  0  0  0
 10 12  5  0  0  0  0
 11 13  5  0  0  0  0
 12 14  2  0  0  0  0
 13 25  1  0  0  0  0
 13 15  2  0  0  0  0
 15 14  5  0  0  0  0
 15 16  1  0  0  0  0
 16 17  1  0  0  0  0
 16 18  1  0  0  0  0
 17 19  2  0  0  0  0
 17 20  1  0  0  0  0
 18 21  1  0  0  0  0
 20 22  1  0  0  0  0
 20 24  1  0  0  0  0
 21 22  1  0  0  0  0
 22 23  2  0  0  0  0
 25 26  1  0  0  0  0
 27  1  1  0  0  0  0
 29 28  1  0  0  0  0
 29 30  2  0  0  0  0
 29 31  5  0  0  0  0
 30 32  1  0  0  0  0
 30 33  5  0  0  0  0
 31 34  2  0  0  0  0
 33 35  2  0  0  0  0
 33 27  1  0  0  0  0
 34 35  5  0  0  0  0
M  END
>  <ID>
EDEL-CRBN-0012

>  <Stereoisomer>
original

>  <MW>
487.17

>  <HBD>
1

>  <HBA>
5

>  <RotBonds>
5

>  <cLogP>
4.08

>  <minimizedAffinity>
-7.93425

>  <CNNscore>
0.5687072873

>  <CNNaffinity>
6.7179055214

>  <CNN_VS>
3.8205218315

>  <CNNaffinity_variance>
0.0631243959
> <Compound_ID>
EDEL-CRBN-0012

> <Vina_dG_kcal_mol>
-7.930

> <CNN_pKd>
6.718

> <GBSA_dG_kcal_mol>
-34.663

> <GBSA_dG_std>
0.301

> <GBSA_VDWAALS>
-37.368

> <GBSA_EEL>
-4.447

> <GBSA_EGB>
10.702

> <GBSA_ESURF>
-3.551

> <GBSA_rank>
28

$$$$
EDEL-CRBN-0007
 OpenBabel09062620533D

 34 38  0  0  0  0  0  0  0  0999 V2000
   90.8869  151.2726    4.6324 O   0  0  0  0  0  0  0  0  0  0  0  0
   89.9668  151.7399    5.2990 C   0  0  0  0  0  0  0  0  0  0  0  0
   90.2632  152.4351    6.4353 N   0  0  0  0  0  0  0  0  0  0  0  0
   88.5046  151.6634    4.9007 C   0  0  2  0  0  0  0  0  0  0  0  0
   89.2901  152.8059    7.4290 C   0  0  0  0  0  0  0  0  0  0  0  0
   87.5135  150.9902    5.8889 C   0  0  2  0  0  0  0  0  0  0  0  0
   88.3410  150.8958    3.5819 C   0  0  0  0  0  0  0  0  0  0  0  0
   88.7329  151.5665    8.0785 C   0  0  0  0  0  0  0  0  0  0  0  0
   87.9182  150.6869    7.3290 C   0  0  0  0  0  0  0  0  0  0  0  0
   86.9866  149.7905    5.0759 C   0  0  0  0  0  0  0  0  0  0  0  0
   87.0112  150.2862    3.6985 N   0  0  0  0  0  0  0  0  0  0  0  0
   89.0500  151.2598    9.4249 C   0  0  0  0  0  0  0  0  0  0  0  0
   87.3996  149.5603    7.9881 C   0  0  0  0  0  0  0  0  0  0  0  0
   88.4860  150.1524   10.0898 C   0  0  0  0  0  0  0  0  0  0  0  0
   87.6779  149.2995    9.3350 C   0  0  0  0  0  0  0  0  0  0  0  0
   91.1999  152.6990    6.5845 H   0  0  0  0  0  0  0  0  0  0  0  0
   88.6614  149.9026   11.4931 N   0  0  0  0  0  0  0  0  0  0  0  0
   87.6645  150.1974   12.4229 C   0  0  0  0  0  0  0  0  0  0  0  0
   89.8585  149.2110   11.9601 C   0  0  0  0  0  0  0  0  0  0  0  0
   86.5487  150.6468   12.1737 O   0  0  0  0  0  0  0  0  0  0  0  0
   87.9935  149.9427   13.7328 N   0  0  0  0  0  0  0  0  0  0  0  0
   90.3707  149.8411   13.2388 C   0  0  0  0  0  0  0  0  0  0  0  0
   89.2600  149.8885   14.2444 C   0  0  0  0  0  0  0  0  0  0  0  0
   89.4677  149.9592   15.4525 O   0  0  0  0  0  0  0  0  0  0  0  0
   87.2503  149.7851   14.3589 H   0  0  0  0  0  0  0  0  0  0  0  0
   89.9628  152.0702   10.0664 O   0  0  0  0  0  0  0  0  0  0  0  0
   89.3320  152.7245   11.1742 C   0  0  0  0  0  0  0  0  0  0  0  0
   86.7922  149.2095    2.7263 C   0  0  0  0  0  0  0  0  0  0  0  0
   85.3528  149.1175    2.2687 C   0  0  0  0  0  0  0  0  0  0  0  0
   84.6505  150.2665    1.8783 C   0  0  0  0  0  0  0  0  0  0  0  0
   84.6975  147.8775    2.2318 C   0  0  0  0  0  0  0  0  0  0  0  0
   83.3231  150.1753    1.4552 C   0  0  0  0  0  0  0  0  0  0  0  0
   83.3707  147.7881    1.8085 C   0  0  0  0  0  0  0  0  0  0  0  0
   82.6845  148.9368    1.4192 C   0  0  0  0  0  0  0  0  0  0  0  0
  1  2  2  0  0  0  0
  2  3  1  0  0  0  0
  3  5  1  0  0  0  0
  3 16  1  0  0  0  0
  4  2  1  0  0  0  0
  4  6  1  0  0  0  0
  4  7  1  6  0  0  0
  6  9  1  0  0  0  0
  6 10  1  6  0  0  0
  7 11  1  0  0  0  0
  8  5  1  0  0  0  0
  8 12  2  0  0  0  0
  8  9  5  0  0  0  0
  9 13  2  0  0  0  0
 10 11  1  0  0  0  0
 11 28  1  0  0  0  0
 12 26  1  0  0  0  0
 12 14  5  0  0  0  0
 13 15  5  0  0  0  0
 14 17  1  0  0  0  0
 14 15  2  0  0  0  0
 17 18  1  0  0  0  0
 17 19  1  0  0  0  0
 18 20  2  0  0  0  0
 18 21  1  0  0  0  0
 19 22  1  0  0  0  0
 21 23  1  0  0  0  0
 21 25  1  0  0  0  0
 22 23  1  0  0  0  0
 23 24  2  0  0  0  0
 26 27  1  0  0  0  0
 28 29  1  0  0  0  0
 29 30  2  0  0  0  0
 29 31  5  0  0  0  0
 30 32  5  0  0  0  0
 31 33  2  0  0  0  0
 32 34  2  0  0  0  0
 33 34  5  0  0  0  0
M  END
>  <ID>
EDEL-CRBN-0007

>  <Stereoisomer>
original

>  <MW>
434.2

>  <HBD>
2

>  <HBA>
5

>  <RotBonds>
4

>  <cLogP>
1.99

>  <minimizedAffinity>
-5.20466

>  <CNNscore>
0.1955077946

>  <CNNaffinity>
4.7996840477

>  <CNN_VS>
0.9383756518

>  <CNNaffinity_variance>
0.2578146756
> <Compound_ID>
EDEL-CRBN-0007

> <Vina_dG_kcal_mol>
-5.200

> <CNN_pKd>
4.800

> <GBSA_dG_kcal_mol>
-29.429

> <GBSA_dG_std>
0.925

> <GBSA_VDWAALS>
-34.367

> <GBSA_EEL>
-1.606

> <GBSA_EGB>
10.335

> <GBSA_ESURF>
-3.791

> <GBSA_rank>
29

$$$$
EDEL-CRBN-0010_ent
 OpenBabel09062620533D

 36 40  0  0  0  0  0  0  0  0999 V2000
   83.6885  152.8004   18.4414 O   0  0  0  0  0  0  0  0  0  0  0  0
   83.2947  151.6939   18.0671 C   0  0  0  0  0  0  0  0  0  0  0  0
   82.6577  150.9088   18.9787 N   0  0  0  0  0  0  0  0  0  0  0  0
   83.6231  151.1559   16.6835 C   0  0  1  0  0  0  0  0  0  0  0  0
   81.9246  149.6954   18.7092 C   0  0  0  0  0  0  0  0  0  0  0  0
   82.7329  150.1176   15.9864 C   0  0  1  0  0  0  0  0  0  0  0  0
   83.7457  152.3018   15.6611 C   0  0  0  0  0  0  0  0  0  0  0  0
   80.8587  149.9498   17.6746 C   0  0  0  0  0  0  0  0  0  0  0  0
   81.2520  150.2105   16.3402 C   0  0  0  0  0  0  0  0  0  0  0  0
   83.1404  150.3370   14.5203 C   0  0  0  0  0  0  0  0  0  0  0  0
   83.1726  151.7915   14.4026 N   0  0  0  0  0  0  0  0  0  0  0  0
   79.4952  150.0002   18.0223 C   0  0  0  0  0  0  0  0  0  0  0  0
   80.2592  150.5058   15.3933 C   0  0  0  0  0  0  0  0  0  0  0  0
   78.5015  150.2574   17.0582 C   0  0  0  0  0  0  0  0  0  0  0  0
   78.9021  150.5370   15.7434 C   0  0  0  0  0  0  0  0  0  0  0  0
   82.7016  151.1987   19.9186 H   0  0  0  0  0  0  0  0  0  0  0  0
   77.1236  150.2002   17.4261 N   0  0  0  0  0  0  0  0  0  0  0  0
   76.4215  149.0008   17.4301 C   0  0  0  0  0  0  0  0  0  0  0  0
   76.5950  151.3237   18.1871 C   0  0  0  0  0  0  0  0  0  0  0  0
   76.7724  147.9591   16.8808 O   0  0  0  0  0  0  0  0  0  0  0  0
   75.1836  149.0609   18.0262 N   0  0  0  0  0  0  0  0  0  0  0  0
   75.1218  151.4977   17.8943 C   0  0  0  0  0  0  0  0  0  0  0  0
   74.4160  150.1897   18.1220 C   0  0  0  0  0  0  0  0  0  0  0  0
   73.2019  150.1239   18.2991 O   0  0  0  0  0  0  0  0  0  0  0  0
   74.8229  148.2303   18.4125 H   0  0  0  0  0  0  0  0  0  0  0  0
   79.1482  149.7816   19.3381 O   0  0  0  0  0  0  0  0  0  0  0  0
   79.1110  148.3759   19.6081 C   0  0  0  0  0  0  0  0  0  0  0  0
   77.9437  150.6887   14.7692 O   0  0  0  0  0  0  0  0  0  0  0  0
   77.8960  149.5739   13.8767 C   0  0  0  0  0  0  0  0  0  0  0  0
   83.8683  152.2569   13.2024 C   0  0  0  0  0  0  0  0  0  0  0  0
   84.2146  153.7293   13.2537 C   0  0  0  0  0  0  0  0  0  0  0  0
   85.4603  154.1850   12.7952 C   0  0  0  0  0  0  0  0  0  0  0  0
   83.3058  154.6597   13.7776 C   0  0  0  0  0  0  0  0  0  0  0  0
   85.7866  155.5405   12.8531 C   0  0  0  0  0  0  0  0  0  0  0  0
   83.6344  156.0155   13.8357 C   0  0  0  0  0  0  0  0  0  0  0  0
   84.8737  156.4551   13.3739 C   0  0  0  0  0  0  0  0  0  0  0  0
  1  2  2  0  0  0  0
  2  3  1  0  0  0  0
  3  5  1  0  0  0  0
  3 16  1  0  0  0  0
  4  2  1  0  0  0  0
  4  6  1  0  0  0  0
  4  7  1  6  0  0  0
  6  9  1  0  0  0  0
  6 10  1  6  0  0  0
  7 11  1  0  0  0  0
  8  5  1  0  0  0  0
  8 12  2  0  0  0  0
  8  9  5  0  0  0  0
  9 13  2  0  0  0  0
 10 11  1  0  0  0  0
 11 30  1  0  0  0  0
 12 26  1  0  0  0  0
 12 14  5  0  0  0  0
 13 15  5  0  0  0  0
 14 17  1  0  0  0  0
 14 15  2  0  0  0  0
 15 28  1  0  0  0  0
 17 18  1  0  0  0  0
 17 19  1  0  0  0  0
 18 20  2  0  0  0  0
 18 21  1  0  0  0  0
 19 22  1  0  0  0  0
 21 23  1  0  0  0  0
 21 25  1  0  0  0  0
 22 23  1  0  0  0  0
 23 24  2  0  0  0  0
 26 27  1  0  0  0  0
 28 29  1  0  0  0  0
 30 31  1  0  0  0  0
 31 32  2  0  0  0  0
 31 33  5  0  0  0  0
 32 34  5  0  0  0  0
 33 35  2  0  0  0  0
 34 36  2  0  0  0  0
 35 36  5  0  0  0  0
M  END
>  <ID>
EDEL-CRBN-0010_ent

>  <Stereoisomer>
enantiomer

>  <MW>
464.21

>  <HBD>
2

>  <HBA>
6

>  <RotBonds>
5

>  <cLogP>
2.0

>  <minimizedAffinity>
-7.61045

>  <CNNscore>
0.1955153793

>  <CNNaffinity>
4.6759052277

>  <CNN_VS>
0.9142113924

>  <CNNaffinity_variance>
1.6306905746
> <Compound_ID>
EDEL-CRBN-0010_ent

> <Vina_dG_kcal_mol>
-7.610

> <CNN_pKd>
4.676

> <GBSA_dG_kcal_mol>
-27.515

> <GBSA_dG_std>
0.790

> <GBSA_VDWAALS>
-33.086

> <GBSA_EEL>
-1.423

> <GBSA_EGB>
10.723

> <GBSA_ESURF>
-3.730

> <GBSA_rank>
30

$$$$
EDEL-CRBN-0006_ent
 OpenBabel09062620533D

 34 38  0  0  0  0  0  0  0  0999 V2000
   86.4671  156.1653    3.3291 O   0  0  0  0  0  0  0  0  0  0  0  0
   87.5487  156.6463    2.9990 C   0  0  0  0  0  0  0  0  0  0  0  0
   87.6201  157.9832    2.7313 N   0  0  0  0  0  0  0  0  0  0  0  0
   88.8099  155.8275    2.7877 C   0  0  1  0  0  0  0  0  0  0  0  0
   88.8531  158.7048    2.5722 C   0  0  0  0  0  0  0  0  0  0  0  0
   90.0711  156.1943    3.6174 C   0  0  1  0  0  0  0  0  0  0  0  0
   88.5486  154.3467    3.0943 C   0  0  0  0  0  0  0  0  0  0  0  0
   89.6032  158.7004    3.8763 C   0  0  0  0  0  0  0  0  0  0  0  0
   90.1470  157.5059    4.3920 C   0  0  0  0  0  0  0  0  0  0  0  0
   90.3259  154.9144    4.4387 C   0  0  0  0  0  0  0  0  0  0  0  0
   89.8504  153.8502    3.5497 N   0  0  0  0  0  0  0  0  0  0  0  0
   89.7201  159.9047    4.5997 C   0  0  0  0  0  0  0  0  0  0  0  0
   90.8459  157.5806    5.6119 C   0  0  0  0  0  0  0  0  0  0  0  0
   90.4190  159.9689    5.8123 C   0  0  0  0  0  0  0  0  0  0  0  0
   90.9876  158.7886    6.3125 C   0  0  0  0  0  0  0  0  0  0  0  0
   86.7766  158.4829    2.6418 H   0  0  0  0  0  0  0  0  0  0  0  0
   90.5236  161.2093    6.5140 N   0  0  0  0  0  0  0  0  0  0  0  0
   91.4485  162.1790    6.1256 C   0  0  0  0  0  0  0  0  0  0  0  0
   89.4823  161.5915    7.4547 C   0  0  0  0  0  0  0  0  0  0  0  0
   92.1710  162.1429    5.1323 O   0  0  0  0  0  0  0  0  0  0  0  0
   91.4922  163.2937    6.9326 N   0  0  0  0  0  0  0  0  0  0  0  0
   90.0905  162.2929    8.6500 C   0  0  0  0  0  0  0  0  0  0  0  0
   90.9287  163.4412    8.1703 C   0  0  0  0  0  0  0  0  0  0  0  0
   91.1515  164.4289    8.8652 O   0  0  0  0  0  0  0  0  0  0  0  0
   91.9834  164.0705    6.5798 H   0  0  0  0  0  0  0  0  0  0  0  0
   91.5401  158.8006    7.5715 O   0  0  0  0  0  0  0  0  0  0  0  0
   92.9428  159.0654    7.5657 C   0  0  0  0  0  0  0  0  0  0  0  0
   89.7286  152.5522    4.2242 C   0  0  0  0  0  0  0  0  0  0  0  0
   89.7906  152.6652    5.7327 C   0  0  0  0  0  0  0  0  0  0  0  0
   91.0015  152.4783    6.4150 C   0  0  0  0  0  0  0  0  0  0  0  0
   88.6363  152.9653    6.4714 C   0  0  0  0  0  0  0  0  0  0  0  0
   91.0547  152.5878    7.8059 C   0  0  0  0  0  0  0  0  0  0  0  0
   88.6911  153.0739    7.8617 C   0  0  0  0  0  0  0  0  0  0  0  0
   89.9004  152.8855    8.5282 C   0  0  0  0  0  0  0  0  0  0  0  0
  1  2  2  0  0  0  0
  2  3  1  0  0  0  0
  3  5  1  0  0  0  0
  3 16  1  0  0  0  0
  4  2  1  0  0  0  0
  4  6  1  0  0  0  0
  4  7  1  1  0  0  0
  6  9  1  0  0  0  0
  6 10  1  1  0  0  0
  7 11  1  0  0  0  0
  8  5  1  0  0  0  0
  8 12  2  0  0  0  0
  8  9  5  0  0  0  0
  9 13  2  0  0  0  0
 10 11  1  0  0  0  0
 11 28  1  0  0  0  0
 13 15  5  0  0  0  0
 14 12  5  0  0  0  0
 14 17  1  0  0  0  0
 14 15  2  0  0  0  0
 15 26  1  0  0  0  0
 17 18  1  0  0  0  0
 17 19  1  0  0  0  0
 18 20  2  0  0  0  0
 18 21  1  0  0  0  0
 19 22  1  0  0  0  0
 21 23  1  0  0  0  0
 21 25  1  0  0  0  0
 22 23  1  0  0  0  0
 23 24  2  0  0  0  0
 26 27  1  0  0  0  0
 28 29  1  0  0  0  0
 29 30  2  0  0  0  0
 29 31  5  0  0  0  0
 30 32  5  0  0  0  0
 31 33  2  0  0  0  0
 32 34  2  0  0  0  0
 33 34  5  0  0  0  0
M  END
>  <ID>
EDEL-CRBN-0006_ent

>  <Stereoisomer>
enantiomer

>  <MW>
434.2

>  <HBD>
2

>  <HBA>
5

>  <RotBonds>
4

>  <cLogP>
1.99

>  <minimizedAffinity>
-6.41401

>  <CNNscore>
0.1986629069

>  <CNNaffinity>
4.5118823051

>  <CNN_VS>
0.8963436484

>  <CNNaffinity_variance>
0.6926615834
> <Compound_ID>
EDEL-CRBN-0006_ent

> <Vina_dG_kcal_mol>
-6.410

> <CNN_pKd>
4.512

> <GBSA_dG_kcal_mol>
-24.930

> <GBSA_dG_std>
0.441

> <GBSA_VDWAALS>
-34.826

> <GBSA_EEL>
-2.391

> <GBSA_EGB>
15.898

> <GBSA_ESURF>
-3.611

> <GBSA_rank>
31

$$$$
EDEL-CRBN-0010
 OpenBabel09062620533D

 36 40  0  0  0  0  0  0  0  0999 V2000
   81.1299  149.9059   12.5817 O   0  0  0  0  0  0  0  0  0  0  0  0
   80.2954  149.0941   12.9845 C   0  0  0  0  0  0  0  0  0  0  0  0
   80.5966  148.3512   14.0806 N   0  0  0  0  0  0  0  0  0  0  0  0
   78.9971  148.8710   12.2407 C   0  0  2  0  0  0  0  0  0  0  0  0
   79.6912  147.5034   14.8097 C   0  0  0  0  0  0  0  0  0  0  0  0
   77.6661  148.7950   13.0142 C   0  0  2  0  0  0  0  0  0  0  0  0
   79.0466  147.5989   11.3964 C   0  0  0  0  0  0  0  0  0  0  0  0
   78.5579  148.3083   15.3829 C   0  0  0  0  0  0  0  0  0  0  0  0
   77.6248  148.9269   14.5251 C   0  0  0  0  0  0  0  0  0  0  0  0
   77.0213  147.4810   12.5355 C   0  0  0  0  0  0  0  0  0  0  0  0
   77.6301  147.2525   11.2231 N   0  0  0  0  0  0  0  0  0  0  0  0
   78.4185  148.4664   16.7779 C   0  0  0  0  0  0  0  0  0  0  0  0
   76.5570  149.6504   15.0913 C   0  0  0  0  0  0  0  0  0  0  0  0
   77.3377  149.1756   17.3398 C   0  0  0  0  0  0  0  0  0  0  0  0
   76.4152  149.7832   16.4774 C   0  0  0  0  0  0  0  0  0  0  0  0
   81.5240  148.3971   14.4079 H   0  0  0  0  0  0  0  0  0  0  0  0
   77.1846  149.2316   18.7577 N   0  0  0  0  0  0  0  0  0  0  0  0
   77.2419  150.4382   19.4451 C   0  0  0  0  0  0  0  0  0  0  0  0
   76.5556  148.0877   19.4033 C   0  0  0  0  0  0  0  0  0  0  0  0
   77.6855  151.4960   19.0040 O   0  0  0  0  0  0  0  0  0  0  0  0
   76.8506  150.3699   20.7616 N   0  0  0  0  0  0  0  0  0  0  0  0
   77.0797  147.9398   20.8139 C   0  0  0  0  0  0  0  0  0  0  0  0
   76.9166  149.2464   21.5402 C   0  0  0  0  0  0  0  0  0  0  0  0
   76.9278  149.3188   22.7666 O   0  0  0  0  0  0  0  0  0  0  0  0
   76.4965  151.1904   21.1748 H   0  0  0  0  0  0  0  0  0  0  0  0
   79.3635  147.8892   17.6002 O   0  0  0  0  0  0  0  0  0  0  0  0
   80.3995  148.8337   17.8919 C   0  0  0  0  0  0  0  0  0  0  0  0
   75.2896  150.3678   17.0056 O   0  0  0  0  0  0  0  0  0  0  0  0
   74.1702  149.4809   17.0254 C   0  0  0  0  0  0  0  0  0  0  0  0
   77.4221  145.8807   10.7489 C   0  0  0  0  0  0  0  0  0  0  0  0
   78.1939  145.5674    9.4856 C   0  0  0  0  0  0  0  0  0  0  0  0
   79.1948  144.5841    9.4896 C   0  0  0  0  0  0  0  0  0  0  0  0
   77.9295  146.2589    8.2948 C   0  0  0  0  0  0  0  0  0  0  0  0
   79.9131  144.2970    8.3282 C   0  0  0  0  0  0  0  0  0  0  0  0
   78.6497  145.9707    7.1338 C   0  0  0  0  0  0  0  0  0  0  0  0
   79.6406  144.9908    7.1510 C   0  0  0  0  0  0  0  0  0  0  0  0
  1  2  2  0  0  0  0
  2  3  1  0  0  0  0
  3  5  1  0  0  0  0
  3 16  1  0  0  0  0
  4  2  1  0  0  0  0
  4  6  1  0  0  0  0
  4  7  1  1  0  0  0
  6  9  1  0  0  0  0
  6 10  1  1  0  0  0
  7 11  1  0  0  0  0
  8  5  1  0  0  0  0
  8 12  2  0  0  0  0
  8  9  5  0  0  0  0
  9 13  2  0  0  0  0
 10 11  1  0  0  0  0
 11 30  1  0  0  0  0
 12 26  1  0  0  0  0
 12 14  5  0  0  0  0
 13 15  5  0  0  0  0
 14 17  1  0  0  0  0
 14 15  2  0  0  0  0
 15 28  1  0  0  0  0
 17 18  1  0  0  0  0
 17 19  1  0  0  0  0
 18 20  2  0  0  0  0
 18 21  1  0  0  0  0
 19 22  1  0  0  0  0
 21 23  1  0  0  0  0
 21 25  1  0  0  0  0
 22 23  1  0  0  0  0
 23 24  2  0  0  0  0
 26 27  1  0  0  0  0
 28 29  1  0  0  0  0
 30 31  1  0  0  0  0
 31 32  2  0  0  0  0
 31 33  5  0  0  0  0
 32 34  5  0  0  0  0
 33 35  2  0  0  0  0
 34 36  2  0  0  0  0
 35 36  5  0  0  0  0
M  END
>  <ID>
EDEL-CRBN-0010

>  <Stereoisomer>
original

>  <MW>
464.21

>  <HBD>
2

>  <HBA>
6

>  <RotBonds>
5

>  <cLogP>
2.0

>  <minimizedAffinity>
-5.73912

>  <CNNscore>
0.2811208665

>  <CNNaffinity>
4.6641116142

>  <CNN_VS>
1.3111790419

>  <CNNaffinity_variance>
0.5645320415
> <Compound_ID>
EDEL-CRBN-0010

> <Vina_dG_kcal_mol>
-5.740

> <CNN_pKd>
4.664

> <GBSA_dG_kcal_mol>
-21.333

> <GBSA_dG_std>
0.532

> <GBSA_VDWAALS>
-27.717

> <GBSA_EEL>
-2.515

> <GBSA_EGB>
12.132

> <GBSA_ESURF>
-3.232

> <GBSA_rank>
32

$$$$
