NC-001
     RDKit          3D

 41 46  0  0  0  0  0  0  0  0999 V2000
   26.7510    1.9756  -22.5223 C   0  0  0  0  0  0  0  0  0  0  0  0
   25.7574    2.0219  -21.7959 O   0  0  0  0  0  0  0  0  0  0  0  0
   28.0341    1.8482  -21.9719 N   0  0  0  0  0  0  0  0  0  0  0  0
   28.1285    1.7129  -20.5041 C   0  0  0  0  0  0  0  0  0  0  0  0
   28.2406    3.0892  -19.8019 C   0  0  0  0  0  0  0  0  0  0  0  0
   29.2266    3.9102  -20.5564 C   0  0  0  0  0  0  0  0  0  0  0  0
   29.6630    3.6279  -21.8329 C   0  0  0  0  0  0  0  0  0  0  0  0
   30.5644    4.5661  -22.2542 N   0  0  0  0  0  0  0  0  0  0  0  0
   30.6672    5.4367  -21.2516 C   0  0  0  0  0  0  0  0  0  0  0  0
   29.8505    5.0699  -20.1984 N   0  0  0  0  0  0  0  0  0  0  0  0
   29.6907    5.7992  -18.9638 C   0  0  0  0  0  0  0  0  0  0  0  0
   29.2221    2.4402  -22.6316 C   0  0  0  0  0  0  0  0  0  0  0  0
   26.4493    4.4962  -24.6027 C   0  0  0  0  0  0  0  0  0  0  0  0
   26.5043    3.0396  -24.8874 C   0  0  0  0  0  0  0  0  0  0  0  0
   26.6400    2.0015  -23.9698 C   0  0  0  0  0  0  0  0  0  0  0  0
   26.7113    0.8046  -24.6279 O   0  0  0  0  0  0  0  0  0  0  0  0
   26.5827    1.0567  -25.9543 C   0  0  0  0  0  0  0  0  0  0  0  0
   26.5870    0.0917  -26.9607 C   0  0  0  0  0  0  0  0  0  0  0  0
   26.4431    0.5585  -28.2705 C   0  0  0  0  0  0  0  0  0  0  0  0
   26.3068    1.9208  -28.5265 C   0  0  0  0  0  0  0  0  0  0  0  0
   26.1718    2.3347  -29.7940 F   0  0  0  0  0  0  0  0  0  0  0  0
   26.3071    2.8714  -27.5016 C   0  0  0  0  0  0  0  0  0  0  0  0
   26.4472    2.4216  -26.1758 C   0  0  0  0  0  0  0  0  0  0  0  0
   31.5424    6.6009  -21.3057 C   0  0  0  0  0  0  0  0  0  0  0  0
   32.7098    6.6077  -20.9233 O   0  0  0  0  0  0  0  0  0  0  0  0
   30.9237    7.7056  -21.8442 N   0  0  0  0  0  0  0  0  0  0  0  0
   29.9550    7.6642  -22.0149 H   0  0  0  0  0  0  0  0  0  0  0  0
   31.6261    8.9183  -22.1695 C   0  0  0  0  0  0  0  0  0  0  0  0
   32.5424    8.7117  -23.3455 C   0  0  0  0  0  0  0  0  0  0  0  0
   32.0909    8.0560  -24.4926 C   0  0  0  0  0  0  0  0  0  0  0  0
   32.9379    7.8819  -25.5958 C   0  0  0  0  0  0  0  0  0  0  0  0
   34.2578    8.3590  -25.6069 C   0  0  0  0  0  0  0  0  0  0  0  0
   34.6859    9.0230  -24.4461 C   0  0  0  0  0  0  0  0  0  0  0  0
   33.8489    9.2028  -23.3356 C   0  0  0  0  0  0  0  0  0  0  0  0
   35.0938    8.1821  -26.6964 N   0  0  0  0  0  0  0  0  0  0  0  0
   34.9238    8.9620  -27.9336 C   0  0  0  0  0  0  0  0  0  0  0  0
   35.4279    8.1765  -29.1681 C   0  0  0  0  0  0  0  0  0  0  0  0
   36.8234    7.6948  -29.1009 N   0  0  0  0  0  0  0  0  0  0  0  0
   37.7390    8.5785  -29.8169 C   0  0  0  0  0  0  0  0  0  0  0  0
   37.2632    7.5176  -27.6995 C   0  0  0  0  0  0  0  0  0  0  0  0
   36.1283    7.1349  -26.7211 C   0  0  0  0  0  0  0  0  0  0  0  0
 13 14  1  0
 14 15  2  0
 15  1  1  0
  1  2  2  0
  1  3  1  0
  3  4  1  0
  4  5  1  0
  5  6  1  0
  6  7  2  0
  7  8  1  0
  8  9  2  0
  9 24  1  0
 24 25  2  0
 24 26  1  0
 26 28  1  0
 28 29  1  0
 29 30  1  0
 30 31  2  0
 31 32  1  0
 32 35  1  0
 35 36  1  0
 36 37  1  0
 37 38  1  0
 38 39  1  0
 38 40  1  0
 40 41  1  0
 32 33  2  0
 33 34  1  0
  9 10  1  0
 10 11  1  0
  7 12  1  0
 15 16  1  0
 16 17  1  0
 17 18  1  0
 18 19  2  0
 19 20  1  0
 20 21  1  0
 20 22  2  0
 22 23  1  0
 23 14  1  0
 12  3  1  0
 23 17  2  0
 10  6  1  0
 34 29  2  0
 41 35  1  0
 26 27  1  0
M  END
>  <SMILES>  (1) 
Cc1c(C(=O)N2CCc3c(nc(C(=O)NCc4ccc(N5CCN(C)CC5)cc4)n3C)C2)oc2ccc(F)cc12

>  <minimizedAffinity>  (1) 
-9.64717

>  <CNNscore>  (1) 
0.6519028544

>  <CNNaffinity>  (1) 
8.0327348709

>  <CNN_VS>  (1) 
5.2365627289

>  <CNNaffinity_variance>  (1) 
0.5980773568

$$$$
