NC-010
     RDKit          3D

 40 45  0  0  0  0  0  0  0  0999 V2000
   25.9924    1.8189  -24.8467 C   0  0  0  0  0  0  0  0  0  0  0  0
   26.0182    0.6340  -24.5118 O   0  0  0  0  0  0  0  0  0  0  0  0
   25.9634    2.8356  -23.8832 N   0  0  0  0  0  0  0  0  0  0  0  0
   25.9781    2.4260  -22.4646 C   0  0  0  0  0  0  0  0  0  0  0  0
   27.4224    2.3269  -21.9126 C   0  0  0  0  0  0  0  0  0  0  0  0
   28.1759    3.5250  -22.3755 C   0  0  0  0  0  0  0  0  0  0  0  0
   27.7648    4.3622  -23.3908 C   0  0  0  0  0  0  0  0  0  0  0  0
   28.6717    5.3673  -23.5854 N   0  0  0  0  0  0  0  0  0  0  0  0
   29.6503    5.1381  -22.7119 C   0  0  0  0  0  0  0  0  0  0  0  0
   29.3823    4.0094  -21.9604 N   0  0  0  0  0  0  0  0  0  0  0  0
   30.2406    3.4525  -20.9430 C   0  0  0  0  0  0  0  0  0  0  0  0
   26.4867    4.1959  -24.1540 C   0  0  0  0  0  0  0  0  0  0  0  0
   27.2890    0.3341  -27.3255 C   0  0  0  0  0  0  0  0  0  0  0  0
   26.4852    1.5962  -27.3581 C   0  0  0  0  0  0  0  0  0  0  0  0
   25.9450    2.2208  -26.2435 C   0  0  0  0  0  0  0  0  0  0  0  0
   25.1609    3.6825  -26.6308 S   0  0  0  0  0  0  0  0  0  0  0  0
   25.4469    3.4857  -28.3120 C   0  0  0  0  0  0  0  0  0  0  0  0
   25.0360    4.3530  -29.3441 C   0  0  0  0  0  0  0  0  0  0  0  0
   25.3613    4.0390  -30.6645 C   0  0  0  0  0  0  0  0  0  0  0  0
   26.0810    2.8904  -30.9562 C   0  0  0  0  0  0  0  0  0  0  0  0
   26.4880    2.0342  -29.9282 C   0  0  0  0  0  0  0  0  0  0  0  0
   26.1723    2.3208  -28.5744 C   0  0  0  0  0  0  0  0  0  0  0  0
   30.8239    5.9955  -22.6014 C   0  0  0  0  0  0  0  0  0  0  0  0
   31.8905    5.6477  -22.1014 O   0  0  0  0  0  0  0  0  0  0  0  0
   30.6107    7.2545  -23.1132 N   0  0  0  0  0  0  0  0  0  0  0  0
   29.7725    7.4269  -23.6000 H   0  0  0  0  0  0  0  0  0  0  0  0
   31.5542    8.3312  -22.9711 C   0  0  0  0  0  0  0  0  0  0  0  0
   32.6079    8.2703  -24.0445 C   0  0  0  0  0  0  0  0  0  0  0  0
   33.9437    8.5589  -23.7578 C   0  0  0  0  0  0  0  0  0  0  0  0
   34.9170    8.4789  -24.7613 C   0  0  0  0  0  0  0  0  0  0  0  0
   34.6019    8.0954  -26.0759 C   0  0  0  0  0  0  0  0  0  0  0  0
   33.2550    7.8160  -26.3459 C   0  0  0  0  0  0  0  0  0  0  0  0
   32.2739    7.8912  -25.3478 C   0  0  0  0  0  0  0  0  0  0  0  0
   35.6159    8.0411  -27.0461 N   0  0  0  0  0  0  0  0  0  0  0  0
   37.0110    8.2426  -26.6050 C   0  0  0  0  0  0  0  0  0  0  0  0
   38.0033    7.9331  -27.7519 C   0  0  0  0  0  0  0  0  0  0  0  0
   37.7529    8.6545  -29.0199 N   0  0  0  0  0  0  0  0  0  0  0  0
   38.0855   10.0727  -28.9102 C   0  0  0  0  0  0  0  0  0  0  0  0
   36.3374    8.4547  -29.4018 C   0  0  0  0  0  0  0  0  0  0  0  0
   35.2920    8.7610  -28.3005 C   0  0  0  0  0  0  0  0  0  0  0  0
 13 14  1  0
 14 15  2  0
 15  1  1  0
  1  2  2  0
  1  3  1  0
  3  4  1  0
  4  5  1  0
  5  6  1  0
  6  7  2  0
  7  8  1  0
  8  9  2  0
  9 23  1  0
 23 24  2  0
 23 25  1  0
 25 27  1  0
 27 28  1  0
 28 29  1  0
 29 30  2  0
 30 31  1  0
 31 34  1  0
 34 35  1  0
 35 36  1  0
 36 37  1  0
 37 38  1  0
 37 39  1  0
 39 40  1  0
 31 32  2  0
 32 33  1  0
  9 10  1  0
 10 11  1  0
  7 12  1  0
 15 16  1  0
 16 17  1  0
 17 18  2  0
 18 19  1  0
 19 20  2  0
 20 21  1  0
 21 22  2  0
 22 14  1  0
 12  3  1  0
 22 17  1  0
 10  6  1  0
 33 28  2  0
 40 34  1  0
 25 26  1  0
M  END
>  <SMILES>  (1) 
Cc1c(C(=O)N2CCc3c(nc(C(=O)NCc4ccc(N5CCN(C)CC5)cc4)n3C)C2)sc2ccccc12

>  <minimizedAffinity>  (1) 
-14.72729

>  <CNNscore>  (1) 
0.9931947589

>  <CNNaffinity>  (1) 
8.7917633057

>  <CNN_VS>  (1) 
8.7319335938

>  <CNNaffinity_variance>  (1) 
0.9888750911

$$$$
