NC-005
     RDKit          3D

 40 45  0  0  0  0  0  0  0  0999 V2000
   26.1118    1.7885  -24.9752 C   0  0  0  0  0  0  0  0  0  0  0  0
   25.6652    0.7104  -24.5752 O   0  0  0  0  0  0  0  0  0  0  0  0
   26.6822    2.6884  -24.0679 N   0  0  0  0  0  0  0  0  0  0  0  0
   26.4393    2.4816  -22.6220 C   0  0  0  0  0  0  0  0  0  0  0  0
   27.7396    2.4744  -21.7865 C   0  0  0  0  0  0  0  0  0  0  0  0
   28.5663    3.6179  -22.2286 C   0  0  0  0  0  0  0  0  0  0  0  0
   28.4292    4.2682  -23.4326 C   0  0  0  0  0  0  0  0  0  0  0  0
   29.3447    5.2846  -23.5350 N   0  0  0  0  0  0  0  0  0  0  0  0
   30.0397    5.2425  -22.4037 C   0  0  0  0  0  0  0  0  0  0  0  0
   29.5917    4.2336  -21.5804 N   0  0  0  0  0  0  0  0  0  0  0  0
   27.4154    3.9133  -24.4727 C   0  0  0  0  0  0  0  0  0  0  0  0
   29.9461    4.0020  -20.6916 H   0  0  0  0  0  0  0  0  0  0  0  0
   27.2901    0.1717  -27.4962 C   0  0  0  0  0  0  0  0  0  0  0  0
   26.5314    1.4489  -27.5046 C   0  0  0  0  0  0  0  0  0  0  0  0
   26.0534    2.1340  -26.3905 C   0  0  0  0  0  0  0  0  0  0  0  0
   25.3727    3.2503  -26.7973 O   0  0  0  0  0  0  0  0  0  0  0  0
   25.4382    3.3046  -28.1519 C   0  0  0  0  0  0  0  0  0  0  0  0
   24.8778    4.3036  -28.9446 C   0  0  0  0  0  0  0  0  0  0  0  0
   25.0517    4.1754  -30.3261 C   0  0  0  0  0  0  0  0  0  0  0  0
   25.7518    3.0945  -30.8666 C   0  0  0  0  0  0  0  0  0  0  0  0
   26.3028    2.1044  -30.0397 C   0  0  0  0  0  0  0  0  0  0  0  0
   26.1425    2.2160  -28.6455 C   0  0  0  0  0  0  0  0  0  0  0  0
   31.1271    6.1412  -22.0672 C   0  0  0  0  0  0  0  0  0  0  0  0
   31.4995    6.3402  -20.9142 O   0  0  0  0  0  0  0  0  0  0  0  0
   31.6869    6.7463  -23.1664 N   0  0  0  0  0  0  0  0  0  0  0  0
   31.4087    6.4448  -24.0613 H   0  0  0  0  0  0  0  0  0  0  0  0
   32.6612    7.8006  -23.0691 C   0  0  0  0  0  0  0  0  0  0  0  0
   33.5030    7.8730  -24.3148 C   0  0  0  0  0  0  0  0  0  0  0  0
   34.8964    7.9252  -24.2385 C   0  0  0  0  0  0  0  0  0  0  0  0
   35.6686    7.9704  -25.4058 C   0  0  0  0  0  0  0  0  0  0  0  0
   35.0874    7.9490  -26.6849 C   0  0  0  0  0  0  0  0  0  0  0  0
   33.6874    7.9036  -26.7410 C   0  0  0  0  0  0  0  0  0  0  0  0
   32.9060    7.8560  -25.5785 C   0  0  0  0  0  0  0  0  0  0  0  0
   35.9089    8.0054  -27.8227 N   0  0  0  0  0  0  0  0  0  0  0  0
   37.3606    7.8014  -27.6423 C   0  0  0  0  0  0  0  0  0  0  0  0
   38.0752    7.6774  -29.0096 C   0  0  0  0  0  0  0  0  0  0  0  0
   37.8232    8.7836  -29.9602 N   0  0  0  0  0  0  0  0  0  0  0  0
   38.4953   10.0138  -29.5493 C   0  0  0  0  0  0  0  0  0  0  0  0
   36.3609    8.9755  -30.0800 C   0  0  0  0  0  0  0  0  0  0  0  0
   35.5880    9.1202  -28.7454 C   0  0  0  0  0  0  0  0  0  0  0  0
 13 14  1  0
 14 15  2  0
 15  1  1  0
  1  2  2  0
  1  3  1  0
  3  4  1  0
  4  5  1  0
  5  6  1  0
  6  7  2  0
  7  8  1  0
  8  9  2  0
  9 23  1  0
 23 24  2  0
 23 25  1  0
 25 27  1  0
 27 28  1  0
 28 29  1  0
 29 30  2  0
 30 31  1  0
 31 34  1  0
 34 35  1  0
 35 36  1  0
 36 37  1  0
 37 38  1  0
 37 39  1  0
 39 40  1  0
 31 32  2  0
 32 33  1  0
  9 10  1  0
  7 11  1  0
 15 16  1  0
 16 17  1  0
 17 18  2  0
 18 19  1  0
 19 20  2  0
 20 21  1  0
 21 22  2  0
 22 14  1  0
 11  3  1  0
 22 17  1  0
 10  6  1  0
 33 28  2  0
 40 34  1  0
 25 26  1  0
 10 12  1  0
M  END
>  <SMILES>  (1) 
Cc1c(C(=O)N2CCc3c(nc(C(=O)NCc4ccc(N5CCN(C)CC5)cc4)[nH]3)C2)oc2ccccc12

>  <minimizedAffinity>  (1) 
-13.37271

>  <CNNscore>  (1) 
0.9567020535

>  <CNNaffinity>  (1) 
8.5433712006

>  <CNN_VS>  (1) 
8.1734609604

>  <CNNaffinity_variance>  (1) 
0.1932095289

$$$$
