NC-008
     RDKit          3D

 40 45  0  0  0  0  0  0  0  0999 V2000
   26.0565    1.7152  -24.9982 C   0  0  0  0  0  0  0  0  0  0  0  0
   25.6361    0.6265  -24.5985 O   0  0  0  0  0  0  0  0  0  0  0  0
   26.5845    2.6370  -24.0879 N   0  0  0  0  0  0  0  0  0  0  0  0
   26.3257    2.4345  -22.6468 C   0  0  0  0  0  0  0  0  0  0  0  0
   27.6136    2.4583  -21.7937 C   0  0  0  0  0  0  0  0  0  0  0  0
   28.4312    3.6177  -22.2256 C   0  0  0  0  0  0  0  0  0  0  0  0
   28.2862    4.2572  -23.4355 C   0  0  0  0  0  0  0  0  0  0  0  0
   29.1768    5.2914  -23.5411 N   0  0  0  0  0  0  0  0  0  0  0  0
   29.8781    5.2787  -22.4105 C   0  0  0  0  0  0  0  0  0  0  0  0
   29.4538    4.2548  -21.5848 N   0  0  0  0  0  0  0  0  0  0  0  0
   30.0107    3.9303  -20.2941 C   0  0  0  0  0  0  0  0  0  0  0  0
   27.2922    3.8771  -24.4860 C   0  0  0  0  0  0  0  0  0  0  0  0
   27.2815    0.0971  -27.4964 C   0  0  0  0  0  0  0  0  0  0  0  0
   26.5082    1.3653  -27.5208 C   0  0  0  0  0  0  0  0  0  0  0  0
   26.0100    2.0512  -26.4161 C   0  0  0  0  0  0  0  0  0  0  0  0
   25.3209    3.1571  -26.8369 O   0  0  0  0  0  0  0  0  0  0  0  0
   25.4021    3.2053  -28.1907 C   0  0  0  0  0  0  0  0  0  0  0  0
   24.8409    4.1944  -28.9953 C   0  0  0  0  0  0  0  0  0  0  0  0
   25.0328    4.0611  -30.3738 C   0  0  0  0  0  0  0  0  0  0  0  0
   25.7505    2.9848  -30.9005 C   0  0  0  0  0  0  0  0  0  0  0  0
   26.3019    2.0048  -30.0619 C   0  0  0  0  0  0  0  0  0  0  0  0
   26.1240    2.1219  -28.6703 C   0  0  0  0  0  0  0  0  0  0  0  0
   30.9442    6.2323  -22.1343 C   0  0  0  0  0  0  0  0  0  0  0  0
   32.0092    5.9452  -21.5922 O   0  0  0  0  0  0  0  0  0  0  0  0
   30.6470    7.5066  -22.5556 N   0  0  0  0  0  0  0  0  0  0  0  0
   29.7315    7.6997  -22.8621 H   0  0  0  0  0  0  0  0  0  0  0  0
   31.6186    8.5735  -22.5681 C   0  0  0  0  0  0  0  0  0  0  0  0
   32.5678    8.4560  -23.7371 C   0  0  0  0  0  0  0  0  0  0  0  0
   32.0664    7.9917  -24.9036 N   0  0  0  0  0  0  0  0  0  0  0  0
   32.9371    7.8574  -25.9390 C   0  0  0  0  0  0  0  0  0  0  0  0
   34.3026    8.1716  -25.9188 C   0  0  0  0  0  0  0  0  0  0  0  0
   34.7745    8.6199  -24.6813 C   0  0  0  0  0  0  0  0  0  0  0  0
   33.9142    8.7662  -23.5882 C   0  0  0  0  0  0  0  0  0  0  0  0
   35.1181    7.9967  -27.0479 N   0  0  0  0  0  0  0  0  0  0  0  0
   36.5500    7.6988  -26.8359 C   0  0  0  0  0  0  0  0  0  0  0  0
   37.2487    7.3215  -28.1642 C   0  0  0  0  0  0  0  0  0  0  0  0
   37.0757    8.2879  -29.2696 N   0  0  0  0  0  0  0  0  0  0  0  0
   37.8331    9.5158  -29.0409 C   0  0  0  0  0  0  0  0  0  0  0  0
   35.6317    8.5585  -29.4336 C   0  0  0  0  0  0  0  0  0  0  0  0
   34.8725    8.9633  -28.1458 C   0  0  0  0  0  0  0  0  0  0  0  0
 13 14  1  0
 14 15  2  0
 15  1  1  0
  1  2  2  0
  1  3  1  0
  3  4  1  0
  4  5  1  0
  5  6  1  0
  6  7  2  0
  7  8  1  0
  8  9  2  0
  9 23  1  0
 23 24  2  0
 23 25  1  0
 25 27  1  0
 27 28  1  0
 28 29  2  0
 29 30  1  0
 30 31  2  0
 31 34  1  0
 34 35  1  0
 35 36  1  0
 36 37  1  0
 37 38  1  0
 37 39  1  0
 39 40  1  0
 31 32  1  0
 32 33  2  0
  9 10  1  0
 10 11  1  0
  7 12  1  0
 15 16  1  0
 16 17  1  0
 17 18  2  0
 18 19  1  0
 19 20  2  0
 20 21  1  0
 21 22  2  0
 22 14  1  0
 12  3  1  0
 22 17  1  0
 10  6  1  0
 33 28  1  0
 40 34  1  0
 25 26  1  0
M  END
>  <SMILES>  (1) 
Cc1c(C(=O)N2CCc3c(nc(C(=O)NCc4ncc(N5CCN(C)CC5)cc4)n3C)C2)oc2ccccc12

>  <minimizedAffinity>  (1) 
-14.24572

>  <CNNscore>  (1) 
0.9828308225

>  <CNNaffinity>  (1) 
8.7239522934

>  <CNN_VS>  (1) 
8.5741691589

>  <CNNaffinity_variance>  (1) 
0.8154657483

$$$$
