NC-004
     RDKit          3D

 41 46  0  0  0  0  0  0  0  0999 V2000
   33.0612    8.4916  -22.6858 C   0  0  0  0  0  0  0  0  0  0  0  0
   33.3818    9.4803  -22.0230 O   0  0  0  0  0  0  0  0  0  0  0  0
   32.1130    7.5899  -22.1933 N   0  0  0  0  0  0  0  0  0  0  0  0
   31.1893    6.8241  -23.0626 C   0  0  0  0  0  0  0  0  0  0  0  0
   30.9580    5.3857  -22.5458 C   0  0  0  0  0  0  0  0  0  0  0  0
   30.7149    5.4554  -21.0831 C   0  0  0  0  0  0  0  0  0  0  0  0
   31.0486    6.5308  -20.2901 C   0  0  0  0  0  0  0  0  0  0  0  0
   30.6959    6.2938  -18.9894 N   0  0  0  0  0  0  0  0  0  0  0  0
   30.1682    5.0770  -18.9728 C   0  0  0  0  0  0  0  0  0  0  0  0
   30.1862    4.5224  -20.2403 N   0  0  0  0  0  0  0  0  0  0  0  0
   29.7801    3.1813  -20.5852 C   0  0  0  0  0  0  0  0  0  0  0  0
   31.6880    7.7847  -20.7915 C   0  0  0  0  0  0  0  0  0  0  0  0
   31.6349    7.9433  -25.5208 C   0  0  0  0  0  0  0  0  0  0  0  0
   33.0896    8.0054  -25.2259 C   0  0  0  0  0  0  0  0  0  0  0  0
   33.6711    8.2241  -23.9806 C   0  0  0  0  0  0  0  0  0  0  0  0
   35.0352    8.2549  -24.1083 O   0  0  0  0  0  0  0  0  0  0  0  0
   35.3313    8.0284  -25.4135 C   0  0  0  0  0  0  0  0  0  0  0  0
   36.6164    7.9712  -25.9482 C   0  0  0  0  0  0  0  0  0  0  0  0
   36.7112    7.7304  -27.3223 C   0  0  0  0  0  0  0  0  0  0  0  0
   35.5664    7.5606  -28.1044 C   0  0  0  0  0  0  0  0  0  0  0  0
   34.2862    7.6265  -27.5350 C   0  0  0  0  0  0  0  0  0  0  0  0
   34.1680    7.8644  -26.1523 C   0  0  0  0  0  0  0  0  0  0  0  0
   29.6433    4.4516  -17.7691 C   0  0  0  0  0  0  0  0  0  0  0  0
   28.9490    5.0250  -16.9349 O   0  0  0  0  0  0  0  0  0  0  0  0
   30.0033    3.1243  -17.6394 N   0  0  0  0  0  0  0  0  0  0  0  0
   30.6092    2.7268  -18.3058 H   0  0  0  0  0  0  0  0  0  0  0  0
   29.5157    2.2982  -16.5509 C   0  0  1  0  0  0  0  0  0  0  0  0
   30.1566    2.6981  -15.2188 C   0  0  0  0  0  0  0  0  0  0  0  0
   27.9993    2.3610  -16.5412 C   0  0  0  0  0  0  0  0  0  0  0  0
   27.2893    2.0454  -17.7053 C   0  0  0  0  0  0  0  0  0  0  0  0
   25.8927    2.1331  -17.7381 C   0  0  0  0  0  0  0  0  0  0  0  0
   25.1497    2.5463  -16.6215 C   0  0  0  0  0  0  0  0  0  0  0  0
   25.8706    2.8723  -15.4669 C   0  0  0  0  0  0  0  0  0  0  0  0
   27.2702    2.7866  -15.4245 C   0  0  0  0  0  0  0  0  0  0  0  0
   23.7537    2.6121  -16.7128 N   0  0  0  0  0  0  0  0  0  0  0  0
   23.1927    1.6386  -17.6871 C   0  0  0  0  0  0  0  0  0  0  0  0
   21.6755    1.4326  -17.4723 C   0  0  0  0  0  0  0  0  0  0  0  0
   21.3353    0.9151  -16.1270 N   0  0  0  0  0  0  0  0  0  0  0  0
   19.9253    1.1505  -15.8297 C   0  0  0  0  0  0  0  0  0  0  0  0
   22.2231    1.4871  -15.0887 C   0  0  0  0  0  0  0  0  0  0  0  0
   22.9370    2.7947  -15.4955 C   0  0  0  0  0  0  0  0  0  0  0  0
 13 14  1  0
 14 15  2  0
 15  1  1  0
  1  2  2  0
  1  3  1  0
  3  4  1  0
  4  5  1  0
  5  6  1  0
  6  7  2  0
  7  8  1  0
  8  9  2  0
  9 23  1  0
 23 24  2  0
 23 25  1  0
 25 27  1  0
 27 28  1  1
 27 29  1  0
 29 30  1  0
 30 31  2  0
 31 32  1  0
 32 35  1  0
 35 36  1  0
 36 37  1  0
 37 38  1  0
 38 39  1  0
 38 40  1  0
 40 41  1  0
 32 33  2  0
 33 34  1  0
  9 10  1  0
 10 11  1  0
  7 12  1  0
 15 16  1  0
 16 17  1  0
 17 18  2  0
 18 19  1  0
 19 20  2  0
 20 21  1  0
 21 22  2  0
 22 14  1  0
 12  3  1  0
 22 17  1  0
 10  6  1  0
 34 29  2  0
 41 35  1  0
 25 26  1  0
M  END
>  <SMILES>  (1) 
Cc1c(C(=O)N2CCc3c(nc(C(=O)N[C@@H](C)c4ccc(N5CCN(C)CC5)cc4)n3C)C2)oc2ccccc12

>  <minimizedAffinity>  (1) 
-11.87190

>  <CNNscore>  (1) 
0.4604196846

>  <CNNaffinity>  (1) 
7.6221299171

>  <CNN_VS>  (1) 
3.5093786716

>  <CNNaffinity_variance>  (1) 
0.5965386033

$$$$
