NC-002
     RDKit          3D

 41 46  0  0  0  0  0  0  0  0999 V2000
   40.5930   -3.3870  -33.4215 C   0  0  0  0  0  0  0  0  0  0  0  0
   40.7104   -4.6144  -33.3917 O   0  0  0  0  0  0  0  0  0  0  0  0
   41.7256   -2.5731  -33.3139 N   0  0  0  0  0  0  0  0  0  0  0  0
   43.0577   -3.1879  -33.4998 C   0  0  0  0  0  0  0  0  0  0  0  0
   44.0350   -2.8725  -32.3452 C   0  0  0  0  0  0  0  0  0  0  0  0
   43.9421   -1.4234  -32.0451 C   0  0  0  0  0  0  0  0  0  0  0  0
   42.8801   -0.6264  -32.4062 C   0  0  0  0  0  0  0  0  0  0  0  0
   43.0860    0.6630  -31.9958 N   0  0  0  0  0  0  0  0  0  0  0  0
   44.2605    0.6573  -31.3699 C   0  0  0  0  0  0  0  0  0  0  0  0
   44.8088   -0.6114  -31.3728 N   0  0  0  0  0  0  0  0  0  0  0  0
   46.0600   -0.9875  -30.7604 C   0  0  0  0  0  0  0  0  0  0  0  0
   41.6720   -1.1016  -33.1471 C   0  0  0  0  0  0  0  0  0  0  0  0
   38.2370   -3.1333  -31.2447 C   0  0  0  0  0  0  0  0  0  0  0  0
   38.2296   -2.6669  -32.6555 C   0  0  0  0  0  0  0  0  0  0  0  0
   39.2776   -2.7742  -33.5662 C   0  0  0  0  0  0  0  0  0  0  0  0
   38.8851   -2.2661  -34.7755 O   0  0  0  0  0  0  0  0  0  0  0  0
   37.6159   -1.8051  -34.6406 C   0  0  0  0  0  0  0  0  0  0  0  0
   36.8723   -1.1990  -35.6498 C   0  0  0  0  0  0  0  0  0  0  0  0
   35.5800   -0.8009  -35.3033 C   0  0  0  0  0  0  0  0  0  0  0  0
   34.5900   -0.0413  -36.4921 Cl  0  0  0  0  0  0  0  0  0  0  0  0
   35.0700   -1.0040  -34.0190 C   0  0  0  0  0  0  0  0  0  0  0  0
   35.8487   -1.6194  -33.0275 C   0  0  0  0  0  0  0  0  0  0  0  0
   37.1573   -2.0271  -33.3496 C   0  0  0  0  0  0  0  0  0  0  0  0
   44.8455    1.8550  -30.7826 C   0  0  0  0  0  0  0  0  0  0  0  0
   45.2482    1.9362  -29.6249 O   0  0  0  0  0  0  0  0  0  0  0  0
   44.9156    2.9051  -31.6663 N   0  0  0  0  0  0  0  0  0  0  0  0
   44.5132    2.8019  -32.5589 H   0  0  0  0  0  0  0  0  0  0  0  0
   45.5550    4.1484  -31.3342 C   0  0  0  0  0  0  0  0  0  0  0  0
   44.5936    5.0840  -30.6576 C   0  0  0  0  0  0  0  0  0  0  0  0
   44.5032    5.1297  -29.2654 C   0  0  0  0  0  0  0  0  0  0  0  0
   43.5845    5.9827  -28.6381 C   0  0  0  0  0  0  0  0  0  0  0  0
   42.7174    6.8131  -29.3659 C   0  0  0  0  0  0  0  0  0  0  0  0
   42.8180    6.7394  -30.7640 C   0  0  0  0  0  0  0  0  0  0  0  0
   43.7336    5.8916  -31.4034 C   0  0  0  0  0  0  0  0  0  0  0  0
   41.8098    7.6490  -28.7384 N   0  0  0  0  0  0  0  0  0  0  0  0
   42.1572    8.4048  -27.5236 C   0  0  0  0  0  0  0  0  0  0  0  0
   41.2737    9.6681  -27.3987 C   0  0  0  0  0  0  0  0  0  0  0  0
   39.8237    9.3887  -27.3104 N   0  0  0  0  0  0  0  0  0  0  0  0
   39.0519   10.5427  -27.7630 C   0  0  0  0  0  0  0  0  0  0  0  0
   39.4675    8.1623  -28.0542 C   0  0  0  0  0  0  0  0  0  0  0  0
   40.4203    7.7724  -29.2097 C   0  0  0  0  0  0  0  0  0  0  0  0
 13 14  1  0
 14 15  2  0
 15  1  1  0
  1  2  2  0
  1  3  1  0
  3  4  1  0
  4  5  1  0
  5  6  1  0
  6  7  2  0
  7  8  1  0
  8  9  2  0
  9 24  1  0
 24 25  2  0
 24 26  1  0
 26 28  1  0
 28 29  1  0
 29 30  1  0
 30 31  2  0
 31 32  1  0
 32 35  1  0
 35 36  1  0
 36 37  1  0
 37 38  1  0
 38 39  1  0
 38 40  1  0
 40 41  1  0
 32 33  2  0
 33 34  1  0
  9 10  1  0
 10 11  1  0
  7 12  1  0
 15 16  1  0
 16 17  1  0
 17 18  1  0
 18 19  2  0
 19 20  1  0
 19 21  1  0
 21 22  2  0
 22 23  1  0
 23 14  1  0
 12  3  1  0
 23 17  2  0
 10  6  1  0
 34 29  2  0
 41 35  1  0
 26 27  1  0
M  END
>  <SMILES>  (1) 
Cc1c(C(=O)N2CCc3c(nc(C(=O)NCc4ccc(N5CCN(C)CC5)cc4)n3C)C2)oc2cc(Cl)ccc12

>  <minimizedAffinity>  (1) 
-7.34245

>  <CNNscore>  (1) 
0.3013838232

>  <CNNaffinity>  (1) 
5.7452988625

>  <CNN_VS>  (1) 
1.7315400839

>  <CNNaffinity_variance>  (1) 
0.3478733599

$$$$
