NC-009
     RDKit          3D

 42 47  0  0  0  0  0  0  0  0999 V2000
   33.1061    8.3958  -23.2375 C   0  0  0  0  0  0  0  0  0  0  0  0
   33.3058    9.3188  -22.4437 O   0  0  0  0  0  0  0  0  0  0  0  0
   33.8147    8.3500  -24.4496 N   0  0  0  0  0  0  0  0  0  0  0  0
   33.6245    7.3089  -25.4875 C   0  0  0  0  0  0  0  0  0  0  0  0
   33.8781    7.7950  -26.9342 C   0  0  0  0  0  0  0  0  0  0  0  0
   35.0917    8.6368  -26.9541 C   0  0  0  0  0  0  0  0  0  0  0  0
   35.6193    9.2523  -25.8454 C   0  0  0  0  0  0  0  0  0  0  0  0
   36.7428    9.9604  -26.1793 N   0  0  0  0  0  0  0  0  0  0  0  0
   36.8955    9.7966  -27.4909 C   0  0  0  0  0  0  0  0  0  0  0  0
   35.8893    8.9985  -28.0009 N   0  0  0  0  0  0  0  0  0  0  0  0
   35.7250    8.6399  -29.3886 C   0  0  0  0  0  0  0  0  0  0  0  0
   35.0601    9.1483  -24.4696 C   0  0  0  0  0  0  0  0  0  0  0  0
   33.1316    6.2775  -20.8196 C   0  0  0  0  0  0  0  0  0  0  0  0
   32.1281    6.4083  -21.9071 C   0  0  0  0  0  0  0  0  0  0  0  0
   32.1343    7.3562  -22.9266 C   0  0  0  0  0  0  0  0  0  0  0  0
   31.0749    7.1343  -23.7659 O   0  0  0  0  0  0  0  0  0  0  0  0
   30.3728    6.0815  -23.2746 C   0  0  0  0  0  0  0  0  0  0  0  0
   29.2132    5.5545  -23.8387 C   0  0  0  0  0  0  0  0  0  0  0  0
   28.6403    4.4611  -23.1820 C   0  0  0  0  0  0  0  0  0  0  0  0
   29.2153    3.9349  -22.0229 C   0  0  0  0  0  0  0  0  0  0  0  0
   30.3852    4.4880  -21.4817 C   0  0  0  0  0  0  0  0  0  0  0  0
   30.9762    5.5922  -22.1248 C   0  0  0  0  0  0  0  0  0  0  0  0
   37.9873   10.4043  -28.2415 C   0  0  0  0  0  0  0  0  0  0  0  0
   38.6960    9.7987  -29.0426 O   0  0  0  0  0  0  0  0  0  0  0  0
   38.1431   11.7421  -27.9648 N   0  0  0  0  0  0  0  0  0  0  0  0
   37.6354   12.1269  -27.2141 H   0  0  0  0  0  0  0  0  0  0  0  0
   39.0121   12.6081  -28.7186 C   0  0  0  0  0  0  0  0  0  0  0  0
   38.6814   14.0598  -28.4736 C   0  0  0  0  0  0  0  0  0  0  0  0
   39.1842   14.7521  -27.3613 C   0  0  0  0  0  0  0  0  0  0  0  0
   38.8342   16.0900  -27.1816 C   0  0  0  0  0  0  0  0  0  0  0  0
   37.9782   16.7272  -28.0889 C   0  0  0  0  0  0  0  0  0  0  0  0
   37.4389   16.0556  -29.1939 C   0  0  0  0  0  0  0  0  0  0  0  0
   37.8075   14.7171  -29.3656 C   0  0  0  0  0  0  0  0  0  0  0  0
   36.5793   16.7438  -30.0601 N   0  0  0  0  0  0  0  0  0  0  0  0
   35.3989   15.9317  -30.4522 C   0  0  0  0  0  0  0  0  0  0  0  0
   34.2852   16.8167  -31.0573 C   0  0  0  0  0  0  0  0  0  0  0  0
   33.7734   17.8441  -30.1206 N   0  0  0  0  0  0  0  0  0  0  0  0
   33.1004   18.9131  -30.8527 C   0  0  0  0  0  0  0  0  0  0  0  0
   34.8547   18.3663  -29.2516 C   0  0  0  0  0  0  0  0  0  0  0  0
   36.2828   18.1703  -29.8065 C   0  0  0  0  0  0  0  0  0  0  0  0
   40.0008   14.0379  -26.5252 O   0  0  0  0  0  0  0  0  0  0  0  0
   41.3924   14.3278  -26.5693 C   0  0  0  0  0  0  0  0  0  0  0  0
 13 14  1  0
 14 15  2  0
 15  1  1  0
  1  2  2  0
  1  3  1  0
  3  4  1  0
  4  5  1  0
  5  6  1  0
  6  7  2  0
  7  8  1  0
  8  9  2  0
  9 23  1  0
 23 24  2  0
 23 25  1  0
 25 27  1  0
 27 28  1  0
 28 29  2  0
 29 41  1  0
 41 42  1  0
 29 30  1  0
 30 31  2  0
 31 32  1  0
 32 34  1  0
 34 35  1  0
 35 36  1  0
 36 37  1  0
 37 38  1  0
 37 39  1  0
 39 40  1  0
 32 33  2  0
  9 10  1  0
 10 11  1  0
  7 12  1  0
 15 16  1  0
 16 17  1  0
 17 18  2  0
 18 19  1  0
 19 20  2  0
 20 21  1  0
 21 22  2  0
 22 14  1  0
 12  3  1  0
 22 17  1  0
 10  6  1  0
 33 28  1  0
 40 34  1  0
 25 26  1  0
M  END
>  <SMILES>  (1) 
Cc1c(C(=O)N2CCc3c(nc(C(=O)NCc4c(OC)ccc(N5CCN(C)CC5)c4)n3C)C2)oc2ccccc12

>  <minimizedAffinity>  (1) 
-9.18062

>  <CNNscore>  (1) 
0.1766386330

>  <CNNaffinity>  (1) 
6.7615566254

>  <CNN_VS>  (1) 
1.1943521500

>  <CNNaffinity_variance>  (1) 
0.6072469354

$$$$
