NC-007
     RDKit          3D

 40 46  0  0  0  0  0  0  0  0999 V2000
   25.9705    1.9997  -24.6630 C   0  0  0  0  0  0  0  0  0  0  0  0
   25.0566    1.4262  -24.0649 O   0  0  0  0  0  0  0  0  0  0  0  0
   27.1362    2.3596  -23.9786 N   0  0  0  0  0  0  0  0  0  0  0  0
   27.3913    1.7590  -22.6522 C   0  0  0  0  0  0  0  0  0  0  0  0
   27.6899    2.8114  -21.5613 C   0  0  0  0  0  0  0  0  0  0  0  0
   28.6620    3.7853  -22.1140 C   0  0  0  0  0  0  0  0  0  0  0  0
   28.8908    3.9709  -23.4583 C   0  0  0  0  0  0  0  0  0  0  0  0
   29.8450    4.9331  -23.6546 N   0  0  0  0  0  0  0  0  0  0  0  0
   30.1904    5.3486  -22.4381 C   0  0  0  0  0  0  0  0  0  0  0  0
   29.4733    4.6730  -21.4690 N   0  0  0  0  0  0  0  0  0  0  0  0
   29.5693    4.8929  -20.0464 C   0  0  0  0  0  0  0  0  0  0  0  0
   28.1954    3.2235  -24.5509 C   0  0  0  0  0  0  0  0  0  0  0  0
   26.8951    0.2461  -27.1984 C   0  0  0  0  0  0  0  0  0  0  0  0
   26.2542    1.5863  -27.2003 C   0  0  0  0  0  0  0  0  0  0  0  0
   25.8465    2.3092  -26.0822 C   0  0  0  0  0  0  0  0  0  0  0  0
   25.3327    3.5150  -26.4791 O   0  0  0  0  0  0  0  0  0  0  0  0
   25.3766    3.5573  -27.8349 C   0  0  0  0  0  0  0  0  0  0  0  0
   24.9297    4.6169  -28.6212 C   0  0  0  0  0  0  0  0  0  0  0  0
   25.0677    4.4692  -30.0047 C   0  0  0  0  0  0  0  0  0  0  0  0
   25.6285    3.3136  -30.5534 C   0  0  0  0  0  0  0  0  0  0  0  0
   26.0700    2.2652  -29.7328 C   0  0  0  0  0  0  0  0  0  0  0  0
   25.9372    2.3916  -28.3369 C   0  0  0  0  0  0  0  0  0  0  0  0
   31.1898    6.3854  -22.2147 C   0  0  0  0  0  0  0  0  0  0  0  0
   31.6926    6.6397  -21.1231 O   0  0  0  0  0  0  0  0  0  0  0  0
   31.5150    7.0652  -23.3662 N   0  0  0  0  0  0  0  0  0  0  0  0
   31.1674    6.7289  -24.2237 H   0  0  0  0  0  0  0  0  0  0  0  0
   32.3388    8.2441  -23.3753 C   0  0  0  0  0  0  0  0  0  0  0  0
   33.3749    8.1715  -24.4661 C   0  0  0  0  0  0  0  0  0  0  0  0
   33.0010    7.9612  -25.7979 C   0  0  0  0  0  0  0  0  0  0  0  0
   33.9682    7.9184  -26.8084 C   0  0  0  0  0  0  0  0  0  0  0  0
   35.3277    8.0845  -26.5169 C   0  0  0  0  0  0  0  0  0  0  0  0
   35.6917    8.3188  -25.1857 C   0  0  0  0  0  0  0  0  0  0  0  0
   34.7298    8.3619  -24.1710 C   0  0  0  0  0  0  0  0  0  0  0  0
   36.2972    8.0499  -27.5382 N   0  0  0  0  0  0  0  0  0  0  0  0
   36.0851    7.8231  -28.9480 C   0  0  0  0  0  0  0  0  0  0  0  0
   37.4365    8.4236  -29.1403 C   0  0  0  0  0  0  0  0  0  0  0  0
   38.5824    7.5644  -29.5556 C   0  0  0  0  0  0  0  0  0  0  0  0
   38.8464    8.4531  -30.6843 O   0  0  0  0  0  0  0  0  0  0  0  0
   37.7241    9.3034  -30.3027 C   0  0  0  0  0  0  0  0  0  0  0  0
   37.3830    8.9758  -27.7558 C   0  0  0  0  0  0  0  0  0  0  0  0
 13 14  1  0
 14 15  2  0
 15  1  1  0
  1  2  2  0
  1  3  1  0
  3  4  1  0
  4  5  1  0
  5  6  1  0
  6  7  2  0
  7  8  1  0
  8  9  2  0
  9 23  1  0
 23 24  2  0
 23 25  1  0
 25 27  1  0
 27 28  1  0
 28 29  1  0
 29 30  2  0
 30 31  1  0
 31 34  1  0
 34 35  1  0
 35 36  1  0
 36 37  1  0
 37 38  1  0
 38 39  1  0
 36 40  1  0
 31 32  2  0
 32 33  1  0
  9 10  1  0
 10 11  1  0
  7 12  1  0
 15 16  1  0
 16 17  1  0
 17 18  2  0
 18 19  1  0
 19 20  2  0
 20 21  1  0
 21 22  2  0
 22 14  1  0
 12  3  1  0
 22 17  1  0
 10  6  1  0
 33 28  2  0
 40 34  1  0
 39 36  1  0
 25 26  1  0
M  END
>  <SMILES>  (1) 
Cc1c(C(=O)N2CCc3c(nc(C(=O)NCc4ccc(N5CC6(COC6)C5)cc4)n3C)C2)oc2ccccc12

>  <minimizedAffinity>  (1) 
-10.68653

>  <CNNscore>  (1) 
0.7391382456

>  <CNNaffinity>  (1) 
7.9515385628

>  <CNN_VS>  (1) 
5.8772864342

>  <CNNaffinity_variance>  (1) 
0.2117424756

$$$$
