NC-006
     RDKit          3D

 40 45  0  0  0  0  0  0  0  0999 V2000
   25.4741    1.2541  -24.7156 C   0  0  0  0  0  0  0  0  0  0  0  0
   24.4984    0.5939  -24.3504 O   0  0  0  0  0  0  0  0  0  0  0  0
   26.4979    1.5455  -23.8059 N   0  0  0  0  0  0  0  0  0  0  0  0
   26.5568    0.7835  -22.5445 C   0  0  0  0  0  0  0  0  0  0  0  0
   26.6349    1.6994  -21.3111 C   0  0  0  0  0  0  0  0  0  0  0  0
   27.6817    2.7268  -21.5585 C   0  0  0  0  0  0  0  0  0  0  0  0
   28.4799    3.6186  -20.3572 S   0  0  0  0  0  0  0  0  0  0  0  0
   29.3861    4.4300  -21.5854 C   0  0  0  0  0  0  0  0  0  0  0  0
   29.1066    4.0571  -22.8236 N   0  0  0  0  0  0  0  0  0  0  0  0
   28.1242    3.0860  -22.8136 C   0  0  0  0  0  0  0  0  0  0  0  0
   27.6075    2.4814  -24.0859 C   0  0  0  0  0  0  0  0  0  0  0  0
   26.9708   -0.0888  -27.2294 C   0  0  0  0  0  0  0  0  0  0  0  0
   26.2237    1.1953  -27.1907 C   0  0  0  0  0  0  0  0  0  0  0  0
   25.5687    1.7380  -26.0880 C   0  0  0  0  0  0  0  0  0  0  0  0
   25.0263    2.9478  -26.4288 O   0  0  0  0  0  0  0  0  0  0  0  0
   25.2945    3.1692  -27.7400 C   0  0  0  0  0  0  0  0  0  0  0  0
   24.8921    4.2905  -28.4646 C   0  0  0  0  0  0  0  0  0  0  0  0
   25.2761    4.3325  -29.8081 C   0  0  0  0  0  0  0  0  0  0  0  0
   26.0222    3.2965  -30.3651 C   0  0  0  0  0  0  0  0  0  0  0  0
   26.3754    3.3698  -31.6555 F   0  0  0  0  0  0  0  0  0  0  0  0
   26.4150    2.1819  -29.6185 C   0  0  0  0  0  0  0  0  0  0  0  0
   26.0352    2.1183  -28.2651 C   0  0  0  0  0  0  0  0  0  0  0  0
   30.3939    5.4505  -21.2681 C   0  0  0  0  0  0  0  0  0  0  0  0
   31.0379    5.4665  -20.2185 O   0  0  0  0  0  0  0  0  0  0  0  0
   30.5900    6.4298  -22.2309 N   0  0  0  0  0  0  0  0  0  0  0  0
   30.1615    6.3253  -23.1110 H   0  0  0  0  0  0  0  0  0  0  0  0
   31.4023    7.5973  -21.9835 C   0  0  0  0  0  0  0  0  0  0  0  0
   32.2573    7.9055  -23.1835 C   0  0  0  0  0  0  0  0  0  0  0  0
   33.5375    8.4447  -23.0361 C   0  0  0  0  0  0  0  0  0  0  0  0
   34.3319    8.6967  -24.1606 C   0  0  0  0  0  0  0  0  0  0  0  0
   33.8858    8.4136  -25.4622 C   0  0  0  0  0  0  0  0  0  0  0  0
   32.6034    7.8666  -25.5919 C   0  0  0  0  0  0  0  0  0  0  0  0
   31.7999    7.6135  -24.4726 C   0  0  0  0  0  0  0  0  0  0  0  0
   34.7282    8.6905  -26.5476 N   0  0  0  0  0  0  0  0  0  0  0  0
   34.6442    7.6583  -27.6136 C   0  0  0  0  0  0  0  0  0  0  0  0
   35.8424    7.7542  -28.5857 C   0  0  0  0  0  0  0  0  0  0  0  0
   37.1538    7.5527  -27.9274 N   0  0  0  0  0  0  0  0  0  0  0  0
   38.2295    8.0922  -28.7543 C   0  0  0  0  0  0  0  0  0  0  0  0
   37.1648    8.1279  -26.5621 C   0  0  0  0  0  0  0  0  0  0  0  0
   36.0911    9.2081  -26.3056 C   0  0  0  0  0  0  0  0  0  0  0  0
 12 13  1  0
 13 14  2  0
 14  1  1  0
  1  2  2  0
  1  3  1  0
  3  4  1  0
  4  5  1  0
  5  6  1  0
  6  7  1  0
  7  8  1  0
  8 23  1  0
 23 24  2  0
 23 25  1  0
 25 27  1  0
 27 28  1  0
 28 29  1  0
 29 30  2  0
 30 31  1  0
 31 34  1  0
 34 35  1  0
 35 36  1  0
 36 37  1  0
 37 38  1  0
 37 39  1  0
 39 40  1  0
 31 32  2  0
 32 33  1  0
  8  9  2  0
  9 10  1  0
 10 11  1  0
 14 15  1  0
 15 16  1  0
 16 17  1  0
 17 18  2  0
 18 19  1  0
 19 20  1  0
 19 21  2  0
 21 22  1  0
 22 13  1  0
 11  3  1  0
 22 16  2  0
 10  6  2  0
 33 28  2  0
 40 34  1  0
 25 26  1  0
M  END
>  <SMILES>  (1) 
Cc1c(C(=O)N2CCc3sc(C(=O)NCc4ccc(N5CCN(C)CC5)cc4)nc3C2)oc2ccc(F)cc12

>  <minimizedAffinity>  (1) 
-10.46819

>  <CNNscore>  (1) 
0.8369914889

>  <CNNaffinity>  (1) 
8.3536834717

>  <CNN_VS>  (1) 
6.9919619560

>  <CNNaffinity_variance>  (1) 
0.4964306355

$$$$
