NC-003
     RDKit          3D

 39 44  0  0  0  0  0  0  0  0999 V2000
   26.4997    3.0965  -24.2200 C   0  0  0  0  0  0  0  0  0  0  0  0
   26.2417    3.4694  -25.3672 O   0  0  0  0  0  0  0  0  0  0  0  0
   27.5436    3.7066  -23.5046 N   0  0  0  0  0  0  0  0  0  0  0  0
   27.9601    3.3101  -22.1384 C   0  0  0  0  0  0  0  0  0  0  0  0
   29.4633    3.5237  -21.8417 C   0  0  0  0  0  0  0  0  0  0  0  0
   29.8801    4.8332  -22.3837 C   0  0  0  0  0  0  0  0  0  0  0  0
   29.1986    5.5126  -23.3636 C   0  0  0  0  0  0  0  0  0  0  0  0
   29.8271    6.6945  -23.6529 N   0  0  0  0  0  0  0  0  0  0  0  0
   30.9014    6.7320  -22.8694 C   0  0  0  0  0  0  0  0  0  0  0  0
   30.9705    5.5975  -22.0838 N   0  0  0  0  0  0  0  0  0  0  0  0
   32.0180    5.2924  -21.1396 C   0  0  0  0  0  0  0  0  0  0  0  0
   27.9410    5.0404  -24.0061 C   0  0  0  0  0  0  0  0  0  0  0  0
   26.9163    1.7138  -21.3479 C   0  0  0  0  0  0  0  0  0  0  0  0
   25.8997    1.3847  -22.3800 C   0  0  0  0  0  0  0  0  0  0  0  0
   25.7310    2.0225  -23.6058 C   0  0  0  0  0  0  0  0  0  0  0  0
   24.7240    1.4126  -24.3055 O   0  0  0  0  0  0  0  0  0  0  0  0
   24.2239    0.4189  -23.5275 C   0  0  0  0  0  0  0  0  0  0  0  0
   23.1740   -0.4267  -23.8788 C   0  0  0  0  0  0  0  0  0  0  0  0
   22.8094   -1.3939  -22.9372 C   0  0  0  0  0  0  0  0  0  0  0  0
   23.4753   -1.4952  -21.7136 C   0  0  0  0  0  0  0  0  0  0  0  0
   24.5305   -0.6290  -21.3916 C   0  0  0  0  0  0  0  0  0  0  0  0
   24.9111    0.3552  -22.3237 C   0  0  0  0  0  0  0  0  0  0  0  0
   31.8428    7.8433  -22.8749 C   0  0  0  0  0  0  0  0  0  0  0  0
   31.6309    8.9364  -22.3555 O   0  0  0  0  0  0  0  0  0  0  0  0
   33.0120    7.5533  -23.5362 N   0  0  0  0  0  0  0  0  0  0  0  0
   33.1458    6.6433  -23.8872 H   0  0  0  0  0  0  0  0  0  0  0  0
   34.0459    8.5311  -23.7335 C   0  0  0  0  0  0  0  0  0  0  0  0
   34.7003    8.3639  -25.0761 C   0  0  0  0  0  0  0  0  0  0  0  0
   36.0859    8.4760  -25.2121 C   0  0  0  0  0  0  0  0  0  0  0  0
   36.6918    8.2929  -26.4601 C   0  0  0  0  0  0  0  0  0  0  0  0
   35.9452    7.9832  -27.6088 C   0  0  0  0  0  0  0  0  0  0  0  0
   34.5590    7.8594  -27.4520 C   0  0  0  0  0  0  0  0  0  0  0  0
   33.9430    8.0434  -26.2064 C   0  0  0  0  0  0  0  0  0  0  0  0
   36.6087    7.8149  -28.8307 N   0  0  0  0  0  0  0  0  0  0  0  0
   36.2863    8.6872  -29.9787 C   0  0  0  0  0  0  0  0  0  0  0  0
   37.4102    9.7067  -30.2122 C   0  0  0  0  0  0  0  0  0  0  0  0
   38.6819    9.1026  -30.5066 O   0  0  0  0  0  0  0  0  0  0  0  0
   38.8043    7.7642  -29.9985 C   0  0  0  0  0  0  0  0  0  0  0  0
   38.0608    7.5474  -28.6704 C   0  0  0  0  0  0  0  0  0  0  0  0
 13 14  1  0
 14 15  2  0
 15  1  1  0
  1  2  2  0
  1  3  1  0
  3  4  1  0
  4  5  1  0
  5  6  1  0
  6  7  2  0
  7  8  1  0
  8  9  2  0
  9 23  1  0
 23 24  2  0
 23 25  1  0
 25 27  1  0
 27 28  1  0
 28 29  1  0
 29 30  2  0
 30 31  1  0
 31 34  1  0
 34 35  1  0
 35 36  1  0
 36 37  1  0
 37 38  1  0
 38 39  1  0
 31 32  2  0
 32 33  1  0
  9 10  1  0
 10 11  1  0
  7 12  1  0
 15 16  1  0
 16 17  1  0
 17 18  2  0
 18 19  1  0
 19 20  2  0
 20 21  1  0
 21 22  2  0
 22 14  1  0
 12  3  1  0
 22 17  1  0
 10  6  1  0
 33 28  2  0
 39 34  1  0
 25 26  1  0
M  END
>  <SMILES>  (1) 
Cc1c(C(=O)N2CCc3c(nc(C(=O)NCc4ccc(N5CCOCC5)cc4)n3C)C2)oc2ccccc12

>  <minimizedAffinity>  (1) 
-11.70608

>  <CNNscore>  (1) 
0.2894517779

>  <CNNaffinity>  (1) 
7.0607514381

>  <CNN_VS>  (1) 
2.0437469482

>  <CNNaffinity_variance>  (1) 
0.5630218983

$$$$
