pose_1
 OpenBabel09072615003D

 59 63  0  0  0  0  0  0  0  0999 V2000
   -7.2260   41.5464   44.4815 C   0  0  0  0  0  0  0  0  0  0  0  0
   -6.4210   42.6032   44.7317 N   0  0  0  0  0  0  0  0  0  0  0  0
   -8.4067   41.5903   43.8278 N   0  0  0  0  0  0  0  0  0  0  0  0
   -6.7404   43.8375   44.2636 C   0  0  0  0  0  0  0  0  0  0  0  0
   -8.7081   42.8294   43.4240 C   0  0  0  0  0  0  0  0  0  0  0  0
   -7.9642   43.9793   43.5920 C   0  0  0  0  0  0  0  0  0  0  0  0
   -9.8186   43.2231   42.7363 N   0  0  0  0  0  0  0  0  0  0  0  0
   -8.6036   45.0651   43.0222 N   0  0  0  0  0  0  0  0  0  0  0  0
   -9.7132   44.5699   42.5162 C   0  0  0  0  0  0  0  0  0  0  0  0
   -6.8235   40.2549   44.8594 N   0  0  0  0  0  0  0  0  0  0  0  0
   -3.9957   38.1367   46.0271 C   0  0  0  0  0  0  0  0  0  0  0  0
   -2.9363   39.0637   46.0352 C   0  0  0  0  0  0  0  0  0  0  0  0
   -5.2871   38.5689   45.6899 C   0  0  0  0  0  0  0  0  0  0  0  0
   -3.1855   40.3798   45.6160 C   0  0  0  0  0  0  0  0  0  0  0  0
   -1.5337   38.6859   46.4233 C   0  0  0  0  0  0  0  0  0  0  0  0
   -5.5358   39.8840   45.2795 C   0  0  0  0  0  0  0  0  0  0  0  0
   -4.4649   40.7754   45.2216 C   0  0  0  0  0  0  0  0  0  0  0  0
   -5.2292   36.5405   48.1233 O   0  0  0  0  0  0  0  0  0  0  0  0
   -4.3119   36.1082   47.4260 C   0  0  0  0  0  0  0  0  0  0  0  0
   -3.7820   34.8523   47.6321 N   0  0  0  0  0  0  0  0  0  0  0  0
   -3.7461   36.7872   46.3691 N   0  0  0  0  0  0  0  0  0  0  0  0
   -2.5960   34.2753   47.0149 C   0  0  0  0  0  0  0  0  0  0  0  0
   -4.2926   33.9944   48.6874 C   0  0  0  0  0  0  0  0  0  0  0  0
   -2.2356   33.0946   47.9063 C   0  0  0  0  0  0  0  0  0  0  0  0
   -3.5844   32.6662   48.4696 C   0  0  0  0  0  0  0  0  0  0  0  0
   -5.8755   44.9271   44.4465 N   0  0  0  0  0  0  0  0  0  0  0  0
   -4.5391   44.7485   43.8744 C   0  0  0  0  0  0  0  0  0  0  0  0
   -3.6684   46.0128   43.9322 C   0  0  0  0  0  0  0  0  0  0  0  0
   -3.8739   46.9655   42.8041 C   0  0  0  0  0  0  0  0  0  0  0  0
   -4.1197   48.3009   43.0387 N   0  0  0  0  0  0  0  0  0  0  0  0
   -3.8288   46.7243   41.4470 C   0  0  0  0  0  0  0  0  0  0  0  0
   -4.2649   48.8437   41.8510 C   0  0  0  0  0  0  0  0  0  0  0  0
   -4.0995   47.9265   40.8533 N   0  0  0  0  0  0  0  0  0  0  0  0
  -10.5955   42.6167   42.4370 H   0  0  0  0  0  0  0  0  0  0  0  0
  -10.4658   45.1670   41.9805 H   0  0  0  0  0  0  0  0  0  0  0  0
   -7.5371   39.5129   44.8253 H   0  0  0  0  0  0  0  0  0  0  0  0
   -6.1240   37.8576   45.7494 H   0  0  0  0  0  0  0  0  0  0  0  0
   -2.3621   41.1090   45.5980 H   0  0  0  0  0  0  0  0  0  0  0  0
   -1.4501   38.6634   47.5199 H   0  0  0  0  0  0  0  0  0  0  0  0
   -1.2960   37.6917   46.0170 H   0  0  0  0  0  0  0  0  0  0  0  0
   -0.8288   39.4262   46.0170 H   0  0  0  0  0  0  0  0  0  0  0  0
   -4.6301   41.8015   44.8612 H   0  0  0  0  0  0  0  0  0  0  0  0
   -3.0837   36.2668   45.7764 H   0  0  0  0  0  0  0  0  0  0  0  0
   -2.8163   33.9366   45.9918 H   0  0  0  0  0  0  0  0  0  0  0  0
   -1.7739   35.0013   46.9312 H   0  0  0  0  0  0  0  0  0  0  0  0
   -4.0492   34.4078   49.6773 H   0  0  0  0  0  0  0  0  0  0  0  0
   -5.3877   33.8963   48.6555 H   0  0  0  0  0  0  0  0  0  0  0  0
   -1.7757   32.2840   47.3220 H   0  0  0  0  0  0  0  0  0  0  0  0
   -1.5012   33.3478   48.6852 H   0  0  0  0  0  0  0  0  0  0  0  0
   -3.4634   32.1210   49.4173 H   0  0  0  0  0  0  0  0  0  0  0  0
   -4.1356   31.9807   47.8091 H   0  0  0  0  0  0  0  0  0  0  0  0
   -6.1578   45.7840   44.9434 H   0  0  0  0  0  0  0  0  0  0  0  0
   -4.0275   43.9489   44.4301 H   0  0  0  0  0  0  0  0  0  0  0  0
   -4.6751   44.5003   42.8114 H   0  0  0  0  0  0  0  0  0  0  0  0
   -3.8931   46.5404   44.8709 H   0  0  0  0  0  0  0  0  0  0  0  0
   -2.6244   45.6731   43.8644 H   0  0  0  0  0  0  0  0  0  0  0  0
   -3.6193   45.7670   40.9473 H   0  0  0  0  0  0  0  0  0  0  0  0
   -4.4919   49.9066   41.6813 H   0  0  0  0  0  0  0  0  0  0  0  0
   -4.1662   48.1064   39.8413 H   0  0  0  0  0  0  0  0  0  0  0  0
  1  2  2  0  0  0  0
  1  3  1  0  0  0  0
  2  4  1  0  0  0  0
  3  5  2  0  0  0  0
  4 26  1  0  0  0  0
  4  6  2  0  0  0  0
  5  7  1  0  0  0  0
  5  6  1  0  0  0  0
  6  8  1  0  0  0  0
  7  9  1  0  0  0  0
  7 34  1  0  0  0  0
  8  9  2  0  0  0  0
  9 35  1  0  0  0  0
 10  1  1  0  0  0  0
 10 36  1  0  0  0  0
 11 12  2  0  0  0  0
 11 13  1  0  0  0  0
 12 14  1  0  0  0  0
 12 15  1  0  0  0  0
 13 16  2  0  0  0  0
 13 37  1  0  0  0  0
 14 17  2  0  0  0  0
 14 38  1  0  0  0  0
 15 39  1  0  0  0  0
 15 40  1  0  0  0  0
 15 41  1  0  0  0  0
 16 10  1  0  0  0  0
 16 17  1  0  0  0  0
 17 42  1  0  0  0  0
 18 19  2  0  0  0  0
 19 20  1  0  0  0  0
 19 21  1  0  0  0  0
 20 22  1  0  0  0  0
 20 23  1  0  0  0  0
 21 11  1  0  0  0  0
 21 43  1  0  0  0  0
 22 24  1  0  0  0  0
 22 44  1  0  0  0  0
 22 45  1  0  0  0  0
 23 25  1  0  0  0  0
 23 46  1  0  0  0  0
 23 47  1  0  0  0  0
 24 25  1  0  0  0  0
 24 48  1  0  0  0  0
 24 49  1  0  0  0  0
 25 50  1  0  0  0  0
 25 51  1  0  0  0  0
 26 27  1  0  0  0  0
 26 52  1  0  0  0  0
 27 28  1  0  0  0  0
 27 53  1  0  0  0  0
 27 54  1  0  0  0  0
 28 29  1  0  0  0  0
 28 55  1  0  0  0  0
 28 56  1  0  0  0  0
 29 30  1  0  0  0  0
 29 31  2  0  0  0  0
 30 32  2  0  0  0  0
 31 33  1  0  0  0  0
 31 57  1  0  0  0  0
 32 33  1  0  0  0  0
 32 58  1  0  0  0  0
 33 59  1  0  0  0  0
M  END
