clean_pose_4
     RDKit          3D

 59 63  0  0  0  0  0  0  0  0999 V2000
   -6.5503   42.2434   44.6287 C   0  0  0  0  0  0  0  0  0  0  0  0
   -5.9432   43.4507   44.6654 N   0  0  0  0  0  0  0  0  0  0  0  0
   -7.7733   41.9898   44.1156 N   0  0  0  0  0  0  0  0  0  0  0  0
   -6.5356   44.5363   44.1040 C   0  0  0  0  0  0  0  0  0  0  0  0
   -8.3432   43.0917   43.6151 C   0  0  0  0  0  0  0  0  0  0  0  0
   -7.8212   44.3681   43.5675 C   0  0  0  0  0  0  0  0  0  0  0  0
   -9.5678   43.1873   43.0216 N   0  0  0  0  0  0  0  0  0  0  0  0
   -8.7073   45.2383   42.9592 N   0  0  0  0  0  0  0  0  0  0  0  0
   -9.7437   44.4909   42.6433 C   0  0  0  0  0  0  0  0  0  0  0  0
   -5.8741   41.1053   45.0977 N   0  0  0  0  0  0  0  0  0  0  0  0
   -2.5374   39.6238   45.8178 C   0  0  0  0  0  0  0  0  0  0  0  0
   -1.7020   40.4016   44.9938 C   0  0  0  0  0  0  0  0  0  0  0  0
   -3.9085   39.9143   45.8795 C   0  0  0  0  0  0  0  0  0  0  0  0
   -2.2814   41.3913   44.1846 C   0  0  0  0  0  0  0  0  0  0  0  0
   -0.2180   40.1775   44.9045 C   0  0  0  0  0  0  0  0  0  0  0  0
   -4.4839   40.9072   45.0776 C   0  0  0  0  0  0  0  0  0  0  0  0
   -3.6579   41.6227   44.2113 C   0  0  0  0  0  0  0  0  0  0  0  0
   -2.6911   36.7601   45.3292 O   0  0  0  0  0  0  0  0  0  0  0  0
   -2.1552   37.2243   46.3352 C   0  0  0  0  0  0  0  0  0  0  0  0
   -1.6365   36.4064   47.3164 N   0  0  0  0  0  0  0  0  0  0  0  0
   -1.9820   38.5691   46.5792 N   0  0  0  0  0  0  0  0  0  0  0  0
   -1.1365   36.7971   48.6271 C   0  0  0  0  0  0  0  0  0  0  0  0
   -1.7083   34.9607   47.1933 C   0  0  0  0  0  0  0  0  0  0  0  0
   -1.1138   35.5035   49.4301 C   0  0  0  0  0  0  0  0  0  0  0  0
   -0.8857   34.4413   48.3624 C   0  0  0  0  0  0  0  0  0  0  0  0
   -5.8826   45.7775   44.0638 N   0  0  0  0  0  0  0  0  0  0  0  0
   -5.4852   46.2151   42.7237 C   0  0  0  0  0  0  0  0  0  0  0  0
   -4.3636   47.2647   42.7239 C   0  0  0  0  0  0  0  0  0  0  0  0
   -4.7994   48.6453   43.0796 C   0  0  0  0  0  0  0  0  0  0  0  0
   -5.0863   49.5730   42.1019 N   0  0  0  0  0  0  0  0  0  0  0  0
   -5.0099   49.1931   44.3275 C   0  0  0  0  0  0  0  0  0  0  0  0
   -5.4180   50.6689   42.7463 C   0  0  0  0  0  0  0  0  0  0  0  0
   -5.3845   50.4887   44.0992 N   0  0  0  0  0  0  0  0  0  0  0  0
  -10.2385   42.4179   42.8832 H   0  0  0  0  0  0  0  0  0  0  0  0
  -10.6436   44.8688   42.1359 H   0  0  0  0  0  0  0  0  0  0  0  0
   -6.4497   40.3476   45.4920 H   0  0  0  0  0  0  0  0  0  0  0  0
   -4.5465   39.3486   46.5744 H   0  0  0  0  0  0  0  0  0  0  0  0
   -1.6426   41.9924   43.5208 H   0  0  0  0  0  0  0  0  0  0  0  0
    0.2048   40.1136   45.9180 H   0  0  0  0  0  0  0  0  0  0  0  0
   -0.0206   39.2394   44.3651 H   0  0  0  0  0  0  0  0  0  0  0  0
    0.2476   41.0155   44.3651 H   0  0  0  0  0  0  0  0  0  0  0  0
   -4.0957   42.3777   43.5417 H   0  0  0  0  0  0  0  0  0  0  0  0
   -1.3972   38.8291   47.3863 H   0  0  0  0  0  0  0  0  0  0  0  0
   -0.1251   37.2219   48.5462 H   0  0  0  0  0  0  0  0  0  0  0  0
   -1.7610   37.5702   49.0986 H   0  0  0  0  0  0  0  0  0  0  0  0
   -2.7500   34.6149   47.2660 H   0  0  0  0  0  0  0  0  0  0  0  0
   -1.3321   34.6028   46.2236 H   0  0  0  0  0  0  0  0  0  0  0  0
   -0.2947   35.5083   50.1643 H   0  0  0  0  0  0  0  0  0  0  0  0
   -2.0310   35.3402   50.0150 H   0  0  0  0  0  0  0  0  0  0  0  0
   -1.2485   33.4582   48.6970 H   0  0  0  0  0  0  0  0  0  0  0  0
    0.1758   34.2903   48.1165 H   0  0  0  0  0  0  0  0  0  0  0  0
   -5.6975   46.3362   44.9091 H   0  0  0  0  0  0  0  0  0  0  0  0
   -5.1384   45.3364   42.1601 H   0  0  0  0  0  0  0  0  0  0  0  0
   -6.3667   46.6869   42.2651 H   0  0  0  0  0  0  0  0  0  0  0  0
   -3.5998   46.9492   43.4499 H   0  0  0  0  0  0  0  0  0  0  0  0
   -3.9866   47.3153   41.6917 H   0  0  0  0  0  0  0  0  0  0  0  0
   -4.8998   48.6935   45.3013 H   0  0  0  0  0  0  0  0  0  0  0  0
   -5.6894   51.6154   42.2559 H   0  0  0  0  0  0  0  0  0  0  0  0
   -5.6011   51.1969   44.8151 H   0  0  0  0  0  0  0  0  0  0  0  0
 18 19  2  0
 19 20  1  0
 19 21  1  0
 20 22  1  0
 20 23  1  0
 21 11  1  0
 22 24  1  0
 23 25  1  0
 11 12  2  0
 11 13  1  0
 12 14  1  0
 12 15  1  0
 13 16  2  0
 14 17  2  0
 16 10  1  0
 10  1  1  0
  1  2  2  0
  1  3  1  0
  2  4  1  0
  3  5  2  0
  4 26  1  0
  4  6  2  0
  5  7  1  0
 26 27  1  0
  6  8  1  0
  7  9  1  0
 27 28  1  0
 28 29  1  0
 29 30  1  0
 29 31  2  0
 30 32  2  0
 31 33  1  0
 24 25  1  0
 16 17  1  0
  5  6  1  0
  8  9  2  0
 32 33  1  0
  7 34  1  0
  9 35  1  0
 10 36  1  0
 13 37  1  0
 14 38  1  0
 15 39  1  0
 15 40  1  0
 15 41  1  0
 17 42  1  0
 21 43  1  0
 22 44  1  0
 22 45  1  0
 23 46  1  0
 23 47  1  0
 24 48  1  0
 24 49  1  0
 25 50  1  0
 25 51  1  0
 26 52  1  0
 27 53  1  0
 27 54  1  0
 28 55  1  0
 28 56  1  0
 31 57  1  0
 32 58  1  0
 33 59  1  0
M  END
$$$$
