EL2003A-A2U1_pose2
     RDKit          3D

 38 42  0  0  0  0  0  0  0  0999 V2000
   -7.0304   41.1871   44.4266 C   0  0  0  0  0  0  0  0  0  0  0  0
   -6.2529   42.2163   44.8312 N   0  0  0  0  0  0  0  0  0  0  0  0
   -8.2139   41.2959   43.7855 N   0  0  0  0  0  0  0  0  0  0  0  0
   -6.6061   43.4974   44.5506 C   0  0  0  0  0  0  0  0  0  0  0  0
   -8.5491   42.5728   43.5693 C   0  0  0  0  0  0  0  0  0  0  0  0
   -7.8353   43.7045   43.9063 C   0  0  0  0  0  0  0  0  0  0  0  0
   -9.6717   43.0343   42.9465 N   0  0  0  0  0  0  0  0  0  0  0  0
   -8.5048   44.8453   43.5029 N   0  0  0  0  0  0  0  0  0  0  0  0
   -9.6025   44.4012   42.9282 C   0  0  0  0  0  0  0  0  0  0  0  0
  -10.4055   42.4579   42.5649 H   0  0  0  0  0  0  0  0  0  0  0  0
   -6.5929   39.8651   44.6095 N   0  0  0  0  0  0  0  0  0  0  0  0
   -6.7356   39.3980   43.7243 H   0  0  0  0  0  0  0  0  0  0  0  0
   -3.1584   39.9235   46.0405 C   0  0  0  0  0  0  0  0  0  0  0  0
   -3.1672   38.7628   46.8370 C   0  0  0  0  0  0  0  0  0  0  0  0
   -4.2853   40.2364   45.2658 C   0  0  0  0  0  0  0  0  0  0  0  0
   -4.3415   37.9970   46.9040 C   0  0  0  0  0  0  0  0  0  0  0  0
   -1.9846   38.3398   47.6636 C   0  0  0  0  0  0  0  0  0  0  0  0
   -5.4534   39.4671   45.3275 C   0  0  0  0  0  0  0  0  0  0  0  0
   -5.4757   38.3603   46.1756 C   0  0  0  0  0  0  0  0  0  0  0  0
   -0.8400   39.7722   44.2897 O   0  0  0  0  0  0  0  0  0  0  0  0
   -0.9088   40.5797   45.2158 C   0  0  0  0  0  0  0  0  0  0  0  0
    0.1358   41.4311   45.5070 N   0  0  0  0  0  0  0  0  0  0  0  0
   -2.0114   40.7509   46.0240 N   0  0  0  0  0  0  0  0  0  0  0  0
    0.2732   42.3075   46.6618 C   0  0  0  0  0  0  0  0  0  0  0  0
    1.3597   41.4003   44.7249 C   0  0  0  0  0  0  0  0  0  0  0  0
    1.7545   42.6579   46.7032 C   0  0  0  0  0  0  0  0  0  0  0  0
    2.1653   42.5837   45.2383 C   0  0  0  0  0  0  0  0  0  0  0  0
   -2.1242   41.6885   46.3725 H   0  0  0  0  0  0  0  0  0  0  0  0
   -5.7697   44.5705   44.8935 N   0  0  0  0  0  0  0  0  0  0  0  0
   -6.1992   45.0679   45.6738 H   0  0  0  0  0  0  0  0  0  0  0  0
   -5.3919   45.4328   43.7715 C   0  0  0  0  0  0  0  0  0  0  0  0
   -4.0772   45.0216   43.0918 C   0  0  0  0  0  0  0  0  0  0  0  0
   -3.4288   46.0940   42.2843 C   0  0  0  0  0  0  0  0  0  0  0  0
   -2.1898   46.5901   42.6276 N   0  0  0  0  0  0  0  0  0  0  0  0
   -3.8831   46.7093   41.1368 C   0  0  0  0  0  0  0  0  0  0  0  0
   -1.9237   47.5154   41.7335 C   0  0  0  0  0  0  0  0  0  0  0  0
   -2.9223   47.6262   40.8092 N   0  0  0  0  0  0  0  0  0  0  0  0
   -2.9510   48.2850   40.0346 H   0  0  0  0  0  0  0  0  0  0  0  0
 20 21  2  0
 21 22  1  0
 21 23  1  0
 22 24  1  0
 22 25  1  0
 23 13  1  0
 24 26  1  0
 25 27  1  0
 13 14  2  0
 13 15  1  0
 14 16  1  0
 14 17  1  0
 15 18  2  0
 16 19  2  0
 18 11  1  0
 11  1  1  0
  1  2  2  0
  1  3  1  0
  2  4  1  0
  3  5  2  0
  4 29  1  0
  4  6  2  0
  5  7  1  0
 29 31  1  0
  6  8  1  0
  7  9  1  0
 31 32  1  0
 32 33  1  0
 33 34  1  0
 33 35  2  0
 34 36  2  0
 35 37  1  0
 26 27  1  0
 18 19  1  0
  5  6  1  0
  8  9  2  0
 36 37  1  0
 23 28  1  0
 11 12  1  0
 29 30  1  0
  7 10  1  0
 37 38  1  0
M  END
>  <MMFF94_energy_kcal_mol>  (1) 
-80.5413

>  <pIC50 PDK>  (1) 
7.6

>  <Note>  (1) 
No stereocenters; single enantiomer (achiral molecule)

>  <minimizedAffinity>  (1) 
-9.75990

>  <CNNscore>  (1) 
0.9422958493

>  <CNNaffinity>  (1) 
7.7117867470

>  <CNN_VS>  (1) 
7.2667846680

>  <CNNaffinity_variance>  (1) 
0.4505155385

$$$$
