EDEL-CRBN-0006
 OpenBabel09062619273D

 32 36  0  0  0  0  0  0  0  0999 V2000
   -1.5981    3.2162    1.7518 O   0  0  0  0  0  0  0  0  0  0  0  0
   -1.2706    2.4314    0.8600 C   0  0  0  0  0  0  0  0  0  0  0  0
   -0.3644    2.8389   -0.0658 N   0  0  0  0  0  0  0  0  0  0  0  0
   -1.9103    1.0635    0.7584 C   0  0  2  0  0  0  0  0  0  0  0  0
    0.2821    2.0065   -1.0450 C   0  0  0  0  0  0  0  0  0  0  0  0
   -1.0331   -0.1825    0.5488 C   0  0  2  0  0  0  0  0  0  0  0  0
   -2.9608    1.0096   -0.3486 C   0  0  0  0  0  0  0  0  0  0  0  0
    1.0905    0.9352   -0.3670 C   0  0  2  0  0  0  0  0  0  0  0  0
    0.4695   -0.0624    0.4031 C   0  0  2  0  0  0  0  0  0  0  0  0
   -1.6702   -0.8947   -0.6597 C   0  0  0  0  0  0  0  0  0  0  0  0
   -3.0547   -0.4037   -0.7632 N   0  0  0  0  0  0  0  0  0  0  0  0
    2.4952    0.9476   -0.4991 C   0  0  0  0  0  0  0  0  0  0  0  0
    1.2829   -1.0177    1.0310 C   0  0  0  0  0  0  0  0  0  0  0  0
   -3.9670   -1.1859    0.0916 C   0  0  0  0  0  0  0  0  0  0  0  0
    3.3159   -0.0077    0.1201 C   0  0  1  0  0  0  0  0  0  0  0  0
    2.6790   -0.9720    0.9179 C   0  0  1  0  0  0  0  0  0  0  0  0
   -5.4242   -0.8270   -0.1112 C   0  0  0  0  0  0  0  0  0  0  0  0
    4.7355    0.0189   -0.1021 N   0  0  0  0  0  0  0  0  0  0  0  0
    3.3866   -1.9041    1.6388 O   0  0  0  0  0  0  0  0  0  0  0  0
   -6.0122   -0.9252   -1.3814 C   0  0  0  0  0  0  0  0  0  0  0  0
   -6.2147   -0.4101    0.9696 C   0  0  0  0  0  0  0  0  0  0  0  0
    5.4397    1.2199   -0.2009 C   0  0  0  0  0  0  0  0  0  0  0  0
    5.4990   -1.2234   -0.0442 C   0  0  0  0  0  0  0  0  0  0  0  0
    3.6046   -1.4219    2.9681 C   0  0  0  0  0  0  0  0  0  0  0  0
   -7.3583   -0.6077   -1.5678 C   0  0  0  0  0  0  0  0  0  0  0  0
   -7.5614   -0.0927    0.7812 C   0  0  0  0  0  0  0  0  0  0  0  0
    4.9660    2.3506   -0.1169 O   0  0  0  0  0  0  0  0  0  0  0  0
    6.7925    1.0913   -0.4060 N   0  0  0  0  0  0  0  0  0  0  0  0
    6.5933   -1.2295   -1.0915 C   0  0  0  0  0  0  0  0  0  0  0  0
   -8.1324   -0.1918   -0.4864 C   0  0  0  0  0  0  0  0  0  0  0  0
    7.4269    0.0063   -0.9428 C   0  0  0  0  0  0  0  0  0  0  0  0
    8.5823    0.0758   -1.3523 O   0  0  0  0  0  0  0  0  0  0  0  0
  1  2  2  0  0  0  0
  2  3  1  0  0  0  0
  3  5  1  0  0  0  0
  4  2  1  0  0  0  0
  4  6  1  0  0  0  0
  4  7  1  6  0  0  0
  6  9  1  0  0  0  0
  6 10  1  6  0  0  0
  7 11  1  0  0  0  0
  8  5  1  1  0  0  0
  8 12  5  0  0  0  0
  8  9  5  0  0  0  0
  9 13  5  6  0  0  0
 10 11  1  0  0  0  0
 11 14  1  0  0  0  0
 13 16  5  0  0  0  0
 14 17  1  0  0  0  0
 15 12  5  6  0  0  0
 15 18  1  0  0  0  0
 15 16  5  0  0  0  0
 16 19  1  1  0  0  0
 17 20  5  0  0  0  0
 17 21  5  0  0  0  0
 18 22  1  0  0  0  0
 18 23  1  0  0  0  0
 19 24  1  0  0  0  0
 20 25  5  0  0  0  0
 21 26  5  0  0  0  0
 22 27  2  0  0  0  0
 22 28  1  0  0  0  0
 23 29  1  0  0  0  0
 25 30  5  0  0  0  0
 26 30  5  0  0  0  0
 28 31  1  0  0  0  0
 29 31  1  0  0  0  0
 31 32  2  0  0  0  0
M  END
>  <ID>
EDEL-CRBN-0006

>  <Stereoisomer>
original

>  <MW>
434.2

>  <HBD>
2

>  <HBA>
5

>  <RotBonds>
4

>  <cLogP>
1.99

$$$$
