EDEL-CRBN-0007_ent
 OpenBabel09062619273D

 32 36  0  0  0  0  0  0  0  0999 V2000
    1.4413   -1.2156   -3.6607 O   0  0  0  0  0  0  0  0  0  0  0  0
    1.1789   -0.9860   -2.4790 C   0  0  0  0  0  0  0  0  0  0  0  0
    0.3345   -1.8305   -1.8324 N   0  0  0  0  0  0  0  0  0  0  0  0
    1.8353    0.1580   -1.7379 C   0  0  1  0  0  0  0  0  0  0  0  0
   -0.2410   -1.6252   -0.5301 C   0  0  0  0  0  0  0  0  0  0  0  0
    0.9907    1.0892   -0.8462 C   0  0  1  0  0  0  0  0  0  0  0  0
    2.9719   -0.3349   -0.8439 C   0  0  0  0  0  0  0  0  0  0  0  0
   -1.0962   -0.3880   -0.5145 C   0  0  1  0  0  0  0  0  0  0  0  0
   -0.5016    0.8788   -0.6791 C   0  0  1  0  0  0  0  0  0  0  0  0
    1.7239    1.0890    0.5080 C   0  0  0  0  0  0  0  0  0  0  0  0
    3.1006    0.7297    0.1592 N   0  0  0  0  0  0  0  0  0  0  0  0
   -2.4997   -0.4789   -0.3566 C   0  0  2  0  0  0  0  0  0  0  0  0
   -1.3248    2.0151   -0.6426 C   0  0  0  0  0  0  0  0  0  0  0  0
    3.8816    0.3295    1.3337 C   0  0  0  0  0  0  0  0  0  0  0  0
   -3.0584   -1.7396   -0.3335 O   0  0  0  0  0  0  0  0  0  0  0  0
   -3.3177    0.6676   -0.2586 C   0  0  2  0  0  0  0  0  0  0  0  0
   -2.7026    1.9110   -0.4323 C   0  0  0  0  0  0  0  0  0  0  0  0
    5.3415    0.0857    1.0194 C   0  0  0  0  0  0  0  0  0  0  0  0
   -3.5159   -2.0862   -1.6467 C   0  0  0  0  0  0  0  0  0  0  0  0
   -4.7185    0.6093    0.0542 N   0  0  0  0  0  0  0  0  0  0  0  0
    5.9232   -1.1697    1.2476 C   0  0  0  0  0  0  0  0  0  0  0  0
    6.1395    1.1178    0.5031 C   0  0  0  0  0  0  0  0  0  0  0  0
   -5.6390    1.4824   -0.5259 C   0  0  0  0  0  0  0  0  0  0  0  0
   -5.2262   -0.4656    0.9004 C   0  0  0  0  0  0  0  0  0  0  0  0
    7.2728   -1.3870    0.9628 C   0  0  0  0  0  0  0  0  0  0  0  0
    7.4879    0.8986    0.2185 C   0  0  0  0  0  0  0  0  0  0  0  0
   -5.3934    2.3449   -1.3652 O   0  0  0  0  0  0  0  0  0  0  0  0
   -6.9368    1.3312   -0.0995 N   0  0  0  0  0  0  0  0  0  0  0  0
   -6.2690    0.0638    1.8630 C   0  0  0  0  0  0  0  0  0  0  0  0
    8.0542   -0.3535    0.4490 C   0  0  0  0  0  0  0  0  0  0  0  0
   -7.3310    0.7869    1.0910 C   0  0  0  0  0  0  0  0  0  0  0  0
   -8.4646    0.9570    1.5309 O   0  0  0  0  0  0  0  0  0  0  0  0
  1  2  2  0  0  0  0
  2  3  1  0  0  0  0
  3  5  1  0  0  0  0
  4  2  1  0  0  0  0
  4  6  1  0  0  0  0
  4  7  1  1  0  0  0
  6  9  1  0  0  0  0
  6 10  1  1  0  0  0
  7 11  1  0  0  0  0
  8  5  1  6  0  0  0
  8 12  5  0  0  0  0
  8  9  5  0  0  0  0
  9 13  5  1  0  0  0
 10 11  1  0  0  0  0
 11 14  1  0  0  0  0
 12 15  1  6  0  0  0
 12 16  5  0  0  0  0
 13 17  5  0  0  0  0
 14 18  1  0  0  0  0
 15 19  1  0  0  0  0
 16 20  1  1  0  0  0
 16 17  5  0  0  0  0
 18 21  5  0  0  0  0
 18 22  5  0  0  0  0
 20 23  1  0  0  0  0
 20 24  1  0  0  0  0
 21 25  5  0  0  0  0
 22 26  5  0  0  0  0
 23 27  2  0  0  0  0
 23 28  1  0  0  0  0
 24 29  1  0  0  0  0
 25 30  5  0  0  0  0
 26 30  5  0  0  0  0
 28 31  1  0  0  0  0
 29 31  1  0  0  0  0
 31 32  2  0  0  0  0
M  END
>  <ID>
EDEL-CRBN-0007_ent

>  <Stereoisomer>
enantiomer

>  <MW>
434.2

>  <HBD>
2

>  <HBA>
5

>  <RotBonds>
4

>  <cLogP>
1.99

$$$$
