EDEL-CRBN-0006_ent
 OpenBabel09062619273D

 32 36  0  0  0  0  0  0  0  0999 V2000
   -0.2190    4.4128    0.8396 O   0  0  0  0  0  0  0  0  0  0  0  0
   -0.2209    3.6441   -0.1192 C   0  0  0  0  0  0  0  0  0  0  0  0
    0.8586    3.6317   -0.9549 N   0  0  0  0  0  0  0  0  0  0  0  0
   -1.3943    2.7534   -0.4873 C   0  0  1  0  0  0  0  0  0  0  0  0
    1.0856    2.6269   -1.9575 C   0  0  0  0  0  0  0  0  0  0  0  0
   -1.1524    1.2216   -0.5808 C   0  0  1  0  0  0  0  0  0  0  0  0
   -2.5331    2.9152    0.5285 C   0  0  0  0  0  0  0  0  0  0  0  0
    1.3095    1.2985   -1.2878 C   0  0  2  0  0  0  0  0  0  0  0  0
    0.2615    0.6501   -0.6024 C   0  0  2  0  0  0  0  0  0  0  0  0
   -2.0867    0.6594    0.5094 C   0  0  0  0  0  0  0  0  0  0  0  0
   -3.2018    1.6109    0.5130 N   0  0  0  0  0  0  0  0  0  0  0  0
    2.5980    0.7274   -1.3196 C   0  0  0  0  0  0  0  0  0  0  0  0
    0.5420   -0.5959   -0.0099 C   0  0  0  0  0  0  0  0  0  0  0  0
   -4.0921    1.4455    1.6682 C   0  0  0  0  0  0  0  0  0  0  0  0
    2.8667   -0.5139   -0.7281 C   0  0  2  0  0  0  0  0  0  0  0  0
    1.8187   -1.1759   -0.0722 C   0  0  1  0  0  0  0  0  0  0  0  0
   -4.8675    0.1457    1.6318 C   0  0  0  0  0  0  0  0  0  0  0  0
    4.1835   -1.0655   -0.7872 N   0  0  0  0  0  0  0  0  0  0  0  0
    2.0998   -2.3150    0.6447 O   0  0  0  0  0  0  0  0  0  0  0  0
   -4.7191   -0.8048    2.6522 C   0  0  0  0  0  0  0  0  0  0  0  0
   -5.7527   -0.1251    0.5776 C   0  0  0  0  0  0  0  0  0  0  0  0
    4.3919   -2.3878   -1.1806 C   0  0  0  0  0  0  0  0  0  0  0  0
    5.3358   -0.1811   -0.7150 C   0  0  0  0  0  0  0  0  0  0  0  0
    1.1937   -3.3847    0.3756 C   0  0  0  0  0  0  0  0  0  0  0  0
   -5.4396   -2.0002    2.6167 C   0  0  0  0  0  0  0  0  0  0  0  0
   -6.4717   -1.3207    0.5433 C   0  0  0  0  0  0  0  0  0  0  0  0
    3.5406   -3.1670   -1.6027 O   0  0  0  0  0  0  0  0  0  0  0  0
    5.7011   -2.8098   -1.1225 N   0  0  0  0  0  0  0  0  0  0  0  0
    6.4447   -0.8325    0.0830 C   0  0  0  0  0  0  0  0  0  0  0  0
   -6.3151   -2.2575    1.5631 C   0  0  0  0  0  0  0  0  0  0  0  0
    6.7468   -2.1788   -0.5063 C   0  0  0  0  0  0  0  0  0  0  0  0
    7.8453   -2.7158   -0.3922 O   0  0  0  0  0  0  0  0  0  0  0  0
  1  2  2  0  0  0  0
  2  3  1  0  0  0  0
  3  5  1  0  0  0  0
  4  2  1  0  0  0  0
  4  6  1  0  0  0  0
  4  7  1  1  0  0  0
  6  9  1  0  0  0  0
  6 10  1  1  0  0  0
  7 11  1  0  0  0  0
  8  5  1  1  0  0  0
  8 12  5  0  0  0  0
  8  9  5  0  0  0  0
  9 13  5  6  0  0  0
 10 11  1  0  0  0  0
 11 14  1  0  0  0  0
 13 16  5  0  0  0  0
 14 17  1  0  0  0  0
 15 12  5  1  0  0  0
 15 18  1  0  0  0  0
 15 16  5  0  0  0  0
 16 19  1  1  0  0  0
 17 20  5  0  0  0  0
 17 21  5  0  0  0  0
 18 22  1  0  0  0  0
 18 23  1  0  0  0  0
 19 24  1  0  0  0  0
 20 25  5  0  0  0  0
 21 26  5  0  0  0  0
 22 27  2  0  0  0  0
 22 28  1  0  0  0  0
 23 29  1  0  0  0  0
 25 30  5  0  0  0  0
 26 30  5  0  0  0  0
 28 31  1  0  0  0  0
 29 31  1  0  0  0  0
 31 32  2  0  0  0  0
M  END
>  <ID>
EDEL-CRBN-0006_ent

>  <Stereoisomer>
enantiomer

>  <MW>
434.2

>  <HBD>
2

>  <HBA>
5

>  <RotBonds>
4

>  <cLogP>
1.99

$$$$
