EDEL-CRBN-0012
 OpenBabel09062619273D

 34 38  0  0  0  0  0  0  0  0999 V2000
    8.1961   -0.2486    2.0618 Cl  0  0  0  0  0  0  0  0  0  0  0  0
    7.0874   -1.2007    1.1505 C   0  0  2  0  0  0  0  0  0  0  0  0
    5.7796   -1.3916    1.5973 C   0  0  2  0  0  0  0  0  0  0  0  0
    7.5094   -1.7857   -0.0422 C   0  0  0  0  0  0  0  0  0  0  0  0
    5.3808   -0.8320    2.7513 F   0  0  0  0  0  0  0  0  0  0  0  0
    4.8692   -2.1615    0.8613 C   0  0  1  0  0  0  0  0  0  0  0  0
    6.6202   -2.5649   -0.7823 C   0  0  0  0  0  0  0  0  0  0  0  0
    5.3104   -2.7540   -0.3326 C   0  0  0  0  0  0  0  0  0  0  0  0
    3.4543   -2.3524    1.3567 C   0  0  0  0  0  0  0  0  0  0  0  0
    2.4473   -1.4155    0.8487 N   0  0  0  0  0  0  0  0  0  0  0  0
    2.6378   -0.0302    1.2914 C   0  0  0  0  0  0  0  0  0  0  0  0
    2.0821   -1.5673   -0.5590 C   0  0  0  0  0  0  0  0  0  0  0  0
    1.6016    0.8808    0.6376 C   0  0  0  0  0  0  0  0  0  0  0  0
    2.4896   -0.3715   -1.4155 C   0  0  0  0  0  0  0  0  0  0  0  0
    1.8288    0.9075   -0.8825 C   0  0  2  0  0  0  0  0  0  0  0  0
    2.6676    2.0601   -1.2355 O   0  0  0  0  0  0  0  0  0  0  0  0
    0.6811    1.4955   -1.7751 C   0  0  2  0  0  0  0  0  0  0  0  0
    1.4964    2.7941   -1.6723 C   0  0  0  0  0  0  0  0  0  0  0  0
   -0.8292    1.4114   -1.2930 C   0  0  2  0  0  0  0  0  0  0  0  0
   -1.5479    0.2065   -1.3998 C   0  0  0  0  0  0  0  0  0  0  0  0
   -1.5426    2.4956   -0.7565 C   0  0  0  0  0  0  0  0  0  0  0  0
   -2.8865    0.0889   -0.9923 C   0  0  2  0  0  0  0  0  0  0  0  0
   -2.8730    2.3786   -0.3216 C   0  0  0  0  0  0  0  0  0  0  0  0
   -3.4931   -1.1244   -1.2154 O   0  0  0  0  0  0  0  0  0  0  0  0
   -3.5682    1.1672   -0.4074 C   0  0  2  0  0  0  0  0  0  0  0  0
   -4.0558   -1.1474   -2.5302 C   0  0  0  0  0  0  0  0  0  0  0  0
   -4.9005    1.0667    0.1177 N   0  0  0  0  0  0  0  0  0  0  0  0
   -5.8152    2.1135    0.0015 C   0  0  0  0  0  0  0  0  0  0  0  0
   -5.3758   -0.2108    0.6384 C   0  0  0  0  0  0  0  0  0  0  0  0
   -5.6196    3.1929   -0.5519 O   0  0  0  0  0  0  0  0  0  0  0  0
   -7.0485    1.8789    0.5608 N   0  0  0  0  0  0  0  0  0  0  0  0
   -6.2372   -0.0011    1.8665 C   0  0  0  0  0  0  0  0  0  0  0  0
   -7.3302    0.9711    1.5430 C   0  0  0  0  0  0  0  0  0  0  0  0
   -8.3847    1.0113    2.1709 O   0  0  0  0  0  0  0  0  0  0  0  0
  2  1  1  1  0  0  0
  2  3  5  0  0  0  0
  2  4  5  0  0  0  0
  3  5  1  1  0  0  0
  3  6  5  0  0  0  0
  4  7  5  0  0  0  0
  6  8  5  0  0  0  0
  6  9  1  1  0  0  0
  7  8  5  0  0  0  0
  9 10  1  0  0  0  0
 10 11  1  0  0  0  0
 10 12  1  0  0  0  0
 11 13  1  0  0  0  0
 12 14  1  0  0  0  0
 15 14  1  6  0  0  0
 15 13  1  0  0  0  0
 15 16  1  0  0  0  0
 15 17  1  0  0  0  0
 16 18  1  0  0  0  0
 17 19  1  0  0  0  0
 17 18  1  1  0  0  0
 19 20  5  6  0  0  0
 19 21  5  0  0  0  0
 20 22  5  0  0  0  0
 21 23  5  0  0  0  0
 22 24  1  6  0  0  0
 22 25  5  0  0  0  0
 24 26  1  0  0  0  0
 25 23  5  1  0  0  0
 25 27  1  0  0  0  0
 27 28  1  0  0  0  0
 27 29  1  0  0  0  0
 28 30  2  0  0  0  0
 28 31  1  0  0  0  0
 29 32  1  0  0  0  0
 31 33  1  0  0  0  0
 32 33  1  0  0  0  0
 33 34  2  0  0  0  0
M  END
>  <ID>
EDEL-CRBN-0012

>  <Stereoisomer>
original

>  <MW>
487.17

>  <HBD>
1

>  <HBA>
5

>  <RotBonds>
5

>  <cLogP>
4.08

$$$$
