EDEL-CRBN-0014_ent
 OpenBabel09062619273D

 36 40  0  0  0  0  0  0  0  0999 V2000
   -4.5052   -0.0304   -0.6937 O   0  0  0  0  0  0  0  0  0  0  0  0
   -4.8434   -1.0586   -0.1154 C   0  0  0  0  0  0  0  0  0  0  0  0
   -4.0550   -1.8388    0.7342 N   0  0  0  0  0  0  0  0  0  0  0  0
   -6.1410   -1.4962   -0.2642 N   0  0  0  0  0  0  0  0  0  0  0  0
   -2.6757   -1.5208    0.9495 C   0  0  2  0  0  0  0  0  0  0  0  0
   -4.7328   -2.7487    1.6446 C   0  0  0  0  0  0  0  0  0  0  0  0
   -6.6618   -2.6989    0.1263 C   0  0  0  0  0  0  0  0  0  0  0  0
   -1.8039   -1.2604   -0.1283 C   0  0  2  0  0  0  0  0  0  0  0  0
   -2.1615   -1.4808    2.2721 C   0  0  0  0  0  0  0  0  0  0  0  0
   -5.7336   -3.5965    0.8892 C   0  0  0  0  0  0  0  0  0  0  0  0
   -7.7971   -3.0439   -0.1897 O   0  0  0  0  0  0  0  0  0  0  0  0
   -2.1747   -1.3657   -1.4398 O   0  0  0  0  0  0  0  0  0  0  0  0
   -0.4981   -0.9042    0.1480 C   0  0  2  0  0  0  0  0  0  0  0  0
   -0.8299   -1.1359    2.5423 C   0  0  0  0  0  0  0  0  0  0  0  0
   -2.1319   -2.7266   -1.8657 C   0  0  0  0  0  0  0  0  0  0  0  0
   -0.0149   -0.8430    1.4712 C   0  0  2  0  0  0  0  0  0  0  0  0
    0.6271   -0.5019   -0.7753 C   0  0  2  0  0  0  0  0  0  0  0  0
    1.4283   -0.3944    1.4123 C   0  0  1  0  0  0  0  0  0  0  0  0
    1.7749   -0.8393    0.0646 N   0  0  0  0  0  0  0  0  0  0  0  0
    0.6470    1.0540   -0.9529 C   0  0  0  0  0  0  0  0  0  0  0  0
    1.5155    1.1688    1.3961 C   0  0  0  0  0  0  0  0  0  0  0  0
    3.0417   -0.9062   -0.4411 C   0  0  0  0  0  0  0  0  0  0  0  0
    0.6682    1.8109    0.3450 N   0  0  0  0  0  0  0  0  0  0  0  0
    3.2893   -0.9563   -1.6378 O   0  0  0  0  0  0  0  0  0  0  0  0
    3.9710   -0.8989    0.5478 O   0  0  0  0  0  0  0  0  0  0  0  0
    1.0048    3.2277    0.1700 C   0  0  0  0  0  0  0  0  0  0  0  0
    5.3874   -0.9448    0.2394 C   0  0  0  0  0  0  0  0  0  0  0  0
   -0.0063    4.0041   -0.6473 C   0  0  0  0  0  0  0  0  0  0  0  0
    5.7631   -2.2482   -0.4733 C   0  0  0  0  0  0  0  0  0  0  0  0
    6.0824   -0.9170    1.6095 C   0  0  0  0  0  0  0  0  0  0  0  0
    5.8232    0.2920   -0.5541 C   0  0  0  0  0  0  0  0  0  0  0  0
   -1.3802    3.9043   -0.3780 C   0  0  0  0  0  0  0  0  0  0  0  0
    0.4197    4.8703   -1.6649 C   0  0  0  0  0  0  0  0  0  0  0  0
   -2.3064    4.6353   -1.1230 C   0  0  0  0  0  0  0  0  0  0  0  0
   -0.5081    5.6048   -2.4064 C   0  0  0  0  0  0  0  0  0  0  0  0
   -1.8702    5.4857   -2.1365 C   0  0  0  0  0  0  0  0  0  0  0  0
  1  2  2  0  0  0  0
  2  3  1  0  0  0  0
  2  4  1  0  0  0  0
  3  6  1  0  0  0  0
  4  7  1  0  0  0  0
  5  3  1  6  0  0  0
  5  8  5  0  0  0  0
  5  9  5  0  0  0  0
  6 10  1  0  0  0  0
  7 11  2  0  0  0  0
  7 10  1  0  0  0  0
  8 12  1  6  0  0  0
  8 13  5  0  0  0  0
  9 14  5  0  0  0  0
 12 15  1  0  0  0  0
 13 16  5  0  0  0  0
 13 17  1  0  0  0  0
 14 16  5  0  0  0  0
 16 18  1  0  0  0  0
 17 19  1  0  0  0  0
 17 20  1  0  0  0  0
 18 21  1  0  0  0  0
 18 19  1  0  0  0  0
 19 22  1  0  0  0  0
 20 23  1  0  0  0  0
 21 23  1  0  0  0  0
 22 24  2  0  0  0  0
 22 25  1  0  0  0  0
 23 26  1  0  0  0  0
 25 27  1  0  0  0  0
 26 28  1  0  0  0  0
 27 29  1  0  0  0  0
 27 30  1  0  0  0  0
 27 31  1  0  0  0  0
 28 32  5  0  0  0  0
 28 33  5  0  0  0  0
 32 34  5  0  0  0  0
 33 35  5  0  0  0  0
 34 36  5  0  0  0  0
 35 36  5  0  0  0  0
M  END
>  <ID>
EDEL-CRBN-0014_ent

>  <Stereoisomer>
enantiomer

>  <MW>
492.24

>  <HBD>
1

>  <HBA>
6

>  <RotBonds>
4

>  <cLogP>
3.99

$$$$
