EDEL-CRBN-0011_ent
 OpenBabel09062619273D

 34 38  0  0  0  0  0  0  0  0999 V2000
    0.3068   -1.1920    3.9698 Cl  0  0  0  0  0  0  0  0  0  0  0  0
    1.3567   -0.5893    2.7443 C   0  0  1  0  0  0  0  0  0  0  0  0
    2.2036   -1.4524    2.0473 C   0  0  2  0  0  0  0  0  0  0  0  0
    1.3529    0.7717    2.4505 C   0  0  0  0  0  0  0  0  0  0  0  0
    2.2058   -2.7616    2.3448 F   0  0  0  0  0  0  0  0  0  0  0  0
    3.0536   -0.9754    1.0416 C   0  0  1  0  0  0  0  0  0  0  0  0
    2.2070    1.2679    1.4666 C   0  0  0  0  0  0  0  0  0  0  0  0
    3.0553    0.4029    0.7719 C   0  0  0  0  0  0  0  0  0  0  0  0
    3.9475   -1.9187    0.2695 C   0  0  0  0  0  0  0  0  0  0  0  0
    3.4051   -2.4650   -0.9792 N   0  0  0  0  0  0  0  0  0  0  0  0
    2.3004   -3.4162   -0.8272 C   0  0  0  0  0  0  0  0  0  0  0  0
    3.2422   -1.4980   -2.0648 C   0  0  0  0  0  0  0  0  0  0  0  0
    0.9524   -2.8131   -1.2128 C   0  0  0  0  0  0  0  0  0  0  0  0
    2.3994   -2.0791   -3.1975 C   0  0  0  0  0  0  0  0  0  0  0  0
    0.9802   -2.3397   -2.6760 C   0  0  1  0  0  0  0  0  0  0  0  0
    0.3193   -3.3307   -3.5314 O   0  0  0  0  0  0  0  0  0  0  0  0
   -0.0860   -1.2772   -3.1097 C   0  0  1  0  0  0  0  0  0  0  0  0
   -0.8706   -2.5043   -3.5967 C   0  0  0  0  0  0  0  0  0  0  0  0
   -0.6878   -0.2577   -2.0490 C   0  0  1  0  0  0  0  0  0  0  0  0
   -1.7654   -0.5554   -1.1986 C   0  0  0  0  0  0  0  0  0  0  0  0
   -0.1398    1.0297   -1.9013 C   0  0  0  0  0  0  0  0  0  0  0  0
   -2.2590    0.3682   -0.2610 C   0  0  1  0  0  0  0  0  0  0  0  0
   -0.6465    1.9682   -0.9887 C   0  0  0  0  0  0  0  0  0  0  0  0
   -3.2678   -0.0782    0.5598 O   0  0  0  0  0  0  0  0  0  0  0  0
   -1.7340    1.6669   -0.1622 C   0  0  1  0  0  0  0  0  0  0  0  0
   -2.7055   -0.6805    1.7296 C   0  0  0  0  0  0  0  0  0  0  0  0
   -2.2811    2.6762    0.7006 N   0  0  0  0  0  0  0  0  0  0  0  0
   -1.4722    3.6089    1.3495 C   0  0  0  0  0  0  0  0  0  0  0  0
   -3.7011    2.6429    1.0378 C   0  0  0  0  0  0  0  0  0  0  0  0
   -0.2461    3.6739    1.2945 O   0  0  0  0  0  0  0  0  0  0  0  0
   -2.1402    4.5232    2.1281 N   0  0  0  0  0  0  0  0  0  0  0  0
   -4.2757    4.0439    1.0750 C   0  0  0  0  0  0  0  0  0  0  0  0
   -3.4487    4.8936    1.9905 C   0  0  0  0  0  0  0  0  0  0  0  0
   -3.8856    5.9106    2.5217 O   0  0  0  0  0  0  0  0  0  0  0  0
  2  1  1  6  0  0  0
  2  3  5  0  0  0  0
  2  4  5  0  0  0  0
  3  5  1  1  0  0  0
  3  6  5  0  0  0  0
  4  7  5  0  0  0  0
  6  8  5  0  0  0  0
  6  9  1  1  0  0  0
  7  8  5  0  0  0  0
  9 10  1  0  0  0  0
 10 11  1  0  0  0  0
 10 12  1  0  0  0  0
 11 13  1  0  0  0  0
 12 14  1  0  0  0  0
 15 14  1  6  0  0  0
 15 13  1  0  0  0  0
 15 16  1  0  0  0  0
 15 17  1  0  0  0  0
 16 18  1  0  0  0  0
 17 19  1  0  0  0  0
 17 18  1  1  0  0  0
 19 20  5  1  0  0  0
 19 21  5  0  0  0  0
 20 22  5  0  0  0  0
 21 23  5  0  0  0  0
 22 24  1  1  0  0  0
 22 25  5  0  0  0  0
 24 26  1  0  0  0  0
 25 23  5  6  0  0  0
 25 27  1  0  0  0  0
 27 28  1  0  0  0  0
 27 29  1  0  0  0  0
 28 30  2  0  0  0  0
 28 31  1  0  0  0  0
 29 32  1  0  0  0  0
 31 33  1  0  0  0  0
 32 33  1  0  0  0  0
 33 34  2  0  0  0  0
M  END
>  <ID>
EDEL-CRBN-0011_ent

>  <Stereoisomer>
enantiomer

>  <MW>
487.17

>  <HBD>
1

>  <HBA>
5

>  <RotBonds>
5

>  <cLogP>
4.08

$$$$
