EDEL-CRBN-0015
 OpenBabel09062619273D

 36 40  0  0  0  0  0  0  0  0999 V2000
    7.1238    4.3690    1.4226 Cl  0  0  0  0  0  0  0  0  0  0  0  0
    6.6690    3.0356    0.4316 C   0  0  1  0  0  0  0  0  0  0  0  0
    5.3444    2.5982    0.3945 C   0  0  1  0  0  0  0  0  0  0  0  0
    7.6382    2.3954   -0.3398 C   0  0  0  0  0  0  0  0  0  0  0  0
    4.4119    3.2243    1.1312 F   0  0  0  0  0  0  0  0  0  0  0  0
    4.9679    1.5117   -0.4029 C   0  0  2  0  0  0  0  0  0  0  0  0
    7.2767    1.3193   -1.1509 C   0  0  0  0  0  0  0  0  0  0  0  0
    5.9498    0.8837   -1.1865 C   0  0  0  0  0  0  0  0  0  0  0  0
    3.5232    1.0712   -0.4533 C   0  0  0  0  0  0  0  0  0  0  0  0
    3.3466   -0.3893   -0.3745 N   0  0  0  0  0  0  0  0  0  0  0  0
    2.0027   -0.7692   -0.8424 C   0  0  0  0  0  0  0  0  0  0  0  0
    3.6809   -0.9447    0.9503 C   0  0  0  0  0  0  0  0  0  0  0  0
    1.5962   -2.1521   -0.3419 C   0  0  0  0  0  0  0  0  0  0  0  0
    2.4608   -1.1427    1.8447 C   0  0  0  0  0  0  0  0  0  0  0  0
    1.4839   -2.1241    1.1889 C   0  0  2  0  0  0  0  0  0  0  0  0
    1.6893   -3.4798    1.7103 O   0  0  0  0  0  0  0  0  0  0  0  0
    0.0641   -2.1073    1.8498 C   0  0  2  0  0  0  0  0  0  0  0  0
    0.2567   -3.6319    1.8913 C   0  0  0  0  0  0  0  0  0  0  0  0
   -1.1536   -1.4203    1.0943 C   0  0  1  0  0  0  0  0  0  0  0  0
   -1.2646   -0.0120    1.0591 C   0  0  0  0  0  0  0  0  0  0  0  0
   -2.1638   -2.1387    0.4308 C   0  0  0  0  0  0  0  0  0  0  0  0
   -2.3043    0.6540    0.3932 C   0  0  2  0  0  0  0  0  0  0  0  0
   -3.2242   -1.4996   -0.2279 C   0  0  1  0  0  0  0  0  0  0  0  0
   -2.4383    2.0212    0.3527 O   0  0  0  0  0  0  0  0  0  0  0  0
   -3.2975   -0.0978   -0.2634 C   0  0  1  0  0  0  0  0  0  0  0  0
   -4.1142   -2.2318   -0.9779 O   0  0  0  0  0  0  0  0  0  0  0  0
   -1.5863    2.7943    1.1883 C   0  0  0  0  0  0  0  0  0  0  0  0
   -4.3581    0.5706   -0.9451 N   0  0  0  0  0  0  0  0  0  0  0  0
   -4.7553   -3.2608   -0.2234 C   0  0  0  0  0  0  0  0  0  0  0  0
   -5.6883    0.2275   -0.7367 C   0  0  0  0  0  0  0  0  0  0  0  0
   -4.0152    1.3704   -2.1112 C   0  0  0  0  0  0  0  0  0  0  0  0
   -6.1182   -0.4956    0.1595 O   0  0  0  0  0  0  0  0  0  0  0  0
   -6.5794    0.8490   -1.5810 N   0  0  0  0  0  0  0  0  0  0  0  0
   -4.9498    2.5546   -2.2138 C   0  0  0  0  0  0  0  0  0  0  0  0
   -6.3706    2.0616   -2.1807 C   0  0  0  0  0  0  0  0  0  0  0  0
   -7.3084    2.7394   -2.5943 O   0  0  0  0  0  0  0  0  0  0  0  0
  2  1  1  6  0  0  0
  2  3  5  0  0  0  0
  2  4  5  0  0  0  0
  3  5  1  6  0  0  0
  3  6  5  0  0  0  0
  4  7  5  0  0  0  0
  6  8  5  0  0  0  0
  6  9  1  6  0  0  0
  7  8  5  0  0  0  0
  9 10  1  0  0  0  0
 10 11  1  0  0  0  0
 10 12  1  0  0  0  0
 11 13  1  0  0  0  0
 12 14  1  0  0  0  0
 15 14  1  1  0  0  0
 15 13  1  0  0  0  0
 15 16  1  0  0  0  0
 15 17  1  0  0  0  0
 16 18  1  0  0  0  0
 17 19  1  0  0  0  0
 17 18  1  6  0  0  0
 19 20  5  6  0  0  0
 19 21  5  0  0  0  0
 20 22  5  0  0  0  0
 21 23  5  0  0  0  0
 22 24  1  1  0  0  0
 22 25  5  0  0  0  0
 23 26  1  6  0  0  0
 23 25  5  0  0  0  0
 24 27  1  0  0  0  0
 25 28  1  1  0  0  0
 26 29  1  0  0  0  0
 28 30  1  0  0  0  0
 28 31  1  0  0  0  0
 30 32  2  0  0  0  0
 30 33  1  0  0  0  0
 31 34  1  0  0  0  0
 33 35  1  0  0  0  0
 34 35  1  0  0  0  0
 35 36  2  0  0  0  0
M  END
>  <ID>
EDEL-CRBN-0015

>  <Stereoisomer>
original

>  <MW>
517.18

>  <HBD>
1

>  <HBA>
6

>  <RotBonds>
6

>  <cLogP>
4.09

$$$$
