EDEL-CRBN-0013
 OpenBabel09062619273D

 36 40  0  0  0  0  0  0  0  0999 V2000
   -3.7656   -2.8630   -2.5040 O   0  0  0  0  0  0  0  0  0  0  0  0
   -4.5961   -2.6136   -1.6340 C   0  0  0  0  0  0  0  0  0  0  0  0
   -4.3296   -2.1564   -0.3428 N   0  0  0  0  0  0  0  0  0  0  0  0
   -5.9260   -2.7994   -1.9269 N   0  0  0  0  0  0  0  0  0  0  0  0
   -2.9870   -1.9094    0.1087 C   0  0  2  0  0  0  0  0  0  0  0  0
   -5.4351   -2.0919    0.6069 C   0  0  0  0  0  0  0  0  0  0  0  0
   -6.9804   -2.1965   -1.3003 C   0  0  0  0  0  0  0  0  0  0  0  0
   -2.5609   -2.1827    1.4405 C   0  0  1  0  0  0  0  0  0  0  0  0
   -2.0561   -1.3422   -0.7808 C   0  0  0  0  0  0  0  0  0  0  0  0
   -6.6554   -1.4642   -0.0344 C   0  0  0  0  0  0  0  0  0  0  0  0
   -8.1039   -2.1900   -1.7957 O   0  0  0  0  0  0  0  0  0  0  0  0
   -3.3835   -2.8217    2.3414 O   0  0  0  0  0  0  0  0  0  0  0  0
   -1.2821   -1.8404    1.9060 C   0  0  0  0  0  0  0  0  0  0  0  0
   -0.7847   -1.0393   -0.3225 C   0  0  2  0  0  0  0  0  0  0  0  0
   -3.1501   -4.2323    2.2860 C   0  0  0  0  0  0  0  0  0  0  0  0
   -0.4060   -1.2739    1.0078 C   0  0  1  0  0  0  0  0  0  0  0  0
    0.3882   -0.4005   -1.0327 C   0  0  2  0  0  0  0  0  0  0  0  0
    1.0134   -0.7843    1.1795 C   0  0  1  0  0  0  0  0  0  0  0  0
    1.4822   -0.8914   -0.2002 N   0  0  0  0  0  0  0  0  0  0  0  0
    0.3081    1.1543   -0.8427 C   0  0  0  0  0  0  0  0  0  0  0  0
    0.9755    0.7356    1.5571 C   0  0  0  0  0  0  0  0  0  0  0  0
    2.7837   -0.7198   -0.5877 C   0  0  0  0  0  0  0  0  0  0  0  0
    0.9656    1.6728    0.3978 N   0  0  0  0  0  0  0  0  0  0  0  0
    3.1186   -0.4763   -1.7393 O   0  0  0  0  0  0  0  0  0  0  0  0
    3.6355   -0.8571    0.4610 O   0  0  0  0  0  0  0  0  0  0  0  0
    0.5231    3.0165    0.7755 C   0  0  0  0  0  0  0  0  0  0  0  0
    5.0594   -0.6472    0.2904 C   0  0  0  0  0  0  0  0  0  0  0  0
    0.8461    4.0733   -0.2589 C   0  0  0  0  0  0  0  0  0  0  0  0
    5.6528   -0.8689    1.6903 C   0  0  0  0  0  0  0  0  0  0  0  0
    5.3595    0.7923   -0.1438 C   0  0  0  0  0  0  0  0  0  0  0  0
    5.6680   -1.6770   -0.6671 C   0  0  0  0  0  0  0  0  0  0  0  0
   -0.1617    4.9037   -0.7698 C   0  0  0  0  0  0  0  0  0  0  0  0
    2.1642    4.2559   -0.7049 C   0  0  0  0  0  0  0  0  0  0  0  0
    0.1418    5.8878   -1.7128 C   0  0  0  0  0  0  0  0  0  0  0  0
    2.4653    5.2386   -1.6487 C   0  0  0  0  0  0  0  0  0  0  0  0
    1.4541    6.0544   -2.1520 C   0  0  0  0  0  0  0  0  0  0  0  0
  1  2  2  0  0  0  0
  2  3  1  0  0  0  0
  2  4  1  0  0  0  0
  3  6  1  0  0  0  0
  4  7  1  0  0  0  0
  5  3  1  1  0  0  0
  5  8  5  0  0  0  0
  5  9  5  0  0  0  0
  6 10  1  0  0  0  0
  7 11  2  0  0  0  0
  7 10  1  0  0  0  0
  8 12  1  6  0  0  0
  8 13  5  0  0  0  0
 12 15  1  0  0  0  0
 14  9  5  1  0  0  0
 14 17  1  0  0  0  0
 14 16  5  0  0  0  0
 16 13  5  1  0  0  0
 16 18  1  0  0  0  0
 17 19  1  0  0  0  0
 17 20  1  1  0  0  0
 18 21  1  6  0  0  0
 18 19  1  0  0  0  0
 19 22  1  0  0  0  0
 20 23  1  0  0  0  0
 21 23  1  0  0  0  0
 22 24  2  0  0  0  0
 22 25  1  0  0  0  0
 23 26  1  0  0  0  0
 25 27  1  0  0  0  0
 26 28  1  0  0  0  0
 27 29  1  0  0  0  0
 27 30  1  0  0  0  0
 27 31  1  0  0  0  0
 28 32  5  0  0  0  0
 28 33  5  0  0  0  0
 32 34  5  0  0  0  0
 33 35  5  0  0  0  0
 34 36  5  0  0  0  0
 35 36  5  0  0  0  0
M  END
>  <ID>
EDEL-CRBN-0013

>  <Stereoisomer>
original

>  <MW>
492.24

>  <HBD>
1

>  <HBA>
6

>  <RotBonds>
4

>  <cLogP>
3.99

$$$$
