EDEL-CRBN-0001_ent
 OpenBabel09062619273D

 25 27  0  0  0  0  0  0  0  0999 V2000
    3.1535   -2.2796    0.8189 O   0  0  0  0  0  0  0  0  0  0  0  0
    3.9030   -1.3080    0.7792 C   0  0  0  0  0  0  0  0  0  0  0  0
    3.7069   -0.1121    0.0736 N   0  0  0  0  0  0  0  0  0  0  0  0
    5.1105   -1.3998    1.4355 N   0  0  0  0  0  0  0  0  0  0  0  0
    2.5101    0.1770   -0.6694 C   0  0  2  0  0  0  0  0  0  0  0  0
    4.7106    0.9311    0.2747 C   0  0  0  0  0  0  0  0  0  0  0  0
    6.2663   -0.8072    1.0066 C   0  0  0  0  0  0  0  0  0  0  0  0
    1.3021   -0.4926   -0.4162 C   0  0  0  0  0  0  0  0  0  0  0  0
    2.5051    1.1423   -1.6896 C   0  0  0  0  0  0  0  0  0  0  0  0
    6.0991    0.3624    0.0809 C   0  0  0  0  0  0  0  0  0  0  0  0
    7.3689   -1.2578    1.3049 O   0  0  0  0  0  0  0  0  0  0  0  0
    0.1247   -0.2080   -1.1347 C   0  0  1  0  0  0  0  0  0  0  0  0
    1.3447    1.4346   -2.4150 C   0  0  0  0  0  0  0  0  0  0  0  0
    0.1597    0.7634   -2.1386 C   0  0  0  0  0  0  0  0  0  0  0  0
   -1.1567   -0.9620   -0.8371 C   0  0  0  0  0  0  0  0  0  0  0  0
   -2.2801   -0.0736   -0.4833 N   0  0  0  0  0  0  0  0  0  0  0  0
   -3.5958   -0.7264   -0.7329 C   0  0  1  0  0  0  0  0  0  0  0  0
   -2.1177    0.5343    0.8424 C   0  0  0  0  0  0  0  0  0  0  0  0
   -3.6963   -2.1370   -0.1409 C   0  0  0  0  0  0  0  0  0  0  0  0
   -4.8662    0.1006   -0.3992 C   0  0  0  0  0  0  0  0  0  0  0  0
   -2.9632    1.8000    0.9852 C   0  0  0  0  0  0  0  0  0  0  0  0
   -3.6122   -3.1804   -0.7729 O   0  0  0  0  0  0  0  0  0  0  0  0
   -3.8317   -2.1829    1.2016 O   0  0  0  0  0  0  0  0  0  0  0  0
   -5.0994    0.3999    1.0186 N   0  0  0  0  0  0  0  0  0  0  0  0
   -4.3827    1.5741    1.4982 C   0  0  0  0  0  0  0  0  0  0  0  0
  1  2  2  0  0  0  0
  2  3  1  0  0  0  0
  2  4  1  0  0  0  0
  3  6  1  0  0  0  0
  4  7  1  0  0  0  0
  5  3  1  6  0  0  0
  5  8  5  0  0  0  0
  5  9  5  0  0  0  0
  6 10  1  0  0  0  0
  7 11  2  0  0  0  0
  7 10  1  0  0  0  0
  8 12  5  0  0  0  0
  9 13  5  0  0  0  0
 12 14  5  0  0  0  0
 12 15  1  6  0  0  0
 13 14  5  0  0  0  0
 15 16  1  0  0  0  0
 16 17  1  0  0  0  0
 16 18  1  0  0  0  0
 17 19  1  1  0  0  0
 17 20  1  0  0  0  0
 18 21  1  0  0  0  0
 19 22  2  0  0  0  0
 19 23  1  0  0  0  0
 20 24  1  0  0  0  0
 21 25  1  0  0  0  0
 24 25  1  0  0  0  0
M  END
>  <ID>
EDEL-CRBN-0001_ent

>  <Stereoisomer>
enantiomer

>  <MW>
346.16

>  <HBD>
3

>  <HBA>
5

>  <RotBonds>
4

>  <cLogP>
0.38

$$$$
