EDEL-CRBN-0010_ent
 OpenBabel09062619273D

 34 38  0  0  0  0  0  0  0  0999 V2000
    1.7189   -1.5449   -3.4788 O   0  0  0  0  0  0  0  0  0  0  0  0
    1.1855   -0.4669   -3.2086 C   0  0  0  0  0  0  0  0  0  0  0  0
   -0.0619   -0.2380   -3.7033 N   0  0  0  0  0  0  0  0  0  0  0  0
    1.9341    0.6308   -2.4695 C   0  0  1  0  0  0  0  0  0  0  0  0
   -0.9525    0.8356   -3.3338 C   0  0  0  0  0  0  0  0  0  0  0  0
    1.2005    1.6924   -1.6380 C   0  0  1  0  0  0  0  0  0  0  0  0
    2.9703    0.0340   -1.4982 C   0  0  0  0  0  0  0  0  0  0  0  0
   -1.1710    0.8411   -1.8426 C   0  0  2  0  0  0  0  0  0  0  0  0
   -0.0980    1.2122   -0.9975 C   0  0  2  0  0  0  0  0  0  0  0  0
    2.3352    2.1562   -0.7101 C   0  0  0  0  0  0  0  0  0  0  0  0
    2.9629    0.9017   -0.3067 N   0  0  0  0  0  0  0  0  0  0  0  0
   -2.3907    0.4217   -1.2778 C   0  0  2  0  0  0  0  0  0  0  0  0
   -0.2881    1.1581    0.3918 C   0  0  0  0  0  0  0  0  0  0  0  0
    4.2812    1.0866    0.3007 C   0  0  0  0  0  0  0  0  0  0  0  0
   -3.4026    0.0281   -2.1268 O   0  0  0  0  0  0  0  0  0  0  0  0
   -2.5871    0.4086    0.1166 C   0  0  1  0  0  0  0  0  0  0  0  0
   -1.5112    0.7561    0.9466 C   0  0  2  0  0  0  0  0  0  0  0  0
    4.8342   -0.1834    0.9104 C   0  0  0  0  0  0  0  0  0  0  0  0
   -3.4493   -1.4010   -2.2040 C   0  0  0  0  0  0  0  0  0  0  0  0
   -3.8684    0.0753    0.6500 N   0  0  0  0  0  0  0  0  0  0  0  0
   -1.7144    0.8480    2.3034 O   0  0  0  0  0  0  0  0  0  0  0  0
    4.1128   -0.8734    1.8969 C   0  0  0  0  0  0  0  0  0  0  0  0
    6.0839   -0.6811    0.5149 C   0  0  0  0  0  0  0  0  0  0  0  0
   -4.0077   -0.8311    1.6943 C   0  0  0  0  0  0  0  0  0  0  0  0
   -4.9604    0.9982    0.3733 C   0  0  0  0  0  0  0  0  0  0  0  0
   -0.7507    0.1008    3.0482 C   0  0  0  0  0  0  0  0  0  0  0  0
    4.6264   -2.0378    2.4694 C   0  0  0  0  0  0  0  0  0  0  0  0
    6.5968   -1.8457    1.0895 C   0  0  0  0  0  0  0  0  0  0  0  0
   -3.1534   -1.6283    2.0747 O   0  0  0  0  0  0  0  0  0  0  0  0
   -5.2628   -0.8746    2.2547 N   0  0  0  0  0  0  0  0  0  0  0  0
   -6.2730    0.2484    0.3369 C   0  0  0  0  0  0  0  0  0  0  0  0
    5.8685   -2.5231    2.0659 C   0  0  0  0  0  0  0  0  0  0  0  0
   -6.4213   -0.5477    1.6039 C   0  0  0  0  0  0  0  0  0  0  0  0
   -7.5114   -0.9594    1.9937 O   0  0  0  0  0  0  0  0  0  0  0  0
  1  2  2  0  0  0  0
  2  3  1  0  0  0  0
  3  5  1  0  0  0  0
  4  2  1  0  0  0  0
  4  6  1  0  0  0  0
  4  7  1  1  0  0  0
  6  9  1  0  0  0  0
  6 10  1  1  0  0  0
  7 11  1  0  0  0  0
  8  5  1  1  0  0  0
  8 12  5  0  0  0  0
  8  9  5  0  0  0  0
  9 13  5  1  0  0  0
 10 11  1  0  0  0  0
 11 14  1  0  0  0  0
 12 15  1  6  0  0  0
 12 16  5  0  0  0  0
 13 17  5  0  0  0  0
 14 18  1  0  0  0  0
 15 19  1  0  0  0  0
 16 20  1  6  0  0  0
 16 17  5  0  0  0  0
 17 21  1  1  0  0  0
 18 22  5  0  0  0  0
 18 23  5  0  0  0  0
 20 24  1  0  0  0  0
 20 25  1  0  0  0  0
 21 26  1  0  0  0  0
 22 27  5  0  0  0  0
 23 28  5  0  0  0  0
 24 29  2  0  0  0  0
 24 30  1  0  0  0  0
 25 31  1  0  0  0  0
 27 32  5  0  0  0  0
 28 32  5  0  0  0  0
 30 33  1  0  0  0  0
 31 33  1  0  0  0  0
 33 34  2  0  0  0  0
M  END
>  <ID>
EDEL-CRBN-0010_ent

>  <Stereoisomer>
enantiomer

>  <MW>
464.21

>  <HBD>
2

>  <HBA>
6

>  <RotBonds>
5

>  <cLogP>
2.0

$$$$
