EDEL-CRBN-0016
 OpenBabel09062619273D

 38 42  0  0  0  0  0  0  0  0999 V2000
    3.4569   -2.1729   -1.6941 O   0  0  0  0  0  0  0  0  0  0  0  0
    4.3716   -1.5319   -1.1847 C   0  0  0  0  0  0  0  0  0  0  0  0
    4.2559   -0.3116   -0.5244 N   0  0  0  0  0  0  0  0  0  0  0  0
    5.6569   -2.0143   -1.2838 N   0  0  0  0  0  0  0  0  0  0  0  0
    2.9688    0.2715   -0.2971 C   0  0  1  0  0  0  0  0  0  0  0  0
    5.4540    0.4912   -0.3406 C   0  0  0  0  0  0  0  0  0  0  0  0
    6.7539   -1.5792   -0.5914 C   0  0  0  0  0  0  0  0  0  0  0  0
    1.9664   -0.4670    0.3670 C   0  0  1  0  0  0  0  0  0  0  0  0
    2.6715    1.6010   -0.7095 C   0  0  1  0  0  0  0  0  0  0  0  0
    6.5549   -0.3577    0.2591 C   0  0  0  0  0  0  0  0  0  0  0  0
    7.8149   -2.1975   -0.6140 O   0  0  0  0  0  0  0  0  0  0  0  0
    2.1702   -1.7327    0.8445 O   0  0  0  0  0  0  0  0  0  0  0  0
    0.7278    0.1150    0.5607 C   0  0  1  0  0  0  0  0  0  0  0  0
    3.5982    2.3548   -1.3954 O   0  0  0  0  0  0  0  0  0  0  0  0
    1.4281    2.2022   -0.4656 C   0  0  0  0  0  0  0  0  0  0  0  0
    2.7600   -1.6880    2.1433 C   0  0  0  0  0  0  0  0  0  0  0  0
    0.4641    1.4407    0.1573 C   0  0  1  0  0  0  0  0  0  0  0  0
   -0.5406   -0.4467    1.1587 C   0  0  1  0  0  0  0  0  0  0  0  0
    3.4082    2.1803   -2.8029 C   0  0  0  0  0  0  0  0  0  0  0  0
   -0.9776    1.7467    0.4953 C   0  0  2  0  0  0  0  0  0  0  0  0
   -1.1891    0.7928    1.5814 N   0  0  0  0  0  0  0  0  0  0  0  0
   -1.4400   -1.0588    0.0318 C   0  0  0  0  0  0  0  0  0  0  0  0
   -1.9173    1.2981   -0.6741 C   0  0  0  0  0  0  0  0  0  0  0  0
   -2.2587    0.7915    2.4307 C   0  0  0  0  0  0  0  0  0  0  0  0
   -1.7030   -0.1164   -1.1091 N   0  0  0  0  0  0  0  0  0  0  0  0
   -2.5880   -0.1784    3.0991 O   0  0  0  0  0  0  0  0  0  0  0  0
   -2.8994    1.9875    2.4225 O   0  0  0  0  0  0  0  0  0  0  0  0
   -2.7807   -0.5803   -1.9897 C   0  0  0  0  0  0  0  0  0  0  0  0
   -4.0769    2.2076    3.2402 C   0  0  0  0  0  0  0  0  0  0  0  0
   -2.4739   -1.8799   -2.7039 C   0  0  0  0  0  0  0  0  0  0  0  0
   -3.7525    2.0853    4.7328 C   0  0  0  0  0  0  0  0  0  0  0  0
   -5.2241    1.2811    2.8223 C   0  0  0  0  0  0  0  0  0  0  0  0
   -4.4871    3.6585    2.9447 C   0  0  0  0  0  0  0  0  0  0  0  0
   -3.4320   -2.9029   -2.7561 C   0  0  0  0  0  0  0  0  0  0  0  0
   -1.2473   -2.0707   -3.3590 C   0  0  0  0  0  0  0  0  0  0  0  0
   -3.1616   -4.0947   -3.4319 C   0  0  0  0  0  0  0  0  0  0  0  0
   -0.9767   -3.2641   -4.0298 C   0  0  0  0  0  0  0  0  0  0  0  0
   -1.9341   -4.2755   -4.0665 C   0  0  0  0  0  0  0  0  0  0  0  0
  1  2  2  0  0  0  0
  2  3  1  0  0  0  0
  2  4  1  0  0  0  0
  3  6  1  0  0  0  0
  4  7  1  0  0  0  0
  5  3  1  1  0  0  0
  5  8  5  0  0  0  0
  5  9  5  0  0  0  0
  6 10  1  0  0  0  0
  7 11  2  0  0  0  0
  7 10  1  0  0  0  0
  8 12  1  1  0  0  0
  8 13  5  0  0  0  0
  9 14  1  6  0  0  0
  9 15  5  0  0  0  0
 12 16  1  0  0  0  0
 13 17  5  0  0  0  0
 13 18  1  0  0  0  0
 14 19  1  0  0  0  0
 15 17  5  0  0  0  0
 17 20  1  0  0  0  0
 18 21  1  0  0  0  0
 18 22  1  0  0  0  0
 20 23  1  0  0  0  0
 20 21  1  0  0  0  0
 21 24  1  0  0  0  0
 22 25  1  0  0  0  0
 23 25  1  0  0  0  0
 24 26  2  0  0  0  0
 24 27  1  0  0  0  0
 25 28  1  0  0  0  0
 27 29  1  0  0  0  0
 28 30  1  0  0  0  0
 29 31  1  0  0  0  0
 29 32  1  0  0  0  0
 29 33  1  0  0  0  0
 30 34  5  0  0  0  0
 30 35  5  0  0  0  0
 34 36  5  0  0  0  0
 35 37  5  0  0  0  0
 36 38  5  0  0  0  0
 37 38  5  0  0  0  0
M  END
>  <ID>
EDEL-CRBN-0016

>  <Stereoisomer>
original

>  <MW>
522.25

>  <HBD>
1

>  <HBA>
7

>  <RotBonds>
5

>  <cLogP>
4.0

$$$$
