EDEL-CRBN-0002
 OpenBabel09062619273D

 27 29  0  0  0  0  0  0  0  0999 V2000
    2.7515    0.6308   -2.8750 O   0  0  0  0  0  0  0  0  0  0  0  0
    3.3626   -0.0576   -2.0609 C   0  0  0  0  0  0  0  0  0  0  0  0
    3.0590   -0.2141   -0.7078 N   0  0  0  0  0  0  0  0  0  0  0  0
    4.4329   -0.8024   -2.5040 N   0  0  0  0  0  0  0  0  0  0  0  0
    2.0129    0.5444   -0.0949 C   0  0  2  0  0  0  0  0  0  0  0  0
    3.6182   -1.3596   -0.0077 C   0  0  0  0  0  0  0  0  0  0  0  0
    5.3550   -1.4621   -1.7390 C   0  0  0  0  0  0  0  0  0  0  0  0
    1.9210    1.9391   -0.2596 C   0  0  2  0  0  0  0  0  0  0  0  0
    1.0604   -0.1005    0.7137 C   0  0  0  0  0  0  0  0  0  0  0  0
    5.1079   -1.4501   -0.2595 C   0  0  0  0  0  0  0  0  0  0  0  0
    6.3540   -1.9759   -2.2353 O   0  0  0  0  0  0  0  0  0  0  0  0
    2.9411    2.5988   -0.9032 O   0  0  0  0  0  0  0  0  0  0  0  0
    0.8978    2.6557    0.3706 C   0  0  0  0  0  0  0  0  0  0  0  0
    0.0098    0.6071    1.3250 C   0  0  2  0  0  0  0  0  0  0  0  0
    2.4754    3.5429   -1.8667 C   0  0  0  0  0  0  0  0  0  0  0  0
   -0.0532    1.9936    1.1485 C   0  0  0  0  0  0  0  0  0  0  0  0
   -1.0184   -0.1171    2.1725 C   0  0  0  0  0  0  0  0  0  0  0  0
   -2.2090   -0.6543    1.4800 N   0  0  0  0  0  0  0  0  0  0  0  0
   -3.1162    0.4042    0.9492 C   0  0  2  0  0  0  0  0  0  0  0  0
   -1.8535   -1.6819    0.4927 C   0  0  0  0  0  0  0  0  0  0  0  0
   -3.6006    1.3088    2.0886 C   0  0  0  0  0  0  0  0  0  0  0  0
   -4.4087   -0.0731    0.2302 C   0  0  0  0  0  0  0  0  0  0  0  0
   -3.0290   -2.5933    0.1443 C   0  0  0  0  0  0  0  0  0  0  0  0
   -3.3775    2.5058    2.2006 O   0  0  0  0  0  0  0  0  0  0  0  0
   -4.3174    0.6719    3.0401 O   0  0  0  0  0  0  0  0  0  0  0  0
   -4.1634   -0.6739   -1.0844 N   0  0  0  0  0  0  0  0  0  0  0  0
   -3.8776   -2.1028   -1.0259 C   0  0  0  0  0  0  0  0  0  0  0  0
  1  2  2  0  0  0  0
  2  3  1  0  0  0  0
  2  4  1  0  0  0  0
  3  6  1  0  0  0  0
  4  7  1  0  0  0  0
  5  3  1  1  0  0  0
  5  8  5  0  0  0  0
  5  9  5  0  0  0  0
  6 10  1  0  0  0  0
  7 11  2  0  0  0  0
  7 10  1  0  0  0  0
  8 12  1  1  0  0  0
  8 13  5  0  0  0  0
  9 14  5  0  0  0  0
 12 15  1  0  0  0  0
 13 16  5  0  0  0  0
 14 17  1  1  0  0  0
 14 16  5  0  0  0  0
 17 18  1  0  0  0  0
 18 19  1  0  0  0  0
 18 20  1  0  0  0  0
 19 21  1  1  0  0  0
 19 22  1  0  0  0  0
 20 23  1  0  0  0  0
 21 24  2  0  0  0  0
 21 25  1  0  0  0  0
 22 26  1  0  0  0  0
 23 27  1  0  0  0  0
 26 27  1  0  0  0  0
M  END
>  <ID>
EDEL-CRBN-0002

>  <Stereoisomer>
original

>  <MW>
376.17

>  <HBD>
3

>  <HBA>
6

>  <RotBonds>
5

>  <cLogP>
0.39

$$$$
