EDEL-CRBN-0016_ent
 OpenBabel09062619273D

 38 42  0  0  0  0  0  0  0  0999 V2000
    4.4012    2.8946    0.1866 O   0  0  0  0  0  0  0  0  0  0  0  0
    5.0268    1.8419    0.2941 C   0  0  0  0  0  0  0  0  0  0  0  0
    4.4721    0.5699    0.3542 N   0  0  0  0  0  0  0  0  0  0  0  0
    6.3892    1.8858    0.4739 N   0  0  0  0  0  0  0  0  0  0  0  0
    3.1278    0.3258   -0.0603 C   0  0  2  0  0  0  0  0  0  0  0  0
    5.3612   -0.5831    0.4039 C   0  0  0  0  0  0  0  0  0  0  0  0
    7.1211    0.9572    1.1627 C   0  0  0  0  0  0  0  0  0  0  0  0
    2.2805   -0.4455    0.7615 C   0  0  2  0  0  0  0  0  0  0  0  0
    2.6440    0.8064   -1.3097 C   0  0  1  0  0  0  0  0  0  0  0  0
    6.4453   -0.3582    1.4339 C   0  0  0  0  0  0  0  0  0  0  0  0
    8.2355    1.2242    1.6063 O   0  0  0  0  0  0  0  0  0  0  0  0
    2.6501   -0.9113    1.9943 O   0  0  0  0  0  0  0  0  0  0  0  0
    1.0196   -0.7612    0.2985 C   0  0  2  0  0  0  0  0  0  0  0  0
    3.5231    1.4536   -2.1495 O   0  0  0  0  0  0  0  0  0  0  0  0
    1.3486    0.5029   -1.7562 C   0  0  0  0  0  0  0  0  0  0  0  0
    2.6543    0.1522    2.9507 C   0  0  0  0  0  0  0  0  0  0  0  0
    0.5547   -0.2799   -0.9431 C   0  0  2  0  0  0  0  0  0  0  0  0
   -0.0965   -1.5575    0.9326 C   0  0  2  0  0  0  0  0  0  0  0  0
    3.0120    2.7031   -2.6148 C   0  0  0  0  0  0  0  0  0  0  0  0
   -0.8695   -0.7578   -1.1178 C   0  0  1  0  0  0  0  0  0  0  0  0
   -0.8445   -1.9416   -0.2618 N   0  0  0  0  0  0  0  0  0  0  0  0
   -1.0379   -0.6134    1.7535 C   0  0  0  0  0  0  0  0  0  0  0  0
   -1.8626    0.2519   -0.4474 C   0  0  0  0  0  0  0  0  0  0  0  0
   -1.8149   -2.9025   -0.2244 C   0  0  0  0  0  0  0  0  0  0  0  0
   -1.5233    0.5740    0.9782 N   0  0  0  0  0  0  0  0  0  0  0  0
   -1.9621   -3.6742    0.7133 O   0  0  0  0  0  0  0  0  0  0  0  0
   -2.5872   -2.8714   -1.3390 O   0  0  0  0  0  0  0  0  0  0  0  0
   -2.6127    1.2612    1.6793 C   0  0  0  0  0  0  0  0  0  0  0  0
   -3.6938   -3.7937   -1.5061 C   0  0  0  0  0  0  0  0  0  0  0  0
   -2.9226    2.6273    1.1055 C   0  0  0  0  0  0  0  0  0  0  0  0
   -4.7634   -3.5772   -0.4300 C   0  0  0  0  0  0  0  0  0  0  0  0
   -3.2092   -5.2466   -1.5522 C   0  0  0  0  0  0  0  0  0  0  0  0
   -4.2949   -3.4332   -2.8733 C   0  0  0  0  0  0  0  0  0  0  0  0
   -4.2180    2.9438    0.6723 C   0  0  0  0  0  0  0  0  0  0  0  0
   -1.9202    3.6057    1.0153 C   0  0  0  0  0  0  0  0  0  0  0  0
   -4.5015    4.2089    0.1537 C   0  0  0  0  0  0  0  0  0  0  0  0
   -2.2053    4.8689    0.4958 C   0  0  0  0  0  0  0  0  0  0  0  0
   -3.4958    5.1700    0.0653 C   0  0  0  0  0  0  0  0  0  0  0  0
  1  2  2  0  0  0  0
  2  3  1  0  0  0  0
  2  4  1  0  0  0  0
  3  6  1  0  0  0  0
  4  7  1  0  0  0  0
  5  3  1  6  0  0  0
  5  8  5  0  0  0  0
  5  9  5  0  0  0  0
  6 10  1  0  0  0  0
  7 11  2  0  0  0  0
  7 10  1  0  0  0  0
  8 12  1  6  0  0  0
  8 13  5  0  0  0  0
  9 14  1  6  0  0  0
  9 15  5  0  0  0  0
 12 16  1  0  0  0  0
 13 17  5  0  0  0  0
 13 18  1  0  0  0  0
 14 19  1  0  0  0  0
 15 17  5  0  0  0  0
 17 20  1  0  0  0  0
 18 21  1  0  0  0  0
 18 22  1  0  0  0  0
 20 23  1  0  0  0  0
 20 21  1  0  0  0  0
 21 24  1  0  0  0  0
 22 25  1  0  0  0  0
 23 25  1  0  0  0  0
 24 26  2  0  0  0  0
 24 27  1  0  0  0  0
 25 28  1  0  0  0  0
 27 29  1  0  0  0  0
 28 30  1  0  0  0  0
 29 31  1  0  0  0  0
 29 32  1  0  0  0  0
 29 33  1  0  0  0  0
 30 34  5  0  0  0  0
 30 35  5  0  0  0  0
 34 36  5  0  0  0  0
 35 37  5  0  0  0  0
 36 38  5  0  0  0  0
 37 38  5  0  0  0  0
M  END
>  <ID>
EDEL-CRBN-0016_ent

>  <Stereoisomer>
enantiomer

>  <MW>
522.25

>  <HBD>
1

>  <HBA>
7

>  <RotBonds>
5

>  <cLogP>
4.0

$$$$
