EDEL-CRBN-0003_ent
 OpenBabel09062619273D

 27 29  0  0  0  0  0  0  0  0999 V2000
    2.5560   -2.2352    0.5088 O   0  0  0  0  0  0  0  0  0  0  0  0
    3.4162   -1.3912    0.7372 C   0  0  0  0  0  0  0  0  0  0  0  0
    3.4487   -0.0792    0.2633 N   0  0  0  0  0  0  0  0  0  0  0  0
    4.5313   -1.7673    1.4513 N   0  0  0  0  0  0  0  0  0  0  0  0
    2.3236    0.5265   -0.3761 C   0  0  2  0  0  0  0  0  0  0  0  0
    4.5867    0.7586    0.6198 C   0  0  0  0  0  0  0  0  0  0  0  0
    5.7916   -1.2977    1.2027 C   0  0  0  0  0  0  0  0  0  0  0  0
    0.9972    0.3636    0.0797 C   0  0  1  0  0  0  0  0  0  0  0  0
    2.5460    1.3200   -1.5121 C   0  0  0  0  0  0  0  0  0  0  0  0
    5.8778   -0.0075    0.4364 C   0  0  0  0  0  0  0  0  0  0  0  0
    6.7907   -1.9391    1.5175 O   0  0  0  0  0  0  0  0  0  0  0  0
    0.7283   -0.2923    1.2589 O   0  0  0  0  0  0  0  0  0  0  0  0
   -0.0901    0.9105   -0.6340 C   0  0  1  0  0  0  0  0  0  0  0  0
    1.4813    1.8988   -2.2030 C   0  0  0  0  0  0  0  0  0  0  0  0
    0.9311    0.5730    2.3743 C   0  0  0  0  0  0  0  0  0  0  0  0
    0.1739    1.6870   -1.7734 C   0  0  0  0  0  0  0  0  0  0  0  0
   -1.5297    0.6826   -0.2068 C   0  0  0  0  0  0  0  0  0  0  0  0
   -2.0529   -0.6258   -0.6247 N   0  0  0  0  0  0  0  0  0  0  0  0
   -3.2144   -1.0922    0.1728 C   0  0  1  0  0  0  0  0  0  0  0  0
   -2.3289   -0.7292   -2.0613 C   0  0  0  0  0  0  0  0  0  0  0  0
   -2.7503   -1.7288    1.4855 C   0  0  0  0  0  0  0  0  0  0  0  0
   -4.3638   -0.0871    0.4296 C   0  0  0  0  0  0  0  0  0  0  0  0
   -3.4039    0.1888   -2.6547 C   0  0  0  0  0  0  0  0  0  0  0  0
   -2.7047   -2.9296    1.7172 O   0  0  0  0  0  0  0  0  0  0  0  0
   -2.3729   -0.8602    2.4460 O   0  0  0  0  0  0  0  0  0  0  0  0
   -4.7933    0.7754   -0.6869 N   0  0  0  0  0  0  0  0  0  0  0  0
   -4.7790    0.1181   -1.9896 C   0  0  0  0  0  0  0  0  0  0  0  0
  1  2  2  0  0  0  0
  2  3  1  0  0  0  0
  2  4  1  0  0  0  0
  3  6  1  0  0  0  0
  4  7  1  0  0  0  0
  5  3  1  6  0  0  0
  5  8  5  0  0  0  0
  5  9  5  0  0  0  0
  6 10  1  0  0  0  0
  7 11  2  0  0  0  0
  7 10  1  0  0  0  0
  8 12  1  1  0  0  0
  8 13  5  0  0  0  0
  9 14  5  0  0  0  0
 12 15  1  0  0  0  0
 13 16  5  0  0  0  0
 13 17  1  6  0  0  0
 14 16  5  0  0  0  0
 17 18  1  0  0  0  0
 18 19  1  0  0  0  0
 18 20  1  0  0  0  0
 19 21  1  1  0  0  0
 19 22  1  0  0  0  0
 20 23  1  0  0  0  0
 21 24  2  0  0  0  0
 21 25  1  0  0  0  0
 22 26  1  0  0  0  0
 23 27  1  0  0  0  0
 26 27  1  0  0  0  0
M  END
>  <ID>
EDEL-CRBN-0003_ent

>  <Stereoisomer>
enantiomer

>  <MW>
376.17

>  <HBD>
3

>  <HBA>
6

>  <RotBonds>
5

>  <cLogP>
0.39

$$$$
