EDEL-CRBN-0004_ent
 OpenBabel09062619273D

 29 31  0  0  0  0  0  0  0  0999 V2000
    2.9472    0.8398    2.5300 O   0  0  0  0  0  0  0  0  0  0  0  0
    3.5621    0.7585    1.4703 C   0  0  0  0  0  0  0  0  0  0  0  0
    3.1886    0.0135    0.3542 N   0  0  0  0  0  0  0  0  0  0  0  0
    4.7584    1.4276    1.3428 N   0  0  0  0  0  0  0  0  0  0  0  0
    1.9449   -0.6949    0.3445 C   0  0  1  0  0  0  0  0  0  0  0  0
    4.2055   -0.2999   -0.6363 C   0  0  0  0  0  0  0  0  0  0  0  0
    5.4610    1.6450    0.1890 C   0  0  0  0  0  0  0  0  0  0  0  0
    0.7295   -0.0153    0.5855 C   0  0  2  0  0  0  0  0  0  0  0  0
    1.8849   -2.0780    0.0963 C   0  0  1  0  0  0  0  0  0  0  0  0
    4.9366    0.9624   -1.0415 C   0  0  0  0  0  0  0  0  0  0  0  0
    6.4210    2.4104    0.1561 O   0  0  0  0  0  0  0  0  0  0  0  0
    0.7069    1.3464    0.7903 O   0  0  0  0  0  0  0  0  0  0  0  0
   -0.5038   -0.7006    0.6288 C   0  0  1  0  0  0  0  0  0  0  0  0
    3.0217   -2.8158   -0.1338 O   0  0  0  0  0  0  0  0  0  0  0  0
    0.6652   -2.7594    0.0913 C   0  0  0  0  0  0  0  0  0  0  0  0
    0.8079    2.0506   -0.4472 C   0  0  0  0  0  0  0  0  0  0  0  0
   -0.5161   -2.0803    0.3812 C   0  0  0  0  0  0  0  0  0  0  0  0
   -1.7989    0.0224    0.9388 C   0  0  0  0  0  0  0  0  0  0  0  0
    3.4605   -3.4198    1.0866 C   0  0  0  0  0  0  0  0  0  0  0  0
   -2.3375    0.7934   -0.1942 N   0  0  0  0  0  0  0  0  0  0  0  0
   -3.1299    0.0438   -1.2012 C   0  0  1  0  0  0  0  0  0  0  0  0
   -2.9637    2.0478    0.2230 C   0  0  0  0  0  0  0  0  0  0  0  0
   -2.2205   -0.8274   -2.0768 C   0  0  0  0  0  0  0  0  0  0  0  0
   -4.2982   -0.8260   -0.6612 C   0  0  0  0  0  0  0  0  0  0  0  0
   -4.4824    2.1042    0.4126 C   0  0  0  0  0  0  0  0  0  0  0  0
   -2.2983   -2.0364   -2.2415 O   0  0  0  0  0  0  0  0  0  0  0  0
   -1.2776   -0.1238   -2.7435 O   0  0  0  0  0  0  0  0  0  0  0  0
   -5.4556   -0.1255   -0.0868 N   0  0  0  0  0  0  0  0  0  0  0  0
   -5.1321    0.8388    0.9609 C   0  0  0  0  0  0  0  0  0  0  0  0
  1  2  2  0  0  0  0
  2  3  1  0  0  0  0
  2  4  1  0  0  0  0
  3  6  1  0  0  0  0
  4  7  1  0  0  0  0
  5  3  1  6  0  0  0
  5  8  5  0  0  0  0
  5  9  5  0  0  0  0
  6 10  1  0  0  0  0
  7 11  2  0  0  0  0
  7 10  1  0  0  0  0
  8 12  1  1  0  0  0
  8 13  5  0  0  0  0
  9 14  1  1  0  0  0
  9 15  5  0  0  0  0
 12 16  1  0  0  0  0
 13 17  5  0  0  0  0
 13 18  1  1  0  0  0
 14 19  1  0  0  0  0
 15 17  5  0  0  0  0
 18 20  1  0  0  0  0
 20 21  1  0  0  0  0
 20 22  1  0  0  0  0
 21 23  1  1  0  0  0
 21 24  1  0  0  0  0
 22 25  1  0  0  0  0
 23 26  2  0  0  0  0
 23 27  1  0  0  0  0
 24 28  1  0  0  0  0
 25 29  1  0  0  0  0
 28 29  1  0  0  0  0
M  END
>  <ID>
EDEL-CRBN-0004_ent

>  <Stereoisomer>
enantiomer

>  <MW>
406.19

>  <HBD>
3

>  <HBA>
7

>  <RotBonds>
6

>  <cLogP>
0.4

$$$$
