Compound 1
Actelion Java MolfileCreator 2.0

  0  0  0  0  0  0              0 V3000
M  V30 BEGIN CTAB
M  V30 COUNTS 33 35 0 0 0
M  V30 BEGIN ATOM
M  V30 1 O 0.0 0.0 0.0 0
M  V30 2 C -0.1318 1.5345 0.0 0
M  V30 3 N 1.0909 2.4097 0.0 0
M  V30 4 N -1.5105 2.2179 0.0 0
M  V30 5 C 2.4217 1.7743 0.0 0
M  V30 6 C 0.9591 3.9443 0.0 0
M  V30 7 C -1.6424 3.7525 0.0 0
M  V30 8 C 2.5056 0.2877 0.0 0
M  V30 9 C 3.6446 2.6495 0.0 0
M  V30 10 C -0.4196 4.6277 0.0 0
M  V30 11 O -3.0211 4.4358 0.0 0
M  V30 12 C 3.8364 -0.3476 0.0 0
M  V30 13 C 4.9753 2.0141 0.0 0
M  V30 14 C 5.0593 0.5275 0.0 0
M  V30 15 C 3.9203 -1.8342 0.0 0
M  V30 16 N 5.2511 -2.4697 0.0 0
M  V30 17 C 5.2271 -3.9563 0.0 0 CFG=2
M  V30 18 C 6.402 -1.5105 0.0 0
M  V30 19 C 3.8484 -4.5917 0.0 0
M  V30 20 C 6.378 -4.8674 0.0 0
M  V30 21 C 7.8527 -1.8223 0.0 0
M  V30 22 O 3.7165 -6.0783 0.0 0
M  V30 23 O 2.5776 -3.7165 0.0 0
M  V30 24 N 7.8287 -4.5078 0.0 0
M  V30 25 C 8.4881 -3.153 0.0 0
M  V30 26 C 1.1988 -4.3519 0.0 0
M  V30 27 C 8.7398 -5.6587 0.0 0
M  V30 28 O 10.2145 -5.4069 0.0 0
M  V30 29 O 8.1644 -7.0374 0.0 0
M  V30 30 C 9.0755 -8.1884 0.0 0
M  V30 31 C 10.2265 -7.2292 0.0 0
M  V30 32 C 9.9867 -9.3393 0.0 0
M  V30 33 C 7.8766 -9.0995 0.0 0
M  V30 END ATOM
M  V30 BEGIN BOND
M  V30 1 2 1 2
M  V30 2 1 2 3
M  V30 3 1 2 4
M  V30 4 1 3 5
M  V30 5 1 3 6
M  V30 6 1 4 7
M  V30 7 2 5 8
M  V30 8 1 5 9
M  V30 9 1 6 10
M  V30 10 2 7 11
M  V30 11 1 8 12
M  V30 12 2 9 13
M  V30 13 2 12 14
M  V30 14 1 12 15
M  V30 15 1 15 16
M  V30 16 1 16 17
M  V30 17 1 16 18
M  V30 18 1 17 19 CFG=1
M  V30 19 1 17 20
M  V30 20 1 18 21
M  V30 21 2 19 22
M  V30 22 1 19 23
M  V30 23 1 20 24
M  V30 24 1 21 25
M  V30 25 1 23 26
M  V30 26 1 24 27
M  V30 27 2 27 28
M  V30 28 1 27 29
M  V30 29 1 29 30
M  V30 30 1 30 31
M  V30 31 1 30 32
M  V30 32 1 30 33
M  V30 33 1 7 10
M  V30 34 1 13 14
M  V30 35 1 24 25
M  V30 END BOND
M  V30 BEGIN COLLECTION
M  V30 MDLV30/STERAC1 ATOMS=(1 17)
M  V30 END COLLECTION
M  V30 END CTAB
M  END
>  <Molecule Name>
Compound 1

>  <EC50 (µM) (Excel)>
49.5

>  <Error (µM)>
6.2

>  <HTRC CRBN-DDB1 EC50 (µM)>
49.46 ±  6.19

>  <EC50 fitting (µM)>
60.01

>  <Modèle Fitting>
3PL

$$$$
Compound 4
Actelion Java MolfileCreator 2.0

  0  0  0  0  0  0              0 V3000
M  V30 BEGIN CTAB
M  V30 COUNTS 28 31 0 0 0
M  V30 BEGIN ATOM
M  V30 1 O 0.0 0.0 0.0 0
M  V30 2 C -0.0299 1.5432 0.0 0
M  V30 3 N 1.2585 2.3223 0.0 0
M  V30 4 N -1.3784 2.3223 0.0 0
M  V30 5 C 2.547 1.6031 0.0 0
M  V30 6 C 1.2285 3.8655 0.0 0
M  V30 7 C -1.4083 3.8655 0.0 0
M  V30 8 C 3.7606 2.3373 0.0 0
M  V30 9 C 2.5171 0.1947 0.0 0
M  V30 10 C -0.1198 4.6446 0.0 0
M  V30 11 O -2.7568 4.6446 0.0 0
M  V30 12 C 4.9743 1.663 0.0 0
M  V30 13 C 3.7307 -0.4794 0.0 0
M  V30 14 C 4.9443 0.2547 0.0 0
M  V30 15 C 6.3077 2.1275 0.0 0 CFG=1
M  V30 16 C 6.2778 -0.1498 0.0 0 CFG=2
M  V30 17 N 7.1168 0.9888 0.0 0
M  V30 18 C 8.1956 1.738 0.0 0 CFG=2
M  V30 19 C 8.1656 0.2996 0.0 0 CFG=1
M  V30 20 C 8.7649 1.0188 0.0 0
M  V30 21 O 9.3492 2.8916 0.0 0
M  V30 22 O 9.2893 -0.6892 0.0 0
M  V30 23 O 9.4691 -0.0749 0.0 0
M  V30 24 O 9.4541 2.2324 0.0 0
M  V30 25 C 10.8176 2.3822 0.0 0
M  V30 26 C 10.7876 0.8989 0.0 0
M  V30 27 C 12.3009 2.4122 0.0 0
M  V30 28 C 10.7876 3.9255 0.0 0
M  V30 END ATOM
M  V30 BEGIN BOND
M  V30 1 2 1 2
M  V30 2 1 2 3
M  V30 3 1 2 4
M  V30 4 1 3 5
M  V30 5 1 3 6
M  V30 6 1 4 7
M  V30 7 2 5 8
M  V30 8 1 5 9
M  V30 9 1 6 10
M  V30 10 2 7 11
M  V30 11 1 8 12
M  V30 12 2 9 13
M  V30 13 2 12 14
M  V30 14 1 12 15
M  V30 15 1 14 16
M  V30 16 1 15 17 CFG=1
M  V30 17 1 15 18
M  V30 18 1 16 19
M  V30 19 1 17 20
M  V30 20 1 18 21 CFG=1
M  V30 21 1 19 22 CFG=1
M  V30 22 2 20 23
M  V30 23 1 20 24
M  V30 24 1 24 25
M  V30 25 1 25 26
M  V30 26 1 25 27
M  V30 27 1 25 28
M  V30 28 1 7 10
M  V30 29 1 13 14
M  V30 30 1 16 17 CFG=1
M  V30 31 1 18 19
M  V30 END BOND
M  V30 BEGIN COLLECTION
M  V30 MDLV30/STERAC1 ATOMS=(4 15 16 18 19)
M  V30 END COLLECTION
M  V30 END CTAB
M  END
>  <Molecule Name>
Compound 4

>  <EC50 (µM) (Excel)>
11.8

>  <Error (µM)>
7.4

>  <HTRC CRBN-DDB1 EC50 (µM)>
11.78 ±  7.41

>  <EC50 fitting (µM)>
15.10

>  <Modèle Fitting>
4PL

$$$$
Compound 7
Actelion Java MolfileCreator 2.0

  0  0  0  0  0  0              0 V3000
M  V30 BEGIN CTAB
M  V30 COUNTS 34 36 0 0 0
M  V30 BEGIN ATOM
M  V30 1 S 0.0 0.0 0.0 0
M  V30 2 O -0.872 1.2662 0.0 0
M  V30 3 O -1.529 -0.0836 0.0 0
M  V30 4 N -0.0238 -1.4813 0.0 0
M  V30 5 C 1.1468 0.9556 0.0 0
M  V30 6 C 1.1229 -2.3891 0.0 0
M  V30 7 C -1.3976 -2.1144 0.0 0
M  V30 8 C 2.5922 0.645 0.0 0
M  V30 9 C 2.5683 -2.0308 0.0 0
M  V30 10 C -1.529 -3.5957 0.0 0
M  V30 11 N 3.2254 -0.6809 0.0 0
M  V30 12 C -2.9028 -4.2288 0.0 0
M  V30 13 C -0.3105 -4.42 0.0 0
M  V30 14 C 4.7067 -0.657 0.0 0
M  V30 15 C -3.0342 -5.7101 0.0 0
M  V30 16 C -0.442 -5.9013 0.0 0
M  V30 17 O 5.4354 0.6689 0.0 0
M  V30 18 O 5.4473 -1.9352 0.0 0
M  V30 19 C -4.408 -6.3433 0.0 0
M  V30 20 C -1.8157 -6.5344 0.0 0
M  V30 21 C 6.9286 -1.9113 0.0 0
M  V30 22 O -4.5394 -7.8246 0.0 0
M  V30 23 N -5.6743 -5.4712 0.0 0
M  V30 24 C 6.9047 -0.3822 0.0 0
M  V30 25 C 8.4099 -1.8874 0.0 0
M  V30 26 C 6.9047 -3.3926 0.0 0
M  V30 27 C -7.0481 -6.1043 0.0 0 CFG=2
M  V30 28 C -8.3144 -5.2323 0.0 0
M  V30 29 C -7.1795 -7.5856 0.0 0
M  V30 30 O -8.2307 -3.7032 0.0 0
M  V30 31 N -9.6881 -5.8654 0.0 0
M  V30 32 C -8.5533 -8.2188 0.0 0
M  V30 33 C -9.8195 -7.3467 0.0 0
M  V30 34 O -11.1933 -7.9799 0.0 0
M  V30 END ATOM
M  V30 BEGIN BOND
M  V30 1 2 1 2
M  V30 2 2 1 3
M  V30 3 1 1 4
M  V30 4 1 1 5
M  V30 5 1 4 6
M  V30 6 1 4 7
M  V30 7 1 5 8
M  V30 8 1 6 9
M  V30 9 1 7 10
M  V30 10 1 8 11
M  V30 11 2 10 12
M  V30 12 1 10 13
M  V30 13 1 11 14
M  V30 14 1 12 15
M  V30 15 2 13 16
M  V30 16 2 14 17
M  V30 17 1 14 18
M  V30 18 1 15 19
M  V30 19 2 15 20
M  V30 20 1 18 21
M  V30 21 2 19 22
M  V30 22 1 19 23
M  V30 23 1 21 24
M  V30 24 1 21 25
M  V30 25 1 21 26
M  V30 26 1 27 23 CFG=1
M  V30 27 1 27 28
M  V30 28 1 27 29
M  V30 29 2 28 30
M  V30 30 1 28 31
M  V30 31 1 29 32
M  V30 32 1 31 33
M  V30 33 2 33 34
M  V30 34 1 9 11
M  V30 35 1 16 20
M  V30 36 1 32 33
M  V30 END BOND
M  V30 BEGIN COLLECTION
M  V30 MDLV30/STERAC1 ATOMS=(1 27)
M  V30 END COLLECTION
M  V30 END CTAB
M  END
>  <Molecule Name>
Compound 7

>  <EC50 (µM) (Excel)>
4.1

>  <Error (µM)>
0.2

>  <HTRC CRBN-DDB1 EC50 (µM)>
4.06 ±  0.18

>  <EC50 fitting (µM)>
3.77

>  <Modèle Fitting>
4PL

$$$$
Compound 8
Actelion Java MolfileCreator 2.0

  0  0  0  0  0  0              0 V3000
M  V30 BEGIN CTAB
M  V30 COUNTS 28 29 0 0 0
M  V30 BEGIN ATOM
M  V30 1 Cl 0.0 0.0 0.0 0
M  V30 2 S -7.6818 4.9931 0.0 0
M  V30 3 O -9.2182 4.8971 0.0 0
M  V30 4 O -8.378 3.6488 0.0 0
M  V30 5 N -6.3975 4.261 0.0 0
M  V30 6 C -7.9339 6.5055 0.0 0
M  V30 7 C -5.0172 4.8371 0.0 0
M  V30 8 C -6.5295 2.7846 0.0 0
M  V30 9 C -6.9376 7.6338 0.0 0
M  V30 10 C -4.5851 6.3015 0.0 0
M  V30 11 C -5.2932 1.9684 0.0 0
M  V30 12 N -5.4613 7.5498 0.0 0
M  V30 13 C -5.4253 0.4921 0.0 0
M  V30 14 C -3.9489 2.6526 0.0 0
M  V30 15 C -4.189 -0.324 0.0 0
M  V30 16 C -2.7126 1.8364 0.0 0
M  V30 17 C -4.321 -1.8004 0.0 0
M  V30 18 C -2.8446 0.36 0.0 0
M  V30 19 O -3.0847 -2.6166 0.0 0
M  V30 20 N -5.7133 -2.4365 0.0 0
M  V30 21 C -5.8454 -3.9129 0.0 0 CFG=2
M  V30 22 C -7.2377 -4.549 0.0 0
M  V30 23 C -4.6091 -4.7291 0.0 0
M  V30 24 O -8.522 -3.6848 0.0 0
M  V30 25 N -7.3697 -6.0254 0.0 0
M  V30 26 C -4.7411 -6.2054 0.0 0
M  V30 27 C -6.1334 -6.8416 0.0 0
M  V30 28 O -6.2655 -8.3179 0.0 0
M  V30 END ATOM
M  V30 BEGIN BOND
M  V30 1 2 2 3
M  V30 2 2 2 4
M  V30 3 1 2 5
M  V30 4 1 2 6
M  V30 5 1 5 7
M  V30 6 1 5 8
M  V30 7 1 6 9
M  V30 8 1 7 10
M  V30 9 1 8 11
M  V30 10 1 9 12
M  V30 11 2 11 13
M  V30 12 1 11 14
M  V30 13 1 13 15
M  V30 14 2 14 16
M  V30 15 1 15 17
M  V30 16 2 15 18
M  V30 17 2 17 19
M  V30 18 1 17 20
M  V30 19 1 21 20 CFG=1
M  V30 20 1 21 22
M  V30 21 1 21 23
M  V30 22 2 22 24
M  V30 23 1 22 25
M  V30 24 1 23 26
M  V30 25 1 25 27
M  V30 26 2 27 28
M  V30 27 1 10 12
M  V30 28 1 16 18
M  V30 29 1 26 27
M  V30 END BOND
M  V30 BEGIN COLLECTION
M  V30 MDLV30/STERAC1 ATOMS=(1 21)
M  V30 END COLLECTION
M  V30 END CTAB
M  END
>  <Molecule Name>
Compound 8

>  <EC50 (µM) (Excel)>
6.8

>  <Error (µM)>
1.0

>  <HTRC CRBN-DDB1 EC50 (µM)>
6.77 ±  1.02

>  <EC50 fitting (µM)>
7.19

>  <Modèle Fitting>
4PL

$$$$
Compound 9
Actelion Java MolfileCreator 2.0

  0  0  0  0  0  0              0 V3000
M  V30 BEGIN CTAB
M  V30 COUNTS 33 35 0 0 0
M  V30 BEGIN ATOM
M  V30 1 S 0.0 0.0 0.0 0
M  V30 2 O -0.872 1.2663 0.0 0
M  V30 3 O -1.5291 -0.0836 0.0 0
M  V30 4 N -0.0238 -1.4813 0.0 0
M  V30 5 C 1.1468 0.9557 0.0 0
M  V30 6 C 1.1229 -2.3892 0.0 0
M  V30 7 C -1.3977 -2.1145 0.0 0
M  V30 8 C 2.5923 0.6451 0.0 0
M  V30 9 C 2.5684 -2.0308 0.0 0
M  V30 10 C -1.5291 -3.5958 0.0 0
M  V30 11 N 3.2255 -0.6809 0.0 0
M  V30 12 C -2.9029 -4.229 0.0 0
M  V30 13 C -0.3106 -4.4201 0.0 0
M  V30 14 C 4.7068 -0.657 0.0 0
M  V30 15 C -3.0343 -5.7103 0.0 0
M  V30 16 C -0.442 -5.9015 0.0 0
M  V30 17 O 5.4475 -1.9353 0.0 0
M  V30 18 C 5.4356 0.6689 0.0 0
M  V30 19 C -4.4082 -6.3435 0.0 0
M  V30 20 C -1.8158 -6.5346 0.0 0
M  V30 21 N 6.9169 0.6928 0.0 0
M  V30 22 O -4.5396 -7.8249 0.0 0
M  V30 23 N -5.6745 -5.4714 0.0 0
M  V30 24 C 7.6576 -0.5853 0.0 0
M  V30 25 C 7.6457 2.0189 0.0 0
M  V30 26 C -7.0483 -6.1046 0.0 0 CFG=2
M  V30 27 C -8.3147 -5.2325 0.0 0
M  V30 28 C -7.1797 -7.5859 0.0 0
M  V30 29 O -8.231 -3.7033 0.0 0
M  V30 30 N -9.6885 -5.8656 0.0 0
M  V30 31 C -8.5536 -8.2191 0.0 0
M  V30 32 C -9.8199 -7.347 0.0 0
M  V30 33 O -11.1937 -7.9802 0.0 0
M  V30 END ATOM
M  V30 BEGIN BOND
M  V30 1 2 1 2
M  V30 2 2 1 3
M  V30 3 1 1 4
M  V30 4 1 1 5
M  V30 5 1 4 6
M  V30 6 1 4 7
M  V30 7 1 5 8
M  V30 8 1 6 9
M  V30 9 1 7 10
M  V30 10 1 8 11
M  V30 11 2 10 12
M  V30 12 1 10 13
M  V30 13 1 11 14
M  V30 14 1 12 15
M  V30 15 2 13 16
M  V30 16 2 14 17
M  V30 17 1 14 18
M  V30 18 1 15 19
M  V30 19 2 15 20
M  V30 20 1 18 21
M  V30 21 2 19 22
M  V30 22 1 19 23
M  V30 23 1 21 24
M  V30 24 1 21 25
M  V30 25 1 26 23 CFG=1
M  V30 26 1 26 27
M  V30 27 1 26 28
M  V30 28 2 27 29
M  V30 29 1 27 30
M  V30 30 1 28 31
M  V30 31 1 30 32
M  V30 32 2 32 33
M  V30 33 1 9 11
M  V30 34 1 16 20
M  V30 35 1 31 32
M  V30 END BOND
M  V30 BEGIN COLLECTION
M  V30 MDLV30/STERAC1 ATOMS=(1 26)
M  V30 END COLLECTION
M  V30 END CTAB
M  END
>  <Molecule Name>
Compound 9

>  <EC50 (µM) (Excel)>
54.0

>  <Error (µM)>
9.3

>  <HTRC CRBN-DDB1 EC50 (µM)>
53.95 ±  9.32

>  <EC50 fitting (µM)>
108.30

>  <Modèle Fitting>
4PL

$$$$
Compound 10
Actelion Java MolfileCreator 2.0

  0  0  0  0  0  0              0 V3000
M  V30 BEGIN CTAB
M  V30 COUNTS 37 40 0 0 0
M  V30 BEGIN ATOM
M  V30 1 S 0.0 0.0 0.0 0
M  V30 2 O -0.8708 1.2645 0.0 0
M  V30 3 O -1.5269 -0.0835 0.0 0
M  V30 4 N -0.0238 -1.4792 0.0 0
M  V30 5 C 1.1452 0.9543 0.0 0
M  V30 6 C 1.1213 -2.3858 0.0 0
M  V30 7 C -1.3957 -2.1115 0.0 0
M  V30 8 C 2.5886 0.6441 0.0 0
M  V30 9 C 2.5648 -2.028 0.0 0
M  V30 10 C -1.5269 -3.5907 0.0 0
M  V30 11 N 3.2209 -0.6799 0.0 0
M  V30 12 C -2.8988 -4.223 0.0 0
M  V30 13 C -0.3101 -4.4138 0.0 0
M  V30 14 C 4.7002 -0.6561 0.0 0
M  V30 15 C -3.03 -5.7022 0.0 0
M  V30 16 C -0.4413 -5.8931 0.0 0
M  V30 17 O 5.4398 -1.9325 0.0 0
M  V30 18 C 5.4279 0.668 0.0 0
M  V30 19 C -4.4019 -6.3345 0.0 0
M  V30 20 C -1.8132 -6.5254 0.0 0
M  V30 21 O 6.9071 0.6919 0.0 0
M  V30 22 O -4.5331 -7.8137 0.0 0
M  V30 23 N -5.6664 -5.4636 0.0 0
M  V30 24 C 7.6348 2.016 0.0 0
M  V30 25 C -7.0383 -6.0959 0.0 0 CFG=2
M  V30 26 C 9.1141 2.0399 0.0 0
M  V30 27 C 6.8594 3.3402 0.0 0
M  V30 28 C -8.3029 -5.2251 0.0 0
M  V30 29 C -7.1696 -7.5752 0.0 0
M  V30 30 C 9.8418 3.3641 0.0 0
M  V30 31 C 7.5871 4.6644 0.0 0
M  V30 32 O -8.2193 -3.6981 0.0 0
M  V30 33 N -9.6747 -5.8573 0.0 0
M  V30 34 C -8.5414 -8.2074 0.0 0
M  V30 35 C 9.0663 4.6882 0.0 0
M  V30 36 C -9.806 -7.3366 0.0 0
M  V30 37 O -11.1779 -7.9688 0.0 0
M  V30 END ATOM
M  V30 BEGIN BOND
M  V30 1 2 1 2
M  V30 2 2 1 3
M  V30 3 1 1 4
M  V30 4 1 1 5
M  V30 5 1 4 6
M  V30 6 1 4 7
M  V30 7 1 5 8
M  V30 8 1 6 9
M  V30 9 1 7 10
M  V30 10 1 8 11
M  V30 11 2 10 12
M  V30 12 1 10 13
M  V30 13 1 11 14
M  V30 14 1 12 15
M  V30 15 2 13 16
M  V30 16 2 14 17
M  V30 17 1 14 18
M  V30 18 1 15 19
M  V30 19 2 15 20
M  V30 20 1 18 21
M  V30 21 2 19 22
M  V30 22 1 19 23
M  V30 23 1 21 24
M  V30 24 1 25 23 CFG=1
M  V30 25 2 24 26
M  V30 26 1 24 27
M  V30 27 1 25 28
M  V30 28 1 25 29
M  V30 29 1 26 30
M  V30 30 2 27 31
M  V30 31 2 28 32
M  V30 32 1 28 33
M  V30 33 1 29 34
M  V30 34 2 30 35
M  V30 35 1 33 36
M  V30 36 2 36 37
M  V30 37 1 9 11
M  V30 38 1 16 20
M  V30 39 1 31 35
M  V30 40 1 34 36
M  V30 END BOND
M  V30 BEGIN COLLECTION
M  V30 MDLV30/STERAC1 ATOMS=(1 25)
M  V30 END COLLECTION
M  V30 END CTAB
M  END
>  <Molecule Name>
Compound 10

>  <EC50 (µM) (Excel)>
14.3

>  <Error (µM)>
1.3

>  <HTRC CRBN-DDB1 EC50 (µM)>
14.29 ±  1.32

>  <EC50 fitting (µM)>
23.96

>  <Modèle Fitting>
3PL

$$$$
Compound 11
Actelion Java MolfileCreator 2.0

  0  0  0  0  0  0              0 V3000
M  V30 BEGIN CTAB
M  V30 COUNTS 35 38 0 0 0
M  V30 BEGIN ATOM
M  V30 1 S 0.0 0.0 0.0 0
M  V30 2 O -0.8707 1.2643 0.0 0
M  V30 3 O -1.5267 -0.0834 0.0 0
M  V30 4 N -0.0238 -1.479 0.0 0
M  V30 5 C 1.145 0.9541 0.0 0
M  V30 6 C 1.1211 -2.3854 0.0 0
M  V30 7 C -1.3955 -2.1111 0.0 0
M  V30 8 C 2.5882 0.644 0.0 0
M  V30 9 C 2.5644 -2.0276 0.0 0
M  V30 10 C -1.5267 -3.5901 0.0 0
M  V30 11 N 3.2204 -0.6798 0.0 0
M  V30 12 C -2.8983 -4.2223 0.0 0
M  V30 13 C -0.3101 -4.4131 0.0 0
M  V30 14 C 4.6994 -0.656 0.0 0
M  V30 15 C -3.0295 -5.7013 0.0 0
M  V30 16 C -0.4413 -5.8921 0.0 0
M  V30 17 O 5.4389 -1.9322 0.0 0
M  V30 18 C 5.4269 0.6679 0.0 0
M  V30 19 C -4.4012 -6.3334 0.0 0
M  V30 20 C -1.8129 -6.5243 0.0 0
M  V30 21 N 6.9059 0.6917 0.0 0
M  V30 22 C 4.6517 1.9918 0.0 0
M  V30 23 O -4.5324 -7.8124 0.0 0
M  V30 24 N -5.6655 -5.4627 0.0 0
M  V30 25 C 7.6335 2.0157 0.0 0
M  V30 26 C 5.3792 3.3158 0.0 0
M  V30 27 C -7.0371 -6.0949 0.0 0 CFG=2
M  V30 28 C 6.8582 3.3396 0.0 0
M  V30 29 C -8.3015 -5.2242 0.0 0
M  V30 30 C -7.1683 -7.5739 0.0 0
M  V30 31 O -8.218 -3.6975 0.0 0
M  V30 32 N -9.6731 -5.8563 0.0 0
M  V30 33 C -8.54 -8.206 0.0 0
M  V30 34 C -9.8043 -7.3353 0.0 0
M  V30 35 O -11.176 -7.9675 0.0 0
M  V30 END ATOM
M  V30 BEGIN BOND
M  V30 1 2 1 2
M  V30 2 2 1 3
M  V30 3 1 1 4
M  V30 4 1 1 5
M  V30 5 1 4 6
M  V30 6 1 4 7
M  V30 7 1 5 8
M  V30 8 1 6 9
M  V30 9 1 7 10
M  V30 10 1 8 11
M  V30 11 2 10 12
M  V30 12 1 10 13
M  V30 13 1 11 14
M  V30 14 1 12 15
M  V30 15 2 13 16
M  V30 16 2 14 17
M  V30 17 1 14 18
M  V30 18 1 15 19
M  V30 19 2 15 20
M  V30 20 2 18 21
M  V30 21 1 18 22
M  V30 22 2 19 23
M  V30 23 1 19 24
M  V30 24 1 21 25
M  V30 25 2 22 26
M  V30 26 1 27 24 CFG=1
M  V30 27 2 25 28
M  V30 28 1 27 29
M  V30 29 1 27 30
M  V30 30 2 29 31
M  V30 31 1 29 32
M  V30 32 1 30 33
M  V30 33 1 32 34
M  V30 34 2 34 35
M  V30 35 1 9 11
M  V30 36 1 16 20
M  V30 37 1 26 28
M  V30 38 1 33 34
M  V30 END BOND
M  V30 BEGIN COLLECTION
M  V30 MDLV30/STERAC1 ATOMS=(1 27)
M  V30 END COLLECTION
M  V30 END CTAB
M  END
>  <Molecule Name>
Compound 11

>  <EC50 (µM) (Excel)>
37.7

>  <Error (µM)>
0.8

>  <HTRC CRBN-DDB1 EC50 (µM)>
37.72 ±  0.78

>  <EC50 fitting (µM)>
52.96

>  <Modèle Fitting>
3PL

$$$$
Compound 12
Actelion Java MolfileCreator 2.0

  0  0  0  0  0  0              0 V3000
M  V30 BEGIN CTAB
M  V30 COUNTS 38 41 0 0 0
M  V30 BEGIN ATOM
M  V30 1 S 0.0 0.0 0.0 0
M  V30 2 O -0.8733 1.2681 0.0 0
M  V30 3 O -1.5313 -0.0837 0.0 0
M  V30 4 N -0.0239 -1.4834 0.0 0
M  V30 5 C 1.1484 0.957 0.0 0
M  V30 6 C 1.1245 -2.3926 0.0 0
M  V30 7 C -1.3997 -2.1175 0.0 0
M  V30 8 C 2.596 0.646 0.0 0
M  V30 9 C 2.5721 -2.0337 0.0 0
M  V30 10 C -1.5313 -3.6009 0.0 0
M  V30 11 N 3.2301 -0.6819 0.0 0
M  V30 12 C -2.9071 -4.235 0.0 0
M  V30 13 C -0.311 -4.4264 0.0 0
M  V30 14 C 4.7135 -0.6579 0.0 0
M  V30 15 C -3.0387 -5.7185 0.0 0
M  V30 16 C -0.4426 -5.9099 0.0 0
M  V30 17 O 5.4433 0.6699 0.0 0
M  V30 18 C 5.4553 -1.938 0.0 0
M  V30 19 C -4.4145 -6.3525 0.0 0
M  V30 20 C -1.8184 -6.544 0.0 0
M  V30 21 C 6.9388 -1.9141 0.0 0
M  V30 22 O -4.5461 -7.836 0.0 0
M  V30 23 N -5.6826 -5.4792 0.0 0
M  V30 24 O 7.6805 -3.1942 0.0 0
M  V30 25 C -7.0584 -6.1133 0.0 0 CFG=2
M  V30 26 C 9.164 -3.1703 0.0 0
M  V30 27 C -8.3265 -5.2399 0.0 0
M  V30 28 C -7.19 -7.5967 0.0 0
M  V30 29 C 9.9057 -4.4504 0.0 0
M  V30 30 C 9.8937 -1.8423 0.0 0
M  V30 31 O -8.2428 -3.7086 0.0 0
M  V30 32 N -9.7023 -5.874 0.0 0
M  V30 33 C -8.5658 -8.2308 0.0 0
M  V30 34 C 11.3892 -4.4264 0.0 0
M  V30 35 C 11.3772 -1.8184 0.0 0
M  V30 36 C -9.8339 -7.3575 0.0 0
M  V30 37 C 12.1189 -3.0985 0.0 0
M  V30 38 O -11.2097 -7.9915 0.0 0
M  V30 END ATOM
M  V30 BEGIN BOND
M  V30 1 2 1 2
M  V30 2 2 1 3
M  V30 3 1 1 4
M  V30 4 1 1 5
M  V30 5 1 4 6
M  V30 6 1 4 7
M  V30 7 1 5 8
M  V30 8 1 6 9
M  V30 9 1 7 10
M  V30 10 1 8 11
M  V30 11 2 10 12
M  V30 12 1 10 13
M  V30 13 1 11 14
M  V30 14 1 12 15
M  V30 15 2 13 16
M  V30 16 2 14 17
M  V30 17 1 14 18
M  V30 18 1 15 19
M  V30 19 2 15 20
M  V30 20 1 18 21
M  V30 21 2 19 22
M  V30 22 1 19 23
M  V30 23 1 21 24
M  V30 24 1 25 23 CFG=1
M  V30 25 1 24 26
M  V30 26 1 25 27
M  V30 27 1 25 28
M  V30 28 2 26 29
M  V30 29 1 26 30
M  V30 30 2 27 31
M  V30 31 1 27 32
M  V30 32 1 28 33
M  V30 33 1 29 34
M  V30 34 2 30 35
M  V30 35 1 32 36
M  V30 36 2 34 37
M  V30 37 2 36 38
M  V30 38 1 9 11
M  V30 39 1 16 20
M  V30 40 1 33 36
M  V30 41 1 35 37
M  V30 END BOND
M  V30 BEGIN COLLECTION
M  V30 MDLV30/STERAC1 ATOMS=(1 25)
M  V30 END COLLECTION
M  V30 END CTAB
M  END
>  <Molecule Name>
Compound 12

>  <EC50 (µM) (Excel)>
61.9

>  <Error (µM)>
8.1

>  <HTRC CRBN-DDB1 EC50 (µM)>
61.88 ±  8.05

>  <EC50 fitting (µM)>
111.51

>  <Modèle Fitting>
4PL

$$$$
