EDEL-CRBN-0001
Actelion Java MolfileCreator 2.0

  0  0  0  0  0  0              0 V3000
M  V30 BEGIN CTAB
M  V30 COUNTS 25 27 0 0 0
M  V30 BEGIN ATOM
M  V30 1 O 0.0 0.0 0.0 0
M  V30 2 C -0.0239 1.5328 0.0 0
M  V30 3 N 1.2574 2.2993 0.0 0
M  V30 4 N -1.3532 2.2993 0.0 0
M  V30 5 C 2.5388 1.5688 0.0 0
M  V30 6 C 1.2334 3.8322 0.0 0
M  V30 7 C -1.3772 3.8322 0.0 0
M  V30 8 C 2.5149 0.0838 0.0 0
M  V30 9 C 3.8202 2.3352 0.0 0
M  V30 10 C -0.0958 4.6106 0.0 0
M  V30 11 O -2.7065 4.6106 0.0 0
M  V30 12 C 3.7963 -0.6466 0.0 0
M  V30 13 C 5.1016 1.6047 0.0 0
M  V30 14 C 5.0777 0.1197 0.0 0
M  V30 15 C 3.7723 -2.1316 0.0 0
M  V30 16 N 5.0537 -2.8621 0.0 0
M  V30 17 C 4.922 -4.3471 0.0 0 CFG=2
M  V30 18 C 6.2752 -1.9879 0.0 0
M  V30 19 C 3.4969 -4.8741 0.0 0
M  V30 20 C 5.9998 -5.3411 0.0 0
M  V30 21 C 7.6884 -2.4071 0.0 0
M  V30 22 O 2.2993 -3.916 0.0 0
M  V30 23 O 3.2454 -6.3471 0.0 0
M  V30 24 N 7.4728 -5.0896 0.0 0
M  V30 25 C 8.2153 -3.7843 0.0 0
M  V30 END ATOM
M  V30 BEGIN BOND
M  V30 1 2 1 2
M  V30 2 1 2 3
M  V30 3 1 2 4
M  V30 4 1 3 5
M  V30 5 1 3 6
M  V30 6 1 4 7
M  V30 7 2 5 8
M  V30 8 1 5 9
M  V30 9 1 6 10
M  V30 10 2 7 11
M  V30 11 1 8 12
M  V30 12 2 9 13
M  V30 13 2 12 14
M  V30 14 1 12 15
M  V30 15 1 15 16
M  V30 16 1 16 17
M  V30 17 1 16 18
M  V30 18 1 17 19 CFG=1
M  V30 19 1 17 20
M  V30 20 1 18 21
M  V30 21 2 19 22
M  V30 22 1 19 23
M  V30 23 1 20 24
M  V30 24 1 21 25
M  V30 25 1 7 10
M  V30 26 1 13 14
M  V30 27 1 24 25
M  V30 END BOND
M  V30 BEGIN COLLECTION
M  V30 MDLV30/STERAC1 ATOMS=(1 17)
M  V30 END COLLECTION
M  V30 END CTAB
M  END
>  <ID>
EDEL-CRBN-0001

$$$$
EDEL-CRBN-0002
Actelion Java MolfileCreator 2.0

  0  0  0  0  0  0              0 V3000
M  V30 BEGIN CTAB
M  V30 COUNTS 27 29 0 0 0
M  V30 BEGIN ATOM
M  V30 1 O 0.0 0.0 0.0 0
M  V30 2 C -1.3107 0.7557 0.0 0
M  V30 3 N -1.3225 2.2671 0.0 0
M  V30 4 N -2.6214 0.0118 0.0 0
M  V30 5 C -0.0354 3.0228 0.0 0
M  V30 6 C -2.6332 3.0228 0.0 0
M  V30 7 C -3.9321 0.7793 0.0 0
M  V30 8 C -0.0472 4.5343 0.0 0
M  V30 9 C 1.2516 2.2789 0.0 0
M  V30 10 C -3.9439 2.2789 0.0 0
M  V30 11 O -5.2428 0.0472 0.0 0
M  V30 12 O -1.3579 5.29 0.0 0
M  V30 13 C 1.2398 5.29 0.0 0
M  V30 14 C 2.5387 3.0346 0.0 0
M  V30 15 C -2.6686 4.5461 0.0 0
M  V30 16 C 2.5269 4.5461 0.0 0
M  V30 17 C 3.8258 2.2907 0.0 0
M  V30 18 N 5.1129 3.0465 0.0 0
M  V30 19 C 6.3409 2.2081 0.0 0 CFG=2
M  V30 20 C 4.9948 4.5579 0.0 0
M  V30 21 C 6.1048 0.7321 0.0 0
M  V30 22 C 7.7579 2.6568 0.0 0
M  V30 23 C 6.0812 5.5852 0.0 0
M  V30 24 O 4.6996 0.2007 0.0 0
M  V30 25 O 7.262 -0.1889 0.0 0
M  V30 26 N 8.2893 4.062 0.0 0
M  V30 27 C 7.5572 5.3727 0.0 0
M  V30 END ATOM
M  V30 BEGIN BOND
M  V30 1 2 1 2
M  V30 2 1 2 3
M  V30 3 1 2 4
M  V30 4 1 3 5
M  V30 5 1 3 6
M  V30 6 1 4 7
M  V30 7 2 5 8
M  V30 8 1 5 9
M  V30 9 1 6 10
M  V30 10 2 7 11
M  V30 11 1 8 12
M  V30 12 1 8 13
M  V30 13 2 9 14
M  V30 14 1 12 15
M  V30 15 2 13 16
M  V30 16 1 14 17
M  V30 17 1 17 18
M  V30 18 1 18 19
M  V30 19 1 18 20
M  V30 20 1 19 21 CFG=1
M  V30 21 1 19 22
M  V30 22 1 20 23
M  V30 23 2 21 24
M  V30 24 1 21 25
M  V30 25 1 22 26
M  V30 26 1 23 27
M  V30 27 1 7 10
M  V30 28 1 14 16
M  V30 29 1 26 27
M  V30 END BOND
M  V30 BEGIN COLLECTION
M  V30 MDLV30/STERAC1 ATOMS=(1 19)
M  V30 END COLLECTION
M  V30 END CTAB
M  END
>  <ID>
EDEL-CRBN-0002

$$$$
EDEL-CRBN-0003
Actelion Java MolfileCreator 2.0

  0  0  0  0  0  0              0 V3000
M  V30 BEGIN CTAB
M  V30 COUNTS 27 29 0 0 0
M  V30 BEGIN ATOM
M  V30 1 O 0.0 0.0 0.0 0
M  V30 2 C 1.2904 0.7695 0.0 0
M  V30 3 N 2.5808 0.0355 0.0 0
M  V30 4 N 1.2785 2.2848 0.0 0
M  V30 5 C 2.5689 -1.4561 0.0 0
M  V30 6 C 3.8712 0.805 0.0 0
M  V30 7 C 2.5689 3.0543 0.0 0
M  V30 8 C 1.2548 -2.2019 0.0 0
M  V30 9 C 3.8593 -2.1901 0.0 0
M  V30 10 C 3.8593 2.3203 0.0 0
M  V30 11 O 2.5571 4.5696 0.0 0
M  V30 12 O -0.0591 -1.4443 0.0 0
M  V30 13 C 1.243 -3.6936 0.0 0
M  V30 14 C 3.8475 -3.6818 0.0 0
M  V30 15 C -1.3732 -2.1783 0.0 0
M  V30 16 C 2.5334 -4.4276 0.0 0
M  V30 17 C -0.071 -4.4394 0.0 0
M  V30 18 N -0.0828 -5.9311 0.0 0
M  V30 19 C -1.4443 -6.5704 0.0 0 CFG=2
M  V30 20 C 1.2548 -6.5704 0.0 0
M  V30 21 C -2.6281 -5.6233 0.0 0
M  V30 22 C -1.7876 -8.0265 0.0 0
M  V30 23 C 1.5745 -8.0265 0.0 0
M  V30 24 O -2.415 -4.1198 0.0 0
M  V30 25 O -4.0369 -6.156 0.0 0
M  V30 26 N -0.8642 -9.1867 0.0 0
M  V30 27 C 0.6274 -9.1867 0.0 0
M  V30 END ATOM
M  V30 BEGIN BOND
M  V30 1 2 1 2
M  V30 2 1 2 3
M  V30 3 1 2 4
M  V30 4 1 3 5
M  V30 5 1 3 6
M  V30 6 1 4 7
M  V30 7 2 5 8
M  V30 8 1 5 9
M  V30 9 1 6 10
M  V30 10 2 7 11
M  V30 11 1 8 12
M  V30 12 1 8 13
M  V30 13 2 9 14
M  V30 14 1 12 15
M  V30 15 2 13 16
M  V30 16 1 13 17
M  V30 17 1 17 18
M  V30 18 1 18 19
M  V30 19 1 18 20
M  V30 20 1 19 21 CFG=1
M  V30 21 1 19 22
M  V30 22 1 20 23
M  V30 23 2 21 24
M  V30 24 1 21 25
M  V30 25 1 22 26
M  V30 26 1 23 27
M  V30 27 1 7 10
M  V30 28 1 14 16
M  V30 29 1 26 27
M  V30 END BOND
M  V30 BEGIN COLLECTION
M  V30 MDLV30/STERAC1 ATOMS=(1 19)
M  V30 END COLLECTION
M  V30 END CTAB
M  END
>  <ID>
EDEL-CRBN-0003

$$$$
EDEL-CRBN-0004
Actelion Java MolfileCreator 2.0

  0  0  0  0  0  0              0 V3000
M  V30 BEGIN CTAB
M  V30 COUNTS 29 31 0 0 0
M  V30 BEGIN ATOM
M  V30 1 O 0.0 0.0 0.0 0
M  V30 2 C 1.2899 0.7692 0.0 0
M  V30 3 N 2.5798 0.0355 0.0 0
M  V30 4 N 1.278 2.2839 0.0 0
M  V30 5 C 2.5679 -1.4555 0.0 0
M  V30 6 C 3.8697 0.8047 0.0 0
M  V30 7 C 2.5679 3.0531 0.0 0
M  V30 8 C 1.2544 -2.2011 0.0 0
M  V30 9 C 3.8579 -2.1893 0.0 0
M  V30 10 C 3.8579 2.3194 0.0 0
M  V30 11 O 2.5561 4.5679 0.0 0
M  V30 12 O -0.0591 -1.4437 0.0 0
M  V30 13 C 1.2425 -3.6922 0.0 0
M  V30 14 O 5.1478 -1.42 0.0 0
M  V30 15 C 3.846 -3.6803 0.0 0
M  V30 16 C -1.3727 -2.1774 0.0 0
M  V30 17 C 2.5324 -4.4259 0.0 0
M  V30 18 C -0.071 -4.4377 0.0 0
M  V30 19 C 5.1359 0.0946 0.0 0
M  V30 20 N -0.0828 -5.9288 0.0 0
M  V30 21 C -1.4437 -6.5679 0.0 0 CFG=2
M  V30 22 C 1.2544 -6.5679 0.0 0
M  V30 23 C -2.6271 -5.6211 0.0 0
M  V30 24 C -1.7869 -8.0234 0.0 0
M  V30 25 C 1.5739 -8.0234 0.0 0
M  V30 26 O -2.4141 -4.1182 0.0 0
M  V30 27 O -4.0354 -6.1537 0.0 0
M  V30 28 N -0.8638 -9.1832 0.0 0
M  V30 29 C 0.6272 -9.1832 0.0 0
M  V30 END ATOM
M  V30 BEGIN BOND
M  V30 1 2 1 2
M  V30 2 1 2 3
M  V30 3 1 2 4
M  V30 4 1 3 5
M  V30 5 1 3 6
M  V30 6 1 4 7
M  V30 7 2 5 8
M  V30 8 1 5 9
M  V30 9 1 6 10
M  V30 10 2 7 11
M  V30 11 1 8 12
M  V30 12 1 8 13
M  V30 13 1 9 14
M  V30 14 2 9 15
M  V30 15 1 12 16
M  V30 16 2 13 17
M  V30 17 1 13 18
M  V30 18 1 14 19
M  V30 19 1 18 20
M  V30 20 1 20 21
M  V30 21 1 20 22
M  V30 22 1 21 23 CFG=1
M  V30 23 1 21 24
M  V30 24 1 22 25
M  V30 25 2 23 26
M  V30 26 1 23 27
M  V30 27 1 24 28
M  V30 28 1 25 29
M  V30 29 1 7 10
M  V30 30 1 15 17
M  V30 31 1 28 29
M  V30 END BOND
M  V30 BEGIN COLLECTION
M  V30 MDLV30/STERAC1 ATOMS=(1 21)
M  V30 END COLLECTION
M  V30 END CTAB
M  END
>  <ID>
EDEL-CRBN-0004

$$$$
EDEL-CRBN-0005
Actelion Java MolfileCreator 2.0

  0  0  0  0  0  0              0 V3000
M  V30 BEGIN CTAB
M  V30 COUNTS 30 34 0 0 0
M  V30 BEGIN ATOM
M  V30 1 O -0.8 2.3551 0.0 0
M  V30 2 C -1.1434 0.8984 0.0 0
M  V30 3 N -2.6238 0.5786 0.0 0
M  V30 4 C 0.0171 -0.0253 0.0 0 CFG=2
M  V30 5 C -3.287 -0.7595 0.0 0
M  V30 6 C 0.0053 -1.5175 0.0 0 CFG=2
M  V30 7 C 1.4383 0.4484 0.0 0
M  V30 8 C -2.6475 -2.0978 0.0 0
M  V30 9 C -1.1789 -2.4412 0.0 0
M  V30 10 C 1.4264 -1.9675 0.0 0
M  V30 11 N 2.3147 -0.7595 0.0 0
M  V30 12 C -3.6778 -3.1874 0.0 0
M  V30 13 C -0.7526 -3.8624 0.0 0
M  V30 14 C 3.8069 -0.7477 0.0 0
M  V30 15 C -3.2515 -4.6085 0.0 0
M  V30 16 C -1.7829 -4.952 0.0 0
M  V30 17 C 4.553 0.5668 0.0 0
M  V30 18 N -4.2818 -5.6981 0.0 0
M  V30 19 C 6.0452 0.5786 0.0 0
M  V30 20 C 3.795 1.8814 0.0 0
M  V30 21 C -5.7622 -5.3546 0.0 0
M  V30 22 C -3.8555 -7.1192 0.0 0
M  V30 23 C 6.7913 1.8932 0.0 0
M  V30 24 C 4.5293 3.1959 0.0 0
M  V30 25 O -6.2122 -3.9098 0.0 0
M  V30 26 N -6.7925 -6.4442 0.0 0
M  V30 27 C -4.8858 -8.2088 0.0 0
M  V30 28 C 6.0334 3.2078 0.0 0
M  V30 29 C -6.3662 -7.8654 0.0 0
M  V30 30 O -7.3965 -8.9549 0.0 0
M  V30 END ATOM
M  V30 BEGIN BOND
M  V30 1 2 1 2
M  V30 2 1 2 3
M  V30 3 1 4 2 CFG=1
M  V30 4 1 3 5
M  V30 5 1 4 6
M  V30 6 1 4 7
M  V30 7 1 5 8
M  V30 8 1 6 9 CFG=1
M  V30 9 1 6 10
M  V30 10 1 7 11
M  V30 11 1 8 12
M  V30 12 1 9 13
M  V30 13 1 11 14
M  V30 14 2 12 15
M  V30 15 2 13 16
M  V30 16 1 14 17
M  V30 17 1 15 18
M  V30 18 2 17 19
M  V30 19 1 17 20
M  V30 20 1 18 21
M  V30 21 1 18 22
M  V30 22 1 19 23
M  V30 23 2 20 24
M  V30 24 2 21 25
M  V30 25 1 21 26
M  V30 26 1 22 27
M  V30 27 2 23 28
M  V30 28 1 26 29
M  V30 29 2 29 30
M  V30 30 2 8 9
M  V30 31 1 10 11
M  V30 32 1 15 16
M  V30 33 1 24 28
M  V30 34 1 27 29
M  V30 END BOND
M  V30 BEGIN COLLECTION
M  V30 MDLV30/STERAC1 ATOMS=(2 4 6)
M  V30 END COLLECTION
M  V30 END CTAB
M  END
>  <ID>
EDEL-CRBN-0005

$$$$
EDEL-CRBN-0006
Actelion Java MolfileCreator 2.0

  0  0  0  0  0  0              0 V3000
M  V30 BEGIN CTAB
M  V30 COUNTS 32 36 0 0 0
M  V30 BEGIN ATOM
M  V30 1 O 0.0 0.0 0.0 0
M  V30 2 C 1.0048 1.1112 0.0 0
M  V30 3 N 2.4233 0.6856 0.0 0
M  V30 4 C 0.4492 2.5179 0.0 0 CFG=2
M  V30 5 C 3.6528 1.5486 0.0 0
M  V30 6 C 1.1821 3.8301 0.0 0 CFG=2
M  V30 7 C -1.0284 2.8371 0.0 0
M  V30 8 C 3.7474 3.0617 0.0 0
M  V30 9 C 2.6598 4.0665 0.0 0
M  V30 10 C 0.1655 4.9531 0.0 0
M  V30 11 N -1.1939 4.3384 0.0 0
M  V30 12 C 5.1659 3.5109 0.0 0
M  V30 13 C 2.979 5.5442 0.0 0
M  V30 14 C -2.5061 5.095 0.0 0
M  V30 15 C 5.4851 4.9886 0.0 0
M  V30 16 C 4.3975 5.9934 0.0 0
M  V30 17 C -3.8183 4.3621 0.0 0
M  V30 18 N 6.9037 5.4378 0.0 0
M  V30 19 O 4.7167 7.4711 0.0 0
M  V30 20 C -5.1305 5.1305 0.0 0
M  V30 21 C -3.8301 2.8726 0.0 0
M  V30 22 C 7.9913 4.433 0.0 0
M  V30 23 C 7.2229 6.9155 0.0 0
M  V30 24 C 3.6055 8.4996 0.0 0
M  V30 25 C -6.4426 4.3975 0.0 0
M  V30 26 C -5.1423 2.1396 0.0 0
M  V30 27 O 7.6484 2.979 0.0 0
M  V30 28 N 9.4098 4.8822 0.0 0
M  V30 29 C 8.6414 7.3647 0.0 0
M  V30 30 C -6.4545 2.908 0.0 0
M  V30 31 C 9.729 6.3599 0.0 0
M  V30 32 O 11.1476 6.8091 0.0 0
M  V30 END ATOM
M  V30 BEGIN BOND
M  V30 1 2 1 2
M  V30 2 1 2 3
M  V30 3 1 4 2 CFG=1
M  V30 4 1 3 5
M  V30 5 1 4 6
M  V30 6 1 4 7
M  V30 7 1 5 8
M  V30 8 1 6 9 CFG=1
M  V30 9 1 6 10
M  V30 10 1 7 11
M  V30 11 1 8 12
M  V30 12 1 9 13
M  V30 13 1 11 14
M  V30 14 2 12 15
M  V30 15 2 13 16
M  V30 16 1 14 17
M  V30 17 1 15 18
M  V30 18 1 16 19
M  V30 19 2 17 20
M  V30 20 1 17 21
M  V30 21 1 18 22
M  V30 22 1 18 23
M  V30 23 1 19 24
M  V30 24 1 20 25
M  V30 25 2 21 26
M  V30 26 2 22 27
M  V30 27 1 22 28
M  V30 28 1 23 29
M  V30 29 2 25 30
M  V30 30 1 28 31
M  V30 31 2 31 32
M  V30 32 2 8 9
M  V30 33 1 10 11
M  V30 34 1 15 16
M  V30 35 1 26 30
M  V30 36 1 29 31
M  V30 END BOND
M  V30 BEGIN COLLECTION
M  V30 MDLV30/STERAC1 ATOMS=(2 4 6)
M  V30 END COLLECTION
M  V30 END CTAB
M  END
>  <ID>
EDEL-CRBN-0006

$$$$
EDEL-CRBN-0007
Actelion Java MolfileCreator 2.0

  0  0  0  0  0  0              0 V3000
M  V30 BEGIN CTAB
M  V30 COUNTS 32 36 0 0 0
M  V30 BEGIN ATOM
M  V30 1 O 0.0 0.0 0.0 0
M  V30 2 C 1.0055 1.1119 0.0 0
M  V30 3 N 2.425 0.6861 0.0 0
M  V30 4 C 0.4495 2.5196 0.0 0 CFG=2
M  V30 5 C 3.6553 1.5496 0.0 0
M  V30 6 C 1.1829 3.8327 0.0 0 CFG=2
M  V30 7 C -1.0291 2.839 0.0 0
M  V30 8 C 3.7499 3.0638 0.0 0
M  V30 9 C 2.6616 4.0693 0.0 0
M  V30 10 C 0.1656 4.9565 0.0 0
M  V30 11 N -1.1947 4.3414 0.0 0
M  V30 12 C 5.1695 3.5133 0.0 0
M  V30 13 C 2.981 5.548 0.0 0
M  V30 14 C -2.5078 5.0985 0.0 0
M  V30 15 O 6.2578 2.5078 0.0 0
M  V30 16 C 5.4889 4.992 0.0 0
M  V30 17 C 4.4005 5.9975 0.0 0
M  V30 18 C -3.8209 4.3651 0.0 0
M  V30 19 C 7.6773 2.9573 0.0 0
M  V30 20 N 6.9084 5.4415 0.0 0
M  V30 21 C -5.134 5.134 0.0 0
M  V30 22 C -3.8327 2.8745 0.0 0
M  V30 23 C 7.2278 6.9202 0.0 0
M  V30 24 C 7.9967 4.436 0.0 0
M  V30 25 C -6.4471 4.4005 0.0 0
M  V30 26 C -5.1458 2.1411 0.0 0
M  V30 27 O 6.1158 7.9494 0.0 0
M  V30 28 N 8.6474 7.3698 0.0 0
M  V30 29 C 9.4163 4.8856 0.0 0
M  V30 30 C -6.4589 2.91 0.0 0
M  V30 31 C 9.7357 6.3642 0.0 0
M  V30 32 O 11.1552 6.8138 0.0 0
M  V30 END ATOM
M  V30 BEGIN BOND
M  V30 1 2 1 2
M  V30 2 1 2 3
M  V30 3 1 4 2 CFG=1
M  V30 4 1 3 5
M  V30 5 1 4 6
M  V30 6 1 4 7
M  V30 7 1 5 8
M  V30 8 1 6 9 CFG=1
M  V30 9 1 6 10
M  V30 10 1 7 11
M  V30 11 1 8 12
M  V30 12 1 9 13
M  V30 13 1 11 14
M  V30 14 1 12 15
M  V30 15 2 12 16
M  V30 16 2 13 17
M  V30 17 1 14 18
M  V30 18 1 15 19
M  V30 19 1 16 20
M  V30 20 2 18 21
M  V30 21 1 18 22
M  V30 22 1 20 23
M  V30 23 1 20 24
M  V30 24 1 21 25
M  V30 25 2 22 26
M  V30 26 2 23 27
M  V30 27 1 23 28
M  V30 28 1 24 29
M  V30 29 2 25 30
M  V30 30 1 28 31
M  V30 31 2 31 32
M  V30 32 2 8 9
M  V30 33 1 10 11
M  V30 34 1 16 17
M  V30 35 1 26 30
M  V30 36 1 29 31
M  V30 END BOND
M  V30 BEGIN COLLECTION
M  V30 MDLV30/STERAC1 ATOMS=(2 4 6)
M  V30 END COLLECTION
M  V30 END CTAB
M  END
>  <ID>
EDEL-CRBN-0007

$$$$
EDEL-CRBN-0008
Actelion Java MolfileCreator 2.0

  0  0  0  0  0  0              0 V3000
M  V30 BEGIN CTAB
M  V30 COUNTS 32 36 0 0 0
M  V30 BEGIN ATOM
M  V30 1 Cl -4.5161 8.2105 0.0 0
M  V30 2 C -3.4628 7.1572 0.0 0
M  V30 3 C -3.8652 5.7135 0.0 0
M  V30 4 C -2.0191 7.5596 0.0 0
M  V30 5 F -5.3326 5.3348 0.0 0
M  V30 6 C -2.812 4.6602 0.0 0
M  V30 7 C -0.9658 6.5064 0.0 0
M  V30 8 C -1.3682 5.0626 0.0 0
M  V30 9 C -3.2143 3.2165 0.0 0
M  V30 10 N -2.1611 2.1632 0.0 0
M  V30 11 C -2.5634 0.7195 0.0 0
M  V30 12 C -0.7173 2.5656 0.0 0
M  V30 13 C -1.5102 -0.3337 0.0 0
M  V30 14 C 0.3358 1.5123 0.0 0
M  V30 15 C -0.0664 0.0686 0.0 0
M  V30 16 O -0.0783 -1.4224 0.0 0
M  V30 17 C 1.4246 0.0804 0.0 0 CFG=2
M  V30 18 C 1.4127 -1.4106 0.0 0
M  V30 19 C 2.4778 1.1573 0.0 0
M  V30 20 C 3.9216 0.7786 0.0 0
M  V30 21 C 2.0754 2.6248 0.0 0
M  V30 22 C 4.9748 1.8555 0.0 0
M  V30 23 C 3.1287 3.7017 0.0 0
M  V30 24 C 4.5725 3.323 0.0 0
M  V30 25 N 5.6257 4.3999 0.0 0
M  V30 26 C 7.0695 4.0212 0.0 0
M  V30 27 C 5.2233 5.8673 0.0 0
M  V30 28 O 7.4482 2.5774 0.0 0
M  V30 29 N 8.1227 5.0981 0.0 0
M  V30 30 C 6.2766 6.9442 0.0 0
M  V30 31 C 7.7203 6.5655 0.0 0
M  V30 32 O 8.7736 7.6424 0.0 0
M  V30 END ATOM
M  V30 BEGIN BOND
M  V30 1 1 1 2
M  V30 2 2 2 3
M  V30 3 1 2 4
M  V30 4 1 3 5
M  V30 5 1 3 6
M  V30 6 2 4 7
M  V30 7 2 6 8
M  V30 8 1 6 9
M  V30 9 1 9 10
M  V30 10 1 10 11
M  V30 11 1 10 12
M  V30 12 1 11 13
M  V30 13 1 12 14
M  V30 14 1 13 15
M  V30 15 1 15 16
M  V30 16 1 15 17
M  V30 17 1 16 18
M  V30 18 1 17 19 CFG=1
M  V30 19 2 19 20
M  V30 20 1 19 21
M  V30 21 1 20 22
M  V30 22 2 21 23
M  V30 23 2 22 24
M  V30 24 1 24 25
M  V30 25 1 25 26
M  V30 26 1 25 27
M  V30 27 2 26 28
M  V30 28 1 26 29
M  V30 29 1 27 30
M  V30 30 1 29 31
M  V30 31 2 31 32
M  V30 32 1 7 8
M  V30 33 1 14 15
M  V30 34 1 17 18
M  V30 35 1 23 24
M  V30 36 1 30 31
M  V30 END BOND
M  V30 BEGIN COLLECTION
M  V30 MDLV30/STERAC1 ATOMS=(1 17)
M  V30 END COLLECTION
M  V30 END CTAB
M  END
>  <ID>
EDEL-CRBN-0008

$$$$
EDEL-CRBN-0009
Actelion Java MolfileCreator 2.0

  0  0  0  0  0  0              0 V3000
M  V30 BEGIN CTAB
M  V30 COUNTS 34 38 0 0 0
M  V30 BEGIN ATOM
M  V30 1 O -5.0666 -1.4736 0.0 0
M  V30 2 C -5.0819 0.043 0.0 0
M  V30 3 N -3.795 0.809 0.0 0
M  V30 4 N -6.3995 0.809 0.0 0
M  V30 5 C -2.5081 0.0736 0.0 0
M  V30 6 C -3.8104 2.3257 0.0 0
M  V30 7 C -6.4148 2.3257 0.0 0
M  V30 8 C -1.2825 0.809 0.0 0
M  V30 9 C -2.5234 -1.3358 0.0 0
M  V30 10 C -5.1279 3.0917 0.0 0
M  V30 11 O -7.7324 3.0917 0.0 0
M  V30 12 C -0.0569 0.1043 0.0 0
M  V30 13 C -1.2978 -2.0405 0.0 0
M  V30 14 C -0.0722 -1.3051 0.0 0
M  V30 15 C 1.2912 0.5639 0.0 0 CFG=1
M  V30 16 C 1.2759 -1.7341 0.0 0 CFG=2
M  V30 17 N 2.1185 -0.5697 0.0 0
M  V30 18 C 3.2216 0.6558 0.0 0
M  V30 19 C 3.2062 -1.7954 0.0 0
M  V30 20 C 3.3901 -0.5544 0.0 0
M  V30 21 N 4.0489 -0.5697 0.0 0
M  V30 22 O 4.34 0.763 0.0 0
M  V30 23 O 4.34 -1.8413 0.0 0
M  V30 24 C 5.4124 -0.5544 0.0 0
M  V30 25 C 3.5739 -3.1282 0.0 0
M  V30 26 C 6.1477 0.763 0.0 0
M  V30 27 C 2.2564 -2.4082 0.0 0
M  V30 28 C 2.8079 -4.4151 0.0 0
M  V30 29 C 4.8608 -3.8636 0.0 0
M  V30 30 C 7.6338 0.7784 0.0 0
M  V30 31 C 5.3817 2.0806 0.0 0
M  V30 32 C 8.3692 2.0959 0.0 0
M  V30 33 C 6.1171 3.3981 0.0 0
M  V30 34 C 7.6032 3.4134 0.0 0
M  V30 END ATOM
M  V30 BEGIN BOND
M  V30 1 2 1 2
M  V30 2 1 2 3
M  V30 3 1 2 4
M  V30 4 1 3 5
M  V30 5 1 3 6
M  V30 6 1 4 7
M  V30 7 2 5 8
M  V30 8 1 5 9
M  V30 9 1 6 10
M  V30 10 2 7 11
M  V30 11 1 8 12
M  V30 12 2 9 13
M  V30 13 2 12 14
M  V30 14 1 12 15
M  V30 15 1 14 16
M  V30 16 1 15 17 CFG=1
M  V30 17 1 15 18
M  V30 18 1 16 19
M  V30 19 1 17 20
M  V30 20 1 18 21
M  V30 21 2 20 22
M  V30 22 1 20 23
M  V30 23 1 21 24
M  V30 24 1 23 25
M  V30 25 1 24 26
M  V30 26 1 25 27
M  V30 27 1 25 28
M  V30 28 1 25 29
M  V30 29 2 26 30
M  V30 30 1 26 31
M  V30 31 1 30 32
M  V30 32 2 31 33
M  V30 33 2 32 34
M  V30 34 1 7 10
M  V30 35 1 13 14
M  V30 36 1 16 17 CFG=1
M  V30 37 1 19 21
M  V30 38 1 33 34
M  V30 END BOND
M  V30 BEGIN COLLECTION
M  V30 MDLV30/STERAC1 ATOMS=(2 15 16)
M  V30 END COLLECTION
M  V30 END CTAB
M  END
>  <ID>
EDEL-CRBN-0009

$$$$
EDEL-CRBN-0010
Actelion Java MolfileCreator 2.0

  0  0  0  0  0  0              0 V3000
M  V30 BEGIN CTAB
M  V30 COUNTS 34 38 0 0 0
M  V30 BEGIN ATOM
M  V30 1 O 0.0 0.0 0.0 0
M  V30 2 C 1.005 1.1114 0.0 0
M  V30 3 N 2.4238 0.6857 0.0 0
M  V30 4 C 0.4493 2.5184 0.0 0 CFG=2
M  V30 5 C 3.6535 1.5489 0.0 0
M  V30 6 C 1.1823 3.8308 0.0 0 CFG=2
M  V30 7 C -1.0286 2.8377 0.0 0
M  V30 8 C 3.7481 3.0623 0.0 0
M  V30 9 C 2.6603 4.0673 0.0 0
M  V30 10 C 0.1655 4.9541 0.0 0
M  V30 11 N -1.1941 4.3393 0.0 0
M  V30 12 C 5.1669 3.5116 0.0 0
M  V30 13 C 2.9795 5.5453 0.0 0
M  V30 14 C -2.5066 5.096 0.0 0
M  V30 15 O 6.2547 2.5066 0.0 0
M  V30 16 C 5.4862 4.9896 0.0 0
M  V30 17 C 4.3984 5.9946 0.0 0
M  V30 18 C -3.819 4.3629 0.0 0
M  V30 19 C 7.6736 2.9559 0.0 0
M  V30 20 N 6.905 5.4389 0.0 0
M  V30 21 O 4.7176 7.4726 0.0 0
M  V30 22 C -5.1315 5.1315 0.0 0
M  V30 23 C -3.8308 2.8731 0.0 0
M  V30 24 C 7.2243 6.9168 0.0 0
M  V30 25 C 7.9928 4.4339 0.0 0
M  V30 26 C 3.6062 8.5012 0.0 0
M  V30 27 C -6.4439 4.3984 0.0 0
M  V30 28 C -5.1433 2.14 0.0 0
M  V30 29 O 6.1128 7.9455 0.0 0
M  V30 30 N 8.6431 7.3661 0.0 0
M  V30 31 C 9.4117 4.8832 0.0 0
M  V30 32 C -6.4557 2.9086 0.0 0
M  V30 33 C 9.7309 6.3611 0.0 0
M  V30 34 O 11.1498 6.8104 0.0 0
M  V30 END ATOM
M  V30 BEGIN BOND
M  V30 1 2 1 2
M  V30 2 1 2 3
M  V30 3 1 4 2 CFG=1
M  V30 4 1 3 5
M  V30 5 1 4 6
M  V30 6 1 4 7
M  V30 7 1 5 8
M  V30 8 1 6 9 CFG=1
M  V30 9 1 6 10
M  V30 10 1 7 11
M  V30 11 1 8 12
M  V30 12 1 9 13
M  V30 13 1 11 14
M  V30 14 1 12 15
M  V30 15 2 12 16
M  V30 16 2 13 17
M  V30 17 1 14 18
M  V30 18 1 15 19
M  V30 19 1 16 20
M  V30 20 1 17 21
M  V30 21 2 18 22
M  V30 22 1 18 23
M  V30 23 1 20 24
M  V30 24 1 20 25
M  V30 25 1 21 26
M  V30 26 1 22 27
M  V30 27 2 23 28
M  V30 28 2 24 29
M  V30 29 1 24 30
M  V30 30 1 25 31
M  V30 31 2 27 32
M  V30 32 1 30 33
M  V30 33 2 33 34
M  V30 34 2 8 9
M  V30 35 1 10 11
M  V30 36 1 16 17
M  V30 37 1 28 32
M  V30 38 1 31 33
M  V30 END BOND
M  V30 BEGIN COLLECTION
M  V30 MDLV30/STERAC1 ATOMS=(2 4 6)
M  V30 END COLLECTION
M  V30 END CTAB
M  END
>  <ID>
EDEL-CRBN-0010

$$$$
EDEL-CRBN-0011
Actelion Java MolfileCreator 2.0

  0  0  0  0  0  0              0 V3000
M  V30 BEGIN CTAB
M  V30 COUNTS 34 38 0 0 0
M  V30 BEGIN ATOM
M  V30 1 Cl 0.0 0.0 0.0 0
M  V30 2 C -1.3132 -0.7335 0.0 0
M  V30 3 C -2.6264 0.0236 0.0 0
M  V30 4 C -1.325 -2.2242 0.0 0
M  V30 5 F -2.6382 1.538 0.0 0
M  V30 6 C -3.9397 -0.7098 0.0 0
M  V30 7 C -2.6382 -2.9695 0.0 0
M  V30 8 C -3.9515 -2.2005 0.0 0
M  V30 9 C -5.2529 0.0473 0.0 0
M  V30 10 N -6.5661 -0.6861 0.0 0
M  V30 11 C -7.8794 0.0828 0.0 0
M  V30 12 C -6.578 -2.1768 0.0 0
M  V30 13 C -9.1926 -0.6507 0.0 0
M  V30 14 C -7.8912 -2.9104 0.0 0
M  V30 15 C -9.2044 -2.1414 0.0 0
M  V30 16 O -10.6715 -1.7391 0.0 0
M  V30 17 C -9.6067 -3.5847 0.0 0 CFG=2
M  V30 18 C -11.0737 -3.1825 0.0 0
M  V30 19 C -8.8732 -4.8743 0.0 0
M  V30 20 C -9.6422 -6.1639 0.0 0
M  V30 21 C -7.3825 -4.8625 0.0 0
M  V30 22 C -8.9086 -7.4534 0.0 0
M  V30 23 C -6.6371 -6.152 0.0 0
M  V30 24 O -9.6777 -8.743 0.0 0
M  V30 25 C -7.4179 -7.4416 0.0 0
M  V30 26 C -8.9441 -10.0326 0.0 0
M  V30 27 N -6.6844 -8.7312 0.0 0
M  V30 28 C -5.1937 -8.7194 0.0 0
M  V30 29 C -7.4534 -10.0208 0.0 0
M  V30 30 O -4.4602 -7.4061 0.0 0
M  V30 31 N -4.4602 -10.0089 0.0 0
M  V30 32 C -6.7199 -11.3103 0.0 0
M  V30 33 C -5.2292 -11.2985 0.0 0
M  V30 34 O -4.4957 -12.5881 0.0 0
M  V30 END ATOM
M  V30 BEGIN BOND
M  V30 1 1 1 2
M  V30 2 2 2 3
M  V30 3 1 2 4
M  V30 4 1 3 5
M  V30 5 1 3 6
M  V30 6 2 4 7
M  V30 7 2 6 8
M  V30 8 1 6 9
M  V30 9 1 9 10
M  V30 10 1 10 11
M  V30 11 1 10 12
M  V30 12 1 11 13
M  V30 13 1 12 14
M  V30 14 1 13 15
M  V30 15 1 15 16
M  V30 16 1 15 17
M  V30 17 1 16 18
M  V30 18 1 17 19 CFG=1
M  V30 19 2 19 20
M  V30 20 1 19 21
M  V30 21 1 20 22
M  V30 22 2 21 23
M  V30 23 1 22 24
M  V30 24 2 22 25
M  V30 25 1 24 26
M  V30 26 1 25 27
M  V30 27 1 27 28
M  V30 28 1 27 29
M  V30 29 2 28 30
M  V30 30 1 28 31
M  V30 31 1 29 32
M  V30 32 1 31 33
M  V30 33 2 33 34
M  V30 34 1 7 8
M  V30 35 1 14 15
M  V30 36 1 17 18
M  V30 37 1 23 25
M  V30 38 1 32 33
M  V30 END BOND
M  V30 BEGIN COLLECTION
M  V30 MDLV30/STERAC1 ATOMS=(1 17)
M  V30 END COLLECTION
M  V30 END CTAB
M  END
>  <ID>
EDEL-CRBN-0011

$$$$
EDEL-CRBN-0012
Actelion Java MolfileCreator 2.0

  0  0  0  0  0  0              0 V3000
M  V30 BEGIN CTAB
M  V30 COUNTS 34 38 0 0 0
M  V30 BEGIN ATOM
M  V30 1 Cl 0.0 0.0 0.0 0
M  V30 2 C -1.3121 -0.7329 0.0 0
M  V30 3 C -2.6243 0.0236 0.0 0
M  V30 4 C -1.3239 -2.2224 0.0 0
M  V30 5 F -2.6361 1.5367 0.0 0
M  V30 6 C -3.9364 -0.721 0.0 0
M  V30 7 C -2.6361 -2.9671 0.0 0
M  V30 8 C -3.9483 -2.2105 0.0 0
M  V30 9 C -5.2486 0.0354 0.0 0
M  V30 10 N -6.5608 -0.7092 0.0 0
M  V30 11 C -7.8729 0.0591 0.0 0
M  V30 12 C -6.5726 -2.1987 0.0 0
M  V30 13 C -9.1851 -0.6738 0.0 0
M  V30 14 C -7.8848 -2.9316 0.0 0
M  V30 15 C -9.1969 -2.1632 0.0 0
M  V30 16 O -10.6628 -1.7613 0.0 0
M  V30 17 C -9.5988 -3.6054 0.0 0 CFG=2
M  V30 18 C -11.0647 -3.2035 0.0 0
M  V30 19 C -8.8659 -4.894 0.0 0
M  V30 20 C -9.6343 -6.1825 0.0 0
M  V30 21 C -7.3764 -4.8821 0.0 0
M  V30 22 C -8.8896 -7.471 0.0 0
M  V30 23 C -6.6317 -6.1707 0.0 0
M  V30 24 O -9.658 -8.7595 0.0 0
M  V30 25 C -7.4001 -7.4592 0.0 0
M  V30 26 C -11.1711 -8.7477 0.0 0
M  V30 27 N -6.6672 -8.7477 0.0 0
M  V30 28 C -7.4355 -10.0362 0.0 0
M  V30 29 C -5.1777 -8.7359 0.0 0
M  V30 30 O -8.9487 -10.0244 0.0 0
M  V30 31 N -6.7026 -11.3248 0.0 0
M  V30 32 C -4.4448 -10.0244 0.0 0
M  V30 33 C -5.2131 -11.3129 0.0 0
M  V30 34 O -4.4802 -12.6015 0.0 0
M  V30 END ATOM
M  V30 BEGIN BOND
M  V30 1 1 1 2
M  V30 2 2 2 3
M  V30 3 1 2 4
M  V30 4 1 3 5
M  V30 5 1 3 6
M  V30 6 2 4 7
M  V30 7 2 6 8
M  V30 8 1 6 9
M  V30 9 1 9 10
M  V30 10 1 10 11
M  V30 11 1 10 12
M  V30 12 1 11 13
M  V30 13 1 12 14
M  V30 14 1 13 15
M  V30 15 1 15 16
M  V30 16 1 15 17
M  V30 17 1 16 18
M  V30 18 1 17 19 CFG=1
M  V30 19 2 19 20
M  V30 20 1 19 21
M  V30 21 1 20 22
M  V30 22 2 21 23
M  V30 23 1 22 24
M  V30 24 2 22 25
M  V30 25 1 24 26
M  V30 26 1 25 27
M  V30 27 1 27 28
M  V30 28 1 27 29
M  V30 29 2 28 30
M  V30 30 1 28 31
M  V30 31 1 29 32
M  V30 32 1 31 33
M  V30 33 2 33 34
M  V30 34 1 7 8
M  V30 35 1 14 15
M  V30 36 1 17 18
M  V30 37 1 23 25
M  V30 38 1 32 33
M  V30 END BOND
M  V30 BEGIN COLLECTION
M  V30 MDLV30/STERAC1 ATOMS=(1 17)
M  V30 END COLLECTION
M  V30 END CTAB
M  END
>  <ID>
EDEL-CRBN-0012

$$$$
EDEL-CRBN-0013
Actelion Java MolfileCreator 2.0

  0  0  0  0  0  0              0 V3000
M  V30 BEGIN CTAB
M  V30 COUNTS 36 40 0 0 0
M  V30 BEGIN ATOM
M  V30 1 O 0.0 0.0 0.0 0
M  V30 2 C 0.7271 -1.2585 0.0 0
M  V30 3 N -0.0279 -2.5171 0.0 0
M  V30 4 N 2.1815 -1.2445 0.0 0
M  V30 5 C -1.5102 -2.5031 0.0 0
M  V30 6 C 0.6992 -3.7756 0.0 0
M  V30 7 C 2.9086 -2.5031 0.0 0
M  V30 8 C -2.2654 -1.2166 0.0 0
M  V30 9 C -2.2654 -3.7617 0.0 0
M  V30 10 C 2.1535 -3.7617 0.0 0
M  V30 11 O 4.363 -2.4891 0.0 0
M  V30 12 O -1.5382 0.0699 0.0 0
M  V30 13 C -3.7477 -1.2026 0.0 0
M  V30 14 C -3.7477 -3.7477 0.0 0
M  V30 15 C -2.2933 1.3564 0.0 0
M  V30 16 C -4.5028 -2.4611 0.0 0
M  V30 17 C -4.7405 -4.8244 0.0 0 CFG=2
M  V30 18 C -5.9572 -2.7548 0.0 0 CFG=1
M  V30 19 N -6.097 -4.2091 0.0 0
M  V30 20 C -6.4466 -5.8872 0.0 0
M  V30 21 C -7.7471 -3.6638 0.0 0
M  V30 22 C -7.2437 -4.8524 0.0 0
M  V30 23 N -7.817 -5.188 0.0 0
M  V30 24 O -8.6701 -4.1812 0.0 0
M  V30 25 O -7.3975 -6.3907 0.0 0
M  V30 26 C -9.0197 -5.8593 0.0 0
M  V30 27 C -6.1389 -7.1178 0.0 0
M  V30 28 C -10.3062 -5.1041 0.0 0
M  V30 29 C -5.3698 -5.9012 0.0 0
M  V30 30 C -4.8804 -7.845 0.0 0
M  V30 31 C -6.8941 -8.3764 0.0 0
M  V30 32 C -11.5927 -5.8313 0.0 0
M  V30 33 C -10.3202 -3.6218 0.0 0
M  V30 34 C -12.8793 -5.0762 0.0 0
M  V30 35 C -11.6067 -2.8667 0.0 0
M  V30 36 C -12.8932 -3.5938 0.0 0
M  V30 END ATOM
M  V30 BEGIN BOND
M  V30 1 2 1 2
M  V30 2 1 2 3
M  V30 3 1 2 4
M  V30 4 1 3 5
M  V30 5 1 3 6
M  V30 6 1 4 7
M  V30 7 2 5 8
M  V30 8 1 5 9
M  V30 9 1 6 10
M  V30 10 2 7 11
M  V30 11 1 8 12
M  V30 12 1 8 13
M  V30 13 2 9 14
M  V30 14 1 12 15
M  V30 15 2 13 16
M  V30 16 1 14 17
M  V30 17 1 16 18
M  V30 18 1 17 19 CFG=3
M  V30 19 1 17 20
M  V30 20 1 18 21
M  V30 21 1 19 22
M  V30 22 1 20 23
M  V30 23 2 22 24
M  V30 24 1 22 25
M  V30 25 1 23 26
M  V30 26 1 25 27
M  V30 27 1 26 28
M  V30 28 1 27 29
M  V30 29 1 27 30
M  V30 30 1 27 31
M  V30 31 2 28 32
M  V30 32 1 28 33
M  V30 33 1 32 34
M  V30 34 2 33 35
M  V30 35 2 34 36
M  V30 36 1 7 10
M  V30 37 1 14 16
M  V30 38 1 18 19 CFG=3
M  V30 39 1 21 23
M  V30 40 1 35 36
M  V30 END BOND
M  V30 BEGIN COLLECTION
M  V30 MDLV30/STERAC1 ATOMS=(2 17 18)
M  V30 END COLLECTION
M  V30 END CTAB
M  END
>  <ID>
EDEL-CRBN-0013

$$$$
EDEL-CRBN-0014
Actelion Java MolfileCreator 2.0

  0  0  0  0  0  0              0 V3000
M  V30 BEGIN CTAB
M  V30 COUNTS 36 40 0 0 0
M  V30 BEGIN ATOM
M  V30 1 O 0.0 0.0 0.0 0
M  V30 2 C 0.7294 -1.2624 0.0 0
M  V30 3 N -0.028 -2.5248 0.0 0
M  V30 4 N 2.1882 -1.2483 0.0 0
M  V30 5 C -1.5149 -2.5108 0.0 0
M  V30 6 C 0.7013 -3.7872 0.0 0
M  V30 7 C 2.9176 -2.5108 0.0 0
M  V30 8 C -2.2723 -3.7732 0.0 0
M  V30 9 C -2.2723 -1.2203 0.0 0
M  V30 10 C 2.1601 -3.7732 0.0 0
M  V30 11 O 4.3764 -2.4967 0.0 0
M  V30 12 O -1.5429 -5.0356 0.0 0
M  V30 13 C -3.7592 -3.7592 0.0 0
M  V30 14 C -3.7592 -1.2063 0.0 0
M  V30 15 C -0.0841 -5.0216 0.0 0
M  V30 16 C -4.5166 -2.4687 0.0 0
M  V30 17 C -4.7551 -4.8392 0.0 0 CFG=1
M  V30 18 C -5.9754 -2.7633 0.0 0 CFG=2
M  V30 19 N -6.1157 -4.2221 0.0 0
M  V30 20 C -6.4664 -5.9053 0.0 0
M  V30 21 C -7.7709 -3.675 0.0 0
M  V30 22 C -7.2659 -4.8673 0.0 0
M  V30 23 N -7.841 -5.204 0.0 0
M  V30 24 O -7.4202 -6.4103 0.0 0
M  V30 25 O -8.6967 -4.194 0.0 0
M  V30 26 C -9.0473 -5.8772 0.0 0
M  V30 27 C -8.7107 -2.7072 0.0 0
M  V30 28 C -9.0614 -7.336 0.0 0
M  V30 29 C -7.294 -2.623 0.0 0
M  V30 30 C -8.7247 -1.2203 0.0 0
M  V30 31 C -10.1975 -2.6931 0.0 0
M  V30 32 C -10.3518 -8.0654 0.0 0
M  V30 33 C -7.7989 -8.0654 0.0 0
M  V30 34 C -10.3659 -9.5243 0.0 0
M  V30 35 C -7.813 -9.5243 0.0 0
M  V30 36 C -9.1034 -10.2537 0.0 0
M  V30 END ATOM
M  V30 BEGIN BOND
M  V30 1 2 1 2
M  V30 2 1 2 3
M  V30 3 1 2 4
M  V30 4 1 3 5
M  V30 5 1 3 6
M  V30 6 1 4 7
M  V30 7 2 5 8
M  V30 8 1 5 9
M  V30 9 1 6 10
M  V30 10 2 7 11
M  V30 11 1 8 12
M  V30 12 1 8 13
M  V30 13 2 9 14
M  V30 14 1 12 15
M  V30 15 2 13 16
M  V30 16 1 13 17
M  V30 17 1 16 18
M  V30 18 1 17 19 CFG=1
M  V30 19 1 17 20
M  V30 20 1 18 21
M  V30 21 1 19 22
M  V30 22 1 20 23
M  V30 23 2 22 24
M  V30 24 1 22 25
M  V30 25 1 23 26
M  V30 26 1 25 27
M  V30 27 1 26 28
M  V30 28 1 27 29
M  V30 29 1 27 30
M  V30 30 1 27 31
M  V30 31 2 28 32
M  V30 32 1 28 33
M  V30 33 1 32 34
M  V30 34 2 33 35
M  V30 35 2 34 36
M  V30 36 1 7 10
M  V30 37 1 14 16
M  V30 38 1 18 19 CFG=1
M  V30 39 1 21 23
M  V30 40 1 35 36
M  V30 END BOND
M  V30 BEGIN COLLECTION
M  V30 MDLV30/STERAC1 ATOMS=(2 17 18)
M  V30 END COLLECTION
M  V30 END CTAB
M  END
>  <ID>
EDEL-CRBN-0014

$$$$
EDEL-CRBN-0015
Actelion Java MolfileCreator 2.0

  0  0  0  0  0  0              0 V3000
M  V30 BEGIN CTAB
M  V30 COUNTS 36 40 0 0 0
M  V30 BEGIN ATOM
M  V30 1 Cl 0.0 0.0 0.0 0
M  V30 2 C -1.3122 -0.7329 0.0 0
M  V30 3 C -2.6244 0.0236 0.0 0
M  V30 4 C -1.324 -2.2224 0.0 0
M  V30 5 F -2.6362 1.5368 0.0 0
M  V30 6 C -3.9366 -0.7211 0.0 0
M  V30 7 C -2.6362 -2.9672 0.0 0
M  V30 8 C -3.9484 -2.2106 0.0 0
M  V30 9 C -5.2488 0.0354 0.0 0
M  V30 10 N -6.561 -0.7092 0.0 0
M  V30 11 C -7.8732 0.0591 0.0 0
M  V30 12 C -6.5728 -2.1988 0.0 0
M  V30 13 C -9.1854 -0.6738 0.0 0
M  V30 14 C -7.885 -2.9317 0.0 0
M  V30 15 C -9.1972 -2.1633 0.0 0
M  V30 16 O -10.6631 -1.7614 0.0 0
M  V30 17 C -9.5991 -3.6055 0.0 0 CFG=2
M  V30 18 C -11.065 -3.2036 0.0 0
M  V30 19 C -8.8662 -4.8941 0.0 0
M  V30 20 C -7.3767 -4.8823 0.0 0
M  V30 21 C -9.6346 -6.1827 0.0 0
M  V30 22 C -6.6319 -6.1708 0.0 0
M  V30 23 C -8.8898 -7.4712 0.0 0
M  V30 24 O -5.1424 -6.159 0.0 0
M  V30 25 C -7.4003 -7.4594 0.0 0
M  V30 26 O -9.6582 -8.7598 0.0 0
M  V30 27 C -4.3976 -4.8468 0.0 0
M  V30 28 N -6.6674 -8.748 0.0 0
M  V30 29 C -11.1714 -8.748 0.0 0
M  V30 30 C -7.4358 -10.0365 0.0 0
M  V30 31 C -5.1778 -8.7361 0.0 0
M  V30 32 O -8.9489 -10.0247 0.0 0
M  V30 33 N -6.7028 -11.3251 0.0 0
M  V30 34 C -4.4449 -10.0247 0.0 0
M  V30 35 C -5.2133 -11.3133 0.0 0
M  V30 36 O -4.4803 -12.6018 0.0 0
M  V30 END ATOM
M  V30 BEGIN BOND
M  V30 1 1 1 2
M  V30 2 2 2 3
M  V30 3 1 2 4
M  V30 4 1 3 5
M  V30 5 1 3 6
M  V30 6 2 4 7
M  V30 7 2 6 8
M  V30 8 1 6 9
M  V30 9 1 9 10
M  V30 10 1 10 11
M  V30 11 1 10 12
M  V30 12 1 11 13
M  V30 13 1 12 14
M  V30 14 1 13 15
M  V30 15 1 15 16
M  V30 16 1 15 17
M  V30 17 1 16 18
M  V30 18 1 17 19 CFG=1
M  V30 19 2 19 20
M  V30 20 1 19 21
M  V30 21 1 20 22
M  V30 22 2 21 23
M  V30 23 1 22 24
M  V30 24 2 22 25
M  V30 25 1 23 26
M  V30 26 1 24 27
M  V30 27 1 25 28
M  V30 28 1 26 29
M  V30 29 1 28 30
M  V30 30 1 28 31
M  V30 31 2 30 32
M  V30 32 1 30 33
M  V30 33 1 31 34
M  V30 34 1 33 35
M  V30 35 2 35 36
M  V30 36 1 7 8
M  V30 37 1 14 15
M  V30 38 1 17 18
M  V30 39 1 23 25
M  V30 40 1 34 35
M  V30 END BOND
M  V30 BEGIN COLLECTION
M  V30 MDLV30/STERAC1 ATOMS=(1 17)
M  V30 END COLLECTION
M  V30 END CTAB
M  END
>  <ID>
EDEL-CRBN-0015

$$$$
EDEL-CRBN-0016
Actelion Java MolfileCreator 2.0

  0  0  0  0  0  0              0 V3000
M  V30 BEGIN CTAB
M  V30 COUNTS 38 42 0 0 0
M  V30 BEGIN ATOM
M  V30 1 O 0.0 0.0 0.0 0
M  V30 2 C 0.7296 -1.2628 0.0 0
M  V30 3 N -0.028 -2.5257 0.0 0
M  V30 4 N 2.1889 -1.2488 0.0 0
M  V30 5 C -1.5154 -2.5116 0.0 0
M  V30 6 C 0.7015 -3.7885 0.0 0
M  V30 7 C 2.9185 -2.5116 0.0 0
M  V30 8 C -2.2731 -3.7745 0.0 0
M  V30 9 C -2.2731 -1.2207 0.0 0
M  V30 10 C 2.1608 -3.7745 0.0 0
M  V30 11 O 4.3778 -2.4976 0.0 0
M  V30 12 O -1.5434 -5.0373 0.0 0
M  V30 13 C -3.7604 -3.7604 0.0 0
M  V30 14 O -1.5434 0.0701 0.0 0
M  V30 15 C -3.7604 -1.2067 0.0 0
M  V30 16 C -0.0841 -5.0233 0.0 0
M  V30 17 C -4.5182 -2.4695 0.0 0
M  V30 18 C -4.7567 -4.8409 0.0 0 CFG=1
M  V30 19 C -2.3011 1.361 0.0 0
M  V30 20 C -5.9775 -2.7642 0.0 0 CFG=2
M  V30 21 N -6.1178 -4.2235 0.0 0
M  V30 22 C -6.4686 -5.9073 0.0 0
M  V30 23 C -7.7735 -3.6763 0.0 0
M  V30 24 C -7.2684 -4.8689 0.0 0
M  V30 25 N -7.8437 -5.2057 0.0 0
M  V30 26 O -7.4227 -6.4124 0.0 0
M  V30 27 O -8.6996 -4.1954 0.0 0
M  V30 28 C -9.0504 -5.8792 0.0 0
M  V30 29 C -8.7136 -2.7081 0.0 0
M  V30 30 C -9.0644 -7.3385 0.0 0
M  V30 31 C -7.2964 -2.6239 0.0 0
M  V30 32 C -8.7277 -1.2207 0.0 0
M  V30 33 C -10.201 -2.694 0.0 0
M  V30 34 C -10.3553 -8.0682 0.0 0
M  V30 35 C -7.8016 -8.0682 0.0 0
M  V30 36 C -10.3694 -9.5275 0.0 0
M  V30 37 C -7.8156 -9.5275 0.0 0
M  V30 38 C -9.1065 -10.2571 0.0 0
M  V30 END ATOM
M  V30 BEGIN BOND
M  V30 1 2 1 2
M  V30 2 1 2 3
M  V30 3 1 2 4
M  V30 4 1 3 5
M  V30 5 1 3 6
M  V30 6 1 4 7
M  V30 7 2 5 8
M  V30 8 1 5 9
M  V30 9 1 6 10
M  V30 10 2 7 11
M  V30 11 1 8 12
M  V30 12 1 8 13
M  V30 13 1 9 14
M  V30 14 2 9 15
M  V30 15 1 12 16
M  V30 16 2 13 17
M  V30 17 1 13 18
M  V30 18 1 14 19
M  V30 19 1 17 20
M  V30 20 1 18 21 CFG=1
M  V30 21 1 18 22
M  V30 22 1 20 23
M  V30 23 1 21 24
M  V30 24 1 22 25
M  V30 25 2 24 26
M  V30 26 1 24 27
M  V30 27 1 25 28
M  V30 28 1 27 29
M  V30 29 1 28 30
M  V30 30 1 29 31
M  V30 31 1 29 32
M  V30 32 1 29 33
M  V30 33 2 30 34
M  V30 34 1 30 35
M  V30 35 1 34 36
M  V30 36 2 35 37
M  V30 37 2 36 38
M  V30 38 1 7 10
M  V30 39 1 15 17
M  V30 40 1 20 21 CFG=1
M  V30 41 1 23 25
M  V30 42 1 37 38
M  V30 END BOND
M  V30 BEGIN COLLECTION
M  V30 MDLV30/STERAC1 ATOMS=(2 18 20)
M  V30 END COLLECTION
M  V30 END CTAB
M  END
>  <ID>
EDEL-CRBN-0016

$$$$
