Compound_1
 OpenBabel09072607053D

 66 68  0  0  0  0  0  0  0  0999 V2000
    6.2813    2.0532   -2.9488 O   0  0  0  0  0  0  0  0  0  0  0  0
    6.2733    2.0073   -1.7209 C   0  0  0  0  0  0  0  0  0  0  0  0
    5.4922    1.1686   -0.9197 N   0  0  0  0  0  0  0  0  0  0  0  0
    7.0954    2.8783   -1.0448 N   0  0  0  0  0  0  0  0  0  0  0  0
    4.6147    0.1759   -1.4806 C   0  0  0  0  0  0  0  0  0  0  0  0
    5.4390    1.4379    0.5154 C   0  0  0  0  0  0  0  0  0  0  0  0
    7.4062    2.8734    0.2856 C   0  0  0  0  0  0  0  0  0  0  0  0
    3.4650   -0.2524   -0.7943 C   0  0  0  0  0  0  0  0  0  0  0  0
    4.8798   -0.4155   -2.7231 C   0  0  0  0  0  0  0  0  0  0  0  0
    6.8082    1.7543    1.0757 C   0  0  0  0  0  0  0  0  0  0  0  0
    8.1805    3.6909    0.7737 O   0  0  0  0  0  0  0  0  0  0  0  0
    2.5977   -1.2267   -1.3271 C   0  0  0  0  0  0  0  0  0  0  0  0
    4.0345   -1.3917   -3.2609 C   0  0  0  0  0  0  0  0  0  0  0  0
    2.9002   -1.7982   -2.5659 C   0  0  0  0  0  0  0  0  0  0  0  0
    1.3662   -1.6688   -0.5593 C   0  0  0  0  0  0  0  0  0  0  0  0
    0.5169   -0.5383   -0.1297 N   0  3  2  0  0  0  0  0  0  0  0  0
   -0.3266   -0.9163    1.0469 C   0  0  2  0  0  0  0  0  0  0  0  0
   -0.2117    0.0437   -1.2671 C   0  0  0  0  0  0  0  0  0  0  0  0
   -1.2125   -2.1543    0.8327 C   0  0  0  0  0  0  0  0  0  0  0  0
   -1.1676    0.2308    1.6424 C   0  0  0  0  0  0  0  0  0  0  0  0
   -0.8005    1.4217   -0.9625 C   0  0  0  0  0  0  0  0  0  0  0  0
   -1.6218   -2.5752   -0.2423 O   0  0  0  0  0  0  0  0  0  0  0  0
   -1.4731   -2.7405    2.0398 O   0  0  0  0  0  0  0  0  0  0  0  0
   -2.3488    0.5888    0.8606 N   0  0  0  0  0  0  0  0  0  0  0  0
   -2.1990    1.3617   -0.3643 C   0  0  0  0  0  0  0  0  0  0  0  0
   -2.3808   -3.8402    1.9689 C   0  0  0  0  0  0  0  0  0  0  0  0
   -3.6004    0.1845    1.3084 C   0  0  0  0  0  0  0  0  0  0  0  0
   -3.7686   -0.5086    2.3035 O   0  0  0  0  0  0  0  0  0  0  0  0
   -4.6014    0.6427    0.5142 O   0  0  0  0  0  0  0  0  0  0  0  0
   -5.9854    0.3026    0.7819 C   0  0  0  0  0  0  0  0  0  0  0  0
   -6.7777    0.9940   -0.3384 C   0  0  0  0  0  0  0  0  0  0  0  0
   -6.2167   -1.2094    0.6820 C   0  0  0  0  0  0  0  0  0  0  0  0
   -6.4490    0.8678    2.1287 C   0  0  0  0  0  0  0  0  0  0  0  0
    7.5094    3.5904   -1.5840 H   0  0  0  0  0  0  0  0  0  0  0  0
    5.0501    0.5759    1.0159 H   0  0  0  0  0  0  0  0  0  0  0  0
    4.8093    2.2886    0.6723 H   0  0  0  0  0  0  0  0  0  0  0  0
    3.2498    0.1591    0.1273 H   0  0  0  0  0  0  0  0  0  0  0  0
    5.7165   -0.1246   -3.2526 H   0  0  0  0  0  0  0  0  0  0  0  0
    7.4343    0.8895    1.0047 H   0  0  0  0  0  0  0  0  0  0  0  0
    6.7229    2.0403    2.1032 H   0  0  0  0  0  0  0  0  0  0  0  0
    4.2534   -1.8123   -4.1775 H   0  0  0  0  0  0  0  0  0  0  0  0
    2.2821   -2.5218   -2.9651 H   0  0  0  0  0  0  0  0  0  0  0  0
    1.6814   -2.2079    0.3096 H   0  0  0  0  0  0  0  0  0  0  0  0
    0.7807   -2.2774   -1.2164 H   0  0  0  0  0  0  0  0  0  0  0  0
    1.1081    0.2207    0.2092 H   0  0  0  0  0  0  0  0  0  0  0  0
    0.4202   -1.1723    1.7691 H   0  0  0  0  0  0  0  0  0  0  0  0
   -1.0107   -0.6165   -1.5331 H   0  0  0  0  0  0  0  0  0  0  0  0
    0.4901    0.1667   -2.0654 H   0  0  0  0  0  0  0  0  0  0  0  0
   -0.5437    1.0966    1.7197 H   0  0  0  0  0  0  0  0  0  0  0  0
   -1.5247   -0.1154    2.5898 H   0  0  0  0  0  0  0  0  0  0  0  0
   -0.8449    1.9807   -1.8738 H   0  0  0  0  0  0  0  0  0  0  0  0
   -0.1652    1.8835   -0.2358 H   0  0  0  0  0  0  0  0  0  0  0  0
   -2.8490    0.9352   -1.0994 H   0  0  0  0  0  0  0  0  0  0  0  0
   -2.4349    2.3697   -0.0939 H   0  0  0  0  0  0  0  0  0  0  0  0
   -2.5318   -4.2418    2.9491 H   0  0  0  0  0  0  0  0  0  0  0  0
   -1.9743   -4.5977    1.3319 H   0  0  0  0  0  0  0  0  0  0  0  0
   -3.3166   -3.5053    1.5726 H   0  0  0  0  0  0  0  0  0  0  0  0
   -6.4646    0.6092   -1.2865 H   0  0  0  0  0  0  0  0  0  0  0  0
   -6.5977    2.0482   -0.3043 H   0  0  0  0  0  0  0  0  0  0  0  0
   -7.8225    0.8061   -0.2046 H   0  0  0  0  0  0  0  0  0  0  0  0
   -5.8796   -1.5596   -0.2712 H   0  0  0  0  0  0  0  0  0  0  0  0
   -7.2605   -1.4184    0.7900 H   0  0  0  0  0  0  0  0  0  0  0  0
   -5.6715   -1.7056    1.4575 H   0  0  0  0  0  0  0  0  0  0  0  0
   -6.2690    1.9223    2.1539 H   0  0  0  0  0  0  0  0  0  0  0  0
   -5.9063    0.3943    2.9200 H   0  0  0  0  0  0  0  0  0  0  0  0
   -7.4954    0.6815    2.2525 H   0  0  0  0  0  0  0  0  0  0  0  0
  1  2  2  0  0  0  0
  2  3  1  0  0  0  0
  2  4  1  0  0  0  0
  3  5  1  0  0  0  0
  3  6  1  0  0  0  0
  4  7  1  0  0  0  0
  4 34  1  0  0  0  0
  5  8  2  0  0  0  0
  5  9  1  0  0  0  0
  6 10  1  0  0  0  0
  6 35  1  0  0  0  0
  6 36  1  0  0  0  0
  7 11  2  0  0  0  0
  7 10  1  0  0  0  0
  8 12  1  0  0  0  0
  8 37  1  0  0  0  0
  9 13  2  0  0  0  0
  9 38  1  0  0  0  0
 10 39  1  0  0  0  0
 10 40  1  0  0  0  0
 12 14  2  0  0  0  0
 12 15  1  0  0  0  0
 13 14  1  0  0  0  0
 13 41  1  0  0  0  0
 14 42  1  0  0  0  0
 15 16  1  0  0  0  0
 15 43  1  0  0  0  0
 15 44  1  0  0  0  0
 16 17  1  0  0  0  0
 16 18  1  0  0  0  0
 16 45  1  1  0  0  0
 17 19  1  0  0  0  0
 17 20  1  0  0  0  0
 17 46  1  1  0  0  0
 18 21  1  0  0  0  0
 18 47  1  0  0  0  0
 18 48  1  0  0  0  0
 19 22  2  0  0  0  0
 19 23  1  0  0  0  0
 20 24  1  0  0  0  0
 20 49  1  0  0  0  0
 20 50  1  0  0  0  0
 21 25  1  0  0  0  0
 21 51  1  0  0  0  0
 21 52  1  0  0  0  0
 23 26  1  0  0  0  0
 24 27  1  0  0  0  0
 24 25  1  0  0  0  0
 25 53  1  0  0  0  0
 25 54  1  0  0  0  0
 26 55  1  0  0  0  0
 26 56  1  0  0  0  0
 26 57  1  0  0  0  0
 27 28  2  0  0  0  0
 27 29  1  0  0  0  0
 29 30  1  0  0  0  0
 30 31  1  0  0  0  0
 30 32  1  0  0  0  0
 30 33  1  0  0  0  0
 31 58  1  0  0  0  0
 31 59  1  0  0  0  0
 31 60  1  0  0  0  0
 32 61  1  0  0  0  0
 32 62  1  0  0  0  0
 32 63  1  0  0  0  0
 33 64  1  0  0  0  0
 33 65  1  0  0  0  0
 33 66  1  0  0  0  0
M  CHG  1  16   1
M  END
>  <Molecule Name>
Compound 1

>  <EC50 (µM) (Excel)>
49.5

>  <Error (µM)>
6.2

>  <HTRC CRBN-DDB1 EC50 (µM)>
49.46 ±  6.19

>  <EC50 fitting (µM)>
60.01

>  <Modèle Fitting>
3PL

>  <Parent_Compound>
Compound 1

>  <MMFF94s_energy_kcalmol>
-54.878

$$$$
Compound_4
 OpenBabel09072607053D

 51 54  0  0  0  0  0  0  0  0999 V2000
    4.4673   -0.0466   -2.4034 O   0  0  0  0  0  0  0  0  0  0  0  0
    5.0192   -0.3431   -1.3462 C   0  0  0  0  0  0  0  0  0  0  0  0
    4.4630   -0.2557   -0.0662 N   0  0  0  0  0  0  0  0  0  0  0  0
    6.3201   -0.7844   -1.4002 N   0  0  0  0  0  0  0  0  0  0  0  0
    3.0954    0.1379    0.1434 C   0  0  0  0  0  0  0  0  0  0  0  0
    5.3508   -0.4020    1.0847 C   0  0  0  0  0  0  0  0  0  0  0  0
    7.0537   -1.3491   -0.3951 C   0  0  0  0  0  0  0  0  0  0  0  0
    2.1137   -0.1343   -0.8255 C   0  0  0  0  0  0  0  0  0  0  0  0
    2.7046    0.7998    1.3407 C   0  0  0  0  0  0  0  0  0  0  0  0
    6.3240   -1.5448    0.8954 C   0  0  0  0  0  0  0  0  0  0  0  0
    8.2067   -1.7307   -0.5701 O   0  0  0  0  0  0  0  0  0  0  0  0
    0.8125    0.2504   -0.5730 C   0  0  0  0  0  0  0  0  0  0  0  0
    1.3810    1.1950    1.5868 C   0  0  0  0  0  0  0  0  0  0  0  0
    0.4497    0.9091    0.6201 C   0  0  0  0  0  0  0  0  0  0  0  0
   -0.4522    0.1365   -1.3926 C   0  0  1  0  0  0  0  0  0  0  0  0
   -1.0299    1.1977    0.5058 C   0  0  2  0  0  0  0  0  0  0  0  0
   -1.4196    0.0571   -0.3115 N   0  0  0  0  0  0  0  0  0  0  0  0
   -0.7945    1.5665   -1.9076 C   0  0  2  0  0  0  0  0  0  0  0  0
   -1.1794    2.3226   -0.5671 C   0  0  1  0  0  0  0  0  0  0  0  0
   -2.6538   -0.5020   -0.4036 C   0  0  0  0  0  0  0  0  0  0  0  0
   -1.9088    1.5876   -2.8139 O   0  0  0  0  0  0  0  0  0  0  0  0
   -2.5184    2.8227   -0.6266 O   0  0  0  0  0  0  0  0  0  0  0  0
   -3.0262   -1.1039   -1.4022 O   0  0  0  0  0  0  0  0  0  0  0  0
   -3.3929   -0.2709    0.7052 O   0  0  0  0  0  0  0  0  0  0  0  0
   -4.7688   -0.7188    0.7922 C   0  0  0  0  0  0  0  0  0  0  0  0
   -5.2413   -0.2573    2.1792 C   0  0  0  0  0  0  0  0  0  0  0  0
   -4.8635   -2.2467    0.7253 C   0  0  0  0  0  0  0  0  0  0  0  0
   -5.6398   -0.0420   -0.2719 C   0  0  0  0  0  0  0  0  0  0  0  0
    6.7775   -0.6813   -2.2659 H   0  0  0  0  0  0  0  0  0  0  0  0
    4.7604   -0.5896    1.9571 H   0  0  0  0  0  0  0  0  0  0  0  0
    5.9129    0.5022    1.1910 H   0  0  0  0  0  0  0  0  0  0  0  0
    2.3607   -0.6115   -1.7066 H   0  0  0  0  0  0  0  0  0  0  0  0
    3.4223    0.9968    2.0556 H   0  0  0  0  0  0  0  0  0  0  0  0
    5.7896   -2.4714    0.8692 H   0  0  0  0  0  0  0  0  0  0  0  0
    7.0210   -1.5664    1.7070 H   0  0  0  0  0  0  0  0  0  0  0  0
    1.1186    1.6806    2.4588 H   0  0  0  0  0  0  0  0  0  0  0  0
   -0.4133   -0.6127   -2.1556 H   0  0  0  0  0  0  0  0  0  0  0  0
   -1.5182    1.3991    1.4363 H   0  0  0  0  0  0  0  0  0  0  0  0
    0.0143    1.9985   -2.4591 H   0  0  0  0  0  0  0  0  0  0  0  0
   -0.5738    3.1812   -0.3649 H   0  0  0  0  0  0  0  0  0  0  0  0
   -2.6873    1.2069   -2.3781 H   0  0  0  0  0  0  0  0  0  0  0  0
   -3.1289    2.0913   -0.8088 H   0  0  0  0  0  0  0  0  0  0  0  0
   -4.6414   -0.7224    2.9333 H   0  0  0  0  0  0  0  0  0  0  0  0
   -6.2656   -0.5339    2.3173 H   0  0  0  0  0  0  0  0  0  0  0  0
   -5.1459    0.8059    2.2530 H   0  0  0  0  0  0  0  0  0  0  0  0
   -4.2419   -2.6761    1.4830 H   0  0  0  0  0  0  0  0  0  0  0  0
   -4.5368   -2.5825   -0.2367 H   0  0  0  0  0  0  0  0  0  0  0  0
   -5.8779   -2.5484    0.8828 H   0  0  0  0  0  0  0  0  0  0  0  0
   -5.5434    1.0204   -0.1888 H   0  0  0  0  0  0  0  0  0  0  0  0
   -6.6626   -0.3199   -0.1252 H   0  0  0  0  0  0  0  0  0  0  0  0
   -5.3215   -0.3540   -1.2446 H   0  0  0  0  0  0  0  0  0  0  0  0
  1  2  2  0  0  0  0
  2  3  1  0  0  0  0
  2  4  1  0  0  0  0
  3  5  1  0  0  0  0
  3  6  1  0  0  0  0
  4  7  1  0  0  0  0
  4 29  1  0  0  0  0
  5  8  2  0  0  0  0
  5  9  1  0  0  0  0
  6 10  1  0  0  0  0
  6 30  1  0  0  0  0
  6 31  1  0  0  0  0
  7 11  2  0  0  0  0
  7 10  1  0  0  0  0
  8 12  1  0  0  0  0
  8 32  1  0  0  0  0
  9 13  2  0  0  0  0
  9 33  1  0  0  0  0
 10 34  1  0  0  0  0
 10 35  1  0  0  0  0
 12 14  2  0  0  0  0
 13 14  1  0  0  0  0
 13 36  1  0  0  0  0
 15 12  1  0  0  0  0
 15 17  1  0  0  0  0
 15 18  1  0  0  0  0
 15 37  1  6  0  0  0
 16 14  1  0  0  0  0
 16 19  1  0  0  0  0
 16 17  1  0  0  0  0
 16 38  1  1  0  0  0
 17 20  1  0  0  0  0
 18 21  1  0  0  0  0
 18 19  1  0  0  0  0
 18 39  1  6  0  0  0
 19 22  1  0  0  0  0
 19 40  1  1  0  0  0
 20 23  2  0  0  0  0
 20 24  1  0  0  0  0
 21 41  1  0  0  0  0
 22 42  1  0  0  0  0
 24 25  1  0  0  0  0
 25 26  1  0  0  0  0
 25 27  1  0  0  0  0
 25 28  1  0  0  0  0
 26 43  1  0  0  0  0
 26 44  1  0  0  0  0
 26 45  1  0  0  0  0
 27 46  1  0  0  0  0
 27 47  1  0  0  0  0
 27 48  1  0  0  0  0
 28 49  1  0  0  0  0
 28 50  1  0  0  0  0
 28 51  1  0  0  0  0
M  END
>  <Molecule Name>
Compound 4

>  <EC50 (µM) (Excel)>
11.8

>  <Error (µM)>
7.4

>  <HTRC CRBN-DDB1 EC50 (µM)>
11.78 ±  7.41

>  <EC50 fitting (µM)>
15.10

>  <Modèle Fitting>
4PL

>  <Parent_Compound>
Compound 4

>  <MMFF94s_energy_kcalmol>
-18.726

$$$$
Compound_7
 OpenBabel09072607053D

 64 66  0  0  0  0  0  0  0  0999 V2000
   -0.5807   -0.0846    2.3731 S   0  0  0  0  0  0  0  0  0  0  0  0
   -0.3936    0.8638    3.4497 O   0  0  0  0  0  0  0  0  0  0  0  0
    0.3436   -1.1870    2.2005 O   0  0  0  0  0  0  0  0  0  0  0  0
   -0.6229    0.7575    0.9238 N   0  0  0  0  0  0  0  0  0  0  0  0
   -2.2180   -0.7838    2.4924 C   0  0  0  0  0  0  0  0  0  0  0  0
   -1.2028    2.1277    0.8467 C   0  0  0  0  0  0  0  0  0  0  0  0
   -0.7135   -0.0226   -0.3285 C   0  0  0  0  0  0  0  0  0  0  0  0
   -3.2777    0.2628    2.7584 C   0  0  0  0  0  0  0  0  0  0  0  0
   -2.4614    2.3611    1.6953 C   0  0  0  0  0  0  0  0  0  0  0  0
    0.3597    0.3698   -1.3169 C   0  0  0  0  0  0  0  0  0  0  0  0
   -3.3946    1.2375    1.6777 N   0  0  0  0  0  0  0  0  0  0  0  0
    1.7139    0.1892   -0.9858 C   0  0  0  0  0  0  0  0  0  0  0  0
    0.0277    0.9208   -2.5619 C   0  0  0  0  0  0  0  0  0  0  0  0
   -4.1860    1.0485    0.5590 C   0  0  0  0  0  0  0  0  0  0  0  0
    2.7216    0.5494   -1.8889 C   0  0  0  0  0  0  0  0  0  0  0  0
    1.0299    1.2939   -3.4582 C   0  0  0  0  0  0  0  0  0  0  0  0
   -4.1940    1.8180   -0.3922 O   0  0  0  0  0  0  0  0  0  0  0  0
   -4.8927   -0.1064    0.6271 O   0  0  0  0  0  0  0  0  0  0  0  0
    4.1669    0.3825   -1.5709 C   0  0  0  0  0  0  0  0  0  0  0  0
    2.3722    1.1131   -3.1217 C   0  0  0  0  0  0  0  0  0  0  0  0
   -5.7556   -0.5220   -0.4630 C   0  0  0  0  0  0  0  0  0  0  0  0
    5.0094    1.0825   -2.1222 O   0  0  0  0  0  0  0  0  0  0  0  0
    4.4933   -0.6038   -0.6683 N   0  0  0  0  0  0  0  0  0  0  0  0
   -4.9476   -0.7816   -1.7394 C   0  0  0  0  0  0  0  0  0  0  0  0
   -6.3641   -1.8509    0.0104 C   0  0  0  0  0  0  0  0  0  0  0  0
   -6.8900    0.4819   -0.6933 C   0  0  0  0  0  0  0  0  0  0  0  0
    5.8749   -0.8812   -0.3066 C   0  0  2  0  0  0  0  0  0  0  0  0
    5.9401   -2.2417    0.3964 C   0  0  0  0  0  0  0  0  0  0  0  0
    6.4512    0.1894    0.6160 C   0  0  0  0  0  0  0  0  0  0  0  0
    5.1095   -3.1307    0.2107 O   0  0  0  0  0  0  0  0  0  0  0  0
    7.0163   -2.4470    1.2254 N   0  0  0  0  0  0  0  0  0  0  0  0
    7.8865   -0.1658    0.9705 C   0  0  0  0  0  0  0  0  0  0  0  0
    7.9830   -1.5423    1.5844 C   0  0  0  0  0  0  0  0  0  0  0  0
    8.9025   -1.8655    2.3310 O   0  0  0  0  0  0  0  0  0  0  0  0
   -2.2299   -1.4949    3.2918 H   0  0  0  0  0  0  0  0  0  0  0  0
   -2.4441   -1.2436    1.5530 H   0  0  0  0  0  0  0  0  0  0  0  0
   -1.4532    2.3228   -0.1751 H   0  0  0  0  0  0  0  0  0  0  0  0
   -0.4564    2.7854    1.2407 H   0  0  0  0  0  0  0  0  0  0  0  0
   -1.6718    0.1473   -0.7731 H   0  0  0  0  0  0  0  0  0  0  0  0
   -0.5781   -1.0558   -0.0855 H   0  0  0  0  0  0  0  0  0  0  0  0
   -3.0275    0.7810    3.6605 H   0  0  0  0  0  0  0  0  0  0  0  0
   -4.2171   -0.2432    2.8386 H   0  0  0  0  0  0  0  0  0  0  0  0
   -2.9667    3.2265    1.3202 H   0  0  0  0  0  0  0  0  0  0  0  0
   -2.1388    2.4855    2.7079 H   0  0  0  0  0  0  0  0  0  0  0  0
    1.9675   -0.2122   -0.0695 H   0  0  0  0  0  0  0  0  0  0  0  0
   -0.9636    1.0514   -2.8173 H   0  0  0  0  0  0  0  0  0  0  0  0
    0.7782    1.7041   -4.3711 H   0  0  0  0  0  0  0  0  0  0  0  0
    3.1106    1.3963   -3.7847 H   0  0  0  0  0  0  0  0  0  0  0  0
    3.7737   -1.1351   -0.2570 H   0  0  0  0  0  0  0  0  0  0  0  0
   -4.1694   -1.4860   -1.5318 H   0  0  0  0  0  0  0  0  0  0  0  0
   -4.5163    0.1360   -2.0813 H   0  0  0  0  0  0  0  0  0  0  0  0
   -5.5931   -1.1760   -2.4961 H   0  0  0  0  0  0  0  0  0  0  0  0
   -5.5822   -2.5625    0.1754 H   0  0  0  0  0  0  0  0  0  0  0  0
   -7.0332   -2.2231   -0.7370 H   0  0  0  0  0  0  0  0  0  0  0  0
   -6.9007   -1.6926    0.9225 H   0  0  0  0  0  0  0  0  0  0  0  0
   -6.4803    1.4134   -1.0238 H   0  0  0  0  0  0  0  0  0  0  0  0
   -7.4247    0.6319    0.2213 H   0  0  0  0  0  0  0  0  0  0  0  0
   -7.5572    0.1014   -1.4382 H   0  0  0  0  0  0  0  0  0  0  0  0
    6.4581   -0.8862   -1.2037 H   0  0  0  0  0  0  0  0  0  0  0  0
    5.8657    0.2425    1.5100 H   0  0  0  0  0  0  0  0  0  0  0  0
    6.4306    1.1369    0.1192 H   0  0  0  0  0  0  0  0  0  0  0  0
    7.1041   -3.3503    1.6070 H   0  0  0  0  0  0  0  0  0  0  0  0
    8.2596    0.5532    1.6696 H   0  0  0  0  0  0  0  0  0  0  0  0
    8.4650   -0.1594    0.0704 H   0  0  0  0  0  0  0  0  0  0  0  0
  1  2  2  0  0  0  0
  1  3  2  0  0  0  0
  1  4  1  0  0  0  0
  1  5  1  0  0  0  0
  4  6  1  0  0  0  0
  4  7  1  0  0  0  0
  5  8  1  0  0  0  0
  5 35  1  0  0  0  0
  5 36  1  0  0  0  0
  6  9  1  0  0  0  0
  6 37  1  0  0  0  0
  6 38  1  0  0  0  0
  7 10  1  0  0  0  0
  7 39  1  0  0  0  0
  7 40  1  0  0  0  0
  8 11  1  0  0  0  0
  8 41  1  0  0  0  0
  8 42  1  0  0  0  0
  9 11  1  0  0  0  0
  9 43  1  0  0  0  0
  9 44  1  0  0  0  0
 10 12  2  0  0  0  0
 10 13  1  0  0  0  0
 11 14  1  0  0  0  0
 12 15  1  0  0  0  0
 12 45  1  0  0  0  0
 13 16  2  0  0  0  0
 13 46  1  0  0  0  0
 14 17  2  0  0  0  0
 14 18  1  0  0  0  0
 15 19  1  0  0  0  0
 15 20  2  0  0  0  0
 16 20  1  0  0  0  0
 16 47  1  0  0  0  0
 18 21  1  0  0  0  0
 19 22  2  0  0  0  0
 19 23  1  0  0  0  0
 20 48  1  0  0  0  0
 21 24  1  0  0  0  0
 21 25  1  0  0  0  0
 21 26  1  0  0  0  0
 23 49  1  0  0  0  0
 24 50  1  0  0  0  0
 24 51  1  0  0  0  0
 24 52  1  0  0  0  0
 25 53  1  0  0  0  0
 25 54  1  0  0  0  0
 25 55  1  0  0  0  0
 26 56  1  0  0  0  0
 26 57  1  0  0  0  0
 26 58  1  0  0  0  0
 27 23  1  0  0  0  0
 27 28  1  0  0  0  0
 27 29  1  0  0  0  0
 27 59  1  6  0  0  0
 28 30  2  0  0  0  0
 28 31  1  0  0  0  0
 29 32  1  0  0  0  0
 29 60  1  0  0  0  0
 29 61  1  0  0  0  0
 31 33  1  0  0  0  0
 31 62  1  0  0  0  0
 32 33  1  0  0  0  0
 32 63  1  0  0  0  0
 32 64  1  0  0  0  0
 33 34  2  0  0  0  0
M  END
>  <Molecule Name>
Compound 7

>  <EC50 (µM) (Excel)>
4.1

>  <Error (µM)>
0.2

>  <HTRC CRBN-DDB1 EC50 (µM)>
4.06 ±  0.18

>  <EC50 fitting (µM)>
3.77

>  <Modèle Fitting>
4PL

>  <Parent_Compound>
Compound 7

>  <MMFF94s_energy_kcalmol>
-112.931

$$$$
Compound_8
 OpenBabel09072607053D

 52 53  0  0  0  0  0  0  0  0999 V2000
    0.6828    0.0000    0.0000 Cl  0  0  0  0  0  0  0  0  0  0  0  0
    4.2003   -0.0327    1.3601 S   0  0  0  0  0  0  0  0  0  0  0  0
    4.6882   -1.1433    2.2747 O   0  0  0  0  0  0  0  0  0  0  0  0
    3.6068    1.0756    2.1520 O   0  0  0  0  0  0  0  0  0  0  0  0
    3.0631   -0.6171    0.2329 N   0  0  0  0  0  0  0  0  0  0  0  0
    5.5975    0.6216    0.4354 C   0  0  0  0  0  0  0  0  0  0  0  0
    3.5173   -1.7227   -0.5512 C   0  0  0  0  0  0  0  0  0  0  0  0
    2.5968    0.4274   -0.6253 C   0  0  0  0  0  0  0  0  0  0  0  0
    6.0742   -0.4758   -0.5206 C   0  0  0  0  0  0  0  0  0  0  0  0
    4.7211   -2.4431   -0.0348 C   0  0  0  0  0  0  0  0  0  0  0  0
    1.3204    1.0080   -0.1610 C   0  0  0  0  0  0  0  0  0  0  0  0
    5.8861   -1.7075    0.1412 N   0  3  0  0  0  0  0  0  0  0  0  0
    0.1605    0.3091   -0.5194 C   0  0  0  0  0  0  0  0  0  0  0  0
    1.1590    2.1464    0.5490 C   0  0  0  0  0  0  0  0  0  0  0  0
   -1.0957    0.7541   -0.1677 C   0  0  0  0  0  0  0  0  0  0  0  0
   -0.0858    2.6201    0.9180 C   0  0  0  0  0  0  0  0  0  0  0  0
   -2.2687   -0.0096   -0.5653 C   0  0  0  0  0  0  0  0  0  0  0  0
   -1.2165    1.9202    0.5576 C   0  0  0  0  0  0  0  0  0  0  0  0
   -2.0970   -1.0755   -1.2315 O   0  0  0  0  0  0  0  0  0  0  0  0
   -3.5855    0.3557   -0.2597 N   0  0  0  0  0  0  0  0  0  0  0  0
   -4.7538   -0.4270   -0.6693 C   0  0  2  0  0  0  0  0  0  0  0  0
   -5.6281    0.3835   -1.5531 C   0  0  0  0  0  0  0  0  0  0  0  0
   -5.4485   -0.9155    0.5591 C   0  0  0  0  0  0  0  0  0  0  0  0
   -5.2635    0.5680   -2.7457 O   0  0  0  0  0  0  0  0  0  0  0  0
   -6.8504    0.9633   -1.1356 N   0  0  0  0  0  0  0  0  0  0  0  0
   -6.2182    0.2516    1.1627 C   0  0  0  0  0  0  0  0  0  0  0  0
   -7.2211    0.7973    0.2348 C   0  0  0  0  0  0  0  0  0  0  0  0
   -8.3849    1.1272    0.5711 O   0  0  0  0  0  0  0  0  0  0  0  0
    1.9108    0.0000    0.0000 H   0  0  0  0  0  0  0  0  0  0  0  0
    6.3866    0.8887    1.1069 H   0  0  0  0  0  0  0  0  0  0  0  0
    5.3110    1.4967   -0.1097 H   0  0  0  0  0  0  0  0  0  0  0  0
    3.7498   -1.3565   -1.5293 H   0  0  0  0  0  0  0  0  0  0  0  0
    2.7218   -2.4380   -0.5284 H   0  0  0  0  0  0  0  0  0  0  0  0
    2.4556    0.0279   -1.6078 H   0  0  0  0  0  0  0  0  0  0  0  0
    3.3307    1.2060   -0.6211 H   0  0  0  0  0  0  0  0  0  0  0  0
    7.1095   -0.3373   -0.7525 H   0  0  0  0  0  0  0  0  0  0  0  0
    5.5261   -0.4475   -1.4392 H   0  0  0  0  0  0  0  0  0  0  0  0
    4.9418   -3.2317   -0.7235 H   0  0  0  0  0  0  0  0  0  0  0  0
    4.4471   -2.7568    0.9508 H   0  0  0  0  0  0  0  0  0  0  0  0
    5.9590   -1.5142    1.1401 H   0  0  0  0  0  0  0  0  0  0  0  0
    6.5946   -2.3031   -0.2874 H   0  0  0  0  0  0  0  0  0  0  0  0
    0.2491   -0.5640   -1.0624 H   0  0  0  0  0  0  0  0  0  0  0  0
    1.9965    2.6820    0.8260 H   0  0  0  0  0  0  0  0  0  0  0  0
   -0.1680    3.4939    1.4609 H   0  0  0  0  0  0  0  0  0  0  0  0
   -2.1496    2.2673    0.8294 H   0  0  0  0  0  0  0  0  0  0  0  0
   -3.7336    1.1807    0.2568 H   0  0  0  0  0  0  0  0  0  0  0  0
   -4.4627   -1.2814   -1.2439 H   0  0  0  0  0  0  0  0  0  0  0  0
   -4.7287   -1.2781    1.2629 H   0  0  0  0  0  0  0  0  0  0  0  0
   -6.1175   -1.7138    0.3141 H   0  0  0  0  0  0  0  0  0  0  0  0
   -7.4221    1.4608   -1.7640 H   0  0  0  0  0  0  0  0  0  0  0  0
   -5.5254    1.0268    1.4157 H   0  0  0  0  0  0  0  0  0  0  0  0
   -6.7341   -0.1086    2.0282 H   0  0  0  0  0  0  0  0  0  0  0  0
  1 29  1  0  0  0  0
  2  3  2  0  0  0  0
  2  4  2  0  0  0  0
  2  5  1  0  0  0  0
  2  6  1  0  0  0  0
  5  7  1  0  0  0  0
  5  8  1  0  0  0  0
  6  9  1  0  0  0  0
  6 30  1  0  0  0  0
  6 31  1  0  0  0  0
  7 10  1  0  0  0  0
  7 32  1  0  0  0  0
  7 33  1  0  0  0  0
  8 11  1  0  0  0  0
  8 34  1  0  0  0  0
  8 35  1  0  0  0  0
  9 12  1  0  0  0  0
  9 36  1  0  0  0  0
  9 37  1  0  0  0  0
 10 12  1  0  0  0  0
 10 38  1  0  0  0  0
 10 39  1  0  0  0  0
 11 13  2  0  0  0  0
 11 14  1  0  0  0  0
 12 40  1  0  0  0  0
 12 41  1  0  0  0  0
 13 15  1  0  0  0  0
 13 42  1  0  0  0  0
 14 16  2  0  0  0  0
 14 43  1  0  0  0  0
 15 17  1  0  0  0  0
 15 18  2  0  0  0  0
 16 18  1  0  0  0  0
 16 44  1  0  0  0  0
 17 19  2  0  0  0  0
 17 20  1  0  0  0  0
 18 45  1  0  0  0  0
 20 46  1  0  0  0  0
 21 20  1  0  0  0  0
 21 22  1  0  0  0  0
 21 23  1  0  0  0  0
 21 47  1  6  0  0  0
 22 24  2  0  0  0  0
 22 25  1  0  0  0  0
 23 26  1  0  0  0  0
 23 48  1  0  0  0  0
 23 49  1  0  0  0  0
 25 27  1  0  0  0  0
 25 50  1  0  0  0  0
 26 27  1  0  0  0  0
 26 51  1  0  0  0  0
 26 52  1  0  0  0  0
 27 28  2  0  0  0  0
M  CHG  1  12   1
M  END
>  <Molecule Name>
Compound 8

>  <EC50 (µM) (Excel)>
6.8

>  <Error (µM)>
1.0

>  <HTRC CRBN-DDB1 EC50 (µM)>
6.77 ±  1.02

>  <EC50 fitting (µM)>
7.19

>  <Modèle Fitting>
4PL

>  <Parent_Compound>
Compound 8

>  <MMFF94s_energy_kcalmol>
-1.000

$$$$
Compound_9
 OpenBabel09072607053D

 63 65  0  0  0  0  0  0  0  0999 V2000
    2.1675   -1.0350    3.4674 S   0  0  0  0  0  0  0  0  0  0  0  0
    1.4350   -1.2397    4.6982 O   0  0  0  0  0  0  0  0  0  0  0  0
    3.6079   -1.1721    3.4313 O   0  0  0  0  0  0  0  0  0  0  0  0
    1.7674    0.4720    2.8477 N   0  0  0  0  0  0  0  0  0  0  0  0
    1.4600   -2.1127    2.2429 C   0  0  0  0  0  0  0  0  0  0  0  0
    2.6834    1.1550    1.9055 C   0  0  0  0  0  0  0  0  0  0  0  0
    0.7267    1.2842    3.4968 C   0  0  0  0  0  0  0  0  0  0  0  0
    2.1762   -2.0203    0.9116 C   0  0  0  0  0  0  0  0  0  0  0  0
    3.1329    0.2738    0.7222 C   0  0  0  0  0  0  0  0  0  0  0  0
   -0.3183    1.8033    2.5299 C   0  0  0  0  0  0  0  0  0  0  0  0
    2.1175   -0.6963    0.2892 N   0  0  0  0  0  0  0  0  0  0  0  0
   -1.2030    0.9174    1.8928 C   0  0  0  0  0  0  0  0  0  0  0  0
   -0.4342    3.1777    2.2724 C   0  0  0  0  0  0  0  0  0  0  0  0
    1.0312   -0.3773   -0.5120 C   0  0  0  0  0  0  0  0  0  0  0  0
   -2.1771    1.3987    1.0079 C   0  0  0  0  0  0  0  0  0  0  0  0
   -1.4163    3.6593    1.4042 C   0  0  0  0  0  0  0  0  0  0  0  0
    0.0657   -1.1445   -0.6130 O   0  0  0  0  0  0  0  0  0  0  0  0
    1.0211    0.9605   -1.2671 C   0  0  0  0  0  0  0  0  0  0  0  0
   -3.1176    0.4826    0.3116 C   0  0  0  0  0  0  0  0  0  0  0  0
   -2.2908    2.7726    0.7771 C   0  0  0  0  0  0  0  0  0  0  0  0
    2.0066    0.9665   -2.3699 N   0  3  0  0  0  0  0  0  0  0  0  0
   -4.2753    0.8240    0.1047 O   0  0  0  0  0  0  0  0  0  0  0  0
   -2.5862   -0.7082   -0.1192 N   0  0  0  0  0  0  0  0  0  0  0  0
    1.6652   -0.0323   -3.3914 C   0  0  0  0  0  0  0  0  0  0  0  0
    2.0563    2.2967   -2.9805 C   0  0  0  0  0  0  0  0  0  0  0  0
   -3.3781   -1.7166   -0.8089 C   0  0  2  0  0  0  0  0  0  0  0  0
   -2.5831   -3.0277   -0.8098 C   0  0  0  0  0  0  0  0  0  0  0  0
   -3.7333   -1.3165   -2.2397 C   0  0  0  0  0  0  0  0  0  0  0  0
   -2.4644   -3.7372    0.1891 O   0  0  0  0  0  0  0  0  0  0  0  0
   -1.8586   -3.3065   -1.9460 N   0  0  0  0  0  0  0  0  0  0  0  0
   -2.4841   -1.2329   -3.1018 C   0  0  0  0  0  0  0  0  0  0  0  0
   -1.6953   -2.5181   -3.0564 C   0  0  0  0  0  0  0  0  0  0  0  0
   -0.9040   -2.8281   -3.9442 O   0  0  0  0  0  0  0  0  0  0  0  0
    0.4339   -1.8449    2.1007 H   0  0  0  0  0  0  0  0  0  0  0  0
    1.5566   -3.1178    2.5970 H   0  0  0  0  0  0  0  0  0  0  0  0
    3.5540    1.4634    2.4458 H   0  0  0  0  0  0  0  0  0  0  0  0
    2.1437    1.9806    1.4908 H   0  0  0  0  0  0  0  0  0  0  0  0
    1.1955    2.1207    3.9715 H   0  0  0  0  0  0  0  0  0  0  0  0
    0.2233    0.6525    4.1985 H   0  0  0  0  0  0  0  0  0  0  0  0
    1.7314   -2.7261    0.2416 H   0  0  0  0  0  0  0  0  0  0  0  0
    3.2089   -2.2245    1.1032 H   0  0  0  0  0  0  0  0  0  0  0  0
    4.0104   -0.2637    1.0155 H   0  0  0  0  0  0  0  0  0  0  0  0
    3.3127    0.9285   -0.1048 H   0  0  0  0  0  0  0  0  0  0  0  0
   -1.1350   -0.0956    2.0779 H   0  0  0  0  0  0  0  0  0  0  0  0
    0.2128    3.8393    2.7292 H   0  0  0  0  0  0  0  0  0  0  0  0
   -1.4949    4.6728    1.2265 H   0  0  0  0  0  0  0  0  0  0  0  0
    1.2597    1.7479   -0.5830 H   0  0  0  0  0  0  0  0  0  0  0  0
    0.0468    1.1028   -1.6860 H   0  0  0  0  0  0  0  0  0  0  0  0
   -3.0218    3.1306    0.1427 H   0  0  0  0  0  0  0  0  0  0  0  0
    2.9200    0.7296   -1.9826 H   0  0  0  0  0  0  0  0  0  0  0  0
   -1.6321   -0.8870    0.0448 H   0  0  0  0  0  0  0  0  0  0  0  0
    0.7083    0.1991   -3.8107 H   0  0  0  0  0  0  0  0  0  0  0  0
    1.6330   -1.0036   -2.9438 H   0  0  0  0  0  0  0  0  0  0  0  0
    2.4055   -0.0199   -4.1638 H   0  0  0  0  0  0  0  0  0  0  0  0
    1.0959    2.5396   -3.3849 H   0  0  0  0  0  0  0  0  0  0  0  0
    2.7850    2.3025   -3.7640 H   0  0  0  0  0  0  0  0  0  0  0  0
    2.3243    3.0198   -2.2388 H   0  0  0  0  0  0  0  0  0  0  0  0
   -4.3072   -1.8280   -0.2900 H   0  0  0  0  0  0  0  0  0  0  0  0
   -4.2159   -0.3616   -2.2276 H   0  0  0  0  0  0  0  0  0  0  0  0
   -4.3857   -2.0578   -2.6516 H   0  0  0  0  0  0  0  0  0  0  0  0
   -1.4017   -4.1784   -1.9641 H   0  0  0  0  0  0  0  0  0  0  0  0
   -1.8682   -0.4339   -2.7452 H   0  0  0  0  0  0  0  0  0  0  0  0
   -2.7850   -1.0587   -4.1137 H   0  0  0  0  0  0  0  0  0  0  0  0
  1  2  2  0  0  0  0
  1  3  2  0  0  0  0
  1  4  1  0  0  0  0
  1  5  1  0  0  0  0
  4  6  1  0  0  0  0
  4  7  1  0  0  0  0
  5  8  1  0  0  0  0
  5 34  1  0  0  0  0
  5 35  1  0  0  0  0
  6  9  1  0  0  0  0
  6 36  1  0  0  0  0
  6 37  1  0  0  0  0
  7 10  1  0  0  0  0
  7 38  1  0  0  0  0
  7 39  1  0  0  0  0
  8 11  1  0  0  0  0
  8 40  1  0  0  0  0
  8 41  1  0  0  0  0
  9 11  1  0  0  0  0
  9 42  1  0  0  0  0
  9 43  1  0  0  0  0
 10 12  2  0  0  0  0
 10 13  1  0  0  0  0
 11 14  1  0  0  0  0
 12 15  1  0  0  0  0
 12 44  1  0  0  0  0
 13 16  2  0  0  0  0
 13 45  1  0  0  0  0
 14 17  2  0  0  0  0
 14 18  1  0  0  0  0
 15 19  1  0  0  0  0
 15 20  2  0  0  0  0
 16 20  1  0  0  0  0
 16 46  1  0  0  0  0
 18 21  1  0  0  0  0
 18 47  1  0  0  0  0
 18 48  1  0  0  0  0
 19 22  2  0  0  0  0
 19 23  1  0  0  0  0
 20 49  1  0  0  0  0
 21 24  1  0  0  0  0
 21 25  1  0  0  0  0
 21 50  1  0  0  0  0
 23 51  1  0  0  0  0
 24 52  1  0  0  0  0
 24 53  1  0  0  0  0
 24 54  1  0  0  0  0
 25 55  1  0  0  0  0
 25 56  1  0  0  0  0
 25 57  1  0  0  0  0
 26 23  1  0  0  0  0
 26 27  1  0  0  0  0
 26 28  1  0  0  0  0
 26 58  1  1  0  0  0
 27 29  2  0  0  0  0
 27 30  1  0  0  0  0
 28 31  1  0  0  0  0
 28 59  1  0  0  0  0
 28 60  1  0  0  0  0
 30 32  1  0  0  0  0
 30 61  1  0  0  0  0
 31 32  1  0  0  0  0
 31 62  1  0  0  0  0
 31 63  1  0  0  0  0
 32 33  2  0  0  0  0
M  CHG  1  21   1
M  END
>  <Molecule Name>
Compound 9

>  <EC50 (µM) (Excel)>
54.0

>  <Error (µM)>
9.3

>  <HTRC CRBN-DDB1 EC50 (µM)>
53.95 ±  9.32

>  <EC50 fitting (µM)>
108.30

>  <Modèle Fitting>
4PL

>  <Parent_Compound>
Compound 9

>  <MMFF94s_energy_kcalmol>
-37.421

$$$$
Compound_10
 OpenBabel09072607053D

 65 68  0  0  0  0  0  0  0  0999 V2000
   -2.0863   -3.9126   -0.9402 S   0  0  0  0  0  0  0  0  0  0  0  0
   -1.6298   -5.2431   -1.2824 O   0  0  0  0  0  0  0  0  0  0  0  0
   -3.3558   -3.7077   -0.2768 O   0  0  0  0  0  0  0  0  0  0  0  0
   -0.8867   -3.2172    0.0155 N   0  0  0  0  0  0  0  0  0  0  0  0
   -2.0963   -2.9123   -2.4252 C   0  0  0  0  0  0  0  0  0  0  0  0
    0.5308   -3.3507   -0.4365 C   0  0  0  0  0  0  0  0  0  0  0  0
   -1.0387   -3.3841    1.4861 C   0  0  0  0  0  0  0  0  0  0  0  0
   -1.3933   -1.5795   -2.2513 C   0  0  0  0  0  0  0  0  0  0  0  0
    0.7445   -2.8880   -1.8863 C   0  0  0  0  0  0  0  0  0  0  0  0
   -0.6340   -2.1253    2.2269 C   0  0  0  0  0  0  0  0  0  0  0  0
    0.0783   -1.6060   -2.1769 N   0  0  0  0  0  0  0  0  0  0  0  0
   -1.0709   -0.8729    1.7646 C   0  0  0  0  0  0  0  0  0  0  0  0
    0.1561   -2.1800    3.3813 C   0  0  0  0  0  0  0  0  0  0  0  0
    0.7262   -0.3704   -2.1194 C   0  0  0  0  0  0  0  0  0  0  0  0
   -0.6675    0.3087    2.3944 C   0  0  0  0  0  0  0  0  0  0  0  0
    0.5174   -1.0047    4.0456 C   0  0  0  0  0  0  0  0  0  0  0  0
    0.0938    0.6913   -2.1167 O   0  0  0  0  0  0  0  0  0  0  0  0
    2.2603   -0.3458   -2.0972 C   0  0  0  0  0  0  0  0  0  0  0  0
   -1.0567    1.6420    1.8576 C   0  0  0  0  0  0  0  0  0  0  0  0
    0.1084    0.2368    3.5536 C   0  0  0  0  0  0  0  0  0  0  0  0
    2.8439   -0.8829   -0.9213 O   0  0  0  0  0  0  0  0  0  0  0  0
   -1.1543    2.6134    2.5987 O   0  0  0  0  0  0  0  0  0  0  0  0
   -1.2653    1.7098    0.4993 N   0  0  0  0  0  0  0  0  0  0  0  0
    2.9842   -0.0631    0.1631 C   0  0  0  0  0  0  0  0  0  0  0  0
   -1.7685    2.9040   -0.1550 C   0  0  2  0  0  0  0  0  0  0  0  0
    2.4687    1.2254    0.2989 C   0  0  0  0  0  0  0  0  0  0  0  0
    3.7182   -0.6165    1.2163 C   0  0  0  0  0  0  0  0  0  0  0  0
   -2.4683    2.5012   -1.4625 C   0  0  0  0  0  0  0  0  0  0  0  0
   -0.6425    3.8903   -0.4462 C   0  0  0  0  0  0  0  0  0  0  0  0
    2.6962    1.9546    1.4704 C   0  0  0  0  0  0  0  0  0  0  0  0
    3.9485    0.1110    2.3851 C   0  0  0  0  0  0  0  0  0  0  0  0
   -3.0395    1.4213   -1.6213 O   0  0  0  0  0  0  0  0  0  0  0  0
   -2.4911    3.4521   -2.4557 N   0  0  0  0  0  0  0  0  0  0  0  0
   -1.2001    5.0999   -1.1766 C   0  0  0  0  0  0  0  0  0  0  0  0
    3.4385    1.4000    2.5107 C   0  0  0  0  0  0  0  0  0  0  0  0
   -1.9112    4.6948   -2.4452 C   0  0  0  0  0  0  0  0  0  0  0  0
   -2.0191    5.4505   -3.4070 O   0  0  0  0  0  0  0  0  0  0  0  0
   -3.1126   -2.7271   -2.7039 H   0  0  0  0  0  0  0  0  0  0  0  0
   -1.5661   -3.4560   -3.1790 H   0  0  0  0  0  0  0  0  0  0  0  0
    0.8175   -4.3788   -0.3609 H   0  0  0  0  0  0  0  0  0  0  0  0
    1.1276   -2.7226    0.1913 H   0  0  0  0  0  0  0  0  0  0  0  0
   -0.4197   -4.1942    1.8110 H   0  0  0  0  0  0  0  0  0  0  0  0
   -2.0678   -3.5857    1.6990 H   0  0  0  0  0  0  0  0  0  0  0  0
   -1.7548   -1.1393   -1.3455 H   0  0  0  0  0  0  0  0  0  0  0  0
   -1.6175   -1.0281   -3.1404 H   0  0  0  0  0  0  0  0  0  0  0  0
    0.3531   -3.6346   -2.5453 H   0  0  0  0  0  0  0  0  0  0  0  0
    1.7954   -2.7465   -2.0294 H   0  0  0  0  0  0  0  0  0  0  0  0
   -1.6993   -0.8240    0.9475 H   0  0  0  0  0  0  0  0  0  0  0  0
    0.4733   -3.0928    3.7436 H   0  0  0  0  0  0  0  0  0  0  0  0
    1.0889   -1.0544    4.9035 H   0  0  0  0  0  0  0  0  0  0  0  0
    2.5789    0.6712   -2.1930 H   0  0  0  0  0  0  0  0  0  0  0  0
    2.5846   -0.9661   -2.9065 H   0  0  0  0  0  0  0  0  0  0  0  0
    0.3797    1.1017    4.0469 H   0  0  0  0  0  0  0  0  0  0  0  0
   -1.0656    0.9177   -0.0502 H   0  0  0  0  0  0  0  0  0  0  0  0
   -2.4643    3.3880    0.4982 H   0  0  0  0  0  0  0  0  0  0  0  0
    1.9175    1.6423   -0.4675 H   0  0  0  0  0  0  0  0  0  0  0  0
    4.0940   -1.5736    1.1287 H   0  0  0  0  0  0  0  0  0  0  0  0
    0.0974    3.4159   -1.0564 H   0  0  0  0  0  0  0  0  0  0  0  0
   -0.1990    4.2052    0.4753 H   0  0  0  0  0  0  0  0  0  0  0  0
    2.3124    2.9079    1.5647 H   0  0  0  0  0  0  0  0  0  0  0  0
    4.4957   -0.3059    3.1544 H   0  0  0  0  0  0  0  0  0  0  0  0
   -2.9835    3.2115   -3.2736 H   0  0  0  0  0  0  0  0  0  0  0  0
   -0.3948    5.7596   -1.4239 H   0  0  0  0  0  0  0  0  0  0  0  0
   -1.9047    5.5866   -0.5351 H   0  0  0  0  0  0  0  0  0  0  0  0
    3.6097    1.9430    3.3715 H   0  0  0  0  0  0  0  0  0  0  0  0
  1  2  2  0  0  0  0
  1  3  2  0  0  0  0
  1  4  1  0  0  0  0
  1  5  1  0  0  0  0
  4  6  1  0  0  0  0
  4  7  1  0  0  0  0
  5  8  1  0  0  0  0
  5 38  1  0  0  0  0
  5 39  1  0  0  0  0
  6  9  1  0  0  0  0
  6 40  1  0  0  0  0
  6 41  1  0  0  0  0
  7 10  1  0  0  0  0
  7 42  1  0  0  0  0
  7 43  1  0  0  0  0
  8 11  1  0  0  0  0
  8 44  1  0  0  0  0
  8 45  1  0  0  0  0
  9 11  1  0  0  0  0
  9 46  1  0  0  0  0
  9 47  1  0  0  0  0
 10 12  2  0  0  0  0
 10 13  1  0  0  0  0
 11 14  1  0  0  0  0
 12 15  1  0  0  0  0
 12 48  1  0  0  0  0
 13 16  2  0  0  0  0
 13 49  1  0  0  0  0
 14 17  2  0  0  0  0
 14 18  1  0  0  0  0
 15 19  1  0  0  0  0
 15 20  2  0  0  0  0
 16 20  1  0  0  0  0
 16 50  1  0  0  0  0
 18 21  1  0  0  0  0
 18 51  1  0  0  0  0
 18 52  1  0  0  0  0
 19 22  2  0  0  0  0
 19 23  1  0  0  0  0
 20 53  1  0  0  0  0
 21 24  1  0  0  0  0
 23 54  1  0  0  0  0
 24 26  2  0  0  0  0
 24 27  1  0  0  0  0
 25 23  1  0  0  0  0
 25 28  1  0  0  0  0
 25 29  1  0  0  0  0
 25 55  1  1  0  0  0
 26 30  1  0  0  0  0
 26 56  1  0  0  0  0
 27 31  2  0  0  0  0
 27 57  1  0  0  0  0
 28 32  2  0  0  0  0
 28 33  1  0  0  0  0
 29 34  1  0  0  0  0
 29 58  1  0  0  0  0
 29 59  1  0  0  0  0
 30 35  2  0  0  0  0
 30 60  1  0  0  0  0
 31 35  1  0  0  0  0
 31 61  1  0  0  0  0
 33 36  1  0  0  0  0
 33 62  1  0  0  0  0
 34 36  1  0  0  0  0
 34 63  1  0  0  0  0
 34 64  1  0  0  0  0
 35 65  1  0  0  0  0
 36 37  2  0  0  0  0
M  END
>  <Molecule Name>
Compound 10

>  <EC50 (µM) (Excel)>
14.3

>  <Error (µM)>
1.3

>  <HTRC CRBN-DDB1 EC50 (µM)>
14.29 ±  1.32

>  <EC50 fitting (µM)>
23.96

>  <Modèle Fitting>
3PL

>  <Parent_Compound>
Compound 10

>  <MMFF94s_energy_kcalmol>
-35.646

$$$$
Compound_11
 OpenBabel09072607053D

 60 63  0  0  0  0  0  0  0  0999 V2000
   -1.0188    1.3083   -1.7258 S   0  0  0  0  0  0  0  0  0  0  0  0
   -0.0412    2.0982   -1.0034 O   0  0  0  0  0  0  0  0  0  0  0  0
   -0.9331    1.1877   -3.1654 O   0  0  0  0  0  0  0  0  0  0  0  0
   -0.9988   -0.2309   -1.0576 N   0  0  0  0  0  0  0  0  0  0  0  0
   -2.6296    1.9336   -1.2862 C   0  0  0  0  0  0  0  0  0  0  0  0
   -1.6352   -1.3782   -1.7652 C   0  0  0  0  0  0  0  0  0  0  0  0
   -1.0252   -0.3356    0.4178 C   0  0  0  0  0  0  0  0  0  0  0  0
   -3.7555    1.2384   -2.0225 C   0  0  0  0  0  0  0  0  0  0  0  0
   -2.9390   -1.0542   -2.5058 C   0  0  0  0  0  0  0  0  0  0  0  0
    0.0720   -1.2365    0.9365 C   0  0  0  0  0  0  0  0  0  0  0  0
   -3.8464   -0.1956   -1.7394 N   0  0  0  0  0  0  0  0  0  0  0  0
    1.4175   -0.9002    0.7071 C   0  0  0  0  0  0  0  0  0  0  0  0
   -0.2290   -2.4105    1.6398 C   0  0  0  0  0  0  0  0  0  0  0  0
   -4.6533   -0.8046   -0.7702 C   0  0  0  0  0  0  0  0  0  0  0  0
    2.4474   -1.7232    1.1787 C   0  0  0  0  0  0  0  0  0  0  0  0
    0.7948   -3.2402    2.0987 C   0  0  0  0  0  0  0  0  0  0  0  0
   -4.6679   -2.0304   -0.6309 O   0  0  0  0  0  0  0  0  0  0  0  0
   -5.5195    0.0058    0.1455 C   0  0  0  0  0  0  0  0  0  0  0  0
    3.8839   -1.4055    0.9474 C   0  0  0  0  0  0  0  0  0  0  0  0
    2.1282   -2.9004    1.8656 C   0  0  0  0  0  0  0  0  0  0  0  0
   -5.0706    1.2257    0.5420 N   0  0  0  0  0  0  0  0  0  0  0  0
   -6.7054   -0.5569    0.6087 C   0  0  0  0  0  0  0  0  0  0  0  0
    4.7256   -2.2975    0.9455 O   0  0  0  0  0  0  0  0  0  0  0  0
    4.2055   -0.0785    0.7740 N   0  0  0  0  0  0  0  0  0  0  0  0
   -5.8512    1.9077    1.4097 C   0  0  0  0  0  0  0  0  0  0  0  0
   -7.4853    0.1745    1.4996 C   0  0  0  0  0  0  0  0  0  0  0  0
    5.5795    0.3538    0.5712 C   0  0  2  0  0  0  0  0  0  0  0  0
   -7.0531    1.4311    1.9079 C   0  0  0  0  0  0  0  0  0  0  0  0
    5.6629    1.8679    0.7951 C   0  0  0  0  0  0  0  0  0  0  0  0
    6.0811    0.0245   -0.8323 C   0  0  0  0  0  0  0  0  0  0  0  0
    4.8735    2.4827    1.5118 O   0  0  0  0  0  0  0  0  0  0  0  0
    6.7098    2.5162    0.1857 N   0  0  0  0  0  0  0  0  0  0  0  0
    7.5119    0.5148   -0.9877 C   0  0  0  0  0  0  0  0  0  0  0  0
    7.6299    1.9897   -0.6849 C   0  0  0  0  0  0  0  0  0  0  0  0
    8.5291    2.6853   -1.1484 O   0  0  0  0  0  0  0  0  0  0  0  0
   -2.6647    2.9778   -1.5172 H   0  0  0  0  0  0  0  0  0  0  0  0
   -2.7696    1.7507   -0.2413 H   0  0  0  0  0  0  0  0  0  0  0  0
   -1.8470   -2.1364   -1.0405 H   0  0  0  0  0  0  0  0  0  0  0  0
   -0.9378   -1.6840   -2.5168 H   0  0  0  0  0  0  0  0  0  0  0  0
   -1.9715   -0.7332    0.7199 H   0  0  0  0  0  0  0  0  0  0  0  0
   -0.8718    0.6426    0.8234 H   0  0  0  0  0  0  0  0  0  0  0  0
   -3.6015    1.3662   -3.0736 H   0  0  0  0  0  0  0  0  0  0  0  0
   -4.6696    1.6821   -1.6872 H   0  0  0  0  0  0  0  0  0  0  0  0
   -3.4433   -1.9728   -2.7222 H   0  0  0  0  0  0  0  0  0  0  0  0
   -2.6732   -0.5195   -3.3937 H   0  0  0  0  0  0  0  0  0  0  0  0
    1.6481   -0.0394    0.1867 H   0  0  0  0  0  0  0  0  0  0  0  0
   -1.2134   -2.6629    1.8194 H   0  0  0  0  0  0  0  0  0  0  0  0
    0.5657   -4.1062    2.6111 H   0  0  0  0  0  0  0  0  0  0  0  0
    2.8823   -3.5198    2.2012 H   0  0  0  0  0  0  0  0  0  0  0  0
   -6.9999   -1.4960    0.2982 H   0  0  0  0  0  0  0  0  0  0  0  0
    3.4876    0.5950    0.7876 H   0  0  0  0  0  0  0  0  0  0  0  0
   -5.5329    2.8392    1.7196 H   0  0  0  0  0  0  0  0  0  0  0  0
   -8.3746   -0.2117    1.8532 H   0  0  0  0  0  0  0  0  0  0  0  0
    6.1983   -0.1695    1.2699 H   0  0  0  0  0  0  0  0  0  0  0  0
   -7.6136    1.9950    2.5658 H   0  0  0  0  0  0  0  0  0  0  0  0
    5.4581    0.5073   -1.5560 H   0  0  0  0  0  0  0  0  0  0  0  0
    6.0488   -1.0343   -0.9831 H   0  0  0  0  0  0  0  0  0  0  0  0
    6.8117    3.4719    0.3991 H   0  0  0  0  0  0  0  0  0  0  0  0
    7.8315    0.3402   -1.9938 H   0  0  0  0  0  0  0  0  0  0  0  0
    8.1262   -0.0197   -0.2935 H   0  0  0  0  0  0  0  0  0  0  0  0
  1  2  2  0  0  0  0
  1  3  2  0  0  0  0
  1  4  1  0  0  0  0
  1  5  1  0  0  0  0
  4  6  1  0  0  0  0
  4  7  1  0  0  0  0
  5  8  1  0  0  0  0
  5 36  1  0  0  0  0
  5 37  1  0  0  0  0
  6  9  1  0  0  0  0
  6 38  1  0  0  0  0
  6 39  1  0  0  0  0
  7 10  1  0  0  0  0
  7 40  1  0  0  0  0
  7 41  1  0  0  0  0
  8 11  1  0  0  0  0
  8 42  1  0  0  0  0
  8 43  1  0  0  0  0
  9 11  1  0  0  0  0
  9 44  1  0  0  0  0
  9 45  1  0  0  0  0
 10 12  2  0  0  0  0
 10 13  1  0  0  0  0
 11 14  1  0  0  0  0
 12 15  1  0  0  0  0
 12 46  1  0  0  0  0
 13 16  2  0  0  0  0
 13 47  1  0  0  0  0
 14 17  2  0  0  0  0
 14 18  1  0  0  0  0
 15 19  1  0  0  0  0
 15 20  2  0  0  0  0
 16 20  1  0  0  0  0
 16 48  1  0  0  0  0
 18 21  2  0  0  0  0
 18 22  1  0  0  0  0
 19 23  2  0  0  0  0
 19 24  1  0  0  0  0
 20 49  1  0  0  0  0
 21 25  1  0  0  0  0
 22 26  2  0  0  0  0
 22 50  1  0  0  0  0
 24 51  1  0  0  0  0
 25 28  2  0  0  0  0
 25 52  1  0  0  0  0
 26 28  1  0  0  0  0
 26 53  1  0  0  0  0
 27 24  1  0  0  0  0
 27 29  1  0  0  0  0
 27 30  1  0  0  0  0
 27 54  1  1  0  0  0
 28 55  1  0  0  0  0
 29 31  2  0  0  0  0
 29 32  1  0  0  0  0
 30 33  1  0  0  0  0
 30 56  1  0  0  0  0
 30 57  1  0  0  0  0
 32 34  1  0  0  0  0
 32 58  1  0  0  0  0
 33 34  1  0  0  0  0
 33 59  1  0  0  0  0
 33 60  1  0  0  0  0
 34 35  2  0  0  0  0
M  END
>  <Molecule Name>
Compound 11

>  <EC50 (µM) (Excel)>
37.7

>  <Error (µM)>
0.8

>  <HTRC CRBN-DDB1 EC50 (µM)>
37.72 ±  0.78

>  <EC50 fitting (µM)>
52.96

>  <Modèle Fitting>
3PL

>  <Parent_Compound>
Compound 11

>  <MMFF94s_energy_kcalmol>
-22.364

$$$$
Compound_12
 OpenBabel09072607053D

 68 71  0  0  0  0  0  0  0  0999 V2000
    0.9101   -0.3645    5.1043 S   0  0  0  0  0  0  0  0  0  0  0  0
   -0.0714    0.5383    5.6702 O   0  0  0  0  0  0  0  0  0  0  0  0
    1.4989   -1.4082    5.9152 O   0  0  0  0  0  0  0  0  0  0  0  0
    0.2170   -1.0685    3.7392 N   0  0  0  0  0  0  0  0  0  0  0  0
    2.2166    0.6554    4.4399 C   0  0  0  0  0  0  0  0  0  0  0  0
    0.8456   -2.2872    3.1430 C   0  0  0  0  0  0  0  0  0  0  0  0
   -0.4108   -0.1414    2.7677 C   0  0  0  0  0  0  0  0  0  0  0  0
    3.3595   -0.1414    3.8467 C   0  0  0  0  0  0  0  0  0  0  0  0
    2.3800   -2.2848    3.0833 C   0  0  0  0  0  0  0  0  0  0  0  0
   -1.5302   -0.7525    1.9564 C   0  0  0  0  0  0  0  0  0  0  0  0
    2.9526   -0.9841    2.7233 N   0  0  0  0  0  0  0  0  0  0  0  0
   -1.3620   -1.0019    0.5825 C   0  0  0  0  0  0  0  0  0  0  0  0
   -2.7414   -1.0941    2.5729 C   0  0  0  0  0  0  0  0  0  0  0  0
    2.8891   -0.5992    1.3889 C   0  0  0  0  0  0  0  0  0  0  0  0
   -2.3972   -1.5753   -0.1644 C   0  0  0  0  0  0  0  0  0  0  0  0
   -3.7706   -1.6745    1.8328 C   0  0  0  0  0  0  0  0  0  0  0  0
    2.4292   -1.3560    0.5327 O   0  0  0  0  0  0  0  0  0  0  0  0
    3.4091    0.7784    1.0196 C   0  0  0  0  0  0  0  0  0  0  0  0
   -2.2513   -1.8895   -1.6113 C   0  0  0  0  0  0  0  0  0  0  0  0
   -3.5980   -1.9181    0.4697 C   0  0  0  0  0  0  0  0  0  0  0  0
    2.7378    1.3063   -0.2452 C   0  0  0  0  0  0  0  0  0  0  0  0
   -2.8835   -2.8199   -2.1002 O   0  0  0  0  0  0  0  0  0  0  0  0
   -1.4088   -1.0860   -2.3513 N   0  0  0  0  0  0  0  0  0  0  0  0
    1.3948    1.6742    0.0962 O   0  0  0  0  0  0  0  0  0  0  0  0
   -1.1044   -1.4004   -3.7427 C   0  0  2  0  0  0  0  0  0  0  0  0
    0.6335    2.2490   -0.8827 C   0  0  0  0  0  0  0  0  0  0  0  0
    0.1042   -0.5716   -4.1955 C   0  0  0  0  0  0  0  0  0  0  0  0
   -2.2879   -1.1894   -4.6902 C   0  0  0  0  0  0  0  0  0  0  0  0
   -0.6945    2.4960   -0.5216 C   0  0  0  0  0  0  0  0  0  0  0  0
    1.0699    2.6063   -2.1580 C   0  0  0  0  0  0  0  0  0  0  0  0
    1.2372   -0.7381   -3.7447 O   0  0  0  0  0  0  0  0  0  0  0  0
   -0.1456    0.4864   -5.0356 N   0  0  0  0  0  0  0  0  0  0  0  0
   -2.5794    0.2899   -4.8729 C   0  0  0  0  0  0  0  0  0  0  0  0
   -1.5811    3.0860   -1.4234 C   0  0  0  0  0  0  0  0  0  0  0  0
    0.1878    3.2179   -3.0541 C   0  0  0  0  0  0  0  0  0  0  0  0
   -1.3621    1.0078   -5.3945 C   0  0  0  0  0  0  0  0  0  0  0  0
   -1.1373    3.4508   -2.6906 C   0  0  0  0  0  0  0  0  0  0  0  0
   -1.4353    2.0452   -6.0478 O   0  0  0  0  0  0  0  0  0  0  0  0
    2.6030    1.2674    5.2279 H   0  0  0  0  0  0  0  0  0  0  0  0
    1.7920    1.2360    3.6477 H   0  0  0  0  0  0  0  0  0  0  0  0
    0.4781   -2.3909    2.1435 H   0  0  0  0  0  0  0  0  0  0  0  0
    0.5806   -3.0975    3.7896 H   0  0  0  0  0  0  0  0  0  0  0  0
    0.3460    0.1980    2.0917 H   0  0  0  0  0  0  0  0  0  0  0  0
   -0.8453    0.6520    3.3392 H   0  0  0  0  0  0  0  0  0  0  0  0
    3.7696   -0.7682    4.6108 H   0  0  0  0  0  0  0  0  0  0  0  0
    4.0764    0.5602    3.4743 H   0  0  0  0  0  0  0  0  0  0  0  0
    2.6911   -3.0043    2.3550 H   0  0  0  0  0  0  0  0  0  0  0  0
    2.7320   -2.5209    4.0658 H   0  0  0  0  0  0  0  0  0  0  0  0
   -0.4702   -0.7607    0.1226 H   0  0  0  0  0  0  0  0  0  0  0  0
   -2.8723   -0.9150    3.5808 H   0  0  0  0  0  0  0  0  0  0  0  0
   -4.6600   -1.9239    2.2930 H   0  0  0  0  0  0  0  0  0  0  0  0
    4.4647    0.7194    0.8548 H   0  0  0  0  0  0  0  0  0  0  0  0
    3.1872    1.4488    1.8235 H   0  0  0  0  0  0  0  0  0  0  0  0
   -4.3594   -2.3533   -0.0742 H   0  0  0  0  0  0  0  0  0  0  0  0
    2.7273    0.5452   -0.9972 H   0  0  0  0  0  0  0  0  0  0  0  0
    3.2719    2.1503   -0.6290 H   0  0  0  0  0  0  0  0  0  0  0  0
   -1.0075   -0.2894   -1.9346 H   0  0  0  0  0  0  0  0  0  0  0  0
   -0.8777   -2.4451   -3.7891 H   0  0  0  0  0  0  0  0  0  0  0  0
   -3.1530   -1.6691   -4.2823 H   0  0  0  0  0  0  0  0  0  0  0  0
   -2.0418   -1.6094   -5.6431 H   0  0  0  0  0  0  0  0  0  0  0  0
   -1.0227    2.2391    0.4225 H   0  0  0  0  0  0  0  0  0  0  0  0
    2.0446    2.4192   -2.4407 H   0  0  0  0  0  0  0  0  0  0  0  0
    0.6448    0.9233   -5.4276 H   0  0  0  0  0  0  0  0  0  0  0  0
   -2.8604    0.7123   -3.9308 H   0  0  0  0  0  0  0  0  0  0  0  0
   -3.3753    0.4008   -5.5794 H   0  0  0  0  0  0  0  0  0  0  0  0
   -2.5628    3.2512   -1.1513 H   0  0  0  0  0  0  0  0  0  0  0  0
    0.5199    3.4985   -3.9901 H   0  0  0  0  0  0  0  0  0  0  0  0
   -1.7874    3.8925   -3.3594 H   0  0  0  0  0  0  0  0  0  0  0  0
  1  2  2  0  0  0  0
  1  3  2  0  0  0  0
  1  4  1  0  0  0  0
  1  5  1  0  0  0  0
  4  6  1  0  0  0  0
  4  7  1  0  0  0  0
  5  8  1  0  0  0  0
  5 39  1  0  0  0  0
  5 40  1  0  0  0  0
  6  9  1  0  0  0  0
  6 41  1  0  0  0  0
  6 42  1  0  0  0  0
  7 10  1  0  0  0  0
  7 43  1  0  0  0  0
  7 44  1  0  0  0  0
  8 11  1  0  0  0  0
  8 45  1  0  0  0  0
  8 46  1  0  0  0  0
  9 11  1  0  0  0  0
  9 47  1  0  0  0  0
  9 48  1  0  0  0  0
 10 12  2  0  0  0  0
 10 13  1  0  0  0  0
 11 14  1  0  0  0  0
 12 15  1  0  0  0  0
 12 49  1  0  0  0  0
 13 16  2  0  0  0  0
 13 50  1  0  0  0  0
 14 17  2  0  0  0  0
 14 18  1  0  0  0  0
 15 19  1  0  0  0  0
 15 20  2  0  0  0  0
 16 20  1  0  0  0  0
 16 51  1  0  0  0  0
 18 21  1  0  0  0  0
 18 52  1  0  0  0  0
 18 53  1  0  0  0  0
 19 22  2  0  0  0  0
 19 23  1  0  0  0  0
 20 54  1  0  0  0  0
 21 24  1  0  0  0  0
 21 55  1  0  0  0  0
 21 56  1  0  0  0  0
 23 57  1  0  0  0  0
 24 26  1  0  0  0  0
 25 23  1  0  0  0  0
 25 27  1  0  0  0  0
 25 28  1  0  0  0  0
 25 58  1  6  0  0  0
 26 29  2  0  0  0  0
 26 30  1  0  0  0  0
 27 31  2  0  0  0  0
 27 32  1  0  0  0  0
 28 33  1  0  0  0  0
 28 59  1  0  0  0  0
 28 60  1  0  0  0  0
 29 34  1  0  0  0  0
 29 61  1  0  0  0  0
 30 35  2  0  0  0  0
 30 62  1  0  0  0  0
 32 36  1  0  0  0  0
 32 63  1  0  0  0  0
 33 36  1  0  0  0  0
 33 64  1  0  0  0  0
 33 65  1  0  0  0  0
 34 37  2  0  0  0  0
 34 66  1  0  0  0  0
 35 37  1  0  0  0  0
 35 67  1  0  0  0  0
 36 38  2  0  0  0  0
 37 68  1  0  0  0  0
M  END
>  <Molecule Name>
Compound 12

>  <EC50 (µM) (Excel)>
61.9

>  <Error (µM)>
8.1

>  <HTRC CRBN-DDB1 EC50 (µM)>
61.88 ±  8.05

>  <EC50 fitting (µM)>
111.51

>  <Modèle Fitting>
4PL

>  <Parent_Compound>
Compound 12

>  <MMFF94s_energy_kcalmol>
-70.307

$$$$
