Compound_1_ent1
     RDKit          3D

 65 67  0  0  0  0  0  0  0  0999 V2000
    4.4428   -0.0276    2.5607 O   0  0  0  0  0  0  0  0  0  0  0  0
    5.1158   -0.5794    1.6933 C   0  0  0  0  0  0  0  0  0  0  0  0
    4.6439   -1.4029    0.6667 N   0  0  0  0  0  0  0  0  0  0  0  0
    6.4792   -0.4018    1.7317 N   0  0  0  0  0  0  0  0  0  0  0  0
    3.2404   -1.6305    0.4568 C   0  0  0  0  0  0  0  0  0  0  0  0
    5.6161   -2.1803   -0.0970 C   0  0  0  0  0  0  0  0  0  0  0  0
    7.3943   -0.7447    0.7768 C   0  0  0  0  0  0  0  0  0  0  0  0
    2.2866   -0.6604    0.7983 C   0  0  0  0  0  0  0  0  0  0  0  0
    2.7736   -2.8232   -0.1189 C   0  0  0  0  0  0  0  0  0  0  0  0
    6.8243   -1.3482   -0.4669 C   0  0  0  0  0  0  0  0  0  0  0  0
    8.5906   -0.5047    0.9093 O   0  0  0  0  0  0  0  0  0  0  0  0
    0.9107   -0.8631    0.5799 C   0  0  0  0  0  0  0  0  0  0  0  0
    1.4092   -3.0392   -0.3396 C   0  0  0  0  0  0  0  0  0  0  0  0
    0.4805   -2.0640    0.0079 C   0  0  0  0  0  0  0  0  0  0  0  0
   -0.0864    0.2136    0.9517 C   0  0  0  0  0  0  0  0  0  0  0  0
    0.0582    1.4472    0.1659 N   0  0  0  0  0  0  0  0  0  0  0  0
   -0.1200    1.2630   -1.3001 C   0  0  2  0  0  0  0  0  0  0  0  0
   -0.6872    2.5718    0.7452 C   0  0  0  0  0  0  0  0  0  0  0  0
    0.3227    2.5302   -2.0544 C   0  0  0  0  0  0  0  0  0  0  0  0
   -1.4773    0.7627   -1.8623 C   0  0  0  0  0  0  0  0  0  0  0  0
   -2.2076    2.4474    0.8780 C   0  0  0  0  0  0  0  0  0  0  0  0
   -0.4313    3.3958   -2.4848 O   0  0  0  0  0  0  0  0  0  0  0  0
    1.6848    2.5738   -2.1601 O   0  0  0  0  0  0  0  0  0  0  0  0
   -2.6390    0.9000   -0.9845 N   0  0  0  0  0  0  0  0  0  0  0  0
   -2.9262    2.2222   -0.4454 C   0  0  0  0  0  0  0  0  0  0  0  0
    2.1846    3.7485   -2.7976 C   0  0  0  0  0  0  0  0  0  0  0  0
   -3.3770   -0.2238   -0.6452 C   0  0  0  0  0  0  0  0  0  0  0  0
   -3.1347   -1.3476   -1.0669 O   0  0  0  0  0  0  0  0  0  0  0  0
   -4.3717    0.0635    0.2330 O   0  0  0  0  0  0  0  0  0  0  0  0
   -5.2311   -0.9776    0.7621 C   0  0  0  0  0  0  0  0  0  0  0  0
   -6.1943   -0.2410    1.7057 C   0  0  0  0  0  0  0  0  0  0  0  0
   -6.0491   -1.6460   -0.3478 C   0  0  0  0  0  0  0  0  0  0  0  0
   -4.4294   -1.9960    1.5805 C   0  0  0  0  0  0  0  0  0  0  0  0
    6.8273    0.1025    2.5335 H   0  0  0  0  0  0  0  0  0  0  0  0
    5.1794   -2.5465   -1.0313 H   0  0  0  0  0  0  0  0  0  0  0  0
    5.9101   -3.0386    0.5197 H   0  0  0  0  0  0  0  0  0  0  0  0
    2.5907    0.2993    1.2111 H   0  0  0  0  0  0  0  0  0  0  0  0
    3.4490   -3.6336   -0.3753 H   0  0  0  0  0  0  0  0  0  0  0  0
    7.5826   -1.9710   -0.9515 H   0  0  0  0  0  0  0  0  0  0  0  0
    6.5492   -0.5336   -1.1463 H   0  0  0  0  0  0  0  0  0  0  0  0
    1.0708   -3.9755   -0.7766 H   0  0  0  0  0  0  0  0  0  0  0  0
   -0.5781   -2.2451   -0.1721 H   0  0  0  0  0  0  0  0  0  0  0  0
   -1.1008   -0.1921    0.8993 H   0  0  0  0  0  0  0  0  0  0  0  0
    0.0836    0.4354    2.0144 H   0  0  0  0  0  0  0  0  0  0  0  0
    0.6133    0.5183   -1.6426 H   0  0  0  0  0  0  0  0  0  0  0  0
   -0.4541    3.4951    0.2018 H   0  0  0  0  0  0  0  0  0  0  0  0
   -0.2839    2.7543    1.7507 H   0  0  0  0  0  0  0  0  0  0  0  0
   -1.7379    1.2671   -2.8004 H   0  0  0  0  0  0  0  0  0  0  0  0
   -1.3553   -0.2958   -2.1198 H   0  0  0  0  0  0  0  0  0  0  0  0
   -2.5838    3.3784    1.3202 H   0  0  0  0  0  0  0  0  0  0  0  0
   -2.4573    1.6502    1.5884 H   0  0  0  0  0  0  0  0  0  0  0  0
   -4.0055    2.3190   -0.2828 H   0  0  0  0  0  0  0  0  0  0  0  0
   -2.6577    2.9825   -1.1856 H   0  0  0  0  0  0  0  0  0  0  0  0
    1.8970    4.6424   -2.2353 H   0  0  0  0  0  0  0  0  0  0  0  0
    1.8252    3.8064   -3.8298 H   0  0  0  0  0  0  0  0  0  0  0  0
    3.2762    3.6870   -2.8142 H   0  0  0  0  0  0  0  0  0  0  0  0
   -6.9053   -0.9267    2.1784 H   0  0  0  0  0  0  0  0  0  0  0  0
   -5.6421    0.2834    2.4943 H   0  0  0  0  0  0  0  0  0  0  0  0
   -6.7605    0.5254    1.1636 H   0  0  0  0  0  0  0  0  0  0  0  0
   -6.8158   -2.3093    0.0671 H   0  0  0  0  0  0  0  0  0  0  0  0
   -6.5410   -0.8939   -0.9747 H   0  0  0  0  0  0  0  0  0  0  0  0
   -5.4228   -2.2478   -1.0130 H   0  0  0  0  0  0  0  0  0  0  0  0
   -3.7739   -2.6039    0.9497 H   0  0  0  0  0  0  0  0  0  0  0  0
   -3.7837   -1.4890    2.3064 H   0  0  0  0  0  0  0  0  0  0  0  0
   -5.0907   -2.6818    2.1210 H   0  0  0  0  0  0  0  0  0  0  0  0
  1  2  2  0
  2  3  1  0
  2  4  1  0
  3  5  1  0
  3  6  1  0
  4  7  1  0
  5  8  2  0
  5  9  1  0
  6 10  1  0
  7 11  2  0
  7 10  1  0
  8 12  1  0
  9 13  2  0
 12 14  2  0
 12 15  1  0
 13 14  1  0
 15 16  1  0
 16 17  1  0
 16 18  1  0
 17 19  1  0
 17 20  1  0
 18 21  1  0
 19 22  2  0
 19 23  1  0
 20 24  1  0
 21 25  1  0
 23 26  1  0
 24 27  1  0
 24 25  1  0
 27 28  2  0
 27 29  1  0
 29 30  1  0
 30 31  1  0
 30 32  1  0
 30 33  1  0
  4 34  1  0
  6 35  1  0
  6 36  1  0
  8 37  1  0
  9 38  1  0
 10 39  1  0
 10 40  1  0
 13 41  1  0
 14 42  1  0
 15 43  1  0
 15 44  1  0
 17 45  1  6
 18 46  1  0
 18 47  1  0
 20 48  1  0
 20 49  1  0
 21 50  1  0
 21 51  1  0
 25 52  1  0
 25 53  1  0
 26 54  1  0
 26 55  1  0
 26 56  1  0
 31 57  1  0
 31 58  1  0
 31 59  1  0
 32 60  1  0
 32 61  1  0
 32 62  1  0
 33 63  1  0
 33 64  1  0
 33 65  1  0
M  END
>  <Molecule Name>  (1) 
Compound 1

>  <EC50 (µM) (Excel)>  (1) 
49.5

>  <Error (µM)>  (1) 
6.2

>  <HTRC CRBN-DDB1 EC50 (µM)>  (1) 
49.46 ±  6.19

>  <EC50 fitting (µM)>  (1) 
60.01

>  <Modèle Fitting>  (1) 
3PL

>  <Parent_Compound>  (1) 
Compound 1

>  <MMFF94s_energy_kcalmol>  (1) 
-53.340

$$$$
Compound_1_ent2
     RDKit          3D

 65 67  0  0  0  0  0  0  0  0999 V2000
    5.6987    0.6590    2.6783 O   0  0  0  0  0  0  0  0  0  0  0  0
    5.0002    1.5156    2.1418 C   0  0  0  0  0  0  0  0  0  0  0  0
    3.8490    1.2986    1.3774 N   0  0  0  0  0  0  0  0  0  0  0  0
    5.3584    2.8321    2.3157 N   0  0  0  0  0  0  0  0  0  0  0  0
    3.3737   -0.0244    1.0704 C   0  0  0  0  0  0  0  0  0  0  0  0
    3.0198    2.4524    1.0364 C   0  0  0  0  0  0  0  0  0  0  0  0
    4.8707    3.9258    1.6581 C   0  0  0  0  0  0  0  0  0  0  0  0
    2.0106   -0.2703    0.8271 C   0  0  0  0  0  0  0  0  0  0  0  0
    4.2510   -1.1143    0.9840 C   0  0  0  0  0  0  0  0  0  0  0  0
    3.8582    3.6329    0.5983 C   0  0  0  0  0  0  0  0  0  0  0  0
    5.2928    5.0570    1.8776 O   0  0  0  0  0  0  0  0  0  0  0  0
    1.5333   -1.5551    0.5051 C   0  0  0  0  0  0  0  0  0  0  0  0
    3.7912   -2.3972    0.6693 C   0  0  0  0  0  0  0  0  0  0  0  0
    2.4391   -2.6176    0.4318 C   0  0  0  0  0  0  0  0  0  0  0  0
    0.0550   -1.7877    0.2679 C   0  0  0  0  0  0  0  0  0  0  0  0
   -0.2350   -2.3597   -1.0545 N   0  0  0  0  0  0  0  0  0  0  0  0
   -1.6078   -2.9280   -1.1630 C   0  0  1  0  0  0  0  0  0  0  0  0
    0.1057   -1.4963   -2.1901 C   0  0  0  0  0  0  0  0  0  0  0  0
   -1.6754   -4.2853   -0.4394 C   0  0  0  0  0  0  0  0  0  0  0  0
   -2.7712   -2.0317   -0.6719 C   0  0  0  0  0  0  0  0  0  0  0  0
   -0.6427   -0.1679   -2.3370 C   0  0  0  0  0  0  0  0  0  0  0  0
   -2.4970   -4.5845    0.4185 O   0  0  0  0  0  0  0  0  0  0  0  0
   -0.7146   -5.1346   -0.9130 O   0  0  0  0  0  0  0  0  0  0  0  0
   -2.7242   -0.6318   -1.1103 N   0  0  0  0  0  0  0  0  0  0  0  0
   -2.1575   -0.3238   -2.4184 C   0  0  0  0  0  0  0  0  0  0  0  0
   -0.6984   -6.4122   -0.2772 C   0  0  0  0  0  0  0  0  0  0  0  0
   -3.1762    0.3531   -0.2433 C   0  0  0  0  0  0  0  0  0  0  0  0
   -3.6700    0.1176    0.8511 O   0  0  0  0  0  0  0  0  0  0  0  0
   -2.9765    1.6019   -0.7382 O   0  0  0  0  0  0  0  0  0  0  0  0
   -3.3426    2.7792    0.0257 C   0  0  0  0  0  0  0  0  0  0  0  0
   -2.9587    3.9606   -0.8789 C   0  0  0  0  0  0  0  0  0  0  0  0
   -4.8517    2.8327    0.2854 C   0  0  0  0  0  0  0  0  0  0  0  0
   -2.5301    2.8739    1.3220 C   0  0  0  0  0  0  0  0  0  0  0  0
    6.1203    2.9919    2.9582 H   0  0  0  0  0  0  0  0  0  0  0  0
    2.3428    2.2180    0.2090 H   0  0  0  0  0  0  0  0  0  0  0  0
    2.4257    2.7057    1.9231 H   0  0  0  0  0  0  0  0  0  0  0  0
    1.2775    0.5257    0.9211 H   0  0  0  0  0  0  0  0  0  0  0  0
    5.3208   -0.9936    1.1320 H   0  0  0  0  0  0  0  0  0  0  0  0
    3.2263    4.5130    0.4432 H   0  0  0  0  0  0  0  0  0  0  0  0
    4.3926    3.4132   -0.3328 H   0  0  0  0  0  0  0  0  0  0  0  0
    4.4961   -3.2223    0.6064 H   0  0  0  0  0  0  0  0  0  0  0  0
    2.0901   -3.6177    0.1830 H   0  0  0  0  0  0  0  0  0  0  0  0
   -0.4966   -0.8561    0.4334 H   0  0  0  0  0  0  0  0  0  0  0  0
   -0.2734   -2.4756    1.0581 H   0  0  0  0  0  0  0  0  0  0  0  0
   -1.8048   -3.1807   -2.2148 H   0  0  0  0  0  0  0  0  0  0  0  0
    1.1810   -1.2793   -2.1711 H   0  0  0  0  0  0  0  0  0  0  0  0
   -0.0288   -2.0738   -3.1149 H   0  0  0  0  0  0  0  0  0  0  0  0
   -3.7197   -2.4384   -1.0456 H   0  0  0  0  0  0  0  0  0  0  0  0
   -2.8362   -2.0610    0.4224 H   0  0  0  0  0  0  0  0  0  0  0  0
   -0.2958    0.3076   -3.2630 H   0  0  0  0  0  0  0  0  0  0  0  0
   -0.3702    0.5114   -1.5205 H   0  0  0  0  0  0  0  0  0  0  0  0
   -2.5885    0.6117   -2.7913 H   0  0  0  0  0  0  0  0  0  0  0  0
   -2.4519   -1.1013   -3.1320 H   0  0  0  0  0  0  0  0  0  0  0  0
    0.1187   -6.9958   -0.7102 H   0  0  0  0  0  0  0  0  0  0  0  0
   -1.6381   -6.9426   -0.4603 H   0  0  0  0  0  0  0  0  0  0  0  0
   -0.5154   -6.3048    0.7965 H   0  0  0  0  0  0  0  0  0  0  0  0
   -3.4912    3.9075   -1.8357 H   0  0  0  0  0  0  0  0  0  0  0  0
   -1.8893    3.9358   -1.1192 H   0  0  0  0  0  0  0  0  0  0  0  0
   -3.1857    4.9236   -0.4095 H   0  0  0  0  0  0  0  0  0  0  0  0
   -5.1489    3.7982    0.7089 H   0  0  0  0  0  0  0  0  0  0  0  0
   -5.1751    2.0565    0.9852 H   0  0  0  0  0  0  0  0  0  0  0  0
   -5.4117    2.6720   -0.6428 H   0  0  0  0  0  0  0  0  0  0  0  0
   -2.6766    3.8414    1.8142 H   0  0  0  0  0  0  0  0  0  0  0  0
   -2.8112    2.0970    2.0393 H   0  0  0  0  0  0  0  0  0  0  0  0
   -1.4607    2.7431    1.1210 H   0  0  0  0  0  0  0  0  0  0  0  0
  1  2  2  0
  2  3  1  0
  2  4  1  0
  3  5  1  0
  3  6  1  0
  4  7  1  0
  5  8  2  0
  5  9  1  0
  6 10  1  0
  7 11  2  0
  7 10  1  0
  8 12  1  0
  9 13  2  0
 12 14  2  0
 12 15  1  0
 13 14  1  0
 15 16  1  0
 16 17  1  0
 16 18  1  0
 17 19  1  0
 17 20  1  0
 18 21  1  0
 19 22  2  0
 19 23  1  0
 20 24  1  0
 21 25  1  0
 23 26  1  0
 24 27  1  0
 24 25  1  0
 27 28  2  0
 27 29  1  0
 29 30  1  0
 30 31  1  0
 30 32  1  0
 30 33  1  0
  4 34  1  0
  6 35  1  0
  6 36  1  0
  8 37  1  0
  9 38  1  0
 10 39  1  0
 10 40  1  0
 13 41  1  0
 14 42  1  0
 15 43  1  0
 15 44  1  0
 17 45  1  6
 18 46  1  0
 18 47  1  0
 20 48  1  0
 20 49  1  0
 21 50  1  0
 21 51  1  0
 25 52  1  0
 25 53  1  0
 26 54  1  0
 26 55  1  0
 26 56  1  0
 31 57  1  0
 31 58  1  0
 31 59  1  0
 32 60  1  0
 32 61  1  0
 32 62  1  0
 33 63  1  0
 33 64  1  0
 33 65  1  0
M  END
