Compound 1
 OpenBabel09072606582D

 33 35  0  0  0  0  0  0  0  0999 V2000
   -3.8301    4.6906    0.0000 O   0  0  0  0  0  0  0  0  0  0  0  0
   -3.8301    3.6906    0.0000 C   0  0  0  0  0  0  0  0  0  0  0  0
   -2.9641    3.1906    0.0000 N   0  0  0  0  0  0  0  0  0  0  0  0
   -4.6962    3.1906    0.0000 N   0  0  0  0  0  0  0  0  0  0  0  0
   -2.0981    3.6906    0.0000 C   0  0  0  0  0  0  0  0  0  0  0  0
   -2.9641    2.1906    0.0000 C   0  0  0  0  0  0  0  0  0  0  0  0
   -4.6962    2.1906    0.0000 C   0  0  0  0  0  0  0  0  0  0  0  0
   -1.2321    3.1906    0.0000 C   0  0  0  0  0  0  0  0  0  0  0  0
   -2.0981    4.6906    0.0000 C   0  0  0  0  0  0  0  0  0  0  0  0
   -3.8301    1.6906    0.0000 C   0  0  0  0  0  0  0  0  0  0  0  0
   -5.5622    1.6906    0.0000 O   0  0  0  0  0  0  0  0  0  0  0  0
   -0.3660    3.6906    0.0000 C   0  0  0  0  0  0  0  0  0  0  0  0
   -1.2321    5.1906    0.0000 C   0  0  0  0  0  0  0  0  0  0  0  0
   -0.3660    4.6906    0.0000 C   0  0  0  0  0  0  0  0  0  0  0  0
    0.5000    3.1906    0.0000 C   0  0  0  0  0  0  0  0  0  0  0  0
    0.5000    2.1906    0.0000 N   0  0  0  0  0  0  0  0  0  0  0  0
    1.4010    1.7568    0.0000 C   0  0  2  0  0  0  0  0  0  0  0  0
   -0.4010    1.7568    0.0000 C   0  0  0  0  0  0  0  0  0  0  0  0
    2.1828    2.3802    0.0000 C   0  0  0  0  0  0  0  0  0  0  0  0
    1.6235    0.7818    0.0000 C   0  0  0  0  0  0  0  0  0  0  0  0
   -0.6235    0.7818    0.0000 C   0  0  0  0  0  0  0  0  0  0  0  0
    3.1137    2.0149    0.0000 O   0  0  0  0  0  0  0  0  0  0  0  0
    2.0338    3.3691    0.0000 O   0  0  0  0  0  0  0  0  0  0  0  0
    1.0000    0.0000    0.0000 N   0  0  0  0  0  0  0  0  0  0  0  0
    0.0000   -0.0000    0.0000 C   0  0  0  0  0  0  0  0  0  0  0  0
    2.8156    3.9926    0.0000 C   0  0  0  0  0  0  0  0  0  0  0  0
    1.4339   -0.9010    0.0000 C   0  0  0  0  0  0  0  0  0  0  0  0
    0.8706   -1.7272    0.0000 O   0  0  0  0  0  0  0  0  0  0  0  0
    2.4311   -0.9757    0.0000 O   0  0  0  0  0  0  0  0  0  0  0  0
    2.8650   -1.8767    0.0000 C   0  0  0  0  0  0  0  0  0  0  0  0
    3.6912   -2.4400    0.0000 C   0  0  0  0  0  0  0  0  0  0  0  0
    3.7659   -1.4428    0.0000 C   0  0  0  0  0  0  0  0  0  0  0  0
    2.3017   -2.7029    0.0000 C   0  0  0  0  0  0  0  0  0  0  0  0
  1  2  2  0  0  0  0
  2  3  1  0  0  0  0
  2  4  1  0  0  0  0
  3  5  1  0  0  0  0
  3  6  1  0  0  0  0
  4  7  1  0  0  0  0
  5  8  2  0  0  0  0
  5  9  1  0  0  0  0
  6 10  1  0  0  0  0
  7 11  2  0  0  0  0
  7 10  1  0  0  0  0
  8 12  1  0  0  0  0
  9 13  2  0  0  0  0
 12 14  2  0  0  0  0
 12 15  1  0  0  0  0
 13 14  1  0  0  0  0
 15 16  1  0  0  0  0
 16 17  1  0  0  0  0
 16 18  1  0  0  0  0
 17 19  1  6  0  0  0
 17 20  1  0  0  0  0
 18 21  1  0  0  0  0
 19 22  2  0  0  0  0
 19 23  1  0  0  0  0
 20 24  1  0  0  0  0
 21 25  1  0  0  0  0
 23 26  1  0  0  0  0
 24 27  1  0  0  0  0
 24 25  1  0  0  0  0
 27 28  2  0  0  0  0
 27 29  1  0  0  0  0
 29 30  1  0  0  0  0
 30 31  1  0  0  0  0
 30 32  1  0  0  0  0
 30 33  1  0  0  0  0
M  END
>  <Molecule Name>
Compound 1

>  <EC50 (µM) (Excel)>
49.5

>  <Error (µM)>
6.2

>  <HTRC CRBN-DDB1 EC50 (µM)>
49.46 ±  6.19

>  <EC50 fitting (µM)>
60.01

>  <Modèle Fitting>
3PL

$$$$
Compound 4
 OpenBabel09072606582D

 28 31  0  0  0  0  0  0  0  0999 V2000
    3.1748    2.7917    0.0000 O   0  0  0  0  0  0  0  0  0  0  0  0
    3.9868    2.3229    0.0000 C   0  0  0  0  0  0  0  0  0  0  0  0
    3.9868    1.3852    0.0000 N   0  0  0  0  0  0  0  0  0  0  0  0
    4.7988    2.7917    0.0000 N   0  0  0  0  0  0  0  0  0  0  0  0
    3.1748    0.9164    0.0000 C   0  0  0  0  0  0  0  0  0  0  0  0
    4.7988    0.9164    0.0000 C   0  0  0  0  0  0  0  0  0  0  0  0
    5.6108    2.3229    0.0000 C   0  0  0  0  0  0  0  0  0  0  0  0
    2.3812    1.3746    0.0000 C   0  0  0  0  0  0  0  0  0  0  0  0
    3.1748   -0.0000    0.0000 C   0  0  0  0  0  0  0  0  0  0  0  0
    5.6108    1.3852    0.0000 C   0  0  0  0  0  0  0  0  0  0  0  0
    6.4228    2.7917    0.0000 O   0  0  0  0  0  0  0  0  0  0  0  0
    1.5875    0.9164    0.0000 C   0  0  0  0  0  0  0  0  0  0  0  0
    2.3812   -0.4582    0.0000 C   0  0  0  0  0  0  0  0  0  0  0  0
    1.5875   -0.0000    0.0000 C   0  0  0  0  0  0  0  0  0  0  0  0
    0.7938    1.3747    0.0000 C   0  0  1  0  0  0  0  0  0  0  0  0
    0.7938   -0.4583    0.0000 C   0  0  2  0  0  0  0  0  0  0  0  0
    0.3914    0.4581    0.0000 N   0  0  0  0  0  0  0  0  0  0  0  0
    0.0000    0.9164    0.0000 C   0  0  2  0  0  0  0  0  0  0  0  0
    0.0000   -0.0000    0.0000 C   0  0  1  0  0  0  0  0  0  0  0  0
   -1.6103    0.4581    0.0000 C   0  0  0  0  0  0  0  0  0  0  0  0
   -0.8221    1.3910    0.0000 O   0  0  0  0  0  0  0  0  0  0  0  0
   -0.8221   -0.4746    0.0000 O   0  0  0  0  0  0  0  0  0  0  0  0
   -2.1986   -0.3516    0.0000 O   0  0  0  0  0  0  0  0  0  0  0  0
   -2.0174    1.3724    0.0000 O   0  0  0  0  0  0  0  0  0  0  0  0
   -3.0128    1.4771    0.0000 C   0  0  0  0  0  0  0  0  0  0  0  0
   -3.8225    2.0654    0.0000 C   0  0  0  0  0  0  0  0  0  0  0  0
   -2.9082    2.4724    0.0000 C   0  0  0  0  0  0  0  0  0  0  0  0
   -3.6011    0.6674    0.0000 C   0  0  0  0  0  0  0  0  0  0  0  0
  1  2  2  0  0  0  0
  2  3  1  0  0  0  0
  2  4  1  0  0  0  0
  3  5  1  0  0  0  0
  3  6  1  0  0  0  0
  4  7  1  0  0  0  0
  5  8  2  0  0  0  0
  5  9  1  0  0  0  0
  6 10  1  0  0  0  0
  7 11  2  0  0  0  0
  7 10  1  0  0  0  0
  8 12  1  0  0  0  0
  9 13  2  0  0  0  0
 12 14  2  0  0  0  0
 13 14  1  0  0  0  0
 15 12  1  1  0  0  0
 15 17  1  0  0  0  0
 15 18  1  0  0  0  0
 16 14  1  1  0  0  0
 16 19  1  0  0  0  0
 16 17  1  0  0  0  0
 17 20  1  0  0  0  0
 18 21  1  6  0  0  0
 18 19  1  0  0  0  0
 19 22  1  6  0  0  0
 20 23  2  0  0  0  0
 20 24  1  0  0  0  0
 24 25  1  0  0  0  0
 25 26  1  0  0  0  0
 25 27  1  0  0  0  0
 25 28  1  0  0  0  0
M  END
>  <Molecule Name>
Compound 4

>  <EC50 (µM) (Excel)>
11.8

>  <Error (µM)>
7.4

>  <HTRC CRBN-DDB1 EC50 (µM)>
11.78 ±  7.41

>  <EC50 fitting (µM)>
15.10

>  <Modèle Fitting>
4PL

$$$$
Compound 7
 OpenBabel09072606582D

 34 36  0  0  0  0  0  0  0  0999 V2000
    5.1612    1.0661    0.0000 S   0  0  0  0  0  0  0  0  0  0  0  0
    4.7959    1.9970    0.0000 O   0  0  0  0  0  0  0  0  0  0  0  0
    4.1724    1.2152    0.0000 O   0  0  0  0  0  0  0  0  0  0  0  0
    6.0622    1.5000    0.0000 N   0  0  0  0  0  0  0  0  0  0  0  0
    4.9387    0.0912    0.0000 C   0  0  0  0  0  0  0  0  0  0  0  0
    6.9631    1.0661    0.0000 C   0  0  0  0  0  0  0  0  0  0  0  0
    6.0622    2.5000    0.0000 C   0  0  0  0  0  0  0  0  0  0  0  0
    5.5622   -0.6906    0.0000 C   0  0  0  0  0  0  0  0  0  0  0  0
    7.1857    0.0912    0.0000 C   0  0  0  0  0  0  0  0  0  0  0  0
    5.1962    3.0000    0.0000 C   0  0  0  0  0  0  0  0  0  0  0  0
    6.5622   -0.6906    0.0000 N   0  0  0  0  0  0  0  0  0  0  0  0
    4.3301    2.5000    0.0000 C   0  0  0  0  0  0  0  0  0  0  0  0
    5.1962    4.0000    0.0000 C   0  0  0  0  0  0  0  0  0  0  0  0
    6.9961   -1.5916    0.0000 C   0  0  0  0  0  0  0  0  0  0  0  0
    3.4641    3.0000    0.0000 C   0  0  0  0  0  0  0  0  0  0  0  0
    4.3301    4.5000    0.0000 C   0  0  0  0  0  0  0  0  0  0  0  0
    6.4327   -2.4179    0.0000 O   0  0  0  0  0  0  0  0  0  0  0  0
    7.9933   -1.6663    0.0000 O   0  0  0  0  0  0  0  0  0  0  0  0
    2.5981    2.5000    0.0000 C   0  0  0  0  0  0  0  0  0  0  0  0
    3.4641    4.0000    0.0000 C   0  0  0  0  0  0  0  0  0  0  0  0
    8.4271   -2.5673    0.0000 C   0  0  0  0  0  0  0  0  0  0  0  0
    1.7321    3.0000    0.0000 O   0  0  0  0  0  0  0  0  0  0  0  0
    2.5981    1.5000    0.0000 N   0  0  0  0  0  0  0  0  0  0  0  0
    9.2534   -3.1306    0.0000 C   0  0  0  0  0  0  0  0  0  0  0  0
    9.3281   -2.1334    0.0000 C   0  0  0  0  0  0  0  0  0  0  0  0
    7.8638   -3.3935    0.0000 C   0  0  0  0  0  0  0  0  0  0  0  0
    1.7321    1.0000    0.0000 C   0  0  2  0  0  0  0  0  0  0  0  0
    1.7321    0.0000    0.0000 C   0  0  0  0  0  0  0  0  0  0  0  0
    0.8660    1.5000    0.0000 C   0  0  0  0  0  0  0  0  0  0  0  0
    2.5981   -0.5000    0.0000 O   0  0  0  0  0  0  0  0  0  0  0  0
    0.8660   -0.5000    0.0000 N   0  0  0  0  0  0  0  0  0  0  0  0
   -0.0000    1.0000    0.0000 C   0  0  0  0  0  0  0  0  0  0  0  0
    0.0000    0.0000    0.0000 C   0  0  0  0  0  0  0  0  0  0  0  0
   -0.8660   -0.5000    0.0000 O   0  0  0  0  0  0  0  0  0  0  0  0
  1  2  2  0  0  0  0
  1  3  2  0  0  0  0
  1  4  1  0  0  0  0
  1  5  1  0  0  0  0
  4  6  1  0  0  0  0
  4  7  1  0  0  0  0
  5  8  1  0  0  0  0
  6  9  1  0  0  0  0
  7 10  1  0  0  0  0
  8 11  1  0  0  0  0
  9 11  1  0  0  0  0
 10 12  2  0  0  0  0
 10 13  1  0  0  0  0
 11 14  1  0  0  0  0
 12 15  1  0  0  0  0
 13 16  2  0  0  0  0
 14 17  2  0  0  0  0
 14 18  1  0  0  0  0
 15 19  1  0  0  0  0
 15 20  2  0  0  0  0
 16 20  1  0  0  0  0
 18 21  1  0  0  0  0
 19 22  2  0  0  0  0
 19 23  1  0  0  0  0
 21 24  1  0  0  0  0
 21 25  1  0  0  0  0
 21 26  1  0  0  0  0
 27 23  1  6  0  0  0
 27 28  1  0  0  0  0
 27 29  1  0  0  0  0
 28 30  2  0  0  0  0
 28 31  1  0  0  0  0
 29 32  1  0  0  0  0
 31 33  1  0  0  0  0
 32 33  1  0  0  0  0
 33 34  2  0  0  0  0
M  END
>  <Molecule Name>
Compound 7

>  <EC50 (µM) (Excel)>
4.1

>  <Error (µM)>
0.2

>  <HTRC CRBN-DDB1 EC50 (µM)>
4.06 ±  0.18

>  <EC50 fitting (µM)>
3.77

>  <Modèle Fitting>
4PL

$$$$
Compound 8
 OpenBabel09072606582D

 28 29  0  0  0  0  0  0  0  0999 V2000
    0.5000   -6.6774    0.0000 Cl  0  0  0  0  0  0  0  0  0  0  0  0
    9.1205   -2.7407    0.0000 S   0  0  0  0  0  0  0  0  0  0  0  0
    8.4970   -3.5225    0.0000 O   0  0  0  0  0  0  0  0  0  0  0  0
    9.4858   -3.6716    0.0000 O   0  0  0  0  0  0  0  0  0  0  0  0
    8.2942   -2.1774    0.0000 N   0  0  0  0  0  0  0  0  0  0  0  0
   10.0760   -2.4459    0.0000 C   0  0  0  0  0  0  0  0  0  0  0  0
    8.2195   -1.1802    0.0000 C   0  0  0  0  0  0  0  0  0  0  0  0
    7.4282   -2.6774    0.0000 C   0  0  0  0  0  0  0  0  0  0  0  0
   10.4414   -1.5151    0.0000 C   0  0  0  0  0  0  0  0  0  0  0  0
    8.9526   -0.5000    0.0000 C   0  0  0  0  0  0  0  0  0  0  0  0
    6.5622   -2.1774    0.0000 C   0  0  0  0  0  0  0  0  0  0  0  0
    9.9414   -0.6490    0.0000 N   0  0  0  0  0  0  0  0  0  0  0  0
    5.6962   -2.6774    0.0000 C   0  0  0  0  0  0  0  0  0  0  0  0
    6.5622   -1.1774    0.0000 C   0  0  0  0  0  0  0  0  0  0  0  0
    4.8301   -2.1774    0.0000 C   0  0  0  0  0  0  0  0  0  0  0  0
    5.6962   -0.6774    0.0000 C   0  0  0  0  0  0  0  0  0  0  0  0
    3.9641   -2.6774    0.0000 C   0  0  0  0  0  0  0  0  0  0  0  0
    4.8301   -1.1774    0.0000 C   0  0  0  0  0  0  0  0  0  0  0  0
    3.0981   -2.1774    0.0000 O   0  0  0  0  0  0  0  0  0  0  0  0
    3.9641   -3.6774    0.0000 N   0  0  0  0  0  0  0  0  0  0  0  0
    3.0981   -4.1774    0.0000 C   0  0  2  0  0  0  0  0  0  0  0  0
    3.0981   -5.1774    0.0000 C   0  0  0  0  0  0  0  0  0  0  0  0
    2.2321   -3.6774    0.0000 C   0  0  0  0  0  0  0  0  0  0  0  0
    3.9641   -5.6774    0.0000 O   0  0  0  0  0  0  0  0  0  0  0  0
    2.2321   -5.6774    0.0000 N   0  0  0  0  0  0  0  0  0  0  0  0
    1.3660   -4.1774    0.0000 C   0  0  0  0  0  0  0  0  0  0  0  0
    1.3660   -5.1774    0.0000 C   0  0  0  0  0  0  0  0  0  0  0  0
    0.5000   -5.6774    0.0000 O   0  0  0  0  0  0  0  0  0  0  0  0
  2  3  2  0  0  0  0
  2  4  2  0  0  0  0
  2  5  1  0  0  0  0
  2  6  1  0  0  0  0
  5  7  1  0  0  0  0
  5  8  1  0  0  0  0
  6  9  1  0  0  0  0
  7 10  1  0  0  0  0
  8 11  1  0  0  0  0
  9 12  1  0  0  0  0
 10 12  1  0  0  0  0
 11 13  2  0  0  0  0
 11 14  1  0  0  0  0
 13 15  1  0  0  0  0
 14 16  2  0  0  0  0
 15 17  1  0  0  0  0
 15 18  2  0  0  0  0
 16 18  1  0  0  0  0
 17 19  2  0  0  0  0
 17 20  1  0  0  0  0
 21 20  1  6  0  0  0
 21 22  1  0  0  0  0
 21 23  1  0  0  0  0
 22 24  2  0  0  0  0
 22 25  1  0  0  0  0
 23 26  1  0  0  0  0
 25 27  1  0  0  0  0
 26 27  1  0  0  0  0
 27 28  2  0  0  0  0
M  END
>  <Molecule Name>
Compound 8

>  <EC50 (µM) (Excel)>
6.8

>  <Error (µM)>
1.0

>  <HTRC CRBN-DDB1 EC50 (µM)>
6.77 ±  1.02

>  <EC50 fitting (µM)>
7.19

>  <Modèle Fitting>
4PL

$$$$
Compound 9
 OpenBabel09072606582D

 33 35  0  0  0  0  0  0  0  0999 V2000
    5.1612    1.0661    0.0000 S   0  0  0  0  0  0  0  0  0  0  0  0
    4.7959    1.9970    0.0000 O   0  0  0  0  0  0  0  0  0  0  0  0
    4.1724    1.2152    0.0000 O   0  0  0  0  0  0  0  0  0  0  0  0
    6.0622    1.5000    0.0000 N   0  0  0  0  0  0  0  0  0  0  0  0
    4.9387    0.0912    0.0000 C   0  0  0  0  0  0  0  0  0  0  0  0
    6.9631    1.0661    0.0000 C   0  0  0  0  0  0  0  0  0  0  0  0
    6.0622    2.5000    0.0000 C   0  0  0  0  0  0  0  0  0  0  0  0
    5.5622   -0.6906    0.0000 C   0  0  0  0  0  0  0  0  0  0  0  0
    7.1857    0.0912    0.0000 C   0  0  0  0  0  0  0  0  0  0  0  0
    5.1962    3.0000    0.0000 C   0  0  0  0  0  0  0  0  0  0  0  0
    6.5622   -0.6906    0.0000 N   0  0  0  0  0  0  0  0  0  0  0  0
    4.3301    2.5000    0.0000 C   0  0  0  0  0  0  0  0  0  0  0  0
    5.1962    4.0000    0.0000 C   0  0  0  0  0  0  0  0  0  0  0  0
    6.9961   -1.5916    0.0000 C   0  0  0  0  0  0  0  0  0  0  0  0
    3.4641    3.0000    0.0000 C   0  0  0  0  0  0  0  0  0  0  0  0
    4.3301    4.5000    0.0000 C   0  0  0  0  0  0  0  0  0  0  0  0
    6.4327   -2.4179    0.0000 O   0  0  0  0  0  0  0  0  0  0  0  0
    7.9933   -1.6663    0.0000 C   0  0  0  0  0  0  0  0  0  0  0  0
    2.5981    2.5000    0.0000 C   0  0  0  0  0  0  0  0  0  0  0  0
    3.4641    4.0000    0.0000 C   0  0  0  0  0  0  0  0  0  0  0  0
    8.4271   -2.5673    0.0000 N   0  0  0  0  0  0  0  0  0  0  0  0
    1.7321    3.0000    0.0000 O   0  0  0  0  0  0  0  0  0  0  0  0
    2.5981    1.5000    0.0000 N   0  0  0  0  0  0  0  0  0  0  0  0
    7.8638   -3.3935    0.0000 C   0  0  0  0  0  0  0  0  0  0  0  0
    9.4244   -2.6420    0.0000 C   0  0  0  0  0  0  0  0  0  0  0  0
    1.7321    1.0000    0.0000 C   0  0  2  0  0  0  0  0  0  0  0  0
    1.7321    0.0000    0.0000 C   0  0  0  0  0  0  0  0  0  0  0  0
    0.8660    1.5000    0.0000 C   0  0  0  0  0  0  0  0  0  0  0  0
    2.5981   -0.5000    0.0000 O   0  0  0  0  0  0  0  0  0  0  0  0
    0.8660   -0.5000    0.0000 N   0  0  0  0  0  0  0  0  0  0  0  0
   -0.0000    1.0000    0.0000 C   0  0  0  0  0  0  0  0  0  0  0  0
   -0.0000   -0.0000    0.0000 C   0  0  0  0  0  0  0  0  0  0  0  0
   -0.8660   -0.5000    0.0000 O   0  0  0  0  0  0  0  0  0  0  0  0
  1  2  2  0  0  0  0
  1  3  2  0  0  0  0
  1  4  1  0  0  0  0
  1  5  1  0  0  0  0
  4  6  1  0  0  0  0
  4  7  1  0  0  0  0
  5  8  1  0  0  0  0
  6  9  1  0  0  0  0
  7 10  1  0  0  0  0
  8 11  1  0  0  0  0
  9 11  1  0  0  0  0
 10 12  2  0  0  0  0
 10 13  1  0  0  0  0
 11 14  1  0  0  0  0
 12 15  1  0  0  0  0
 13 16  2  0  0  0  0
 14 17  2  0  0  0  0
 14 18  1  0  0  0  0
 15 19  1  0  0  0  0
 15 20  2  0  0  0  0
 16 20  1  0  0  0  0
 18 21  1  0  0  0  0
 19 22  2  0  0  0  0
 19 23  1  0  0  0  0
 21 24  1  0  0  0  0
 21 25  1  0  0  0  0
 26 23  1  6  0  0  0
 26 27  1  0  0  0  0
 26 28  1  0  0  0  0
 27 29  2  0  0  0  0
 27 30  1  0  0  0  0
 28 31  1  0  0  0  0
 30 32  1  0  0  0  0
 31 32  1  0  0  0  0
 32 33  2  0  0  0  0
M  END
>  <Molecule Name>
Compound 9

>  <EC50 (µM) (Excel)>
54.0

>  <Error (µM)>
9.3

>  <HTRC CRBN-DDB1 EC50 (µM)>
53.95 ±  9.32

>  <EC50 fitting (µM)>
108.30

>  <Modèle Fitting>
4PL

$$$$
Compound 10
 OpenBabel09072606582D

 37 40  0  0  0  0  0  0  0  0999 V2000
    1.6573    5.0028    0.0000 S   0  0  0  0  0  0  0  0  0  0  0  0
    0.6685    5.1518    0.0000 O   0  0  0  0  0  0  0  0  0  0  0  0
    1.0338    4.2210    0.0000 O   0  0  0  0  0  0  0  0  0  0  0  0
    1.7321    6.0000    0.0000 N   0  0  0  0  0  0  0  0  0  0  0  0
    2.3904    4.3226    0.0000 C   0  0  0  0  0  0  0  0  0  0  0  0
    2.5583    6.5633    0.0000 C   0  0  0  0  0  0  0  0  0  0  0  0
    0.8660    6.5000    0.0000 C   0  0  0  0  0  0  0  0  0  0  0  0
    3.3792    4.4717    0.0000 C   0  0  0  0  0  0  0  0  0  0  0  0
    3.5139    6.2686    0.0000 C   0  0  0  0  0  0  0  0  0  0  0  0
    0.0000    6.0000    0.0000 C   0  0  0  0  0  0  0  0  0  0  0  0
    3.8792    5.3377    0.0000 N   0  0  0  0  0  0  0  0  0  0  0  0
    0.0000    5.0000    0.0000 C   0  0  0  0  0  0  0  0  0  0  0  0
   -0.8660    6.5000    0.0000 C   0  0  0  0  0  0  0  0  0  0  0  0
    4.8764    5.2630    0.0000 C   0  0  0  0  0  0  0  0  0  0  0  0
   -0.8660    4.5000    0.0000 C   0  0  0  0  0  0  0  0  0  0  0  0
   -1.7321    6.0000    0.0000 C   0  0  0  0  0  0  0  0  0  0  0  0
    5.3103    4.3620    0.0000 O   0  0  0  0  0  0  0  0  0  0  0  0
    5.4397    6.0892    0.0000 C   0  0  0  0  0  0  0  0  0  0  0  0
   -0.8660    3.5000    0.0000 C   0  0  0  0  0  0  0  0  0  0  0  0
   -1.7321    5.0000    0.0000 C   0  0  0  0  0  0  0  0  0  0  0  0
    6.4369    6.0145    0.0000 O   0  0  0  0  0  0  0  0  0  0  0  0
   -1.7321    3.0000    0.0000 O   0  0  0  0  0  0  0  0  0  0  0  0
    0.0000    3.0000    0.0000 N   0  0  0  0  0  0  0  0  0  0  0  0
    6.8708    5.1135    0.0000 C   0  0  0  0  0  0  0  0  0  0  0  0
    0.0000    2.0000    0.0000 C   0  0  2  0  0  0  0  0  0  0  0  0
    7.8680    5.0388    0.0000 C   0  0  0  0  0  0  0  0  0  0  0  0
    6.3075    4.2873    0.0000 C   0  0  0  0  0  0  0  0  0  0  0  0
    0.8660    1.5000    0.0000 C   0  0  0  0  0  0  0  0  0  0  0  0
   -0.8660    1.5000    0.0000 C   0  0  0  0  0  0  0  0  0  0  0  0
    8.3019    4.1378    0.0000 C   0  0  0  0  0  0  0  0  0  0  0  0
    6.7414    3.3863    0.0000 C   0  0  0  0  0  0  0  0  0  0  0  0
    1.7321    2.0000    0.0000 O   0  0  0  0  0  0  0  0  0  0  0  0
    0.8660    0.5000    0.0000 N   0  0  0  0  0  0  0  0  0  0  0  0
   -0.8660    0.5000    0.0000 C   0  0  0  0  0  0  0  0  0  0  0  0
    7.7386    3.3116    0.0000 C   0  0  0  0  0  0  0  0  0  0  0  0
   -0.0000   -0.0000    0.0000 C   0  0  0  0  0  0  0  0  0  0  0  0
   -0.0000   -1.0000    0.0000 O   0  0  0  0  0  0  0  0  0  0  0  0
  1  2  2  0  0  0  0
  1  3  2  0  0  0  0
  1  4  1  0  0  0  0
  1  5  1  0  0  0  0
  4  6  1  0  0  0  0
  4  7  1  0  0  0  0
  5  8  1  0  0  0  0
  6  9  1  0  0  0  0
  7 10  1  0  0  0  0
  8 11  1  0  0  0  0
  9 11  1  0  0  0  0
 10 12  2  0  0  0  0
 10 13  1  0  0  0  0
 11 14  1  0  0  0  0
 12 15  1  0  0  0  0
 13 16  2  0  0  0  0
 14 17  2  0  0  0  0
 14 18  1  0  0  0  0
 15 19  1  0  0  0  0
 15 20  2  0  0  0  0
 16 20  1  0  0  0  0
 18 21  1  0  0  0  0
 19 22  2  0  0  0  0
 19 23  1  0  0  0  0
 21 24  1  0  0  0  0
 24 26  2  0  0  0  0
 24 27  1  0  0  0  0
 25 23  1  6  0  0  0
 25 28  1  0  0  0  0
 25 29  1  0  0  0  0
 26 30  1  0  0  0  0
 27 31  2  0  0  0  0
 28 32  2  0  0  0  0
 28 33  1  0  0  0  0
 29 34  1  0  0  0  0
 30 35  2  0  0  0  0
 31 35  1  0  0  0  0
 33 36  1  0  0  0  0
 34 36  1  0  0  0  0
 36 37  2  0  0  0  0
M  END
>  <Molecule Name>
Compound 10

>  <EC50 (µM) (Excel)>
14.3

>  <Error (µM)>
1.3

>  <HTRC CRBN-DDB1 EC50 (µM)>
14.29 ±  1.32

>  <EC50 fitting (µM)>
23.96

>  <Modèle Fitting>
3PL

$$$$
Compound 11
 OpenBabel09072606582D

 35 38  0  0  0  0  0  0  0  0999 V2000
    5.1612    1.0661    0.0000 S   0  0  0  0  0  0  0  0  0  0  0  0
    4.7959    1.9970    0.0000 O   0  0  0  0  0  0  0  0  0  0  0  0
    4.1724    1.2152    0.0000 O   0  0  0  0  0  0  0  0  0  0  0  0
    6.0622    1.5000    0.0000 N   0  0  0  0  0  0  0  0  0  0  0  0
    4.9387    0.0912    0.0000 C   0  0  0  0  0  0  0  0  0  0  0  0
    6.9631    1.0661    0.0000 C   0  0  0  0  0  0  0  0  0  0  0  0
    6.0622    2.5000    0.0000 C   0  0  0  0  0  0  0  0  0  0  0  0
    5.5622   -0.6906    0.0000 C   0  0  0  0  0  0  0  0  0  0  0  0
    7.1857    0.0912    0.0000 C   0  0  0  0  0  0  0  0  0  0  0  0
    5.1962    3.0000    0.0000 C   0  0  0  0  0  0  0  0  0  0  0  0
    6.5622   -0.6906    0.0000 N   0  0  0  0  0  0  0  0  0  0  0  0
    4.3301    2.5000    0.0000 C   0  0  0  0  0  0  0  0  0  0  0  0
    5.1962    4.0000    0.0000 C   0  0  0  0  0  0  0  0  0  0  0  0
    6.9961   -1.5916    0.0000 C   0  0  0  0  0  0  0  0  0  0  0  0
    3.4641    3.0000    0.0000 C   0  0  0  0  0  0  0  0  0  0  0  0
    4.3301    4.5000    0.0000 C   0  0  0  0  0  0  0  0  0  0  0  0
    6.4327   -2.4179    0.0000 O   0  0  0  0  0  0  0  0  0  0  0  0
    7.9933   -1.6663    0.0000 C   0  0  0  0  0  0  0  0  0  0  0  0
    2.5981    2.5000    0.0000 C   0  0  0  0  0  0  0  0  0  0  0  0
    3.4641    4.0000    0.0000 C   0  0  0  0  0  0  0  0  0  0  0  0
    8.5566   -0.8401    0.0000 N   0  0  0  0  0  0  0  0  0  0  0  0
    8.4271   -2.5673    0.0000 C   0  0  0  0  0  0  0  0  0  0  0  0
    1.7321    3.0000    0.0000 O   0  0  0  0  0  0  0  0  0  0  0  0
    2.5981    1.5000    0.0000 N   0  0  0  0  0  0  0  0  0  0  0  0
    9.5538   -0.9148    0.0000 C   0  0  0  0  0  0  0  0  0  0  0  0
    9.4244   -2.6420    0.0000 C   0  0  0  0  0  0  0  0  0  0  0  0
    1.7321    1.0000    0.0000 C   0  0  2  0  0  0  0  0  0  0  0  0
    9.9877   -1.8158    0.0000 C   0  0  0  0  0  0  0  0  0  0  0  0
    1.7321    0.0000    0.0000 C   0  0  0  0  0  0  0  0  0  0  0  0
    0.8660    1.5000    0.0000 C   0  0  0  0  0  0  0  0  0  0  0  0
    2.5981   -0.5000    0.0000 O   0  0  0  0  0  0  0  0  0  0  0  0
    0.8660   -0.5000    0.0000 N   0  0  0  0  0  0  0  0  0  0  0  0
   -0.0000    1.0000    0.0000 C   0  0  0  0  0  0  0  0  0  0  0  0
    0.0000    0.0000    0.0000 C   0  0  0  0  0  0  0  0  0  0  0  0
   -0.8660   -0.5000    0.0000 O   0  0  0  0  0  0  0  0  0  0  0  0
  1  2  2  0  0  0  0
  1  3  2  0  0  0  0
  1  4  1  0  0  0  0
  1  5  1  0  0  0  0
  4  6  1  0  0  0  0
  4  7  1  0  0  0  0
  5  8  1  0  0  0  0
  6  9  1  0  0  0  0
  7 10  1  0  0  0  0
  8 11  1  0  0  0  0
  9 11  1  0  0  0  0
 10 12  2  0  0  0  0
 10 13  1  0  0  0  0
 11 14  1  0  0  0  0
 12 15  1  0  0  0  0
 13 16  2  0  0  0  0
 14 17  2  0  0  0  0
 14 18  1  0  0  0  0
 15 19  1  0  0  0  0
 15 20  2  0  0  0  0
 16 20  1  0  0  0  0
 18 21  2  0  0  0  0
 18 22  1  0  0  0  0
 19 23  2  0  0  0  0
 19 24  1  0  0  0  0
 21 25  1  0  0  0  0
 22 26  2  0  0  0  0
 25 28  2  0  0  0  0
 26 28  1  0  0  0  0
 27 24  1  6  0  0  0
 27 29  1  0  0  0  0
 27 30  1  0  0  0  0
 29 31  2  0  0  0  0
 29 32  1  0  0  0  0
 30 33  1  0  0  0  0
 32 34  1  0  0  0  0
 33 34  1  0  0  0  0
 34 35  2  0  0  0  0
M  END
>  <Molecule Name>
Compound 11

>  <EC50 (µM) (Excel)>
37.7

>  <Error (µM)>
0.8

>  <HTRC CRBN-DDB1 EC50 (µM)>
37.72 ±  0.78

>  <EC50 fitting (µM)>
52.96

>  <Modèle Fitting>
3PL

$$$$
Compound 12
 OpenBabel09072606582D

 38 41  0  0  0  0  0  0  0  0999 V2000
   -5.9531    1.2294    0.0000 S   0  0  0  0  0  0  0  0  0  0  0  0
   -6.3184    2.1603    0.0000 O   0  0  0  0  0  0  0  0  0  0  0  0
   -6.9419    1.3785    0.0000 O   0  0  0  0  0  0  0  0  0  0  0  0
   -5.0521    1.6633    0.0000 N   0  0  0  0  0  0  0  0  0  0  0  0
   -6.1756    0.2545    0.0000 C   0  0  0  0  0  0  0  0  0  0  0  0
   -4.1512    1.2294    0.0000 C   0  0  0  0  0  0  0  0  0  0  0  0
   -5.0521    2.6633    0.0000 C   0  0  0  0  0  0  0  0  0  0  0  0
   -5.5521   -0.5273    0.0000 C   0  0  0  0  0  0  0  0  0  0  0  0
   -3.9286    0.2545    0.0000 C   0  0  0  0  0  0  0  0  0  0  0  0
   -5.9182    3.1633    0.0000 C   0  0  0  0  0  0  0  0  0  0  0  0
   -4.5521   -0.5273    0.0000 N   0  0  0  0  0  0  0  0  0  0  0  0
   -6.7842    2.6633    0.0000 C   0  0  0  0  0  0  0  0  0  0  0  0
   -5.9182    4.1633    0.0000 C   0  0  0  0  0  0  0  0  0  0  0  0
   -4.1183   -1.4283    0.0000 C   0  0  0  0  0  0  0  0  0  0  0  0
   -7.6502    3.1633    0.0000 C   0  0  0  0  0  0  0  0  0  0  0  0
   -6.7842    4.6633    0.0000 C   0  0  0  0  0  0  0  0  0  0  0  0
   -4.6816   -2.2545    0.0000 O   0  0  0  0  0  0  0  0  0  0  0  0
   -3.1210   -1.5030    0.0000 C   0  0  0  0  0  0  0  0  0  0  0  0
   -8.5162    2.6633    0.0000 C   0  0  0  0  0  0  0  0  0  0  0  0
   -7.6502    4.1633    0.0000 C   0  0  0  0  0  0  0  0  0  0  0  0
   -2.6872   -2.4040    0.0000 C   0  0  0  0  0  0  0  0  0  0  0  0
   -9.3823    3.1633    0.0000 O   0  0  0  0  0  0  0  0  0  0  0  0
   -8.5162    1.6633    0.0000 N   0  0  0  0  0  0  0  0  0  0  0  0
   -1.6900   -2.4787    0.0000 O   0  0  0  0  0  0  0  0  0  0  0  0
   -9.3823    1.1633    0.0000 C   0  0  2  0  0  0  0  0  0  0  0  0
   -1.1266   -1.6525    0.0000 C   0  0  0  0  0  0  0  0  0  0  0  0
   -9.3823    0.1633    0.0000 C   0  0  0  0  0  0  0  0  0  0  0  0
  -10.2483    1.6633    0.0000 C   0  0  0  0  0  0  0  0  0  0  0  0
   -0.1294   -1.7272    0.0000 C   0  0  0  0  0  0  0  0  0  0  0  0
   -1.5605   -0.7515    0.0000 C   0  0  0  0  0  0  0  0  0  0  0  0
   -8.5162   -0.3367    0.0000 O   0  0  0  0  0  0  0  0  0  0  0  0
  -10.2483   -0.3367    0.0000 N   0  0  0  0  0  0  0  0  0  0  0  0
  -11.1143    1.1633    0.0000 C   0  0  0  0  0  0  0  0  0  0  0  0
    0.4339   -0.9010    0.0000 C   0  0  0  0  0  0  0  0  0  0  0  0
   -0.9972    0.0747    0.0000 C   0  0  0  0  0  0  0  0  0  0  0  0
  -11.1143    0.1633    0.0000 C   0  0  0  0  0  0  0  0  0  0  0  0
    0.0000    0.0000    0.0000 C   0  0  0  0  0  0  0  0  0  0  0  0
  -11.9803   -0.3367    0.0000 O   0  0  0  0  0  0  0  0  0  0  0  0
  1  2  2  0  0  0  0
  1  3  2  0  0  0  0
  1  4  1  0  0  0  0
  1  5  1  0  0  0  0
  4  6  1  0  0  0  0
  4  7  1  0  0  0  0
  5  8  1  0  0  0  0
  6  9  1  0  0  0  0
  7 10  1  0  0  0  0
  8 11  1  0  0  0  0
  9 11  1  0  0  0  0
 10 12  2  0  0  0  0
 10 13  1  0  0  0  0
 11 14  1  0  0  0  0
 12 15  1  0  0  0  0
 13 16  2  0  0  0  0
 14 17  2  0  0  0  0
 14 18  1  0  0  0  0
 15 19  1  0  0  0  0
 15 20  2  0  0  0  0
 16 20  1  0  0  0  0
 18 21  1  0  0  0  0
 19 22  2  0  0  0  0
 19 23  1  0  0  0  0
 21 24  1  0  0  0  0
 24 26  1  0  0  0  0
 25 23  1  6  0  0  0
 25 27  1  0  0  0  0
 25 28  1  0  0  0  0
 26 29  2  0  0  0  0
 26 30  1  0  0  0  0
 27 31  2  0  0  0  0
 27 32  1  0  0  0  0
 28 33  1  0  0  0  0
 29 34  1  0  0  0  0
 30 35  2  0  0  0  0
 32 36  1  0  0  0  0
 33 36  1  0  0  0  0
 34 37  2  0  0  0  0
 35 37  1  0  0  0  0
 36 38  2  0  0  0  0
M  END
>  <Molecule Name>
Compound 12

>  <EC50 (µM) (Excel)>
61.9

>  <Error (µM)>
8.1

>  <HTRC CRBN-DDB1 EC50 (µM)>
61.88 ±  8.05

>  <EC50 fitting (µM)>
111.51

>  <Modèle Fitting>
4PL

$$$$
