Compound_1
     RDKit          3D

 65 67  0  0  0  0  0  0  0  0999 V2000
    6.2813    2.0532   -2.9488 O   0  0  0  0  0  0  0  0  0  0  0  0
    6.2733    2.0073   -1.7209 C   0  0  0  0  0  0  0  0  0  0  0  0
    5.4922    1.1686   -0.9197 N   0  0  0  0  0  0  0  0  0  0  0  0
    7.0954    2.8783   -1.0448 N   0  0  0  0  0  0  0  0  0  0  0  0
    4.6147    0.1759   -1.4806 C   0  0  0  0  0  0  0  0  0  0  0  0
    5.4390    1.4379    0.5154 C   0  0  0  0  0  0  0  0  0  0  0  0
    7.4062    2.8734    0.2856 C   0  0  0  0  0  0  0  0  0  0  0  0
    3.4650   -0.2524   -0.7943 C   0  0  0  0  0  0  0  0  0  0  0  0
    4.8798   -0.4155   -2.7231 C   0  0  0  0  0  0  0  0  0  0  0  0
    6.8082    1.7543    1.0757 C   0  0  0  0  0  0  0  0  0  0  0  0
    8.1805    3.6909    0.7737 O   0  0  0  0  0  0  0  0  0  0  0  0
    2.5977   -1.2267   -1.3271 C   0  0  0  0  0  0  0  0  0  0  0  0
    4.0345   -1.3917   -3.2609 C   0  0  0  0  0  0  0  0  0  0  0  0
    2.9002   -1.7982   -2.5659 C   0  0  0  0  0  0  0  0  0  0  0  0
    1.3662   -1.6688   -0.5593 C   0  0  0  0  0  0  0  0  0  0  0  0
    0.5169   -0.5383   -0.1297 N   0  0  0  0  0  0  0  0  0  0  0  0
   -0.3266   -0.9163    1.0469 C   0  0  2  0  0  0  0  0  0  0  0  0
   -0.2117    0.0437   -1.2671 C   0  0  0  0  0  0  0  0  0  0  0  0
   -1.2125   -2.1543    0.8327 C   0  0  0  0  0  0  0  0  0  0  0  0
   -1.1676    0.2308    1.6424 C   0  0  0  0  0  0  0  0  0  0  0  0
   -0.8005    1.4217   -0.9625 C   0  0  0  0  0  0  0  0  0  0  0  0
   -1.6218   -2.5752   -0.2423 O   0  0  0  0  0  0  0  0  0  0  0  0
   -1.4731   -2.7405    2.0398 O   0  0  0  0  0  0  0  0  0  0  0  0
   -2.3488    0.5888    0.8606 N   0  0  0  0  0  0  0  0  0  0  0  0
   -2.1990    1.3617   -0.3643 C   0  0  0  0  0  0  0  0  0  0  0  0
   -2.3808   -3.8402    1.9689 C   0  0  0  0  0  0  0  0  0  0  0  0
   -3.6004    0.1845    1.3084 C   0  0  0  0  0  0  0  0  0  0  0  0
   -3.7686   -0.5086    2.3035 O   0  0  0  0  0  0  0  0  0  0  0  0
   -4.6014    0.6427    0.5142 O   0  0  0  0  0  0  0  0  0  0  0  0
   -5.9854    0.3026    0.7819 C   0  0  0  0  0  0  0  0  0  0  0  0
   -6.7777    0.9940   -0.3384 C   0  0  0  0  0  0  0  0  0  0  0  0
   -6.2167   -1.2094    0.6820 C   0  0  0  0  0  0  0  0  0  0  0  0
   -6.4490    0.8678    2.1287 C   0  0  0  0  0  0  0  0  0  0  0  0
    7.5728    3.5572   -1.6192 H   0  0  0  0  0  0  0  0  0  0  0  0
    4.7528    2.2801    0.6681 H   0  0  0  0  0  0  0  0  0  0  0  0
    5.0637    0.5683    1.0639 H   0  0  0  0  0  0  0  0  0  0  0  0
    3.1798    0.1945    0.1542 H   0  0  0  0  0  0  0  0  0  0  0  0
    5.7653   -0.1553   -3.2966 H   0  0  0  0  0  0  0  0  0  0  0  0
    7.4752    0.8884    0.9994 H   0  0  0  0  0  0  0  0  0  0  0  0
    6.7316    2.0492    2.1269 H   0  0  0  0  0  0  0  0  0  0  0  0
    4.2699   -1.8340   -4.2258 H   0  0  0  0  0  0  0  0  0  0  0  0
    2.2528   -2.5564   -3.0004 H   0  0  0  0  0  0  0  0  0  0  0  0
    1.7434   -2.2173    0.3144 H   0  0  0  0  0  0  0  0  0  0  0  0
    0.7894   -2.3885   -1.1531 H   0  0  0  0  0  0  0  0  0  0  0  0
    0.3976   -1.1902    1.8279 H   0  0  0  0  0  0  0  0  0  0  0  0
   -0.9787   -0.6317   -1.6617 H   0  0  0  0  0  0  0  0  0  0  0  0
    0.4945    0.2054   -2.0910 H   0  0  0  0  0  0  0  0  0  0  0  0
   -1.4822   -0.0607    2.6520 H   0  0  0  0  0  0  0  0  0  0  0  0
   -0.5583    1.1323    1.7802 H   0  0  0  0  0  0  0  0  0  0  0  0
   -0.8676    1.9852   -1.9023 H   0  0  0  0  0  0  0  0  0  0  0  0
   -0.1224    1.9986   -0.3217 H   0  0  0  0  0  0  0  0  0  0  0  0
   -2.8891    0.9606   -1.1168 H   0  0  0  0  0  0  0  0  0  0  0  0
   -2.5389    2.3800   -0.1396 H   0  0  0  0  0  0  0  0  0  0  0  0
   -3.3330   -3.5273    1.5287 H   0  0  0  0  0  0  0  0  0  0  0  0
   -1.9392   -4.6616    1.3964 H   0  0  0  0  0  0  0  0  0  0  0  0
   -2.5700   -4.1895    2.9877 H   0  0  0  0  0  0  0  0  0  0  0  0
   -6.6079    2.0771   -0.3244 H   0  0  0  0  0  0  0  0  0  0  0  0
   -7.8537    0.8113   -0.2490 H   0  0  0  0  0  0  0  0  0  0  0  0
   -6.4474    0.6427   -1.3231 H   0  0  0  0  0  0  0  0  0  0  0  0
   -7.2844   -1.4520    0.7137 H   0  0  0  0  0  0  0  0  0  0  0  0
   -5.7963   -1.6062   -0.2490 H   0  0  0  0  0  0  0  0  0  0  0  0
   -5.7343   -1.7529    1.4999 H   0  0  0  0  0  0  0  0  0  0  0  0
   -7.5317    0.7591    2.2547 H   0  0  0  0  0  0  0  0  0  0  0  0
   -5.9701    0.3618    2.9722 H   0  0  0  0  0  0  0  0  0  0  0  0
   -6.1931    1.9299    2.2133 H   0  0  0  0  0  0  0  0  0  0  0  0
  1  2  2  0
  2  3  1  0
  2  4  1  0
  3  5  1  0
  3  6  1  0
  4  7  1  0
  5  8  2  0
  5  9  1  0
  6 10  1  0
  7 11  2  0
  7 10  1  0
  8 12  1  0
  9 13  2  0
 12 14  2  0
 12 15  1  0
 13 14  1  0
 15 16  1  0
 16 17  1  0
 16 18  1  0
 17 19  1  0
 17 20  1  0
 18 21  1  0
 19 22  2  0
 19 23  1  0
 20 24  1  0
 21 25  1  0
 23 26  1  0
 24 27  1  0
 24 25  1  0
 27 28  2  0
 27 29  1  0
 29 30  1  0
 30 31  1  0
 30 32  1  0
 30 33  1  0
  4 34  1  0
  6 35  1  0
  6 36  1  0
  8 37  1  0
  9 38  1  0
 10 39  1  0
 10 40  1  0
 13 41  1  0
 14 42  1  0
 15 43  1  0
 15 44  1  0
 17 45  1  1
 18 46  1  0
 18 47  1  0
 20 48  1  0
 20 49  1  0
 21 50  1  0
 21 51  1  0
 25 52  1  0
 25 53  1  0
 26 54  1  0
 26 55  1  0
 26 56  1  0
 31 57  1  0
 31 58  1  0
 31 59  1  0
 32 60  1  0
 32 61  1  0
 32 62  1  0
 33 63  1  0
 33 64  1  0
 33 65  1  0
M  END
>  <Molecule Name>  (1) 
Compound 1

>  <EC50 (µM) (Excel)>  (1) 
49.5

>  <Error (µM)>  (1) 
6.2

>  <HTRC CRBN-DDB1 EC50 (µM)>  (1) 
49.46 ±  6.19

>  <EC50 fitting (µM)>  (1) 
60.01

>  <Modèle Fitting>  (1) 
3PL

>  <Parent_Compound>  (1) 
Compound 1

>  <MMFF94s_energy_kcalmol>  (1) 
-54.878

$$$$
Compound_4
     RDKit          3D

 51 54  0  0  0  0  0  0  0  0999 V2000
    4.4673   -0.0466   -2.4034 O   0  0  0  0  0  0  0  0  0  0  0  0
    5.0192   -0.3431   -1.3462 C   0  0  0  0  0  0  0  0  0  0  0  0
    4.4630   -0.2557   -0.0662 N   0  0  0  0  0  0  0  0  0  0  0  0
    6.3201   -0.7844   -1.4002 N   0  0  0  0  0  0  0  0  0  0  0  0
    3.0954    0.1379    0.1434 C   0  0  0  0  0  0  0  0  0  0  0  0
    5.3508   -0.4020    1.0847 C   0  0  0  0  0  0  0  0  0  0  0  0
    7.0537   -1.3491   -0.3951 C   0  0  0  0  0  0  0  0  0  0  0  0
    2.1137   -0.1343   -0.8255 C   0  0  0  0  0  0  0  0  0  0  0  0
    2.7046    0.7998    1.3407 C   0  0  0  0  0  0  0  0  0  0  0  0
    6.3240   -1.5448    0.8954 C   0  0  0  0  0  0  0  0  0  0  0  0
    8.2067   -1.7307   -0.5701 O   0  0  0  0  0  0  0  0  0  0  0  0
    0.8125    0.2504   -0.5730 C   0  0  0  0  0  0  0  0  0  0  0  0
    1.3810    1.1950    1.5868 C   0  0  0  0  0  0  0  0  0  0  0  0
    0.4497    0.9091    0.6201 C   0  0  0  0  0  0  0  0  0  0  0  0
   -0.4522    0.1365   -1.3926 C   0  0  1  0  0  0  0  0  0  0  0  0
   -1.0299    1.1977    0.5058 C   0  0  2  0  0  0  0  0  0  0  0  0
   -1.4196    0.0571   -0.3115 N   0  0  0  0  0  0  0  0  0  0  0  0
   -0.7945    1.5665   -1.9076 C   0  0  2  0  0  0  0  0  0  0  0  0
   -1.1794    2.3226   -0.5671 C   0  0  1  0  0  0  0  0  0  0  0  0
   -2.6538   -0.5020   -0.4036 C   0  0  0  0  0  0  0  0  0  0  0  0
   -1.9088    1.5876   -2.8139 O   0  0  0  0  0  0  0  0  0  0  0  0
   -2.5184    2.8227   -0.6266 O   0  0  0  0  0  0  0  0  0  0  0  0
   -3.0262   -1.1039   -1.4022 O   0  0  0  0  0  0  0  0  0  0  0  0
   -3.3929   -0.2709    0.7052 O   0  0  0  0  0  0  0  0  0  0  0  0
   -4.7688   -0.7188    0.7922 C   0  0  0  0  0  0  0  0  0  0  0  0
   -5.2413   -0.2573    2.1792 C   0  0  0  0  0  0  0  0  0  0  0  0
   -4.8635   -2.2467    0.7253 C   0  0  0  0  0  0  0  0  0  0  0  0
   -5.6398   -0.0420   -0.2719 C   0  0  0  0  0  0  0  0  0  0  0  0
    6.7565   -0.7420   -2.3096 H   0  0  0  0  0  0  0  0  0  0  0  0
    5.8866    0.5469    1.2110 H   0  0  0  0  0  0  0  0  0  0  0  0
    4.7798   -0.6128    1.9945 H   0  0  0  0  0  0  0  0  0  0  0  0
    2.3390   -0.6590   -1.7478 H   0  0  0  0  0  0  0  0  0  0  0  0
    3.4393    1.0623    2.0977 H   0  0  0  0  0  0  0  0  0  0  0  0
    5.7996   -2.5057    0.8483 H   0  0  0  0  0  0  0  0  0  0  0  0
    7.0424   -1.5749    1.7205 H   0  0  0  0  0  0  0  0  0  0  0  0
    1.1131    1.7122    2.5020 H   0  0  0  0  0  0  0  0  0  0  0  0
   -0.5228   -0.6830   -2.1094 H   0  0  0  0  0  0  0  0  0  0  0  0
   -1.5983    1.3113    1.4296 H   0  0  0  0  0  0  0  0  0  0  0  0
    0.0577    2.0445   -2.4028 H   0  0  0  0  0  0  0  0  0  0  0  0
   -0.5060    3.1657   -0.3765 H   0  0  0  0  0  0  0  0  0  0  0  0
   -2.4283    0.7703   -2.6652 H   0  0  0  0  0  0  0  0  0  0  0  0
   -2.7463    2.8355   -1.5800 H   0  0  0  0  0  0  0  0  0  0  0  0
   -4.6162   -0.6917    2.9682 H   0  0  0  0  0  0  0  0  0  0  0  0
   -5.1521    0.8309    2.2789 H   0  0  0  0  0  0  0  0  0  0  0  0
   -6.2826   -0.5380    2.3689 H   0  0  0  0  0  0  0  0  0  0  0  0
   -5.8768   -2.5934    0.9552 H   0  0  0  0  0  0  0  0  0  0  0  0
   -4.6043   -2.6298   -0.2662 H   0  0  0  0  0  0  0  0  0  0  0  0
   -4.1674   -2.7107    1.4330 H   0  0  0  0  0  0  0  0  0  0  0  0
   -5.3931   -0.3851   -1.2812 H   0  0  0  0  0  0  0  0  0  0  0  0
   -6.7029   -0.2479   -0.1068 H   0  0  0  0  0  0  0  0  0  0  0  0
   -5.4893    1.0435   -0.2644 H   0  0  0  0  0  0  0  0  0  0  0  0
  1  2  2  0
  2  3  1  0
  2  4  1  0
  3  5  1  0
  3  6  1  0
  4  7  1  0
  5  8  2  0
  5  9  1  0
  6 10  1  0
  7 11  2  0
  7 10  1  0
  8 12  1  0
  9 13  2  0
 12 14  2  0
 13 14  1  0
 15 12  1  0
 15 17  1  0
 15 18  1  0
 16 14  1  0
 16 19  1  0
 16 17  1  0
 17 20  1  0
 18 21  1  0
 18 19  1  0
 19 22  1  0
 20 23  2  0
 20 24  1  0
 24 25  1  0
 25 26  1  0
 25 27  1  0
 25 28  1  0
  4 29  1  0
  6 30  1  0
  6 31  1  0
  8 32  1  0
  9 33  1  0
 10 34  1  0
 10 35  1  0
 13 36  1  0
 15 37  1  6
 16 38  1  1
 18 39  1  6
 19 40  1  1
 21 41  1  0
 22 42  1  0
 26 43  1  0
 26 44  1  0
 26 45  1  0
 27 46  1  0
 27 47  1  0
 27 48  1  0
 28 49  1  0
 28 50  1  0
 28 51  1  0
M  END
>  <Molecule Name>  (2) 
Compound 4

>  <EC50 (µM) (Excel)>  (2) 
11.8

>  <Error (µM)>  (2) 
7.4

>  <HTRC CRBN-DDB1 EC50 (µM)>  (2) 
11.78 ±  7.41

>  <EC50 fitting (µM)>  (2) 
15.10

>  <Modèle Fitting>  (2) 
4PL

>  <Parent_Compound>  (2) 
Compound 4

>  <MMFF94s_energy_kcalmol>  (2) 
-18.726

$$$$
Compound_7
     RDKit          3D

 64 66  0  0  0  0  0  0  0  0999 V2000
   -0.5807   -0.0846    2.3731 S   0  0  0  0  0  0  0  0  0  0  0  0
   -0.3936    0.8638    3.4497 O   0  0  0  0  0  0  0  0  0  0  0  0
    0.3436   -1.1870    2.2005 O   0  0  0  0  0  0  0  0  0  0  0  0
   -0.6229    0.7575    0.9238 N   0  0  0  0  0  0  0  0  0  0  0  0
   -2.2180   -0.7838    2.4924 C   0  0  0  0  0  0  0  0  0  0  0  0
   -1.2028    2.1277    0.8467 C   0  0  0  0  0  0  0  0  0  0  0  0
   -0.7135   -0.0226   -0.3285 C   0  0  0  0  0  0  0  0  0  0  0  0
   -3.2777    0.2628    2.7584 C   0  0  0  0  0  0  0  0  0  0  0  0
   -2.4614    2.3611    1.6953 C   0  0  0  0  0  0  0  0  0  0  0  0
    0.3597    0.3698   -1.3169 C   0  0  0  0  0  0  0  0  0  0  0  0
   -3.3946    1.2375    1.6777 N   0  0  0  0  0  0  0  0  0  0  0  0
    1.7139    0.1892   -0.9858 C   0  0  0  0  0  0  0  0  0  0  0  0
    0.0277    0.9208   -2.5619 C   0  0  0  0  0  0  0  0  0  0  0  0
   -4.1860    1.0485    0.5590 C   0  0  0  0  0  0  0  0  0  0  0  0
    2.7216    0.5494   -1.8889 C   0  0  0  0  0  0  0  0  0  0  0  0
    1.0299    1.2939   -3.4582 C   0  0  0  0  0  0  0  0  0  0  0  0
   -4.1940    1.8180   -0.3922 O   0  0  0  0  0  0  0  0  0  0  0  0
   -4.8927   -0.1064    0.6271 O   0  0  0  0  0  0  0  0  0  0  0  0
    4.1669    0.3825   -1.5709 C   0  0  0  0  0  0  0  0  0  0  0  0
    2.3722    1.1131   -3.1217 C   0  0  0  0  0  0  0  0  0  0  0  0
   -5.7556   -0.5220   -0.4630 C   0  0  0  0  0  0  0  0  0  0  0  0
    5.0094    1.0825   -2.1222 O   0  0  0  0  0  0  0  0  0  0  0  0
    4.4933   -0.6038   -0.6683 N   0  0  0  0  0  0  0  0  0  0  0  0
   -4.9476   -0.7816   -1.7394 C   0  0  0  0  0  0  0  0  0  0  0  0
   -6.3641   -1.8509    0.0104 C   0  0  0  0  0  0  0  0  0  0  0  0
   -6.8900    0.4819   -0.6933 C   0  0  0  0  0  0  0  0  0  0  0  0
    5.8749   -0.8812   -0.3066 C   0  0  2  0  0  0  0  0  0  0  0  0
    5.9401   -2.2417    0.3964 C   0  0  0  0  0  0  0  0  0  0  0  0
    6.4512    0.1894    0.6160 C   0  0  0  0  0  0  0  0  0  0  0  0
    5.1095   -3.1307    0.2107 O   0  0  0  0  0  0  0  0  0  0  0  0
    7.0163   -2.4470    1.2254 N   0  0  0  0  0  0  0  0  0  0  0  0
    7.8865   -0.1658    0.9705 C   0  0  0  0  0  0  0  0  0  0  0  0
    7.9830   -1.5423    1.5844 C   0  0  0  0  0  0  0  0  0  0  0  0
    8.9025   -1.8655    2.3310 O   0  0  0  0  0  0  0  0  0  0  0  0
   -2.1852   -1.4966    3.3234 H   0  0  0  0  0  0  0  0  0  0  0  0
   -2.4124   -1.3492    1.5762 H   0  0  0  0  0  0  0  0  0  0  0  0
   -0.4279    2.8462    1.1382 H   0  0  0  0  0  0  0  0  0  0  0  0
   -1.4489    2.3608   -0.1963 H   0  0  0  0  0  0  0  0  0  0  0  0
   -0.6112   -1.0981   -0.1431 H   0  0  0  0  0  0  0  0  0  0  0  0
   -1.7099    0.1011   -0.7688 H   0  0  0  0  0  0  0  0  0  0  0  0
   -4.2421   -0.2406    2.8893 H   0  0  0  0  0  0  0  0  0  0  0  0
   -3.0855    0.7996    3.6943 H   0  0  0  0  0  0  0  0  0  0  0  0
   -2.1970    2.5901    2.7331 H   0  0  0  0  0  0  0  0  0  0  0  0
   -2.9774    3.2503    1.3122 H   0  0  0  0  0  0  0  0  0  0  0  0
    1.9620   -0.2051   -0.0025 H   0  0  0  0  0  0  0  0  0  0  0  0
   -1.0136    1.0760   -2.8384 H   0  0  0  0  0  0  0  0  0  0  0  0
    0.7674    1.7309   -4.4187 H   0  0  0  0  0  0  0  0  0  0  0  0
    3.1479    1.4125   -3.8241 H   0  0  0  0  0  0  0  0  0  0  0  0
    3.7919   -1.2707   -0.3607 H   0  0  0  0  0  0  0  0  0  0  0  0
   -4.5442    0.1425   -2.1641 H   0  0  0  0  0  0  0  0  0  0  0  0
   -5.5637   -1.2548   -2.5116 H   0  0  0  0  0  0  0  0  0  0  0  0
   -4.0898   -1.4310   -1.5309 H   0  0  0  0  0  0  0  0  0  0  0  0
   -5.5784   -2.5853    0.2229 H   0  0  0  0  0  0  0  0  0  0  0  0
   -7.0431   -2.2766   -0.7358 H   0  0  0  0  0  0  0  0  0  0  0  0
   -6.9193   -1.7137    0.9457 H   0  0  0  0  0  0  0  0  0  0  0  0
   -7.6322    0.0895   -1.3968 H   0  0  0  0  0  0  0  0  0  0  0  0
   -7.3952    0.7204    0.2494 H   0  0  0  0  0  0  0  0  0  0  0  0
   -6.5229    1.4286   -1.1006 H   0  0  0  0  0  0  0  0  0  0  0  0
    6.4637   -0.9522   -1.2295 H   0  0  0  0  0  0  0  0  0  0  0  0
    5.8491    0.2615    1.5316 H   0  0  0  0  0  0  0  0  0  0  0  0
    6.4256    1.1759    0.1403 H   0  0  0  0  0  0  0  0  0  0  0  0
    7.0833   -3.3607    1.6522 H   0  0  0  0  0  0  0  0  0  0  0  0
    8.2796    0.5628    1.6876 H   0  0  0  0  0  0  0  0  0  0  0  0
    8.5228   -0.1466    0.0787 H   0  0  0  0  0  0  0  0  0  0  0  0
  1  2  2  0
  1  3  2  0
  1  4  1  0
  1  5  1  0
  4  6  1  0
  4  7  1  0
  5  8  1  0
  6  9  1  0
  7 10  1  0
  8 11  1  0
  9 11  1  0
 10 12  2  0
 10 13  1  0
 11 14  1  0
 12 15  1  0
 13 16  2  0
 14 17  2  0
 14 18  1  0
 15 19  1  0
 15 20  2  0
 16 20  1  0
 18 21  1  0
 19 22  2  0
 19 23  1  0
 21 24  1  0
 21 25  1  0
 21 26  1  0
 27 23  1  0
 27 28  1  0
 27 29  1  0
 28 30  2  0
 28 31  1  0
 29 32  1  0
 31 33  1  0
 32 33  1  0
 33 34  2  0
  5 35  1  0
  5 36  1  0
  6 37  1  0
  6 38  1  0
  7 39  1  0
  7 40  1  0
  8 41  1  0
  8 42  1  0
  9 43  1  0
  9 44  1  0
 12 45  1  0
 13 46  1  0
 16 47  1  0
 20 48  1  0
 23 49  1  0
 24 50  1  0
 24 51  1  0
 24 52  1  0
 25 53  1  0
 25 54  1  0
 25 55  1  0
 26 56  1  0
 26 57  1  0
 26 58  1  0
 27 59  1  6
 29 60  1  0
 29 61  1  0
 31 62  1  0
 32 63  1  0
 32 64  1  0
M  END
>  <Molecule Name>  (3) 
Compound 7

>  <EC50 (µM) (Excel)>  (3) 
4.1

>  <Error (µM)>  (3) 
0.2

>  <HTRC CRBN-DDB1 EC50 (µM)>  (3) 
4.06 ±  0.18

>  <EC50 fitting (µM)>  (3) 
3.77

>  <Modèle Fitting>  (3) 
4PL

>  <Parent_Compound>  (3) 
Compound 7

>  <MMFF94s_energy_kcalmol>  (3) 
-112.931

$$$$
Compound_8
     RDKit          3D

 51 52  0  0  0  0  0  0  0  0999 V2000
    0.6828    0.0000    0.0000 Cl  0  0  0  0  0  0  0  0  0  0  0  0
    4.2003   -0.0327    1.3601 S   0  0  0  0  0  0  0  0  0  0  0  0
    4.6882   -1.1433    2.2747 O   0  0  0  0  0  0  0  0  0  0  0  0
    3.6068    1.0756    2.1520 O   0  0  0  0  0  0  0  0  0  0  0  0
    3.0631   -0.6171    0.2329 N   0  0  0  0  0  0  0  0  0  0  0  0
    5.5975    0.6216    0.4354 C   0  0  0  0  0  0  0  0  0  0  0  0
    3.5173   -1.7227   -0.5512 C   0  0  0  0  0  0  0  0  0  0  0  0
    2.5968    0.4274   -0.6253 C   0  0  0  0  0  0  0  0  0  0  0  0
    6.0742   -0.4758   -0.5206 C   0  0  0  0  0  0  0  0  0  0  0  0
    4.7211   -2.4431   -0.0348 C   0  0  0  0  0  0  0  0  0  0  0  0
    1.3204    1.0080   -0.1610 C   0  0  0  0  0  0  0  0  0  0  0  0
    5.8861   -1.7075    0.1412 N   0  0  0  0  0  0  0  0  0  0  0  0
    0.1605    0.3091   -0.5194 C   0  0  0  0  0  0  0  0  0  0  0  0
    1.1590    2.1464    0.5490 C   0  0  0  0  0  0  0  0  0  0  0  0
   -1.0957    0.7541   -0.1677 C   0  0  0  0  0  0  0  0  0  0  0  0
   -0.0858    2.6201    0.9180 C   0  0  0  0  0  0  0  0  0  0  0  0
   -2.2687   -0.0096   -0.5653 C   0  0  0  0  0  0  0  0  0  0  0  0
   -1.2165    1.9202    0.5576 C   0  0  0  0  0  0  0  0  0  0  0  0
   -2.0970   -1.0755   -1.2315 O   0  0  0  0  0  0  0  0  0  0  0  0
   -3.5855    0.3557   -0.2597 N   0  0  0  0  0  0  0  0  0  0  0  0
   -4.7538   -0.4270   -0.6693 C   0  0  2  0  0  0  0  0  0  0  0  0
   -5.6281    0.3835   -1.5531 C   0  0  0  0  0  0  0  0  0  0  0  0
   -5.4485   -0.9155    0.5591 C   0  0  0  0  0  0  0  0  0  0  0  0
   -5.2635    0.5680   -2.7457 O   0  0  0  0  0  0  0  0  0  0  0  0
   -6.8504    0.9633   -1.1356 N   0  0  0  0  0  0  0  0  0  0  0  0
   -6.2182    0.2516    1.1627 C   0  0  0  0  0  0  0  0  0  0  0  0
   -7.2211    0.7973    0.2348 C   0  0  0  0  0  0  0  0  0  0  0  0
   -8.3849    1.1272    0.5711 O   0  0  0  0  0  0  0  0  0  0  0  0
   -0.6828    0.0000    0.0000 H   0  0  0  0  0  0  0  0  0  0  0  0
    5.2207    1.4764   -0.1495 H   0  0  0  0  0  0  0  0  0  0  0  0
    6.3820    0.9033    1.1438 H   0  0  0  0  0  0  0  0  0  0  0  0
    2.6944   -2.4720   -0.6225 H   0  0  0  0  0  0  0  0  0  0  0  0
    3.6794   -1.3755   -1.6025 H   0  0  0  0  0  0  0  0  0  0  0  0
    2.4996    0.0830   -1.6856 H   0  0  0  0  0  0  0  0  0  0  0  0
    3.3021    1.2985   -0.6998 H   0  0  0  0  0  0  0  0  0  0  0  0
    7.1201   -0.2739   -0.8232 H   0  0  0  0  0  0  0  0  0  0  0  0
    5.4880   -0.4642   -1.4600 H   0  0  0  0  0  0  0  0  0  0  0  0
    4.4054   -2.9847    0.8879 H   0  0  0  0  0  0  0  0  0  0  0  0
    4.9353   -3.2550   -0.7946 H   0  0  0  0  0  0  0  0  0  0  0  0
    6.5152   -1.9340    0.9160 H   0  0  0  0  0  0  0  0  0  0  0  0
    0.2384   -0.6189   -1.0955 H   0  0  0  0  0  0  0  0  0  0  0  0
    2.0053    2.7406    0.8436 H   0  0  0  0  0  0  0  0  0  0  0  0
   -0.1658    3.5515    1.4964 H   0  0  0  0  0  0  0  0  0  0  0  0
   -2.1732    2.3194    0.8630 H   0  0  0  0  0  0  0  0  0  0  0  0
   -3.7814    1.2157    0.2813 H   0  0  0  0  0  0  0  0  0  0  0  0
   -4.3331   -1.3014   -1.2318 H   0  0  0  0  0  0  0  0  0  0  0  0
   -6.1373   -1.7548    0.3405 H   0  0  0  0  0  0  0  0  0  0  0  0
   -4.6964   -1.2334    1.3036 H   0  0  0  0  0  0  0  0  0  0  0  0
   -7.4573    1.4931   -1.8085 H   0  0  0  0  0  0  0  0  0  0  0  0
   -6.7283   -0.1161    2.0763 H   0  0  0  0  0  0  0  0  0  0  0  0
   -5.4865    1.0427    1.4129 H   0  0  0  0  0  0  0  0  0  0  0  0
  2  3  2  0
  2  4  2  0
  2  5  1  0
  2  6  1  0
  5  7  1  0
  5  8  1  0
  6  9  1  0
  7 10  1  0
  8 11  1  0
  9 12  1  0
 10 12  1  0
 11 13  2  0
 11 14  1  0
 13 15  1  0
 14 16  2  0
 15 17  1  0
 15 18  2  0
 16 18  1  0
 17 19  2  0
 17 20  1  0
 21 20  1  0
 21 22  1  0
 21 23  1  0
 22 24  2  0
 22 25  1  0
 23 26  1  0
 25 27  1  0
 26 27  1  0
 27 28  2  0
  1 29  1  0
  6 30  1  0
  6 31  1  0
  7 32  1  0
  7 33  1  0
  8 34  1  0
  8 35  1  0
  9 36  1  0
  9 37  1  0
 10 38  1  0
 10 39  1  0
 12 40  1  0
 13 41  1  0
 14 42  1  0
 16 43  1  0
 18 44  1  0
 20 45  1  0
 21 46  1  6
 23 47  1  0
 23 48  1  0
 25 49  1  0
 26 50  1  0
 26 51  1  0
M  END
>  <Molecule Name>  (4) 
Compound 8

>  <EC50 (µM) (Excel)>  (4) 
6.8

>  <Error (µM)>  (4) 
1.0

>  <HTRC CRBN-DDB1 EC50 (µM)>  (4) 
6.77 ±  1.02

>  <EC50 fitting (µM)>  (4) 
7.19

>  <Modèle Fitting>  (4) 
4PL

>  <Parent_Compound>  (4) 
Compound 8

>  <MMFF94s_energy_kcalmol>  (4) 
-1.000

$$$$
Compound_9
     RDKit          3D

 62 64  0  0  0  0  0  0  0  0999 V2000
    2.1675   -1.0350    3.4674 S   0  0  0  0  0  0  0  0  0  0  0  0
    1.4350   -1.2397    4.6982 O   0  0  0  0  0  0  0  0  0  0  0  0
    3.6079   -1.1721    3.4313 O   0  0  0  0  0  0  0  0  0  0  0  0
    1.7674    0.4720    2.8477 N   0  0  0  0  0  0  0  0  0  0  0  0
    1.4600   -2.1127    2.2429 C   0  0  0  0  0  0  0  0  0  0  0  0
    2.6834    1.1550    1.9055 C   0  0  0  0  0  0  0  0  0  0  0  0
    0.7267    1.2842    3.4968 C   0  0  0  0  0  0  0  0  0  0  0  0
    2.1762   -2.0203    0.9116 C   0  0  0  0  0  0  0  0  0  0  0  0
    3.1329    0.2738    0.7222 C   0  0  0  0  0  0  0  0  0  0  0  0
   -0.3183    1.8033    2.5299 C   0  0  0  0  0  0  0  0  0  0  0  0
    2.1175   -0.6963    0.2892 N   0  0  0  0  0  0  0  0  0  0  0  0
   -1.2030    0.9174    1.8928 C   0  0  0  0  0  0  0  0  0  0  0  0
   -0.4342    3.1777    2.2724 C   0  0  0  0  0  0  0  0  0  0  0  0
    1.0312   -0.3773   -0.5120 C   0  0  0  0  0  0  0  0  0  0  0  0
   -2.1771    1.3987    1.0079 C   0  0  0  0  0  0  0  0  0  0  0  0
   -1.4163    3.6593    1.4042 C   0  0  0  0  0  0  0  0  0  0  0  0
    0.0657   -1.1445   -0.6130 O   0  0  0  0  0  0  0  0  0  0  0  0
    1.0211    0.9605   -1.2671 C   0  0  0  0  0  0  0  0  0  0  0  0
   -3.1176    0.4826    0.3116 C   0  0  0  0  0  0  0  0  0  0  0  0
   -2.2908    2.7726    0.7771 C   0  0  0  0  0  0  0  0  0  0  0  0
    2.0066    0.9665   -2.3699 N   0  0  0  0  0  0  0  0  0  0  0  0
   -4.2753    0.8240    0.1047 O   0  0  0  0  0  0  0  0  0  0  0  0
   -2.5862   -0.7082   -0.1192 N   0  0  0  0  0  0  0  0  0  0  0  0
    1.6652   -0.0323   -3.3914 C   0  0  0  0  0  0  0  0  0  0  0  0
    2.0563    2.2967   -2.9805 C   0  0  0  0  0  0  0  0  0  0  0  0
   -3.3781   -1.7166   -0.8089 C   0  0  2  0  0  0  0  0  0  0  0  0
   -2.5831   -3.0277   -0.8098 C   0  0  0  0  0  0  0  0  0  0  0  0
   -3.7333   -1.3165   -2.2397 C   0  0  0  0  0  0  0  0  0  0  0  0
   -2.4644   -3.7372    0.1891 O   0  0  0  0  0  0  0  0  0  0  0  0
   -1.8586   -3.3065   -1.9460 N   0  0  0  0  0  0  0  0  0  0  0  0
   -2.4841   -1.2329   -3.1018 C   0  0  0  0  0  0  0  0  0  0  0  0
   -1.6953   -2.5181   -3.0564 C   0  0  0  0  0  0  0  0  0  0  0  0
   -0.9040   -2.8281   -3.9442 O   0  0  0  0  0  0  0  0  0  0  0  0
    0.3964   -1.8748    2.1603 H   0  0  0  0  0  0  0  0  0  0  0  0
    1.5444   -3.1297    2.6402 H   0  0  0  0  0  0  0  0  0  0  0  0
    2.1874    2.0403    1.4955 H   0  0  0  0  0  0  0  0  0  0  0  0
    3.5578    1.5295    2.4499 H   0  0  0  0  0  0  0  0  0  0  0  0
    0.1896    0.7276    4.2713 H   0  0  0  0  0  0  0  0  0  0  0  0
    1.2138    2.1186    4.0167 H   0  0  0  0  0  0  0  0  0  0  0  0
    3.2274   -2.3164    1.0034 H   0  0  0  0  0  0  0  0  0  0  0  0
    1.7171   -2.7425    0.2254 H   0  0  0  0  0  0  0  0  0  0  0  0
    4.0455   -0.2735    0.9834 H   0  0  0  0  0  0  0  0  0  0  0  0
    3.4105    0.9226   -0.1134 H   0  0  0  0  0  0  0  0  0  0  0  0
   -1.1496   -0.1458    2.1125 H   0  0  0  0  0  0  0  0  0  0  0  0
    0.2312    3.8881    2.7601 H   0  0  0  0  0  0  0  0  0  0  0  0
   -1.5086    4.7281    1.2248 H   0  0  0  0  0  0  0  0  0  0  0  0
    0.0051    1.1339   -1.6449 H   0  0  0  0  0  0  0  0  0  0  0  0
    1.2317    1.7626   -0.5537 H   0  0  0  0  0  0  0  0  0  0  0  0
   -3.0628    3.1518    0.1102 H   0  0  0  0  0  0  0  0  0  0  0  0
   -1.5869   -0.8920   -0.0170 H   0  0  0  0  0  0  0  0  0  0  0  0
    1.7073   -1.0475   -2.9834 H   0  0  0  0  0  0  0  0  0  0  0  0
    2.3926   -0.0034   -4.2107 H   0  0  0  0  0  0  0  0  0  0  0  0
    0.6671    0.1326   -3.8131 H   0  0  0  0  0  0  0  0  0  0  0  0
    2.8106    2.3282   -3.7747 H   0  0  0  0  0  0  0  0  0  0  0  0
    1.0914    2.5936   -3.4075 H   0  0  0  0  0  0  0  0  0  0  0  0
    2.3518    3.0480   -2.2395 H   0  0  0  0  0  0  0  0  0  0  0  0
   -4.3014   -1.8756   -0.2396 H   0  0  0  0  0  0  0  0  0  0  0  0
   -4.2598   -0.3564   -2.2650 H   0  0  0  0  0  0  0  0  0  0  0  0
   -4.4129   -2.0673   -2.6637 H   0  0  0  0  0  0  0  0  0  0  0  0
   -1.2972   -4.1451   -1.9154 H   0  0  0  0  0  0  0  0  0  0  0  0
   -1.8307   -0.4172   -2.7751 H   0  0  0  0  0  0  0  0  0  0  0  0
   -2.7699   -1.0404   -4.1416 H   0  0  0  0  0  0  0  0  0  0  0  0
  1  2  2  0
  1  3  2  0
  1  4  1  0
  1  5  1  0
  4  6  1  0
  4  7  1  0
  5  8  1  0
  6  9  1  0
  7 10  1  0
  8 11  1  0
  9 11  1  0
 10 12  2  0
 10 13  1  0
 11 14  1  0
 12 15  1  0
 13 16  2  0
 14 17  2  0
 14 18  1  0
 15 19  1  0
 15 20  2  0
 16 20  1  0
 18 21  1  0
 19 22  2  0
 19 23  1  0
 21 24  1  0
 21 25  1  0
 26 23  1  0
 26 27  1  0
 26 28  1  0
 27 29  2  0
 27 30  1  0
 28 31  1  0
 30 32  1  0
 31 32  1  0
 32 33  2  0
  5 34  1  0
  5 35  1  0
  6 36  1  0
  6 37  1  0
  7 38  1  0
  7 39  1  0
  8 40  1  0
  8 41  1  0
  9 42  1  0
  9 43  1  0
 12 44  1  0
 13 45  1  0
 16 46  1  0
 18 47  1  0
 18 48  1  0
 20 49  1  0
 23 50  1  0
 24 51  1  0
 24 52  1  0
 24 53  1  0
 25 54  1  0
 25 55  1  0
 25 56  1  0
 26 57  1  1
 28 58  1  0
 28 59  1  0
 30 60  1  0
 31 61  1  0
 31 62  1  0
M  END
>  <Molecule Name>  (5) 
Compound 9

>  <EC50 (µM) (Excel)>  (5) 
54.0

>  <Error (µM)>  (5) 
9.3

>  <HTRC CRBN-DDB1 EC50 (µM)>  (5) 
53.95 ±  9.32

>  <EC50 fitting (µM)>  (5) 
108.30

>  <Modèle Fitting>  (5) 
4PL

>  <Parent_Compound>  (5) 
Compound 9

>  <MMFF94s_energy_kcalmol>  (5) 
-37.421

$$$$
Compound_10
     RDKit          3D

 65 68  0  0  0  0  0  0  0  0999 V2000
   -2.0863   -3.9126   -0.9402 S   0  0  0  0  0  0  0  0  0  0  0  0
   -1.6298   -5.2431   -1.2824 O   0  0  0  0  0  0  0  0  0  0  0  0
   -3.3558   -3.7077   -0.2768 O   0  0  0  0  0  0  0  0  0  0  0  0
   -0.8867   -3.2172    0.0155 N   0  0  0  0  0  0  0  0  0  0  0  0
   -2.0963   -2.9123   -2.4252 C   0  0  0  0  0  0  0  0  0  0  0  0
    0.5308   -3.3507   -0.4365 C   0  0  0  0  0  0  0  0  0  0  0  0
   -1.0387   -3.3841    1.4861 C   0  0  0  0  0  0  0  0  0  0  0  0
   -1.3933   -1.5795   -2.2513 C   0  0  0  0  0  0  0  0  0  0  0  0
    0.7445   -2.8880   -1.8863 C   0  0  0  0  0  0  0  0  0  0  0  0
   -0.6340   -2.1253    2.2269 C   0  0  0  0  0  0  0  0  0  0  0  0
    0.0783   -1.6060   -2.1769 N   0  0  0  0  0  0  0  0  0  0  0  0
   -1.0709   -0.8729    1.7646 C   0  0  0  0  0  0  0  0  0  0  0  0
    0.1561   -2.1800    3.3813 C   0  0  0  0  0  0  0  0  0  0  0  0
    0.7262   -0.3704   -2.1194 C   0  0  0  0  0  0  0  0  0  0  0  0
   -0.6675    0.3087    2.3944 C   0  0  0  0  0  0  0  0  0  0  0  0
    0.5174   -1.0047    4.0456 C   0  0  0  0  0  0  0  0  0  0  0  0
    0.0938    0.6913   -2.1167 O   0  0  0  0  0  0  0  0  0  0  0  0
    2.2603   -0.3458   -2.0972 C   0  0  0  0  0  0  0  0  0  0  0  0
   -1.0567    1.6420    1.8576 C   0  0  0  0  0  0  0  0  0  0  0  0
    0.1084    0.2368    3.5536 C   0  0  0  0  0  0  0  0  0  0  0  0
    2.8439   -0.8829   -0.9213 O   0  0  0  0  0  0  0  0  0  0  0  0
   -1.1543    2.6134    2.5987 O   0  0  0  0  0  0  0  0  0  0  0  0
   -1.2653    1.7098    0.4993 N   0  0  0  0  0  0  0  0  0  0  0  0
    2.9842   -0.0631    0.1631 C   0  0  0  0  0  0  0  0  0  0  0  0
   -1.7685    2.9040   -0.1550 C   0  0  2  0  0  0  0  0  0  0  0  0
    2.4687    1.2254    0.2989 C   0  0  0  0  0  0  0  0  0  0  0  0
    3.7182   -0.6165    1.2163 C   0  0  0  0  0  0  0  0  0  0  0  0
   -2.4683    2.5012   -1.4625 C   0  0  0  0  0  0  0  0  0  0  0  0
   -0.6425    3.8903   -0.4462 C   0  0  0  0  0  0  0  0  0  0  0  0
    2.6962    1.9546    1.4704 C   0  0  0  0  0  0  0  0  0  0  0  0
    3.9485    0.1110    2.3851 C   0  0  0  0  0  0  0  0  0  0  0  0
   -3.0395    1.4213   -1.6213 O   0  0  0  0  0  0  0  0  0  0  0  0
   -2.4911    3.4521   -2.4557 N   0  0  0  0  0  0  0  0  0  0  0  0
   -1.2001    5.0999   -1.1766 C   0  0  0  0  0  0  0  0  0  0  0  0
    3.4385    1.4000    2.5107 C   0  0  0  0  0  0  0  0  0  0  0  0
   -1.9112    4.6948   -2.4452 C   0  0  0  0  0  0  0  0  0  0  0  0
   -2.0191    5.4505   -3.4070 O   0  0  0  0  0  0  0  0  0  0  0  0
   -3.1515   -2.7407   -2.6651 H   0  0  0  0  0  0  0  0  0  0  0  0
   -1.6650   -3.4993   -3.2408 H   0  0  0  0  0  0  0  0  0  0  0  0
    1.1595   -2.7304    0.2117 H   0  0  0  0  0  0  0  0  0  0  0  0
    0.8686   -4.3861   -0.3154 H   0  0  0  0  0  0  0  0  0  0  0  0
   -2.0727   -3.6025    1.7710 H   0  0  0  0  0  0  0  0  0  0  0  0
   -0.4317   -4.2366    1.8146 H   0  0  0  0  0  0  0  0  0  0  0  0
   -1.6460   -0.9397   -3.1066 H   0  0  0  0  0  0  0  0  0  0  0  0
   -1.7660   -1.0584   -1.3639 H   0  0  0  0  0  0  0  0  0  0  0  0
    1.8177   -2.8230   -2.0774 H   0  0  0  0  0  0  0  0  0  0  0  0
    0.3812   -3.6371   -2.5957 H   0  0  0  0  0  0  0  0  0  0  0  0
   -1.7391   -0.8347    0.9091 H   0  0  0  0  0  0  0  0  0  0  0  0
    0.4949   -3.1356    3.7752 H   0  0  0  0  0  0  0  0  0  0  0  0
    1.1286   -1.0532    4.9435 H   0  0  0  0  0  0  0  0  0  0  0  0
    2.6095   -0.9498   -2.9433 H   0  0  0  0  0  0  0  0  0  0  0  0
    2.6226    0.6674   -2.3110 H   0  0  0  0  0  0  0  0  0  0  0  0
    0.4081    1.1482    4.0659 H   0  0  0  0  0  0  0  0  0  0  0  0
   -1.0574    0.9183   -0.1017 H   0  0  0  0  0  0  0  0  0  0  0  0
   -2.5218    3.3678    0.4938 H   0  0  0  0  0  0  0  0  0  0  0  0
    1.8781    1.6983   -0.4775 H   0  0  0  0  0  0  0  0  0  0  0  0
    4.1219   -1.6215    1.1249 H   0  0  0  0  0  0  0  0  0  0  0  0
    0.1289    3.4123   -1.0636 H   0  0  0  0  0  0  0  0  0  0  0  0
   -0.1554    4.2090    0.4823 H   0  0  0  0  0  0  0  0  0  0  0  0
    2.2821    2.9551    1.5743 H   0  0  0  0  0  0  0  0  0  0  0  0
    4.5235   -0.3288    3.1953 H   0  0  0  0  0  0  0  0  0  0  0  0
   -2.9711    3.1928   -3.3057 H   0  0  0  0  0  0  0  0  0  0  0  0
   -1.9119    5.6430   -0.5451 H   0  0  0  0  0  0  0  0  0  0  0  0
   -0.3835    5.7814   -1.4376 H   0  0  0  0  0  0  0  0  0  0  0  0
    3.6099    1.9698    3.4202 H   0  0  0  0  0  0  0  0  0  0  0  0
  1  2  2  0
  1  3  2  0
  1  4  1  0
  1  5  1  0
  4  6  1  0
  4  7  1  0
  5  8  1  0
  6  9  1  0
  7 10  1  0
  8 11  1  0
  9 11  1  0
 10 12  2  0
 10 13  1  0
 11 14  1  0
 12 15  1  0
 13 16  2  0
 14 17  2  0
 14 18  1  0
 15 19  1  0
 15 20  2  0
 16 20  1  0
 18 21  1  0
 19 22  2  0
 19 23  1  0
 21 24  1  0
 24 26  2  0
 24 27  1  0
 25 23  1  0
 25 28  1  0
 25 29  1  0
 26 30  1  0
 27 31  2  0
 28 32  2  0
 28 33  1  0
 29 34  1  0
 30 35  2  0
 31 35  1  0
 33 36  1  0
 34 36  1  0
 36 37  2  0
  5 38  1  0
  5 39  1  0
  6 40  1  0
  6 41  1  0
  7 42  1  0
  7 43  1  0
  8 44  1  0
  8 45  1  0
  9 46  1  0
  9 47  1  0
 12 48  1  0
 13 49  1  0
 16 50  1  0
 18 51  1  0
 18 52  1  0
 20 53  1  0
 23 54  1  0
 25 55  1  1
 26 56  1  0
 27 57  1  0
 29 58  1  0
 29 59  1  0
 30 60  1  0
 31 61  1  0
 33 62  1  0
 34 63  1  0
 34 64  1  0
 35 65  1  0
M  END
>  <Molecule Name>  (6) 
Compound 10

>  <EC50 (µM) (Excel)>  (6) 
14.3

>  <Error (µM)>  (6) 
1.3

>  <HTRC CRBN-DDB1 EC50 (µM)>  (6) 
14.29 ±  1.32

>  <EC50 fitting (µM)>  (6) 
23.96

>  <Modèle Fitting>  (6) 
3PL

>  <Parent_Compound>  (6) 
Compound 10

>  <MMFF94s_energy_kcalmol>  (6) 
-35.646

$$$$
Compound_11
     RDKit          3D

 60 63  0  0  0  0  0  0  0  0999 V2000
   -1.0188    1.3083   -1.7258 S   0  0  0  0  0  0  0  0  0  0  0  0
   -0.0412    2.0982   -1.0034 O   0  0  0  0  0  0  0  0  0  0  0  0
   -0.9331    1.1877   -3.1654 O   0  0  0  0  0  0  0  0  0  0  0  0
   -0.9988   -0.2309   -1.0576 N   0  0  0  0  0  0  0  0  0  0  0  0
   -2.6296    1.9336   -1.2862 C   0  0  0  0  0  0  0  0  0  0  0  0
   -1.6352   -1.3782   -1.7652 C   0  0  0  0  0  0  0  0  0  0  0  0
   -1.0252   -0.3356    0.4178 C   0  0  0  0  0  0  0  0  0  0  0  0
   -3.7555    1.2384   -2.0225 C   0  0  0  0  0  0  0  0  0  0  0  0
   -2.9390   -1.0542   -2.5058 C   0  0  0  0  0  0  0  0  0  0  0  0
    0.0720   -1.2365    0.9365 C   0  0  0  0  0  0  0  0  0  0  0  0
   -3.8464   -0.1956   -1.7394 N   0  0  0  0  0  0  0  0  0  0  0  0
    1.4175   -0.9002    0.7071 C   0  0  0  0  0  0  0  0  0  0  0  0
   -0.2290   -2.4105    1.6398 C   0  0  0  0  0  0  0  0  0  0  0  0
   -4.6533   -0.8046   -0.7702 C   0  0  0  0  0  0  0  0  0  0  0  0
    2.4474   -1.7232    1.1787 C   0  0  0  0  0  0  0  0  0  0  0  0
    0.7948   -3.2402    2.0987 C   0  0  0  0  0  0  0  0  0  0  0  0
   -4.6679   -2.0304   -0.6309 O   0  0  0  0  0  0  0  0  0  0  0  0
   -5.5195    0.0058    0.1455 C   0  0  0  0  0  0  0  0  0  0  0  0
    3.8839   -1.4055    0.9474 C   0  0  0  0  0  0  0  0  0  0  0  0
    2.1282   -2.9004    1.8656 C   0  0  0  0  0  0  0  0  0  0  0  0
   -5.0706    1.2257    0.5420 N   0  0  0  0  0  0  0  0  0  0  0  0
   -6.7054   -0.5569    0.6087 C   0  0  0  0  0  0  0  0  0  0  0  0
    4.7256   -2.2975    0.9455 O   0  0  0  0  0  0  0  0  0  0  0  0
    4.2055   -0.0785    0.7740 N   0  0  0  0  0  0  0  0  0  0  0  0
   -5.8512    1.9077    1.4097 C   0  0  0  0  0  0  0  0  0  0  0  0
   -7.4853    0.1745    1.4996 C   0  0  0  0  0  0  0  0  0  0  0  0
    5.5795    0.3538    0.5712 C   0  0  2  0  0  0  0  0  0  0  0  0
   -7.0531    1.4311    1.9079 C   0  0  0  0  0  0  0  0  0  0  0  0
    5.6629    1.8679    0.7951 C   0  0  0  0  0  0  0  0  0  0  0  0
    6.0811    0.0245   -0.8323 C   0  0  0  0  0  0  0  0  0  0  0  0
    4.8735    2.4827    1.5118 O   0  0  0  0  0  0  0  0  0  0  0  0
    6.7098    2.5162    0.1857 N   0  0  0  0  0  0  0  0  0  0  0  0
    7.5119    0.5148   -0.9877 C   0  0  0  0  0  0  0  0  0  0  0  0
    7.6299    1.9897   -0.6849 C   0  0  0  0  0  0  0  0  0  0  0  0
    8.5291    2.6853   -1.1484 O   0  0  0  0  0  0  0  0  0  0  0  0
   -2.7197    1.8628   -0.2000 H   0  0  0  0  0  0  0  0  0  0  0  0
   -2.6230    2.9975   -1.5475 H   0  0  0  0  0  0  0  0  0  0  0  0
   -0.9065   -1.7887   -2.4739 H   0  0  0  0  0  0  0  0  0  0  0  0
   -1.8417   -2.1815   -1.0477 H   0  0  0  0  0  0  0  0  0  0  0  0
   -0.8953    0.6426    0.8953 H   0  0  0  0  0  0  0  0  0  0  0  0
   -2.0091   -0.6915    0.7462 H   0  0  0  0  0  0  0  0  0  0  0  0
   -3.6414    1.3633   -3.1060 H   0  0  0  0  0  0  0  0  0  0  0  0
   -4.7087    1.7176   -1.7826 H   0  0  0  0  0  0  0  0  0  0  0  0
   -2.7346   -0.5879   -3.4752 H   0  0  0  0  0  0  0  0  0  0  0  0
   -3.4493   -1.9973   -2.7378 H   0  0  0  0  0  0  0  0  0  0  0  0
    1.6388   -0.0060    0.1280 H   0  0  0  0  0  0  0  0  0  0  0  0
   -1.2634   -2.6946    1.8240 H   0  0  0  0  0  0  0  0  0  0  0  0
    0.5555   -4.1556    2.6343 H   0  0  0  0  0  0  0  0  0  0  0  0
    2.9205   -3.5563    2.2215 H   0  0  0  0  0  0  0  0  0  0  0  0
   -7.0133   -1.5470    0.2862 H   0  0  0  0  0  0  0  0  0  0  0  0
    3.5130    0.6440    0.9465 H   0  0  0  0  0  0  0  0  0  0  0  0
   -5.4735    2.8820    1.7090 H   0  0  0  0  0  0  0  0  0  0  0  0
   -8.4179   -0.2367    1.8768 H   0  0  0  0  0  0  0  0  0  0  0  0
    6.2076   -0.1317    1.3283 H   0  0  0  0  0  0  0  0  0  0  0  0
   -7.6374    2.0233    2.6045 H   0  0  0  0  0  0  0  0  0  0  0  0
    6.0413   -1.0536   -1.0227 H   0  0  0  0  0  0  0  0  0  0  0  0
    5.4400    0.5046   -1.5836 H   0  0  0  0  0  0  0  0  0  0  0  0
    6.7902    3.5064    0.3712 H   0  0  0  0  0  0  0  0  0  0  0  0
    7.8503    0.3427   -2.0150 H   0  0  0  0  0  0  0  0  0  0  0  0
    8.1831   -0.0254   -0.3107 H   0  0  0  0  0  0  0  0  0  0  0  0
  1  2  2  0
  1  3  2  0
  1  4  1  0
  1  5  1  0
  4  6  1  0
  4  7  1  0
  5  8  1  0
  6  9  1  0
  7 10  1  0
  8 11  1  0
  9 11  1  0
 10 12  2  0
 10 13  1  0
 11 14  1  0
 12 15  1  0
 13 16  2  0
 14 17  2  0
 14 18  1  0
 15 19  1  0
 15 20  2  0
 16 20  1  0
 18 21  2  0
 18 22  1  0
 19 23  2  0
 19 24  1  0
 21 25  1  0
 22 26  2  0
 25 28  2  0
 26 28  1  0
 27 24  1  0
 27 29  1  0
 27 30  1  0
 29 31  2  0
 29 32  1  0
 30 33  1  0
 32 34  1  0
 33 34  1  0
 34 35  2  0
  5 36  1  0
  5 37  1  0
  6 38  1  0
  6 39  1  0
  7 40  1  0
  7 41  1  0
  8 42  1  0
  8 43  1  0
  9 44  1  0
  9 45  1  0
 12 46  1  0
 13 47  1  0
 16 48  1  0
 20 49  1  0
 22 50  1  0
 24 51  1  0
 25 52  1  0
 26 53  1  0
 27 54  1  1
 28 55  1  0
 30 56  1  0
 30 57  1  0
 32 58  1  0
 33 59  1  0
 33 60  1  0
M  END
>  <Molecule Name>  (7) 
Compound 11

>  <EC50 (µM) (Excel)>  (7) 
37.7

>  <Error (µM)>  (7) 
0.8

>  <HTRC CRBN-DDB1 EC50 (µM)>  (7) 
37.72 ±  0.78

>  <EC50 fitting (µM)>  (7) 
52.96

>  <Modèle Fitting>  (7) 
3PL

>  <Parent_Compound>  (7) 
Compound 11

>  <MMFF94s_energy_kcalmol>  (7) 
-22.364

$$$$
Compound_12
     RDKit          3D

 68 71  0  0  0  0  0  0  0  0999 V2000
    0.9101   -0.3645    5.1043 S   0  0  0  0  0  0  0  0  0  0  0  0
   -0.0714    0.5383    5.6702 O   0  0  0  0  0  0  0  0  0  0  0  0
    1.4989   -1.4082    5.9152 O   0  0  0  0  0  0  0  0  0  0  0  0
    0.2170   -1.0685    3.7392 N   0  0  0  0  0  0  0  0  0  0  0  0
    2.2166    0.6554    4.4399 C   0  0  0  0  0  0  0  0  0  0  0  0
    0.8456   -2.2872    3.1430 C   0  0  0  0  0  0  0  0  0  0  0  0
   -0.4108   -0.1414    2.7677 C   0  0  0  0  0  0  0  0  0  0  0  0
    3.3595   -0.1414    3.8467 C   0  0  0  0  0  0  0  0  0  0  0  0
    2.3800   -2.2848    3.0833 C   0  0  0  0  0  0  0  0  0  0  0  0
   -1.5302   -0.7525    1.9564 C   0  0  0  0  0  0  0  0  0  0  0  0
    2.9526   -0.9841    2.7233 N   0  0  0  0  0  0  0  0  0  0  0  0
   -1.3620   -1.0019    0.5825 C   0  0  0  0  0  0  0  0  0  0  0  0
   -2.7414   -1.0941    2.5729 C   0  0  0  0  0  0  0  0  0  0  0  0
    2.8891   -0.5992    1.3889 C   0  0  0  0  0  0  0  0  0  0  0  0
   -2.3972   -1.5753   -0.1644 C   0  0  0  0  0  0  0  0  0  0  0  0
   -3.7706   -1.6745    1.8328 C   0  0  0  0  0  0  0  0  0  0  0  0
    2.4292   -1.3560    0.5327 O   0  0  0  0  0  0  0  0  0  0  0  0
    3.4091    0.7784    1.0196 C   0  0  0  0  0  0  0  0  0  0  0  0
   -2.2513   -1.8895   -1.6113 C   0  0  0  0  0  0  0  0  0  0  0  0
   -3.5980   -1.9181    0.4697 C   0  0  0  0  0  0  0  0  0  0  0  0
    2.7378    1.3063   -0.2452 C   0  0  0  0  0  0  0  0  0  0  0  0
   -2.8835   -2.8199   -2.1002 O   0  0  0  0  0  0  0  0  0  0  0  0
   -1.4088   -1.0860   -2.3513 N   0  0  0  0  0  0  0  0  0  0  0  0
    1.3948    1.6742    0.0962 O   0  0  0  0  0  0  0  0  0  0  0  0
   -1.1044   -1.4004   -3.7427 C   0  0  2  0  0  0  0  0  0  0  0  0
    0.6335    2.2490   -0.8827 C   0  0  0  0  0  0  0  0  0  0  0  0
    0.1042   -0.5716   -4.1955 C   0  0  0  0  0  0  0  0  0  0  0  0
   -2.2879   -1.1894   -4.6902 C   0  0  0  0  0  0  0  0  0  0  0  0
   -0.6945    2.4960   -0.5216 C   0  0  0  0  0  0  0  0  0  0  0  0
    1.0699    2.6063   -2.1580 C   0  0  0  0  0  0  0  0  0  0  0  0
    1.2372   -0.7381   -3.7447 O   0  0  0  0  0  0  0  0  0  0  0  0
   -0.1456    0.4864   -5.0356 N   0  0  0  0  0  0  0  0  0  0  0  0
   -2.5794    0.2899   -4.8729 C   0  0  0  0  0  0  0  0  0  0  0  0
   -1.5811    3.0860   -1.4234 C   0  0  0  0  0  0  0  0  0  0  0  0
    0.1878    3.2179   -3.0541 C   0  0  0  0  0  0  0  0  0  0  0  0
   -1.3621    1.0078   -5.3945 C   0  0  0  0  0  0  0  0  0  0  0  0
   -1.1373    3.4508   -2.6906 C   0  0  0  0  0  0  0  0  0  0  0  0
   -1.4353    2.0452   -6.0478 O   0  0  0  0  0  0  0  0  0  0  0  0
    1.7693    1.3444    3.7182 H   0  0  0  0  0  0  0  0  0  0  0  0
    2.5866    1.2557    5.2785 H   0  0  0  0  0  0  0  0  0  0  0  0
    0.5069   -3.1583    3.7163 H   0  0  0  0  0  0  0  0  0  0  0  0
    0.4735   -2.4447    2.1267 H   0  0  0  0  0  0  0  0  0  0  0  0
   -0.8343    0.7293    3.2823 H   0  0  0  0  0  0  0  0  0  0  0  0
    0.3564    0.2529    2.0967 H   0  0  0  0  0  0  0  0  0  0  0  0
    3.8309   -0.7765    4.6057 H   0  0  0  0  0  0  0  0  0  0  0  0
    4.1410    0.5469    3.5098 H   0  0  0  0  0  0  0  0  0  0  0  0
    2.8075   -2.6151    4.0361 H   0  0  0  0  0  0  0  0  0  0  0  0
    2.7011   -3.0281    2.3428 H   0  0  0  0  0  0  0  0  0  0  0  0
   -0.4012   -0.7871    0.1189 H   0  0  0  0  0  0  0  0  0  0  0  0
   -2.8777   -0.9213    3.6398 H   0  0  0  0  0  0  0  0  0  0  0  0
   -4.7034   -1.9482    2.3198 H   0  0  0  0  0  0  0  0  0  0  0  0
    3.2245    1.4909    1.8265 H   0  0  0  0  0  0  0  0  0  0  0  0
    4.4893    0.6882    0.8639 H   0  0  0  0  0  0  0  0  0  0  0  0
   -4.4007   -2.3857   -0.0976 H   0  0  0  0  0  0  0  0  0  0  0  0
    2.7364    0.5590   -1.0470 H   0  0  0  0  0  0  0  0  0  0  0  0
    3.2889    2.1966   -0.5710 H   0  0  0  0  0  0  0  0  0  0  0  0
   -0.9110   -0.3220   -1.9074 H   0  0  0  0  0  0  0  0  0  0  0  0
   -0.8098   -2.4564   -3.7835 H   0  0  0  0  0  0  0  0  0  0  0  0
   -2.0424   -1.6274   -5.6669 H   0  0  0  0  0  0  0  0  0  0  0  0
   -3.1892   -1.6972   -4.3331 H   0  0  0  0  0  0  0  0  0  0  0  0
   -1.0448    2.2338    0.4734 H   0  0  0  0  0  0  0  0  0  0  0  0
    2.0898    2.4327   -2.4853 H   0  0  0  0  0  0  0  0  0  0  0  0
    0.6632    1.0122   -5.3334 H   0  0  0  0  0  0  0  0  0  0  0  0
   -3.3933    0.4186   -5.5943 H   0  0  0  0  0  0  0  0  0  0  0  0
   -2.8804    0.7569   -3.9292 H   0  0  0  0  0  0  0  0  0  0  0  0
   -2.6112    3.2732   -1.1309 H   0  0  0  0  0  0  0  0  0  0  0  0
    0.5324    3.5140   -4.0426 H   0  0  0  0  0  0  0  0  0  0  0  0
   -1.8187    3.9215   -3.3962 H   0  0  0  0  0  0  0  0  0  0  0  0
  1  2  2  0
  1  3  2  0
  1  4  1  0
  1  5  1  0
  4  6  1  0
  4  7  1  0
  5  8  1  0
  6  9  1  0
  7 10  1  0
  8 11  1  0
  9 11  1  0
 10 12  2  0
 10 13  1  0
 11 14  1  0
 12 15  1  0
 13 16  2  0
 14 17  2  0
 14 18  1  0
 15 19  1  0
 15 20  2  0
 16 20  1  0
 18 21  1  0
 19 22  2  0
 19 23  1  0
 21 24  1  0
 24 26  1  0
 25 23  1  0
 25 27  1  0
 25 28  1  0
 26 29  2  0
 26 30  1  0
 27 31  2  0
 27 32  1  0
 28 33  1  0
 29 34  1  0
 30 35  2  0
 32 36  1  0
 33 36  1  0
 34 37  2  0
 35 37  1  0
 36 38  2  0
  5 39  1  0
  5 40  1  0
  6 41  1  0
  6 42  1  0
  7 43  1  0
  7 44  1  0
  8 45  1  0
  8 46  1  0
  9 47  1  0
  9 48  1  0
 12 49  1  0
 13 50  1  0
 16 51  1  0
 18 52  1  0
 18 53  1  0
 20 54  1  0
 21 55  1  0
 21 56  1  0
 23 57  1  0
 25 58  1  1
 28 59  1  0
 28 60  1  0
 29 61  1  0
 30 62  1  0
 32 63  1  0
 33 64  1  0
 33 65  1  0
 34 66  1  0
 35 67  1  0
 37 68  1  0
M  END
>  <Molecule Name>  (8) 
Compound 12

>  <EC50 (µM) (Excel)>  (8) 
61.9

>  <Error (µM)>  (8) 
8.1

>  <HTRC CRBN-DDB1 EC50 (µM)>  (8) 
61.88 ±  8.05

>  <EC50 fitting (µM)>  (8) 
111.51

>  <Modèle Fitting>  (8) 
4PL

>  <Parent_Compound>  (8) 
Compound 12

>  <MMFF94s_energy_kcalmol>  (8) 
-70.307

$$$$
