@<TRIPOS>MOLECULE
MOL
   72    77     1     0     0
SMALL
bcc


@<TRIPOS>ATOM
      1 S1      27.8230     4.5620   -24.0750 ss 1 MOL 0.079200
      2 C1      28.6700     4.2230   -22.6260 cc 1 MOL -0.214700
      3 C2      26.8210     3.2000   -23.8820 cc 1 MOL -0.086400
      4 C3      29.7370     5.0560   -22.0990 c 1 MOL 0.705700
      5 C4      28.1980     3.0660   -22.0340 cd 1 MOL -0.064000
      6 C5      27.1240     2.4680   -22.7620 cd 1 MOL -0.158300
      7 C6      25.6810     2.8800   -24.7920 c6 1 MOL -0.038100
      8 O1      30.6710     4.5850   -21.4530 o 1 MOL -0.599100
      9 N1      29.6510     6.4040   -22.3590 ns 1 MOL -0.560900
     10 C7      26.3880     1.2460   -22.3350 c6 1 MOL 0.149300
     11 C8      25.1520     1.4700   -24.4880 c6 1 MOL 0.081000
     12 C9      30.6510     7.3390   -21.9000 c3 1 MOL 0.130300
     13 N2      25.1350     1.1380   -23.0490 n 1 MOL -0.439800
     14 C10     31.6750     7.6180   -22.9680 ca 1 MOL -0.113300
     15 C11     24.0420     0.4250   -22.5690 c 1 MOL 0.697300
     16 C12     32.9850     7.9460   -22.6220 ca 1 MOL -0.094000
     17 C13     31.3430     7.4960   -24.3220 ca 1 MOL -0.094000
     18 O2      23.0060     0.4320   -23.2470 o 1 MOL -0.571100
     19 C14     24.0680    -0.3480   -21.3040 cc 1 MOL -0.037100
     20 C15     33.9310     8.1840   -23.6180 ca 1 MOL -0.147000
     21 C16     32.3090     7.7250   -25.3160 ca 1 MOL -0.147000
     22 O3      24.1790    -1.7080   -21.5960 os 1 MOL -0.208200
     23 C17     23.2930    -0.3130   -20.1310 cd 1 MOL -0.035400
     24 C18     33.6180     8.0930   -24.9830 ca 1 MOL 0.085600
     25 C19     22.9560    -2.2030   -21.2700 ca 1 MOL -0.007900
     26 C20     22.3440    -1.3570   -20.3630 ca 1 MOL -0.073800
     27 C21     23.2900     0.5790   -18.9430 c3 1 MOL -0.050900
     28 N3      34.6200     8.3360   -25.9120 nh 1 MOL -0.640000
     29 C22     22.3760    -3.3360   -21.8140 ca 1 MOL 0.126100
     30 C23     21.0570    -1.6880   -19.9120 ca 1 MOL -0.101000
     31 C24     36.0420     8.3180   -25.5310 c6 1 MOL 0.160300
     32 C25     34.3960     7.7410   -27.2470 c6 1 MOL 0.160300
     33 O4      23.0160    -4.1030   -22.7490 oh 1 MOL -0.503100
     34 C26     21.0540    -3.5820   -21.4700 ca 1 MOL -0.140000
     35 C27     20.4020    -2.7670   -20.5320 ca 1 MOL -0.116000
     36 C28     36.8590     9.0820   -26.6080 c6 1 MOL 0.104300
     37 C29     35.2180     8.5190   -28.2950 c6 1 MOL 0.104300
     38 N4      36.6660     8.5420   -27.9760 nx 1 MOL -0.683400
     39 C30     37.3830     9.3510   -28.9600 c3 1 MOL 0.084100
     40 H1      28.1700     4.0950   -21.9600 ha 1 MOL 0.175000
     41 H2      25.9170     2.0810   -24.1200 hc 1 MOL 0.069200
     42 H3      25.7040     2.5210   -25.7990 hc 1 MOL 0.069200
     43 H4      29.4540     5.4400   -22.3910 hn 1 MOL 0.304500
     44 H5      26.3160     2.0910   -22.9870 h1 1 MOL 0.075700
     45 H6      26.1320     1.5300   -21.3360 h1 1 MOL 0.075700
     46 H7      25.0190     1.4610   -23.4270 h1 1 MOL 0.078700
     47 H8      24.4540     0.8340   -24.9920 h1 1 MOL 0.078700
     48 H9      31.1540     6.9110   -21.0580 h1 1 MOL 0.077700
     49 H10     30.6680     8.4080   -21.8500 h1 1 MOL 0.077700
     50 H11     32.1530     8.5530   -22.6850 ha 1 MOL 0.162000
     51 H12     31.7000     7.1840   -23.4050 ha 1 MOL 0.162000
     52 H13     33.5740     8.5060   -24.5310 ha 1 MOL 0.135500
     53 H14     33.1640     7.1500   -25.2510 ha 1 MOL 0.135500
     54 H15     23.7720     0.4170   -18.0020 hc 1 MOL 0.063033
     55 H16     22.8440     1.5520   -18.9530 hc 1 MOL 0.063033
     56 H17     24.0120     0.5100   -19.7300 hc 1 MOL 0.063033
     57 H18     21.7880    -1.0320   -20.2290 ha 1 MOL 0.150000
     58 H19     36.1570     7.2990   -25.2260 h1 1 MOL 0.080450
     59 H20     36.6090     8.9450   -24.8740 h1 1 MOL 0.080450
     60 H21     33.3770     8.0640   -27.1930 h1 1 MOL 0.080450
     61 H22     34.4530     6.7070   -26.9760 h1 1 MOL 0.080450
     62 H23     22.9630    -4.3300   -21.8420 ho 1 MOL 0.432000
     63 H24     20.3340    -3.8970   -22.1390 ha 1 MOL 0.147000
     64 H25     20.4610    -2.5210   -21.5330 ha 1 MOL 0.142000
     65 H26     37.8750     8.7500   -26.6560 hx 1 MOL 0.109450
     66 H27     36.7630    10.1170   -26.8620 hx 1 MOL 0.109450
     67 H28     35.0980     9.5460   -28.5720 hx 1 MOL 0.109450
     68 H29     34.6570     7.8710   -28.9340 hx 1 MOL 0.109450
     69 H30     36.7840     7.5460   -27.7900 hn 1 MOL 0.444800
     70 H31     37.2680    10.3920   -29.1790 hx 1 MOL 0.105033
     71 H32     36.8040     8.7750   -29.6510 hx 1 MOL 0.105033
     72 H33     38.4140     9.0800   -29.0460 hx 1 MOL 0.105033
@<TRIPOS>BOND
     1     1     2 1   
     2     1     3 1   
     3     2     4 1   
     4     2     5 2   
     5     3     6 2   
     6     3     7 1   
     7     4     8 2   
     8     4     9 1   
     9     5     6 1   
    10     5    40 1   
    11     6    10 1   
    12     7    11 1   
    13     7    41 1   
    14     7    42 1   
    15     9    12 1   
    16     9    43 1   
    17    10    13 1   
    18    10    44 1   
    19    10    45 1   
    20    11    13 1   
    21    11    46 1   
    22    11    47 1   
    23    12    14 1   
    24    12    48 1   
    25    12    49 1   
    26    13    15 1   
    27    14    16 ar  
    28    14    17 ar  
    29    15    18 2   
    30    15    19 1   
    31    16    20 ar  
    32    16    50 1   
    33    17    21 ar  
    34    17    51 1   
    35    19    22 1   
    36    19    23 2   
    37    20    24 ar  
    38    20    52 1   
    39    21    24 ar  
    40    21    53 1   
    41    22    25 1   
    42    23    26 1   
    43    23    27 1   
    44    24    28 1   
    45    25    29 ar  
    46    25    26 ar  
    47    26    30 ar  
    48    27    54 1   
    49    27    55 1   
    50    27    56 1   
    51    28    31 1   
    52    28    32 1   
    53    29    33 1   
    54    29    34 ar  
    55    30    35 ar  
    56    30    57 1   
    57    31    36 1   
    58    31    58 1   
    59    31    59 1   
    60    32    37 1   
    61    32    60 1   
    62    32    61 1   
    63    33    62 1   
    64    34    35 ar  
    65    34    63 1   
    66    35    64 1   
    67    36    38 1   
    68    36    65 1   
    69    36    66 1   
    70    37    38 1   
    71    37    67 1   
    72    37    68 1   
    73    38    39 1   
    74    38    69 1   
    75    39    70 1   
    76    39    71 1   
    77    39    72 1   
@<TRIPOS>SUBSTRUCTURE
     1 MOL         1 TEMP              0 ****  ****    0 ROOT
