@<TRIPOS>MOLECULE
MOL
   68    73     1     0     0
SMALL
bcc


@<TRIPOS>ATOM
      1 Cl1     21.2220    -3.8630   -19.3280 cl 1 MOL -0.047400
      2 C1      21.9290    -2.5540   -20.2130 cc 1 MOL -0.043600
      3 C2      22.0930    -2.5660   -21.5440 cd 1 MOL -0.025300
      4 C3      22.3110    -1.3850   -19.4400 cc 1 MOL -0.086000
      5 N1      22.6640    -1.4710   -22.1410 na 1 MOL 0.200000
      6 C4      22.9060    -0.3400   -20.0250 cd 1 MOL -0.127000
      7 N2      22.9150    -1.2840   -23.4620 nd 1 MOL -0.556100
      8 C5      23.0980    -0.3570   -21.4110 cd 1 MOL -0.005300
      9 C6      23.5530    -0.1070   -23.5120 cc 1 MOL 0.431500
     10 C7      23.7720     0.5060   -22.2150 cc 1 MOL -0.361800
     11 C8      24.5780     1.7220   -21.9170 c 1 MOL 0.721300
     12 O1      24.6300     1.8340   -20.6720 o 1 MOL -0.608100
     13 N3      25.7050     2.4130   -22.8380 n 1 MOL -0.477800
     14 C9      26.3510     3.7620   -23.8990 c6 1 MOL 0.162300
     15 C10     26.5710     2.3910   -21.7420 c6 1 MOL 0.101000
     16 C11     27.8500     4.7850   -23.5660 cc 1 MOL -0.132300
     17 C12     27.8480     2.7950   -22.1890 c6 1 MOL -0.018100
     18 C13     28.5260     3.8740   -22.7680 cd 1 MOL -0.127400
     19 C14     29.1510     5.6560   -23.2460 cc 1 MOL -0.122000
     20 S1      30.0080     3.8250   -22.0090 ss 1 MOL 0.181200
     21 C15     29.8720     5.5020   -22.0030 cd 1 MOL -0.209700
     22 C16     30.7700     6.0790   -20.9970 c 1 MOL 0.703700
     23 O2      31.0210     5.6140   -19.8870 o 1 MOL -0.592100
     24 N4      31.2110     7.3720   -21.3190 ns 1 MOL -0.572900
     25 C17     30.8740     8.0200   -22.5740 c3 1 MOL 0.136300
     26 C18     31.9830     7.9970   -23.5470 ca 1 MOL -0.099300
     27 C19     33.2880     8.1620   -23.0950 ca 1 MOL -0.104000
     28 C20     31.7040     7.7810   -24.8890 ca 1 MOL -0.104000
     29 C21     34.3060     8.2500   -24.0200 ca 1 MOL -0.142500
     30 C22     32.7440     7.7910   -25.7910 ca 1 MOL -0.142500
     31 C23     34.0490     8.1030   -25.3920 ca 1 MOL 0.071600
     32 N5      35.0220     8.3520   -26.3250 nh 1 MOL -0.629000
     33 C24     34.6910     8.4900   -27.7420 c6 1 MOL 0.169300
     34 C25     36.3440     8.8690   -25.9460 c6 1 MOL 0.169300
     35 C26     35.7990     7.8310   -28.5740 c6 1 MOL 0.065800
     36 C27     37.4210     8.2490   -26.8520 c6 1 MOL 0.065800
     37 N6      37.1090     8.4530   -28.2830 nx 1 MOL -0.677400
     38 C28     38.1460     7.8910   -29.1280 c3 1 MOL 0.083100
     39 H1      21.5390    -1.8170   -21.1000 h4 1 MOL 0.200000
     40 H2      21.8660    -2.2860   -19.6760 ha 1 MOL 0.162000
     41 H3      23.4580    -1.0800   -20.4860 ha 1 MOL 0.164000
     42 H4      24.3750     0.5080   -23.4060 h4 1 MOL 0.069800
     43 H5      25.9850     4.0380   -24.8660 h1 1 MOL 0.063200
     44 H6      25.8520     3.0530   -23.2710 h1 1 MOL 0.063200
     45 H7      26.5430     2.8880   -20.7950 h1 1 MOL 0.056200
     46 H8      27.0580     3.0330   -22.4460 h1 1 MOL 0.056200
     47 H9      27.2740     2.3090   -21.4280 hc 1 MOL 0.063700
     48 H10     28.7900     3.2870   -22.3150 hc 1 MOL 0.063700
     49 H11     29.1430     4.7700   -23.7750 ha 1 MOL 0.154000
     50 H12     32.1870     7.5030   -21.3300 hn 1 MOL 0.324500
     51 H13     30.6890     8.2610   -21.5490 h1 1 MOL 0.073700
     52 H14     29.9720     7.7770   -23.0950 h1 1 MOL 0.073700
     53 H15     32.7300     7.4880   -23.6430 ha 1 MOL 0.154000
     54 H16     31.7410     7.6930   -23.8610 ha 1 MOL 0.154000
     55 H17     34.2740     8.3270   -25.0490 ha 1 MOL 0.134000
     56 H18     33.1520     8.5510   -25.2250 ha 1 MOL 0.134000
     57 H19     34.1810     9.4260   -27.6460 h1 1 MOL 0.097200
     58 H20     34.0530     7.7960   -28.2470 h1 1 MOL 0.097200
     59 H21     36.6260     8.3570   -25.0490 h1 1 MOL 0.097200
     60 H22     35.8950     9.8080   -25.6970 h1 1 MOL 0.097200
     61 H23     35.5580     8.2300   -29.5370 hx 1 MOL 0.107700
     62 H24     36.2890     6.8860   -28.6770 hx 1 MOL 0.107700
     63 H25     37.9250     7.3180   -27.0080 hx 1 MOL 0.107700
     64 H26     38.0540     8.9420   -26.3390 hx 1 MOL 0.107700
     65 H27     36.6400     9.3480   -28.1430 hn 1 MOL 0.448800
     66 H28     38.6670     6.9710   -29.2960 hx 1 MOL 0.105033
     67 H29     38.7850     8.5720   -28.6060 hx 1 MOL 0.105033
     68 H30     37.8620     8.3170   -30.0670 hx 1 MOL 0.105033
@<TRIPOS>BOND
     1     1     2 1   
     2     2     3 2   
     3     2     4 1   
     4     3     5 1   
     5     3    39 1   
     6     4     6 2   
     7     4    40 1   
     8     5     7 1   
     9     5     8 1   
    10     6     8 1   
    11     6    41 1   
    12     7     9 2   
    13     8    10 2   
    14     9    10 1   
    15     9    42 1   
    16    10    11 1   
    17    11    12 2   
    18    11    13 1   
    19    13    14 1   
    20    13    15 1   
    21    14    16 1   
    22    14    43 1   
    23    14    44 1   
    24    15    17 1   
    25    15    45 1   
    26    15    46 1   
    27    16    18 2   
    28    16    19 1   
    29    17    18 1   
    30    17    47 1   
    31    17    48 1   
    32    18    20 1   
    33    19    21 2   
    34    19    49 1   
    35    20    21 1   
    36    21    22 1   
    37    22    23 2   
    38    22    24 1   
    39    24    25 1   
    40    24    50 1   
    41    25    26 1   
    42    25    51 1   
    43    25    52 1   
    44    26    27 ar  
    45    26    28 ar  
    46    27    29 ar  
    47    27    53 1   
    48    28    30 ar  
    49    28    54 1   
    50    29    31 ar  
    51    29    55 1   
    52    30    31 ar  
    53    30    56 1   
    54    31    32 1   
    55    32    33 1   
    56    32    34 1   
    57    33    35 1   
    58    33    57 1   
    59    33    58 1   
    60    34    36 1   
    61    34    59 1   
    62    34    60 1   
    63    35    37 1   
    64    35    61 1   
    65    35    62 1   
    66    36    37 1   
    67    36    63 1   
    68    36    64 1   
    69    37    38 1   
    70    37    65 1   
    71    38    66 1   
    72    38    67 1   
    73    38    68 1   
@<TRIPOS>SUBSTRUCTURE
     1 MOL         1 TEMP              0 ****  ****    0 ROOT
