@<TRIPOS>MOLECULE
MOL
   58    62     1     0     0
SMALL
bcc


@<TRIPOS>ATOM
      1 F1      24.0140     3.2660   -30.5830 f 1 MOL -0.237633
      2 C1      25.3400     3.0840   -30.3300 c3 1 MOL 0.687200
      3 F2      25.6690     1.8960   -30.9090 f 1 MOL -0.237633
      4 F3      25.9900     4.0420   -31.0500 f 1 MOL -0.237633
      5 C2      25.6860     3.1300   -28.8610 ca 1 MOL -0.164300
      6 C3      26.4820     2.1380   -28.2730 ca 1 MOL -0.084000
      7 C4      25.2060     4.1760   -28.0600 ca 1 MOL -0.084000
      8 C5      26.7940     2.1960   -26.9110 ca 1 MOL -0.121500
      9 C6      25.5160     4.2300   -26.6990 ca 1 MOL -0.121500
     10 C7      26.3210     3.2440   -26.1110 ca 1 MOL -0.093300
     11 C8      26.6190     3.2810   -24.6360 c3 1 MOL 0.125300
     12 N1      25.6370     2.5550   -23.8690 ns 1 MOL -0.538900
     13 C9      25.8560     1.2610   -23.4550 c 1 MOL 0.567600
     14 O1      26.8540     0.6070   -23.7590 o 1 MOL -0.614100
     15 C10     24.7670     0.6590   -22.5980 ca 1 MOL 0.355800
     16 N2      24.7990     0.9460   -21.2620 nb 1 MOL -0.654000
     17 C11     23.7950    -0.1130   -23.2140 ca 1 MOL -0.184300
     18 C12     23.7780     0.4570   -20.5050 ca 1 MOL 0.386600
     19 C13     22.7710    -0.6110   -22.4220 ca 1 MOL -0.105000
     20 C14     22.7500    -0.3290   -21.0500 ca 1 MOL -0.160600
     21 C15     23.7970     0.7640   -19.0050 c6 1 MOL 0.028700
     22 C16     21.5790    -0.7880   -20.2210 c6 1 MOL -0.065100
     23 N3      22.5090     0.5300   -18.3540 n 1 MOL -0.444800
     24 C17     21.8270    -0.7020   -18.7190 c6 1 MOL 0.084000
     25 C18     22.1060     1.3160   -17.2690 c 1 MOL 0.702300
     26 O2      22.9310     1.8870   -16.5560 o 1 MOL -0.579100
     27 C19     20.6690     1.6320   -17.2290 cc 1 MOL -0.052100
     28 O3      19.9950     1.0150   -16.1920 os 1 MOL -0.202200
     29 C20     19.7440     1.7570   -18.2700 cd 1 MOL -0.025400
     30 C21     19.1630     0.1580   -16.8210 ca 1 MOL 0.074100
     31 C22     19.0110     0.5340   -18.1490 ca 1 MOL -0.120800
     32 C23     19.6670     2.7370   -19.3800 c3 1 MOL -0.051900
     33 C24     18.6300    -0.9860   -16.2450 ca 1 MOL -0.129000
     34 C25     18.2770    -0.3080   -18.9990 ca 1 MOL -0.069000
     35 C26     17.9870    -1.8580   -17.1240 ca 1 MOL -0.100000
     36 C27     17.8220    -1.5300   -18.4760 ca 1 MOL -0.151000
     37 H1      27.1120     2.3780   -27.4920 ha 1 MOL 0.152000
     38 H2      25.5690     3.6990   -28.9000 ha 1 MOL 0.152000
     39 H3      26.4320     2.6680   -26.0680 ha 1 MOL 0.153000
     40 H4      24.8830     3.9790   -27.4750 ha 1 MOL 0.153000
     41 H5      26.4320     3.7580   -23.6970 h1 1 MOL 0.073200
     42 H6      26.0850     2.3570   -24.7120 h1 1 MOL 0.073200
     43 H7      26.2760     3.1790   -24.2840 hn 1 MOL 0.329500
     44 H8      23.0800    -0.7790   -22.8820 ha 1 MOL 0.173000
     45 H9      21.8380    -0.6000   -22.8630 ha 1 MOL 0.146000
     46 H10     24.7260     0.2350   -19.0600 h1 1 MOL 0.091200
     47 H11     23.8250     1.5480   -18.2760 h1 1 MOL 0.091200
     48 H12     20.6090    -0.3540   -20.0900 hc 1 MOL 0.070700
     49 H13     21.6380    -1.3900   -21.1030 hc 1 MOL 0.070700
     50 H14     21.6030     0.0670   -18.0100 h1 1 MOL 0.067200
     51 H15     21.7620    -0.3320   -19.7210 h1 1 MOL 0.067200
     52 H16     19.3960     3.6930   -18.9830 hc 1 MOL 0.061700
     53 H17     19.5630     2.7500   -20.4450 hc 1 MOL 0.061700
     54 H18     20.6820     2.5180   -19.1220 hc 1 MOL 0.061700
     55 H19     17.6880    -1.2840   -15.9470 ha 1 MOL 0.151000
     56 H20     19.1560     0.0130   -19.4340 ha 1 MOL 0.143000
     57 H21     17.7760    -2.8680   -17.1130 ha 1 MOL 0.139000
     58 H22     18.5100    -2.2260   -18.8020 ha 1 MOL 0.138000
@<TRIPOS>BOND
     1     1     2 1   
     2     2     3 1   
     3     2     4 1   
     4     2     5 1   
     5     5     6 ar  
     6     5     7 ar  
     7     6     8 ar  
     8     6    37 1   
     9     7     9 ar  
    10     7    38 1   
    11     8    10 ar  
    12     8    39 1   
    13     9    10 ar  
    14     9    40 1   
    15    10    11 1   
    16    11    12 1   
    17    11    41 1   
    18    11    42 1   
    19    12    13 1   
    20    12    43 1   
    21    13    14 2   
    22    13    15 1   
    23    15    16 ar  
    24    15    17 ar  
    25    16    18 ar  
    26    17    19 ar  
    27    17    44 1   
    28    18    20 ar  
    29    18    21 1   
    30    19    20 ar  
    31    19    45 1   
    32    20    22 1   
    33    21    23 1   
    34    21    46 1   
    35    21    47 1   
    36    22    24 1   
    37    22    48 1   
    38    22    49 1   
    39    23    25 1   
    40    23    24 1   
    41    24    50 1   
    42    24    51 1   
    43    25    26 2   
    44    25    27 1   
    45    27    28 1   
    46    27    29 2   
    47    28    30 1   
    48    29    31 1   
    49    29    32 1   
    50    30    33 ar  
    51    30    31 ar  
    52    31    34 ar  
    53    32    52 1   
    54    32    53 1   
    55    32    54 1   
    56    33    35 ar  
    57    33    55 1   
    58    34    36 ar  
    59    34    56 1   
    60    35    36 ar  
    61    35    57 1   
    62    36    58 1   
@<TRIPOS>SUBSTRUCTURE
     1 MOL         1 TEMP              0 ****  ****    0 ROOT
