@<TRIPOS>MOLECULE
MOL
   73    78     1     0     0
SMALL
bcc


@<TRIPOS>ATOM
      1 O1      30.6980     5.4390   -21.3260 o 1 MOL -0.613100
      2 C1      29.9280     5.8500   -22.1970 c 1 MOL 0.573600
      3 N1      30.0320     7.1090   -22.7560 ns 1 MOL -0.547900
      4 C2      28.8490     4.9660   -22.7460 ca 1 MOL 0.350800
      5 C3      31.0700     8.0330   -22.3700 c3 1 MOL 0.130300
      6 N2      28.5450     3.8020   -22.1010 nb 1 MOL -0.658000
      7 C4      28.1920     5.4200   -23.8890 ca 1 MOL -0.184300
      8 C5      32.1170     8.1300   -23.4440 ca 1 MOL -0.104300
      9 C6      27.5510     3.0350   -22.6400 ca 1 MOL 0.385600
     10 C7      27.1750     4.6360   -24.4070 ca 1 MOL -0.101000
     11 C8      33.3620     8.6940   -23.1580 ca 1 MOL -0.094000
     12 C9      31.8590     7.6980   -24.7470 ca 1 MOL -0.094000
     13 C10     26.8510     3.4230   -23.7940 ca 1 MOL -0.155600
     14 C11     27.2290     1.6970   -21.9670 c6 1 MOL 0.029700
     15 C12     34.3260     8.8190   -24.1610 ca 1 MOL -0.145000
     16 C13     32.8360     7.8240   -25.7430 ca 1 MOL -0.145000
     17 C14     25.6990     2.6180   -24.3380 c6 1 MOL -0.068100
     18 N3      25.9240     1.1560   -22.3600 n 1 MOL -0.446800
     19 C15     34.0880     8.3920   -25.4750 ca 1 MOL 0.080600
     20 C16     25.6340     1.1960   -23.7860 c6 1 MOL 0.084000
     21 C17     25.1790     0.3700   -21.4670 c 1 MOL 0.705300
     22 N4      35.0930     8.4800   -26.4190 nh 1 MOL -0.639000
     23 O2      25.7210    -0.1770   -20.5040 o 1 MOL -0.584100
     24 C18     23.7170     0.4620   -21.6020 cc 1 MOL -0.061100
     25 C19     34.8080     8.7680   -27.8290 c6 1 MOL 0.159800
     26 C20     36.4510     8.8750   -26.0040 c6 1 MOL 0.159800
     27 O3      23.2090     1.7020   -21.2570 os 1 MOL -0.205200
     28 C21     22.6960    -0.4560   -21.3210 cd 1 MOL -0.016400
     29 C22     35.8610     8.0470   -28.7030 c6 1 MOL 0.104300
     30 C23     37.4870     8.1760   -26.9160 c6 1 MOL 0.104300
     31 C24     22.3620     1.4470   -20.2320 ca 1 MOL 0.075100
     32 C25     22.1040     0.0900   -20.1500 ca 1 MOL -0.123800
     33 C26     22.2550    -1.6940   -22.0070 c3 1 MOL -0.053900
     34 N5      37.2520     8.4280   -28.3590 nx 1 MOL -0.683400
     35 C27     21.8810     2.3940   -19.3630 ca 1 MOL -0.130000
     36 C28     21.3380    -0.3900   -19.0750 ca 1 MOL -0.067000
     37 C29     38.2010     7.6700   -29.1710 c3 1 MOL 0.084100
     38 C30     21.1580     1.9070   -18.2680 ca 1 MOL -0.096000
     39 C31     20.9120     0.5380   -18.1130 ca 1 MOL -0.149000
     40 H1      30.5020     6.2960   -22.4620 hn 1 MOL 0.330500
     41 H2      30.2840     7.4460   -21.9440 h1 1 MOL 0.075700
     42 H3      30.6670     8.8980   -22.8540 h1 1 MOL 0.075700
     43 H4      27.4830     6.0890   -24.2280 ha 1 MOL 0.169000
     44 H5      26.9200     4.6290   -25.4070 ha 1 MOL 0.151000
     45 H6      33.2410     9.2750   -24.0020 ha 1 MOL 0.162500
     46 H7      31.3300     6.8190   -24.6270 ha 1 MOL 0.162500
     47 H8      26.8930     1.2980   -21.0330 h1 1 MOL 0.088700
     48 H9      28.1270     2.2690   -21.8590 h1 1 MOL 0.088700
     49 H10     34.8540     9.6970   -24.2850 ha 1 MOL 0.134500
     50 H11     32.9500     7.2460   -24.8960 ha 1 MOL 0.134500
     51 H12     25.9750     3.1310   -25.2350 hc 1 MOL 0.073700
     52 H13     24.9670     1.8580   -24.5120 hc 1 MOL 0.073700
     53 H14     26.4710     1.8560   -23.8790 h1 1 MOL 0.069200
     54 H15     25.7910     0.2950   -24.3430 h1 1 MOL 0.069200
     55 H16     35.4090     7.9060   -27.6280 h1 1 MOL 0.079950
     56 H17     33.7840     8.5320   -27.6260 h1 1 MOL 0.079950
     57 H18     36.4810     9.2060   -27.0200 h1 1 MOL 0.079950
     58 H19     37.1050     8.0360   -25.8850 h1 1 MOL 0.079950
     59 H20     35.7940     7.7430   -27.6790 hx 1 MOL 0.108700
     60 H21     35.2230     8.8800   -28.9140 hx 1 MOL 0.108700
     61 H22     36.8890     9.0400   -27.1220 hx 1 MOL 0.108700
     62 H23     38.5240     8.3540   -27.1100 hx 1 MOL 0.108700
     63 H24     23.1830    -1.1930   -22.1880 hc 1 MOL 0.062367
     64 H25     22.1220    -2.4710   -22.7310 hc 1 MOL 0.062367
     65 H26     22.2660    -2.1200   -21.0250 hc 1 MOL 0.062367
     66 H27     37.8910     7.6660   -28.1330 hn 1 MOL 0.444800
     67 H28     21.4380     3.0740   -20.0010 ha 1 MOL 0.151000
     68 H29     21.8010    -1.1270   -18.5210 ha 1 MOL 0.145000
     69 H30     37.5420     8.4840   -29.3920 hx 1 MOL 0.105033
     70 H31     39.2100     7.9610   -29.3760 hx 1 MOL 0.105033
     71 H32     38.1090     7.4070   -28.1370 hx 1 MOL 0.105033
     72 H33     20.1300     1.8970   -18.3630 ha 1 MOL 0.142000
     73 H34     20.3330    -0.1310   -17.5810 ha 1 MOL 0.141000
@<TRIPOS>BOND
     1     1     2 2   
     2     2     3 1   
     3     2     4 1   
     4     3     5 1   
     5     3    40 1   
     6     4     6 ar  
     7     4     7 ar  
     8     5     8 1   
     9     5    41 1   
    10     5    42 1   
    11     6     9 ar  
    12     7    10 ar  
    13     7    43 1   
    14     8    11 ar  
    15     8    12 ar  
    16     9    13 ar  
    17     9    14 1   
    18    10    13 ar  
    19    10    44 1   
    20    11    15 ar  
    21    11    45 1   
    22    12    16 ar  
    23    12    46 1   
    24    13    17 1   
    25    14    18 1   
    26    14    47 1   
    27    14    48 1   
    28    15    19 ar  
    29    15    49 1   
    30    16    19 ar  
    31    16    50 1   
    32    17    20 1   
    33    17    51 1   
    34    17    52 1   
    35    18    21 1   
    36    18    20 1   
    37    19    22 1   
    38    20    53 1   
    39    20    54 1   
    40    21    23 2   
    41    21    24 1   
    42    22    25 1   
    43    22    26 1   
    44    24    27 1   
    45    24    28 2   
    46    25    29 1   
    47    25    55 1   
    48    25    56 1   
    49    26    30 1   
    50    26    57 1   
    51    26    58 1   
    52    27    31 1   
    53    28    32 1   
    54    28    33 1   
    55    29    34 1   
    56    29    59 1   
    57    29    60 1   
    58    30    34 1   
    59    30    61 1   
    60    30    62 1   
    61    31    35 ar  
    62    31    32 ar  
    63    32    36 ar  
    64    33    63 1   
    65    33    64 1   
    66    33    65 1   
    67    34    37 1   
    68    34    66 1   
    69    35    38 ar  
    70    35    67 1   
    71    36    39 ar  
    72    36    68 1   
    73    37    69 1   
    74    37    70 1   
    75    37    71 1   
    76    38    39 ar  
    77    38    72 1   
    78    39    73 1   
@<TRIPOS>SUBSTRUCTURE
     1 MOL         1 TEMP              0 ****  ****    0 ROOT
