@<TRIPOS>MOLECULE
MOL
   72    77     1     0     0
SMALL
bcc


@<TRIPOS>ATOM
      1 S1      28.0980     4.8900   -24.1310 ss 1 MOL 0.085200
      2 C1      29.0440     4.6970   -22.7130 cc 1 MOL -0.211700
      3 C2      27.1400     3.5360   -23.7510 cc 1 MOL -0.090400
      4 C3      30.1310     5.5880   -22.3340 c 1 MOL 0.692700
      5 C4      28.6320     3.5950   -21.9870 cd 1 MOL -0.065000
      6 C5      27.5380     2.9120   -22.5870 cd 1 MOL -0.169300
      7 C6      25.9520     3.1140   -24.5540 c6 1 MOL -0.038100
      8 O1      31.1180     5.1820   -21.7220 o 1 MOL -0.569100
      9 N1      30.0030     6.9060   -22.7020 ns 1 MOL -0.533900
     10 C7      26.8550     1.7160   -22.0140 c6 1 MOL 0.146300
     11 C8      25.4660     1.7350   -24.0790 c6 1 MOL 0.074000
     12 C9      31.0250     7.8870   -22.4200 c3 1 MOL 0.117300
     13 N2      25.5520     1.5470   -22.6170 n 1 MOL -0.431800
     14 C10     32.0350     7.9690   -23.5320 ca 1 MOL -0.120300
     15 C11     24.4840     0.9290   -21.9820 c 1 MOL 0.687300
     16 C12     33.3690     8.2720   -23.2480 ca 1 MOL -0.092500
     17 C13     31.6820     7.6920   -24.8580 ca 1 MOL -0.092500
     18 O2      23.3850     0.9350   -22.5500 o 1 MOL -0.547100
     19 C14     24.6180     0.2580   -20.6630 cc 1 MOL -0.029100
     20 C15     34.3100     8.3300   -24.2760 ca 1 MOL -0.148500
     21 C16     32.6390     7.7420   -25.8840 ca 1 MOL -0.148500
     22 O3      24.3540    -1.1060   -20.8100 os 1 MOL -0.177200
     23 C17     24.0860     0.5560   -19.3970 cd 1 MOL -0.048400
     24 C18     33.9670     8.0840   -25.6150 ca 1 MOL 0.089600
     25 C19     23.1010    -1.2460   -20.2900 ca 1 MOL 0.117100
     26 C20     22.8790    -0.2110   -19.3910 ca 1 MOL -0.116800
     27 C21     24.4970     1.4920   -18.3190 c3 1 MOL -0.050900
     28 N3      34.9630     8.1620   -26.5790 nh 1 MOL -0.618000
     29 C22     22.1550    -2.2030   -20.6300 ca 1 MOL -0.061000
     30 C23     21.6440    -0.1440   -18.7310 ca 1 MOL -0.028000
     31 C24     34.6860     8.6370   -27.9430 c6 1 MOL 0.148800
     32 C25     36.2860     8.6040   -26.0900 c6 1 MOL 0.148800
     33 C26     22.4730    -3.2220   -21.5720 cg 1 MOL 0.349800
     34 C27     20.8860    -2.0400   -20.0740 ca 1 MOL -0.055000
     35 C28     20.6330    -1.0280   -19.1390 ca 1 MOL -0.155000
     36 C29     35.8110     8.1280   -28.8870 c6 1 MOL 0.109800
     37 C30     37.3780     8.0820   -27.0460 c6 1 MOL 0.109800
     38 N4      22.7060    -4.0610   -22.3370 n1 1 MOL -0.507800
     39 N5      37.1670     8.5330   -28.4410 nx 1 MOL -0.683400
     40 C31     38.1920     7.9680   -29.3150 c3 1 MOL 0.089100
     41 H1      28.6060     4.6240   -21.9210 ha 1 MOL 0.176000
     42 H2      26.1830     2.3200   -23.8740 hc 1 MOL 0.071200
     43 H3      25.9790     2.7470   -25.5580 hc 1 MOL 0.071200
     44 H4      29.8060     5.9420   -22.7400 hn 1 MOL 0.284500
     45 H5      26.7810     2.5760   -22.6470 h1 1 MOL 0.072700
     46 H6      26.5950     1.9760   -21.0100 h1 1 MOL 0.072700
     47 H7      25.3240     1.7270   -23.0190 h1 1 MOL 0.078200
     48 H8      24.7690     1.1020   -24.5880 h1 1 MOL 0.078200
     49 H9      31.5050     7.4590   -21.5650 h1 1 MOL 0.084200
     50 H10     31.0410     8.9560   -22.3720 h1 1 MOL 0.084200
     51 H11     32.5360     8.8760   -23.3280 ha 1 MOL 0.148500
     52 H12     32.0210     7.3750   -23.9370 ha 1 MOL 0.148500
     53 H13     33.9750     8.6590   -25.1950 ha 1 MOL 0.136500
     54 H14     33.4930     7.1690   -25.8010 ha 1 MOL 0.136500
     55 H15     24.9520     1.3780   -17.3570 hc 1 MOL 0.064367
     56 H16     24.0470     2.4600   -18.3900 hc 1 MOL 0.064367
     57 H17     25.2420     1.3890   -19.0800 hc 1 MOL 0.064367
     58 H18     22.3770     0.5100   -19.0460 ha 1 MOL 0.160000
     59 H19     34.7920     7.6110   -27.6590 h1 1 MOL 0.081200
     60 H20     35.2450     9.2460   -27.2630 h1 1 MOL 0.081200
     61 H21     35.2690     8.9340   -26.0450 h1 1 MOL 0.081200
     62 H22     36.3310     7.5640   -25.8440 h1 1 MOL 0.081200
     63 H23     20.2020    -2.3990   -20.7580 ha 1 MOL 0.146000
     64 H24     20.7280    -0.8250   -20.1460 ha 1 MOL 0.156000
     65 H25     36.8260     7.7920   -28.9270 hx 1 MOL 0.106450
     66 H26     35.7250     9.1690   -29.1190 hx 1 MOL 0.106450
     67 H27     37.2730     9.1170   -27.2990 hx 1 MOL 0.106450
     68 H28     36.8200     7.4590   -27.7130 hx 1 MOL 0.106450
     69 H29     37.2730     7.5330   -28.2700 hn 1 MOL 0.473800
     70 H30     38.0920     9.0140   -29.5200 hx 1 MOL 0.101367
     71 H31     37.6190     7.4090   -30.0250 hx 1 MOL 0.101367
     72 H32     39.2220     7.6880   -29.3870 hx 1 MOL 0.101367
@<TRIPOS>BOND
     1     1     2 1   
     2     1     3 1   
     3     2     4 1   
     4     2     5 2   
     5     3     6 2   
     6     3     7 1   
     7     4     8 2   
     8     4     9 1   
     9     5     6 1   
    10     5    41 1   
    11     6    10 1   
    12     7    11 1   
    13     7    42 1   
    14     7    43 1   
    15     9    12 1   
    16     9    44 1   
    17    10    13 1   
    18    10    45 1   
    19    10    46 1   
    20    11    13 1   
    21    11    47 1   
    22    11    48 1   
    23    12    14 1   
    24    12    49 1   
    25    12    50 1   
    26    13    15 1   
    27    14    16 ar  
    28    14    17 ar  
    29    15    18 2   
    30    15    19 1   
    31    16    20 ar  
    32    16    51 1   
    33    17    21 ar  
    34    17    52 1   
    35    19    22 1   
    36    19    23 2   
    37    20    24 ar  
    38    20    53 1   
    39    21    24 ar  
    40    21    54 1   
    41    22    25 1   
    42    23    26 1   
    43    23    27 1   
    44    24    28 1   
    45    25    29 ar  
    46    25    26 ar  
    47    26    30 ar  
    48    27    55 1   
    49    27    56 1   
    50    27    57 1   
    51    28    31 1   
    52    28    32 1   
    53    29    33 1   
    54    29    34 ar  
    55    30    35 ar  
    56    30    58 1   
    57    31    36 1   
    58    31    59 1   
    59    31    60 1   
    60    32    37 1   
    61    32    61 1   
    62    32    62 1   
    63    33    38 3   
    64    34    35 ar  
    65    34    63 1   
    66    35    64 1   
    67    36    39 1   
    68    36    65 1   
    69    36    66 1   
    70    37    39 1   
    71    37    67 1   
    72    37    68 1   
    73    39    40 1   
    74    39    69 1   
    75    40    70 1   
    76    40    71 1   
    77    40    72 1   
@<TRIPOS>SUBSTRUCTURE
     1 MOL         1 TEMP              0 ****  ****    0 ROOT
