
OCL MolfileCreator  2D

  0  0  0  0  0  0              0 V3000
M  V30 BEGIN CTAB
M  V30 COUNTS 140 147 0 0 0
M  V30 BEGIN ATOM
M  V30 1 F 0.0 0.0 0.0 0
M  V30 2 C -0.7445 -1.2999 0.0 0
M  V30 3 C -2.2453 -1.2999 0.0 0
M  V30 4 C 0.0 -2.5999 0.0 0
M  V30 5 C -2.9899 -2.5999 0.0 0
M  V30 6 C -2.9899 0.0 0.0 0
M  V30 7 C -0.7445 -3.8998 0.0 0
M  V30 8 C -2.2453 -3.8998 0.0 0
M  V30 9 C -4.4907 -2.5999 0.0 0
M  V30 10 N 0.0 -5.1998 0.0 0
M  V30 11 C -2.9899 -5.1998 0.0 0
M  V30 12 C -5.2353 -3.8998 0.0 0
M  V30 13 C -0.7445 -6.4998 0.0 0
M  V30 14 C -2.2453 -6.4998 0.0 0
M  V30 15 C -4.4907 -5.1998 0.0 0 CFG=2
M  V30 16 C -0.2836 -7.9297 0.0 0
M  V30 17 C -2.7062 -7.9297 0.0 0
M  V30 18 N -5.2353 -6.4998 0.0 0
M  V30 19 N -1.5008 -8.8161 0.0 0
M  V30 20 C 1.0872 -8.5443 0.0 0
M  V30 21 C -6.7361 -6.4998 0.0 0
M  V30 22 C -1.3472 -10.3051 0.0 0
M  V30 23 C 1.2408 -10.0333 0.0 0
M  V30 24 O -7.4807 -7.7997 0.0 0
M  V30 25 O -7.4807 -5.1998 0.0 0
M  V30 26 O -2.5644 -11.1915 0.0 0
M  V30 27 C 0.0236 -10.9197 0.0 0
M  V30 28 C 2.6117 -10.6478 0.0 0 CFG=2
M  V30 29 C -8.9815 -5.1998 0.0 0 CFG=1
M  V30 30 C 0.1772 -12.4087 0.0 0
M  V30 31 O 2.9781 -9.1942 0.0 0
M  V30 32 C 2.7653 -12.1369 0.0 0
M  V30 33 C 4.1126 -10.7542 0.0 0
M  V30 34 C -9.7261 -6.4998 0.0 0
M  V30 35 C -9.7261 -3.8998 0.0 0
M  V30 36 O 1.5481 -13.0232 0.0 0
M  V30 37 O 4.1362 -12.7514 0.0 0
M  V30 38 C 4.7744 -12.1014 0.0 0
M  V30 39 C -11.2269 -6.4998 0.0 0
M  V30 40 C -8.9815 -7.7997 0.0 0
M  V30 41 N -8.9815 -2.5999 0.0 0
M  V30 42 C -11.9714 -7.7997 0.0 0
M  V30 43 C -9.7261 -9.0997 0.0 0
M  V30 44 C -9.7261 -1.2999 0.0 0
M  V30 45 C -11.2269 -9.0997 0.0 0
M  V30 46 O -11.2269 -1.2999 0.0 0
M  V30 47 C -8.9815 0.0 0.0 0
M  V30 48 N -11.9714 -10.3997 0.0 0
M  V30 49 C -9.7261 1.2999 0.0 0
M  V30 50 C -11.2269 -11.6996 0.0 0
M  V30 51 C -8.9697 2.5999 0.0 0 CFG=1
M  V30 52 O -11.9714 -12.9996 0.0 0
M  V30 53 C -9.7261 -11.6996 0.0 0 CFG=1
M  V30 54 N -9.7142 3.8998 0.0 0
M  V30 55 C -7.4688 2.5999 0.0 0
M  V30 56 N -8.9815 -12.9996 0.0 0
M  V30 57 C -8.9815 -10.3997 0.0 0
M  V30 58 C -11.2151 3.8998 0.0 0
M  V30 59 O -6.7243 1.2999 0.0 0
M  V30 60 N -6.7243 3.8998 0.0 0
M  V30 61 C -7.4807 -12.9996 0.0 0
M  V30 62 O -11.9596 2.5999 0.0 0
M  V30 63 C -11.9596 5.1998 0.0 0
M  V30 64 C -5.2234 3.8998 0.0 0
M  V30 65 C -7.4688 5.1998 0.0 0
M  V30 66 O -6.7361 -11.6996 0.0 0
M  V30 67 C -6.7361 -14.2996 0.0 0 CFG=1
M  V30 68 O -13.4605 5.1998 0.0 0
M  V30 69 C -4.4671 5.1998 0.0 0
M  V30 70 N -5.2353 -14.2996 0.0 0
M  V30 71 C -7.4807 -15.5995 0.0 0
M  V30 72 C -14.205 6.4998 0.0 0
M  V30 73 O -5.2116 6.4998 0.0 0
M  V30 74 N -2.9662 5.1998 0.0 0
M  V30 75 C -4.4907 -15.5995 0.0 0
M  V30 76 C -6.7361 -16.8995 0.0 0
M  V30 77 C -8.9815 -15.5995 0.0 0
M  V30 78 C -15.7059 6.4998 0.0 0
M  V30 79 C -2.2217 6.4998 0.0 0
M  V30 80 C -2.2217 3.8998 0.0 0
M  V30 81 O -5.2353 -16.8995 0.0 0
M  V30 82 C -2.9899 -15.5995 0.0 0
M  V30 83 O -16.4504 7.7997 0.0 0
M  V30 84 C -0.7208 6.4998 0.0 0
M  V30 85 C -17.9513 7.7997 0.0 0
M  V30 86 O 0.0236 5.1998 0.0 0
M  V30 87 N 0.0236 7.7997 0.0 0
M  V30 88 C -18.6958 9.0997 0.0 0
M  V30 89 C 1.5245 7.7997 0.0 0
M  V30 90 C -0.7208 9.0997 0.0 0
M  V30 91 N -20.1967 9.0997 0.0 0
M  V30 92 C 2.269 9.0997 0.0 0
M  V30 93 C -20.9412 10.3997 0.0 0
M  V30 94 O 1.5245 10.3997 0.0 0
M  V30 95 N 3.7698 9.0997 0.0 0
M  V30 96 O -20.1967 11.6996 0.0 0
M  V30 97 C -22.4421 10.3997 0.0 0
M  V30 98 C 4.5144 10.3997 0.0 0
M  V30 99 C 4.5144 7.7997 0.0 0
M  V30 100 C -23.1866 11.6996 0.0 0
M  V30 101 C 6.0152 10.3997 0.0 0
M  V30 102 N -24.6875 11.6996 0.0 0
M  V30 103 O 6.7598 9.0997 0.0 0
M  V30 104 N 6.7598 11.6996 0.0 0
M  V30 105 C -25.5738 10.4824 0.0 0
M  V30 106 C -25.5738 12.9169 0.0 0
M  V30 107 C 8.2606 11.6996 0.0 0
M  V30 108 C 6.0152 12.9996 0.0 0
M  V30 109 O -25.1129 9.0524 0.0 0
M  V30 110 C -27.0038 10.9433 0.0 0
M  V30 111 O -25.1129 14.3468 0.0 0
M  V30 112 C -27.0038 12.456 0.0 0
M  V30 113 C 9.017 12.9996 0.0 0
M  V30 114 O 8.2606 14.2996 0.0 0
M  V30 115 N 10.5178 12.9996 0.0 0
M  V30 116 C 11.2742 14.2996 0.0 0
M  V30 117 C 11.2742 11.6996 0.0 0
M  V30 118 C 12.7751 14.2996 0.0 0
M  V30 119 O 13.5196 12.9996 0.0 0
M  V30 120 N 13.5196 15.5995 0.0 0
M  V30 121 C 15.0205 15.5995 0.0 0
M  V30 122 C 12.7751 16.8995 0.0 0
M  V30 123 C 15.765 16.8995 0.0 0
M  V30 124 O 15.0205 18.1995 0.0 0
M  V30 125 N 17.2658 16.8995 0.0 0
M  V30 126 C 18.0104 18.1995 0.0 0
M  V30 127 C 18.0104 15.5995 0.0 0
M  V30 128 C 19.5112 18.1995 0.0 0
M  V30 129 O 20.2676 16.8995 0.0 0
M  V30 130 N 20.2676 19.4994 0.0 0
M  V30 131 C 21.7685 19.4994 0.0 0
M  V30 132 C 19.5112 20.7994 0.0 0
M  V30 133 C 22.5248 20.7994 0.0 0
M  V30 134 O 21.7685 22.0994 0.0 0
M  V30 135 N 24.0257 20.7994 0.0 0
M  V30 136 C 24.7702 22.0994 0.0 0
M  V30 137 C 24.7702 19.4994 0.0 0
M  V30 138 C 26.2711 22.0994 0.0 0
M  V30 139 O 27.0156 20.7994 0.0 0
M  V30 140 O 27.0156 23.3993 0.0 0
M  V30 END ATOM
M  V30 BEGIN BOND
M  V30 1 1 1 2
M  V30 2 1 2 3
M  V30 3 2 2 4
M  V30 4 2 3 5
M  V30 5 1 3 6
M  V30 6 1 4 7
M  V30 7 1 5 8
M  V30 8 1 5 9
M  V30 9 1 7 10
M  V30 10 1 8 11
M  V30 11 1 9 12
M  V30 12 2 10 13
M  V30 13 2 11 14
M  V30 14 1 11 15
M  V30 15 1 13 16
M  V30 16 1 14 17
M  V30 17 1 15 18 CFG=1
M  V30 18 1 16 19
M  V30 19 2 16 20
M  V30 20 1 18 21
M  V30 21 1 19 22
M  V30 22 1 20 23
M  V30 23 2 21 24
M  V30 24 1 21 25
M  V30 25 2 22 26
M  V30 26 1 22 27
M  V30 27 1 23 28
M  V30 28 1 29 25 CFG=1
M  V30 29 1 27 30
M  V30 30 1 28 31 CFG=3
M  V30 31 1 28 32
M  V30 32 1 28 33
M  V30 33 1 29 34
M  V30 34 1 29 35
M  V30 35 1 30 36
M  V30 36 2 32 37
M  V30 37 1 33 38
M  V30 38 2 34 39
M  V30 39 1 34 40
M  V30 40 1 35 41
M  V30 41 1 39 42
M  V30 42 2 40 43
M  V30 43 1 41 44
M  V30 44 2 42 45
M  V30 45 2 44 46
M  V30 46 1 44 47
M  V30 47 1 45 48
M  V30 48 1 47 49
M  V30 49 1 48 50
M  V30 50 1 49 51
M  V30 51 2 50 52
M  V30 52 1 50 53
M  V30 53 1 51 54 CFG=1
M  V30 54 1 51 55
M  V30 55 1 53 56
M  V30 56 1 53 57 CFG=3
M  V30 57 1 54 58
M  V30 58 2 55 59
M  V30 59 1 55 60
M  V30 60 1 56 61
M  V30 61 2 58 62
M  V30 62 1 58 63
M  V30 63 1 60 64
M  V30 64 1 60 65
M  V30 65 2 61 66
M  V30 66 1 61 67
M  V30 67 1 63 68
M  V30 68 1 64 69
M  V30 69 1 67 70 CFG=1
M  V30 70 1 67 71
M  V30 71 1 68 72
M  V30 72 2 69 73
M  V30 73 1 69 74
M  V30 74 1 70 75
M  V30 75 1 71 76
M  V30 76 1 71 77
M  V30 77 1 72 78
M  V30 78 1 74 79
M  V30 79 1 74 80
M  V30 80 2 75 81
M  V30 81 1 75 82
M  V30 82 1 78 83
M  V30 83 1 79 84
M  V30 84 1 83 85
M  V30 85 2 84 86
M  V30 86 1 84 87
M  V30 87 1 85 88
M  V30 88 1 87 89
M  V30 89 1 87 90
M  V30 90 1 88 91
M  V30 91 1 89 92
M  V30 92 1 91 93
M  V30 93 2 92 94
M  V30 94 1 92 95
M  V30 95 2 93 96
M  V30 96 1 93 97
M  V30 97 1 95 98
M  V30 98 1 95 99
M  V30 99 1 97 100
M  V30 100 1 98 101
M  V30 101 1 100 102
M  V30 102 2 101 103
M  V30 103 1 101 104
M  V30 104 1 102 105
M  V30 105 1 102 106
M  V30 106 1 104 107
M  V30 107 1 104 108
M  V30 108 2 105 109
M  V30 109 1 105 110
M  V30 110 2 106 111
M  V30 111 1 106 112
M  V30 112 1 107 113
M  V30 113 2 113 114
M  V30 114 1 113 115
M  V30 115 1 115 116
M  V30 116 1 115 117
M  V30 117 1 116 118
M  V30 118 2 118 119
M  V30 119 1 118 120
M  V30 120 1 120 121
M  V30 121 1 120 122
M  V30 122 1 121 123
M  V30 123 2 123 124
M  V30 124 1 123 125
M  V30 125 1 125 126
M  V30 126 1 125 127
M  V30 127 1 126 128
M  V30 128 2 128 129
M  V30 129 1 128 130
M  V30 130 1 130 131
M  V30 131 1 130 132
M  V30 132 1 131 133
M  V30 133 2 133 134
M  V30 134 1 133 135
M  V30 135 1 135 136
M  V30 136 1 135 137
M  V30 137 1 136 138
M  V30 138 2 138 139
M  V30 139 1 138 140
M  V30 140 2 7 8
M  V30 141 1 12 15
M  V30 142 1 13 14
M  V30 143 1 17 19
M  V30 144 2 23 27
M  V30 145 1 32 36
M  V30 146 1 43 45
M  V30 147 2 110 112
M  V30 END BOND
M  V30 BEGIN COLLECTION
M  V30 MDLV30/STEABS ATOMS=(6 15 28 29 51 53 67)
M  V30 END COLLECTION
M  V30 END CTAB
M  END
>  <name>
Mablink

>  <Scale (g)>
0.1

>  <Client>
Norfoalk

>  <Project>
990

$$$$

OCL MolfileCreator  2D

  0  0  0  0  0  0              0 V3000
M  V30 BEGIN CTAB
M  V30 COUNTS 25 27 0 0 0
M  V30 BEGIN ATOM
M  V30 1 S 0.0 0.0 0.0 0
M  V30 2 C 0.8858 -1.2165 0.0 0
M  V30 3 C -1.4291 -0.4606 0.0 0
M  V30 4 N 0.0 -2.4331 0.0 0
M  V30 5 N 2.3859 -1.2165 0.0 0
M  V30 6 C -1.4291 -1.9607 0.0 0
M  V30 7 C -2.7284 0.2834 0.0 0
M  V30 8 C 3.6852 -1.9607 0.0 0
M  V30 9 C -2.7284 -2.7166 0.0 0
M  V30 10 C -4.0277 -0.4724 0.0 0
M  V30 11 O 3.6852 -3.4607 0.0 0
M  V30 12 C 4.9844 -1.2165 0.0 0 CFG=2
M  V30 13 F -2.7284 -4.2167 0.0 0
M  V30 14 C -4.0277 -1.9725 0.0 0
M  V30 15 F -5.327 0.2716 0.0 0
M  V30 16 C 6.2837 -1.9607 0.0 0
M  V30 17 C 4.9844 0.2834 0.0 0
M  V30 18 N 7.583 -1.2047 0.0 0
M  V30 19 C 6.2837 1.0394 0.0 0
M  V30 20 C 7.583 0.2952 0.0 0
M  V30 21 C 8.8822 -1.9489 0.0 0
M  V30 22 C 10.1815 -1.2047 0.0 0
M  V30 23 N 11.4808 -1.9489 0.0 0
M  V30 24 C 12.78 -1.2047 0.0 0
M  V30 25 C 11.4808 -3.4489 0.0 0
M  V30 END ATOM
M  V30 BEGIN BOND
M  V30 1 1 1 2
M  V30 2 1 1 3
M  V30 3 2 2 4
M  V30 4 1 2 5
M  V30 5 2 3 6
M  V30 6 1 3 7
M  V30 7 1 5 8
M  V30 8 1 6 9
M  V30 9 2 7 10
M  V30 10 2 8 11
M  V30 11 1 12 8 CFG=1
M  V30 12 1 9 13
M  V30 13 2 9 14
M  V30 14 1 10 15
M  V30 15 1 12 16
M  V30 16 1 12 17
M  V30 17 1 16 18
M  V30 18 1 17 19
M  V30 19 1 18 20
M  V30 20 1 18 21
M  V30 21 1 21 22
M  V30 22 1 22 23
M  V30 23 1 23 24
M  V30 24 1 23 25
M  V30 25 1 4 6
M  V30 26 1 10 14
M  V30 27 1 19 20
M  V30 END BOND
M  V30 BEGIN COLLECTION
M  V30 MDLV30/STERAC1 ATOMS=(1 12)
M  V30 END COLLECTION
M  V30 END CTAB
M  END
>  <name>
MCUF651

>  <Scale (g)>
0.5

>  <Client>
Oslo Uni

>  <Project>
917

$$$$

OCL MolfileCreator  2D

  0  0  0  0  0  0              0 V3000
M  V30 BEGIN CTAB
M  V30 COUNTS 33 37 0 0 0
M  V30 BEGIN ATOM
M  V30 1 S 0.0 0.0 0.0 0
M  V30 2 C -0.3844 1.5257 0.0 0
M  V30 3 C 1.5016 0.0 0.0 0
M  V30 4 N 0.8769 2.3426 0.0 0
M  V30 5 N -1.838 1.9101 0.0 0
M  V30 6 C 2.0422 1.3935 0.0 0
M  V30 7 C -2.8952 0.8529 0.0 0
M  V30 8 C 3.4959 1.7779 0.0 0
M  V30 9 O -2.5108 -0.6006 0.0 0
M  V30 10 C -4.3488 1.2373 0.0 0
M  V30 11 C 4.553 0.7208 0.0 0
M  V30 12 N -5.5141 0.3003 0.0 0
M  V30 13 C -4.8894 2.5588 0.0 0
M  V30 14 C 6.0067 1.1052 0.0 0
M  V30 15 C -6.7755 1.1172 0.0 0
M  V30 16 C -5.5141 -1.2013 0.0 0
M  V30 17 C -6.3911 2.5588 0.0 0
M  V30 18 N 7.22 0.2282 0.0 0
M  V30 19 C 6.4752 2.5348 0.0 0
M  V30 20 C -6.8116 -1.9461 0.0 0
M  V30 21 C 8.4334 1.1052 0.0 0
M  V30 22 N 7.9769 2.5348 0.0 0
M  V30 23 C -8.121 -1.1893 0.0 0
M  V30 24 C -6.8116 -3.4478 0.0 0
M  V30 25 C 8.7217 3.8322 0.0 0
M  V30 26 C -9.4185 -1.9461 0.0 0
M  V30 27 C -8.109 -4.1926 0.0 0
M  V30 28 C 10.2234 3.8322 0.0 0
M  V30 29 C 7.9769 5.1297 0.0 0
M  V30 30 N -9.4185 -3.4358 0.0 0
M  V30 31 C 10.9682 5.1297 0.0 0
M  V30 32 C 8.7217 6.4271 0.0 0
M  V30 33 C 10.2234 6.4271 0.0 0
M  V30 END ATOM
M  V30 BEGIN BOND
M  V30 1 1 1 2
M  V30 2 1 1 3
M  V30 3 2 2 4
M  V30 4 1 2 5
M  V30 5 2 3 6
M  V30 6 1 5 7
M  V30 7 1 6 8
M  V30 8 2 7 9
M  V30 9 1 7 10
M  V30 10 2 8 11
M  V30 11 1 10 12
M  V30 12 2 10 13
M  V30 13 1 11 14
M  V30 14 1 12 15
M  V30 15 1 12 16
M  V30 16 1 13 17
M  V30 17 1 14 18
M  V30 18 2 14 19
M  V30 19 1 16 20
M  V30 20 2 18 21
M  V30 21 1 19 22
M  V30 22 2 20 23
M  V30 23 1 20 24
M  V30 24 1 22 25
M  V30 25 1 23 26
M  V30 26 2 24 27
M  V30 27 1 25 28
M  V30 28 1 25 29
M  V30 29 2 26 30
M  V30 30 1 28 31
M  V30 31 1 29 32
M  V30 32 1 31 33
M  V30 33 1 4 6
M  V30 34 2 15 17
M  V30 35 1 21 22
M  V30 36 1 27 30
M  V30 37 1 32 33
M  V30 END BOND
M  V30 END CTAB
M  END
>  <name>
B54

>  <Scale (g)>
0.01

>  <Client>
Argo Pasteur

>  <Project>
915

$$$$

OCL MolfileCreator  2D

  0  0  0  0  0  0              0 V3000
M  V30 BEGIN CTAB
M  V30 COUNTS 31 35 0 0 0
M  V30 BEGIN ATOM
M  V30 1 S 0.0 0.0 0.0 0
M  V30 2 C -0.3839 1.5239 0.0 0
M  V30 3 C 1.4999 0.0 0.0 0
M  V30 4 N 0.8759 2.3399 0.0 0
M  V30 5 N -1.8359 1.9079 0.0 0
M  V30 6 C 2.0399 1.3919 0.0 0
M  V30 7 C -2.8918 0.8519 0.0 0
M  V30 8 C 3.4918 1.7759 0.0 0 CFG=2
M  V30 9 O -2.5078 -0.5999 0.0 0
M  V30 10 C -4.3438 1.2359 0.0 0
M  V30 11 N 4.6558 0.8399 0.0 0
M  V30 12 C 4.0318 3.1678 0.0 0
M  V30 13 N -5.5077 0.2999 0.0 0
M  V30 14 C -4.8837 2.5558 0.0 0
M  V30 15 C 4.6558 -0.6599 0.0 0
M  V30 16 C 5.9157 1.6559 0.0 0
M  V30 17 C 5.5317 3.1678 0.0 0
M  V30 18 C -6.7677 1.1159 0.0 0
M  V30 19 C -5.5077 -1.1999 0.0 0
M  V30 20 C -6.3837 2.5558 0.0 0
M  V30 21 N 5.9517 -1.4039 0.0 0
M  V30 22 C 3.3478 -1.4159 0.0 0
M  V30 23 C -6.8037 -1.9439 0.0 0
M  V30 24 C 5.9517 -2.8918 0.0 0
M  V30 25 C 3.3478 -2.9158 0.0 0
M  V30 26 C -6.8037 -3.4438 0.0 0
M  V30 27 C -8.1116 -1.1879 0.0 0
M  V30 28 C 4.6558 -3.6358 0.0 0
M  V30 29 C -8.0996 -4.1878 0.0 0
M  V30 30 C -9.4076 -1.9439 0.0 0
M  V30 31 N -9.3956 -3.4438 0.0 0
M  V30 END ATOM
M  V30 BEGIN BOND
M  V30 1 1 1 2
M  V30 2 1 1 3
M  V30 3 2 2 4
M  V30 4 1 2 5
M  V30 5 2 3 6
M  V30 6 1 5 7
M  V30 7 1 8 6 CFG=1
M  V30 8 2 7 9
M  V30 9 1 7 10
M  V30 10 1 8 11
M  V30 11 1 8 12
M  V30 12 1 10 13
M  V30 13 2 10 14
M  V30 14 1 11 15
M  V30 15 1 11 16
M  V30 16 1 12 17
M  V30 17 1 13 18
M  V30 18 1 13 19
M  V30 19 1 14 20
M  V30 20 2 15 21
M  V30 21 1 15 22
M  V30 22 1 19 23
M  V30 23 1 21 24
M  V30 24 2 22 25
M  V30 25 2 23 26
M  V30 26 1 23 27
M  V30 27 2 24 28
M  V30 28 1 26 29
M  V30 29 2 27 30
M  V30 30 2 29 31
M  V30 31 1 4 6
M  V30 32 1 16 17
M  V30 33 2 18 20
M  V30 34 1 25 28
M  V30 35 1 30 31
M  V30 END BOND
M  V30 BEGIN COLLECTION
M  V30 MDLV30/STEABS ATOMS=(1 8)
M  V30 END COLLECTION
M  V30 END CTAB
M  END
>  <name>
A317

>  <Scale (g)>
0.5

>  <Client>
Argo Pasteur

>  <Project>
915

$$$$

OCL MolfileCreator  2D

  0  0  0  0  0  0              0 V3000
M  V30 BEGIN CTAB
M  V30 COUNTS 37 40 0 0 0
M  V30 BEGIN ATOM
M  V30 1 Cl 0.0 0.0 0.0 0
M  V30 2 C 1.3054 -0.7476 0.0 0
M  V30 3 C 2.5989 0.0118 0.0 0
M  V30 4 C 1.3054 -2.2429 0.0 0
M  V30 5 C 3.9043 -0.7357 0.0 0
M  V30 6 C 2.6108 -2.9905 0.0 0
M  V30 7 C 5.2097 0.0118 0.0 0
M  V30 8 C 3.9043 -2.231 0.0 0
M  V30 9 C 6.5151 0.7595 0.0 0
M  V30 10 N 5.2097 -2.9787 0.0 0
M  V30 11 C 7.8206 1.5071 0.0 0
M  V30 12 S 5.2097 -4.474 0.0 0
M  V30 13 C 7.8206 3.0024 0.0 0
M  V30 14 C 9.126 0.7595 0.0 0
M  V30 15 O 3.9043 -5.2216 0.0 0
M  V30 16 O 4.8181 -5.9218 0.0 0
M  V30 17 C 6.5151 -5.2216 0.0 0
M  V30 18 O 6.527 3.75 0.0 0
M  V30 19 C 9.1141 3.75 0.0 0
M  V30 20 N 10.4195 1.519 0.0 0
M  V30 21 C 7.8206 -4.474 0.0 0
M  V30 22 C 6.5151 -6.7288 0.0 0
M  V30 23 C 5.2216 3.0024 0.0 0
M  V30 24 C 10.4195 3.0024 0.0 0
M  V30 25 N 7.8206 -2.9787 0.0 0
M  V30 26 C 9.1141 -5.2216 0.0 0
M  V30 27 C 7.8206 -7.4764 0.0 0
M  V30 28 C 11.7249 3.75 0.0 0
M  V30 29 C 9.1141 -2.231 0.0 0
M  V30 30 C 9.1141 -6.7169 0.0 0
M  V30 31 C 10.4195 -4.474 0.0 0
M  V30 32 O 11.7249 5.2453 0.0 0
M  V30 33 O 13.0303 3.0024 0.0 0
M  V30 34 C 10.4076 -2.9787 0.0 0
M  V30 35 O 10.4076 -7.4645 0.0 0
M  V30 36 C 11.7131 -6.7169 0.0 0
M  V30 37 C 13.0185 -7.4645 0.0 0
M  V30 END ATOM
M  V30 BEGIN BOND
M  V30 1 1 1 2
M  V30 2 2 2 3
M  V30 3 1 2 4
M  V30 4 1 3 5
M  V30 5 2 4 6
M  V30 6 1 5 7
M  V30 7 2 5 8
M  V30 8 3 7 9
M  V30 9 1 8 10
M  V30 10 1 9 11
M  V30 11 1 10 12
M  V30 12 2 11 13
M  V30 13 1 11 14
M  V30 14 2 12 15
M  V30 15 2 12 16
M  V30 16 1 12 17
M  V30 17 1 13 18
M  V30 18 1 13 19
M  V30 19 2 14 20
M  V30 20 1 17 21
M  V30 21 2 17 22
M  V30 22 1 18 23
M  V30 23 2 19 24
M  V30 24 1 21 25
M  V30 25 2 21 26
M  V30 26 1 22 27
M  V30 27 1 24 28
M  V30 28 2 25 29
M  V30 29 1 26 30
M  V30 30 1 26 31
M  V30 31 2 28 32
M  V30 32 1 28 33
M  V30 33 1 29 34
M  V30 34 1 30 35
M  V30 35 1 35 36
M  V30 36 1 36 37
M  V30 37 1 6 8
M  V30 38 1 20 24
M  V30 39 2 27 30
M  V30 40 2 31 34
M  V30 END BOND
M  V30 END CTAB
M  END
>  <name>
8008

>  <Scale (g)>
2

>  <Client>
Biotechne

>  <Project>
944

$$$$

OCL MolfileCreator  2D

  0  0  0  0  0  0              0 V3000
M  V30 BEGIN CTAB
M  V30 COUNTS 29 32 0 0 0
M  V30 BEGIN ATOM
M  V30 1 Cl 0.0 0.0 0.0 0
M  V30 2 C -1.0043 -1.1106 0.0 0
M  V30 3 C -2.4695 -0.8034 0.0 0
M  V30 4 C -0.5435 -2.5404 0.0 0
M  V30 5 C -3.4738 -1.9141 0.0 0
M  V30 6 C -1.5478 -3.6511 0.0 0
M  V30 7 C -3.013 -3.3438 0.0 0
M  V30 8 C -4.939 -1.6069 0.0 0
M  V30 9 F -4.0174 -4.4545 0.0 0
M  V30 10 N -5.9433 -2.7176 0.0 0
M  V30 11 C -5.3998 -0.1772 0.0 0
M  V30 12 C -7.4085 -2.4104 0.0 0
M  V30 13 C -6.865 0.1299 0.0 0
M  V30 14 C -7.8693 -0.9807 0.0 0
M  V30 15 N -7.3258 1.5596 0.0 0
M  V30 16 C -9.3345 -0.6735 0.0 0
M  V30 17 C -6.4396 2.7767 0.0 0
M  V30 18 C -8.7555 2.0205 0.0 0
M  V30 19 O -4.939 2.7767 0.0 0
M  V30 20 N -7.3258 3.9937 0.0 0
M  V30 21 C -8.7555 3.5211 0.0 0
M  V30 22 C -10.0553 1.2761 0.0 0
M  V30 23 C -6.865 5.4234 0.0 0
M  V30 24 C -10.0553 4.2655 0.0 0
M  V30 25 C -11.355 2.0205 0.0 0
M  V30 26 C -5.5652 6.1797 0.0 0
M  V30 27 N -11.355 3.5211 0.0 0
M  V30 28 O -5.5652 7.6803 0.0 0
M  V30 29 N -4.2655 5.4234 0.0 0
M  V30 END ATOM
M  V30 BEGIN BOND
M  V30 1 1 1 2
M  V30 2 2 2 3
M  V30 3 1 2 4
M  V30 4 1 3 5
M  V30 5 2 4 6
M  V30 6 2 5 7
M  V30 7 1 5 8
M  V30 8 1 7 9
M  V30 9 2 8 10
M  V30 10 1 8 11
M  V30 11 1 10 12
M  V30 12 2 11 13
M  V30 13 2 12 14
M  V30 14 1 13 15
M  V30 15 1 14 16
M  V30 16 1 15 17
M  V30 17 1 15 18
M  V30 18 2 17 19
M  V30 19 1 17 20
M  V30 20 2 18 21
M  V30 21 1 18 22
M  V30 22 1 20 23
M  V30 23 1 21 24
M  V30 24 2 22 25
M  V30 25 1 23 26
M  V30 26 2 24 27
M  V30 27 2 26 28
M  V30 28 1 26 29
M  V30 29 1 6 7
M  V30 30 1 13 14
M  V30 31 1 20 21
M  V30 32 1 25 27
M  V30 END BOND
M  V30 END CTAB
M  END
>  <name>
7977

>  <Scale (g)>
2

>  <Client>
Biotechne

>  <Project>
944

$$$$

OCL MolfileCreator  2D

  0  0  0  0  0  0              0 V3000
M  V30 BEGIN CTAB
M  V30 COUNTS 30 34 0 0 0
M  V30 BEGIN ATOM
M  V30 1 O 0.0 0.0 0.0 0
M  V30 2 C 1.0622 -1.0622 0.0 0
M  V30 3 O 2.5107 -0.6759 0.0 0
M  V30 4 C 0.6759 -2.5107 0.0 0
M  V30 5 C 1.7382 -3.5609 0.0 0
M  V30 6 C -0.7725 -2.897 0.0 0
M  V30 7 C 1.3519 -5.0094 0.0 0
M  V30 8 C 3.1867 -3.1746 0.0 0
M  V30 9 C -1.1588 -4.3455 0.0 0
M  V30 10 C -0.1086 -5.3957 0.0 0
M  V30 11 C 4.4542 -3.9713 0.0 0
M  V30 12 C 3.573 -1.7261 0.0 0
M  V30 13 C -0.4949 -6.8442 0.0 0
M  V30 14 C 5.6371 -3.0298 0.0 0
M  V30 15 C 5.106 -1.7261 0.0 0
M  V30 16 C -1.9675 -7.3029 0.0 0
M  V30 17 C 0.3621 -8.0393 0.0 0
M  V30 18 C -1.9675 -8.8118 0.0 0
M  V30 19 C -3.2712 -6.5545 0.0 0
M  V30 20 O -0.5311 -9.2584 0.0 0
M  V30 21 N -3.2591 -9.5602 0.0 0
M  V30 22 C -4.5749 -7.3029 0.0 0
M  V30 23 C -4.5628 -8.8118 0.0 0
M  V30 24 C -5.8786 -6.5545 0.0 0
M  V30 25 C -7.1822 -7.3029 0.0 0
M  V30 26 C -5.8786 -5.0457 0.0 0
M  V30 27 C -8.4738 -6.5545 0.0 0
M  V30 28 C -7.1822 -4.2972 0.0 0
M  V30 29 C -8.4738 -5.0457 0.0 0
M  V30 30 C -9.7775 -7.3029 0.0 0
M  V30 END ATOM
M  V30 BEGIN BOND
M  V30 1 2 1 2
M  V30 2 1 2 3
M  V30 3 1 2 4
M  V30 4 2 4 5
M  V30 5 1 4 6
M  V30 6 1 5 7
M  V30 7 1 5 8
M  V30 8 2 6 9
M  V30 9 2 7 10
M  V30 10 1 8 11
M  V30 11 1 8 12
M  V30 12 1 10 13
M  V30 13 1 11 14
M  V30 14 1 12 15
M  V30 15 1 13 16
M  V30 16 2 13 17
M  V30 17 2 16 18
M  V30 18 1 16 19
M  V30 19 1 17 20
M  V30 20 1 18 21
M  V30 21 2 19 22
M  V30 22 2 21 23
M  V30 23 1 22 24
M  V30 24 2 24 25
M  V30 25 1 24 26
M  V30 26 1 25 27
M  V30 27 2 26 28
M  V30 28 2 27 29
M  V30 29 1 27 30
M  V30 30 1 9 10
M  V30 31 1 14 15
M  V30 32 1 18 20
M  V30 33 1 22 23
M  V30 34 1 28 29
M  V30 END BOND
M  V30 END CTAB
M  END
>  <name>
7877

>  <Scale (g)>
2

>  <Client>
Biotechne

>  <Project>
944

$$$$
