Compound_1_ent1
 OpenBabel09072607323D

 66 68  0  0  0  0  0  0  0  0999 V2000
    3.1880    2.2148   -0.2163 O   0  0  0  0  0  0  0  0  0  0  0  0
    4.4198    1.9717   -0.3782 C   0  0  0  0  0  0  0  0  0  0  0  0
    4.9542    0.7117   -0.6675 N   0  0  0  0  0  0  0  0  0  0  0  0
    5.3383    3.0824   -0.2569 N   0  0  0  0  0  0  0  0  0  0  0  0
    4.2569   -0.4708   -0.2264 C   0  0  0  0  0  0  0  0  0  0  0  0
    6.1995    0.4915   -1.3710 C   0  0  0  0  0  0  0  0  0  0  0  0
    6.7041    2.7389   -0.4564 C   0  0  0  0  0  0  0  0  0  0  0  0
    3.1988   -0.4473    0.6481 C   0  0  0  0  0  0  0  0  0  0  0  0
    4.6209   -1.7308   -0.7099 C   0  0  0  0  0  0  0  0  0  0  0  0
    7.1225    1.6782   -1.3881 C   0  0  0  0  0  0  0  0  0  0  0  0
    7.5772    3.3634    0.1841 O   0  0  0  0  0  0  0  0  0  0  0  0
    2.5064   -1.5966    1.0497 C   0  0  0  0  0  0  0  0  0  0  0  0
    3.9813   -2.8963   -0.3533 C   0  0  0  0  0  0  0  0  0  0  0  0
    2.9314   -2.7950    0.5253 C   0  0  0  0  0  0  0  0  0  0  0  0
    1.3666   -1.4999    2.0013 C   0  0  0  0  0  0  0  0  0  0  0  0
    0.1637   -1.3237    1.2933 N   0  3  1  0  0  0  0  0  0  0  0  0
   -1.0276   -1.2067    2.0135 C   0  0  2  0  0  0  0  0  0  0  0  0
    0.2123   -0.8819   -0.0329 C   0  0  0  0  0  0  0  0  0  0  0  0
   -2.0268   -2.1824    1.5390 C   0  0  0  0  0  0  0  0  0  0  0  0
   -1.6294    0.1709    2.0679 C   0  0  0  0  0  0  0  0  0  0  0  0
    0.0711    0.6075   -0.2214 C   0  0  0  0  0  0  0  0  0  0  0  0
   -3.1843   -2.2751    2.0340 O   0  0  0  0  0  0  0  0  0  0  0  0
   -1.7242   -3.0529    0.5088 O   0  0  0  0  0  0  0  0  0  0  0  0
   -2.1384    0.6540    0.8295 N   0  0  0  0  0  0  0  0  0  0  0  0
   -1.4064    0.9945   -0.3631 C   0  0  0  0  0  0  0  0  0  0  0  0
   -2.6198   -4.0132   -0.0028 C   0  0  0  0  0  0  0  0  0  0  0  0
   -3.5337    0.8276    0.7429 C   0  0  0  0  0  0  0  0  0  0  0  0
   -4.3279    0.5816    1.6884 O   0  0  0  0  0  0  0  0  0  0  0  0
   -4.0903    1.2927   -0.4338 O   0  0  0  0  0  0  0  0  0  0  0  0
   -5.4615    1.5018   -0.6321 C   0  0  0  0  0  0  0  0  0  0  0  0
   -6.1861    0.1939   -0.4392 C   0  0  0  0  0  0  0  0  0  0  0  0
   -5.6456    2.0223   -2.0460 C   0  0  0  0  0  0  0  0  0  0  0  0
   -5.9845    2.5628    0.3383 C   0  0  0  0  0  0  0  0  0  0  0  0
    5.0429    3.9992   -0.0533 H   0  0  0  0  0  0  0  0  0  0  0  0
    5.9703    0.2314   -2.3833 H   0  0  0  0  0  0  0  0  0  0  0  0
    6.7129   -0.2866   -0.8459 H   0  0  0  0  0  0  0  0  0  0  0  0
    2.8983    0.4636    1.0289 H   0  0  0  0  0  0  0  0  0  0  0  0
    5.4120   -1.7905   -1.3699 H   0  0  0  0  0  0  0  0  0  0  0  0
    7.1426    2.0816   -2.3789 H   0  0  0  0  0  0  0  0  0  0  0  0
    8.0890    1.3395   -1.0782 H   0  0  0  0  0  0  0  0  0  0  0  0
    4.2790   -3.8093   -0.7311 H   0  0  0  0  0  0  0  0  0  0  0  0
    2.4385   -3.6574    0.8051 H   0  0  0  0  0  0  0  0  0  0  0  0
    1.5193   -0.6658    2.6539 H   0  0  0  0  0  0  0  0  0  0  0  0
    1.3089   -2.4020    2.5738 H   0  0  0  0  0  0  0  0  0  0  0  0
    0.0316   -2.3032    1.0412 H   0  0  0  0  0  0  0  0  0  0  0  0
   -0.7445   -1.4215    3.0227 H   0  0  0  0  0  0  0  0  0  0  0  0
   -0.5804   -1.3597   -0.5698 H   0  0  0  0  0  0  0  0  0  0  0  0
    1.1875   -1.1347   -0.3935 H   0  0  0  0  0  0  0  0  0  0  0  0
   -0.8740    0.8501    2.4040 H   0  0  0  0  0  0  0  0  0  0  0  0
   -2.4670    0.1055    2.7305 H   0  0  0  0  0  0  0  0  0  0  0  0
    0.5983    0.9020   -1.1047 H   0  0  0  0  0  0  0  0  0  0  0  0
    0.4779    1.1043    0.6345 H   0  0  0  0  0  0  0  0  0  0  0  0
   -1.8283    0.4712   -1.1956 H   0  0  0  0  0  0  0  0  0  0  0  0
   -1.4720    2.0513   -0.5170 H   0  0  0  0  0  0  0  0  0  0  0  0
   -2.1458   -4.5581   -0.7923 H   0  0  0  0  0  0  0  0  0  0  0  0
   -3.4914   -3.5218   -0.3819 H   0  0  0  0  0  0  0  0  0  0  0  0
   -2.9022   -4.6889    0.7773 H   0  0  0  0  0  0  0  0  0  0  0  0
   -5.8037   -0.5306   -1.1275 H   0  0  0  0  0  0  0  0  0  0  0  0
   -7.2318    0.3361   -0.6155 H   0  0  0  0  0  0  0  0  0  0  0  0
   -6.0370   -0.1521    0.5623 H   0  0  0  0  0  0  0  0  0  0  0  0
   -5.2858    1.2950   -2.7435 H   0  0  0  0  0  0  0  0  0  0  0  0
   -5.0965    2.9329   -2.1652 H   0  0  0  0  0  0  0  0  0  0  0  0
   -6.6842    2.2059   -2.2261 H   0  0  0  0  0  0  0  0  0  0  0  0
   -5.8646    2.2167    1.3437 H   0  0  0  0  0  0  0  0  0  0  0  0
   -7.0212    2.7434    0.1445 H   0  0  0  0  0  0  0  0  0  0  0  0
   -5.4335    3.4703    0.2054 H   0  0  0  0  0  0  0  0  0  0  0  0
  1  2  2  0  0  0  0
  2  3  1  0  0  0  0
  2  4  1  0  0  0  0
  3  5  1  0  0  0  0
  3  6  1  0  0  0  0
  4  7  1  0  0  0  0
  4 34  1  0  0  0  0
  5  8  2  0  0  0  0
  5  9  1  0  0  0  0
  6 10  1  0  0  0  0
  6 35  1  0  0  0  0
  6 36  1  0  0  0  0
  7 11  2  0  0  0  0
  7 10  1  0  0  0  0
  8 12  1  0  0  0  0
  8 37  1  0  0  0  0
  9 13  2  0  0  0  0
  9 38  1  0  0  0  0
 10 39  1  0  0  0  0
 10 40  1  0  0  0  0
 12 14  2  0  0  0  0
 12 15  1  0  0  0  0
 13 14  1  0  0  0  0
 13 41  1  0  0  0  0
 14 42  1  0  0  0  0
 15 16  1  0  0  0  0
 15 43  1  0  0  0  0
 15 44  1  0  0  0  0
 16 17  1  0  0  0  0
 16 18  1  0  0  0  0
 16 45  1  6  0  0  0
 17 19  1  0  0  0  0
 17 20  1  0  0  0  0
 17 46  1  1  0  0  0
 18 21  1  0  0  0  0
 18 47  1  0  0  0  0
 18 48  1  0  0  0  0
 19 22  2  0  0  0  0
 19 23  1  0  0  0  0
 20 24  1  0  0  0  0
 20 49  1  0  0  0  0
 20 50  1  0  0  0  0
 21 25  1  0  0  0  0
 21 51  1  0  0  0  0
 21 52  1  0  0  0  0
 23 26  1  0  0  0  0
 24 27  1  0  0  0  0
 24 25  1  0  0  0  0
 25 53  1  0  0  0  0
 25 54  1  0  0  0  0
 26 55  1  0  0  0  0
 26 56  1  0  0  0  0
 26 57  1  0  0  0  0
 27 28  2  0  0  0  0
 27 29  1  0  0  0  0
 29 30  1  0  0  0  0
 30 31  1  0  0  0  0
 30 32  1  0  0  0  0
 30 33  1  0  0  0  0
 31 58  1  0  0  0  0
 31 59  1  0  0  0  0
 31 60  1  0  0  0  0
 32 61  1  0  0  0  0
 32 62  1  0  0  0  0
 32 63  1  0  0  0  0
 33 64  1  0  0  0  0
 33 65  1  0  0  0  0
 33 66  1  0  0  0  0
M  CHG  1  16   1
M  END
>  <Molecule Name>
Compound 1

>  <EC50 (µM) (Excel)>
49.5

>  <Error (µM)>
6.2

>  <HTRC CRBN-DDB1 EC50 (µM)>
49.46 ±  6.19

>  <EC50 fitting (µM)>
60.01

>  <Modèle Fitting>
3PL

>  <Parent_Compound>
Compound 1

>  <MMFF94s_energy_kcalmol>
189.703

$$$$
Compound_1_ent2
 OpenBabel09072607323D

 66 68  0  0  0  0  0  0  0  0999 V2000
    4.0810    2.0976    0.2297 O   0  0  0  0  0  0  0  0  0  0  0  0
    4.9606    1.4639   -0.3660 C   0  0  0  0  0  0  0  0  0  0  0  0
    4.7449    0.3058   -1.1464 N   0  0  0  0  0  0  0  0  0  0  0  0
    6.3148    1.9552   -0.2537 N   0  0  0  0  0  0  0  0  0  0  0  0
    3.6937   -0.5798   -0.7800 C   0  0  0  0  0  0  0  0  0  0  0  0
    5.5710   -0.0275   -2.2889 C   0  0  0  0  0  0  0  0  0  0  0  0
    7.2919    1.2045   -0.9557 C   0  0  0  0  0  0  0  0  0  0  0  0
    2.9739   -0.5042    0.3845 C   0  0  0  0  0  0  0  0  0  0  0  0
    3.3440   -1.5913   -1.6815 C   0  0  0  0  0  0  0  0  0  0  0  0
    6.9361    0.6192   -2.2603 C   0  0  0  0  0  0  0  0  0  0  0  0
    8.4329    1.0459   -0.4727 O   0  0  0  0  0  0  0  0  0  0  0  0
    1.9211   -1.3721    0.7196 C   0  0  0  0  0  0  0  0  0  0  0  0
    2.3246   -2.4502   -1.3821 C   0  0  0  0  0  0  0  0  0  0  0  0
    1.6176   -2.3344   -0.1787 C   0  0  0  0  0  0  0  0  0  0  0  0
    1.2090   -1.2404    2.0004 C   0  0  0  0  0  0  0  0  0  0  0  0
    0.1204   -0.2984    1.9379 N   0  3  2  0  0  0  0  0  0  0  0  0
   -1.0019   -0.6064    1.1766 C   0  0  1  0  0  0  0  0  0  0  0  0
    0.6227    1.0442    1.8374 C   0  0  0  0  0  0  0  0  0  0  0  0
   -1.4598   -2.0174    1.1368 C   0  0  0  0  0  0  0  0  0  0  0  0
   -2.1979    0.2376    1.7087 C   0  0  0  0  0  0  0  0  0  0  0  0
   -0.2199    2.1768    2.2138 C   0  0  0  0  0  0  0  0  0  0  0  0
   -2.3668   -2.3516    0.2896 O   0  0  0  0  0  0  0  0  0  0  0  0
   -1.0180   -3.0478    1.9266 O   0  0  0  0  0  0  0  0  0  0  0  0
   -2.2029    1.4929    1.0115 N   0  0  0  0  0  0  0  0  0  0  0  0
   -1.2247    2.5876    1.1452 C   0  0  0  0  0  0  0  0  0  0  0  0
   -1.5188   -4.3646    1.8152 C   0  0  0  0  0  0  0  0  0  0  0  0
   -3.2607    1.6998    0.1156 C   0  0  0  0  0  0  0  0  0  0  0  0
   -3.3934    2.7474   -0.5747 O   0  0  0  0  0  0  0  0  0  0  0  0
   -4.2225    0.7275   -0.0417 O   0  0  0  0  0  0  0  0  0  0  0  0
   -5.3331    0.7579   -0.8775 C   0  0  0  0  0  0  0  0  0  0  0  0
   -6.0995   -0.5574   -0.6784 C   0  0  0  0  0  0  0  0  0  0  0  0
   -4.9778    0.9049   -2.3598 C   0  0  0  0  0  0  0  0  0  0  0  0
   -6.2539    1.8677   -0.4281 C   0  0  0  0  0  0  0  0  0  0  0  0
    6.5431    2.7549    0.2731 H   0  0  0  0  0  0  0  0  0  0  0  0
    5.0648    0.2909   -3.1762 H   0  0  0  0  0  0  0  0  0  0  0  0
    5.7257   -1.0860   -2.2649 H   0  0  0  0  0  0  0  0  0  0  0  0
    3.2213    0.2376    1.0579 H   0  0  0  0  0  0  0  0  0  0  0  0
    3.8560   -1.6885   -2.5723 H   0  0  0  0  0  0  0  0  0  0  0  0
    6.9561    1.3967   -2.9951 H   0  0  0  0  0  0  0  0  0  0  0  0
    7.6498   -0.1527   -2.4596 H   0  0  0  0  0  0  0  0  0  0  0  0
    2.0722   -3.1940   -2.0514 H   0  0  0  0  0  0  0  0  0  0  0  0
    0.8518   -2.9954    0.0253 H   0  0  0  0  0  0  0  0  0  0  0  0
    1.9031   -0.9122    2.7457 H   0  0  0  0  0  0  0  0  0  0  0  0
    0.7945   -2.1975    2.2393 H   0  0  0  0  0  0  0  0  0  0  0  0
   -0.3477   -0.3912    2.8394 H   0  0  0  0  0  0  0  0  0  0  0  0
   -0.6894   -0.3890    0.1766 H   0  0  0  0  0  0  0  0  0  0  0  0
    0.8992    1.1932    0.8145 H   0  0  0  0  0  0  0  0  0  0  0  0
    1.4018    1.0673    2.5704 H   0  0  0  0  0  0  0  0  0  0  0  0
   -2.0837    0.4065    2.7591 H   0  0  0  0  0  0  0  0  0  0  0  0
   -3.1194   -0.2810    1.5453 H   0  0  0  0  0  0  0  0  0  0  0  0
    0.4143    3.0140    2.4181 H   0  0  0  0  0  0  0  0  0  0  0  0
   -0.7866    1.8691    3.0677 H   0  0  0  0  0  0  0  0  0  0  0  0
   -0.7230    2.7449    0.2133 H   0  0  0  0  0  0  0  0  0  0  0  0
   -1.7143    3.4987    1.4191 H   0  0  0  0  0  0  0  0  0  0  0  0
   -1.0292   -4.9939    2.5287 H   0  0  0  0  0  0  0  0  0  0  0  0
   -1.3344   -4.7340    0.8281 H   0  0  0  0  0  0  0  0  0  0  0  0
   -2.5719   -4.3629    2.0045 H   0  0  0  0  0  0  0  0  0  0  0  0
   -5.4850   -1.3781   -0.9846 H   0  0  0  0  0  0  0  0  0  0  0  0
   -6.9931   -0.5420   -1.2667 H   0  0  0  0  0  0  0  0  0  0  0  0
   -6.3545   -0.6687    0.3548 H   0  0  0  0  0  0  0  0  0  0  0  0
   -4.3262    0.1078   -2.6511 H   0  0  0  0  0  0  0  0  0  0  0  0
   -4.4871    1.8425   -2.5177 H   0  0  0  0  0  0  0  0  0  0  0  0
   -5.8719    0.8671   -2.9463 H   0  0  0  0  0  0  0  0  0  0  0  0
   -6.4856    1.7410    0.6088 H   0  0  0  0  0  0  0  0  0  0  0  0
   -7.1566    1.8364   -1.0017 H   0  0  0  0  0  0  0  0  0  0  0  0
   -5.7718    2.8119   -0.5730 H   0  0  0  0  0  0  0  0  0  0  0  0
  1  2  2  0  0  0  0
  2  3  1  0  0  0  0
  2  4  1  0  0  0  0
  3  5  1  0  0  0  0
  3  6  1  0  0  0  0
  4  7  1  0  0  0  0
  4 34  1  0  0  0  0
  5  8  2  0  0  0  0
  5  9  1  0  0  0  0
  6 10  1  0  0  0  0
  6 35  1  0  0  0  0
  6 36  1  0  0  0  0
  7 11  2  0  0  0  0
  7 10  1  0  0  0  0
  8 12  1  0  0  0  0
  8 37  1  0  0  0  0
  9 13  2  0  0  0  0
  9 38  1  0  0  0  0
 10 39  1  0  0  0  0
 10 40  1  0  0  0  0
 12 14  2  0  0  0  0
 12 15  1  0  0  0  0
 13 14  1  0  0  0  0
 13 41  1  0  0  0  0
 14 42  1  0  0  0  0
 15 16  1  0  0  0  0
 15 43  1  0  0  0  0
 15 44  1  0  0  0  0
 16 17  1  0  0  0  0
 16 18  1  0  0  0  0
 16 45  1  1  0  0  0
 17 19  1  0  0  0  0
 17 20  1  0  0  0  0
 17 46  1  6  0  0  0
 18 21  1  0  0  0  0
 18 47  1  0  0  0  0
 18 48  1  0  0  0  0
 19 22  2  0  0  0  0
 19 23  1  0  0  0  0
 20 24  1  0  0  0  0
 20 49  1  0  0  0  0
 20 50  1  0  0  0  0
 21 25  1  0  0  0  0
 21 51  1  0  0  0  0
 21 52  1  0  0  0  0
 23 26  1  0  0  0  0
 24 27  1  0  0  0  0
 24 25  1  0  0  0  0
 25 53  1  0  0  0  0
 25 54  1  0  0  0  0
 26 55  1  0  0  0  0
 26 56  1  0  0  0  0
 26 57  1  0  0  0  0
 27 28  2  0  0  0  0
 27 29  1  0  0  0  0
 29 30  1  0  0  0  0
 30 31  1  0  0  0  0
 30 32  1  0  0  0  0
 30 33  1  0  0  0  0
 31 58  1  0  0  0  0
 31 59  1  0  0  0  0
 31 60  1  0  0  0  0
 32 61  1  0  0  0  0
 32 62  1  0  0  0  0
 32 63  1  0  0  0  0
 33 64  1  0  0  0  0
 33 65  1  0  0  0  0
 33 66  1  0  0  0  0
M  CHG  1  16   1
M  END
>  <Molecule Name>
Compound 1

>  <EC50 (µM) (Excel)>
49.5

>  <Error (µM)>
6.2

>  <HTRC CRBN-DDB1 EC50 (µM)>
49.46 ±  6.19

>  <EC50 fitting (µM)>
60.01

>  <Modèle Fitting>
3PL

>  <Parent_Compound>
Compound 1

>  <MMFF94s_energy_kcalmol>
176.500

$$$$
Compound_4_s1
 OpenBabel09072607323D

 51 54  0  0  0  0  0  0  0  0999 V2000
   -3.2183   -0.8566    2.9815 O   0  0  0  0  0  0  0  0  0  0  0  0
   -4.2288   -0.5280    2.3030 C   0  0  0  0  0  0  0  0  0  0  0  0
   -4.1290   -0.3583    0.9042 N   0  0  0  0  0  0  0  0  0  0  0  0
   -5.4864   -0.3222    2.9330 N   0  0  0  0  0  0  0  0  0  0  0  0
   -2.8737    0.0484    0.3266 C   0  0  0  0  0  0  0  0  0  0  0  0
   -5.2952   -0.5985    0.0842 C   0  0  0  0  0  0  0  0  0  0  0  0
   -6.5890    0.0480    2.1079 C   0  0  0  0  0  0  0  0  0  0  0  0
   -1.9552   -0.9063   -0.0660 C   0  0  0  0  0  0  0  0  0  0  0  0
   -2.6153    1.3856    0.1776 C   0  0  0  0  0  0  0  0  0  0  0  0
   -6.4525    0.1763    0.6415 C   0  0  0  0  0  0  0  0  0  0  0  0
   -7.6852    0.2652    2.6484 O   0  0  0  0  0  0  0  0  0  0  0  0
   -0.7596   -0.5674   -0.6149 C   0  0  0  0  0  0  0  0  0  0  0  0
   -1.3933    1.7353   -0.3835 C   0  0  0  0  0  0  0  0  0  0  0  0
   -0.4808    0.7820   -0.7733 C   0  0  0  0  0  0  0  0  0  0  0  0
    0.4405   -1.2846   -1.1422 C   0  0  2  0  0  0  0  0  0  0  0  0
    0.8616    0.8682   -1.3806 C   0  0  1  0  0  0  0  0  0  0  0  0
    1.4719   -0.3207   -0.7997 N   0  0  0  0  0  0  0  0  0  0  0  0
    0.4018   -1.0894   -2.6403 C   0  0  1  0  0  0  0  0  0  0  0  0
    0.7137    0.3981   -2.8123 C   0  0  2  0  0  0  0  0  0  0  0  0
    2.6915   -0.4176   -0.1288 C   0  0  0  0  0  0  0  0  0  0  0  0
    1.4016   -1.8833   -3.1904 O   0  0  0  0  0  0  0  0  0  0  0  0
    1.9551    0.5292   -3.4209 O   0  0  0  0  0  0  0  0  0  0  0  0
    3.1669   -1.4733    0.3516 O   0  0  0  0  0  0  0  0  0  0  0  0
    3.4575    0.7306    0.0327 O   0  0  0  0  0  0  0  0  0  0  0  0
    4.6936    0.7641    0.6843 C   0  0  0  0  0  0  0  0  0  0  0  0
    4.6160    0.3195    2.1288 C   0  0  0  0  0  0  0  0  0  0  0  0
    5.7586   -0.0401   -0.0159 C   0  0  0  0  0  0  0  0  0  0  0  0
    5.1659    2.2229    0.6654 C   0  0  0  0  0  0  0  0  0  0  0  0
   -5.5925   -0.4315    3.9056 H   0  0  0  0  0  0  0  0  0  0  0  0
   -5.5276   -1.6430    0.0883 H   0  0  0  0  0  0  0  0  0  0  0  0
   -5.1012   -0.2857   -0.9205 H   0  0  0  0  0  0  0  0  0  0  0  0
   -2.1838   -1.9046    0.0613 H   0  0  0  0  0  0  0  0  0  0  0  0
   -3.2985    2.1019    0.4694 H   0  0  0  0  0  0  0  0  0  0  0  0
   -7.3518   -0.1800    0.1841 H   0  0  0  0  0  0  0  0  0  0  0  0
   -6.2745    1.2097    0.4286 H   0  0  0  0  0  0  0  0  0  0  0  0
   -1.1646    2.7335   -0.5109 H   0  0  0  0  0  0  0  0  0  0  0  0
    0.5353   -2.3008   -0.8207 H   0  0  0  0  0  0  0  0  0  0  0  0
    1.3351    1.8215   -1.2716 H   0  0  0  0  0  0  0  0  0  0  0  0
   -0.5220   -1.3545   -3.1107 H   0  0  0  0  0  0  0  0  0  0  0  0
   -0.0180    0.9254   -3.3880 H   0  0  0  0  0  0  0  0  0  0  0  0
    2.2523   -1.6625   -2.7800 H   0  0  0  0  0  0  0  0  0  0  0  0
    2.6216    0.0524   -2.9019 H   0  0  0  0  0  0  0  0  0  0  0  0
    4.2879   -0.6981    2.1716 H   0  0  0  0  0  0  0  0  0  0  0  0
    3.9224    0.9404    2.6563 H   0  0  0  0  0  0  0  0  0  0  0  0
    5.5828    0.4018    2.5797 H   0  0  0  0  0  0  0  0  0  0  0  0
    5.4752   -1.0718   -0.0297 H   0  0  0  0  0  0  0  0  0  0  0  0
    6.6871    0.0678    0.5048 H   0  0  0  0  0  0  0  0  0  0  0  0
    5.8696    0.3127   -1.0199 H   0  0  0  0  0  0  0  0  0  0  0  0
    4.4401    2.8391    1.1536 H   0  0  0  0  0  0  0  0  0  0  0  0
    5.2848    2.5462   -0.3476 H   0  0  0  0  0  0  0  0  0  0  0  0
    6.1024    2.3013    1.1771 H   0  0  0  0  0  0  0  0  0  0  0  0
  1  2  2  0  0  0  0
  2  3  1  0  0  0  0
  2  4  1  0  0  0  0
  3  5  1  0  0  0  0
  3  6  1  0  0  0  0
  4  7  1  0  0  0  0
  4 29  1  0  0  0  0
  5  8  2  0  0  0  0
  5  9  1  0  0  0  0
  6 10  1  0  0  0  0
  6 30  1  0  0  0  0
  6 31  1  0  0  0  0
  7 11  2  0  0  0  0
  7 10  1  0  0  0  0
  8 12  1  0  0  0  0
  8 32  1  0  0  0  0
  9 13  2  0  0  0  0
  9 33  1  0  0  0  0
 10 34  1  0  0  0  0
 10 35  1  0  0  0  0
 12 14  2  0  0  0  0
 13 14  1  0  0  0  0
 13 36  1  0  0  0  0
 15 12  1  0  0  0  0
 15 17  1  0  0  0  0
 15 18  1  0  0  0  0
 15 37  1  1  0  0  0
 16 14  1  0  0  0  0
 16 19  1  0  0  0  0
 16 17  1  0  0  0  0
 16 38  1  1  0  0  0
 17 20  1  0  0  0  0
 18 21  1  0  0  0  0
 18 19  1  0  0  0  0
 18 39  1  6  0  0  0
 19 22  1  0  0  0  0
 19 40  1  6  0  0  0
 20 23  2  0  0  0  0
 20 24  1  0  0  0  0
 21 41  1  0  0  0  0
 22 42  1  0  0  0  0
 24 25  1  0  0  0  0
 25 26  1  0  0  0  0
 25 27  1  0  0  0  0
 25 28  1  0  0  0  0
 26 43  1  0  0  0  0
 26 44  1  0  0  0  0
 26 45  1  0  0  0  0
 27 46  1  0  0  0  0
 27 47  1  0  0  0  0
 27 48  1  0  0  0  0
 28 49  1  0  0  0  0
 28 50  1  0  0  0  0
 28 51  1  0  0  0  0
M  END
>  <Molecule Name>
Compound 4

>  <EC50 (µM) (Excel)>
11.8

>  <Error (µM)>
7.4

>  <HTRC CRBN-DDB1 EC50 (µM)>
11.78 ±  7.41

>  <EC50 fitting (µM)>
15.10

>  <Modèle Fitting>
4PL

>  <Parent_Compound>
Compound 4

>  <MMFF94s_energy_kcalmol>
171.662

$$$$
Compound_4_s4
 OpenBabel09072607323D

 51 54  0  0  0  0  0  0  0  0999 V2000
   -4.7905    2.0819   -0.4215 O   0  0  0  0  0  0  0  0  0  0  0  0
   -5.0912    0.8972   -0.1171 C   0  0  0  0  0  0  0  0  0  0  0  0
   -4.1330   -0.1449   -0.0587 N   0  0  0  0  0  0  0  0  0  0  0  0
   -6.4757    0.6492    0.1727 N   0  0  0  0  0  0  0  0  0  0  0  0
   -2.7973    0.1477   -0.4345 C   0  0  0  0  0  0  0  0  0  0  0  0
   -4.5214   -1.4486    0.3699 C   0  0  0  0  0  0  0  0  0  0  0  0
   -6.8219   -0.6905    0.5179 C   0  0  0  0  0  0  0  0  0  0  0  0
   -1.8496    0.5903    0.4722 C   0  0  0  0  0  0  0  0  0  0  0  0
   -2.3540    0.0077   -1.7433 C   0  0  0  0  0  0  0  0  0  0  0  0
   -5.9616   -1.7746   -0.0161 C   0  0  0  0  0  0  0  0  0  0  0  0
   -7.8341   -0.9180    1.2564 O   0  0  0  0  0  0  0  0  0  0  0  0
   -0.5480    0.8799    0.1281 C   0  0  0  0  0  0  0  0  0  0  0  0
   -1.0621    0.2843   -2.1392 C   0  0  0  0  0  0  0  0  0  0  0  0
   -0.1632    0.7215   -1.1929 C   0  0  0  0  0  0  0  0  0  0  0  0
    0.6691    1.3599    0.8692 C   0  0  1  0  0  0  0  0  0  0  0  0
    1.2745    1.1127   -1.2367 C   0  0  2  0  0  0  0  0  0  0  0  0
    1.6798    0.6883    0.0860 N   0  0  0  0  0  0  0  0  0  0  0  0
    0.9159    2.7905    0.4461 C   0  0  1  0  0  0  0  0  0  0  0  0
    1.2907    2.6154   -1.0265 C   0  0  2  0  0  0  0  0  0  0  0  0
    2.7568   -0.1384    0.4255 C   0  0  0  0  0  0  0  0  0  0  0  0
   -0.2108    3.5912    0.5804 O   0  0  0  0  0  0  0  0  0  0  0  0
    0.3263    3.2538   -1.7803 O   0  0  0  0  0  0  0  0  0  0  0  0
    3.0352   -0.4575    1.6250 O   0  0  0  0  0  0  0  0  0  0  0  0
    3.6239   -0.6878   -0.5283 O   0  0  0  0  0  0  0  0  0  0  0  0
    4.7020   -1.5124   -0.2181 C   0  0  0  0  0  0  0  0  0  0  0  0
    4.3224   -2.7746    0.4934 C   0  0  0  0  0  0  0  0  0  0  0  0
    5.7636   -0.7299    0.5146 C   0  0  0  0  0  0  0  0  0  0  0  0
    5.3286   -1.9367   -1.5544 C   0  0  0  0  0  0  0  0  0  0  0  0
   -7.1498    1.3657    0.1351 H   0  0  0  0  0  0  0  0  0  0  0  0
   -4.4286   -1.5037    1.4344 H   0  0  0  0  0  0  0  0  0  0  0  0
   -3.8823   -2.1581   -0.1128 H   0  0  0  0  0  0  0  0  0  0  0  0
   -2.1332    0.7094    1.4573 H   0  0  0  0  0  0  0  0  0  0  0  0
   -3.0252   -0.3198   -2.4555 H   0  0  0  0  0  0  0  0  0  0  0  0
   -6.2503   -2.7132    0.4089 H   0  0  0  0  0  0  0  0  0  0  0  0
   -6.0603   -1.8454   -1.0792 H   0  0  0  0  0  0  0  0  0  0  0  0
   -0.7756    0.1660   -3.1236 H   0  0  0  0  0  0  0  0  0  0  0  0
    0.6259    1.2293    1.9303 H   0  0  0  0  0  0  0  0  0  0  0  0
    1.8098    0.7674   -2.0964 H   0  0  0  0  0  0  0  0  0  0  0  0
    1.6567    3.2820    1.0415 H   0  0  0  0  0  0  0  0  0  0  0  0
    2.2392    3.0263   -1.3030 H   0  0  0  0  0  0  0  0  0  0  0  0
   -0.9400    3.2124    0.0649 H   0  0  0  0  0  0  0  0  0  0  0  0
   -0.5482    2.9018   -1.5517 H   0  0  0  0  0  0  0  0  0  0  0  0
    3.8784   -2.5327    1.4364 H   0  0  0  0  0  0  0  0  0  0  0  0
    5.1965   -3.3707    0.6531 H   0  0  0  0  0  0  0  0  0  0  0  0
    3.6211   -3.3220   -0.1011 H   0  0  0  0  0  0  0  0  0  0  0  0
    5.3799   -0.4066    1.4597 H   0  0  0  0  0  0  0  0  0  0  0  0
    6.0434    0.1232   -0.0675 H   0  0  0  0  0  0  0  0  0  0  0  0
    6.6204   -1.3514    0.6713 H   0  0  0  0  0  0  0  0  0  0  0  0
    4.6155   -2.4992   -2.1201 H   0  0  0  0  0  0  0  0  0  0  0  0
    6.1920   -2.5406   -1.3677 H   0  0  0  0  0  0  0  0  0  0  0  0
    5.6150   -1.0660   -2.1065 H   0  0  0  0  0  0  0  0  0  0  0  0
  1  2  2  0  0  0  0
  2  3  1  0  0  0  0
  2  4  1  0  0  0  0
  3  5  1  0  0  0  0
  3  6  1  0  0  0  0
  4  7  1  0  0  0  0
  4 29  1  0  0  0  0
  5  8  2  0  0  0  0
  5  9  1  0  0  0  0
  6 10  1  0  0  0  0
  6 30  1  0  0  0  0
  6 31  1  0  0  0  0
  7 11  2  0  0  0  0
  7 10  1  0  0  0  0
  8 12  1  0  0  0  0
  8 32  1  0  0  0  0
  9 13  2  0  0  0  0
  9 33  1  0  0  0  0
 10 34  1  0  0  0  0
 10 35  1  0  0  0  0
 12 14  2  0  0  0  0
 13 14  1  0  0  0  0
 13 36  1  0  0  0  0
 15 12  1  0  0  0  0
 15 17  1  0  0  0  0
 15 18  1  0  0  0  0
 15 37  1  1  0  0  0
 16 14  1  0  0  0  0
 16 19  1  0  0  0  0
 16 17  1  0  0  0  0
 16 38  1  6  0  0  0
 17 20  1  0  0  0  0
 18 21  1  0  0  0  0
 18 19  1  0  0  0  0
 18 39  1  1  0  0  0
 19 22  1  0  0  0  0
 19 40  1  6  0  0  0
 20 23  2  0  0  0  0
 20 24  1  0  0  0  0
 21 41  1  0  0  0  0
 22 42  1  0  0  0  0
 24 25  1  0  0  0  0
 25 26  1  0  0  0  0
 25 27  1  0  0  0  0
 25 28  1  0  0  0  0
 26 43  1  0  0  0  0
 26 44  1  0  0  0  0
 26 45  1  0  0  0  0
 27 46  1  0  0  0  0
 27 47  1  0  0  0  0
 27 48  1  0  0  0  0
 28 49  1  0  0  0  0
 28 50  1  0  0  0  0
 28 51  1  0  0  0  0
M  END
>  <Molecule Name>
Compound 4

>  <EC50 (µM) (Excel)>
11.8

>  <Error (µM)>
7.4

>  <HTRC CRBN-DDB1 EC50 (µM)>
11.78 ±  7.41

>  <EC50 fitting (µM)>
15.10

>  <Modèle Fitting>
4PL

>  <Parent_Compound>
Compound 4

>  <MMFF94s_energy_kcalmol>
179.945

$$$$
Compound_4_s5
 OpenBabel09072607323D

 51 54  0  0  0  0  0  0  0  0999 V2000
   -3.1866   -0.4783    3.0043 O   0  0  0  0  0  0  0  0  0  0  0  0
   -4.1901   -0.2773    2.2654 C   0  0  0  0  0  0  0  0  0  0  0  0
   -4.0604   -0.2504    0.8500 N   0  0  0  0  0  0  0  0  0  0  0  0
   -5.4877   -0.0704    2.8279 N   0  0  0  0  0  0  0  0  0  0  0  0
   -2.8116    0.1048    0.2640 C   0  0  0  0  0  0  0  0  0  0  0  0
   -5.2156   -0.5890    0.0484 C   0  0  0  0  0  0  0  0  0  0  0  0
   -6.5851    0.1519    1.9498 C   0  0  0  0  0  0  0  0  0  0  0  0
   -1.8821   -0.8752   -0.0084 C   0  0  0  0  0  0  0  0  0  0  0  0
   -2.5571    1.4360   -0.0211 C   0  0  0  0  0  0  0  0  0  0  0  0
   -6.4176    0.2133    0.4831 C   0  0  0  0  0  0  0  0  0  0  0  0
   -7.7565    0.3053    2.4212 O   0  0  0  0  0  0  0  0  0  0  0  0
   -0.6786   -0.5682   -0.5685 C   0  0  0  0  0  0  0  0  0  0  0  0
   -1.3224    1.7378   -0.5939 C   0  0  0  0  0  0  0  0  0  0  0  0
   -0.4050    0.7543   -0.8606 C   0  0  0  0  0  0  0  0  0  0  0  0
    0.5281   -1.3401   -0.9906 C   0  0  2  0  0  0  0  0  0  0  0  0
    0.9605    0.7733   -1.4498 C   0  0  1  0  0  0  0  0  0  0  0  0
    1.5394   -0.3467   -0.7440 N   0  0  0  0  0  0  0  0  0  0  0  0
    0.5044   -1.3121   -2.5069 C   0  0  2  0  0  0  0  0  0  0  0  0
    0.8234    0.1506   -2.8236 C   0  0  2  0  0  0  0  0  0  0  0  0
    2.7404   -0.3822   -0.0448 C   0  0  0  0  0  0  0  0  0  0  0  0
   -0.7623   -1.6439   -2.9486 O   0  0  0  0  0  0  0  0  0  0  0  0
    2.0319    0.2291   -3.4734 O   0  0  0  0  0  0  0  0  0  0  0  0
    3.1413   -1.4455    0.5403 O   0  0  0  0  0  0  0  0  0  0  0  0
    3.6044    0.7006    0.0875 O   0  0  0  0  0  0  0  0  0  0  0  0
    4.8079    0.6676    0.7874 C   0  0  0  0  0  0  0  0  0  0  0  0
    4.6443    0.3233    2.2465 C   0  0  0  0  0  0  0  0  0  0  0  0
    5.8513   -0.2267    0.1693 C   0  0  0  0  0  0  0  0  0  0  0  0
    5.3831    2.0905    0.7538 C   0  0  0  0  0  0  0  0  0  0  0  0
   -5.6196   -0.0815    3.8035 H   0  0  0  0  0  0  0  0  0  0  0  0
   -5.4289   -1.6314    0.1617 H   0  0  0  0  0  0  0  0  0  0  0  0
   -5.0027   -0.3639   -0.9758 H   0  0  0  0  0  0  0  0  0  0  0  0
   -2.1012   -1.8585    0.2156 H   0  0  0  0  0  0  0  0  0  0  0  0
   -3.2511    2.1724    0.1816 H   0  0  0  0  0  0  0  0  0  0  0  0
   -7.2931   -0.1833    0.0129 H   0  0  0  0  0  0  0  0  0  0  0  0
   -6.2715    1.2338    0.1964 H   0  0  0  0  0  0  0  0  0  0  0  0
   -1.0950    2.7185   -0.8211 H   0  0  0  0  0  0  0  0  0  0  0  0
    0.6241   -2.3137   -0.5572 H   0  0  0  0  0  0  0  0  0  0  0  0
    1.4443    1.7275   -1.4319 H   0  0  0  0  0  0  0  0  0  0  0  0
    1.1838   -1.9962   -2.9710 H   0  0  0  0  0  0  0  0  0  0  0  0
    0.0884    0.6213   -3.4426 H   0  0  0  0  0  0  0  0  0  0  0  0
   -1.4115   -1.0441   -2.5489 H   0  0  0  0  0  0  0  0  0  0  0  0
    2.7180   -0.1917   -2.9320 H   0  0  0  0  0  0  0  0  0  0  0  0
    4.2438   -0.6648    2.3371 H   0  0  0  0  0  0  0  0  0  0  0  0
    3.9765    1.0223    2.7052 H   0  0  0  0  0  0  0  0  0  0  0  0
    5.5965    0.3681    2.7325 H   0  0  0  0  0  0  0  0  0  0  0  0
    5.4993   -1.2371    0.1675 H   0  0  0  0  0  0  0  0  0  0  0  0
    6.7558   -0.1652    0.7376 H   0  0  0  0  0  0  0  0  0  0  0  0
    6.0398    0.0871   -0.8361 H   0  0  0  0  0  0  0  0  0  0  0  0
    4.6777    2.7706    1.1838 H   0  0  0  0  0  0  0  0  0  0  0  0
    5.5782    2.3725   -0.2598 H   0  0  0  0  0  0  0  0  0  0  0  0
    6.2943    2.1202    1.3140 H   0  0  0  0  0  0  0  0  0  0  0  0
  1  2  2  0  0  0  0
  2  3  1  0  0  0  0
  2  4  1  0  0  0  0
  3  5  1  0  0  0  0
  3  6  1  0  0  0  0
  4  7  1  0  0  0  0
  4 29  1  0  0  0  0
  5  8  2  0  0  0  0
  5  9  1  0  0  0  0
  6 10  1  0  0  0  0
  6 30  1  0  0  0  0
  6 31  1  0  0  0  0
  7 11  2  0  0  0  0
  7 10  1  0  0  0  0
  8 12  1  0  0  0  0
  8 32  1  0  0  0  0
  9 13  2  0  0  0  0
  9 33  1  0  0  0  0
 10 34  1  0  0  0  0
 10 35  1  0  0  0  0
 12 14  2  0  0  0  0
 13 14  1  0  0  0  0
 13 36  1  0  0  0  0
 15 12  1  0  0  0  0
 15 17  1  0  0  0  0
 15 18  1  0  0  0  0
 15 37  1  1  0  0  0
 16 14  1  0  0  0  0
 16 19  1  0  0  0  0
 16 17  1  0  0  0  0
 16 38  1  1  0  0  0
 17 20  1  0  0  0  0
 18 21  1  0  0  0  0
 18 19  1  0  0  0  0
 18 39  1  6  0  0  0
 19 22  1  0  0  0  0
 19 40  1  6  0  0  0
 20 23  2  0  0  0  0
 20 24  1  0  0  0  0
 21 41  1  0  0  0  0
 22 42  1  0  0  0  0
 24 25  1  0  0  0  0
 25 26  1  0  0  0  0
 25 27  1  0  0  0  0
 25 28  1  0  0  0  0
 26 43  1  0  0  0  0
 26 44  1  0  0  0  0
 26 45  1  0  0  0  0
 27 46  1  0  0  0  0
 27 47  1  0  0  0  0
 27 48  1  0  0  0  0
 28 49  1  0  0  0  0
 28 50  1  0  0  0  0
 28 51  1  0  0  0  0
M  END
>  <Molecule Name>
Compound 4

>  <EC50 (µM) (Excel)>
11.8

>  <Error (µM)>
7.4

>  <HTRC CRBN-DDB1 EC50 (µM)>
11.78 ±  7.41

>  <EC50 fitting (µM)>
15.10

>  <Modèle Fitting>
4PL

>  <Parent_Compound>
Compound 4

>  <MMFF94s_energy_kcalmol>
163.563

$$$$
Compound_4_s8
 OpenBabel09072607323D

 51 54  0  0  0  0  0  0  0  0999 V2000
   -3.2238    1.9635    2.2676 O   0  0  0  0  0  0  0  0  0  0  0  0
   -4.1752    1.2868    1.8434 C   0  0  0  0  0  0  0  0  0  0  0  0
   -3.9664    0.0422    1.1867 N   0  0  0  0  0  0  0  0  0  0  0  0
   -5.5307    1.7381    2.0034 N   0  0  0  0  0  0  0  0  0  0  0  0
   -2.8021   -0.2311    0.4252 C   0  0  0  0  0  0  0  0  0  0  0  0
   -5.0525   -0.9062    1.3280 C   0  0  0  0  0  0  0  0  0  0  0  0
   -6.6063    0.9493    1.5147 C   0  0  0  0  0  0  0  0  0  0  0  0
   -1.8763    0.7588    0.1340 C   0  0  0  0  0  0  0  0  0  0  0  0
   -2.4967   -1.4874   -0.0563 C   0  0  0  0  0  0  0  0  0  0  0  0
   -6.3030   -0.2612    0.7252 C   0  0  0  0  0  0  0  0  0  0  0  0
   -7.7703    1.3325    1.7862 O   0  0  0  0  0  0  0  0  0  0  0  0
   -0.7118    0.5317   -0.5898 C   0  0  0  0  0  0  0  0  0  0  0  0
   -1.3363   -1.7436   -0.7852 C   0  0  0  0  0  0  0  0  0  0  0  0
   -0.4428   -0.7413   -1.0542 C   0  0  0  0  0  0  0  0  0  0  0  0
    0.4259    1.3732   -1.0390 C   0  0  1  0  0  0  0  0  0  0  0  0
    0.8609   -0.6582   -1.7814 C   0  0  2  0  0  0  0  0  0  0  0  0
    1.4918    0.3846   -0.9734 N   0  0  0  0  0  0  0  0  0  0  0  0
    0.2848    1.4950   -2.5388 C   0  0  2  0  0  0  0  0  0  0  0  0
    0.6423    0.1077   -3.0656 C   0  0  2  0  0  0  0  0  0  0  0  0
    2.7491    0.4150   -0.3308 C   0  0  0  0  0  0  0  0  0  0  0  0
    1.1119    2.4699   -3.0696 O   0  0  0  0  0  0  0  0  0  0  0  0
   -0.3576   -0.4235   -3.8506 O   0  0  0  0  0  0  0  0  0  0  0  0
    3.0711    1.4478    0.3182 O   0  0  0  0  0  0  0  0  0  0  0  0
    3.6491   -0.6144   -0.3674 O   0  0  0  0  0  0  0  0  0  0  0  0
    4.9003   -0.6206    0.2551 C   0  0  0  0  0  0  0  0  0  0  0  0
    4.8046   -0.4506    1.7566 C   0  0  0  0  0  0  0  0  0  0  0  0
    5.8565    0.3902   -0.3515 C   0  0  0  0  0  0  0  0  0  0  0  0
    5.5205   -1.9993    0.0196 C   0  0  0  0  0  0  0  0  0  0  0  0
   -5.7138    2.5950    2.4523 H   0  0  0  0  0  0  0  0  0  0  0  0
   -5.2158   -1.1241    2.3628 H   0  0  0  0  0  0  0  0  0  0  0  0
   -4.8213   -1.8234    0.8278 H   0  0  0  0  0  0  0  0  0  0  0  0
   -2.0618    1.7158    0.4729 H   0  0  0  0  0  0  0  0  0  0  0  0
   -3.1499   -2.2644    0.1296 H   0  0  0  0  0  0  0  0  0  0  0  0
   -7.1253   -0.9441    0.7740 H   0  0  0  0  0  0  0  0  0  0  0  0
   -6.1376   -0.0085   -0.3013 H   0  0  0  0  0  0  0  0  0  0  0  0
   -1.1485   -2.6995   -1.1259 H   0  0  0  0  0  0  0  0  0  0  0  0
    0.5276    2.3053   -0.5234 H   0  0  0  0  0  0  0  0  0  0  0  0
    1.3364   -1.6043   -1.9351 H   0  0  0  0  0  0  0  0  0  0  0  0
   -0.7017    1.7992   -2.8201 H   0  0  0  0  0  0  0  0  0  0  0  0
    1.4913    0.0905   -3.7166 H   0  0  0  0  0  0  0  0  0  0  0  0
    2.0349    2.2629   -2.8548 H   0  0  0  0  0  0  0  0  0  0  0  0
   -1.1848   -0.4525   -3.3448 H   0  0  0  0  0  0  0  0  0  0  0  0
    4.3747    0.5032    1.9809 H   0  0  0  0  0  0  0  0  0  0  0  0
    5.7831   -0.5105    2.1854 H   0  0  0  0  0  0  0  0  0  0  0  0
    4.1884   -1.2244    2.1646 H   0  0  0  0  0  0  0  0  0  0  0  0
    5.4671    1.3772   -0.2131 H   0  0  0  0  0  0  0  0  0  0  0  0
    5.9668    0.1937   -1.3975 H   0  0  0  0  0  0  0  0  0  0  0  0
    6.8096    0.3122    0.1285 H   0  0  0  0  0  0  0  0  0  0  0  0
    4.8817   -2.7527    0.4309 H   0  0  0  0  0  0  0  0  0  0  0  0
    6.4782   -2.0454    0.4946 H   0  0  0  0  0  0  0  0  0  0  0  0
    5.6354   -2.1639   -1.0314 H   0  0  0  0  0  0  0  0  0  0  0  0
  1  2  2  0  0  0  0
  2  3  1  0  0  0  0
  2  4  1  0  0  0  0
  3  5  1  0  0  0  0
  3  6  1  0  0  0  0
  4  7  1  0  0  0  0
  4 29  1  0  0  0  0
  5  8  2  0  0  0  0
  5  9  1  0  0  0  0
  6 10  1  0  0  0  0
  6 30  1  0  0  0  0
  6 31  1  0  0  0  0
  7 11  2  0  0  0  0
  7 10  1  0  0  0  0
  8 12  1  0  0  0  0
  8 32  1  0  0  0  0
  9 13  2  0  0  0  0
  9 33  1  0  0  0  0
 10 34  1  0  0  0  0
 10 35  1  0  0  0  0
 12 14  2  0  0  0  0
 13 14  1  0  0  0  0
 13 36  1  0  0  0  0
 15 12  1  0  0  0  0
 15 17  1  0  0  0  0
 15 18  1  0  0  0  0
 15 37  1  1  0  0  0
 16 14  1  0  0  0  0
 16 19  1  0  0  0  0
 16 17  1  0  0  0  0
 16 38  1  6  0  0  0
 17 20  1  0  0  0  0
 18 21  1  0  0  0  0
 18 19  1  0  0  0  0
 18 39  1  6  0  0  0
 19 22  1  0  0  0  0
 19 40  1  6  0  0  0
 20 23  2  0  0  0  0
 20 24  1  0  0  0  0
 21 41  1  0  0  0  0
 22 42  1  0  0  0  0
 24 25  1  0  0  0  0
 25 26  1  0  0  0  0
 25 27  1  0  0  0  0
 25 28  1  0  0  0  0
 26 43  1  0  0  0  0
 26 44  1  0  0  0  0
 26 45  1  0  0  0  0
 27 46  1  0  0  0  0
 27 47  1  0  0  0  0
 27 48  1  0  0  0  0
 28 49  1  0  0  0  0
 28 50  1  0  0  0  0
 28 51  1  0  0  0  0
M  END
>  <Molecule Name>
Compound 4

>  <EC50 (µM) (Excel)>
11.8

>  <Error (µM)>
7.4

>  <HTRC CRBN-DDB1 EC50 (µM)>
11.78 ±  7.41

>  <EC50 fitting (µM)>
15.10

>  <Modèle Fitting>
4PL

>  <Parent_Compound>
Compound 4

>  <MMFF94s_energy_kcalmol>
162.344

$$$$
Compound_4_s9
 OpenBabel09072607323D

 51 54  0  0  0  0  0  0  0  0999 V2000
   -3.3000    0.6124    2.9061 O   0  0  0  0  0  0  0  0  0  0  0  0
   -4.2791    0.5538    2.1176 C   0  0  0  0  0  0  0  0  0  0  0  0
   -4.0832    0.0813    0.8078 N   0  0  0  0  0  0  0  0  0  0  0  0
   -5.5849    0.9556    2.5206 N   0  0  0  0  0  0  0  0  0  0  0  0
   -2.8116    0.1791    0.1921 C   0  0  0  0  0  0  0  0  0  0  0  0
   -5.2165   -0.5081    0.1051 C   0  0  0  0  0  0  0  0  0  0  0  0
   -6.6255    0.8534    1.5619 C   0  0  0  0  0  0  0  0  0  0  0  0
   -1.9063   -0.8588    0.3314 C   0  0  0  0  0  0  0  0  0  0  0  0
   -2.5415    1.3230   -0.5246 C   0  0  0  0  0  0  0  0  0  0  0  0
   -6.3550    0.4911    0.1449 C   0  0  0  0  0  0  0  0  0  0  0  0
   -7.8179    1.0685    1.8859 O   0  0  0  0  0  0  0  0  0  0  0  0
   -0.6787   -0.7688   -0.2608 C   0  0  0  0  0  0  0  0  0  0  0  0
   -1.2898    1.4178   -1.1299 C   0  0  0  0  0  0  0  0  0  0  0  0
   -0.3962    0.3822   -0.9865 C   0  0  0  0  0  0  0  0  0  0  0  0
    0.5475   -1.6074   -0.3706 C   0  0  2  0  0  0  0  0  0  0  0  0
    0.9850    0.2267   -1.5155 C   0  0  1  0  0  0  0  0  0  0  0  0
    1.5544   -0.5694   -0.4428 N   0  0  0  0  0  0  0  0  0  0  0  0
    0.5819   -2.0872   -1.8081 C   0  0  1  0  0  0  0  0  0  0  0  0
    0.9017   -0.8203   -2.6038 C   0  0  1  0  0  0  0  0  0  0  0  0
    2.7361   -0.3176    0.2504 C   0  0  0  0  0  0  0  0  0  0  0  0
    1.5593   -3.0516   -2.0125 O   0  0  0  0  0  0  0  0  0  0  0  0
   -0.1562   -0.5171   -3.4384 O   0  0  0  0  0  0  0  0  0  0  0  0
    3.1178   -1.1103    1.1781 O   0  0  0  0  0  0  0  0  0  0  0  0
    3.5723    0.7573    0.0190 O   0  0  0  0  0  0  0  0  0  0  0  0
    4.7578    0.9994    0.7228 C   0  0  0  0  0  0  0  0  0  0  0  0
    5.7593   -0.1190    0.5912 C   0  0  0  0  0  0  0  0  0  0  0  0
    5.3986    2.2470    0.1480 C   0  0  0  0  0  0  0  0  0  0  0  0
    4.5226    1.2477    2.1966 C   0  0  0  0  0  0  0  0  0  0  0  0
   -5.7586    1.2914    3.4296 H   0  0  0  0  0  0  0  0  0  0  0  0
   -5.5119   -1.4163    0.5876 H   0  0  0  0  0  0  0  0  0  0  0  0
   -4.9527   -0.7348   -0.9068 H   0  0  0  0  0  0  0  0  0  0  0  0
   -2.1575   -1.6962    0.8798 H   0  0  0  0  0  0  0  0  0  0  0  0
   -3.2379    2.0798   -0.6102 H   0  0  0  0  0  0  0  0  0  0  0  0
   -7.2310    0.0556   -0.2884 H   0  0  0  0  0  0  0  0  0  0  0  0
   -6.0898    1.3667   -0.4099 H   0  0  0  0  0  0  0  0  0  0  0  0
   -1.0367    2.2543   -1.6787 H   0  0  0  0  0  0  0  0  0  0  0  0
    0.6315   -2.3770    0.3680 H   0  0  0  0  0  0  0  0  0  0  0  0
    1.4594    1.1375   -1.8161 H   0  0  0  0  0  0  0  0  0  0  0  0
   -0.3373   -2.5517   -2.0982 H   0  0  0  0  0  0  0  0  0  0  0  0
    1.7796   -0.9001   -3.2102 H   0  0  0  0  0  0  0  0  0  0  0  0
    2.4256   -2.6912   -1.7664 H   0  0  0  0  0  0  0  0  0  0  0  0
   -0.9689   -0.4382   -2.9147 H   0  0  0  0  0  0  0  0  0  0  0  0
    5.9426   -0.3136   -0.4449 H   0  0  0  0  0  0  0  0  0  0  0  0
    5.3720   -1.0012    1.0567 H   0  0  0  0  0  0  0  0  0  0  0  0
    6.6744    0.1637    1.0683 H   0  0  0  0  0  0  0  0  0  0  0  0
    5.5796    2.1058   -0.8971 H   0  0  0  0  0  0  0  0  0  0  0  0
    6.3256    2.4348    0.6484 H   0  0  0  0  0  0  0  0  0  0  0  0
    4.7430    3.0811    0.2869 H   0  0  0  0  0  0  0  0  0  0  0  0
    4.0694    0.3837    2.6360 H   0  0  0  0  0  0  0  0  0  0  0  0
    3.8747    2.0907    2.3173 H   0  0  0  0  0  0  0  0  0  0  0  0
    5.4573    1.4443    2.6788 H   0  0  0  0  0  0  0  0  0  0  0  0
  1  2  2  0  0  0  0
  2  3  1  0  0  0  0
  2  4  1  0  0  0  0
  3  5  1  0  0  0  0
  3  6  1  0  0  0  0
  4  7  1  0  0  0  0
  4 29  1  0  0  0  0
  5  8  2  0  0  0  0
  5  9  1  0  0  0  0
  6 10  1  0  0  0  0
  6 30  1  0  0  0  0
  6 31  1  0  0  0  0
  7 11  2  0  0  0  0
  7 10  1  0  0  0  0
  8 12  1  0  0  0  0
  8 32  1  0  0  0  0
  9 13  2  0  0  0  0
  9 33  1  0  0  0  0
 10 34  1  0  0  0  0
 10 35  1  0  0  0  0
 12 14  2  0  0  0  0
 13 14  1  0  0  0  0
 13 36  1  0  0  0  0
 15 12  1  0  0  0  0
 15 17  1  0  0  0  0
 15 18  1  0  0  0  0
 15 37  1  1  0  0  0
 16 14  1  0  0  0  0
 16 19  1  0  0  0  0
 16 17  1  0  0  0  0
 16 38  1  6  0  0  0
 17 20  1  0  0  0  0
 18 21  1  0  0  0  0
 18 19  1  0  0  0  0
 18 39  1  6  0  0  0
 19 22  1  0  0  0  0
 19 40  1  6  0  0  0
 20 23  2  0  0  0  0
 20 24  1  0  0  0  0
 21 41  1  0  0  0  0
 22 42  1  0  0  0  0
 24 25  1  0  0  0  0
 25 26  1  0  0  0  0
 25 27  1  0  0  0  0
 25 28  1  0  0  0  0
 26 43  1  0  0  0  0
 26 44  1  0  0  0  0
 26 45  1  0  0  0  0
 27 46  1  0  0  0  0
 27 47  1  0  0  0  0
 27 48  1  0  0  0  0
 28 49  1  0  0  0  0
 28 50  1  0  0  0  0
 28 51  1  0  0  0  0
M  END
>  <Molecule Name>
Compound 4

>  <EC50 (µM) (Excel)>
11.8

>  <Error (µM)>
7.4

>  <HTRC CRBN-DDB1 EC50 (µM)>
11.78 ±  7.41

>  <EC50 fitting (µM)>
15.10

>  <Modèle Fitting>
4PL

>  <Parent_Compound>
Compound 4

>  <MMFF94s_energy_kcalmol>
153.088

$$$$
Compound_4_s12
 OpenBabel09072607323D

 51 54  0  0  0  0  0  0  0  0999 V2000
   -4.8279    2.0511    0.5475 O   0  0  0  0  0  0  0  0  0  0  0  0
   -5.1570    0.8382    0.5073 C   0  0  0  0  0  0  0  0  0  0  0  0
   -4.1269   -0.1493    0.4186 N   0  0  0  0  0  0  0  0  0  0  0  0
   -6.5328    0.4776    0.5505 N   0  0  0  0  0  0  0  0  0  0  0  0
   -2.8382    0.1641   -0.0942 C   0  0  0  0  0  0  0  0  0  0  0  0
   -4.4725   -1.4903    0.8823 C   0  0  0  0  0  0  0  0  0  0  0  0
   -6.8177   -0.9161    0.5003 C   0  0  0  0  0  0  0  0  0  0  0  0
   -1.7888    0.6114    0.7110 C   0  0  0  0  0  0  0  0  0  0  0  0
   -2.5611    0.0376   -1.4387 C   0  0  0  0  0  0  0  0  0  0  0  0
   -5.7408   -1.8952    0.1766 C   0  0  0  0  0  0  0  0  0  0  0  0
   -8.0023   -1.2886    0.7373 O   0  0  0  0  0  0  0  0  0  0  0  0
   -0.5520    0.9057    0.1771 C   0  0  0  0  0  0  0  0  0  0  0  0
   -1.3093    0.3363   -1.9737 C   0  0  0  0  0  0  0  0  0  0  0  0
   -0.2968    0.7715   -1.1750 C   0  0  0  0  0  0  0  0  0  0  0  0
    0.7132    1.3852    0.8018 C   0  0  1  0  0  0  0  0  0  0  0  0
    1.1288    1.1833   -1.3591 C   0  0  2  0  0  0  0  0  0  0  0  0
    1.6741    0.7160   -0.0959 N   0  0  0  0  0  0  0  0  0  0  0  0
    0.9085    2.8081    0.3949 C   0  0  1  0  0  0  0  0  0  0  0  0
    1.1485    2.6739   -1.1162 C   0  0  1  0  0  0  0  0  0  0  0  0
    2.7602   -0.1051    0.1972 C   0  0  0  0  0  0  0  0  0  0  0  0
   -0.1880    3.6199    0.6556 O   0  0  0  0  0  0  0  0  0  0  0  0
    2.3314    3.2693   -1.4872 O   0  0  0  0  0  0  0  0  0  0  0  0
    3.0758   -0.3976    1.3743 O   0  0  0  0  0  0  0  0  0  0  0  0
    3.5279   -0.6245   -0.8307 O   0  0  0  0  0  0  0  0  0  0  0  0
    4.6213   -1.4498   -0.5600 C   0  0  0  0  0  0  0  0  0  0  0  0
    4.1373   -2.6673    0.1843 C   0  0  0  0  0  0  0  0  0  0  0  0
    5.7130   -0.7837    0.2274 C   0  0  0  0  0  0  0  0  0  0  0  0
    5.2482   -1.9080   -1.8792 C   0  0  0  0  0  0  0  0  0  0  0  0
   -7.2464    1.1531    0.6116 H   0  0  0  0  0  0  0  0  0  0  0  0
   -4.6288   -1.4828    1.9408 H   0  0  0  0  0  0  0  0  0  0  0  0
   -3.6831   -2.1803    0.6685 H   0  0  0  0  0  0  0  0  0  0  0  0
   -1.9418    0.7239    1.7254 H   0  0  0  0  0  0  0  0  0  0  0  0
   -3.3074   -0.2900   -2.0718 H   0  0  0  0  0  0  0  0  0  0  0  0
   -6.0352   -2.8711    0.5020 H   0  0  0  0  0  0  0  0  0  0  0  0
   -5.5745   -1.9094   -0.8803 H   0  0  0  0  0  0  0  0  0  0  0  0
   -1.1482    0.2262   -2.9871 H   0  0  0  0  0  0  0  0  0  0  0  0
    0.7677    1.2403    1.8605 H   0  0  0  0  0  0  0  0  0  0  0  0
    1.5793    0.8725   -2.2785 H   0  0  0  0  0  0  0  0  0  0  0  0
    1.7003    3.2808    0.9375 H   0  0  0  0  0  0  0  0  0  0  0  0
    0.4097    3.1729   -1.7079 H   0  0  0  0  0  0  0  0  0  0  0  0
   -0.9675    3.2668    0.1989 H   0  0  0  0  0  0  0  0  0  0  0  0
    3.0635    2.8705   -0.9914 H   0  0  0  0  0  0  0  0  0  0  0  0
    3.6951   -2.3664    1.1110 H   0  0  0  0  0  0  0  0  0  0  0  0
    4.9637   -3.3186    0.3784 H   0  0  0  0  0  0  0  0  0  0  0  0
    3.4094   -3.1814   -0.4079 H   0  0  0  0  0  0  0  0  0  0  0  0
    5.3214   -0.4443    1.1635 H   0  0  0  0  0  0  0  0  0  0  0  0
    6.0922    0.0510   -0.3243 H   0  0  0  0  0  0  0  0  0  0  0  0
    6.5032   -1.4832    0.4039 H   0  0  0  0  0  0  0  0  0  0  0  0
    4.5050   -2.3914   -2.4783 H   0  0  0  0  0  0  0  0  0  0  0  0
    6.0443   -2.5936   -1.6766 H   0  0  0  0  0  0  0  0  0  0  0  0
    5.6334   -1.0593   -2.4048 H   0  0  0  0  0  0  0  0  0  0  0  0
  1  2  2  0  0  0  0
  2  3  1  0  0  0  0
  2  4  1  0  0  0  0
  3  5  1  0  0  0  0
  3  6  1  0  0  0  0
  4  7  1  0  0  0  0
  4 29  1  0  0  0  0
  5  8  2  0  0  0  0
  5  9  1  0  0  0  0
  6 10  1  0  0  0  0
  6 30  1  0  0  0  0
  6 31  1  0  0  0  0
  7 11  2  0  0  0  0
  7 10  1  0  0  0  0
  8 12  1  0  0  0  0
  8 32  1  0  0  0  0
  9 13  2  0  0  0  0
  9 33  1  0  0  0  0
 10 34  1  0  0  0  0
 10 35  1  0  0  0  0
 12 14  2  0  0  0  0
 13 14  1  0  0  0  0
 13 36  1  0  0  0  0
 15 12  1  0  0  0  0
 15 17  1  0  0  0  0
 15 18  1  0  0  0  0
 15 37  1  1  0  0  0
 16 14  1  0  0  0  0
 16 19  1  0  0  0  0
 16 17  1  0  0  0  0
 16 38  1  6  0  0  0
 17 20  1  0  0  0  0
 18 21  1  0  0  0  0
 18 19  1  0  0  0  0
 18 39  1  1  0  0  0
 19 22  1  0  0  0  0
 19 40  1  6  0  0  0
 20 23  2  0  0  0  0
 20 24  1  0  0  0  0
 21 41  1  0  0  0  0
 22 42  1  0  0  0  0
 24 25  1  0  0  0  0
 25 26  1  0  0  0  0
 25 27  1  0  0  0  0
 25 28  1  0  0  0  0
 26 43  1  0  0  0  0
 26 44  1  0  0  0  0
 26 45  1  0  0  0  0
 27 46  1  0  0  0  0
 27 47  1  0  0  0  0
 27 48  1  0  0  0  0
 28 49  1  0  0  0  0
 28 50  1  0  0  0  0
 28 51  1  0  0  0  0
M  END
>  <Molecule Name>
Compound 4

>  <EC50 (µM) (Excel)>
11.8

>  <Error (µM)>
7.4

>  <HTRC CRBN-DDB1 EC50 (µM)>
11.78 ±  7.41

>  <EC50 fitting (µM)>
15.10

>  <Modèle Fitting>
4PL

>  <Parent_Compound>
Compound 4

>  <MMFF94s_energy_kcalmol>
162.454

$$$$
Compound_4_s13
 OpenBabel09072607323D

 51 54  0  0  0  0  0  0  0  0999 V2000
   -3.2047    2.3572    1.3013 O   0  0  0  0  0  0  0  0  0  0  0  0
   -4.1541    1.6323    0.9545 C   0  0  0  0  0  0  0  0  0  0  0  0
   -3.9991    0.6309   -0.0352 N   0  0  0  0  0  0  0  0  0  0  0  0
   -5.4579    1.7913    1.5530 N   0  0  0  0  0  0  0  0  0  0  0  0
   -2.7263   -0.0292   -0.2111 C   0  0  0  0  0  0  0  0  0  0  0  0
   -5.1267    0.2524   -0.8490 C   0  0  0  0  0  0  0  0  0  0  0  0
   -6.5063    0.9066    1.0813 C   0  0  0  0  0  0  0  0  0  0  0  0
   -1.6623    0.1339    0.6387 C   0  0  0  0  0  0  0  0  0  0  0  0
   -2.5606   -0.8531   -1.3058 C   0  0  0  0  0  0  0  0  0  0  0  0
   -6.4641    0.6592   -0.3766 C   0  0  0  0  0  0  0  0  0  0  0  0
   -7.3148    0.4505    1.8941 O   0  0  0  0  0  0  0  0  0  0  0  0
   -0.4500   -0.5210    0.3916 C   0  0  0  0  0  0  0  0  0  0  0  0
   -1.3526   -1.5122   -1.5611 C   0  0  0  0  0  0  0  0  0  0  0  0
   -0.2877   -1.3453   -0.7060 C   0  0  0  0  0  0  0  0  0  0  0  0
    0.8627   -0.5596    1.0978 C   0  0  2  0  0  0  0  0  0  0  0  0
    1.0944   -1.8677   -0.6688 C   0  0  1  0  0  0  0  0  0  0  0  0
    1.7517   -0.7032   -0.0603 N   0  0  0  0  0  0  0  0  0  0  0  0
    0.9813   -1.9511    1.6710 C   0  0  2  0  0  0  0  0  0  0  0  0
    1.2595   -2.8479    0.4716 C   0  0  1  0  0  0  0  0  0  0  0  0
    2.8648    0.0137   -0.4767 C   0  0  0  0  0  0  0  0  0  0  0  0
   -0.2840   -2.3078    2.1558 O   0  0  0  0  0  0  0  0  0  0  0  0
    0.3682   -3.9034    0.3938 O   0  0  0  0  0  0  0  0  0  0  0  0
    3.4428   -0.3453   -1.5359 O   0  0  0  0  0  0  0  0  0  0  0  0
    3.4005    1.1072    0.1858 O   0  0  0  0  0  0  0  0  0  0  0  0
    4.5404    1.8143   -0.2718 C   0  0  0  0  0  0  0  0  0  0  0  0
    5.7222    0.8647   -0.3388 C   0  0  0  0  0  0  0  0  0  0  0  0
    4.3176    2.4502   -1.6162 C   0  0  0  0  0  0  0  0  0  0  0  0
    4.8270    2.9030    0.7429 C   0  0  0  0  0  0  0  0  0  0  0  0
   -5.6275    2.4677    2.2480 H   0  0  0  0  0  0  0  0  0  0  0  0
   -5.1236   -0.8147   -0.9276 H   0  0  0  0  0  0  0  0  0  0  0  0
   -4.9889    0.7748   -1.7726 H   0  0  0  0  0  0  0  0  0  0  0  0
   -1.7560    0.7436    1.4660 H   0  0  0  0  0  0  0  0  0  0  0  0
   -3.3511   -0.9872   -1.9556 H   0  0  0  0  0  0  0  0  0  0  0  0
   -7.1608   -0.1181   -0.6118 H   0  0  0  0  0  0  0  0  0  0  0  0
   -6.7134    1.5772   -0.8665 H   0  0  0  0  0  0  0  0  0  0  0  0
   -1.2608   -2.1219   -2.3887 H   0  0  0  0  0  0  0  0  0  0  0  0
    1.0186    0.2316    1.8011 H   0  0  0  0  0  0  0  0  0  0  0  0
    1.4053   -2.2768   -1.6074 H   0  0  0  0  0  0  0  0  0  0  0  0
    1.7257   -2.0242    2.4361 H   0  0  0  0  0  0  0  0  0  0  0  0
    2.2139   -3.3311    0.4947 H   0  0  0  0  0  0  0  0  0  0  0  0
   -0.9367   -2.2322    1.4423 H   0  0  0  0  0  0  0  0  0  0  0  0
   -0.5385   -3.5597    0.3676 H   0  0  0  0  0  0  0  0  0  0  0  0
    5.5214    0.0954   -1.0548 H   0  0  0  0  0  0  0  0  0  0  0  0
    5.8806    0.4240    0.6233 H   0  0  0  0  0  0  0  0  0  0  0  0
    6.5979    1.4052   -0.6321 H   0  0  0  0  0  0  0  0  0  0  0  0
    4.1142    1.6899   -2.3411 H   0  0  0  0  0  0  0  0  0  0  0  0
    5.1942    2.9921   -1.9041 H   0  0  0  0  0  0  0  0  0  0  0  0
    3.4859    3.1211   -1.5600 H   0  0  0  0  0  0  0  0  0  0  0  0
    4.9873    2.4613    1.7042 H   0  0  0  0  0  0  0  0  0  0  0  0
    3.9939    3.5726    0.7925 H   0  0  0  0  0  0  0  0  0  0  0  0
    5.7021    3.4437    0.4484 H   0  0  0  0  0  0  0  0  0  0  0  0
  1  2  2  0  0  0  0
  2  3  1  0  0  0  0
  2  4  1  0  0  0  0
  3  5  1  0  0  0  0
  3  6  1  0  0  0  0
  4  7  1  0  0  0  0
  4 29  1  0  0  0  0
  5  8  2  0  0  0  0
  5  9  1  0  0  0  0
  6 10  1  0  0  0  0
  6 30  1  0  0  0  0
  6 31  1  0  0  0  0
  7 11  2  0  0  0  0
  7 10  1  0  0  0  0
  8 12  1  0  0  0  0
  8 32  1  0  0  0  0
  9 13  2  0  0  0  0
  9 33  1  0  0  0  0
 10 34  1  0  0  0  0
 10 35  1  0  0  0  0
 12 14  2  0  0  0  0
 13 14  1  0  0  0  0
 13 36  1  0  0  0  0
 15 12  1  0  0  0  0
 15 17  1  0  0  0  0
 15 18  1  0  0  0  0
 15 37  1  1  0  0  0
 16 14  1  0  0  0  0
 16 19  1  0  0  0  0
 16 17  1  0  0  0  0
 16 38  1  6  0  0  0
 17 20  1  0  0  0  0
 18 21  1  0  0  0  0
 18 19  1  0  0  0  0
 18 39  1  1  0  0  0
 19 22  1  0  0  0  0
 19 40  1  1  0  0  0
 20 23  2  0  0  0  0
 20 24  1  0  0  0  0
 21 41  1  0  0  0  0
 22 42  1  0  0  0  0
 24 25  1  0  0  0  0
 25 26  1  0  0  0  0
 25 27  1  0  0  0  0
 25 28  1  0  0  0  0
 26 43  1  0  0  0  0
 26 44  1  0  0  0  0
 26 45  1  0  0  0  0
 27 46  1  0  0  0  0
 27 47  1  0  0  0  0
 27 48  1  0  0  0  0
 28 49  1  0  0  0  0
 28 50  1  0  0  0  0
 28 51  1  0  0  0  0
M  END
>  <Molecule Name>
Compound 4

>  <EC50 (µM) (Excel)>
11.8

>  <Error (µM)>
7.4

>  <HTRC CRBN-DDB1 EC50 (µM)>
11.78 ±  7.41

>  <EC50 fitting (µM)>
15.10

>  <Modèle Fitting>
4PL

>  <Parent_Compound>
Compound 4

>  <MMFF94s_energy_kcalmol>
197.272

$$$$
Compound_4_s16
 OpenBabel09072607323D

 51 54  0  0  0  0  0  0  0  0999 V2000
   -4.8826    1.8548   -0.2389 O   0  0  0  0  0  0  0  0  0  0  0  0
   -5.2492    0.6940    0.1088 C   0  0  0  0  0  0  0  0  0  0  0  0
   -4.2189   -0.2898    0.3176 N   0  0  0  0  0  0  0  0  0  0  0  0
   -6.6229    0.3945    0.2803 N   0  0  0  0  0  0  0  0  0  0  0  0
   -2.9189   -0.0138   -0.1831 C   0  0  0  0  0  0  0  0  0  0  0  0
   -4.5816   -1.4855    1.0209 C   0  0  0  0  0  0  0  0  0  0  0  0
   -6.9450   -0.9429    0.6744 C   0  0  0  0  0  0  0  0  0  0  0  0
   -1.9310    0.6388    0.5387 C   0  0  0  0  0  0  0  0  0  0  0  0
   -2.5620   -0.3953   -1.4592 C   0  0  0  0  0  0  0  0  0  0  0  0
   -5.8995   -1.9751    0.4517 C   0  0  0  0  0  0  0  0  0  0  0  0
   -8.0691   -1.1924    1.1811 O   0  0  0  0  0  0  0  0  0  0  0  0
   -0.6805    0.8857    0.0108 C   0  0  0  0  0  0  0  0  0  0  0  0
   -1.3172   -0.1543   -1.9973 C   0  0  0  0  0  0  0  0  0  0  0  0
   -0.3518    0.4921   -1.2706 C   0  0  0  0  0  0  0  0  0  0  0  0
    0.5553    1.5445    0.5465 C   0  0  1  0  0  0  0  0  0  0  0  0
    1.0550    0.9208   -1.5124 C   0  0  2  0  0  0  0  0  0  0  0  0
    1.5777    0.7572   -0.1669 N   0  0  0  0  0  0  0  0  0  0  0  0
    0.6949    2.8536   -0.1548 C   0  0  2  0  0  0  0  0  0  0  0  0
    1.0226    2.4291   -1.5807 C   0  0  1  0  0  0  0  0  0  0  0  0
    2.6899    0.0755    0.3085 C   0  0  0  0  0  0  0  0  0  0  0  0
    1.6895    3.6631    0.3744 O   0  0  0  0  0  0  0  0  0  0  0  0
    2.2539    2.9694   -1.9305 O   0  0  0  0  0  0  0  0  0  0  0  0
    3.0282    0.0164    1.5138 O   0  0  0  0  0  0  0  0  0  0  0  0
    3.4937   -0.5924   -0.6023 O   0  0  0  0  0  0  0  0  0  0  0  0
    4.6423   -1.3185   -0.2696 C   0  0  0  0  0  0  0  0  0  0  0  0
    4.2940   -2.4371    0.6766 C   0  0  0  0  0  0  0  0  0  0  0  0
    5.7248   -0.4520    0.3338 C   0  0  0  0  0  0  0  0  0  0  0  0
    5.2006   -1.9131   -1.5461 C   0  0  0  0  0  0  0  0  0  0  0  0
   -7.3215    1.0729    0.1355 H   0  0  0  0  0  0  0  0  0  0  0  0
   -4.6912   -1.2753    2.0643 H   0  0  0  0  0  0  0  0  0  0  0  0
   -3.8238   -2.2320    0.9055 H   0  0  0  0  0  0  0  0  0  0  0  0
   -2.1376    0.9495    1.5009 H   0  0  0  0  0  0  0  0  0  0  0  0
   -3.2613   -0.8850   -2.0391 H   0  0  0  0  0  0  0  0  0  0  0  0
   -6.1843   -2.8834    0.9403 H   0  0  0  0  0  0  0  0  0  0  0  0
   -5.7917   -2.1552   -0.5975 H   0  0  0  0  0  0  0  0  0  0  0  0
   -1.1090   -0.4643   -2.9594 H   0  0  0  0  0  0  0  0  0  0  0  0
    0.5856    1.6224    1.6132 H   0  0  0  0  0  0  0  0  0  0  0  0
    1.5362    0.4452   -2.3414 H   0  0  0  0  0  0  0  0  0  0  0  0
   -0.1856    3.4551   -0.0662 H   0  0  0  0  0  0  0  0  0  0  0  0
    0.3228    2.7638   -2.3177 H   0  0  0  0  0  0  0  0  0  0  0  0
    2.5395    3.1972    0.3373 H   0  0  0  0  0  0  0  0  0  0  0  0
    2.9238    2.6912   -1.2865 H   0  0  0  0  0  0  0  0  0  0  0  0
    3.8983   -2.0277    1.5825 H   0  0  0  0  0  0  0  0  0  0  0  0
    5.1736   -3.0053    0.8963 H   0  0  0  0  0  0  0  0  0  0  0  0
    3.5626   -3.0730    0.2232 H   0  0  0  0  0  0  0  0  0  0  0  0
    5.3658   -0.0129    1.2411 H   0  0  0  0  0  0  0  0  0  0  0  0
    5.9888    0.3216   -0.3567 H   0  0  0  0  0  0  0  0  0  0  0  0
    6.5858   -1.0515    0.5440 H   0  0  0  0  0  0  0  0  0  0  0  0
    4.4599   -2.5352   -2.0035 H   0  0  0  0  0  0  0  0  0  0  0  0
    6.0666   -2.4986   -1.3179 H   0  0  0  0  0  0  0  0  0  0  0  0
    5.4696   -1.1255   -2.2186 H   0  0  0  0  0  0  0  0  0  0  0  0
  1  2  2  0  0  0  0
  2  3  1  0  0  0  0
  2  4  1  0  0  0  0
  3  5  1  0  0  0  0
  3  6  1  0  0  0  0
  4  7  1  0  0  0  0
  4 29  1  0  0  0  0
  5  8  2  0  0  0  0
  5  9  1  0  0  0  0
  6 10  1  0  0  0  0
  6 30  1  0  0  0  0
  6 31  1  0  0  0  0
  7 11  2  0  0  0  0
  7 10  1  0  0  0  0
  8 12  1  0  0  0  0
  8 32  1  0  0  0  0
  9 13  2  0  0  0  0
  9 33  1  0  0  0  0
 10 34  1  0  0  0  0
 10 35  1  0  0  0  0
 12 14  2  0  0  0  0
 13 14  1  0  0  0  0
 13 36  1  0  0  0  0
 15 12  1  0  0  0  0
 15 17  1  0  0  0  0
 15 18  1  0  0  0  0
 15 37  1  1  0  0  0
 16 14  1  0  0  0  0
 16 19  1  0  0  0  0
 16 17  1  0  0  0  0
 16 38  1  6  0  0  0
 17 20  1  0  0  0  0
 18 21  1  0  0  0  0
 18 19  1  0  0  0  0
 18 39  1  1  0  0  0
 19 22  1  0  0  0  0
 19 40  1  6  0  0  0
 20 23  2  0  0  0  0
 20 24  1  0  0  0  0
 21 41  1  0  0  0  0
 22 42  1  0  0  0  0
 24 25  1  0  0  0  0
 25 26  1  0  0  0  0
 25 27  1  0  0  0  0
 25 28  1  0  0  0  0
 26 43  1  0  0  0  0
 26 44  1  0  0  0  0
 26 45  1  0  0  0  0
 27 46  1  0  0  0  0
 27 47  1  0  0  0  0
 27 48  1  0  0  0  0
 28 49  1  0  0  0  0
 28 50  1  0  0  0  0
 28 51  1  0  0  0  0
M  END
>  <Molecule Name>
Compound 4

>  <EC50 (µM) (Excel)>
11.8

>  <Error (µM)>
7.4

>  <HTRC CRBN-DDB1 EC50 (µM)>
11.78 ±  7.41

>  <EC50 fitting (µM)>
15.10

>  <Modèle Fitting>
4PL

>  <Parent_Compound>
Compound 4

>  <MMFF94s_energy_kcalmol>
166.183

$$$$
Compound_7_ent1
 OpenBabel09072607323D

 64 66  0  0  0  0  0  0  0  0999 V2000
    2.3873    1.0557   -2.2280 S   0  0  0  0  0  0  0  0  0  0  0  0
    2.2834    0.8742   -3.6979 O   0  0  0  0  0  0  0  0  0  0  0  0
    3.2041   -0.1370   -1.7250 O   0  0  0  0  0  0  0  0  0  0  0  0
    0.9252    1.0584   -1.4214 N   0  0  0  0  0  0  0  0  0  0  0  0
    3.3955    2.4868   -1.8786 C   0  0  0  0  0  0  0  0  0  0  0  0
    0.9694    0.8893   -0.0223 C   0  0  0  0  0  0  0  0  0  0  0  0
   -0.2330    1.5708   -2.0195 C   0  0  0  0  0  0  0  0  0  0  0  0
    4.0400    2.3619   -0.5031 C   0  0  0  0  0  0  0  0  0  0  0  0
    1.7102    2.0718    0.5787 C   0  0  0  0  0  0  0  0  0  0  0  0
   -1.1502    0.6190   -2.6272 C   0  0  0  0  0  0  0  0  0  0  0  0
    3.1171    1.7640    0.4394 N   0  0  0  0  0  0  0  0  0  0  0  0
   -2.1786    0.0711   -1.8961 C   0  0  0  0  0  0  0  0  0  0  0  0
   -1.0122    0.2328   -3.9353 C   0  0  0  0  0  0  0  0  0  0  0  0
    3.6118    0.7718    1.3200 C   0  0  0  0  0  0  0  0  0  0  0  0
   -3.0685   -0.8327   -2.3920 C   0  0  0  0  0  0  0  0  0  0  0  0
   -1.8833   -0.6865   -4.5072 C   0  0  0  0  0  0  0  0  0  0  0  0
    2.9080    0.1876    2.1776 O   0  0  0  0  0  0  0  0  0  0  0  0
    4.9617    0.3842    1.2656 O   0  0  0  0  0  0  0  0  0  0  0  0
   -4.1882   -1.4196   -1.6852 C   0  0  0  0  0  0  0  0  0  0  0  0
   -2.8891   -1.1975   -3.7277 C   0  0  0  0  0  0  0  0  0  0  0  0
    5.4664   -0.6068    2.1360 C   0  0  0  0  0  0  0  0  0  0  0  0
   -4.8309   -2.3754   -2.1702 O   0  0  0  0  0  0  0  0  0  0  0  0
   -4.5816   -0.9057   -0.4106 N   0  0  0  0  0  0  0  0  0  0  0  0
    5.3211   -0.2329    3.5939 C   0  0  0  0  0  0  0  0  0  0  0  0
    4.7966   -1.9426    1.8638 C   0  0  0  0  0  0  0  0  0  0  0  0
    6.9377   -0.7730    1.7645 C   0  0  0  0  0  0  0  0  0  0  0  0
   -5.7146   -1.4710    0.3395 C   0  0  2  0  0  0  0  0  0  0  0  0
   -6.8841   -0.5747    0.2378 C   0  0  0  0  0  0  0  0  0  0  0  0
   -5.3437   -1.8909    1.7122 C   0  0  0  0  0  0  0  0  0  0  0  0
   -7.1631   -0.1116   -0.8976 O   0  0  0  0  0  0  0  0  0  0  0  0
   -7.6835   -0.2214    1.3278 N   0  0  0  0  0  0  0  0  0  0  0  0
   -5.8436   -0.9654    2.7928 C   0  0  0  0  0  0  0  0  0  0  0  0
   -7.2637   -0.6091    2.6385 C   0  0  0  0  0  0  0  0  0  0  0  0
   -8.1203   -0.6180    3.5539 O   0  0  0  0  0  0  0  0  0  0  0  0
    2.7827    3.3636   -1.9022 H   0  0  0  0  0  0  0  0  0  0  0  0
    4.1665    2.5560   -2.6173 H   0  0  0  0  0  0  0  0  0  0  0  0
    1.4831   -0.0185    0.2162 H   0  0  0  0  0  0  0  0  0  0  0  0
   -0.0231    0.8365    0.3739 H   0  0  0  0  0  0  0  0  0  0  0  0
    0.0755    2.2524   -2.7845 H   0  0  0  0  0  0  0  0  0  0  0  0
   -0.7861    2.0078   -1.2145 H   0  0  0  0  0  0  0  0  0  0  0  0
    4.3172    3.3349   -0.1549 H   0  0  0  0  0  0  0  0  0  0  0  0
    4.9050    1.7372   -0.5827 H   0  0  0  0  0  0  0  0  0  0  0  0
    1.4539    2.1870    1.6111 H   0  0  0  0  0  0  0  0  0  0  0  0
    1.4558    2.9880    0.0881 H   0  0  0  0  0  0  0  0  0  0  0  0
   -2.2821    0.3628   -0.9116 H   0  0  0  0  0  0  0  0  0  0  0  0
   -0.2491    0.6312   -4.5045 H   0  0  0  0  0  0  0  0  0  0  0  0
   -1.7762   -0.9767   -5.4917 H   0  0  0  0  0  0  0  0  0  0  0  0
   -3.5405   -1.8801   -4.1457 H   0  0  0  0  0  0  0  0  0  0  0  0
   -4.0803   -0.1520   -0.0235 H   0  0  0  0  0  0  0  0  0  0  0  0
    4.2839   -0.1217    3.8319 H   0  0  0  0  0  0  0  0  0  0  0  0
    5.8302    0.6901    3.7778 H   0  0  0  0  0  0  0  0  0  0  0  0
    5.7465   -1.0025    4.2036 H   0  0  0  0  0  0  0  0  0  0  0  0
    3.7574   -1.8772    2.1099 H   0  0  0  0  0  0  0  0  0  0  0  0
    5.2576   -2.7011    2.4613 H   0  0  0  0  0  0  0  0  0  0  0  0
    4.9030   -2.1905    0.8284 H   0  0  0  0  0  0  0  0  0  0  0  0
    7.4558    0.1467    1.9395 H   0  0  0  0  0  0  0  0  0  0  0  0
    7.0169   -1.0358    0.7303 H   0  0  0  0  0  0  0  0  0  0  0  0
    7.3716   -1.5464    2.3633 H   0  0  0  0  0  0  0  0  0  0  0  0
   -6.0121   -2.3937   -0.1133 H   0  0  0  0  0  0  0  0  0  0  0  0
   -4.2764   -1.9346    1.7739 H   0  0  0  0  0  0  0  0  0  0  0  0
   -5.8054   -2.8414    1.8806 H   0  0  0  0  0  0  0  0  0  0  0  0
   -8.5182    0.2838    1.1962 H   0  0  0  0  0  0  0  0  0  0  0  0
   -5.2627   -0.0672    2.7671 H   0  0  0  0  0  0  0  0  0  0  0  0
   -5.7441   -1.4812    3.7250 H   0  0  0  0  0  0  0  0  0  0  0  0
  1  2  2  0  0  0  0
  1  3  2  0  0  0  0
  1  4  1  0  0  0  0
  1  5  1  0  0  0  0
  4  6  1  0  0  0  0
  4  7  1  0  0  0  0
  5  8  1  0  0  0  0
  5 35  1  0  0  0  0
  5 36  1  0  0  0  0
  6  9  1  0  0  0  0
  6 37  1  0  0  0  0
  6 38  1  0  0  0  0
  7 10  1  0  0  0  0
  7 39  1  0  0  0  0
  7 40  1  0  0  0  0
  8 11  1  0  0  0  0
  8 41  1  0  0  0  0
  8 42  1  0  0  0  0
  9 11  1  0  0  0  0
  9 43  1  0  0  0  0
  9 44  1  0  0  0  0
 10 12  2  0  0  0  0
 10 13  1  0  0  0  0
 11 14  1  0  0  0  0
 12 15  1  0  0  0  0
 12 45  1  0  0  0  0
 13 16  2  0  0  0  0
 13 46  1  0  0  0  0
 14 17  2  0  0  0  0
 14 18  1  0  0  0  0
 15 19  1  0  0  0  0
 15 20  2  0  0  0  0
 16 20  1  0  0  0  0
 16 47  1  0  0  0  0
 18 21  1  0  0  0  0
 19 22  2  0  0  0  0
 19 23  1  0  0  0  0
 20 48  1  0  0  0  0
 21 24  1  0  0  0  0
 21 25  1  0  0  0  0
 21 26  1  0  0  0  0
 23 49  1  0  0  0  0
 24 50  1  0  0  0  0
 24 51  1  0  0  0  0
 24 52  1  0  0  0  0
 25 53  1  0  0  0  0
 25 54  1  0  0  0  0
 25 55  1  0  0  0  0
 26 56  1  0  0  0  0
 26 57  1  0  0  0  0
 26 58  1  0  0  0  0
 27 23  1  0  0  0  0
 27 28  1  0  0  0  0
 27 29  1  0  0  0  0
 27 59  1  6  0  0  0
 28 30  2  0  0  0  0
 28 31  1  0  0  0  0
 29 32  1  0  0  0  0
 29 60  1  0  0  0  0
 29 61  1  0  0  0  0
 31 33  1  0  0  0  0
 31 62  1  0  0  0  0
 32 33  1  0  0  0  0
 32 63  1  0  0  0  0
 32 64  1  0  0  0  0
 33 34  2  0  0  0  0
M  END
>  <Molecule Name>
Compound 7

>  <EC50 (µM) (Excel)>
4.1

>  <Error (µM)>
0.2

>  <HTRC CRBN-DDB1 EC50 (µM)>
4.06 ±  0.18

>  <EC50 fitting (µM)>
3.77

>  <Modèle Fitting>
4PL

>  <Parent_Compound>
Compound 7

>  <MMFF94s_energy_kcalmol>
145.431

$$$$
Compound_7_ent2
 OpenBabel09072607323D

 64 66  0  0  0  0  0  0  0  0999 V2000
    0.6707   -0.9720    0.5269 S   0  0  0  0  0  0  0  0  0  0  0  0
   -0.6566   -1.6551    0.5186 O   0  0  0  0  0  0  0  0  0  0  0  0
    1.6483   -2.0133    1.0719 O   0  0  0  0  0  0  0  0  0  0  0  0
    0.7847    0.3873    1.4819 N   0  0  0  0  0  0  0  0  0  0  0  0
    1.1652   -0.7205   -1.1625 C   0  0  0  0  0  0  0  0  0  0  0  0
    2.1045    0.8285    1.6998 C   0  0  0  0  0  0  0  0  0  0  0  0
   -0.2509    0.7994    2.3150 C   0  0  0  0  0  0  0  0  0  0  0  0
    2.6566   -0.5783   -1.3080 C   0  0  0  0  0  0  0  0  0  0  0  0
    2.7073    1.3654    0.3980 C   0  0  0  0  0  0  0  0  0  0  0  0
   -1.2058    1.7587    1.7860 C   0  0  0  0  0  0  0  0  0  0  0  0
    3.2716    0.2380   -0.3104 N   0  0  0  0  0  0  0  0  0  0  0  0
   -2.3409    1.3389    1.1324 C   0  0  0  0  0  0  0  0  0  0  0  0
   -0.9926    3.1032    1.9245 C   0  0  0  0  0  0  0  0  0  0  0  0
    4.6130   -0.0792    0.0484 C   0  0  0  0  0  0  0  0  0  0  0  0
   -3.2686    2.2020    0.6130 C   0  0  0  0  0  0  0  0  0  0  0  0
   -1.8824    4.0074    1.4275 C   0  0  0  0  0  0  0  0  0  0  0  0
    5.2488    0.5712    0.9110 O   0  0  0  0  0  0  0  0  0  0  0  0
    5.2617   -1.1423   -0.5649 O   0  0  0  0  0  0  0  0  0  0  0  0
   -4.4674    1.7973   -0.0811 C   0  0  0  0  0  0  0  0  0  0  0  0
   -3.0220    3.5503    0.7707 C   0  0  0  0  0  0  0  0  0  0  0  0
    6.5948   -1.4484   -0.2012 C   0  0  0  0  0  0  0  0  0  0  0  0
   -5.2884    2.6689   -0.5374 O   0  0  0  0  0  0  0  0  0  0  0  0
   -4.8218    0.4537   -0.3066 N   0  0  0  0  0  0  0  0  0  0  0  0
    7.5247   -0.2806   -0.4692 C   0  0  0  0  0  0  0  0  0  0  0  0
    6.6104   -1.7449    1.2721 C   0  0  0  0  0  0  0  0  0  0  0  0
    7.0078   -2.6797   -0.9659 C   0  0  0  0  0  0  0  0  0  0  0  0
   -6.0491    0.0754   -1.0188 C   0  0  1  0  0  0  0  0  0  0  0  0
   -5.6653   -0.7441   -2.1970 C   0  0  0  0  0  0  0  0  0  0  0  0
   -6.9197   -0.8268   -0.1400 C   0  0  0  0  0  0  0  0  0  0  0  0
   -4.5266   -0.7119   -2.7264 O   0  0  0  0  0  0  0  0  0  0  0  0
   -6.6605   -1.6039   -2.7350 N   0  0  0  0  0  0  0  0  0  0  0  0
   -8.2605   -0.9225   -0.8711 C   0  0  0  0  0  0  0  0  0  0  0  0
   -7.9791   -1.5626   -2.1914 C   0  0  0  0  0  0  0  0  0  0  0  0
   -8.9551   -2.0666   -2.8086 O   0  0  0  0  0  0  0  0  0  0  0  0
    0.6977    0.1696   -1.5287 H   0  0  0  0  0  0  0  0  0  0  0  0
    0.8630   -1.5806   -1.7227 H   0  0  0  0  0  0  0  0  0  0  0  0
    2.6968    0.0098    2.0517 H   0  0  0  0  0  0  0  0  0  0  0  0
    2.0936    1.6127    2.4277 H   0  0  0  0  0  0  0  0  0  0  0  0
    0.1938    1.2379    3.1838 H   0  0  0  0  0  0  0  0  0  0  0  0
   -0.8263   -0.0861    2.4875 H   0  0  0  0  0  0  0  0  0  0  0  0
    2.8597   -0.1465   -2.2657 H   0  0  0  0  0  0  0  0  0  0  0  0
    3.0692   -1.5593   -1.1968 H   0  0  0  0  0  0  0  0  0  0  0  0
    3.4722    2.0810    0.6163 H   0  0  0  0  0  0  0  0  0  0  0  0
    1.9597    1.8500   -0.1946 H   0  0  0  0  0  0  0  0  0  0  0  0
   -2.5012    0.3247    1.0284 H   0  0  0  0  0  0  0  0  0  0  0  0
   -0.1464    3.4369    2.4120 H   0  0  0  0  0  0  0  0  0  0  0  0
   -1.7137    5.0197    1.5366 H   0  0  0  0  0  0  0  0  0  0  0  0
   -3.6964    4.2345    0.3939 H   0  0  0  0  0  0  0  0  0  0  0  0
   -4.2263   -0.2569    0.0246 H   0  0  0  0  0  0  0  0  0  0  0  0
    7.1982    0.5710    0.0904 H   0  0  0  0  0  0  0  0  0  0  0  0
    7.5125   -0.0473   -1.5134 H   0  0  0  0  0  0  0  0  0  0  0  0
    8.5194   -0.5416   -0.1737 H   0  0  0  0  0  0  0  0  0  0  0  0
    6.3172   -0.8707    1.8150 H   0  0  0  0  0  0  0  0  0  0  0  0
    7.5975   -2.0337    1.5674 H   0  0  0  0  0  0  0  0  0  0  0  0
    5.9277   -2.5414    1.4829 H   0  0  0  0  0  0  0  0  0  0  0  0
    6.9967   -2.4686   -2.0148 H   0  0  0  0  0  0  0  0  0  0  0  0
    6.3251   -3.4762   -0.7551 H   0  0  0  0  0  0  0  0  0  0  0  0
    7.9949   -2.9685   -0.6707 H   0  0  0  0  0  0  0  0  0  0  0  0
   -6.5787    0.9657   -1.2868 H   0  0  0  0  0  0  0  0  0  0  0  0
   -7.0507   -0.3934    0.8295 H   0  0  0  0  0  0  0  0  0  0  0  0
   -6.4758   -1.7887    0.0104 H   0  0  0  0  0  0  0  0  0  0  0  0
   -6.4433   -2.2192   -3.4722 H   0  0  0  0  0  0  0  0  0  0  0  0
   -8.6739    0.0540   -1.0143 H   0  0  0  0  0  0  0  0  0  0  0  0
   -8.9686   -1.4933   -0.3075 H   0  0  0  0  0  0  0  0  0  0  0  0
  1  2  2  0  0  0  0
  1  3  2  0  0  0  0
  1  4  1  0  0  0  0
  1  5  1  0  0  0  0
  4  6  1  0  0  0  0
  4  7  1  0  0  0  0
  5  8  1  0  0  0  0
  5 35  1  0  0  0  0
  5 36  1  0  0  0  0
  6  9  1  0  0  0  0
  6 37  1  0  0  0  0
  6 38  1  0  0  0  0
  7 10  1  0  0  0  0
  7 39  1  0  0  0  0
  7 40  1  0  0  0  0
  8 11  1  0  0  0  0
  8 41  1  0  0  0  0
  8 42  1  0  0  0  0
  9 11  1  0  0  0  0
  9 43  1  0  0  0  0
  9 44  1  0  0  0  0
 10 12  2  0  0  0  0
 10 13  1  0  0  0  0
 11 14  1  0  0  0  0
 12 15  1  0  0  0  0
 12 45  1  0  0  0  0
 13 16  2  0  0  0  0
 13 46  1  0  0  0  0
 14 17  2  0  0  0  0
 14 18  1  0  0  0  0
 15 19  1  0  0  0  0
 15 20  2  0  0  0  0
 16 20  1  0  0  0  0
 16 47  1  0  0  0  0
 18 21  1  0  0  0  0
 19 22  2  0  0  0  0
 19 23  1  0  0  0  0
 20 48  1  0  0  0  0
 21 24  1  0  0  0  0
 21 25  1  0  0  0  0
 21 26  1  0  0  0  0
 23 49  1  0  0  0  0
 24 50  1  0  0  0  0
 24 51  1  0  0  0  0
 24 52  1  0  0  0  0
 25 53  1  0  0  0  0
 25 54  1  0  0  0  0
 25 55  1  0  0  0  0
 26 56  1  0  0  0  0
 26 57  1  0  0  0  0
 26 58  1  0  0  0  0
 27 23  1  0  0  0  0
 27 28  1  0  0  0  0
 27 29  1  0  0  0  0
 27 59  1  6  0  0  0
 28 30  2  0  0  0  0
 28 31  1  0  0  0  0
 29 32  1  0  0  0  0
 29 60  1  0  0  0  0
 29 61  1  0  0  0  0
 31 33  1  0  0  0  0
 31 62  1  0  0  0  0
 32 33  1  0  0  0  0
 32 63  1  0  0  0  0
 32 64  1  0  0  0  0
 33 34  2  0  0  0  0
M  END
>  <Molecule Name>
Compound 7

>  <EC50 (µM) (Excel)>
4.1

>  <Error (µM)>
0.2

>  <HTRC CRBN-DDB1 EC50 (µM)>
4.06 ±  0.18

>  <EC50 fitting (µM)>
3.77

>  <Modèle Fitting>
4PL

>  <Parent_Compound>
Compound 7

>  <MMFF94s_energy_kcalmol>
148.317

$$$$
Compound_8_ent1
 OpenBabel09072607323D

 52 53  0  0  0  0  0  0  0  0999 V2000
    0.6828    0.0000    0.0000 Cl  0  0  0  0  0  0  0  0  0  0  0  0
    4.0997    0.2295    1.3194 S   0  0  0  0  0  0  0  0  0  0  0  0
    4.6797   -0.7938    2.2817 O   0  0  0  0  0  0  0  0  0  0  0  0
    3.3972    1.3058    2.0651 O   0  0  0  0  0  0  0  0  0  0  0  0
    3.0394   -0.4991    0.2050 N   0  0  0  0  0  0  0  0  0  0  0  0
    5.4435    0.9770    0.3833 C   0  0  0  0  0  0  0  0  0  0  0  0
    3.5782   -1.6218   -0.4939 C   0  0  0  0  0  0  0  0  0  0  0  0
    2.5245    0.4515   -0.7304 C   0  0  0  0  0  0  0  0  0  0  0  0
    5.9727   -0.0942   -0.5806 C   0  0  0  0  0  0  0  0  0  0  0  0
    4.8630   -2.1764    0.0268 C   0  0  0  0  0  0  0  0  0  0  0  0
    1.2084    0.9929   -0.3088 C   0  0  0  0  0  0  0  0  0  0  0  0
    5.9485   -1.3188    0.1295 N   0  3  0  0  0  0  0  0  0  0  0  0
    0.0913    0.1906   -0.5845 C   0  0  0  0  0  0  0  0  0  0  0  0
    1.0648    2.2009    0.2859 C   0  0  0  0  0  0  0  0  0  0  0  0
   -1.1849    0.5981   -0.2622 C   0  0  0  0  0  0  0  0  0  0  0  0
   -0.2268    2.6289    0.6201 C   0  0  0  0  0  0  0  0  0  0  0  0
   -2.3243   -0.2734   -0.5691 C   0  0  0  0  0  0  0  0  0  0  0  0
   -1.3111    1.8267    0.3416 C   0  0  0  0  0  0  0  0  0  0  0  0
   -2.1251   -1.3903   -1.1256 O   0  0  0  0  0  0  0  0  0  0  0  0
   -3.6447    0.0720   -0.2730 N   0  0  0  0  0  0  0  0  0  0  0  0
   -4.7873   -0.8059   -0.5826 C   0  0  2  0  0  0  0  0  0  0  0  0
   -5.7195   -0.1113   -1.4983 C   0  0  0  0  0  0  0  0  0  0  0  0
   -5.4225   -1.2065    0.7081 C   0  0  0  0  0  0  0  0  0  0  0  0
   -5.7284   -0.3752   -2.7254 O   0  0  0  0  0  0  0  0  0  0  0  0
   -6.5984    0.8567   -0.9523 N   0  0  0  0  0  0  0  0  0  0  0  0
   -5.9814    0.0313    1.3759 C   0  0  0  0  0  0  0  0  0  0  0  0
   -6.8051    0.8462    0.4722 C   0  0  0  0  0  0  0  0  0  0  0  0
   -7.7219    1.5594    0.9537 O   0  0  0  0  0  0  0  0  0  0  0  0
    1.9108    0.0000    0.0000 H   0  0  0  0  0  0  0  0  0  0  0  0
    6.2223    1.2911    1.0464 H   0  0  0  0  0  0  0  0  0  0  0  0
    5.1013    1.8369   -0.1537 H   0  0  0  0  0  0  0  0  0  0  0  0
    3.7397   -1.3257   -1.5094 H   0  0  0  0  0  0  0  0  0  0  0  0
    2.8600   -2.4050   -0.3683 H   0  0  0  0  0  0  0  0  0  0  0  0
    2.4126   -0.0260   -1.6814 H   0  0  0  0  0  0  0  0  0  0  0  0
    3.2145    1.2675   -0.7846 H   0  0  0  0  0  0  0  0  0  0  0  0
    6.9728    0.1397   -0.8807 H   0  0  0  0  0  0  0  0  0  0  0  0
    5.3750   -0.1479   -1.4665 H   0  0  0  0  0  0  0  0  0  0  0  0
    5.1503   -2.9769   -0.6224 H   0  0  0  0  0  0  0  0  0  0  0  0
    4.6446   -2.4532    1.0370 H   0  0  0  0  0  0  0  0  0  0  0  0
    6.0418   -1.0842    1.1178 H   0  0  0  0  0  0  0  0  0  0  0  0
    6.7003   -1.8506   -0.3092 H   0  0  0  0  0  0  0  0  0  0  0  0
    0.2284   -0.7257   -1.0391 H   0  0  0  0  0  0  0  0  0  0  0  0
    1.8864    2.7917    0.4880 H   0  0  0  0  0  0  0  0  0  0  0  0
   -0.3656    3.5449    1.0748 H   0  0  0  0  0  0  0  0  0  0  0  0
   -2.2540    2.1605    0.5958 H   0  0  0  0  0  0  0  0  0  0  0  0
   -3.8196    0.9383    0.1608 H   0  0  0  0  0  0  0  0  0  0  0  0
   -4.4751   -1.6943   -1.0906 H   0  0  0  0  0  0  0  0  0  0  0  0
   -4.6914   -1.6602    1.3441 H   0  0  0  0  0  0  0  0  0  0  0  0
   -6.2080   -1.9099    0.5261 H   0  0  0  0  0  0  0  0  0  0  0  0
   -7.0523    1.5141   -1.5276 H   0  0  0  0  0  0  0  0  0  0  0  0
   -5.1654    0.6285    1.7257 H   0  0  0  0  0  0  0  0  0  0  0  0
   -6.6102   -0.2931    2.1785 H   0  0  0  0  0  0  0  0  0  0  0  0
  1 29  1  0  0  0  0
  2  3  2  0  0  0  0
  2  4  2  0  0  0  0
  2  5  1  0  0  0  0
  2  6  1  0  0  0  0
  5  7  1  0  0  0  0
  5  8  1  0  0  0  0
  6  9  1  0  0  0  0
  6 30  1  0  0  0  0
  6 31  1  0  0  0  0
  7 10  1  0  0  0  0
  7 32  1  0  0  0  0
  7 33  1  0  0  0  0
  8 11  1  0  0  0  0
  8 34  1  0  0  0  0
  8 35  1  0  0  0  0
  9 12  1  0  0  0  0
  9 36  1  0  0  0  0
  9 37  1  0  0  0  0
 10 12  1  0  0  0  0
 10 38  1  0  0  0  0
 10 39  1  0  0  0  0
 11 13  2  0  0  0  0
 11 14  1  0  0  0  0
 12 40  1  0  0  0  0
 12 41  1  0  0  0  0
 13 15  1  0  0  0  0
 13 42  1  0  0  0  0
 14 16  2  0  0  0  0
 14 43  1  0  0  0  0
 15 17  1  0  0  0  0
 15 18  2  0  0  0  0
 16 18  1  0  0  0  0
 16 44  1  0  0  0  0
 17 19  2  0  0  0  0
 17 20  1  0  0  0  0
 18 45  1  0  0  0  0
 20 46  1  0  0  0  0
 21 20  1  0  0  0  0
 21 22  1  0  0  0  0
 21 23  1  0  0  0  0
 21 47  1  6  0  0  0
 22 24  2  0  0  0  0
 22 25  1  0  0  0  0
 23 26  1  0  0  0  0
 23 48  1  0  0  0  0
 23 49  1  0  0  0  0
 25 27  1  0  0  0  0
 25 50  1  0  0  0  0
 26 27  1  0  0  0  0
 26 51  1  0  0  0  0
 26 52  1  0  0  0  0
 27 28  2  0  0  0  0
M  CHG  1  12   1
M  END
>  <Molecule Name>
Compound 8

>  <EC50 (µM) (Excel)>
6.8

>  <Error (µM)>
1.0

>  <HTRC CRBN-DDB1 EC50 (µM)>
6.77 ±  1.02

>  <EC50 fitting (µM)>
7.19

>  <Modèle Fitting>
4PL

>  <Parent_Compound>
Compound 8

>  <MMFF94s_energy_kcalmol>
133.791

$$$$
Compound_8_ent2
 OpenBabel09072607323D

 52 53  0  0  0  0  0  0  0  0999 V2000
    0.6828    0.0000    0.0000 Cl  0  0  0  0  0  0  0  0  0  0  0  0
    4.5250    0.7152    0.3485 S   0  0  0  0  0  0  0  0  0  0  0  0
    4.3619   -0.5604    1.1004 O   0  0  0  0  0  0  0  0  0  0  0  0
    4.7718    1.8909    1.2534 O   0  0  0  0  0  0  0  0  0  0  0  0
    3.1415    0.9640   -0.6156 N   0  0  0  0  0  0  0  0  0  0  0  0
    5.9178    0.4913   -0.7666 C   0  0  0  0  0  0  0  0  0  0  0  0
    3.4156    1.4161   -1.9417 C   0  0  0  0  0  0  0  0  0  0  0  0
    2.2831    1.9342    0.0347 C   0  0  0  0  0  0  0  0  0  0  0  0
    5.6931   -0.7851   -1.5475 C   0  0  0  0  0  0  0  0  0  0  0  0
    4.0228    0.3596   -2.8271 C   0  0  0  0  0  0  0  0  0  0  0  0
    1.2807    1.3148    0.9296 C   0  0  0  0  0  0  0  0  0  0  0  0
    4.3373   -0.8219   -2.0528 N   0  3  0  0  0  0  0  0  0  0  0  0
    0.0656    0.9752    0.3860 C   0  0  0  0  0  0  0  0  0  0  0  0
    1.5289    1.0796    2.2482 C   0  0  0  0  0  0  0  0  0  0  0  0
   -0.9154    0.3993    1.1435 C   0  0  0  0  0  0  0  0  0  0  0  0
    0.5309    0.4964    3.0081 C   0  0  0  0  0  0  0  0  0  0  0  0
   -2.1982    0.0550    0.5157 C   0  0  0  0  0  0  0  0  0  0  0  0
   -0.6978    0.1524    2.4610 C   0  0  0  0  0  0  0  0  0  0  0  0
   -2.3491    0.3092   -0.7275 O   0  0  0  0  0  0  0  0  0  0  0  0
   -3.2781   -0.5349    1.1780 N   0  0  0  0  0  0  0  0  0  0  0  0
   -4.4925   -0.8284    0.4549 C   0  0  1  0  0  0  0  0  0  0  0  0
   -4.8058   -2.2784    0.4552 C   0  0  0  0  0  0  0  0  0  0  0  0
   -5.6877   -0.1057    1.0223 C   0  0  0  0  0  0  0  0  0  0  0  0
   -4.0066   -3.1829    0.8038 O   0  0  0  0  0  0  0  0  0  0  0  0
   -6.1064   -2.6491    0.0277 N   0  0  0  0  0  0  0  0  0  0  0  0
   -6.7992   -0.2241   -0.0241 C   0  0  0  0  0  0  0  0  0  0  0  0
   -7.0105   -1.6412   -0.4052 C   0  0  0  0  0  0  0  0  0  0  0  0
   -7.9983   -1.9229   -1.1123 O   0  0  0  0  0  0  0  0  0  0  0  0
    1.9108    0.0000    0.0000 H   0  0  0  0  0  0  0  0  0  0  0  0
    6.8249    0.4175   -0.2039 H   0  0  0  0  0  0  0  0  0  0  0  0
    5.9975    1.3248   -1.4328 H   0  0  0  0  0  0  0  0  0  0  0  0
    4.0954    2.2404   -1.8840 H   0  0  0  0  0  0  0  0  0  0  0  0
    2.4784    1.6904   -2.3790 H   0  0  0  0  0  0  0  0  0  0  0  0
    1.7680    2.4924   -0.7190 H   0  0  0  0  0  0  0  0  0  0  0  0
    2.9077    2.5584    0.6389 H   0  0  0  0  0  0  0  0  0  0  0  0
    5.8557   -1.6263   -0.9065 H   0  0  0  0  0  0  0  0  0  0  0  0
    6.3764   -0.8194   -2.3702 H   0  0  0  0  0  0  0  0  0  0  0  0
    4.9194    0.7415   -3.2690 H   0  0  0  0  0  0  0  0  0  0  0  0
    3.3207    0.0992   -3.5914 H   0  0  0  0  0  0  0  0  0  0  0  0
    3.6923   -0.8822   -1.2649 H   0  0  0  0  0  0  0  0  0  0  0  0
    4.2468   -1.6349   -2.6621 H   0  0  0  0  0  0  0  0  0  0  0  0
   -0.1099    1.1586   -0.6143 H   0  0  0  0  0  0  0  0  0  0  0  0
    2.4373    1.3299    2.6691 H   0  0  0  0  0  0  0  0  0  0  0  0
    0.7044    0.3121    4.0086 H   0  0  0  0  0  0  0  0  0  0  0  0
   -1.4306   -0.2820    3.0435 H   0  0  0  0  0  0  0  0  0  0  0  0
   -3.2108   -0.7500    2.1364 H   0  0  0  0  0  0  0  0  0  0  0  0
   -4.3072   -0.4929   -0.5441 H   0  0  0  0  0  0  0  0  0  0  0  0
   -5.4504    0.9231    1.1957 H   0  0  0  0  0  0  0  0  0  0  0  0
   -5.9887   -0.5278    1.9583 H   0  0  0  0  0  0  0  0  0  0  0  0
   -6.3802   -3.5948    0.0308 H   0  0  0  0  0  0  0  0  0  0  0  0
   -6.5246    0.3363   -0.8933 H   0  0  0  0  0  0  0  0  0  0  0  0
   -7.7069    0.1593    0.3930 H   0  0  0  0  0  0  0  0  0  0  0  0
  1 29  1  0  0  0  0
  2  3  2  0  0  0  0
  2  4  2  0  0  0  0
  2  5  1  0  0  0  0
  2  6  1  0  0  0  0
  5  7  1  0  0  0  0
  5  8  1  0  0  0  0
  6  9  1  0  0  0  0
  6 30  1  0  0  0  0
  6 31  1  0  0  0  0
  7 10  1  0  0  0  0
  7 32  1  0  0  0  0
  7 33  1  0  0  0  0
  8 11  1  0  0  0  0
  8 34  1  0  0  0  0
  8 35  1  0  0  0  0
  9 12  1  0  0  0  0
  9 36  1  0  0  0  0
  9 37  1  0  0  0  0
 10 12  1  0  0  0  0
 10 38  1  0  0  0  0
 10 39  1  0  0  0  0
 11 13  2  0  0  0  0
 11 14  1  0  0  0  0
 12 40  1  0  0  0  0
 12 41  1  0  0  0  0
 13 15  1  0  0  0  0
 13 42  1  0  0  0  0
 14 16  2  0  0  0  0
 14 43  1  0  0  0  0
 15 17  1  0  0  0  0
 15 18  2  0  0  0  0
 16 18  1  0  0  0  0
 16 44  1  0  0  0  0
 17 19  2  0  0  0  0
 17 20  1  0  0  0  0
 18 45  1  0  0  0  0
 20 46  1  0  0  0  0
 21 20  1  0  0  0  0
 21 22  1  0  0  0  0
 21 23  1  0  0  0  0
 21 47  1  6  0  0  0
 22 24  2  0  0  0  0
 22 25  1  0  0  0  0
 23 26  1  0  0  0  0
 23 48  1  0  0  0  0
 23 49  1  0  0  0  0
 25 27  1  0  0  0  0
 25 50  1  0  0  0  0
 26 27  1  0  0  0  0
 26 51  1  0  0  0  0
 26 52  1  0  0  0  0
 27 28  2  0  0  0  0
M  CHG  1  12   1
M  END
>  <Molecule Name>
Compound 8

>  <EC50 (µM) (Excel)>
6.8

>  <Error (µM)>
1.0

>  <HTRC CRBN-DDB1 EC50 (µM)>
6.77 ±  1.02

>  <EC50 fitting (µM)>
7.19

>  <Modèle Fitting>
4PL

>  <Parent_Compound>
Compound 8

>  <MMFF94s_energy_kcalmol>
109.581

$$$$
Compound_9_ent1
 OpenBabel09072607323D

 63 65  0  0  0  0  0  0  0  0999 V2000
   -1.2882    1.1757    0.9658 S   0  0  0  0  0  0  0  0  0  0  0  0
   -1.0222    1.1164    2.4665 O   0  0  0  0  0  0  0  0  0  0  0  0
   -0.0963    1.9419    0.4022 O   0  0  0  0  0  0  0  0  0  0  0  0
   -1.3261   -0.3408    0.3512 N   0  0  0  0  0  0  0  0  0  0  0  0
   -2.7024    2.1943    0.7480 C   0  0  0  0  0  0  0  0  0  0  0  0
   -2.1690   -0.7917   -0.6444 C   0  0  0  0  0  0  0  0  0  0  0  0
   -0.5034   -1.2768    1.0247 C   0  0  0  0  0  0  0  0  0  0  0  0
   -3.9271    1.3188    1.0192 C   0  0  0  0  0  0  0  0  0  0  0  0
   -3.2172    0.1348   -1.1648 C   0  0  0  0  0  0  0  0  0  0  0  0
    0.8317   -1.3389    0.3746 C   0  0  0  0  0  0  0  0  0  0  0  0
   -4.1648    0.5623   -0.1887 N   0  0  0  0  0  0  0  0  0  0  0  0
    1.9036   -0.5512    0.7321 C   0  0  0  0  0  0  0  0  0  0  0  0
    1.0672   -2.2421   -0.6685 C   0  0  0  0  0  0  0  0  0  0  0  0
   -5.5186    0.2126   -0.4041 C   0  0  0  0  0  0  0  0  0  0  0  0
    3.1281   -0.6451    0.1057 C   0  0  0  0  0  0  0  0  0  0  0  0
    2.2719   -2.3471   -1.2984 C   0  0  0  0  0  0  0  0  0  0  0  0
   -5.7913   -0.4487   -1.4473 O   0  0  0  0  0  0  0  0  0  0  0  0
   -6.6072    0.5882    0.5352 C   0  0  0  0  0  0  0  0  0  0  0  0
    4.2101    0.2186    0.5389 C   0  0  0  0  0  0  0  0  0  0  0  0
    3.3450   -1.5336   -0.9143 C   0  0  0  0  0  0  0  0  0  0  0  0
   -7.8907    0.1164    0.1067 N   0  3  0  0  0  0  0  0  0  0  0  0
    4.0360    1.1004    1.4437 O   0  0  0  0  0  0  0  0  0  0  0  0
    5.5262    0.1619    0.0101 N   0  0  0  0  0  0  0  0  0  0  0  0
   -8.0580   -1.3020    0.1470 C   0  0  0  0  0  0  0  0  0  0  0  0
   -8.2720    0.6289   -1.1947 C   0  0  0  0  0  0  0  0  0  0  0  0
    6.5886    1.0626    0.4841 C   0  0  2  0  0  0  0  0  0  0  0  0
    7.1228    1.7597   -0.6927 C   0  0  0  0  0  0  0  0  0  0  0  0
    7.6311    0.2809    1.2562 C   0  0  0  0  0  0  0  0  0  0  0  0
    6.7533    2.9283   -1.0317 O   0  0  0  0  0  0  0  0  0  0  0  0
    8.1051    1.0802   -1.4869 N   0  0  0  0  0  0  0  0  0  0  0  0
    8.6114   -0.4515    0.4126 C   0  0  0  0  0  0  0  0  0  0  0  0
    8.5430   -0.1830   -1.0218 C   0  0  0  0  0  0  0  0  0  0  0  0
    8.8699   -1.0617   -1.8453 O   0  0  0  0  0  0  0  0  0  0  0  0
   -2.7338    2.5710   -0.2530 H   0  0  0  0  0  0  0  0  0  0  0  0
   -2.6764    3.0326    1.4124 H   0  0  0  0  0  0  0  0  0  0  0  0
   -2.6722   -1.6563   -0.2646 H   0  0  0  0  0  0  0  0  0  0  0  0
   -1.5225   -0.9521   -1.4818 H   0  0  0  0  0  0  0  0  0  0  0  0
   -0.9614   -2.2431    0.9869 H   0  0  0  0  0  0  0  0  0  0  0  0
   -0.3846   -0.9716    2.0434 H   0  0  0  0  0  0  0  0  0  0  0  0
   -4.7757    1.9299    1.2459 H   0  0  0  0  0  0  0  0  0  0  0  0
   -3.7633    0.6719    1.8556 H   0  0  0  0  0  0  0  0  0  0  0  0
   -3.7469   -0.3658   -1.9482 H   0  0  0  0  0  0  0  0  0  0  0  0
   -2.7076    1.0138   -1.5002 H   0  0  0  0  0  0  0  0  0  0  0  0
    1.7860    0.1332    1.4955 H   0  0  0  0  0  0  0  0  0  0  0  0
    0.2954   -2.8552   -0.9741 H   0  0  0  0  0  0  0  0  0  0  0  0
    2.3935   -3.0300   -2.0625 H   0  0  0  0  0  0  0  0  0  0  0  0
   -6.6418    1.6550    0.6110 H   0  0  0  0  0  0  0  0  0  0  0  0
   -6.3927    0.1327    1.4794 H   0  0  0  0  0  0  0  0  0  0  0  0
    4.2629   -1.6007   -1.3811 H   0  0  0  0  0  0  0  0  0  0  0  0
   -8.5250    0.4978    0.8086 H   0  0  0  0  0  0  0  0  0  0  0  0
    5.7333   -0.4968   -0.6916 H   0  0  0  0  0  0  0  0  0  0  0  0
   -7.4122   -1.7579   -0.5741 H   0  0  0  0  0  0  0  0  0  0  0  0
   -9.0746   -1.5478   -0.0788 H   0  0  0  0  0  0  0  0  0  0  0  0
   -7.8125   -1.6625    1.1241 H   0  0  0  0  0  0  0  0  0  0  0  0
   -7.6130    0.2353   -1.9401 H   0  0  0  0  0  0  0  0  0  0  0  0
   -8.2080    1.6970   -1.1901 H   0  0  0  0  0  0  0  0  0  0  0  0
   -9.2764    0.3327   -1.4144 H   0  0  0  0  0  0  0  0  0  0  0  0
    6.2190    1.7945    1.1715 H   0  0  0  0  0  0  0  0  0  0  0  0
    7.1240   -0.4319    1.8724 H   0  0  0  0  0  0  0  0  0  0  0  0
    8.1927    0.9990    1.8164 H   0  0  0  0  0  0  0  0  0  0  0  0
    8.4584    1.4741   -2.3171 H   0  0  0  0  0  0  0  0  0  0  0  0
    8.4513   -1.4994    0.5583 H   0  0  0  0  0  0  0  0  0  0  0  0
    9.5759   -0.1103    0.7260 H   0  0  0  0  0  0  0  0  0  0  0  0
  1  2  2  0  0  0  0
  1  3  2  0  0  0  0
  1  4  1  0  0  0  0
  1  5  1  0  0  0  0
  4  6  1  0  0  0  0
  4  7  1  0  0  0  0
  5  8  1  0  0  0  0
  5 34  1  0  0  0  0
  5 35  1  0  0  0  0
  6  9  1  0  0  0  0
  6 36  1  0  0  0  0
  6 37  1  0  0  0  0
  7 10  1  0  0  0  0
  7 38  1  0  0  0  0
  7 39  1  0  0  0  0
  8 11  1  0  0  0  0
  8 40  1  0  0  0  0
  8 41  1  0  0  0  0
  9 11  1  0  0  0  0
  9 42  1  0  0  0  0
  9 43  1  0  0  0  0
 10 12  2  0  0  0  0
 10 13  1  0  0  0  0
 11 14  1  0  0  0  0
 12 15  1  0  0  0  0
 12 44  1  0  0  0  0
 13 16  2  0  0  0  0
 13 45  1  0  0  0  0
 14 17  2  0  0  0  0
 14 18  1  0  0  0  0
 15 19  1  0  0  0  0
 15 20  2  0  0  0  0
 16 20  1  0  0  0  0
 16 46  1  0  0  0  0
 18 21  1  0  0  0  0
 18 47  1  0  0  0  0
 18 48  1  0  0  0  0
 19 22  2  0  0  0  0
 19 23  1  0  0  0  0
 20 49  1  0  0  0  0
 21 24  1  0  0  0  0
 21 25  1  0  0  0  0
 21 50  1  0  0  0  0
 23 51  1  0  0  0  0
 24 52  1  0  0  0  0
 24 53  1  0  0  0  0
 24 54  1  0  0  0  0
 25 55  1  0  0  0  0
 25 56  1  0  0  0  0
 25 57  1  0  0  0  0
 26 23  1  0  0  0  0
 26 27  1  0  0  0  0
 26 28  1  0  0  0  0
 26 58  1  1  0  0  0
 27 29  2  0  0  0  0
 27 30  1  0  0  0  0
 28 31  1  0  0  0  0
 28 59  1  0  0  0  0
 28 60  1  0  0  0  0
 30 32  1  0  0  0  0
 30 61  1  0  0  0  0
 31 32  1  0  0  0  0
 31 62  1  0  0  0  0
 31 63  1  0  0  0  0
 32 33  2  0  0  0  0
M  CHG  1  21   1
M  END
>  <Molecule Name>
Compound 9

>  <EC50 (µM) (Excel)>
54.0

>  <Error (µM)>
9.3

>  <HTRC CRBN-DDB1 EC50 (µM)>
53.95 ±  9.32

>  <EC50 fitting (µM)>
108.30

>  <Modèle Fitting>
4PL

>  <Parent_Compound>
Compound 9

>  <MMFF94s_energy_kcalmol>
165.178

$$$$
Compound_9_ent2
 OpenBabel09072607323D

 63 65  0  0  0  0  0  0  0  0999 V2000
   -1.2181    1.5919    0.1495 S   0  0  0  0  0  0  0  0  0  0  0  0
   -0.5843    2.1643    1.3841 O   0  0  0  0  0  0  0  0  0  0  0  0
   -0.3265    1.9681   -1.0102 O   0  0  0  0  0  0  0  0  0  0  0  0
   -1.3605   -0.0554    0.2575 N   0  0  0  0  0  0  0  0  0  0  0  0
   -2.7546    2.4408   -0.0945 C   0  0  0  0  0  0  0  0  0  0  0  0
   -2.0430   -0.7940   -0.7021 C   0  0  0  0  0  0  0  0  0  0  0  0
   -0.6622   -0.6869    1.2910 C   0  0  0  0  0  0  0  0  0  0  0  0
   -3.8177    1.5410    0.4997 C   0  0  0  0  0  0  0  0  0  0  0  0
   -3.2135   -0.1530   -1.3729 C   0  0  0  0  0  0  0  0  0  0  0  0
    0.6894   -1.1462    0.8375 C   0  0  0  0  0  0  0  0  0  0  0  0
   -4.1102    0.5249   -0.4787 N   0  0  0  0  0  0  0  0  0  0  0  0
    1.7946   -0.3364    0.9435 C   0  0  0  0  0  0  0  0  0  0  0  0
    0.8605   -2.4149    0.2967 C   0  0  0  0  0  0  0  0  0  0  0  0
   -5.4698    0.1547   -0.5534 C   0  0  0  0  0  0  0  0  0  0  0  0
    3.0616   -0.7121    0.5441 C   0  0  0  0  0  0  0  0  0  0  0  0
    2.1081   -2.8187   -0.1103 C   0  0  0  0  0  0  0  0  0  0  0  0
   -5.8287   -0.7359   -1.3918 O   0  0  0  0  0  0  0  0  0  0  0  0
   -6.5397    0.7312    0.2842 C   0  0  0  0  0  0  0  0  0  0  0  0
    4.1976    0.1903    0.6785 C   0  0  0  0  0  0  0  0  0  0  0  0
    3.2125   -1.9695    0.0117 C   0  0  0  0  0  0  0  0  0  0  0  0
   -7.8312    0.1845    0.0127 N   0  3  0  0  0  0  0  0  0  0  0  0
    4.0291    1.3638    1.1491 O   0  0  0  0  0  0  0  0  0  0  0  0
    5.5115   -0.1510    0.3147 N   0  0  0  0  0  0  0  0  0  0  0  0
   -8.0042   -1.1855    0.3806 C   0  0  0  0  0  0  0  0  0  0  0  0
   -8.3932    0.5541   -1.2466 C   0  0  0  0  0  0  0  0  0  0  0  0
    6.5992    0.8028    0.4774 C   0  0  1  0  0  0  0  0  0  0  0  0
    7.5895    0.3164    1.4596 C   0  0  0  0  0  0  0  0  0  0  0  0
    7.2099    0.9833   -0.8984 C   0  0  0  0  0  0  0  0  0  0  0  0
    7.2362    0.1200    2.6400 O   0  0  0  0  0  0  0  0  0  0  0  0
    8.9345    0.0669    1.0937 N   0  0  0  0  0  0  0  0  0  0  0  0
    8.1238   -0.1837   -1.2438 C   0  0  0  0  0  0  0  0  0  0  0  0
    9.2482   -0.1532   -0.2753 C   0  0  0  0  0  0  0  0  0  0  0  0
   10.4259   -0.3188   -0.6759 O   0  0  0  0  0  0  0  0  0  0  0  0
   -2.9352    2.5931   -1.1381 H   0  0  0  0  0  0  0  0  0  0  0  0
   -2.7505    3.4061    0.3672 H   0  0  0  0  0  0  0  0  0  0  0  0
   -2.3963   -1.6852   -0.2269 H   0  0  0  0  0  0  0  0  0  0  0  0
   -1.3301   -0.9401   -1.4865 H   0  0  0  0  0  0  0  0  0  0  0  0
   -1.2243   -1.5345    1.6236 H   0  0  0  0  0  0  0  0  0  0  0  0
   -0.5291    0.0167    2.0861 H   0  0  0  0  0  0  0  0  0  0  0  0
   -4.6995    2.1077    0.7148 H   0  0  0  0  0  0  0  0  0  0  0  0
   -3.4764    1.1016    1.4137 H   0  0  0  0  0  0  0  0  0  0  0  0
   -3.7637   -0.9140   -1.8857 H   0  0  0  0  0  0  0  0  0  0  0  0
   -2.8184    0.5912   -2.0324 H   0  0  0  0  0  0  0  0  0  0  0  0
    1.6704    0.6063    1.3445 H   0  0  0  0  0  0  0  0  0  0  0  0
    0.0533   -3.0508    0.2014 H   0  0  0  0  0  0  0  0  0  0  0  0
    2.2325   -3.7613   -0.5115 H   0  0  0  0  0  0  0  0  0  0  0  0
   -6.5749    1.7864    0.1102 H   0  0  0  0  0  0  0  0  0  0  0  0
   -6.3052    0.4959    1.3013 H   0  0  0  0  0  0  0  0  0  0  0  0
    4.1435   -2.2883   -0.2991 H   0  0  0  0  0  0  0  0  0  0  0  0
   -8.4293    0.6715    0.6801 H   0  0  0  0  0  0  0  0  0  0  0  0
    5.6983   -1.0445   -0.0541 H   0  0  0  0  0  0  0  0  0  0  0  0
   -7.4139   -1.8047   -0.2621 H   0  0  0  0  0  0  0  0  0  0  0  0
   -9.0358   -1.4530    0.2847 H   0  0  0  0  0  0  0  0  0  0  0  0
   -7.6925   -1.3246    1.3947 H   0  0  0  0  0  0  0  0  0  0  0  0
   -7.8361    0.0927   -2.0350 H   0  0  0  0  0  0  0  0  0  0  0  0
   -8.3531    1.6177   -1.3567 H   0  0  0  0  0  0  0  0  0  0  0  0
   -9.4116    0.2290   -1.2919 H   0  0  0  0  0  0  0  0  0  0  0  0
    6.2469    1.7378    0.8602 H   0  0  0  0  0  0  0  0  0  0  0  0
    7.7782    1.8898   -0.9133 H   0  0  0  0  0  0  0  0  0  0  0  0
    6.4210    1.0252   -1.6200 H   0  0  0  0  0  0  0  0  0  0  0  0
    9.6423    0.0462    1.7777 H   0  0  0  0  0  0  0  0  0  0  0  0
    8.4949   -0.0774   -2.2417 H   0  0  0  0  0  0  0  0  0  0  0  0
    7.5958   -1.1127   -1.1881 H   0  0  0  0  0  0  0  0  0  0  0  0
  1  2  2  0  0  0  0
  1  3  2  0  0  0  0
  1  4  1  0  0  0  0
  1  5  1  0  0  0  0
  4  6  1  0  0  0  0
  4  7  1  0  0  0  0
  5  8  1  0  0  0  0
  5 34  1  0  0  0  0
  5 35  1  0  0  0  0
  6  9  1  0  0  0  0
  6 36  1  0  0  0  0
  6 37  1  0  0  0  0
  7 10  1  0  0  0  0
  7 38  1  0  0  0  0
  7 39  1  0  0  0  0
  8 11  1  0  0  0  0
  8 40  1  0  0  0  0
  8 41  1  0  0  0  0
  9 11  1  0  0  0  0
  9 42  1  0  0  0  0
  9 43  1  0  0  0  0
 10 12  2  0  0  0  0
 10 13  1  0  0  0  0
 11 14  1  0  0  0  0
 12 15  1  0  0  0  0
 12 44  1  0  0  0  0
 13 16  2  0  0  0  0
 13 45  1  0  0  0  0
 14 17  2  0  0  0  0
 14 18  1  0  0  0  0
 15 19  1  0  0  0  0
 15 20  2  0  0  0  0
 16 20  1  0  0  0  0
 16 46  1  0  0  0  0
 18 21  1  0  0  0  0
 18 47  1  0  0  0  0
 18 48  1  0  0  0  0
 19 22  2  0  0  0  0
 19 23  1  0  0  0  0
 20 49  1  0  0  0  0
 21 24  1  0  0  0  0
 21 25  1  0  0  0  0
 21 50  1  0  0  0  0
 23 51  1  0  0  0  0
 24 52  1  0  0  0  0
 24 53  1  0  0  0  0
 24 54  1  0  0  0  0
 25 55  1  0  0  0  0
 25 56  1  0  0  0  0
 25 57  1  0  0  0  0
 26 23  1  0  0  0  0
 26 27  1  0  0  0  0
 26 28  1  0  0  0  0
 26 58  1  1  0  0  0
 27 29  2  0  0  0  0
 27 30  1  0  0  0  0
 28 31  1  0  0  0  0
 28 59  1  0  0  0  0
 28 60  1  0  0  0  0
 30 32  1  0  0  0  0
 30 61  1  0  0  0  0
 31 32  1  0  0  0  0
 31 62  1  0  0  0  0
 31 63  1  0  0  0  0
 32 33  2  0  0  0  0
M  CHG  1  21   1
M  END
>  <Molecule Name>
Compound 9

>  <EC50 (µM) (Excel)>
54.0

>  <Error (µM)>
9.3

>  <HTRC CRBN-DDB1 EC50 (µM)>
53.95 ±  9.32

>  <EC50 fitting (µM)>
108.30

>  <Modèle Fitting>
4PL

>  <Parent_Compound>
Compound 9

>  <MMFF94s_energy_kcalmol>
152.432

$$$$
Compound_10_ent1
 OpenBabel09072607323D

 65 68  0  0  0  0  0  0  0  0999 V2000
   -0.0457    0.6588    0.6214 S   0  0  0  0  0  0  0  0  0  0  0  0
   -0.8371    1.6343   -0.2184 O   0  0  0  0  0  0  0  0  0  0  0  0
   -1.0248    0.1603    1.6847 O   0  0  0  0  0  0  0  0  0  0  0  0
    0.4314   -0.6500   -0.3130 N   0  0  0  0  0  0  0  0  0  0  0  0
    1.2243    1.5592    1.4234 C   0  0  0  0  0  0  0  0  0  0  0  0
    1.7789   -0.7550   -0.7152 C   0  0  0  0  0  0  0  0  0  0  0  0
   -0.3527   -1.8279   -0.2615 C   0  0  0  0  0  0  0  0  0  0  0  0
    2.5152    1.6466    0.6668 C   0  0  0  0  0  0  0  0  0  0  0  0
    2.7850   -0.8867    0.4074 C   0  0  0  0  0  0  0  0  0  0  0  0
   -1.4452   -1.8648   -1.2684 C   0  0  0  0  0  0  0  0  0  0  0  0
    3.2790    0.4242    0.7286 N   0  0  0  0  0  0  0  0  0  0  0  0
   -2.7081   -1.3662   -0.9908 C   0  0  0  0  0  0  0  0  0  0  0  0
   -1.1533   -2.4114   -2.4996 C   0  0  0  0  0  0  0  0  0  0  0  0
    4.6329    0.4755    1.1376 C   0  0  0  0  0  0  0  0  0  0  0  0
   -3.7300   -1.3922   -1.9286 C   0  0  0  0  0  0  0  0  0  0  0  0
   -2.1575   -2.4454   -3.4439 C   0  0  0  0  0  0  0  0  0  0  0  0
    5.2994   -0.5799    1.1913 O   0  0  0  0  0  0  0  0  0  0  0  0
    5.2918    1.7603    1.5086 C   0  0  0  0  0  0  0  0  0  0  0  0
   -5.0604   -0.8778   -1.6632 C   0  0  0  0  0  0  0  0  0  0  0  0
   -3.4077   -1.9450   -3.1509 C   0  0  0  0  0  0  0  0  0  0  0  0
    6.6351    1.5869    1.8318 O   0  0  0  0  0  0  0  0  0  0  0  0
   -5.9039   -0.9195   -2.5990 O   0  0  0  0  0  0  0  0  0  0  0  0
   -5.4904   -0.3344   -0.4435 N   0  0  0  0  0  0  0  0  0  0  0  0
    7.6365    1.1172    1.0100 C   0  0  0  0  0  0  0  0  0  0  0  0
   -6.8186    0.1772   -0.1864 C   0  0  2  0  0  0  0  0  0  0  0  0
    7.4833    0.7432   -0.2981 C   0  0  0  0  0  0  0  0  0  0  0  0
    8.9184    1.0118    1.5570 C   0  0  0  0  0  0  0  0  0  0  0  0
   -6.8090    1.5589    0.3352 C   0  0  0  0  0  0  0  0  0  0  0  0
   -7.4700   -0.6974    0.8622 C   0  0  0  0  0  0  0  0  0  0  0  0
    8.5552    0.2840   -1.0323 C   0  0  0  0  0  0  0  0  0  0  0  0
    9.9916    0.5536    0.8269 C   0  0  0  0  0  0  0  0  0  0  0  0
   -5.7867    2.2852    0.4297 O   0  0  0  0  0  0  0  0  0  0  0  0
   -8.0706    2.0824    0.7568 N   0  0  0  0  0  0  0  0  0  0  0  0
   -8.8203   -0.2331    1.2832 C   0  0  0  0  0  0  0  0  0  0  0  0
    9.8288    0.1787   -0.4892 C   0  0  0  0  0  0  0  0  0  0  0  0
   -9.1458    1.1601    0.8955 C   0  0  0  0  0  0  0  0  0  0  0  0
  -10.3172    1.5616    0.6854 O   0  0  0  0  0  0  0  0  0  0  0  0
    1.4221    1.0880    2.3635 H   0  0  0  0  0  0  0  0  0  0  0  0
    0.8650    2.5627    1.5176 H   0  0  0  0  0  0  0  0  0  0  0  0
    2.0246    0.1219   -1.2770 H   0  0  0  0  0  0  0  0  0  0  0  0
    1.8475   -1.6617   -1.2793 H   0  0  0  0  0  0  0  0  0  0  0  0
   -0.7891   -1.9005    0.7128 H   0  0  0  0  0  0  0  0  0  0  0  0
    0.3002   -2.6471   -0.4794 H   0  0  0  0  0  0  0  0  0  0  0  0
    3.1025    2.4389    1.0818 H   0  0  0  0  0  0  0  0  0  0  0  0
    2.2768    1.8279   -0.3604 H   0  0  0  0  0  0  0  0  0  0  0  0
    3.5953   -1.5119    0.0952 H   0  0  0  0  0  0  0  0  0  0  0  0
    2.3226   -1.3265    1.2663 H   0  0  0  0  0  0  0  0  0  0  0  0
   -2.8938   -0.9637   -0.0589 H   0  0  0  0  0  0  0  0  0  0  0  0
   -0.2134   -2.7832   -2.7080 H   0  0  0  0  0  0  0  0  0  0  0  0
   -1.9717   -2.8480   -4.3758 H   0  0  0  0  0  0  0  0  0  0  0  0
    4.7847    2.1764    2.3539 H   0  0  0  0  0  0  0  0  0  0  0  0
    5.2385    2.4137    0.6629 H   0  0  0  0  0  0  0  0  0  0  0  0
   -4.1370   -1.9857   -3.8799 H   0  0  0  0  0  0  0  0  0  0  0  0
   -4.8386   -0.2985    0.2935 H   0  0  0  0  0  0  0  0  0  0  0  0
   -7.3478    0.1732   -1.1164 H   0  0  0  0  0  0  0  0  0  0  0  0
    6.5528    0.8060   -0.7401 H   0  0  0  0  0  0  0  0  0  0  0  0
    9.0651    1.2866    2.5409 H   0  0  0  0  0  0  0  0  0  0  0  0
   -6.8369   -0.7173    1.7246 H   0  0  0  0  0  0  0  0  0  0  0  0
   -7.5979   -1.6647    0.4230 H   0  0  0  0  0  0  0  0  0  0  0  0
    8.4068    0.0099   -2.0161 H   0  0  0  0  0  0  0  0  0  0  0  0
   10.9228    0.4905    1.2673 H   0  0  0  0  0  0  0  0  0  0  0  0
   -8.1908    3.0415    0.9436 H   0  0  0  0  0  0  0  0  0  0  0  0
   -8.8799   -0.3049    2.3491 H   0  0  0  0  0  0  0  0  0  0  0  0
   -9.5259   -0.8596    0.7786 H   0  0  0  0  0  0  0  0  0  0  0  0
   10.6232   -0.1672   -1.0498 H   0  0  0  0  0  0  0  0  0  0  0  0
  1  2  2  0  0  0  0
  1  3  2  0  0  0  0
  1  4  1  0  0  0  0
  1  5  1  0  0  0  0
  4  6  1  0  0  0  0
  4  7  1  0  0  0  0
  5  8  1  0  0  0  0
  5 38  1  0  0  0  0
  5 39  1  0  0  0  0
  6  9  1  0  0  0  0
  6 40  1  0  0  0  0
  6 41  1  0  0  0  0
  7 10  1  0  0  0  0
  7 42  1  0  0  0  0
  7 43  1  0  0  0  0
  8 11  1  0  0  0  0
  8 44  1  0  0  0  0
  8 45  1  0  0  0  0
  9 11  1  0  0  0  0
  9 46  1  0  0  0  0
  9 47  1  0  0  0  0
 10 12  2  0  0  0  0
 10 13  1  0  0  0  0
 11 14  1  0  0  0  0
 12 15  1  0  0  0  0
 12 48  1  0  0  0  0
 13 16  2  0  0  0  0
 13 49  1  0  0  0  0
 14 17  2  0  0  0  0
 14 18  1  0  0  0  0
 15 19  1  0  0  0  0
 15 20  2  0  0  0  0
 16 20  1  0  0  0  0
 16 50  1  0  0  0  0
 18 21  1  0  0  0  0
 18 51  1  0  0  0  0
 18 52  1  0  0  0  0
 19 22  2  0  0  0  0
 19 23  1  0  0  0  0
 20 53  1  0  0  0  0
 21 24  1  0  0  0  0
 23 54  1  0  0  0  0
 24 26  2  0  0  0  0
 24 27  1  0  0  0  0
 25 23  1  0  0  0  0
 25 28  1  0  0  0  0
 25 29  1  0  0  0  0
 25 55  1  6  0  0  0
 26 30  1  0  0  0  0
 26 56  1  0  0  0  0
 27 31  2  0  0  0  0
 27 57  1  0  0  0  0
 28 32  2  0  0  0  0
 28 33  1  0  0  0  0
 29 34  1  0  0  0  0
 29 58  1  0  0  0  0
 29 59  1  0  0  0  0
 30 35  2  0  0  0  0
 30 60  1  0  0  0  0
 31 35  1  0  0  0  0
 31 61  1  0  0  0  0
 33 36  1  0  0  0  0
 33 62  1  0  0  0  0
 34 36  1  0  0  0  0
 34 63  1  0  0  0  0
 34 64  1  0  0  0  0
 35 65  1  0  0  0  0
 36 37  2  0  0  0  0
M  END
>  <Molecule Name>
Compound 10

>  <EC50 (µM) (Excel)>
14.3

>  <Error (µM)>
1.3

>  <HTRC CRBN-DDB1 EC50 (µM)>
14.29 ±  1.32

>  <EC50 fitting (µM)>
23.96

>  <Modèle Fitting>
3PL

>  <Parent_Compound>
Compound 10

>  <MMFF94s_energy_kcalmol>
144.245

$$$$
Compound_10_ent2
 OpenBabel09072607323D

 65 68  0  0  0  0  0  0  0  0999 V2000
   -0.0491    1.0445    0.9581 S   0  0  0  0  0  0  0  0  0  0  0  0
   -1.4089    1.5169    0.4564 O   0  0  0  0  0  0  0  0  0  0  0  0
   -0.3198    0.3467    2.2638 O   0  0  0  0  0  0  0  0  0  0  0  0
    0.5926   -0.0332   -0.1292 N   0  0  0  0  0  0  0  0  0  0  0  0
    0.9162    2.4699    1.3062 C   0  0  0  0  0  0  0  0  0  0  0  0
    1.5107    0.3775   -1.1026 C   0  0  0  0  0  0  0  0  0  0  0  0
   -0.0545   -1.2719   -0.2369 C   0  0  0  0  0  0  0  0  0  0  0  0
    1.8042    2.8887    0.1661 C   0  0  0  0  0  0  0  0  0  0  0  0
    2.8942    0.6475   -0.4814 C   0  0  0  0  0  0  0  0  0  0  0  0
   -1.1421   -1.3712   -1.2311 C   0  0  0  0  0  0  0  0  0  0  0  0
    2.9263    1.9390    0.1217 N   0  0  0  0  0  0  0  0  0  0  0  0
   -2.4665   -1.1175   -0.8899 C   0  0  0  0  0  0  0  0  0  0  0  0
   -0.8826   -1.7164   -2.5394 C   0  0  0  0  0  0  0  0  0  0  0  0
    4.1000    2.3701    0.7294 C   0  0  0  0  0  0  0  0  0  0  0  0
   -3.4935   -1.2012   -1.8048 C   0  0  0  0  0  0  0  0  0  0  0  0
   -1.8799   -1.8128   -3.4909 C   0  0  0  0  0  0  0  0  0  0  0  0
    4.1407    3.5237    1.2772 O   0  0  0  0  0  0  0  0  0  0  0  0
    5.3345    1.5880    0.7970 C   0  0  0  0  0  0  0  0  0  0  0  0
   -4.8862   -0.9442   -1.4858 C   0  0  0  0  0  0  0  0  0  0  0  0
   -3.1677   -1.5513   -3.0974 C   0  0  0  0  0  0  0  0  0  0  0  0
    5.2991    0.3344    0.1987 O   0  0  0  0  0  0  0  0  0  0  0  0
   -5.7426   -1.0505   -2.4045 O   0  0  0  0  0  0  0  0  0  0  0  0
   -5.3505   -0.5778   -0.1950 N   0  0  0  0  0  0  0  0  0  0  0  0
    6.3563   -0.5313    0.1656 C   0  0  0  0  0  0  0  0  0  0  0  0
   -6.7644   -0.3486   -0.0046 C   0  0  1  0  0  0  0  0  0  0  0  0
    7.5464   -0.1767    0.7497 C   0  0  0  0  0  0  0  0  0  0  0  0
    6.2153   -1.7701   -0.4629 C   0  0  0  0  0  0  0  0  0  0  0  0
   -7.3167   -1.1916    1.0787 C   0  0  0  0  0  0  0  0  0  0  0  0
   -6.9900    1.1027    0.3803 C   0  0  0  0  0  0  0  0  0  0  0  0
    8.5732   -1.0868    0.6854 C   0  0  0  0  0  0  0  0  0  0  0  0
    7.2582   -2.6640   -0.5141 C   0  0  0  0  0  0  0  0  0  0  0  0
   -7.9824   -2.2132    0.7916 O   0  0  0  0  0  0  0  0  0  0  0  0
   -7.0696   -0.8078    2.4205 N   0  0  0  0  0  0  0  0  0  0  0  0
   -6.2585    1.4617    1.6568 C   0  0  0  0  0  0  0  0  0  0  0  0
    8.4537   -2.3165    0.0687 C   0  0  0  0  0  0  0  0  0  0  0  0
   -6.5083    0.4732    2.7324 C   0  0  0  0  0  0  0  0  0  0  0  0
   -6.2308    0.7516    3.9159 O   0  0  0  0  0  0  0  0  0  0  0  0
    1.5321    2.2621    2.1561 H   0  0  0  0  0  0  0  0  0  0  0  0
    0.2343    3.2748    1.4851 H   0  0  0  0  0  0  0  0  0  0  0  0
    1.1535    1.2747   -1.5635 H   0  0  0  0  0  0  0  0  0  0  0  0
    1.6101   -0.4037   -1.8270 H   0  0  0  0  0  0  0  0  0  0  0  0
   -0.4698   -1.5045    0.7214 H   0  0  0  0  0  0  0  0  0  0  0  0
    0.6982   -1.9522   -0.5767 H   0  0  0  0  0  0  0  0  0  0  0  0
    2.1693    3.8810    0.3304 H   0  0  0  0  0  0  0  0  0  0  0  0
    1.2651    2.8853   -0.7581 H   0  0  0  0  0  0  0  0  0  0  0  0
    3.6400    0.5976   -1.2471 H   0  0  0  0  0  0  0  0  0  0  0  0
    3.0869   -0.0903    0.2692 H   0  0  0  0  0  0  0  0  0  0  0  0
   -2.6880   -0.8571    0.0838 H   0  0  0  0  0  0  0  0  0  0  0  0
    0.0918   -1.9100   -2.8188 H   0  0  0  0  0  0  0  0  0  0  0  0
   -1.6630   -2.0730   -4.4657 H   0  0  0  0  0  0  0  0  0  0  0  0
    5.5777    1.4502    1.8298 H   0  0  0  0  0  0  0  0  0  0  0  0
    6.0598    2.1487    0.2452 H   0  0  0  0  0  0  0  0  0  0  0  0
   -3.9230   -1.6195   -3.7974 H   0  0  0  0  0  0  0  0  0  0  0  0
   -4.7211   -0.4817    0.5559 H   0  0  0  0  0  0  0  0  0  0  0  0
   -7.2556   -0.5933   -0.9231 H   0  0  0  0  0  0  0  0  0  0  0  0
    7.6649    0.7355    1.2176 H   0  0  0  0  0  0  0  0  0  0  0  0
    5.3125   -2.0189   -0.8965 H   0  0  0  0  0  0  0  0  0  0  0  0
   -8.0379    1.2650    0.5233 H   0  0  0  0  0  0  0  0  0  0  0  0
   -6.6113    1.7203   -0.4072 H   0  0  0  0  0  0  0  0  0  0  0  0
    9.4768   -0.8398    1.1185 H   0  0  0  0  0  0  0  0  0  0  0  0
    7.1460   -3.5776   -0.9807 H   0  0  0  0  0  0  0  0  0  0  0  0
   -7.2872   -1.4317    3.1504 H   0  0  0  0  0  0  0  0  0  0  0  0
   -6.5904    2.4238    1.9870 H   0  0  0  0  0  0  0  0  0  0  0  0
   -5.2091    1.4670    1.4479 H   0  0  0  0  0  0  0  0  0  0  0  0
    9.2537   -2.9680    0.0456 H   0  0  0  0  0  0  0  0  0  0  0  0
  1  2  2  0  0  0  0
  1  3  2  0  0  0  0
  1  4  1  0  0  0  0
  1  5  1  0  0  0  0
  4  6  1  0  0  0  0
  4  7  1  0  0  0  0
  5  8  1  0  0  0  0
  5 38  1  0  0  0  0
  5 39  1  0  0  0  0
  6  9  1  0  0  0  0
  6 40  1  0  0  0  0
  6 41  1  0  0  0  0
  7 10  1  0  0  0  0
  7 42  1  0  0  0  0
  7 43  1  0  0  0  0
  8 11  1  0  0  0  0
  8 44  1  0  0  0  0
  8 45  1  0  0  0  0
  9 11  1  0  0  0  0
  9 46  1  0  0  0  0
  9 47  1  0  0  0  0
 10 12  2  0  0  0  0
 10 13  1  0  0  0  0
 11 14  1  0  0  0  0
 12 15  1  0  0  0  0
 12 48  1  0  0  0  0
 13 16  2  0  0  0  0
 13 49  1  0  0  0  0
 14 17  2  0  0  0  0
 14 18  1  0  0  0  0
 15 19  1  0  0  0  0
 15 20  2  0  0  0  0
 16 20  1  0  0  0  0
 16 50  1  0  0  0  0
 18 21  1  0  0  0  0
 18 51  1  0  0  0  0
 18 52  1  0  0  0  0
 19 22  2  0  0  0  0
 19 23  1  0  0  0  0
 20 53  1  0  0  0  0
 21 24  1  0  0  0  0
 23 54  1  0  0  0  0
 24 26  2  0  0  0  0
 24 27  1  0  0  0  0
 25 23  1  0  0  0  0
 25 28  1  0  0  0  0
 25 29  1  0  0  0  0
 25 55  1  6  0  0  0
 26 30  1  0  0  0  0
 26 56  1  0  0  0  0
 27 31  2  0  0  0  0
 27 57  1  0  0  0  0
 28 32  2  0  0  0  0
 28 33  1  0  0  0  0
 29 34  1  0  0  0  0
 29 58  1  0  0  0  0
 29 59  1  0  0  0  0
 30 35  2  0  0  0  0
 30 60  1  0  0  0  0
 31 35  1  0  0  0  0
 31 61  1  0  0  0  0
 33 36  1  0  0  0  0
 33 62  1  0  0  0  0
 34 36  1  0  0  0  0
 34 63  1  0  0  0  0
 34 64  1  0  0  0  0
 35 65  1  0  0  0  0
 36 37  2  0  0  0  0
M  END
>  <Molecule Name>
Compound 10

>  <EC50 (µM) (Excel)>
14.3

>  <Error (µM)>
1.3

>  <HTRC CRBN-DDB1 EC50 (µM)>
14.29 ±  1.32

>  <EC50 fitting (µM)>
23.96

>  <Modèle Fitting>
3PL

>  <Parent_Compound>
Compound 10

>  <MMFF94s_energy_kcalmol>
145.091

$$$$
Compound_11_ent1
 OpenBabel09072607323D

 60 63  0  0  0  0  0  0  0  0999 V2000
    1.7629    0.1904   -0.5714 S   0  0  0  0  0  0  0  0  0  0  0  0
    1.4507    1.6319   -0.1270 O   0  0  0  0  0  0  0  0  0  0  0  0
    0.8041    0.0072   -1.7521 O   0  0  0  0  0  0  0  0  0  0  0  0
    1.3965   -0.9280    0.6084 N   0  0  0  0  0  0  0  0  0  0  0  0
    3.3671    0.0983   -1.2568 C   0  0  0  0  0  0  0  0  0  0  0  0
    2.3700   -1.2107    1.5893 C   0  0  0  0  0  0  0  0  0  0  0  0
    0.5089   -1.9641    0.2424 C   0  0  0  0  0  0  0  0  0  0  0  0
    4.5179   -0.0889   -0.3690 C   0  0  0  0  0  0  0  0  0  0  0  0
    3.2355   -0.0361    1.9503 C   0  0  0  0  0  0  0  0  0  0  0  0
   -0.9056   -1.6111    0.5993 C   0  0  0  0  0  0  0  0  0  0  0  0
    4.3686    0.1319    1.0388 N   0  0  0  0  0  0  0  0  0  0  0  0
   -1.8123   -1.1319   -0.2930 C   0  0  0  0  0  0  0  0  0  0  0  0
   -1.3302   -1.7337    1.9170 C   0  0  0  0  0  0  0  0  0  0  0  0
    5.5580    0.6006    1.6611 C   0  0  0  0  0  0  0  0  0  0  0  0
   -3.1049   -0.7678    0.0437 C   0  0  0  0  0  0  0  0  0  0  0  0
   -2.6022   -1.3857    2.2955 C   0  0  0  0  0  0  0  0  0  0  0  0
    5.5540    0.8281    2.8889 O   0  0  0  0  0  0  0  0  0  0  0  0
    6.7736    0.8206    0.9018 C   0  0  0  0  0  0  0  0  0  0  0  0
   -4.0136   -0.2566   -0.9954 C   0  0  0  0  0  0  0  0  0  0  0  0
   -3.4901   -0.9006    1.3504 C   0  0  0  0  0  0  0  0  0  0  0  0
    7.2871    2.0839    0.7689 N   0  0  0  0  0  0  0  0  0  0  0  0
    7.4347   -0.2231    0.2968 C   0  0  0  0  0  0  0  0  0  0  0  0
   -3.5969   -0.1661   -2.2012 O   0  0  0  0  0  0  0  0  0  0  0  0
   -5.3389    0.1547   -0.7782 N   0  0  0  0  0  0  0  0  0  0  0  0
    8.4030    2.3248    0.0727 C   0  0  0  0  0  0  0  0  0  0  0  0
    8.5793   -0.0024   -0.4221 C   0  0  0  0  0  0  0  0  0  0  0  0
   -6.1902    0.6567   -1.8401 C   0  0  2  0  0  0  0  0  0  0  0  0
    9.0871    1.2808   -0.5484 C   0  0  0  0  0  0  0  0  0  0  0  0
   -6.6559    2.0079   -1.4734 C   0  0  0  0  0  0  0  0  0  0  0  0
   -7.3477   -0.3022   -1.9982 C   0  0  0  0  0  0  0  0  0  0  0  0
   -6.0784    3.0176   -1.9111 O   0  0  0  0  0  0  0  0  0  0  0  0
   -7.7714    2.1282   -0.6151 N   0  0  0  0  0  0  0  0  0  0  0  0
   -8.3046   -0.2934   -0.8633 C   0  0  0  0  0  0  0  0  0  0  0  0
   -8.3032    0.9389   -0.0449 C   0  0  0  0  0  0  0  0  0  0  0  0
   -8.7563    0.9627    1.1333 O   0  0  0  0  0  0  0  0  0  0  0  0
    3.5307    1.0106   -1.7914 H   0  0  0  0  0  0  0  0  0  0  0  0
    3.3441   -0.8023   -1.8342 H   0  0  0  0  0  0  0  0  0  0  0  0
    3.0009   -1.9926    1.2212 H   0  0  0  0  0  0  0  0  0  0  0  0
    1.8420   -1.4897    2.4771 H   0  0  0  0  0  0  0  0  0  0  0  0
    0.7863   -2.8605    0.7566 H   0  0  0  0  0  0  0  0  0  0  0  0
    0.5683   -2.1059   -0.8165 H   0  0  0  0  0  0  0  0  0  0  0  0
    5.2839    0.5766   -0.7085 H   0  0  0  0  0  0  0  0  0  0  0  0
    4.7193   -1.1375   -0.4380 H   0  0  0  0  0  0  0  0  0  0  0  0
    3.6119   -0.1801    2.9415 H   0  0  0  0  0  0  0  0  0  0  0  0
    2.6313    0.8442    1.8805 H   0  0  0  0  0  0  0  0  0  0  0  0
   -1.5203   -1.0339   -1.2780 H   0  0  0  0  0  0  0  0  0  0  0  0
   -0.6738   -2.0947    2.6268 H   0  0  0  0  0  0  0  0  0  0  0  0
   -2.8957   -1.4850    3.2799 H   0  0  0  0  0  0  0  0  0  0  0  0
   -4.4473   -0.6378    1.6326 H   0  0  0  0  0  0  0  0  0  0  0  0
    7.0643   -1.1823    0.3856 H   0  0  0  0  0  0  0  0  0  0  0  0
   -5.7058    0.1000    0.1337 H   0  0  0  0  0  0  0  0  0  0  0  0
    8.7602    3.2899   -0.0054 H   0  0  0  0  0  0  0  0  0  0  0  0
    9.0653   -0.7943   -0.8713 H   0  0  0  0  0  0  0  0  0  0  0  0
   -5.6652    0.7254   -2.7699 H   0  0  0  0  0  0  0  0  0  0  0  0
    9.9487    1.4589   -1.0878 H   0  0  0  0  0  0  0  0  0  0  0  0
   -6.9527   -1.2918   -2.0964 H   0  0  0  0  0  0  0  0  0  0  0  0
   -7.8931    0.0141   -2.8627 H   0  0  0  0  0  0  0  0  0  0  0  0
   -8.1681    3.0074   -0.4179 H   0  0  0  0  0  0  0  0  0  0  0  0
   -8.0650   -1.1161   -0.2225 H   0  0  0  0  0  0  0  0  0  0  0  0
   -9.2801   -0.3587   -1.2982 H   0  0  0  0  0  0  0  0  0  0  0  0
  1  2  2  0  0  0  0
  1  3  2  0  0  0  0
  1  4  1  0  0  0  0
  1  5  1  0  0  0  0
  4  6  1  0  0  0  0
  4  7  1  0  0  0  0
  5  8  1  0  0  0  0
  5 36  1  0  0  0  0
  5 37  1  0  0  0  0
  6  9  1  0  0  0  0
  6 38  1  0  0  0  0
  6 39  1  0  0  0  0
  7 10  1  0  0  0  0
  7 40  1  0  0  0  0
  7 41  1  0  0  0  0
  8 11  1  0  0  0  0
  8 42  1  0  0  0  0
  8 43  1  0  0  0  0
  9 11  1  0  0  0  0
  9 44  1  0  0  0  0
  9 45  1  0  0  0  0
 10 12  2  0  0  0  0
 10 13  1  0  0  0  0
 11 14  1  0  0  0  0
 12 15  1  0  0  0  0
 12 46  1  0  0  0  0
 13 16  2  0  0  0  0
 13 47  1  0  0  0  0
 14 17  2  0  0  0  0
 14 18  1  0  0  0  0
 15 19  1  0  0  0  0
 15 20  2  0  0  0  0
 16 20  1  0  0  0  0
 16 48  1  0  0  0  0
 18 21  2  0  0  0  0
 18 22  1  0  0  0  0
 19 23  2  0  0  0  0
 19 24  1  0  0  0  0
 20 49  1  0  0  0  0
 21 25  1  0  0  0  0
 22 26  2  0  0  0  0
 22 50  1  0  0  0  0
 24 51  1  0  0  0  0
 25 28  2  0  0  0  0
 25 52  1  0  0  0  0
 26 28  1  0  0  0  0
 26 53  1  0  0  0  0
 27 24  1  0  0  0  0
 27 29  1  0  0  0  0
 27 30  1  0  0  0  0
 27 54  1  6  0  0  0
 28 55  1  0  0  0  0
 29 31  2  0  0  0  0
 29 32  1  0  0  0  0
 30 33  1  0  0  0  0
 30 56  1  0  0  0  0
 30 57  1  0  0  0  0
 32 34  1  0  0  0  0
 32 58  1  0  0  0  0
 33 34  1  0  0  0  0
 33 59  1  0  0  0  0
 33 60  1  0  0  0  0
 34 35  2  0  0  0  0
M  END
>  <Molecule Name>
Compound 11

>  <EC50 (µM) (Excel)>
37.7

>  <Error (µM)>
0.8

>  <HTRC CRBN-DDB1 EC50 (µM)>
37.72 ±  0.78

>  <EC50 fitting (µM)>
52.96

>  <Modèle Fitting>
3PL

>  <Parent_Compound>
Compound 11

>  <MMFF94s_energy_kcalmol>
162.965

$$$$
Compound_11_ent2
 OpenBabel09072607323D

 60 63  0  0  0  0  0  0  0  0999 V2000
    1.5915    0.4177   -0.9801 S   0  0  0  0  0  0  0  0  0  0  0  0
    0.4368    1.3912   -1.0285 O   0  0  0  0  0  0  0  0  0  0  0  0
    1.4248   -0.3921   -2.2791 O   0  0  0  0  0  0  0  0  0  0  0  0
    1.5592   -0.6498    0.2840 N   0  0  0  0  0  0  0  0  0  0  0  0
    3.1055    1.2779   -1.1456 C   0  0  0  0  0  0  0  0  0  0  0  0
    2.0891   -0.3931    1.5439 C   0  0  0  0  0  0  0  0  0  0  0  0
    0.7416   -1.8032    0.1601 C   0  0  0  0  0  0  0  0  0  0  0  0
    4.2884    0.5814   -0.4864 C   0  0  0  0  0  0  0  0  0  0  0  0
    2.9503    0.7966    1.7462 C   0  0  0  0  0  0  0  0  0  0  0  0
   -0.6584   -1.5960    0.5622 C   0  0  0  0  0  0  0  0  0  0  0  0
    4.1761    0.6915    0.9631 N   0  0  0  0  0  0  0  0  0  0  0  0
   -1.6192   -1.1809   -0.3456 C   0  0  0  0  0  0  0  0  0  0  0  0
   -1.1150   -1.7965    1.8613 C   0  0  0  0  0  0  0  0  0  0  0  0
    5.4056    0.6995    1.6432 C   0  0  0  0  0  0  0  0  0  0  0  0
   -2.9306   -0.9696   -0.0351 C   0  0  0  0  0  0  0  0  0  0  0  0
   -2.4282   -1.5901    2.1935 C   0  0  0  0  0  0  0  0  0  0  0  0
    5.4138    0.7876    2.9065 O   0  0  0  0  0  0  0  0  0  0  0  0
    6.7147    0.6140    1.0079 C   0  0  0  0  0  0  0  0  0  0  0  0
   -3.8705   -0.5291   -1.0562 C   0  0  0  0  0  0  0  0  0  0  0  0
   -3.3595   -1.1701    1.2389 C   0  0  0  0  0  0  0  0  0  0  0  0
    7.6100    1.6365    1.1236 N   0  0  0  0  0  0  0  0  0  0  0  0
    7.0558   -0.5035    0.2846 C   0  0  0  0  0  0  0  0  0  0  0  0
   -3.4729   -0.3395   -2.2629 O   0  0  0  0  0  0  0  0  0  0  0  0
   -5.2437   -0.2793   -0.8340 N   0  0  0  0  0  0  0  0  0  0  0  0
    8.8085    1.5751    0.5504 C   0  0  0  0  0  0  0  0  0  0  0  0
    8.2880   -0.6086   -0.3259 C   0  0  0  0  0  0  0  0  0  0  0  0
   -6.1674    0.1643   -1.8719 C   0  0  1  0  0  0  0  0  0  0  0  0
    9.1643    0.4452   -0.1858 C   0  0  0  0  0  0  0  0  0  0  0  0
   -7.1896   -0.8770   -2.0397 C   0  0  0  0  0  0  0  0  0  0  0  0
   -6.7367    1.4797   -1.4106 C   0  0  0  0  0  0  0  0  0  0  0  0
   -7.2240   -1.5813   -3.0711 O   0  0  0  0  0  0  0  0  0  0  0  0
   -8.1387   -1.0549   -0.9865 N   0  0  0  0  0  0  0  0  0  0  0  0
   -7.8993    1.3675   -0.4888 C   0  0  0  0  0  0  0  0  0  0  0  0
   -8.2225    0.0057   -0.0378 C   0  0  0  0  0  0  0  0  0  0  0  0
   -8.5697   -0.2719    1.1452 O   0  0  0  0  0  0  0  0  0  0  0  0
    2.9936    2.2446   -0.7009 H   0  0  0  0  0  0  0  0  0  0  0  0
    3.3201    1.3286   -2.1926 H   0  0  0  0  0  0  0  0  0  0  0  0
    2.6712   -1.2485    1.8166 H   0  0  0  0  0  0  0  0  0  0  0  0
    1.2263   -0.1826    2.1407 H   0  0  0  0  0  0  0  0  0  0  0  0
    1.1561   -2.5758    0.7735 H   0  0  0  0  0  0  0  0  0  0  0  0
    0.7284   -2.0606   -0.8784 H   0  0  0  0  0  0  0  0  0  0  0  0
    5.1982    1.0430   -0.8090 H   0  0  0  0  0  0  0  0  0  0  0  0
    4.2922   -0.4518   -0.7647 H   0  0  0  0  0  0  0  0  0  0  0  0
    3.2027    0.8740    2.7831 H   0  0  0  0  0  0  0  0  0  0  0  0
    2.4137    1.6652    1.4260 H   0  0  0  0  0  0  0  0  0  0  0  0
   -1.3232   -1.0210   -1.3212 H   0  0  0  0  0  0  0  0  0  0  0  0
   -0.4518   -2.1066    2.5886 H   0  0  0  0  0  0  0  0  0  0  0  0
   -2.7355   -1.7475    3.1660 H   0  0  0  0  0  0  0  0  0  0  0  0
   -4.3473   -1.0163    1.4951 H   0  0  0  0  0  0  0  0  0  0  0  0
    6.3785   -1.2772    0.1967 H   0  0  0  0  0  0  0  0  0  0  0  0
   -5.5976   -0.4126    0.0750 H   0  0  0  0  0  0  0  0  0  0  0  0
    9.4718    2.3594    0.6498 H   0  0  0  0  0  0  0  0  0  0  0  0
    8.5448   -1.4477   -0.8690 H   0  0  0  0  0  0  0  0  0  0  0  0
   -5.7028    0.3113   -2.8245 H   0  0  0  0  0  0  0  0  0  0  0  0
   10.0944    0.3980   -0.6305 H   0  0  0  0  0  0  0  0  0  0  0  0
   -7.0486    2.0287   -2.2745 H   0  0  0  0  0  0  0  0  0  0  0  0
   -5.9604    1.9668   -0.8584 H   0  0  0  0  0  0  0  0  0  0  0  0
   -8.7004   -1.8607   -0.9201 H   0  0  0  0  0  0  0  0  0  0  0  0
   -8.7579    1.7602   -0.9923 H   0  0  0  0  0  0  0  0  0  0  0  0
   -7.6285    1.9114    0.3920 H   0  0  0  0  0  0  0  0  0  0  0  0
  1  2  2  0  0  0  0
  1  3  2  0  0  0  0
  1  4  1  0  0  0  0
  1  5  1  0  0  0  0
  4  6  1  0  0  0  0
  4  7  1  0  0  0  0
  5  8  1  0  0  0  0
  5 36  1  0  0  0  0
  5 37  1  0  0  0  0
  6  9  1  0  0  0  0
  6 38  1  0  0  0  0
  6 39  1  0  0  0  0
  7 10  1  0  0  0  0
  7 40  1  0  0  0  0
  7 41  1  0  0  0  0
  8 11  1  0  0  0  0
  8 42  1  0  0  0  0
  8 43  1  0  0  0  0
  9 11  1  0  0  0  0
  9 44  1  0  0  0  0
  9 45  1  0  0  0  0
 10 12  2  0  0  0  0
 10 13  1  0  0  0  0
 11 14  1  0  0  0  0
 12 15  1  0  0  0  0
 12 46  1  0  0  0  0
 13 16  2  0  0  0  0
 13 47  1  0  0  0  0
 14 17  2  0  0  0  0
 14 18  1  0  0  0  0
 15 19  1  0  0  0  0
 15 20  2  0  0  0  0
 16 20  1  0  0  0  0
 16 48  1  0  0  0  0
 18 21  2  0  0  0  0
 18 22  1  0  0  0  0
 19 23  2  0  0  0  0
 19 24  1  0  0  0  0
 20 49  1  0  0  0  0
 21 25  1  0  0  0  0
 22 26  2  0  0  0  0
 22 50  1  0  0  0  0
 24 51  1  0  0  0  0
 25 28  2  0  0  0  0
 25 52  1  0  0  0  0
 26 28  1  0  0  0  0
 26 53  1  0  0  0  0
 27 24  1  0  0  0  0
 27 29  1  0  0  0  0
 27 30  1  0  0  0  0
 27 54  1  6  0  0  0
 28 55  1  0  0  0  0
 29 31  2  0  0  0  0
 29 32  1  0  0  0  0
 30 33  1  0  0  0  0
 30 56  1  0  0  0  0
 30 57  1  0  0  0  0
 32 34  1  0  0  0  0
 32 58  1  0  0  0  0
 33 34  1  0  0  0  0
 33 59  1  0  0  0  0
 33 60  1  0  0  0  0
 34 35  2  0  0  0  0
M  END
>  <Molecule Name>
Compound 11

>  <EC50 (µM) (Excel)>
37.7

>  <Error (µM)>
0.8

>  <HTRC CRBN-DDB1 EC50 (µM)>
37.72 ±  0.78

>  <EC50 fitting (µM)>
52.96

>  <Modèle Fitting>
3PL

>  <Parent_Compound>
Compound 11

>  <MMFF94s_energy_kcalmol>
152.433

$$$$
Compound_12_ent1
 OpenBabel09072607323D

 68 71  0  0  0  0  0  0  0  0999 V2000
   -0.5104    0.4596   -1.4671 S   0  0  0  0  0  0  0  0  0  0  0  0
   -1.3550   -0.2554   -2.4786 O   0  0  0  0  0  0  0  0  0  0  0  0
   -1.4291    1.4490   -0.7630 O   0  0  0  0  0  0  0  0  0  0  0  0
    0.2486   -0.5933   -0.3603 N   0  0  0  0  0  0  0  0  0  0  0  0
    0.6586    1.4533   -2.3749 C   0  0  0  0  0  0  0  0  0  0  0  0
    1.6888   -0.4583   -0.3293 C   0  0  0  0  0  0  0  0  0  0  0  0
   -0.3464   -0.6376    0.9337 C   0  0  0  0  0  0  0  0  0  0  0  0
    1.2630    2.5268   -1.4916 C   0  0  0  0  0  0  0  0  0  0  0  0
    2.0434    0.8876    0.3196 C   0  0  0  0  0  0  0  0  0  0  0  0
   -1.3874   -1.6472    1.1305 C   0  0  0  0  0  0  0  0  0  0  0  0
    2.2884    1.8916   -0.6806 N   0  0  0  0  0  0  0  0  0  0  0  0
   -2.7343   -1.3559    0.8725 C   0  0  0  0  0  0  0  0  0  0  0  0
   -1.0111   -2.8932    1.5777 C   0  0  0  0  0  0  0  0  0  0  0  0
    3.6316    2.2863   -0.8865 C   0  0  0  0  0  0  0  0  0  0  0  0
   -3.7184   -2.2915    1.0540 C   0  0  0  0  0  0  0  0  0  0  0  0
   -1.9987   -3.8363    1.7612 C   0  0  0  0  0  0  0  0  0  0  0  0
    3.9238    3.1708   -1.7552 O   0  0  0  0  0  0  0  0  0  0  0  0
    4.7323    1.6768   -0.0927 C   0  0  0  0  0  0  0  0  0  0  0  0
   -5.1216   -2.0103    0.7914 C   0  0  0  0  0  0  0  0  0  0  0  0
   -3.3244   -3.5539    1.5087 C   0  0  0  0  0  0  0  0  0  0  0  0
    6.0341    2.2782   -0.5265 C   0  0  0  0  0  0  0  0  0  0  0  0
   -6.0135   -2.9096    0.9858 O   0  0  0  0  0  0  0  0  0  0  0  0
   -5.6234   -0.7740    0.3166 N   0  0  0  0  0  0  0  0  0  0  0  0
    7.1724    1.8333    0.0931 O   0  0  0  0  0  0  0  0  0  0  0  0
   -7.0352   -0.5284    0.0654 C   0  0  2  0  0  0  0  0  0  0  0  0
    7.7564    0.5945    0.1284 C   0  0  0  0  0  0  0  0  0  0  0  0
   -7.3121   -0.3357   -1.3716 C   0  0  0  0  0  0  0  0  0  0  0  0
   -7.6039    0.5217    0.9607 C   0  0  0  0  0  0  0  0  0  0  0  0
    8.9196    0.4581    0.8785 C   0  0  0  0  0  0  0  0  0  0  0  0
    7.3138   -0.5298   -0.5035 C   0  0  0  0  0  0  0  0  0  0  0  0
   -6.4963   -0.7387   -2.2202 O   0  0  0  0  0  0  0  0  0  0  0  0
   -8.5111    0.3097   -1.7583 N   0  0  0  0  0  0  0  0  0  0  0  0
   -8.1666    1.7233    0.2335 C   0  0  0  0  0  0  0  0  0  0  0  0
    9.6070   -0.7203    0.9992 C   0  0  0  0  0  0  0  0  0  0  0  0
    7.9582   -1.7536   -0.4250 C   0  0  0  0  0  0  0  0  0  0  0  0
   -9.0995    1.2027   -0.8033 C   0  0  0  0  0  0  0  0  0  0  0  0
    9.1033   -1.8315    0.3305 C   0  0  0  0  0  0  0  0  0  0  0  0
  -10.3076    1.4926   -0.8761 O   0  0  0  0  0  0  0  0  0  0  0  0
    0.1572    1.9188   -3.1976 H   0  0  0  0  0  0  0  0  0  0  0  0
    1.4453    0.8182   -2.7252 H   0  0  0  0  0  0  0  0  0  0  0  0
    2.0749   -0.4900   -1.3267 H   0  0  0  0  0  0  0  0  0  0  0  0
    2.1180   -1.2595    0.2353 H   0  0  0  0  0  0  0  0  0  0  0  0
   -0.7805    0.3212    1.1267 H   0  0  0  0  0  0  0  0  0  0  0  0
    0.4436   -0.9056    1.6038 H   0  0  0  0  0  0  0  0  0  0  0  0
    0.5087    2.9508   -0.8622 H   0  0  0  0  0  0  0  0  0  0  0  0
    1.6814    3.3137   -2.0837 H   0  0  0  0  0  0  0  0  0  0  0  0
    2.9225    0.7672    0.9177 H   0  0  0  0  0  0  0  0  0  0  0  0
    1.2193    1.2026    0.9250 H   0  0  0  0  0  0  0  0  0  0  0  0
   -2.9906   -0.4139    0.5378 H   0  0  0  0  0  0  0  0  0  0  0  0
   -0.0214   -3.1140    1.7694 H   0  0  0  0  0  0  0  0  0  0  0  0
   -1.7397   -4.7775    2.0960 H   0  0  0  0  0  0  0  0  0  0  0  0
    4.7520    0.6199   -0.2584 H   0  0  0  0  0  0  0  0  0  0  0  0
    4.5753    1.8649    0.9489 H   0  0  0  0  0  0  0  0  0  0  0  0
   -4.0369   -4.2854    1.6576 H   0  0  0  0  0  0  0  0  0  0  0  0
    5.9707    3.3335   -0.3617 H   0  0  0  0  0  0  0  0  0  0  0  0
    6.1453    1.9813   -1.5485 H   0  0  0  0  0  0  0  0  0  0  0  0
   -4.9847   -0.0440    0.1480 H   0  0  0  0  0  0  0  0  0  0  0  0
   -7.5707   -1.4151    0.3333 H   0  0  0  0  0  0  0  0  0  0  0  0
   -6.8281    0.8596    1.6155 H   0  0  0  0  0  0  0  0  0  0  0  0
   -8.4213    0.0693    1.4823 H   0  0  0  0  0  0  0  0  0  0  0  0
    9.2841    1.2890    1.3703 H   0  0  0  0  0  0  0  0  0  0  0  0
    6.4536   -0.4657   -1.0700 H   0  0  0  0  0  0  0  0  0  0  0  0
   -8.9208    0.1531   -2.6397 H   0  0  0  0  0  0  0  0  0  0  0  0
   -7.3762    2.2778   -0.2276 H   0  0  0  0  0  0  0  0  0  0  0  0
   -8.6734    2.3785    0.9108 H   0  0  0  0  0  0  0  0  0  0  0  0
   10.4674   -0.7818    1.5657 H   0  0  0  0  0  0  0  0  0  0  0  0
    7.5895   -2.5814   -0.9188 H   0  0  0  0  0  0  0  0  0  0  0  0
    9.6001   -2.7331    0.4034 H   0  0  0  0  0  0  0  0  0  0  0  0
  1  2  2  0  0  0  0
  1  3  2  0  0  0  0
  1  4  1  0  0  0  0
  1  5  1  0  0  0  0
  4  6  1  0  0  0  0
  4  7  1  0  0  0  0
  5  8  1  0  0  0  0
  5 39  1  0  0  0  0
  5 40  1  0  0  0  0
  6  9  1  0  0  0  0
  6 41  1  0  0  0  0
  6 42  1  0  0  0  0
  7 10  1  0  0  0  0
  7 43  1  0  0  0  0
  7 44  1  0  0  0  0
  8 11  1  0  0  0  0
  8 45  1  0  0  0  0
  8 46  1  0  0  0  0
  9 11  1  0  0  0  0
  9 47  1  0  0  0  0
  9 48  1  0  0  0  0
 10 12  2  0  0  0  0
 10 13  1  0  0  0  0
 11 14  1  0  0  0  0
 12 15  1  0  0  0  0
 12 49  1  0  0  0  0
 13 16  2  0  0  0  0
 13 50  1  0  0  0  0
 14 17  2  0  0  0  0
 14 18  1  0  0  0  0
 15 19  1  0  0  0  0
 15 20  2  0  0  0  0
 16 20  1  0  0  0  0
 16 51  1  0  0  0  0
 18 21  1  0  0  0  0
 18 52  1  0  0  0  0
 18 53  1  0  0  0  0
 19 22  2  0  0  0  0
 19 23  1  0  0  0  0
 20 54  1  0  0  0  0
 21 24  1  0  0  0  0
 21 55  1  0  0  0  0
 21 56  1  0  0  0  0
 23 57  1  0  0  0  0
 24 26  1  0  0  0  0
 25 23  1  0  0  0  0
 25 27  1  0  0  0  0
 25 28  1  0  0  0  0
 25 58  1  1  0  0  0
 26 29  2  0  0  0  0
 26 30  1  0  0  0  0
 27 31  2  0  0  0  0
 27 32  1  0  0  0  0
 28 33  1  0  0  0  0
 28 59  1  0  0  0  0
 28 60  1  0  0  0  0
 29 34  1  0  0  0  0
 29 61  1  0  0  0  0
 30 35  2  0  0  0  0
 30 62  1  0  0  0  0
 32 36  1  0  0  0  0
 32 63  1  0  0  0  0
 33 36  1  0  0  0  0
 33 64  1  0  0  0  0
 33 65  1  0  0  0  0
 34 37  2  0  0  0  0
 34 66  1  0  0  0  0
 35 37  1  0  0  0  0
 35 67  1  0  0  0  0
 36 38  2  0  0  0  0
 37 68  1  0  0  0  0
M  END
>  <Molecule Name>
Compound 12

>  <EC50 (µM) (Excel)>
61.9

>  <Error (µM)>
8.1

>  <HTRC CRBN-DDB1 EC50 (µM)>
61.88 ±  8.05

>  <EC50 fitting (µM)>
111.51

>  <Modèle Fitting>
4PL

>  <Parent_Compound>
Compound 12

>  <MMFF94s_energy_kcalmol>
156.552

$$$$
Compound_12_ent2
 OpenBabel09072607323D

 68 71  0  0  0  0  0  0  0  0999 V2000
    0.0285    0.9701   -1.8129 S   0  0  0  0  0  0  0  0  0  0  0  0
   -0.8578    0.2374   -2.7664 O   0  0  0  0  0  0  0  0  0  0  0  0
   -0.7356    2.2088   -1.3629 O   0  0  0  0  0  0  0  0  0  0  0  0
    0.4808    0.0629   -0.4489 N   0  0  0  0  0  0  0  0  0  0  0  0
    1.4282    1.5708   -2.7268 C   0  0  0  0  0  0  0  0  0  0  0  0
    1.8903   -0.0616   -0.2416 C   0  0  0  0  0  0  0  0  0  0  0  0
   -0.2383    0.3675    0.7557 C   0  0  0  0  0  0  0  0  0  0  0  0
    2.1559    2.6600   -1.9766 C   0  0  0  0  0  0  0  0  0  0  0  0
    2.5464    1.2643    0.1578 C   0  0  0  0  0  0  0  0  0  0  0  0
   -1.4517   -0.4702    0.9566 C   0  0  0  0  0  0  0  0  0  0  0  0
    2.9821    2.0271   -0.9689 N   0  0  0  0  0  0  0  0  0  0  0  0
   -2.6643   -0.0722    0.4641 C   0  0  0  0  0  0  0  0  0  0  0  0
   -1.3205   -1.6484    1.6482 C   0  0  0  0  0  0  0  0  0  0  0  0
    4.3735    2.2156   -1.1631 C   0  0  0  0  0  0  0  0  0  0  0  0
   -3.7765   -0.8785    0.6710 C   0  0  0  0  0  0  0  0  0  0  0  0
   -2.4418   -2.4248    1.8364 C   0  0  0  0  0  0  0  0  0  0  0  0
    4.8462    2.8728   -2.1190 O   0  0  0  0  0  0  0  0  0  0  0  0
    5.3101    1.6041   -0.1866 C   0  0  0  0  0  0  0  0  0  0  0  0
   -5.0456   -0.4197    0.1305 C   0  0  0  0  0  0  0  0  0  0  0  0
   -3.6785   -2.0675    1.3614 C   0  0  0  0  0  0  0  0  0  0  0  0
    6.7193    1.9699   -0.6002 C   0  0  0  0  0  0  0  0  0  0  0  0
   -5.0894    0.6823   -0.5023 O   0  0  0  0  0  0  0  0  0  0  0  0
   -6.2794   -1.1079    0.2464 N   0  0  0  0  0  0  0  0  0  0  0  0
    7.7215    1.4783    0.1908 O   0  0  0  0  0  0  0  0  0  0  0  0
   -7.5131   -0.5617   -0.3363 C   0  0  1  0  0  0  0  0  0  0  0  0
    8.1113    0.1989    0.4582 C   0  0  0  0  0  0  0  0  0  0  0  0
   -8.1559   -1.5993   -1.1494 C   0  0  0  0  0  0  0  0  0  0  0  0
   -8.4285   -0.2584    0.8464 C   0  0  0  0  0  0  0  0  0  0  0  0
    9.1848    0.0442    1.3539 C   0  0  0  0  0  0  0  0  0  0  0  0
    7.5522   -0.9342   -0.0693 C   0  0  0  0  0  0  0  0  0  0  0  0
   -7.4342   -2.2237   -1.9758 O   0  0  0  0  0  0  0  0  0  0  0  0
   -9.5477   -1.8848   -1.0036 N   0  0  0  0  0  0  0  0  0  0  0  0
   -9.7958    0.1807    0.3932 C   0  0  0  0  0  0  0  0  0  0  0  0
    9.6699   -1.1892    1.7010 C   0  0  0  0  0  0  0  0  0  0  0  0
    8.0185   -2.1999    0.2608 C   0  0  0  0  0  0  0  0  0  0  0  0
  -10.4189   -0.9694   -0.3138 C   0  0  0  0  0  0  0  0  0  0  0  0
    9.0724   -2.2914    1.1436 C   0  0  0  0  0  0  0  0  0  0  0  0
  -11.6627   -1.1372   -0.3098 O   0  0  0  0  0  0  0  0  0  0  0  0
    1.0896    1.9612   -3.6637 H   0  0  0  0  0  0  0  0  0  0  0  0
    2.1059    0.7561   -2.8747 H   0  0  0  0  0  0  0  0  0  0  0  0
    2.3408   -0.4075   -1.1484 H   0  0  0  0  0  0  0  0  0  0  0  0
    2.0400   -0.7523    0.5618 H   0  0  0  0  0  0  0  0  0  0  0  0
   -0.5387    1.3938    0.7193 H   0  0  0  0  0  0  0  0  0  0  0  0
    0.4211    0.1636    1.5733 H   0  0  0  0  0  0  0  0  0  0  0  0
    1.4499    3.3148   -1.5099 H   0  0  0  0  0  0  0  0  0  0  0  0
    2.7590    3.2367   -2.6464 H   0  0  0  0  0  0  0  0  0  0  0  0
    3.3936    1.0539    0.7766 H   0  0  0  0  0  0  0  0  0  0  0  0
    1.8115    1.8447    0.6755 H   0  0  0  0  0  0  0  0  0  0  0  0
   -2.7518    0.8157   -0.0545 H   0  0  0  0  0  0  0  0  0  0  0  0
   -0.4039   -1.9451    2.0181 H   0  0  0  0  0  0  0  0  0  0  0  0
   -2.3483   -3.3116    2.3559 H   0  0  0  0  0  0  0  0  0  0  0  0
    5.1950    0.5403   -0.1899 H   0  0  0  0  0  0  0  0  0  0  0  0
    5.1064    1.9641    0.8002 H   0  0  0  0  0  0  0  0  0  0  0  0
   -4.5045   -2.6667    1.5153 H   0  0  0  0  0  0  0  0  0  0  0  0
    6.7946    3.0372   -0.5990 H   0  0  0  0  0  0  0  0  0  0  0  0
    6.8639    1.5228   -1.5615 H   0  0  0  0  0  0  0  0  0  0  0  0
   -6.3104   -1.9672    0.7259 H   0  0  0  0  0  0  0  0  0  0  0  0
   -7.3186    0.2999   -0.9402 H   0  0  0  0  0  0  0  0  0  0  0  0
   -7.9903    0.5218    1.4330 H   0  0  0  0  0  0  0  0  0  0  0  0
   -8.5390   -1.1540    1.4214 H   0  0  0  0  0  0  0  0  0  0  0  0
    9.6205    0.8859    1.7623 H   0  0  0  0  0  0  0  0  0  0  0  0
    6.7638   -0.8453   -0.7293 H   0  0  0  0  0  0  0  0  0  0  0  0
   -9.9156   -2.7172   -1.3791 H   0  0  0  0  0  0  0  0  0  0  0  0
   -9.7108    1.0157   -0.2704 H   0  0  0  0  0  0  0  0  0  0  0  0
  -10.3934    0.4800    1.2288 H   0  0  0  0  0  0  0  0  0  0  0  0
   10.4584   -1.2860    2.3597 H   0  0  0  0  0  0  0  0  0  0  0  0
    7.5885   -3.0467   -0.1430 H   0  0  0  0  0  0  0  0  0  0  0  0
    9.4269   -3.2272    1.3959 H   0  0  0  0  0  0  0  0  0  0  0  0
  1  2  2  0  0  0  0
  1  3  2  0  0  0  0
  1  4  1  0  0  0  0
  1  5  1  0  0  0  0
  4  6  1  0  0  0  0
  4  7  1  0  0  0  0
  5  8  1  0  0  0  0
  5 39  1  0  0  0  0
  5 40  1  0  0  0  0
  6  9  1  0  0  0  0
  6 41  1  0  0  0  0
  6 42  1  0  0  0  0
  7 10  1  0  0  0  0
  7 43  1  0  0  0  0
  7 44  1  0  0  0  0
  8 11  1  0  0  0  0
  8 45  1  0  0  0  0
  8 46  1  0  0  0  0
  9 11  1  0  0  0  0
  9 47  1  0  0  0  0
  9 48  1  0  0  0  0
 10 12  2  0  0  0  0
 10 13  1  0  0  0  0
 11 14  1  0  0  0  0
 12 15  1  0  0  0  0
 12 49  1  0  0  0  0
 13 16  2  0  0  0  0
 13 50  1  0  0  0  0
 14 17  2  0  0  0  0
 14 18  1  0  0  0  0
 15 19  1  0  0  0  0
 15 20  2  0  0  0  0
 16 20  1  0  0  0  0
 16 51  1  0  0  0  0
 18 21  1  0  0  0  0
 18 52  1  0  0  0  0
 18 53  1  0  0  0  0
 19 22  2  0  0  0  0
 19 23  1  0  0  0  0
 20 54  1  0  0  0  0
 21 24  1  0  0  0  0
 21 55  1  0  0  0  0
 21 56  1  0  0  0  0
 23 57  1  0  0  0  0
 24 26  1  0  0  0  0
 25 23  1  0  0  0  0
 25 27  1  0  0  0  0
 25 28  1  0  0  0  0
 25 58  1  6  0  0  0
 26 29  2  0  0  0  0
 26 30  1  0  0  0  0
 27 31  2  0  0  0  0
 27 32  1  0  0  0  0
 28 33  1  0  0  0  0
 28 59  1  0  0  0  0
 28 60  1  0  0  0  0
 29 34  1  0  0  0  0
 29 61  1  0  0  0  0
 30 35  2  0  0  0  0
 30 62  1  0  0  0  0
 32 36  1  0  0  0  0
 32 63  1  0  0  0  0
 33 36  1  0  0  0  0
 33 64  1  0  0  0  0
 33 65  1  0  0  0  0
 34 37  2  0  0  0  0
 34 66  1  0  0  0  0
 35 37  1  0  0  0  0
 35 67  1  0  0  0  0
 36 38  2  0  0  0  0
 37 68  1  0  0  0  0
M  END
>  <Molecule Name>
Compound 12

>  <EC50 (µM) (Excel)>
61.9

>  <Error (µM)>
8.1

>  <HTRC CRBN-DDB1 EC50 (µM)>
61.88 ±  8.05

>  <EC50 fitting (µM)>
111.51

>  <Modèle Fitting>
4PL

>  <Parent_Compound>
Compound 12

>  <MMFF94s_energy_kcalmol>
147.331

$$$$
