Compound_1_ent1
     RDKit          3D

 65 67  0  0  0  0  0  0  0  0999 V2000
    3.1880    2.2148   -0.2163 O   0  0  0  0  0  0  0  0  0  0  0  0
    4.4198    1.9717   -0.3782 C   0  0  0  0  0  0  0  0  0  0  0  0
    4.9542    0.7117   -0.6675 N   0  0  0  0  0  0  0  0  0  0  0  0
    5.3383    3.0824   -0.2569 N   0  0  0  0  0  0  0  0  0  0  0  0
    4.2569   -0.4708   -0.2264 C   0  0  0  0  0  0  0  0  0  0  0  0
    6.1995    0.4915   -1.3710 C   0  0  0  0  0  0  0  0  0  0  0  0
    6.7041    2.7389   -0.4564 C   0  0  0  0  0  0  0  0  0  0  0  0
    3.1988   -0.4473    0.6481 C   0  0  0  0  0  0  0  0  0  0  0  0
    4.6209   -1.7308   -0.7099 C   0  0  0  0  0  0  0  0  0  0  0  0
    7.1225    1.6782   -1.3881 C   0  0  0  0  0  0  0  0  0  0  0  0
    7.5772    3.3634    0.1841 O   0  0  0  0  0  0  0  0  0  0  0  0
    2.5064   -1.5966    1.0497 C   0  0  0  0  0  0  0  0  0  0  0  0
    3.9813   -2.8963   -0.3533 C   0  0  0  0  0  0  0  0  0  0  0  0
    2.9314   -2.7950    0.5253 C   0  0  0  0  0  0  0  0  0  0  0  0
    1.3666   -1.4999    2.0013 C   0  0  0  0  0  0  0  0  0  0  0  0
    0.1637   -1.3237    1.2933 N   0  0  0  0  0  0  0  0  0  0  0  0
   -1.0276   -1.2067    2.0135 C   0  0  2  0  0  0  0  0  0  0  0  0
    0.2123   -0.8819   -0.0329 C   0  0  0  0  0  0  0  0  0  0  0  0
   -2.0268   -2.1824    1.5390 C   0  0  0  0  0  0  0  0  0  0  0  0
   -1.6294    0.1709    2.0679 C   0  0  0  0  0  0  0  0  0  0  0  0
    0.0711    0.6075   -0.2214 C   0  0  0  0  0  0  0  0  0  0  0  0
   -3.1843   -2.2751    2.0340 O   0  0  0  0  0  0  0  0  0  0  0  0
   -1.7242   -3.0529    0.5088 O   0  0  0  0  0  0  0  0  0  0  0  0
   -2.1384    0.6540    0.8295 N   0  0  0  0  0  0  0  0  0  0  0  0
   -1.4064    0.9945   -0.3631 C   0  0  0  0  0  0  0  0  0  0  0  0
   -2.6198   -4.0132   -0.0028 C   0  0  0  0  0  0  0  0  0  0  0  0
   -3.5337    0.8276    0.7429 C   0  0  0  0  0  0  0  0  0  0  0  0
   -4.3279    0.5816    1.6884 O   0  0  0  0  0  0  0  0  0  0  0  0
   -4.0903    1.2927   -0.4338 O   0  0  0  0  0  0  0  0  0  0  0  0
   -5.4615    1.5018   -0.6321 C   0  0  0  0  0  0  0  0  0  0  0  0
   -6.1861    0.1939   -0.4392 C   0  0  0  0  0  0  0  0  0  0  0  0
   -5.6456    2.0223   -2.0460 C   0  0  0  0  0  0  0  0  0  0  0  0
   -5.9845    2.5628    0.3383 C   0  0  0  0  0  0  0  0  0  0  0  0
    5.0248    4.0417   -0.0431 H   0  0  0  0  0  0  0  0  0  0  0  0
    6.7086   -0.3763   -0.8584 H   0  0  0  0  0  0  0  0  0  0  0  0
    6.0017    0.1734   -2.4036 H   0  0  0  0  0  0  0  0  0  0  0  0
    2.8457    0.4788    1.0910 H   0  0  0  0  0  0  0  0  0  0  0  0
    5.4524   -1.7862   -1.4133 H   0  0  0  0  0  0  0  0  0  0  0  0
    8.1334    1.3369   -1.0930 H   0  0  0  0  0  0  0  0  0  0  0  0
    7.2370    2.0670   -2.4409 H   0  0  0  0  0  0  0  0  0  0  0  0
    4.2780   -3.8574   -0.7374 H   0  0  0  0  0  0  0  0  0  0  0  0
    2.3758   -3.6878    0.8521 H   0  0  0  0  0  0  0  0  0  0  0  0
    1.2902   -2.4287    2.6198 H   0  0  0  0  0  0  0  0  0  0  0  0
    1.5797   -0.6684    2.6980 H   0  0  0  0  0  0  0  0  0  0  0  0
   -0.8164   -1.4852    3.0888 H   0  0  0  0  0  0  0  0  0  0  0  0
   -0.5977   -1.3543   -0.6317 H   0  0  0  0  0  0  0  0  0  0  0  0
    1.1610   -1.2056   -0.5086 H   0  0  0  0  0  0  0  0  0  0  0  0
   -2.4394    0.1261    2.8531 H   0  0  0  0  0  0  0  0  0  0  0  0
   -0.8884    0.8953    2.4789 H   0  0  0  0  0  0  0  0  0  0  0  0
    0.5656    1.2065    0.5478 H   0  0  0  0  0  0  0  0  0  0  0  0
    0.5346    0.8654   -1.1979 H   0  0  0  0  0  0  0  0  0  0  0  0
   -1.8464    0.5763   -1.2677 H   0  0  0  0  0  0  0  0  0  0  0  0
   -1.4011    2.1069   -0.4522 H   0  0  0  0  0  0  0  0  0  0  0  0
   -2.6966   -3.8258   -1.1054 H   0  0  0  0  0  0  0  0  0  0  0  0
   -2.2143   -5.0426    0.1023 H   0  0  0  0  0  0  0  0  0  0  0  0
   -3.6222   -3.9432    0.4306 H   0  0  0  0  0  0  0  0  0  0  0  0
   -6.4964   -0.1690   -1.4590 H   0  0  0  0  0  0  0  0  0  0  0  0
   -7.0840    0.3861    0.1843 H   0  0  0  0  0  0  0  0  0  0  0  0
   -5.5010   -0.5386    0.0100 H   0  0  0  0  0  0  0  0  0  0  0  0
   -6.2757    1.2797   -2.6092 H   0  0  0  0  0  0  0  0  0  0  0  0
   -4.6768    2.1289   -2.5827 H   0  0  0  0  0  0  0  0  0  0  0  0
   -6.1156    3.0249   -2.0337 H   0  0  0  0  0  0  0  0  0  0  0  0
   -6.9489    2.9212   -0.0595 H   0  0  0  0  0  0  0  0  0  0  0  0
   -5.2632    3.3818    0.4481 H   0  0  0  0  0  0  0  0  0  0  0  0
   -6.1307    2.0826    1.3427 H   0  0  0  0  0  0  0  0  0  0  0  0
  1  2  2  0
  2  3  1  0
  2  4  1  0
  3  5  1  0
  3  6  1  0
  4  7  1  0
  5  8  2  0
  5  9  1  0
  6 10  1  0
  7 11  2  0
  7 10  1  0
  8 12  1  0
  9 13  2  0
 12 14  2  0
 12 15  1  0
 13 14  1  0
 15 16  1  0
 16 17  1  0
 16 18  1  0
 17 19  1  0
 17 20  1  0
 18 21  1  0
 19 22  2  0
 19 23  1  0
 20 24  1  0
 21 25  1  0
 23 26  1  0
 24 27  1  0
 24 25  1  0
 27 28  2  0
 27 29  1  0
 29 30  1  0
 30 31  1  0
 30 32  1  0
 30 33  1  0
  4 34  1  0
  6 35  1  0
  6 36  1  0
  8 37  1  0
  9 38  1  0
 10 39  1  0
 10 40  1  0
 13 41  1  0
 14 42  1  0
 15 43  1  0
 15 44  1  0
 17 45  1  1
 18 46  1  0
 18 47  1  0
 20 48  1  0
 20 49  1  0
 21 50  1  0
 21 51  1  0
 25 52  1  0
 25 53  1  0
 26 54  1  0
 26 55  1  0
 26 56  1  0
 31 57  1  0
 31 58  1  0
 31 59  1  0
 32 60  1  0
 32 61  1  0
 32 62  1  0
 33 63  1  0
 33 64  1  0
 33 65  1  0
M  END
>  <Molecule Name>  (1) 
Compound 1

>  <EC50 (µM) (Excel)>  (1) 
49.5

>  <Error (µM)>  (1) 
6.2

>  <HTRC CRBN-DDB1 EC50 (µM)>  (1) 
49.46 ±  6.19

>  <EC50 fitting (µM)>  (1) 
60.01

>  <Modèle Fitting>  (1) 
3PL

>  <Parent_Compound>  (1) 
Compound 1

>  <MMFF94s_energy_kcalmol>  (1) 
189.703

$$$$
Compound_1_ent2
     RDKit          3D

 65 67  0  0  0  0  0  0  0  0999 V2000
    4.0810    2.0976    0.2297 O   0  0  0  0  0  0  0  0  0  0  0  0
    4.9606    1.4639   -0.3660 C   0  0  0  0  0  0  0  0  0  0  0  0
    4.7449    0.3058   -1.1464 N   0  0  0  0  0  0  0  0  0  0  0  0
    6.3148    1.9552   -0.2537 N   0  0  0  0  0  0  0  0  0  0  0  0
    3.6937   -0.5798   -0.7800 C   0  0  0  0  0  0  0  0  0  0  0  0
    5.5710   -0.0275   -2.2889 C   0  0  0  0  0  0  0  0  0  0  0  0
    7.2919    1.2045   -0.9557 C   0  0  0  0  0  0  0  0  0  0  0  0
    2.9739   -0.5042    0.3845 C   0  0  0  0  0  0  0  0  0  0  0  0
    3.3440   -1.5913   -1.6815 C   0  0  0  0  0  0  0  0  0  0  0  0
    6.9361    0.6192   -2.2603 C   0  0  0  0  0  0  0  0  0  0  0  0
    8.4329    1.0459   -0.4727 O   0  0  0  0  0  0  0  0  0  0  0  0
    1.9211   -1.3721    0.7196 C   0  0  0  0  0  0  0  0  0  0  0  0
    2.3246   -2.4502   -1.3821 C   0  0  0  0  0  0  0  0  0  0  0  0
    1.6176   -2.3344   -0.1787 C   0  0  0  0  0  0  0  0  0  0  0  0
    1.2090   -1.2404    2.0004 C   0  0  0  0  0  0  0  0  0  0  0  0
    0.1204   -0.2984    1.9379 N   0  0  0  0  0  0  0  0  0  0  0  0
   -1.0019   -0.6064    1.1766 C   0  0  1  0  0  0  0  0  0  0  0  0
    0.6227    1.0442    1.8374 C   0  0  0  0  0  0  0  0  0  0  0  0
   -1.4598   -2.0174    1.1368 C   0  0  0  0  0  0  0  0  0  0  0  0
   -2.1979    0.2376    1.7087 C   0  0  0  0  0  0  0  0  0  0  0  0
   -0.2199    2.1768    2.2138 C   0  0  0  0  0  0  0  0  0  0  0  0
   -2.3668   -2.3516    0.2896 O   0  0  0  0  0  0  0  0  0  0  0  0
   -1.0180   -3.0478    1.9266 O   0  0  0  0  0  0  0  0  0  0  0  0
   -2.2029    1.4929    1.0115 N   0  0  0  0  0  0  0  0  0  0  0  0
   -1.2247    2.5876    1.1452 C   0  0  0  0  0  0  0  0  0  0  0  0
   -1.5188   -4.3646    1.8152 C   0  0  0  0  0  0  0  0  0  0  0  0
   -3.2607    1.6998    0.1156 C   0  0  0  0  0  0  0  0  0  0  0  0
   -3.3934    2.7474   -0.5747 O   0  0  0  0  0  0  0  0  0  0  0  0
   -4.2225    0.7275   -0.0417 O   0  0  0  0  0  0  0  0  0  0  0  0
   -5.3331    0.7579   -0.8775 C   0  0  0  0  0  0  0  0  0  0  0  0
   -6.0995   -0.5574   -0.6784 C   0  0  0  0  0  0  0  0  0  0  0  0
   -4.9778    0.9049   -2.3598 C   0  0  0  0  0  0  0  0  0  0  0  0
   -6.2539    1.8677   -0.4281 C   0  0  0  0  0  0  0  0  0  0  0  0
    6.5708    2.7904    0.2974 H   0  0  0  0  0  0  0  0  0  0  0  0
    5.7372   -1.1416   -2.3308 H   0  0  0  0  0  0  0  0  0  0  0  0
    5.0973    0.2235   -3.2614 H   0  0  0  0  0  0  0  0  0  0  0  0
    3.2168    0.2442    1.1103 H   0  0  0  0  0  0  0  0  0  0  0  0
    3.8666   -1.7154   -2.6373 H   0  0  0  0  0  0  0  0  0  0  0  0
    7.7249   -0.1299   -2.5205 H   0  0  0  0  0  0  0  0  0  0  0  0
    7.0276    1.3905   -3.0792 H   0  0  0  0  0  0  0  0  0  0  0  0
    2.0629   -3.2327   -2.0953 H   0  0  0  0  0  0  0  0  0  0  0  0
    0.8501   -3.0604   -0.0356 H   0  0  0  0  0  0  0  0  0  0  0  0
    0.9226   -2.1560    2.4887 H   0  0  0  0  0  0  0  0  0  0  0  0
    1.9701   -0.7700    2.7186 H   0  0  0  0  0  0  0  0  0  0  0  0
   -0.8670   -0.2652    0.1328 H   0  0  0  0  0  0  0  0  0  0  0  0
    1.0455    1.2022    0.8294 H   0  0  0  0  0  0  0  0  0  0  0  0
    1.5141    1.0531    2.5398 H   0  0  0  0  0  0  0  0  0  0  0  0
   -3.1384   -0.3360    1.5368 H   0  0  0  0  0  0  0  0  0  0  0  0
   -2.0723    0.4195    2.8017 H   0  0  0  0  0  0  0  0  0  0  0  0
   -0.8346    2.0245    3.1355 H   0  0  0  0  0  0  0  0  0  0  0  0
    0.4020    3.0708    2.4122 H   0  0  0  0  0  0  0  0  0  0  0  0
   -0.7604    2.8574    0.1867 H   0  0  0  0  0  0  0  0  0  0  0  0
   -1.7524    3.4767    1.5324 H   0  0  0  0  0  0  0  0  0  0  0  0
   -2.1454   -4.4277    0.8822 H   0  0  0  0  0  0  0  0  0  0  0  0
   -0.7226   -5.1216    1.7160 H   0  0  0  0  0  0  0  0  0  0  0  0
   -2.1676   -4.6588    2.6455 H   0  0  0  0  0  0  0  0  0  0  0  0
   -5.6901   -1.3506   -1.3463 H   0  0  0  0  0  0  0  0  0  0  0  0
   -7.1891   -0.3997   -0.8482 H   0  0  0  0  0  0  0  0  0  0  0  0
   -5.8947   -0.8809    0.3598 H   0  0  0  0  0  0  0  0  0  0  0  0
   -5.7824    0.3477   -2.9085 H   0  0  0  0  0  0  0  0  0  0  0  0
   -3.9820    0.4893   -2.5379 H   0  0  0  0  0  0  0  0  0  0  0  0
   -5.0009    1.9733   -2.6175 H   0  0  0  0  0  0  0  0  0  0  0  0
   -7.2886    1.7588   -0.8031 H   0  0  0  0  0  0  0  0  0  0  0  0
   -5.8778    2.8582   -0.7936 H   0  0  0  0  0  0  0  0  0  0  0  0
   -6.2508    1.8735    0.6859 H   0  0  0  0  0  0  0  0  0  0  0  0
  1  2  2  0
  2  3  1  0
  2  4  1  0
  3  5  1  0
  3  6  1  0
  4  7  1  0
  5  8  2  0
  5  9  1  0
  6 10  1  0
  7 11  2  0
  7 10  1  0
  8 12  1  0
  9 13  2  0
 12 14  2  0
 12 15  1  0
 13 14  1  0
 15 16  1  0
 16 17  1  0
 16 18  1  0
 17 19  1  0
 17 20  1  0
 18 21  1  0
 19 22  2  0
 19 23  1  0
 20 24  1  0
 21 25  1  0
 23 26  1  0
 24 27  1  0
 24 25  1  0
 27 28  2  0
 27 29  1  0
 29 30  1  0
 30 31  1  0
 30 32  1  0
 30 33  1  0
  4 34  1  0
  6 35  1  0
  6 36  1  0
  8 37  1  0
  9 38  1  0
 10 39  1  0
 10 40  1  0
 13 41  1  0
 14 42  1  0
 15 43  1  0
 15 44  1  0
 17 45  1  6
 18 46  1  0
 18 47  1  0
 20 48  1  0
 20 49  1  0
 21 50  1  0
 21 51  1  0
 25 52  1  0
 25 53  1  0
 26 54  1  0
 26 55  1  0
 26 56  1  0
 31 57  1  0
 31 58  1  0
 31 59  1  0
 32 60  1  0
 32 61  1  0
 32 62  1  0
 33 63  1  0
 33 64  1  0
 33 65  1  0
M  END
>  <Molecule Name>  (2) 
Compound 1

>  <EC50 (µM) (Excel)>  (2) 
49.5

>  <Error (µM)>  (2) 
6.2

>  <HTRC CRBN-DDB1 EC50 (µM)>  (2) 
49.46 ±  6.19

>  <EC50 fitting (µM)>  (2) 
60.01

>  <Modèle Fitting>  (2) 
3PL

>  <Parent_Compound>  (2) 
Compound 1

>  <MMFF94s_energy_kcalmol>  (2) 
176.500

$$$$
Compound_4_s1
     RDKit          3D

 51 54  0  0  0  0  0  0  0  0999 V2000
   -3.2183   -0.8566    2.9815 O   0  0  0  0  0  0  0  0  0  0  0  0
   -4.2288   -0.5280    2.3030 C   0  0  0  0  0  0  0  0  0  0  0  0
   -4.1290   -0.3583    0.9042 N   0  0  0  0  0  0  0  0  0  0  0  0
   -5.4864   -0.3222    2.9330 N   0  0  0  0  0  0  0  0  0  0  0  0
   -2.8737    0.0484    0.3266 C   0  0  0  0  0  0  0  0  0  0  0  0
   -5.2952   -0.5985    0.0842 C   0  0  0  0  0  0  0  0  0  0  0  0
   -6.5890    0.0480    2.1079 C   0  0  0  0  0  0  0  0  0  0  0  0
   -1.9552   -0.9063   -0.0660 C   0  0  0  0  0  0  0  0  0  0  0  0
   -2.6153    1.3856    0.1776 C   0  0  0  0  0  0  0  0  0  0  0  0
   -6.4525    0.1763    0.6415 C   0  0  0  0  0  0  0  0  0  0  0  0
   -7.6852    0.2652    2.6484 O   0  0  0  0  0  0  0  0  0  0  0  0
   -0.7596   -0.5674   -0.6149 C   0  0  0  0  0  0  0  0  0  0  0  0
   -1.3933    1.7353   -0.3835 C   0  0  0  0  0  0  0  0  0  0  0  0
   -0.4808    0.7820   -0.7733 C   0  0  0  0  0  0  0  0  0  0  0  0
    0.4405   -1.2846   -1.1422 C   0  0  2  0  0  0  0  0  0  0  0  0
    0.8616    0.8682   -1.3806 C   0  0  1  0  0  0  0  0  0  0  0  0
    1.4719   -0.3207   -0.7997 N   0  0  0  0  0  0  0  0  0  0  0  0
    0.4018   -1.0894   -2.6403 C   0  0  1  0  0  0  0  0  0  0  0  0
    0.7137    0.3981   -2.8123 C   0  0  2  0  0  0  0  0  0  0  0  0
    2.6915   -0.4176   -0.1288 C   0  0  0  0  0  0  0  0  0  0  0  0
    1.4016   -1.8833   -3.1904 O   0  0  0  0  0  0  0  0  0  0  0  0
    1.9551    0.5292   -3.4209 O   0  0  0  0  0  0  0  0  0  0  0  0
    3.1669   -1.4733    0.3516 O   0  0  0  0  0  0  0  0  0  0  0  0
    3.4575    0.7306    0.0327 O   0  0  0  0  0  0  0  0  0  0  0  0
    4.6936    0.7641    0.6843 C   0  0  0  0  0  0  0  0  0  0  0  0
    4.6160    0.3195    2.1288 C   0  0  0  0  0  0  0  0  0  0  0  0
    5.7586   -0.0401   -0.0159 C   0  0  0  0  0  0  0  0  0  0  0  0
    5.1659    2.2229    0.6654 C   0  0  0  0  0  0  0  0  0  0  0  0
   -5.5868   -0.4413    3.9661 H   0  0  0  0  0  0  0  0  0  0  0  0
   -5.5642   -1.6755    0.1129 H   0  0  0  0  0  0  0  0  0  0  0  0
   -5.1173   -0.2295   -0.9477 H   0  0  0  0  0  0  0  0  0  0  0  0
   -2.1811   -1.9614    0.0615 H   0  0  0  0  0  0  0  0  0  0  0  0
   -3.3622    2.0920    0.4985 H   0  0  0  0  0  0  0  0  0  0  0  0
   -7.3964   -0.2096    0.1884 H   0  0  0  0  0  0  0  0  0  0  0  0
   -6.2968    1.2580    0.3645 H   0  0  0  0  0  0  0  0  0  0  0  0
   -1.2061    2.7974   -0.4936 H   0  0  0  0  0  0  0  0  0  0  0  0
    0.5829   -2.2779   -0.7905 H   0  0  0  0  0  0  0  0  0  0  0  0
    1.3996    1.7792   -1.2390 H   0  0  0  0  0  0  0  0  0  0  0  0
   -0.5987   -1.3195   -3.0703 H   0  0  0  0  0  0  0  0  0  0  0  0
   -0.0853    0.9205   -3.3473 H   0  0  0  0  0  0  0  0  0  0  0  0
    1.4124   -2.7345   -2.6885 H   0  0  0  0  0  0  0  0  0  0  0  0
    2.5512   -0.2335   -3.2180 H   0  0  0  0  0  0  0  0  0  0  0  0
    5.3619    0.9147    2.6961 H   0  0  0  0  0  0  0  0  0  0  0  0
    3.6229    0.5193    2.5799 H   0  0  0  0  0  0  0  0  0  0  0  0
    4.8938   -0.7410    2.2669 H   0  0  0  0  0  0  0  0  0  0  0  0
    6.6952    0.0852    0.5949 H   0  0  0  0  0  0  0  0  0  0  0  0
    5.9763    0.4563   -0.9817 H   0  0  0  0  0  0  0  0  0  0  0  0
    5.5422   -1.1060   -0.0901 H   0  0  0  0  0  0  0  0  0  0  0  0
    6.2567    2.2886    0.7808 H   0  0  0  0  0  0  0  0  0  0  0  0
    4.8522    2.6359   -0.3153 H   0  0  0  0  0  0  0  0  0  0  0  0
    4.6136    2.7684    1.4695 H   0  0  0  0  0  0  0  0  0  0  0  0
  1  2  2  0
  2  3  1  0
  2  4  1  0
  3  5  1  0
  3  6  1  0
  4  7  1  0
  5  8  2  0
  5  9  1  0
  6 10  1  0
  7 11  2  0
  7 10  1  0
  8 12  1  0
  9 13  2  0
 12 14  2  0
 13 14  1  0
 15 12  1  0
 15 17  1  0
 15 18  1  0
 16 14  1  0
 16 19  1  0
 16 17  1  0
 17 20  1  0
 18 21  1  0
 18 19  1  0
 19 22  1  0
 20 23  2  0
 20 24  1  0
 24 25  1  0
 25 26  1  0
 25 27  1  0
 25 28  1  0
  4 29  1  0
  6 30  1  0
  6 31  1  0
  8 32  1  0
  9 33  1  0
 10 34  1  0
 10 35  1  0
 13 36  1  0
 15 37  1  6
 16 38  1  6
 18 39  1  6
 19 40  1  6
 21 41  1  0
 22 42  1  0
 26 43  1  0
 26 44  1  0
 26 45  1  0
 27 46  1  0
 27 47  1  0
 27 48  1  0
 28 49  1  0
 28 50  1  0
 28 51  1  0
M  END
>  <Molecule Name>  (3) 
Compound 4

>  <EC50 (µM) (Excel)>  (3) 
11.8

>  <Error (µM)>  (3) 
7.4

>  <HTRC CRBN-DDB1 EC50 (µM)>  (3) 
11.78 ±  7.41

>  <EC50 fitting (µM)>  (3) 
15.10

>  <Modèle Fitting>  (3) 
4PL

>  <Parent_Compound>  (3) 
Compound 4

>  <MMFF94s_energy_kcalmol>  (3) 
171.662

$$$$
Compound_4_s4
     RDKit          3D

 51 54  0  0  0  0  0  0  0  0999 V2000
   -4.7905    2.0819   -0.4215 O   0  0  0  0  0  0  0  0  0  0  0  0
   -5.0912    0.8972   -0.1171 C   0  0  0  0  0  0  0  0  0  0  0  0
   -4.1330   -0.1449   -0.0587 N   0  0  0  0  0  0  0  0  0  0  0  0
   -6.4757    0.6492    0.1727 N   0  0  0  0  0  0  0  0  0  0  0  0
   -2.7973    0.1477   -0.4345 C   0  0  0  0  0  0  0  0  0  0  0  0
   -4.5214   -1.4486    0.3699 C   0  0  0  0  0  0  0  0  0  0  0  0
   -6.8219   -0.6905    0.5179 C   0  0  0  0  0  0  0  0  0  0  0  0
   -1.8496    0.5903    0.4722 C   0  0  0  0  0  0  0  0  0  0  0  0
   -2.3540    0.0077   -1.7433 C   0  0  0  0  0  0  0  0  0  0  0  0
   -5.9616   -1.7746   -0.0161 C   0  0  0  0  0  0  0  0  0  0  0  0
   -7.8341   -0.9180    1.2564 O   0  0  0  0  0  0  0  0  0  0  0  0
   -0.5480    0.8799    0.1281 C   0  0  0  0  0  0  0  0  0  0  0  0
   -1.0621    0.2843   -2.1392 C   0  0  0  0  0  0  0  0  0  0  0  0
   -0.1632    0.7215   -1.1929 C   0  0  0  0  0  0  0  0  0  0  0  0
    0.6691    1.3599    0.8692 C   0  0  1  0  0  0  0  0  0  0  0  0
    1.2745    1.1127   -1.2367 C   0  0  2  0  0  0  0  0  0  0  0  0
    1.6798    0.6883    0.0860 N   0  0  0  0  0  0  0  0  0  0  0  0
    0.9159    2.7905    0.4461 C   0  0  1  0  0  0  0  0  0  0  0  0
    1.2907    2.6154   -1.0265 C   0  0  2  0  0  0  0  0  0  0  0  0
    2.7568   -0.1384    0.4255 C   0  0  0  0  0  0  0  0  0  0  0  0
   -0.2108    3.5912    0.5804 O   0  0  0  0  0  0  0  0  0  0  0  0
    0.3263    3.2538   -1.7803 O   0  0  0  0  0  0  0  0  0  0  0  0
    3.0352   -0.4575    1.6250 O   0  0  0  0  0  0  0  0  0  0  0  0
    3.6239   -0.6878   -0.5283 O   0  0  0  0  0  0  0  0  0  0  0  0
    4.7020   -1.5124   -0.2181 C   0  0  0  0  0  0  0  0  0  0  0  0
    4.3224   -2.7746    0.4934 C   0  0  0  0  0  0  0  0  0  0  0  0
    5.7636   -0.7299    0.5146 C   0  0  0  0  0  0  0  0  0  0  0  0
    5.3286   -1.9367   -1.5544 C   0  0  0  0  0  0  0  0  0  0  0  0
   -7.2043    1.3927    0.1388 H   0  0  0  0  0  0  0  0  0  0  0  0
   -3.8950   -2.2697   -0.0603 H   0  0  0  0  0  0  0  0  0  0  0  0
   -4.4992   -1.4911    1.4882 H   0  0  0  0  0  0  0  0  0  0  0  0
   -2.1655    0.7105    1.5070 H   0  0  0  0  0  0  0  0  0  0  0  0
   -3.0700   -0.3350   -2.4692 H   0  0  0  0  0  0  0  0  0  0  0  0
   -6.2103   -2.7431    0.4402 H   0  0  0  0  0  0  0  0  0  0  0  0
   -6.0820   -1.8317   -1.1141 H   0  0  0  0  0  0  0  0  0  0  0  0
   -0.7423    0.1660   -3.1698 H   0  0  0  0  0  0  0  0  0  0  0  0
    0.6638    1.1675    1.9178 H   0  0  0  0  0  0  0  0  0  0  0  0
    1.8412    0.7429   -2.0586 H   0  0  0  0  0  0  0  0  0  0  0  0
    1.7896    3.1654    1.0168 H   0  0  0  0  0  0  0  0  0  0  0  0
    2.2765    3.0610   -1.1965 H   0  0  0  0  0  0  0  0  0  0  0  0
   -0.3727    3.6907    1.5485 H   0  0  0  0  0  0  0  0  0  0  0  0
   -0.5345    3.2004   -1.2938 H   0  0  0  0  0  0  0  0  0  0  0  0
    4.3248   -2.6730    1.5988 H   0  0  0  0  0  0  0  0  0  0  0  0
    3.3591   -3.1452    0.0973 H   0  0  0  0  0  0  0  0  0  0  0  0
    5.0790   -3.5491    0.2478 H   0  0  0  0  0  0  0  0  0  0  0  0
    6.1555    0.0658   -0.1474 H   0  0  0  0  0  0  0  0  0  0  0  0
    5.3515   -0.2519    1.4028 H   0  0  0  0  0  0  0  0  0  0  0  0
    6.6418   -1.3782    0.7563 H   0  0  0  0  0  0  0  0  0  0  0  0
    4.5714   -2.6415   -2.0063 H   0  0  0  0  0  0  0  0  0  0  0  0
    6.2823   -2.4442   -1.3994 H   0  0  0  0  0  0  0  0  0  0  0  0
    5.3649   -1.0669   -2.2256 H   0  0  0  0  0  0  0  0  0  0  0  0
  1  2  2  0
  2  3  1  0
  2  4  1  0
  3  5  1  0
  3  6  1  0
  4  7  1  0
  5  8  2  0
  5  9  1  0
  6 10  1  0
  7 11  2  0
  7 10  1  0
  8 12  1  0
  9 13  2  0
 12 14  2  0
 13 14  1  0
 15 12  1  0
 15 17  1  0
 15 18  1  0
 16 14  1  0
 16 19  1  0
 16 17  1  0
 17 20  1  0
 18 21  1  0
 18 19  1  0
 19 22  1  0
 20 23  2  0
 20 24  1  0
 24 25  1  0
 25 26  1  0
 25 27  1  0
 25 28  1  0
  4 29  1  0
  6 30  1  0
  6 31  1  0
  8 32  1  0
  9 33  1  0
 10 34  1  0
 10 35  1  0
 13 36  1  0
 15 37  1  1
 16 38  1  6
 18 39  1  1
 19 40  1  1
 21 41  1  0
 22 42  1  0
 26 43  1  0
 26 44  1  0
 26 45  1  0
 27 46  1  0
 27 47  1  0
 27 48  1  0
 28 49  1  0
 28 50  1  0
 28 51  1  0
M  END
>  <Molecule Name>  (4) 
Compound 4

>  <EC50 (µM) (Excel)>  (4) 
11.8

>  <Error (µM)>  (4) 
7.4

>  <HTRC CRBN-DDB1 EC50 (µM)>  (4) 
11.78 ±  7.41

>  <EC50 fitting (µM)>  (4) 
15.10

>  <Modèle Fitting>  (4) 
4PL

>  <Parent_Compound>  (4) 
Compound 4

>  <MMFF94s_energy_kcalmol>  (4) 
179.945

$$$$
Compound_4_s5
     RDKit          3D

 51 54  0  0  0  0  0  0  0  0999 V2000
   -3.1866   -0.4783    3.0043 O   0  0  0  0  0  0  0  0  0  0  0  0
   -4.1901   -0.2773    2.2654 C   0  0  0  0  0  0  0  0  0  0  0  0
   -4.0604   -0.2504    0.8500 N   0  0  0  0  0  0  0  0  0  0  0  0
   -5.4877   -0.0704    2.8279 N   0  0  0  0  0  0  0  0  0  0  0  0
   -2.8116    0.1048    0.2640 C   0  0  0  0  0  0  0  0  0  0  0  0
   -5.2156   -0.5890    0.0484 C   0  0  0  0  0  0  0  0  0  0  0  0
   -6.5851    0.1519    1.9498 C   0  0  0  0  0  0  0  0  0  0  0  0
   -1.8821   -0.8752   -0.0084 C   0  0  0  0  0  0  0  0  0  0  0  0
   -2.5571    1.4360   -0.0211 C   0  0  0  0  0  0  0  0  0  0  0  0
   -6.4176    0.2133    0.4831 C   0  0  0  0  0  0  0  0  0  0  0  0
   -7.7565    0.3053    2.4212 O   0  0  0  0  0  0  0  0  0  0  0  0
   -0.6786   -0.5682   -0.5685 C   0  0  0  0  0  0  0  0  0  0  0  0
   -1.3224    1.7378   -0.5939 C   0  0  0  0  0  0  0  0  0  0  0  0
   -0.4050    0.7543   -0.8606 C   0  0  0  0  0  0  0  0  0  0  0  0
    0.5281   -1.3401   -0.9906 C   0  0  2  0  0  0  0  0  0  0  0  0
    0.9605    0.7733   -1.4498 C   0  0  1  0  0  0  0  0  0  0  0  0
    1.5394   -0.3467   -0.7440 N   0  0  0  0  0  0  0  0  0  0  0  0
    0.5044   -1.3121   -2.5069 C   0  0  2  0  0  0  0  0  0  0  0  0
    0.8234    0.1506   -2.8236 C   0  0  2  0  0  0  0  0  0  0  0  0
    2.7404   -0.3822   -0.0448 C   0  0  0  0  0  0  0  0  0  0  0  0
   -0.7623   -1.6439   -2.9486 O   0  0  0  0  0  0  0  0  0  0  0  0
    2.0319    0.2291   -3.4734 O   0  0  0  0  0  0  0  0  0  0  0  0
    3.1413   -1.4455    0.5403 O   0  0  0  0  0  0  0  0  0  0  0  0
    3.6044    0.7006    0.0875 O   0  0  0  0  0  0  0  0  0  0  0  0
    4.8079    0.6676    0.7874 C   0  0  0  0  0  0  0  0  0  0  0  0
    4.6443    0.3233    2.2465 C   0  0  0  0  0  0  0  0  0  0  0  0
    5.8513   -0.2267    0.1693 C   0  0  0  0  0  0  0  0  0  0  0  0
    5.3831    2.0905    0.7538 C   0  0  0  0  0  0  0  0  0  0  0  0
   -5.6247   -0.0824    3.8552 H   0  0  0  0  0  0  0  0  0  0  0  0
   -5.4739   -1.6643    0.2110 H   0  0  0  0  0  0  0  0  0  0  0  0
   -5.0294   -0.4182   -1.0299 H   0  0  0  0  0  0  0  0  0  0  0  0
   -2.0722   -1.9313    0.2128 H   0  0  0  0  0  0  0  0  0  0  0  0
   -3.2983    2.1819    0.2007 H   0  0  0  0  0  0  0  0  0  0  0  0
   -7.3223   -0.2106   -0.0376 H   0  0  0  0  0  0  0  0  0  0  0  0
   -6.2860    1.2941    0.1863 H   0  0  0  0  0  0  0  0  0  0  0  0
   -1.1470    2.7870   -0.8078 H   0  0  0  0  0  0  0  0  0  0  0  0
    0.6542   -2.2955   -0.5376 H   0  0  0  0  0  0  0  0  0  0  0  0
    1.4860    1.7002   -1.3996 H   0  0  0  0  0  0  0  0  0  0  0  0
    1.2855   -1.9942   -2.8577 H   0  0  0  0  0  0  0  0  0  0  0  0
    0.0051    0.6027   -3.4154 H   0  0  0  0  0  0  0  0  0  0  0  0
   -1.2795   -2.1601   -2.2669 H   0  0  0  0  0  0  0  0  0  0  0  0
    2.0193    0.9507   -4.1429 H   0  0  0  0  0  0  0  0  0  0  0  0
    5.6588    0.4585    2.7158 H   0  0  0  0  0  0  0  0  0  0  0  0
    3.9759    1.0390    2.7349 H   0  0  0  0  0  0  0  0  0  0  0  0
    4.3711   -0.7326    2.4202 H   0  0  0  0  0  0  0  0  0  0  0  0
    6.8802    0.2066    0.2886 H   0  0  0  0  0  0  0  0  0  0  0  0
    5.7091   -0.3706   -0.9118 H   0  0  0  0  0  0  0  0  0  0  0  0
    5.8845   -1.2230    0.6552 H   0  0  0  0  0  0  0  0  0  0  0  0
    6.4486    2.0819    0.9858 H   0  0  0  0  0  0  0  0  0  0  0  0
    5.1258    2.5033   -0.2374 H   0  0  0  0  0  0  0  0  0  0  0  0
    4.7877    2.6573    1.5134 H   0  0  0  0  0  0  0  0  0  0  0  0
  1  2  2  0
  2  3  1  0
  2  4  1  0
  3  5  1  0
  3  6  1  0
  4  7  1  0
  5  8  2  0
  5  9  1  0
  6 10  1  0
  7 11  2  0
  7 10  1  0
  8 12  1  0
  9 13  2  0
 12 14  2  0
 13 14  1  0
 15 12  1  0
 15 17  1  0
 15 18  1  0
 16 14  1  0
 16 19  1  0
 16 17  1  0
 17 20  1  0
 18 21  1  0
 18 19  1  0
 19 22  1  0
 20 23  2  0
 20 24  1  0
 24 25  1  0
 25 26  1  0
 25 27  1  0
 25 28  1  0
  4 29  1  0
  6 30  1  0
  6 31  1  0
  8 32  1  0
  9 33  1  0
 10 34  1  0
 10 35  1  0
 13 36  1  0
 15 37  1  6
 16 38  1  6
 18 39  1  6
 19 40  1  6
 21 41  1  0
 22 42  1  0
 26 43  1  0
 26 44  1  0
 26 45  1  0
 27 46  1  0
 27 47  1  0
 27 48  1  0
 28 49  1  0
 28 50  1  0
 28 51  1  0
M  END
>  <Molecule Name>  (5) 
Compound 4

>  <EC50 (µM) (Excel)>  (5) 
11.8

>  <Error (µM)>  (5) 
7.4

>  <HTRC CRBN-DDB1 EC50 (µM)>  (5) 
11.78 ±  7.41

>  <EC50 fitting (µM)>  (5) 
15.10

>  <Modèle Fitting>  (5) 
4PL

>  <Parent_Compound>  (5) 
Compound 4

>  <MMFF94s_energy_kcalmol>  (5) 
163.563

$$$$
Compound_4_s8
     RDKit          3D

 51 54  0  0  0  0  0  0  0  0999 V2000
   -3.2238    1.9635    2.2676 O   0  0  0  0  0  0  0  0  0  0  0  0
   -4.1752    1.2868    1.8434 C   0  0  0  0  0  0  0  0  0  0  0  0
   -3.9664    0.0422    1.1867 N   0  0  0  0  0  0  0  0  0  0  0  0
   -5.5307    1.7381    2.0034 N   0  0  0  0  0  0  0  0  0  0  0  0
   -2.8021   -0.2311    0.4252 C   0  0  0  0  0  0  0  0  0  0  0  0
   -5.0525   -0.9062    1.3280 C   0  0  0  0  0  0  0  0  0  0  0  0
   -6.6063    0.9493    1.5147 C   0  0  0  0  0  0  0  0  0  0  0  0
   -1.8763    0.7588    0.1340 C   0  0  0  0  0  0  0  0  0  0  0  0
   -2.4967   -1.4874   -0.0563 C   0  0  0  0  0  0  0  0  0  0  0  0
   -6.3030   -0.2612    0.7252 C   0  0  0  0  0  0  0  0  0  0  0  0
   -7.7703    1.3325    1.7862 O   0  0  0  0  0  0  0  0  0  0  0  0
   -0.7118    0.5317   -0.5898 C   0  0  0  0  0  0  0  0  0  0  0  0
   -1.3363   -1.7436   -0.7852 C   0  0  0  0  0  0  0  0  0  0  0  0
   -0.4428   -0.7413   -1.0542 C   0  0  0  0  0  0  0  0  0  0  0  0
    0.4259    1.3732   -1.0390 C   0  0  1  0  0  0  0  0  0  0  0  0
    0.8609   -0.6582   -1.7814 C   0  0  2  0  0  0  0  0  0  0  0  0
    1.4918    0.3846   -0.9734 N   0  0  0  0  0  0  0  0  0  0  0  0
    0.2848    1.4950   -2.5388 C   0  0  2  0  0  0  0  0  0  0  0  0
    0.6423    0.1077   -3.0656 C   0  0  2  0  0  0  0  0  0  0  0  0
    2.7491    0.4150   -0.3308 C   0  0  0  0  0  0  0  0  0  0  0  0
    1.1119    2.4699   -3.0696 O   0  0  0  0  0  0  0  0  0  0  0  0
   -0.3576   -0.4235   -3.8506 O   0  0  0  0  0  0  0  0  0  0  0  0
    3.0711    1.4478    0.3182 O   0  0  0  0  0  0  0  0  0  0  0  0
    3.6491   -0.6144   -0.3674 O   0  0  0  0  0  0  0  0  0  0  0  0
    4.9003   -0.6206    0.2551 C   0  0  0  0  0  0  0  0  0  0  0  0
    4.8046   -0.4506    1.7566 C   0  0  0  0  0  0  0  0  0  0  0  0
    5.8565    0.3902   -0.3515 C   0  0  0  0  0  0  0  0  0  0  0  0
    5.5205   -1.9993    0.0196 C   0  0  0  0  0  0  0  0  0  0  0  0
   -5.6588    2.6479    2.4840 H   0  0  0  0  0  0  0  0  0  0  0  0
   -4.8682   -1.8800    0.9038 H   0  0  0  0  0  0  0  0  0  0  0  0
   -5.2814   -1.0730    2.4137 H   0  0  0  0  0  0  0  0  0  0  0  0
   -2.0238    1.7612    0.4474 H   0  0  0  0  0  0  0  0  0  0  0  0
   -3.1762   -2.3123    0.1377 H   0  0  0  0  0  0  0  0  0  0  0  0
   -7.1400   -0.9782    0.6936 H   0  0  0  0  0  0  0  0  0  0  0  0
   -6.0592    0.0657   -0.3129 H   0  0  0  0  0  0  0  0  0  0  0  0
   -1.1520   -2.7387   -1.1336 H   0  0  0  0  0  0  0  0  0  0  0  0
    0.5917    2.2765   -0.5007 H   0  0  0  0  0  0  0  0  0  0  0  0
    1.4064   -1.5709   -1.8573 H   0  0  0  0  0  0  0  0  0  0  0  0
   -0.7890    1.6555   -2.7625 H   0  0  0  0  0  0  0  0  0  0  0  0
    1.6274    0.1405   -3.5935 H   0  0  0  0  0  0  0  0  0  0  0  0
    0.5536    3.2704   -3.2842 H   0  0  0  0  0  0  0  0  0  0  0  0
   -0.3305   -1.4091   -3.7545 H   0  0  0  0  0  0  0  0  0  0  0  0
    4.6344    0.6052    2.0389 H   0  0  0  0  0  0  0  0  0  0  0  0
    3.8835   -1.0111    2.0708 H   0  0  0  0  0  0  0  0  0  0  0  0
    5.7164   -0.8589    2.2554 H   0  0  0  0  0  0  0  0  0  0  0  0
    6.2629    0.0358   -1.3196 H   0  0  0  0  0  0  0  0  0  0  0  0
    5.4483    1.4020   -0.3711 H   0  0  0  0  0  0  0  0  0  0  0  0
    6.7463    0.4134    0.3434 H   0  0  0  0  0  0  0  0  0  0  0  0
    4.7559   -2.7677    0.3329 H   0  0  0  0  0  0  0  0  0  0  0  0
    6.4382   -2.0527    0.6234 H   0  0  0  0  0  0  0  0  0  0  0  0
    5.6967   -2.1702   -1.0565 H   0  0  0  0  0  0  0  0  0  0  0  0
  1  2  2  0
  2  3  1  0
  2  4  1  0
  3  5  1  0
  3  6  1  0
  4  7  1  0
  5  8  2  0
  5  9  1  0
  6 10  1  0
  7 11  2  0
  7 10  1  0
  8 12  1  0
  9 13  2  0
 12 14  2  0
 13 14  1  0
 15 12  1  0
 15 17  1  0
 15 18  1  0
 16 14  1  0
 16 19  1  0
 16 17  1  0
 17 20  1  0
 18 21  1  0
 18 19  1  0
 19 22  1  0
 20 23  2  0
 20 24  1  0
 24 25  1  0
 25 26  1  0
 25 27  1  0
 25 28  1  0
  4 29  1  0
  6 30  1  0
  6 31  1  0
  8 32  1  0
  9 33  1  0
 10 34  1  0
 10 35  1  0
 13 36  1  0
 15 37  1  1
 16 38  1  6
 18 39  1  1
 19 40  1  6
 21 41  1  0
 22 42  1  0
 26 43  1  0
 26 44  1  0
 26 45  1  0
 27 46  1  0
 27 47  1  0
 27 48  1  0
 28 49  1  0
 28 50  1  0
 28 51  1  0
M  END
>  <Molecule Name>  (6) 
Compound 4

>  <EC50 (µM) (Excel)>  (6) 
11.8

>  <Error (µM)>  (6) 
7.4

>  <HTRC CRBN-DDB1 EC50 (µM)>  (6) 
11.78 ±  7.41

>  <EC50 fitting (µM)>  (6) 
15.10

>  <Modèle Fitting>  (6) 
4PL

>  <Parent_Compound>  (6) 
Compound 4

>  <MMFF94s_energy_kcalmol>  (6) 
162.344

$$$$
Compound_4_s9
     RDKit          3D

 51 54  0  0  0  0  0  0  0  0999 V2000
   -3.3000    0.6124    2.9061 O   0  0  0  0  0  0  0  0  0  0  0  0
   -4.2791    0.5538    2.1176 C   0  0  0  0  0  0  0  0  0  0  0  0
   -4.0832    0.0813    0.8078 N   0  0  0  0  0  0  0  0  0  0  0  0
   -5.5849    0.9556    2.5206 N   0  0  0  0  0  0  0  0  0  0  0  0
   -2.8116    0.1791    0.1921 C   0  0  0  0  0  0  0  0  0  0  0  0
   -5.2165   -0.5081    0.1051 C   0  0  0  0  0  0  0  0  0  0  0  0
   -6.6255    0.8534    1.5619 C   0  0  0  0  0  0  0  0  0  0  0  0
   -1.9063   -0.8588    0.3314 C   0  0  0  0  0  0  0  0  0  0  0  0
   -2.5415    1.3230   -0.5246 C   0  0  0  0  0  0  0  0  0  0  0  0
   -6.3550    0.4911    0.1449 C   0  0  0  0  0  0  0  0  0  0  0  0
   -7.8179    1.0685    1.8859 O   0  0  0  0  0  0  0  0  0  0  0  0
   -0.6787   -0.7688   -0.2608 C   0  0  0  0  0  0  0  0  0  0  0  0
   -1.2898    1.4178   -1.1299 C   0  0  0  0  0  0  0  0  0  0  0  0
   -0.3962    0.3822   -0.9865 C   0  0  0  0  0  0  0  0  0  0  0  0
    0.5475   -1.6074   -0.3706 C   0  0  2  0  0  0  0  0  0  0  0  0
    0.9850    0.2267   -1.5155 C   0  0  1  0  0  0  0  0  0  0  0  0
    1.5544   -0.5694   -0.4428 N   0  0  0  0  0  0  0  0  0  0  0  0
    0.5819   -2.0872   -1.8081 C   0  0  1  0  0  0  0  0  0  0  0  0
    0.9017   -0.8203   -2.6038 C   0  0  1  0  0  0  0  0  0  0  0  0
    2.7361   -0.3176    0.2504 C   0  0  0  0  0  0  0  0  0  0  0  0
    1.5593   -3.0516   -2.0125 O   0  0  0  0  0  0  0  0  0  0  0  0
   -0.1562   -0.5171   -3.4384 O   0  0  0  0  0  0  0  0  0  0  0  0
    3.1178   -1.1103    1.1781 O   0  0  0  0  0  0  0  0  0  0  0  0
    3.5723    0.7573    0.0190 O   0  0  0  0  0  0  0  0  0  0  0  0
    4.7578    0.9994    0.7228 C   0  0  0  0  0  0  0  0  0  0  0  0
    5.7593   -0.1190    0.5912 C   0  0  0  0  0  0  0  0  0  0  0  0
    5.3986    2.2470    0.1480 C   0  0  0  0  0  0  0  0  0  0  0  0
    4.5226    1.2477    2.1966 C   0  0  0  0  0  0  0  0  0  0  0  0
   -5.7746    1.3110    3.4795 H   0  0  0  0  0  0  0  0  0  0  0  0
   -5.5745   -1.4288    0.6001 H   0  0  0  0  0  0  0  0  0  0  0  0
   -4.9589   -0.7170   -0.9536 H   0  0  0  0  0  0  0  0  0  0  0  0
   -2.1242   -1.7610    0.8988 H   0  0  0  0  0  0  0  0  0  0  0  0
   -3.2756    2.1096   -0.6090 H   0  0  0  0  0  0  0  0  0  0  0  0
   -7.2382    0.0468   -0.3462 H   0  0  0  0  0  0  0  0  0  0  0  0
   -6.0542    1.3995   -0.4137 H   0  0  0  0  0  0  0  0  0  0  0  0
   -1.0571    2.3107   -1.6991 H   0  0  0  0  0  0  0  0  0  0  0  0
    0.6787   -2.3520    0.3797 H   0  0  0  0  0  0  0  0  0  0  0  0
    1.5016    1.1269   -1.7605 H   0  0  0  0  0  0  0  0  0  0  0  0
   -0.4078   -2.4767   -2.1232 H   0  0  0  0  0  0  0  0  0  0  0  0
    1.8587   -0.9560   -3.1225 H   0  0  0  0  0  0  0  0  0  0  0  0
    1.2104   -3.9481   -1.8225 H   0  0  0  0  0  0  0  0  0  0  0  0
   -0.1340   -1.0221   -4.2932 H   0  0  0  0  0  0  0  0  0  0  0  0
    6.7541    0.3104    0.8666 H   0  0  0  0  0  0  0  0  0  0  0  0
    5.5447   -0.9880    1.2153 H   0  0  0  0  0  0  0  0  0  0  0  0
    5.8376   -0.3616   -0.4943 H   0  0  0  0  0  0  0  0  0  0  0  0
    6.4044    2.3911    0.5519 H   0  0  0  0  0  0  0  0  0  0  0  0
    4.7484    3.1365    0.2602 H   0  0  0  0  0  0  0  0  0  0  0  0
    5.5091    2.0825   -0.9459 H   0  0  0  0  0  0  0  0  0  0  0  0
    5.4866    1.6543    2.5987 H   0  0  0  0  0  0  0  0  0  0  0  0
    3.7516    1.9982    2.3973 H   0  0  0  0  0  0  0  0  0  0  0  0
    4.3612    0.2861    2.7495 H   0  0  0  0  0  0  0  0  0  0  0  0
  1  2  2  0
  2  3  1  0
  2  4  1  0
  3  5  1  0
  3  6  1  0
  4  7  1  0
  5  8  2  0
  5  9  1  0
  6 10  1  0
  7 11  2  0
  7 10  1  0
  8 12  1  0
  9 13  2  0
 12 14  2  0
 13 14  1  0
 15 12  1  0
 15 17  1  0
 15 18  1  0
 16 14  1  0
 16 19  1  0
 16 17  1  0
 17 20  1  0
 18 21  1  0
 18 19  1  0
 19 22  1  0
 20 23  2  0
 20 24  1  0
 24 25  1  0
 25 26  1  0
 25 27  1  0
 25 28  1  0
  4 29  1  0
  6 30  1  0
  6 31  1  0
  8 32  1  0
  9 33  1  0
 10 34  1  0
 10 35  1  0
 13 36  1  0
 15 37  1  1
 16 38  1  6
 18 39  1  6
 19 40  1  6
 21 41  1  0
 22 42  1  0
 26 43  1  0
 26 44  1  0
 26 45  1  0
 27 46  1  0
 27 47  1  0
 27 48  1  0
 28 49  1  0
 28 50  1  0
 28 51  1  0
M  END
>  <Molecule Name>  (7) 
Compound 4

>  <EC50 (µM) (Excel)>  (7) 
11.8

>  <Error (µM)>  (7) 
7.4

>  <HTRC CRBN-DDB1 EC50 (µM)>  (7) 
11.78 ±  7.41

>  <EC50 fitting (µM)>  (7) 
15.10

>  <Modèle Fitting>  (7) 
4PL

>  <Parent_Compound>  (7) 
Compound 4

>  <MMFF94s_energy_kcalmol>  (7) 
153.088

$$$$
Compound_4_s12
     RDKit          3D

 51 54  0  0  0  0  0  0  0  0999 V2000
   -4.8279    2.0511    0.5475 O   0  0  0  0  0  0  0  0  0  0  0  0
   -5.1570    0.8382    0.5073 C   0  0  0  0  0  0  0  0  0  0  0  0
   -4.1269   -0.1493    0.4186 N   0  0  0  0  0  0  0  0  0  0  0  0
   -6.5328    0.4776    0.5505 N   0  0  0  0  0  0  0  0  0  0  0  0
   -2.8382    0.1641   -0.0942 C   0  0  0  0  0  0  0  0  0  0  0  0
   -4.4725   -1.4903    0.8823 C   0  0  0  0  0  0  0  0  0  0  0  0
   -6.8177   -0.9161    0.5003 C   0  0  0  0  0  0  0  0  0  0  0  0
   -1.7888    0.6114    0.7110 C   0  0  0  0  0  0  0  0  0  0  0  0
   -2.5611    0.0376   -1.4387 C   0  0  0  0  0  0  0  0  0  0  0  0
   -5.7408   -1.8952    0.1766 C   0  0  0  0  0  0  0  0  0  0  0  0
   -8.0023   -1.2886    0.7373 O   0  0  0  0  0  0  0  0  0  0  0  0
   -0.5520    0.9057    0.1771 C   0  0  0  0  0  0  0  0  0  0  0  0
   -1.3093    0.3363   -1.9737 C   0  0  0  0  0  0  0  0  0  0  0  0
   -0.2968    0.7715   -1.1750 C   0  0  0  0  0  0  0  0  0  0  0  0
    0.7132    1.3852    0.8018 C   0  0  1  0  0  0  0  0  0  0  0  0
    1.1288    1.1833   -1.3591 C   0  0  2  0  0  0  0  0  0  0  0  0
    1.6741    0.7160   -0.0959 N   0  0  0  0  0  0  0  0  0  0  0  0
    0.9085    2.8081    0.3949 C   0  0  1  0  0  0  0  0  0  0  0  0
    1.1485    2.6739   -1.1162 C   0  0  1  0  0  0  0  0  0  0  0  0
    2.7602   -0.1051    0.1972 C   0  0  0  0  0  0  0  0  0  0  0  0
   -0.1880    3.6199    0.6556 O   0  0  0  0  0  0  0  0  0  0  0  0
    2.3314    3.2693   -1.4872 O   0  0  0  0  0  0  0  0  0  0  0  0
    3.0758   -0.3976    1.3743 O   0  0  0  0  0  0  0  0  0  0  0  0
    3.5279   -0.6245   -0.8307 O   0  0  0  0  0  0  0  0  0  0  0  0
    4.6213   -1.4498   -0.5600 C   0  0  0  0  0  0  0  0  0  0  0  0
    4.1373   -2.6673    0.1843 C   0  0  0  0  0  0  0  0  0  0  0  0
    5.7130   -0.7837    0.2274 C   0  0  0  0  0  0  0  0  0  0  0  0
    5.2482   -1.9080   -1.8792 C   0  0  0  0  0  0  0  0  0  0  0  0
   -7.3168    1.1613    0.6150 H   0  0  0  0  0  0  0  0  0  0  0  0
   -3.6607   -2.2013    0.7335 H   0  0  0  0  0  0  0  0  0  0  0  0
   -4.7331   -1.3772    1.9696 H   0  0  0  0  0  0  0  0  0  0  0  0
   -2.0160    0.7072    1.7626 H   0  0  0  0  0  0  0  0  0  0  0  0
   -3.3486   -0.3086   -2.1095 H   0  0  0  0  0  0  0  0  0  0  0  0
   -5.5843   -2.0180   -0.8994 H   0  0  0  0  0  0  0  0  0  0  0  0
   -6.0722   -2.8660    0.6356 H   0  0  0  0  0  0  0  0  0  0  0  0
   -1.1216    0.2266   -3.0373 H   0  0  0  0  0  0  0  0  0  0  0  0
    0.8394    1.1442    1.8295 H   0  0  0  0  0  0  0  0  0  0  0  0
    1.6051    0.8322   -2.2409 H   0  0  0  0  0  0  0  0  0  0  0  0
    1.8067    3.2320    0.8882 H   0  0  0  0  0  0  0  0  0  0  0  0
    0.2604    3.0944   -1.6469 H   0  0  0  0  0  0  0  0  0  0  0  0
   -0.7615    3.1571    1.2991 H   0  0  0  0  0  0  0  0  0  0  0  0
    2.1828    3.9816   -2.1483 H   0  0  0  0  0  0  0  0  0  0  0  0
    4.1158   -2.4888    1.2600 H   0  0  0  0  0  0  0  0  0  0  0  0
    3.1116   -2.9247   -0.2043 H   0  0  0  0  0  0  0  0  0  0  0  0
    4.8175   -3.5166   -0.0267 H   0  0  0  0  0  0  0  0  0  0  0  0
    5.3989   -0.6379    1.2778 H   0  0  0  0  0  0  0  0  0  0  0  0
    6.0348    0.1733   -0.2038 H   0  0  0  0  0  0  0  0  0  0  0  0
    6.5687   -1.5059    0.2630 H   0  0  0  0  0  0  0  0  0  0  0  0
    5.2101   -1.0782   -2.6078 H   0  0  0  0  0  0  0  0  0  0  0  0
    6.2762   -2.2389   -1.6481 H   0  0  0  0  0  0  0  0  0  0  0  0
    4.6106   -2.7215   -2.2862 H   0  0  0  0  0  0  0  0  0  0  0  0
  1  2  2  0
  2  3  1  0
  2  4  1  0
  3  5  1  0
  3  6  1  0
  4  7  1  0
  5  8  2  0
  5  9  1  0
  6 10  1  0
  7 11  2  0
  7 10  1  0
  8 12  1  0
  9 13  2  0
 12 14  2  0
 13 14  1  0
 15 12  1  0
 15 17  1  0
 15 18  1  0
 16 14  1  0
 16 19  1  0
 16 17  1  0
 17 20  1  0
 18 21  1  0
 18 19  1  0
 19 22  1  0
 20 23  2  0
 20 24  1  0
 24 25  1  0
 25 26  1  0
 25 27  1  0
 25 28  1  0
  4 29  1  0
  6 30  1  0
  6 31  1  0
  8 32  1  0
  9 33  1  0
 10 34  1  0
 10 35  1  0
 13 36  1  0
 15 37  1  1
 16 38  1  6
 18 39  1  1
 19 40  1  6
 21 41  1  0
 22 42  1  0
 26 43  1  0
 26 44  1  0
 26 45  1  0
 27 46  1  0
 27 47  1  0
 27 48  1  0
 28 49  1  0
 28 50  1  0
 28 51  1  0
M  END
>  <Molecule Name>  (8) 
Compound 4

>  <EC50 (µM) (Excel)>  (8) 
11.8

>  <Error (µM)>  (8) 
7.4

>  <HTRC CRBN-DDB1 EC50 (µM)>  (8) 
11.78 ±  7.41

>  <EC50 fitting (µM)>  (8) 
15.10

>  <Modèle Fitting>  (8) 
4PL

>  <Parent_Compound>  (8) 
Compound 4

>  <MMFF94s_energy_kcalmol>  (8) 
162.454

$$$$
Compound_4_s13
     RDKit          3D

 51 54  0  0  0  0  0  0  0  0999 V2000
   -3.2047    2.3572    1.3013 O   0  0  0  0  0  0  0  0  0  0  0  0
   -4.1541    1.6323    0.9545 C   0  0  0  0  0  0  0  0  0  0  0  0
   -3.9991    0.6309   -0.0352 N   0  0  0  0  0  0  0  0  0  0  0  0
   -5.4579    1.7913    1.5530 N   0  0  0  0  0  0  0  0  0  0  0  0
   -2.7263   -0.0292   -0.2111 C   0  0  0  0  0  0  0  0  0  0  0  0
   -5.1267    0.2524   -0.8490 C   0  0  0  0  0  0  0  0  0  0  0  0
   -6.5063    0.9066    1.0813 C   0  0  0  0  0  0  0  0  0  0  0  0
   -1.6623    0.1339    0.6387 C   0  0  0  0  0  0  0  0  0  0  0  0
   -2.5606   -0.8531   -1.3058 C   0  0  0  0  0  0  0  0  0  0  0  0
   -6.4641    0.6592   -0.3766 C   0  0  0  0  0  0  0  0  0  0  0  0
   -7.3148    0.4505    1.8941 O   0  0  0  0  0  0  0  0  0  0  0  0
   -0.4500   -0.5210    0.3916 C   0  0  0  0  0  0  0  0  0  0  0  0
   -1.3526   -1.5122   -1.5611 C   0  0  0  0  0  0  0  0  0  0  0  0
   -0.2877   -1.3453   -0.7060 C   0  0  0  0  0  0  0  0  0  0  0  0
    0.8627   -0.5596    1.0978 C   0  0  2  0  0  0  0  0  0  0  0  0
    1.0944   -1.8677   -0.6688 C   0  0  1  0  0  0  0  0  0  0  0  0
    1.7517   -0.7032   -0.0603 N   0  0  0  0  0  0  0  0  0  0  0  0
    0.9813   -1.9511    1.6710 C   0  0  2  0  0  0  0  0  0  0  0  0
    1.2595   -2.8479    0.4716 C   0  0  1  0  0  0  0  0  0  0  0  0
    2.8648    0.0137   -0.4767 C   0  0  0  0  0  0  0  0  0  0  0  0
   -0.2840   -2.3078    2.1558 O   0  0  0  0  0  0  0  0  0  0  0  0
    0.3682   -3.9034    0.3938 O   0  0  0  0  0  0  0  0  0  0  0  0
    3.4428   -0.3453   -1.5359 O   0  0  0  0  0  0  0  0  0  0  0  0
    3.4005    1.1072    0.1858 O   0  0  0  0  0  0  0  0  0  0  0  0
    4.5404    1.8143   -0.2718 C   0  0  0  0  0  0  0  0  0  0  0  0
    5.7222    0.8647   -0.3388 C   0  0  0  0  0  0  0  0  0  0  0  0
    4.3176    2.4502   -1.6162 C   0  0  0  0  0  0  0  0  0  0  0  0
    4.8270    2.9030    0.7429 C   0  0  0  0  0  0  0  0  0  0  0  0
   -5.5887    2.4998    2.2725 H   0  0  0  0  0  0  0  0  0  0  0  0
   -5.0801   -0.8650   -1.0213 H   0  0  0  0  0  0  0  0  0  0  0  0
   -4.9209    0.6771   -1.8687 H   0  0  0  0  0  0  0  0  0  0  0  0
   -1.7044    0.7463    1.5185 H   0  0  0  0  0  0  0  0  0  0  0  0
   -3.3643   -1.0071   -2.0026 H   0  0  0  0  0  0  0  0  0  0  0  0
   -7.1852   -0.1544   -0.6101 H   0  0  0  0  0  0  0  0  0  0  0  0
   -6.7888    1.5622   -0.9434 H   0  0  0  0  0  0  0  0  0  0  0  0
   -1.2942   -2.1386   -2.4320 H   0  0  0  0  0  0  0  0  0  0  0  0
    1.0783    0.2523    1.7437 H   0  0  0  0  0  0  0  0  0  0  0  0
    1.5124   -2.1688   -1.6033 H   0  0  0  0  0  0  0  0  0  0  0  0
    1.7485   -2.0398    2.4440 H   0  0  0  0  0  0  0  0  0  0  0  0
    2.3083   -3.1568    0.5343 H   0  0  0  0  0  0  0  0  0  0  0  0
   -0.8565   -2.7096    1.4623 H   0  0  0  0  0  0  0  0  0  0  0  0
    0.7974   -4.6435   -0.1162 H   0  0  0  0  0  0  0  0  0  0  0  0
    6.6622    1.3620    0.0040 H   0  0  0  0  0  0  0  0  0  0  0  0
    5.5159    0.0326    0.3951 H   0  0  0  0  0  0  0  0  0  0  0  0
    5.8377    0.4052   -1.3335 H   0  0  0  0  0  0  0  0  0  0  0  0
    4.9582    3.3603   -1.7372 H   0  0  0  0  0  0  0  0  0  0  0  0
    3.2831    2.7631   -1.7683 H   0  0  0  0  0  0  0  0  0  0  0  0
    4.6258    1.7690   -2.4532 H   0  0  0  0  0  0  0  0  0  0  0  0
    5.8783    3.2277    0.6835 H   0  0  0  0  0  0  0  0  0  0  0  0
    4.1123    3.7469    0.5686 H   0  0  0  0  0  0  0  0  0  0  0  0
    4.5826    2.4713    1.7435 H   0  0  0  0  0  0  0  0  0  0  0  0
  1  2  2  0
  2  3  1  0
  2  4  1  0
  3  5  1  0
  3  6  1  0
  4  7  1  0
  5  8  2  0
  5  9  1  0
  6 10  1  0
  7 11  2  0
  7 10  1  0
  8 12  1  0
  9 13  2  0
 12 14  2  0
 13 14  1  0
 15 12  1  0
 15 17  1  0
 15 18  1  0
 16 14  1  0
 16 19  1  0
 16 17  1  0
 17 20  1  0
 18 21  1  0
 18 19  1  0
 19 22  1  0
 20 23  2  0
 20 24  1  0
 24 25  1  0
 25 26  1  0
 25 27  1  0
 25 28  1  0
  4 29  1  0
  6 30  1  0
  6 31  1  0
  8 32  1  0
  9 33  1  0
 10 34  1  0
 10 35  1  0
 13 36  1  0
 15 37  1  1
 16 38  1  6
 18 39  1  1
 19 40  1  1
 21 41  1  0
 22 42  1  0
 26 43  1  0
 26 44  1  0
 26 45  1  0
 27 46  1  0
 27 47  1  0
 27 48  1  0
 28 49  1  0
 28 50  1  0
 28 51  1  0
M  END
>  <Molecule Name>  (9) 
Compound 4

>  <EC50 (µM) (Excel)>  (9) 
11.8

>  <Error (µM)>  (9) 
7.4

>  <HTRC CRBN-DDB1 EC50 (µM)>  (9) 
11.78 ±  7.41

>  <EC50 fitting (µM)>  (9) 
15.10

>  <Modèle Fitting>  (9) 
4PL

>  <Parent_Compound>  (9) 
Compound 4

>  <MMFF94s_energy_kcalmol>  (9) 
197.272

$$$$
Compound_4_s16
     RDKit          3D

 51 54  0  0  0  0  0  0  0  0999 V2000
   -4.8826    1.8548   -0.2389 O   0  0  0  0  0  0  0  0  0  0  0  0
   -5.2492    0.6940    0.1088 C   0  0  0  0  0  0  0  0  0  0  0  0
   -4.2189   -0.2898    0.3176 N   0  0  0  0  0  0  0  0  0  0  0  0
   -6.6229    0.3945    0.2803 N   0  0  0  0  0  0  0  0  0  0  0  0
   -2.9189   -0.0138   -0.1831 C   0  0  0  0  0  0  0  0  0  0  0  0
   -4.5816   -1.4855    1.0209 C   0  0  0  0  0  0  0  0  0  0  0  0
   -6.9450   -0.9429    0.6744 C   0  0  0  0  0  0  0  0  0  0  0  0
   -1.9310    0.6388    0.5387 C   0  0  0  0  0  0  0  0  0  0  0  0
   -2.5620   -0.3953   -1.4592 C   0  0  0  0  0  0  0  0  0  0  0  0
   -5.8995   -1.9751    0.4517 C   0  0  0  0  0  0  0  0  0  0  0  0
   -8.0691   -1.1924    1.1811 O   0  0  0  0  0  0  0  0  0  0  0  0
   -0.6805    0.8857    0.0108 C   0  0  0  0  0  0  0  0  0  0  0  0
   -1.3172   -0.1543   -1.9973 C   0  0  0  0  0  0  0  0  0  0  0  0
   -0.3518    0.4921   -1.2706 C   0  0  0  0  0  0  0  0  0  0  0  0
    0.5553    1.5445    0.5465 C   0  0  1  0  0  0  0  0  0  0  0  0
    1.0550    0.9208   -1.5124 C   0  0  2  0  0  0  0  0  0  0  0  0
    1.5777    0.7572   -0.1669 N   0  0  0  0  0  0  0  0  0  0  0  0
    0.6949    2.8536   -0.1548 C   0  0  2  0  0  0  0  0  0  0  0  0
    1.0226    2.4291   -1.5807 C   0  0  1  0  0  0  0  0  0  0  0  0
    2.6899    0.0755    0.3085 C   0  0  0  0  0  0  0  0  0  0  0  0
    1.6895    3.6631    0.3744 O   0  0  0  0  0  0  0  0  0  0  0  0
    2.2539    2.9694   -1.9305 O   0  0  0  0  0  0  0  0  0  0  0  0
    3.0282    0.0164    1.5138 O   0  0  0  0  0  0  0  0  0  0  0  0
    3.4937   -0.5924   -0.6023 O   0  0  0  0  0  0  0  0  0  0  0  0
    4.6423   -1.3185   -0.2696 C   0  0  0  0  0  0  0  0  0  0  0  0
    4.2940   -2.4371    0.6766 C   0  0  0  0  0  0  0  0  0  0  0  0
    5.7248   -0.4520    0.3338 C   0  0  0  0  0  0  0  0  0  0  0  0
    5.2006   -1.9131   -1.5461 C   0  0  0  0  0  0  0  0  0  0  0  0
   -7.3485    1.1155    0.1253 H   0  0  0  0  0  0  0  0  0  0  0  0
   -3.8314   -2.2769    0.9801 H   0  0  0  0  0  0  0  0  0  0  0  0
   -4.8055   -1.1832    2.0825 H   0  0  0  0  0  0  0  0  0  0  0  0
   -2.1950    0.9496    1.5538 H   0  0  0  0  0  0  0  0  0  0  0  0
   -3.3234   -0.9130   -2.0518 H   0  0  0  0  0  0  0  0  0  0  0  0
   -6.2374   -2.9160    0.9192 H   0  0  0  0  0  0  0  0  0  0  0  0
   -5.7685   -2.1184   -0.6444 H   0  0  0  0  0  0  0  0  0  0  0  0
   -1.0397   -0.4583   -3.0077 H   0  0  0  0  0  0  0  0  0  0  0  0
    0.6519    1.5325    1.6043 H   0  0  0  0  0  0  0  0  0  0  0  0
    1.5753    0.4150   -2.2881 H   0  0  0  0  0  0  0  0  0  0  0  0
   -0.3028    3.3640   -0.1167 H   0  0  0  0  0  0  0  0  0  0  0  0
    0.2127    2.7618   -2.2544 H   0  0  0  0  0  0  0  0  0  0  0  0
    1.3785    3.9447    1.2698 H   0  0  0  0  0  0  0  0  0  0  0  0
    2.3024    3.9159   -1.6476 H   0  0  0  0  0  0  0  0  0  0  0  0
    4.4754   -2.1211    1.7196 H   0  0  0  0  0  0  0  0  0  0  0  0
    3.2656   -2.7929    0.5121 H   0  0  0  0  0  0  0  0  0  0  0  0
    5.0078   -3.2784    0.4610 H   0  0  0  0  0  0  0  0  0  0  0  0
    6.1632    0.2268   -0.4318 H   0  0  0  0  0  0  0  0  0  0  0  0
    5.3519    0.0924    1.2276 H   0  0  0  0  0  0  0  0  0  0  0  0
    6.5499   -1.1277    0.6441 H   0  0  0  0  0  0  0  0  0  0  0  0
    5.1496   -1.1886   -2.3931 H   0  0  0  0  0  0  0  0  0  0  0  0
    6.3046   -2.0855   -1.3872 H   0  0  0  0  0  0  0  0  0  0  0  0
    4.7712   -2.8853   -1.7929 H   0  0  0  0  0  0  0  0  0  0  0  0
  1  2  2  0
  2  3  1  0
  2  4  1  0
  3  5  1  0
  3  6  1  0
  4  7  1  0
  5  8  2  0
  5  9  1  0
  6 10  1  0
  7 11  2  0
  7 10  1  0
  8 12  1  0
  9 13  2  0
 12 14  2  0
 13 14  1  0
 15 12  1  0
 15 17  1  0
 15 18  1  0
 16 14  1  0
 16 19  1  0
 16 17  1  0
 17 20  1  0
 18 21  1  0
 18 19  1  0
 19 22  1  0
 20 23  2  0
 20 24  1  0
 24 25  1  0
 25 26  1  0
 25 27  1  0
 25 28  1  0
  4 29  1  0
  6 30  1  0
  6 31  1  0
  8 32  1  0
  9 33  1  0
 10 34  1  0
 10 35  1  0
 13 36  1  0
 15 37  1  1
 16 38  1  6
 18 39  1  6
 19 40  1  6
 21 41  1  0
 22 42  1  0
 26 43  1  0
 26 44  1  0
 26 45  1  0
 27 46  1  0
 27 47  1  0
 27 48  1  0
 28 49  1  0
 28 50  1  0
 28 51  1  0
M  END
>  <Molecule Name>  (10) 
Compound 4

>  <EC50 (µM) (Excel)>  (10) 
11.8

>  <Error (µM)>  (10) 
7.4

>  <HTRC CRBN-DDB1 EC50 (µM)>  (10) 
11.78 ±  7.41

>  <EC50 fitting (µM)>  (10) 
15.10

>  <Modèle Fitting>  (10) 
4PL

>  <Parent_Compound>  (10) 
Compound 4

>  <MMFF94s_energy_kcalmol>  (10) 
166.183

$$$$
Compound_7_ent1
     RDKit          3D

 64 66  0  0  0  0  0  0  0  0999 V2000
    2.3873    1.0557   -2.2280 S   0  0  0  0  0  6  0  0  0  0  0  0
    2.2834    0.8742   -3.6979 O   0  0  0  0  0  0  0  0  0  0  0  0
    3.2041   -0.1370   -1.7250 O   0  0  0  0  0  0  0  0  0  0  0  0
    0.9252    1.0584   -1.4214 N   0  0  0  0  0  0  0  0  0  0  0  0
    3.3955    2.4868   -1.8786 C   0  0  0  0  0  0  0  0  0  0  0  0
    0.9694    0.8893   -0.0223 C   0  0  0  0  0  0  0  0  0  0  0  0
   -0.2330    1.5708   -2.0195 C   0  0  0  0  0  0  0  0  0  0  0  0
    4.0400    2.3619   -0.5031 C   0  0  0  0  0  0  0  0  0  0  0  0
    1.7102    2.0718    0.5787 C   0  0  0  0  0  0  0  0  0  0  0  0
   -1.1502    0.6190   -2.6272 C   0  0  0  0  0  0  0  0  0  0  0  0
    3.1171    1.7640    0.4394 N   0  0  0  0  0  0  0  0  0  0  0  0
   -2.1786    0.0711   -1.8961 C   0  0  0  0  0  0  0  0  0  0  0  0
   -1.0122    0.2328   -3.9353 C   0  0  0  0  0  0  0  0  0  0  0  0
    3.6118    0.7718    1.3200 C   0  0  0  0  0  0  0  0  0  0  0  0
   -3.0685   -0.8327   -2.3920 C   0  0  0  0  0  0  0  0  0  0  0  0
   -1.8833   -0.6865   -4.5072 C   0  0  0  0  0  0  0  0  0  0  0  0
    2.9080    0.1876    2.1776 O   0  0  0  0  0  0  0  0  0  0  0  0
    4.9617    0.3842    1.2656 O   0  0  0  0  0  0  0  0  0  0  0  0
   -4.1882   -1.4196   -1.6852 C   0  0  0  0  0  0  0  0  0  0  0  0
   -2.8891   -1.1975   -3.7277 C   0  0  0  0  0  0  0  0  0  0  0  0
    5.4664   -0.6068    2.1360 C   0  0  0  0  0  0  0  0  0  0  0  0
   -4.8309   -2.3754   -2.1702 O   0  0  0  0  0  0  0  0  0  0  0  0
   -4.5816   -0.9057   -0.4106 N   0  0  0  0  0  0  0  0  0  0  0  0
    5.3211   -0.2329    3.5939 C   0  0  0  0  0  0  0  0  0  0  0  0
    4.7966   -1.9426    1.8638 C   0  0  0  0  0  0  0  0  0  0  0  0
    6.9377   -0.7730    1.7645 C   0  0  0  0  0  0  0  0  0  0  0  0
   -5.7146   -1.4710    0.3395 C   0  0  2  0  0  0  0  0  0  0  0  0
   -6.8841   -0.5747    0.2378 C   0  0  0  0  0  0  0  0  0  0  0  0
   -5.3437   -1.8909    1.7122 C   0  0  0  0  0  0  0  0  0  0  0  0
   -7.1631   -0.1116   -0.8976 O   0  0  0  0  0  0  0  0  0  0  0  0
   -7.6835   -0.2214    1.3278 N   0  0  0  0  0  0  0  0  0  0  0  0
   -5.8436   -0.9654    2.7928 C   0  0  0  0  0  0  0  0  0  0  0  0
   -7.2637   -0.6091    2.6385 C   0  0  0  0  0  0  0  0  0  0  0  0
   -8.1203   -0.6180    3.5539 O   0  0  0  0  0  0  0  0  0  0  0  0
    4.1855    2.5390   -2.6184 H   0  0  0  0  0  0  0  0  0  0  0  0
    2.8258    3.4114   -1.8829 H   0  0  0  0  0  0  0  0  0  0  0  0
    1.4608   -0.0706    0.2263 H   0  0  0  0  0  0  0  0  0  0  0  0
   -0.0871    0.8543    0.3520 H   0  0  0  0  0  0  0  0  0  0  0  0
   -0.7747    2.1776   -1.2244 H   0  0  0  0  0  0  0  0  0  0  0  0
    0.0885    2.3870   -2.7463 H   0  0  0  0  0  0  0  0  0  0  0  0
    4.9298    1.7275   -0.5626 H   0  0  0  0  0  0  0  0  0  0  0  0
    4.2960    3.4077   -0.1866 H   0  0  0  0  0  0  0  0  0  0  0  0
    1.4640    2.9929    0.0080 H   0  0  0  0  0  0  0  0  0  0  0  0
    1.3861    2.2508    1.6098 H   0  0  0  0  0  0  0  0  0  0  0  0
   -2.2927    0.3758   -0.8556 H   0  0  0  0  0  0  0  0  0  0  0  0
   -0.2502    0.6088   -4.5881 H   0  0  0  0  0  0  0  0  0  0  0  0
   -1.7548   -0.9775   -5.5418 H   0  0  0  0  0  0  0  0  0  0  0  0
   -3.5715   -1.9163   -4.1716 H   0  0  0  0  0  0  0  0  0  0  0  0
   -4.0328   -0.1059   -0.0315 H   0  0  0  0  0  0  0  0  0  0  0  0
    6.2676   -0.5191    4.1040 H   0  0  0  0  0  0  0  0  0  0  0  0
    5.0704    0.8309    3.7262 H   0  0  0  0  0  0  0  0  0  0  0  0
    4.5245   -0.8404    4.0624 H   0  0  0  0  0  0  0  0  0  0  0  0
    3.9102   -1.8153    1.2036 H   0  0  0  0  0  0  0  0  0  0  0  0
    4.5177   -2.4629    2.8051 H   0  0  0  0  0  0  0  0  0  0  0  0
    5.4796   -2.6497    1.3332 H   0  0  0  0  0  0  0  0  0  0  0  0
    7.4761    0.1828    1.9304 H   0  0  0  0  0  0  0  0  0  0  0  0
    7.3508   -1.6279    2.3052 H   0  0  0  0  0  0  0  0  0  0  0  0
    6.9275   -1.0701    0.6809 H   0  0  0  0  0  0  0  0  0  0  0  0
   -6.0186   -2.3966   -0.2433 H   0  0  0  0  0  0  0  0  0  0  0  0
   -5.6330   -2.9381    1.9859 H   0  0  0  0  0  0  0  0  0  0  0  0
   -4.2230   -1.8674    1.7936 H   0  0  0  0  0  0  0  0  0  0  0  0
   -8.5953    0.3284    1.2243 H   0  0  0  0  0  0  0  0  0  0  0  0
   -5.7630   -1.5419    3.7616 H   0  0  0  0  0  0  0  0  0  0  0  0
   -5.1677   -0.1026    2.9338 H   0  0  0  0  0  0  0  0  0  0  0  0
  1  2  2  0
  1  3  2  0
  1  4  1  0
  1  5  1  0
  4  6  1  0
  4  7  1  0
  5  8  1  0
  6  9  1  0
  7 10  1  0
  8 11  1  0
  9 11  1  0
 10 12  2  0
 10 13  1  0
 11 14  1  0
 12 15  1  0
 13 16  2  0
 14 17  2  0
 14 18  1  0
 15 19  1  0
 15 20  2  0
 16 20  1  0
 18 21  1  0
 19 22  2  0
 19 23  1  0
 21 24  1  0
 21 25  1  0
 21 26  1  0
 27 23  1  0
 27 28  1  0
 27 29  1  0
 28 30  2  0
 28 31  1  0
 29 32  1  0
 31 33  1  0
 32 33  1  0
 33 34  2  0
  5 35  1  0
  5 36  1  0
  6 37  1  0
  6 38  1  0
  7 39  1  0
  7 40  1  0
  8 41  1  0
  8 42  1  0
  9 43  1  0
  9 44  1  0
 12 45  1  0
 13 46  1  0
 16 47  1  0
 20 48  1  0
 23 49  1  0
 24 50  1  0
 24 51  1  0
 24 52  1  0
 25 53  1  0
 25 54  1  0
 25 55  1  0
 26 56  1  0
 26 57  1  0
 26 58  1  0
 27 59  1  6
 29 60  1  0
 29 61  1  0
 31 62  1  0
 32 63  1  0
 32 64  1  0
M  END
>  <Molecule Name>  (11) 
Compound 7

>  <EC50 (µM) (Excel)>  (11) 
4.1

>  <Error (µM)>  (11) 
0.2

>  <HTRC CRBN-DDB1 EC50 (µM)>  (11) 
4.06 ±  0.18

>  <EC50 fitting (µM)>  (11) 
3.77

>  <Modèle Fitting>  (11) 
4PL

>  <Parent_Compound>  (11) 
Compound 7

>  <MMFF94s_energy_kcalmol>  (11) 
145.431

$$$$
Compound_7_ent2
     RDKit          3D

 64 66  0  0  0  0  0  0  0  0999 V2000
    0.6707   -0.9720    0.5269 S   0  0  0  0  0  6  0  0  0  0  0  0
   -0.6566   -1.6551    0.5186 O   0  0  0  0  0  0  0  0  0  0  0  0
    1.6483   -2.0133    1.0719 O   0  0  0  0  0  0  0  0  0  0  0  0
    0.7847    0.3873    1.4819 N   0  0  0  0  0  0  0  0  0  0  0  0
    1.1652   -0.7205   -1.1625 C   0  0  0  0  0  0  0  0  0  0  0  0
    2.1045    0.8285    1.6998 C   0  0  0  0  0  0  0  0  0  0  0  0
   -0.2509    0.7994    2.3150 C   0  0  0  0  0  0  0  0  0  0  0  0
    2.6566   -0.5783   -1.3080 C   0  0  0  0  0  0  0  0  0  0  0  0
    2.7073    1.3654    0.3980 C   0  0  0  0  0  0  0  0  0  0  0  0
   -1.2058    1.7587    1.7860 C   0  0  0  0  0  0  0  0  0  0  0  0
    3.2716    0.2380   -0.3104 N   0  0  0  0  0  0  0  0  0  0  0  0
   -2.3409    1.3389    1.1324 C   0  0  0  0  0  0  0  0  0  0  0  0
   -0.9926    3.1032    1.9245 C   0  0  0  0  0  0  0  0  0  0  0  0
    4.6130   -0.0792    0.0484 C   0  0  0  0  0  0  0  0  0  0  0  0
   -3.2686    2.2020    0.6130 C   0  0  0  0  0  0  0  0  0  0  0  0
   -1.8824    4.0074    1.4275 C   0  0  0  0  0  0  0  0  0  0  0  0
    5.2488    0.5712    0.9110 O   0  0  0  0  0  0  0  0  0  0  0  0
    5.2617   -1.1423   -0.5649 O   0  0  0  0  0  0  0  0  0  0  0  0
   -4.4674    1.7973   -0.0811 C   0  0  0  0  0  0  0  0  0  0  0  0
   -3.0220    3.5503    0.7707 C   0  0  0  0  0  0  0  0  0  0  0  0
    6.5948   -1.4484   -0.2012 C   0  0  0  0  0  0  0  0  0  0  0  0
   -5.2884    2.6689   -0.5374 O   0  0  0  0  0  0  0  0  0  0  0  0
   -4.8218    0.4537   -0.3066 N   0  0  0  0  0  0  0  0  0  0  0  0
    7.5247   -0.2806   -0.4692 C   0  0  0  0  0  0  0  0  0  0  0  0
    6.6104   -1.7449    1.2721 C   0  0  0  0  0  0  0  0  0  0  0  0
    7.0078   -2.6797   -0.9659 C   0  0  0  0  0  0  0  0  0  0  0  0
   -6.0491    0.0754   -1.0188 C   0  0  1  0  0  0  0  0  0  0  0  0
   -5.6653   -0.7441   -2.1970 C   0  0  0  0  0  0  0  0  0  0  0  0
   -6.9197   -0.8268   -0.1400 C   0  0  0  0  0  0  0  0  0  0  0  0
   -4.5266   -0.7119   -2.7264 O   0  0  0  0  0  0  0  0  0  0  0  0
   -6.6605   -1.6039   -2.7350 N   0  0  0  0  0  0  0  0  0  0  0  0
   -8.2605   -0.9225   -0.8711 C   0  0  0  0  0  0  0  0  0  0  0  0
   -7.9791   -1.5626   -2.1914 C   0  0  0  0  0  0  0  0  0  0  0  0
   -8.9551   -2.0666   -2.8086 O   0  0  0  0  0  0  0  0  0  0  0  0
    0.8702   -1.6462   -1.7122 H   0  0  0  0  0  0  0  0  0  0  0  0
    0.6369    0.1164   -1.6393 H   0  0  0  0  0  0  0  0  0  0  0  0
    2.7272   -0.0157    2.0795 H   0  0  0  0  0  0  0  0  0  0  0  0
    2.0830    1.6335    2.4802 H   0  0  0  0  0  0  0  0  0  0  0  0
   -0.8094   -0.1292    2.6531 H   0  0  0  0  0  0  0  0  0  0  0  0
    0.2187    1.1451    3.2888 H   0  0  0  0  0  0  0  0  0  0  0  0
    3.0844   -1.6233   -1.2731 H   0  0  0  0  0  0  0  0  0  0  0  0
    2.8457   -0.2200   -2.3422 H   0  0  0  0  0  0  0  0  0  0  0  0
    1.9244    1.8609   -0.2200 H   0  0  0  0  0  0  0  0  0  0  0  0
    3.5011    2.0814    0.6771 H   0  0  0  0  0  0  0  0  0  0  0  0
   -2.5495    0.2625    1.0015 H   0  0  0  0  0  0  0  0  0  0  0  0
   -0.0924    3.4642    2.4430 H   0  0  0  0  0  0  0  0  0  0  0  0
   -1.6750    5.0608    1.5590 H   0  0  0  0  0  0  0  0  0  0  0  0
   -3.6853    4.3287    0.4011 H   0  0  0  0  0  0  0  0  0  0  0  0
   -4.1988   -0.3023    0.0391 H   0  0  0  0  0  0  0  0  0  0  0  0
    8.1830   -0.1228    0.4049 H   0  0  0  0  0  0  0  0  0  0  0  0
    8.1643   -0.5288   -1.3503 H   0  0  0  0  0  0  0  0  0  0  0  0
    6.9915    0.6621   -0.6579 H   0  0  0  0  0  0  0  0  0  0  0  0
    5.6643   -2.1562    1.6575 H   0  0  0  0  0  0  0  0  0  0  0  0
    6.8775   -0.8565    1.8809 H   0  0  0  0  0  0  0  0  0  0  0  0
    7.4035   -2.5265    1.4426 H   0  0  0  0  0  0  0  0  0  0  0  0
    7.4538   -2.3785   -1.9176 H   0  0  0  0  0  0  0  0  0  0  0  0
    7.6900   -3.3220   -0.3588 H   0  0  0  0  0  0  0  0  0  0  0  0
    6.0975   -3.2882   -1.1528 H   0  0  0  0  0  0  0  0  0  0  0  0
   -6.6036    0.9715   -1.3333 H   0  0  0  0  0  0  0  0  0  0  0  0
   -6.4181   -1.8132   -0.0638 H   0  0  0  0  0  0  0  0  0  0  0  0
   -7.0186   -0.3908    0.8602 H   0  0  0  0  0  0  0  0  0  0  0  0
   -6.4662   -2.2686   -3.5164 H   0  0  0  0  0  0  0  0  0  0  0  0
   -8.9524   -1.5193   -0.2518 H   0  0  0  0  0  0  0  0  0  0  0  0
   -8.6043    0.1282   -0.9911 H   0  0  0  0  0  0  0  0  0  0  0  0
  1  2  2  0
  1  3  2  0
  1  4  1  0
  1  5  1  0
  4  6  1  0
  4  7  1  0
  5  8  1  0
  6  9  1  0
  7 10  1  0
  8 11  1  0
  9 11  1  0
 10 12  2  0
 10 13  1  0
 11 14  1  0
 12 15  1  0
 13 16  2  0
 14 17  2  0
 14 18  1  0
 15 19  1  0
 15 20  2  0
 16 20  1  0
 18 21  1  0
 19 22  2  0
 19 23  1  0
 21 24  1  0
 21 25  1  0
 21 26  1  0
 27 23  1  0
 27 28  1  0
 27 29  1  0
 28 30  2  0
 28 31  1  0
 29 32  1  0
 31 33  1  0
 32 33  1  0
 33 34  2  0
  5 35  1  0
  5 36  1  0
  6 37  1  0
  6 38  1  0
  7 39  1  0
  7 40  1  0
  8 41  1  0
  8 42  1  0
  9 43  1  0
  9 44  1  0
 12 45  1  0
 13 46  1  0
 16 47  1  0
 20 48  1  0
 23 49  1  0
 24 50  1  0
 24 51  1  0
 24 52  1  0
 25 53  1  0
 25 54  1  0
 25 55  1  0
 26 56  1  0
 26 57  1  0
 26 58  1  0
 27 59  1  6
 29 60  1  0
 29 61  1  0
 31 62  1  0
 32 63  1  0
 32 64  1  0
M  END
>  <Molecule Name>  (12) 
Compound 7

>  <EC50 (µM) (Excel)>  (12) 
4.1

>  <Error (µM)>  (12) 
0.2

>  <HTRC CRBN-DDB1 EC50 (µM)>  (12) 
4.06 ±  0.18

>  <EC50 fitting (µM)>  (12) 
3.77

>  <Modèle Fitting>  (12) 
4PL

>  <Parent_Compound>  (12) 
Compound 7

>  <MMFF94s_energy_kcalmol>  (12) 
148.317

$$$$
Compound_8_ent1
     RDKit          3D

 51 52  0  0  0  0  0  0  0  0999 V2000
    0.6828    0.0000    0.0000 Cl  0  0  0  0  0  0  0  0  0  0  0  0
    4.0997    0.2295    1.3194 S   0  0  0  0  0  6  0  0  0  0  0  0
    4.6797   -0.7938    2.2817 O   0  0  0  0  0  0  0  0  0  0  0  0
    3.3972    1.3058    2.0651 O   0  0  0  0  0  0  0  0  0  0  0  0
    3.0394   -0.4991    0.2050 N   0  0  0  0  0  0  0  0  0  0  0  0
    5.4435    0.9770    0.3833 C   0  0  0  0  0  0  0  0  0  0  0  0
    3.5782   -1.6218   -0.4939 C   0  0  0  0  0  0  0  0  0  0  0  0
    2.5245    0.4515   -0.7304 C   0  0  0  0  0  0  0  0  0  0  0  0
    5.9727   -0.0942   -0.5806 C   0  0  0  0  0  0  0  0  0  0  0  0
    4.8630   -2.1764    0.0268 C   0  0  0  0  0  0  0  0  0  0  0  0
    1.2084    0.9929   -0.3088 C   0  0  0  0  0  0  0  0  0  0  0  0
    5.9485   -1.3188    0.1295 N   0  0  0  0  0  0  0  0  0  0  0  0
    0.0913    0.1906   -0.5845 C   0  0  0  0  0  0  0  0  0  0  0  0
    1.0648    2.2009    0.2859 C   0  0  0  0  0  0  0  0  0  0  0  0
   -1.1849    0.5981   -0.2622 C   0  0  0  0  0  0  0  0  0  0  0  0
   -0.2268    2.6289    0.6201 C   0  0  0  0  0  0  0  0  0  0  0  0
   -2.3243   -0.2734   -0.5691 C   0  0  0  0  0  0  0  0  0  0  0  0
   -1.3111    1.8267    0.3416 C   0  0  0  0  0  0  0  0  0  0  0  0
   -2.1251   -1.3903   -1.1256 O   0  0  0  0  0  0  0  0  0  0  0  0
   -3.6447    0.0720   -0.2730 N   0  0  0  0  0  0  0  0  0  0  0  0
   -4.7873   -0.8059   -0.5826 C   0  0  2  0  0  0  0  0  0  0  0  0
   -5.7195   -0.1113   -1.4983 C   0  0  0  0  0  0  0  0  0  0  0  0
   -5.4225   -1.2065    0.7081 C   0  0  0  0  0  0  0  0  0  0  0  0
   -5.7284   -0.3752   -2.7254 O   0  0  0  0  0  0  0  0  0  0  0  0
   -6.5984    0.8567   -0.9523 N   0  0  0  0  0  0  0  0  0  0  0  0
   -5.9814    0.0313    1.3759 C   0  0  0  0  0  0  0  0  0  0  0  0
   -6.8051    0.8462    0.4722 C   0  0  0  0  0  0  0  0  0  0  0  0
   -7.7219    1.5594    0.9537 O   0  0  0  0  0  0  0  0  0  0  0  0
   -0.6828    0.0000    0.0000 H   0  0  0  0  0  0  0  0  0  0  0  0
    5.0046    1.8026   -0.1991 H   0  0  0  0  0  0  0  0  0  0  0  0
    6.2249    1.3165    1.0613 H   0  0  0  0  0  0  0  0  0  0  0  0
    2.8300   -2.4509   -0.4669 H   0  0  0  0  0  0  0  0  0  0  0  0
    3.6686   -1.3609   -1.5803 H   0  0  0  0  0  0  0  0  0  0  0  0
    2.4429    0.0227   -1.7601 H   0  0  0  0  0  0  0  0  0  0  0  0
    3.1737    1.3552   -0.8721 H   0  0  0  0  0  0  0  0  0  0  0  0
    6.9622    0.2123   -0.9376 H   0  0  0  0  0  0  0  0  0  0  0  0
    5.3176   -0.1757   -1.4706 H   0  0  0  0  0  0  0  0  0  0  0  0
    4.6308   -2.7036    0.9832 H   0  0  0  0  0  0  0  0  0  0  0  0
    5.1461   -3.0062   -0.6965 H   0  0  0  0  0  0  0  0  0  0  0  0
    6.6132   -1.4296    0.8994 H   0  0  0  0  0  0  0  0  0  0  0  0
    0.2054   -0.7771   -1.0616 H   0  0  0  0  0  0  0  0  0  0  0  0
    1.9208    2.8254    0.4823 H   0  0  0  0  0  0  0  0  0  0  0  0
   -0.3045    3.5969    1.0937 H   0  0  0  0  0  0  0  0  0  0  0  0
   -2.2958    2.1803    0.6095 H   0  0  0  0  0  0  0  0  0  0  0  0
   -3.8551    0.9811    0.1847 H   0  0  0  0  0  0  0  0  0  0  0  0
   -4.3471   -1.7056   -1.0583 H   0  0  0  0  0  0  0  0  0  0  0  0
   -6.2190   -1.9583    0.5283 H   0  0  0  0  0  0  0  0  0  0  0  0
   -4.6432   -1.6244    1.3661 H   0  0  0  0  0  0  0  0  0  0  0  0
   -7.0784    1.5532   -1.5684 H   0  0  0  0  0  0  0  0  0  0  0  0
   -6.6080   -0.2916    2.2336 H   0  0  0  0  0  0  0  0  0  0  0  0
   -5.1189    0.6366    1.7480 H   0  0  0  0  0  0  0  0  0  0  0  0
  2  3  2  0
  2  4  2  0
  2  5  1  0
  2  6  1  0
  5  7  1  0
  5  8  1  0
  6  9  1  0
  7 10  1  0
  8 11  1  0
  9 12  1  0
 10 12  1  0
 11 13  2  0
 11 14  1  0
 13 15  1  0
 14 16  2  0
 15 17  1  0
 15 18  2  0
 16 18  1  0
 17 19  2  0
 17 20  1  0
 21 20  1  0
 21 22  1  0
 21 23  1  0
 22 24  2  0
 22 25  1  0
 23 26  1  0
 25 27  1  0
 26 27  1  0
 27 28  2  0
  1 29  1  0
  6 30  1  0
  6 31  1  0
  7 32  1  0
  7 33  1  0
  8 34  1  0
  8 35  1  0
  9 36  1  0
  9 37  1  0
 10 38  1  0
 10 39  1  0
 12 40  1  0
 13 41  1  0
 14 42  1  0
 16 43  1  0
 18 44  1  0
 20 45  1  0
 21 46  1  6
 23 47  1  0
 23 48  1  0
 25 49  1  0
 26 50  1  0
 26 51  1  0
M  END
>  <Molecule Name>  (13) 
Compound 8

>  <EC50 (µM) (Excel)>  (13) 
6.8

>  <Error (µM)>  (13) 
1.0

>  <HTRC CRBN-DDB1 EC50 (µM)>  (13) 
6.77 ±  1.02

>  <EC50 fitting (µM)>  (13) 
7.19

>  <Modèle Fitting>  (13) 
4PL

>  <Parent_Compound>  (13) 
Compound 8

>  <MMFF94s_energy_kcalmol>  (13) 
133.791

$$$$
Compound_8_ent2
     RDKit          3D

 51 52  0  0  0  0  0  0  0  0999 V2000
    0.6828    0.0000    0.0000 Cl  0  0  0  0  0  0  0  0  0  0  0  0
    4.5250    0.7152    0.3485 S   0  0  0  0  0  6  0  0  0  0  0  0
    4.3619   -0.5604    1.1004 O   0  0  0  0  0  0  0  0  0  0  0  0
    4.7718    1.8909    1.2534 O   0  0  0  0  0  0  0  0  0  0  0  0
    3.1415    0.9640   -0.6156 N   0  0  0  0  0  0  0  0  0  0  0  0
    5.9178    0.4913   -0.7666 C   0  0  0  0  0  0  0  0  0  0  0  0
    3.4156    1.4161   -1.9417 C   0  0  0  0  0  0  0  0  0  0  0  0
    2.2831    1.9342    0.0347 C   0  0  0  0  0  0  0  0  0  0  0  0
    5.6931   -0.7851   -1.5475 C   0  0  0  0  0  0  0  0  0  0  0  0
    4.0228    0.3596   -2.8271 C   0  0  0  0  0  0  0  0  0  0  0  0
    1.2807    1.3148    0.9296 C   0  0  0  0  0  0  0  0  0  0  0  0
    4.3373   -0.8219   -2.0528 N   0  0  0  0  0  0  0  0  0  0  0  0
    0.0656    0.9752    0.3860 C   0  0  0  0  0  0  0  0  0  0  0  0
    1.5289    1.0796    2.2482 C   0  0  0  0  0  0  0  0  0  0  0  0
   -0.9154    0.3993    1.1435 C   0  0  0  0  0  0  0  0  0  0  0  0
    0.5309    0.4964    3.0081 C   0  0  0  0  0  0  0  0  0  0  0  0
   -2.1982    0.0550    0.5157 C   0  0  0  0  0  0  0  0  0  0  0  0
   -0.6978    0.1524    2.4610 C   0  0  0  0  0  0  0  0  0  0  0  0
   -2.3491    0.3092   -0.7275 O   0  0  0  0  0  0  0  0  0  0  0  0
   -3.2781   -0.5349    1.1780 N   0  0  0  0  0  0  0  0  0  0  0  0
   -4.4925   -0.8284    0.4549 C   0  0  1  0  0  0  0  0  0  0  0  0
   -4.8058   -2.2784    0.4552 C   0  0  0  0  0  0  0  0  0  0  0  0
   -5.6877   -0.1057    1.0223 C   0  0  0  0  0  0  0  0  0  0  0  0
   -4.0066   -3.1829    0.8038 O   0  0  0  0  0  0  0  0  0  0  0  0
   -6.1064   -2.6491    0.0277 N   0  0  0  0  0  0  0  0  0  0  0  0
   -6.7992   -0.2241   -0.0241 C   0  0  0  0  0  0  0  0  0  0  0  0
   -7.0105   -1.6412   -0.4052 C   0  0  0  0  0  0  0  0  0  0  0  0
   -7.9983   -1.9229   -1.1123 O   0  0  0  0  0  0  0  0  0  0  0  0
   -0.6828    0.0000    0.0000 H   0  0  0  0  0  0  0  0  0  0  0  0
    5.8631    1.3517   -1.4753 H   0  0  0  0  0  0  0  0  0  0  0  0
    6.8466    0.4780   -0.1885 H   0  0  0  0  0  0  0  0  0  0  0  0
    2.4291    1.6948   -2.4003 H   0  0  0  0  0  0  0  0  0  0  0  0
    4.0330    2.3140   -1.8942 H   0  0  0  0  0  0  0  0  0  0  0  0
    1.8007    2.6158   -0.7258 H   0  0  0  0  0  0  0  0  0  0  0  0
    2.8771    2.6406    0.6851 H   0  0  0  0  0  0  0  0  0  0  0  0
    6.4353   -0.9012   -2.3669 H   0  0  0  0  0  0  0  0  0  0  0  0
    5.8564   -1.6433   -0.8650 H   0  0  0  0  0  0  0  0  0  0  0  0
    3.3579    0.0518   -3.6427 H   0  0  0  0  0  0  0  0  0  0  0  0
    4.9821    0.7601   -3.2145 H   0  0  0  0  0  0  0  0  0  0  0  0
    4.0949   -1.6902   -2.5295 H   0  0  0  0  0  0  0  0  0  0  0  0
   -0.1247    1.1682   -0.6756 H   0  0  0  0  0  0  0  0  0  0  0  0
    2.4875    1.3504    2.6681 H   0  0  0  0  0  0  0  0  0  0  0  0
    0.7204    0.3045    4.0643 H   0  0  0  0  0  0  0  0  0  0  0  0
   -1.4669   -0.3086    3.0916 H   0  0  0  0  0  0  0  0  0  0  0  0
   -3.2074   -0.7603    2.1836 H   0  0  0  0  0  0  0  0  0  0  0  0
   -4.4094   -0.5259   -0.6105 H   0  0  0  0  0  0  0  0  0  0  0  0
   -6.0537   -0.6680    1.9043 H   0  0  0  0  0  0  0  0  0  0  0  0
   -5.5142    0.9481    1.2344 H   0  0  0  0  0  0  0  0  0  0  0  0
   -6.3913   -3.6525    0.0332 H   0  0  0  0  0  0  0  0  0  0  0  0
   -7.7260    0.2614    0.3113 H   0  0  0  0  0  0  0  0  0  0  0  0
   -6.4209    0.2919   -0.9377 H   0  0  0  0  0  0  0  0  0  0  0  0
  2  3  2  0
  2  4  2  0
  2  5  1  0
  2  6  1  0
  5  7  1  0
  5  8  1  0
  6  9  1  0
  7 10  1  0
  8 11  1  0
  9 12  1  0
 10 12  1  0
 11 13  2  0
 11 14  1  0
 13 15  1  0
 14 16  2  0
 15 17  1  0
 15 18  2  0
 16 18  1  0
 17 19  2  0
 17 20  1  0
 21 20  1  0
 21 22  1  0
 21 23  1  0
 22 24  2  0
 22 25  1  0
 23 26  1  0
 25 27  1  0
 26 27  1  0
 27 28  2  0
  1 29  1  0
  6 30  1  0
  6 31  1  0
  7 32  1  0
  7 33  1  0
  8 34  1  0
  8 35  1  0
  9 36  1  0
  9 37  1  0
 10 38  1  0
 10 39  1  0
 12 40  1  0
 13 41  1  0
 14 42  1  0
 16 43  1  0
 18 44  1  0
 20 45  1  0
 21 46  1  6
 23 47  1  0
 23 48  1  0
 25 49  1  0
 26 50  1  0
 26 51  1  0
M  END
>  <Molecule Name>  (14) 
Compound 8

>  <EC50 (µM) (Excel)>  (14) 
6.8

>  <Error (µM)>  (14) 
1.0

>  <HTRC CRBN-DDB1 EC50 (µM)>  (14) 
6.77 ±  1.02

>  <EC50 fitting (µM)>  (14) 
7.19

>  <Modèle Fitting>  (14) 
4PL

>  <Parent_Compound>  (14) 
Compound 8

>  <MMFF94s_energy_kcalmol>  (14) 
109.581

$$$$
Compound_9_ent1
     RDKit          3D

 62 64  0  0  0  0  0  0  0  0999 V2000
   -1.2882    1.1757    0.9658 S   0  0  0  0  0  6  0  0  0  0  0  0
   -1.0222    1.1164    2.4665 O   0  0  0  0  0  0  0  0  0  0  0  0
   -0.0963    1.9419    0.4022 O   0  0  0  0  0  0  0  0  0  0  0  0
   -1.3261   -0.3408    0.3512 N   0  0  0  0  0  0  0  0  0  0  0  0
   -2.7024    2.1943    0.7480 C   0  0  0  0  0  0  0  0  0  0  0  0
   -2.1690   -0.7917   -0.6444 C   0  0  0  0  0  0  0  0  0  0  0  0
   -0.5034   -1.2768    1.0247 C   0  0  0  0  0  0  0  0  0  0  0  0
   -3.9271    1.3188    1.0192 C   0  0  0  0  0  0  0  0  0  0  0  0
   -3.2172    0.1348   -1.1648 C   0  0  0  0  0  0  0  0  0  0  0  0
    0.8317   -1.3389    0.3746 C   0  0  0  0  0  0  0  0  0  0  0  0
   -4.1648    0.5623   -0.1887 N   0  0  0  0  0  0  0  0  0  0  0  0
    1.9036   -0.5512    0.7321 C   0  0  0  0  0  0  0  0  0  0  0  0
    1.0672   -2.2421   -0.6685 C   0  0  0  0  0  0  0  0  0  0  0  0
   -5.5186    0.2126   -0.4041 C   0  0  0  0  0  0  0  0  0  0  0  0
    3.1281   -0.6451    0.1057 C   0  0  0  0  0  0  0  0  0  0  0  0
    2.2719   -2.3471   -1.2984 C   0  0  0  0  0  0  0  0  0  0  0  0
   -5.7913   -0.4487   -1.4473 O   0  0  0  0  0  0  0  0  0  0  0  0
   -6.6072    0.5882    0.5352 C   0  0  0  0  0  0  0  0  0  0  0  0
    4.2101    0.2186    0.5389 C   0  0  0  0  0  0  0  0  0  0  0  0
    3.3450   -1.5336   -0.9143 C   0  0  0  0  0  0  0  0  0  0  0  0
   -7.8907    0.1164    0.1067 N   0  0  0  0  0  0  0  0  0  0  0  0
    4.0360    1.1004    1.4437 O   0  0  0  0  0  0  0  0  0  0  0  0
    5.5262    0.1619    0.0101 N   0  0  0  0  0  0  0  0  0  0  0  0
   -8.0580   -1.3020    0.1470 C   0  0  0  0  0  0  0  0  0  0  0  0
   -8.2720    0.6289   -1.1947 C   0  0  0  0  0  0  0  0  0  0  0  0
    6.5886    1.0626    0.4841 C   0  0  2  0  0  0  0  0  0  0  0  0
    7.1228    1.7597   -0.6927 C   0  0  0  0  0  0  0  0  0  0  0  0
    7.6311    0.2809    1.2562 C   0  0  0  0  0  0  0  0  0  0  0  0
    6.7533    2.9283   -1.0317 O   0  0  0  0  0  0  0  0  0  0  0  0
    8.1051    1.0802   -1.4869 N   0  0  0  0  0  0  0  0  0  0  0  0
    8.6114   -0.4515    0.4126 C   0  0  0  0  0  0  0  0  0  0  0  0
    8.5430   -0.1830   -1.0218 C   0  0  0  0  0  0  0  0  0  0  0  0
    8.8699   -1.0617   -1.8453 O   0  0  0  0  0  0  0  0  0  0  0  0
   -2.7614    2.6646   -0.2514 H   0  0  0  0  0  0  0  0  0  0  0  0
   -2.6584    3.0403    1.4741 H   0  0  0  0  0  0  0  0  0  0  0  0
   -2.7156   -1.7118   -0.2748 H   0  0  0  0  0  0  0  0  0  0  0  0
   -1.5770   -1.1618   -1.5158 H   0  0  0  0  0  0  0  0  0  0  0  0
   -0.3423   -1.0360    2.1119 H   0  0  0  0  0  0  0  0  0  0  0  0
   -0.9244   -2.3124    0.9552 H   0  0  0  0  0  0  0  0  0  0  0  0
   -4.7597    1.9749    1.3081 H   0  0  0  0  0  0  0  0  0  0  0  0
   -3.6387    0.6381    1.8733 H   0  0  0  0  0  0  0  0  0  0  0  0
   -2.6720    1.0264   -1.5980 H   0  0  0  0  0  0  0  0  0  0  0  0
   -3.7009   -0.3508   -2.0432 H   0  0  0  0  0  0  0  0  0  0  0  0
    1.7905    0.1606    1.5232 H   0  0  0  0  0  0  0  0  0  0  0  0
    0.2506   -2.8871   -0.9879 H   0  0  0  0  0  0  0  0  0  0  0  0
    2.4567   -3.0452   -2.1069 H   0  0  0  0  0  0  0  0  0  0  0  0
   -6.4229    0.1866    1.5470 H   0  0  0  0  0  0  0  0  0  0  0  0
   -6.6318    1.6973    0.5939 H   0  0  0  0  0  0  0  0  0  0  0  0
    4.2816   -1.6541   -1.4466 H   0  0  0  0  0  0  0  0  0  0  0  0
    5.7720   -0.5305   -0.7362 H   0  0  0  0  0  0  0  0  0  0  0  0
   -7.1007   -1.7953   -0.0629 H   0  0  0  0  0  0  0  0  0  0  0  0
   -8.3786   -1.5850    1.1894 H   0  0  0  0  0  0  0  0  0  0  0  0
   -8.8657   -1.6178   -0.5559 H   0  0  0  0  0  0  0  0  0  0  0  0
   -8.1239   -0.1179   -2.0134 H   0  0  0  0  0  0  0  0  0  0  0  0
   -7.8048    1.5988   -1.3921 H   0  0  0  0  0  0  0  0  0  0  0  0
   -9.3745    0.8071   -1.1585 H   0  0  0  0  0  0  0  0  0  0  0  0
    6.1056    1.7529    1.2059 H   0  0  0  0  0  0  0  0  0  0  0  0
    7.0409   -0.4835    1.8440 H   0  0  0  0  0  0  0  0  0  0  0  0
    8.1281    0.9493    1.9987 H   0  0  0  0  0  0  0  0  0  0  0  0
    8.4866    1.5072   -2.3850 H   0  0  0  0  0  0  0  0  0  0  0  0
    9.6307   -0.2148    0.8012 H   0  0  0  0  0  0  0  0  0  0  0  0
    8.5196   -1.5689    0.5548 H   0  0  0  0  0  0  0  0  0  0  0  0
  1  2  2  0
  1  3  2  0
  1  4  1  0
  1  5  1  0
  4  6  1  0
  4  7  1  0
  5  8  1  0
  6  9  1  0
  7 10  1  0
  8 11  1  0
  9 11  1  0
 10 12  2  0
 10 13  1  0
 11 14  1  0
 12 15  1  0
 13 16  2  0
 14 17  2  0
 14 18  1  0
 15 19  1  0
 15 20  2  0
 16 20  1  0
 18 21  1  0
 19 22  2  0
 19 23  1  0
 21 24  1  0
 21 25  1  0
 26 23  1  0
 26 27  1  0
 26 28  1  0
 27 29  2  0
 27 30  1  0
 28 31  1  0
 30 32  1  0
 31 32  1  0
 32 33  2  0
  5 34  1  0
  5 35  1  0
  6 36  1  0
  6 37  1  0
  7 38  1  0
  7 39  1  0
  8 40  1  0
  8 41  1  0
  9 42  1  0
  9 43  1  0
 12 44  1  0
 13 45  1  0
 16 46  1  0
 18 47  1  0
 18 48  1  0
 20 49  1  0
 23 50  1  0
 24 51  1  0
 24 52  1  0
 24 53  1  0
 25 54  1  0
 25 55  1  0
 25 56  1  0
 26 57  1  1
 28 58  1  0
 28 59  1  0
 30 60  1  0
 31 61  1  0
 31 62  1  0
M  END
>  <Molecule Name>  (15) 
Compound 9

>  <EC50 (µM) (Excel)>  (15) 
54.0

>  <Error (µM)>  (15) 
9.3

>  <HTRC CRBN-DDB1 EC50 (µM)>  (15) 
53.95 ±  9.32

>  <EC50 fitting (µM)>  (15) 
108.30

>  <Modèle Fitting>  (15) 
4PL

>  <Parent_Compound>  (15) 
Compound 9

>  <MMFF94s_energy_kcalmol>  (15) 
165.178

$$$$
Compound_9_ent2
     RDKit          3D

 62 64  0  0  0  0  0  0  0  0999 V2000
   -1.2181    1.5919    0.1495 S   0  0  0  0  0  6  0  0  0  0  0  0
   -0.5843    2.1643    1.3841 O   0  0  0  0  0  0  0  0  0  0  0  0
   -0.3265    1.9681   -1.0102 O   0  0  0  0  0  0  0  0  0  0  0  0
   -1.3605   -0.0554    0.2575 N   0  0  0  0  0  0  0  0  0  0  0  0
   -2.7546    2.4408   -0.0945 C   0  0  0  0  0  0  0  0  0  0  0  0
   -2.0430   -0.7940   -0.7021 C   0  0  0  0  0  0  0  0  0  0  0  0
   -0.6622   -0.6869    1.2910 C   0  0  0  0  0  0  0  0  0  0  0  0
   -3.8177    1.5410    0.4997 C   0  0  0  0  0  0  0  0  0  0  0  0
   -3.2135   -0.1530   -1.3729 C   0  0  0  0  0  0  0  0  0  0  0  0
    0.6894   -1.1462    0.8375 C   0  0  0  0  0  0  0  0  0  0  0  0
   -4.1102    0.5249   -0.4787 N   0  0  0  0  0  0  0  0  0  0  0  0
    1.7946   -0.3364    0.9435 C   0  0  0  0  0  0  0  0  0  0  0  0
    0.8605   -2.4149    0.2967 C   0  0  0  0  0  0  0  0  0  0  0  0
   -5.4698    0.1547   -0.5534 C   0  0  0  0  0  0  0  0  0  0  0  0
    3.0616   -0.7121    0.5441 C   0  0  0  0  0  0  0  0  0  0  0  0
    2.1081   -2.8187   -0.1103 C   0  0  0  0  0  0  0  0  0  0  0  0
   -5.8287   -0.7359   -1.3918 O   0  0  0  0  0  0  0  0  0  0  0  0
   -6.5397    0.7312    0.2842 C   0  0  0  0  0  0  0  0  0  0  0  0
    4.1976    0.1903    0.6785 C   0  0  0  0  0  0  0  0  0  0  0  0
    3.2125   -1.9695    0.0117 C   0  0  0  0  0  0  0  0  0  0  0  0
   -7.8312    0.1845    0.0127 N   0  0  0  0  0  0  0  0  0  0  0  0
    4.0291    1.3638    1.1491 O   0  0  0  0  0  0  0  0  0  0  0  0
    5.5115   -0.1510    0.3147 N   0  0  0  0  0  0  0  0  0  0  0  0
   -8.0042   -1.1855    0.3806 C   0  0  0  0  0  0  0  0  0  0  0  0
   -8.3932    0.5541   -1.2466 C   0  0  0  0  0  0  0  0  0  0  0  0
    6.5992    0.8028    0.4774 C   0  0  1  0  0  0  0  0  0  0  0  0
    7.5895    0.3164    1.4596 C   0  0  0  0  0  0  0  0  0  0  0  0
    7.2099    0.9833   -0.8984 C   0  0  0  0  0  0  0  0  0  0  0  0
    7.2362    0.1200    2.6400 O   0  0  0  0  0  0  0  0  0  0  0  0
    8.9345    0.0669    1.0937 N   0  0  0  0  0  0  0  0  0  0  0  0
    8.1238   -0.1837   -1.2438 C   0  0  0  0  0  0  0  0  0  0  0  0
    9.2482   -0.1532   -0.2753 C   0  0  0  0  0  0  0  0  0  0  0  0
   10.4259   -0.3188   -0.6759 O   0  0  0  0  0  0  0  0  0  0  0  0
   -2.9528    2.6401   -1.1803 H   0  0  0  0  0  0  0  0  0  0  0  0
   -2.8021    3.3980    0.4603 H   0  0  0  0  0  0  0  0  0  0  0  0
   -2.3613   -1.7688   -0.2764 H   0  0  0  0  0  0  0  0  0  0  0  0
   -1.3189   -1.0701   -1.5280 H   0  0  0  0  0  0  0  0  0  0  0  0
   -0.5585   -0.0434    2.1892 H   0  0  0  0  0  0  0  0  0  0  0  0
   -1.1974   -1.6168    1.6339 H   0  0  0  0  0  0  0  0  0  0  0  0
   -4.7208    2.1255    0.7826 H   0  0  0  0  0  0  0  0  0  0  0  0
   -3.3515    1.0703    1.4147 H   0  0  0  0  0  0  0  0  0  0  0  0
   -2.8257    0.5458   -2.1618 H   0  0  0  0  0  0  0  0  0  0  0  0
   -3.7413   -0.9493   -1.9657 H   0  0  0  0  0  0  0  0  0  0  0  0
    1.7063    0.6559    1.3583 H   0  0  0  0  0  0  0  0  0  0  0  0
   -0.0289   -3.0601    0.2148 H   0  0  0  0  0  0  0  0  0  0  0  0
    2.2549   -3.8032   -0.5322 H   0  0  0  0  0  0  0  0  0  0  0  0
   -6.3431    0.6361    1.3763 H   0  0  0  0  0  0  0  0  0  0  0  0
   -6.6101    1.8356    0.0872 H   0  0  0  0  0  0  0  0  0  0  0  0
    4.1839   -2.3099   -0.3147 H   0  0  0  0  0  0  0  0  0  0  0  0
    5.7498   -1.0712   -0.0737 H   0  0  0  0  0  0  0  0  0  0  0  0
   -7.8867   -1.8005   -0.5590 H   0  0  0  0  0  0  0  0  0  0  0  0
   -7.1983   -1.4484    1.1123 H   0  0  0  0  0  0  0  0  0  0  0  0
   -8.9722   -1.3925    0.8741 H   0  0  0  0  0  0  0  0  0  0  0  0
   -8.3794   -0.2530   -2.0062 H   0  0  0  0  0  0  0  0  0  0  0  0
   -7.9390    1.5029   -1.6013 H   0  0  0  0  0  0  0  0  0  0  0  0
   -9.4792    0.7911   -1.0663 H   0  0  0  0  0  0  0  0  0  0  0  0
    6.2040    1.7535    0.8741 H   0  0  0  0  0  0  0  0  0  0  0  0
    7.7587    1.9261   -0.9404 H   0  0  0  0  0  0  0  0  0  0  0  0
    6.4081    0.9750   -1.6771 H   0  0  0  0  0  0  0  0  0  0  0  0
    9.7163    0.0367    1.7876 H   0  0  0  0  0  0  0  0  0  0  0  0
    8.4377   -0.0555   -2.2880 H   0  0  0  0  0  0  0  0  0  0  0  0
    7.5731   -1.1340   -1.0728 H   0  0  0  0  0  0  0  0  0  0  0  0
  1  2  2  0
  1  3  2  0
  1  4  1  0
  1  5  1  0
  4  6  1  0
  4  7  1  0
  5  8  1  0
  6  9  1  0
  7 10  1  0
  8 11  1  0
  9 11  1  0
 10 12  2  0
 10 13  1  0
 11 14  1  0
 12 15  1  0
 13 16  2  0
 14 17  2  0
 14 18  1  0
 15 19  1  0
 15 20  2  0
 16 20  1  0
 18 21  1  0
 19 22  2  0
 19 23  1  0
 21 24  1  0
 21 25  1  0
 26 23  1  0
 26 27  1  0
 26 28  1  0
 27 29  2  0
 27 30  1  0
 28 31  1  0
 30 32  1  0
 31 32  1  0
 32 33  2  0
  5 34  1  0
  5 35  1  0
  6 36  1  0
  6 37  1  0
  7 38  1  0
  7 39  1  0
  8 40  1  0
  8 41  1  0
  9 42  1  0
  9 43  1  0
 12 44  1  0
 13 45  1  0
 16 46  1  0
 18 47  1  0
 18 48  1  0
 20 49  1  0
 23 50  1  0
 24 51  1  0
 24 52  1  0
 24 53  1  0
 25 54  1  0
 25 55  1  0
 25 56  1  0
 26 57  1  1
 28 58  1  0
 28 59  1  0
 30 60  1  0
 31 61  1  0
 31 62  1  0
M  END
>  <Molecule Name>  (16) 
Compound 9

>  <EC50 (µM) (Excel)>  (16) 
54.0

>  <Error (µM)>  (16) 
9.3

>  <HTRC CRBN-DDB1 EC50 (µM)>  (16) 
53.95 ±  9.32

>  <EC50 fitting (µM)>  (16) 
108.30

>  <Modèle Fitting>  (16) 
4PL

>  <Parent_Compound>  (16) 
Compound 9

>  <MMFF94s_energy_kcalmol>  (16) 
152.432

$$$$
Compound_10_ent1
     RDKit          3D

 65 68  0  0  0  0  0  0  0  0999 V2000
   -0.0457    0.6588    0.6214 S   0  0  0  0  0  6  0  0  0  0  0  0
   -0.8371    1.6343   -0.2184 O   0  0  0  0  0  0  0  0  0  0  0  0
   -1.0248    0.1603    1.6847 O   0  0  0  0  0  0  0  0  0  0  0  0
    0.4314   -0.6500   -0.3130 N   0  0  0  0  0  0  0  0  0  0  0  0
    1.2243    1.5592    1.4234 C   0  0  0  0  0  0  0  0  0  0  0  0
    1.7789   -0.7550   -0.7152 C   0  0  0  0  0  0  0  0  0  0  0  0
   -0.3527   -1.8279   -0.2615 C   0  0  0  0  0  0  0  0  0  0  0  0
    2.5152    1.6466    0.6668 C   0  0  0  0  0  0  0  0  0  0  0  0
    2.7850   -0.8867    0.4074 C   0  0  0  0  0  0  0  0  0  0  0  0
   -1.4452   -1.8648   -1.2684 C   0  0  0  0  0  0  0  0  0  0  0  0
    3.2790    0.4242    0.7286 N   0  0  0  0  0  0  0  0  0  0  0  0
   -2.7081   -1.3662   -0.9908 C   0  0  0  0  0  0  0  0  0  0  0  0
   -1.1533   -2.4114   -2.4996 C   0  0  0  0  0  0  0  0  0  0  0  0
    4.6329    0.4755    1.1376 C   0  0  0  0  0  0  0  0  0  0  0  0
   -3.7300   -1.3922   -1.9286 C   0  0  0  0  0  0  0  0  0  0  0  0
   -2.1575   -2.4454   -3.4439 C   0  0  0  0  0  0  0  0  0  0  0  0
    5.2994   -0.5799    1.1913 O   0  0  0  0  0  0  0  0  0  0  0  0
    5.2918    1.7603    1.5086 C   0  0  0  0  0  0  0  0  0  0  0  0
   -5.0604   -0.8778   -1.6632 C   0  0  0  0  0  0  0  0  0  0  0  0
   -3.4077   -1.9450   -3.1509 C   0  0  0  0  0  0  0  0  0  0  0  0
    6.6351    1.5869    1.8318 O   0  0  0  0  0  0  0  0  0  0  0  0
   -5.9039   -0.9195   -2.5990 O   0  0  0  0  0  0  0  0  0  0  0  0
   -5.4904   -0.3344   -0.4435 N   0  0  0  0  0  0  0  0  0  0  0  0
    7.6365    1.1172    1.0100 C   0  0  0  0  0  0  0  0  0  0  0  0
   -6.8186    0.1772   -0.1864 C   0  0  2  0  0  0  0  0  0  0  0  0
    7.4833    0.7432   -0.2981 C   0  0  0  0  0  0  0  0  0  0  0  0
    8.9184    1.0118    1.5570 C   0  0  0  0  0  0  0  0  0  0  0  0
   -6.8090    1.5589    0.3352 C   0  0  0  0  0  0  0  0  0  0  0  0
   -7.4700   -0.6974    0.8622 C   0  0  0  0  0  0  0  0  0  0  0  0
    8.5552    0.2840   -1.0323 C   0  0  0  0  0  0  0  0  0  0  0  0
    9.9916    0.5536    0.8269 C   0  0  0  0  0  0  0  0  0  0  0  0
   -5.7867    2.2852    0.4297 O   0  0  0  0  0  0  0  0  0  0  0  0
   -8.0706    2.0824    0.7568 N   0  0  0  0  0  0  0  0  0  0  0  0
   -8.8203   -0.2331    1.2832 C   0  0  0  0  0  0  0  0  0  0  0  0
    9.8288    0.1787   -0.4892 C   0  0  0  0  0  0  0  0  0  0  0  0
   -9.1458    1.1601    0.8955 C   0  0  0  0  0  0  0  0  0  0  0  0
  -10.3172    1.5616    0.6854 O   0  0  0  0  0  0  0  0  0  0  0  0
    1.4438    1.0461    2.4050 H   0  0  0  0  0  0  0  0  0  0  0  0
    0.8558    2.5715    1.7244 H   0  0  0  0  0  0  0  0  0  0  0  0
    1.8783   -1.6878   -1.3325 H   0  0  0  0  0  0  0  0  0  0  0  0
    2.0875    0.1356   -1.3186 H   0  0  0  0  0  0  0  0  0  0  0  0
    0.3095   -2.7214   -0.3478 H   0  0  0  0  0  0  0  0  0  0  0  0
   -0.8131   -1.8960    0.7487 H   0  0  0  0  0  0  0  0  0  0  0  0
    3.1693    2.4658    1.0376 H   0  0  0  0  0  0  0  0  0  0  0  0
    2.2882    1.9142   -0.3844 H   0  0  0  0  0  0  0  0  0  0  0  0
    3.6167   -1.5355    0.0285 H   0  0  0  0  0  0  0  0  0  0  0  0
    2.3242   -1.3905    1.2829 H   0  0  0  0  0  0  0  0  0  0  0  0
   -2.9229   -0.9370   -0.0126 H   0  0  0  0  0  0  0  0  0  0  0  0
   -0.1663   -2.8114   -2.7429 H   0  0  0  0  0  0  0  0  0  0  0  0
   -1.9439   -2.8728   -4.4177 H   0  0  0  0  0  0  0  0  0  0  0  0
    4.7675    2.1590    2.3976 H   0  0  0  0  0  0  0  0  0  0  0  0
    5.1650    2.4736    0.6456 H   0  0  0  0  0  0  0  0  0  0  0  0
   -4.2073   -1.9731   -3.9080 H   0  0  0  0  0  0  0  0  0  0  0  0
   -4.8141   -0.2881    0.3489 H   0  0  0  0  0  0  0  0  0  0  0  0
   -7.4781    0.1286   -1.0780 H   0  0  0  0  0  0  0  0  0  0  0  0
    6.5216    0.8102   -0.7754 H   0  0  0  0  0  0  0  0  0  0  0  0
    9.0645    1.2982    2.5787 H   0  0  0  0  0  0  0  0  0  0  0  0
   -7.5888   -1.7347    0.4453 H   0  0  0  0  0  0  0  0  0  0  0  0
   -6.7470   -0.8198    1.6968 H   0  0  0  0  0  0  0  0  0  0  0  0
    8.4434   -0.0142   -2.0672 H   0  0  0  0  0  0  0  0  0  0  0  0
   10.9866    0.4747    1.2604 H   0  0  0  0  0  0  0  0  0  0  0  0
   -8.1763    3.1029    0.9500 H   0  0  0  0  0  0  0  0  0  0  0  0
   -9.6403   -0.9128    0.9335 H   0  0  0  0  0  0  0  0  0  0  0  0
   -8.8282   -0.2411    2.4131 H   0  0  0  0  0  0  0  0  0  0  0  0
   10.6727   -0.1779   -1.0502 H   0  0  0  0  0  0  0  0  0  0  0  0
  1  2  2  0
  1  3  2  0
  1  4  1  0
  1  5  1  0
  4  6  1  0
  4  7  1  0
  5  8  1  0
  6  9  1  0
  7 10  1  0
  8 11  1  0
  9 11  1  0
 10 12  2  0
 10 13  1  0
 11 14  1  0
 12 15  1  0
 13 16  2  0
 14 17  2  0
 14 18  1  0
 15 19  1  0
 15 20  2  0
 16 20  1  0
 18 21  1  0
 19 22  2  0
 19 23  1  0
 21 24  1  0
 24 26  2  0
 24 27  1  0
 25 23  1  0
 25 28  1  0
 25 29  1  0
 26 30  1  0
 27 31  2  0
 28 32  2  0
 28 33  1  0
 29 34  1  0
 30 35  2  0
 31 35  1  0
 33 36  1  0
 34 36  1  0
 36 37  2  0
  5 38  1  0
  5 39  1  0
  6 40  1  0
  6 41  1  0
  7 42  1  0
  7 43  1  0
  8 44  1  0
  8 45  1  0
  9 46  1  0
  9 47  1  0
 12 48  1  0
 13 49  1  0
 16 50  1  0
 18 51  1  0
 18 52  1  0
 20 53  1  0
 23 54  1  0
 25 55  1  6
 26 56  1  0
 27 57  1  0
 29 58  1  0
 29 59  1  0
 30 60  1  0
 31 61  1  0
 33 62  1  0
 34 63  1  0
 34 64  1  0
 35 65  1  0
M  END
>  <Molecule Name>  (17) 
Compound 10

>  <EC50 (µM) (Excel)>  (17) 
14.3

>  <Error (µM)>  (17) 
1.3

>  <HTRC CRBN-DDB1 EC50 (µM)>  (17) 
14.29 ±  1.32

>  <EC50 fitting (µM)>  (17) 
23.96

>  <Modèle Fitting>  (17) 
3PL

>  <Parent_Compound>  (17) 
Compound 10

>  <MMFF94s_energy_kcalmol>  (17) 
144.245

$$$$
Compound_10_ent2
     RDKit          3D

 65 68  0  0  0  0  0  0  0  0999 V2000
   -0.0491    1.0445    0.9581 S   0  0  0  0  0  6  0  0  0  0  0  0
   -1.4089    1.5169    0.4564 O   0  0  0  0  0  0  0  0  0  0  0  0
   -0.3198    0.3467    2.2638 O   0  0  0  0  0  0  0  0  0  0  0  0
    0.5926   -0.0332   -0.1292 N   0  0  0  0  0  0  0  0  0  0  0  0
    0.9162    2.4699    1.3062 C   0  0  0  0  0  0  0  0  0  0  0  0
    1.5107    0.3775   -1.1026 C   0  0  0  0  0  0  0  0  0  0  0  0
   -0.0545   -1.2719   -0.2369 C   0  0  0  0  0  0  0  0  0  0  0  0
    1.8042    2.8887    0.1661 C   0  0  0  0  0  0  0  0  0  0  0  0
    2.8942    0.6475   -0.4814 C   0  0  0  0  0  0  0  0  0  0  0  0
   -1.1421   -1.3712   -1.2311 C   0  0  0  0  0  0  0  0  0  0  0  0
    2.9263    1.9390    0.1217 N   0  0  0  0  0  0  0  0  0  0  0  0
   -2.4665   -1.1175   -0.8899 C   0  0  0  0  0  0  0  0  0  0  0  0
   -0.8826   -1.7164   -2.5394 C   0  0  0  0  0  0  0  0  0  0  0  0
    4.1000    2.3701    0.7294 C   0  0  0  0  0  0  0  0  0  0  0  0
   -3.4935   -1.2012   -1.8048 C   0  0  0  0  0  0  0  0  0  0  0  0
   -1.8799   -1.8128   -3.4909 C   0  0  0  0  0  0  0  0  0  0  0  0
    4.1407    3.5237    1.2772 O   0  0  0  0  0  0  0  0  0  0  0  0
    5.3345    1.5880    0.7970 C   0  0  0  0  0  0  0  0  0  0  0  0
   -4.8862   -0.9442   -1.4858 C   0  0  0  0  0  0  0  0  0  0  0  0
   -3.1677   -1.5513   -3.0974 C   0  0  0  0  0  0  0  0  0  0  0  0
    5.2991    0.3344    0.1987 O   0  0  0  0  0  0  0  0  0  0  0  0
   -5.7426   -1.0505   -2.4045 O   0  0  0  0  0  0  0  0  0  0  0  0
   -5.3505   -0.5778   -0.1950 N   0  0  0  0  0  0  0  0  0  0  0  0
    6.3563   -0.5313    0.1656 C   0  0  0  0  0  0  0  0  0  0  0  0
   -6.7644   -0.3486   -0.0046 C   0  0  1  0  0  0  0  0  0  0  0  0
    7.5464   -0.1767    0.7497 C   0  0  0  0  0  0  0  0  0  0  0  0
    6.2153   -1.7701   -0.4629 C   0  0  0  0  0  0  0  0  0  0  0  0
   -7.3167   -1.1916    1.0787 C   0  0  0  0  0  0  0  0  0  0  0  0
   -6.9900    1.1027    0.3803 C   0  0  0  0  0  0  0  0  0  0  0  0
    8.5732   -1.0868    0.6854 C   0  0  0  0  0  0  0  0  0  0  0  0
    7.2582   -2.6640   -0.5141 C   0  0  0  0  0  0  0  0  0  0  0  0
   -7.9824   -2.2132    0.7916 O   0  0  0  0  0  0  0  0  0  0  0  0
   -7.0696   -0.8078    2.4205 N   0  0  0  0  0  0  0  0  0  0  0  0
   -6.2585    1.4617    1.6568 C   0  0  0  0  0  0  0  0  0  0  0  0
    8.4537   -2.3165    0.0687 C   0  0  0  0  0  0  0  0  0  0  0  0
   -6.5083    0.4732    2.7324 C   0  0  0  0  0  0  0  0  0  0  0  0
   -6.2308    0.7516    3.9159 O   0  0  0  0  0  0  0  0  0  0  0  0
    1.5585    2.3341    2.1998 H   0  0  0  0  0  0  0  0  0  0  0  0
    0.2400    3.3197    1.5281 H   0  0  0  0  0  0  0  0  0  0  0  0
    1.7057   -0.4820   -1.8052 H   0  0  0  0  0  0  0  0  0  0  0  0
    1.2145    1.2096   -1.7561 H   0  0  0  0  0  0  0  0  0  0  0  0
    0.6776   -2.0871   -0.5069 H   0  0  0  0  0  0  0  0  0  0  0  0
   -0.4769   -1.5524    0.7582 H   0  0  0  0  0  0  0  0  0  0  0  0
    2.2357    3.8713    0.4151 H   0  0  0  0  0  0  0  0  0  0  0  0
    1.2956    2.9948   -0.7911 H   0  0  0  0  0  0  0  0  0  0  0  0
    3.0721   -0.1549    0.2655 H   0  0  0  0  0  0  0  0  0  0  0  0
    3.6156    0.6319   -1.3292 H   0  0  0  0  0  0  0  0  0  0  0  0
   -2.7431   -0.8431    0.1273 H   0  0  0  0  0  0  0  0  0  0  0  0
    0.1366   -1.9337   -2.8937 H   0  0  0  0  0  0  0  0  0  0  0  0
   -1.6335   -2.0866   -4.5065 H   0  0  0  0  0  0  0  0  0  0  0  0
    5.5708    1.4416    1.8989 H   0  0  0  0  0  0  0  0  0  0  0  0
    6.2081    2.2036    0.4397 H   0  0  0  0  0  0  0  0  0  0  0  0
   -3.9387   -1.6349   -3.8718 H   0  0  0  0  0  0  0  0  0  0  0  0
   -4.6624   -0.4792    0.5980 H   0  0  0  0  0  0  0  0  0  0  0  0
   -7.2864   -0.5034   -0.9490 H   0  0  0  0  0  0  0  0  0  0  0  0
    7.6833    0.7644    1.2376 H   0  0  0  0  0  0  0  0  0  0  0  0
    5.2720   -2.0490   -0.9250 H   0  0  0  0  0  0  0  0  0  0  0  0
   -6.5613    1.7230   -0.4336 H   0  0  0  0  0  0  0  0  0  0  0  0
   -8.0831    1.2373    0.5008 H   0  0  0  0  0  0  0  0  0  0  0  0
    9.5516   -0.8598    1.1354 H   0  0  0  0  0  0  0  0  0  0  0  0
    7.1569   -3.6425   -1.0069 H   0  0  0  0  0  0  0  0  0  0  0  0
   -7.3132   -1.4963    3.1710 H   0  0  0  0  0  0  0  0  0  0  0  0
   -5.1736    1.5123    1.4617 H   0  0  0  0  0  0  0  0  0  0  0  0
   -6.5883    2.4803    1.9416 H   0  0  0  0  0  0  0  0  0  0  0  0
    9.3088   -3.0008    0.0496 H   0  0  0  0  0  0  0  0  0  0  0  0
  1  2  2  0
  1  3  2  0
  1  4  1  0
  1  5  1  0
  4  6  1  0
  4  7  1  0
  5  8  1  0
  6  9  1  0
  7 10  1  0
  8 11  1  0
  9 11  1  0
 10 12  2  0
 10 13  1  0
 11 14  1  0
 12 15  1  0
 13 16  2  0
 14 17  2  0
 14 18  1  0
 15 19  1  0
 15 20  2  0
 16 20  1  0
 18 21  1  0
 19 22  2  0
 19 23  1  0
 21 24  1  0
 24 26  2  0
 24 27  1  0
 25 23  1  0
 25 28  1  0
 25 29  1  0
 26 30  1  0
 27 31  2  0
 28 32  2  0
 28 33  1  0
 29 34  1  0
 30 35  2  0
 31 35  1  0
 33 36  1  0
 34 36  1  0
 36 37  2  0
  5 38  1  0
  5 39  1  0
  6 40  1  0
  6 41  1  0
  7 42  1  0
  7 43  1  0
  8 44  1  0
  8 45  1  0
  9 46  1  0
  9 47  1  0
 12 48  1  0
 13 49  1  0
 16 50  1  0
 18 51  1  0
 18 52  1  0
 20 53  1  0
 23 54  1  0
 25 55  1  6
 26 56  1  0
 27 57  1  0
 29 58  1  0
 29 59  1  0
 30 60  1  0
 31 61  1  0
 33 62  1  0
 34 63  1  0
 34 64  1  0
 35 65  1  0
M  END
>  <Molecule Name>  (18) 
Compound 10

>  <EC50 (µM) (Excel)>  (18) 
14.3

>  <Error (µM)>  (18) 
1.3

>  <HTRC CRBN-DDB1 EC50 (µM)>  (18) 
14.29 ±  1.32

>  <EC50 fitting (µM)>  (18) 
23.96

>  <Modèle Fitting>  (18) 
3PL

>  <Parent_Compound>  (18) 
Compound 10

>  <MMFF94s_energy_kcalmol>  (18) 
145.091

$$$$
Compound_11_ent1
     RDKit          3D

 60 63  0  0  0  0  0  0  0  0999 V2000
    1.7629    0.1904   -0.5714 S   0  0  0  0  0  6  0  0  0  0  0  0
    1.4507    1.6319   -0.1270 O   0  0  0  0  0  0  0  0  0  0  0  0
    0.8041    0.0072   -1.7521 O   0  0  0  0  0  0  0  0  0  0  0  0
    1.3965   -0.9280    0.6084 N   0  0  0  0  0  0  0  0  0  0  0  0
    3.3671    0.0983   -1.2568 C   0  0  0  0  0  0  0  0  0  0  0  0
    2.3700   -1.2107    1.5893 C   0  0  0  0  0  0  0  0  0  0  0  0
    0.5089   -1.9641    0.2424 C   0  0  0  0  0  0  0  0  0  0  0  0
    4.5179   -0.0889   -0.3690 C   0  0  0  0  0  0  0  0  0  0  0  0
    3.2355   -0.0361    1.9503 C   0  0  0  0  0  0  0  0  0  0  0  0
   -0.9056   -1.6111    0.5993 C   0  0  0  0  0  0  0  0  0  0  0  0
    4.3686    0.1319    1.0388 N   0  0  0  0  0  0  0  0  0  0  0  0
   -1.8123   -1.1319   -0.2930 C   0  0  0  0  0  0  0  0  0  0  0  0
   -1.3302   -1.7337    1.9170 C   0  0  0  0  0  0  0  0  0  0  0  0
    5.5580    0.6006    1.6611 C   0  0  0  0  0  0  0  0  0  0  0  0
   -3.1049   -0.7678    0.0437 C   0  0  0  0  0  0  0  0  0  0  0  0
   -2.6022   -1.3857    2.2955 C   0  0  0  0  0  0  0  0  0  0  0  0
    5.5540    0.8281    2.8889 O   0  0  0  0  0  0  0  0  0  0  0  0
    6.7736    0.8206    0.9018 C   0  0  0  0  0  0  0  0  0  0  0  0
   -4.0136   -0.2566   -0.9954 C   0  0  0  0  0  0  0  0  0  0  0  0
   -3.4901   -0.9006    1.3504 C   0  0  0  0  0  0  0  0  0  0  0  0
    7.2871    2.0839    0.7689 N   0  0  0  0  0  0  0  0  0  0  0  0
    7.4347   -0.2231    0.2968 C   0  0  0  0  0  0  0  0  0  0  0  0
   -3.5969   -0.1661   -2.2012 O   0  0  0  0  0  0  0  0  0  0  0  0
   -5.3389    0.1547   -0.7782 N   0  0  0  0  0  0  0  0  0  0  0  0
    8.4030    2.3248    0.0727 C   0  0  0  0  0  0  0  0  0  0  0  0
    8.5793   -0.0024   -0.4221 C   0  0  0  0  0  0  0  0  0  0  0  0
   -6.1902    0.6567   -1.8401 C   0  0  2  0  0  0  0  0  0  0  0  0
    9.0871    1.2808   -0.5484 C   0  0  0  0  0  0  0  0  0  0  0  0
   -6.6559    2.0079   -1.4734 C   0  0  0  0  0  0  0  0  0  0  0  0
   -7.3477   -0.3022   -1.9982 C   0  0  0  0  0  0  0  0  0  0  0  0
   -6.0784    3.0176   -1.9111 O   0  0  0  0  0  0  0  0  0  0  0  0
   -7.7714    2.1282   -0.6151 N   0  0  0  0  0  0  0  0  0  0  0  0
   -8.3046   -0.2934   -0.8633 C   0  0  0  0  0  0  0  0  0  0  0  0
   -8.3032    0.9389   -0.0449 C   0  0  0  0  0  0  0  0  0  0  0  0
   -8.7563    0.9627    1.1333 O   0  0  0  0  0  0  0  0  0  0  0  0
    3.5289    1.0898   -1.7956 H   0  0  0  0  0  0  0  0  0  0  0  0
    3.3331   -0.6509   -2.0912 H   0  0  0  0  0  0  0  0  0  0  0  0
    1.8266   -1.5313    2.5271 H   0  0  0  0  0  0  0  0  0  0  0  0
    3.0629   -2.0586    1.3401 H   0  0  0  0  0  0  0  0  0  0  0  0
    0.7499   -2.9449    0.7538 H   0  0  0  0  0  0  0  0  0  0  0  0
    0.5102   -2.2255   -0.8440 H   0  0  0  0  0  0  0  0  0  0  0  0
    4.8268   -1.1800   -0.4582 H   0  0  0  0  0  0  0  0  0  0  0  0
    5.4147    0.4603   -0.7656 H   0  0  0  0  0  0  0  0  0  0  0  0
    3.6657   -0.2485    2.9679 H   0  0  0  0  0  0  0  0  0  0  0  0
    2.6709    0.9068    2.0617 H   0  0  0  0  0  0  0  0  0  0  0  0
   -1.5514   -1.0320   -1.3430 H   0  0  0  0  0  0  0  0  0  0  0  0
   -0.5806   -2.1199    2.6189 H   0  0  0  0  0  0  0  0  0  0  0  0
   -2.9214   -1.4798    3.3020 H   0  0  0  0  0  0  0  0  0  0  0  0
   -4.5027   -0.6150    1.6074 H   0  0  0  0  0  0  0  0  0  0  0  0
    7.0642   -1.2585    0.3743 H   0  0  0  0  0  0  0  0  0  0  0  0
   -5.7349    0.1043    0.1786 H   0  0  0  0  0  0  0  0  0  0  0  0
    8.8334    3.3136   -0.0481 H   0  0  0  0  0  0  0  0  0  0  0  0
    9.0862   -0.8524   -0.8959 H   0  0  0  0  0  0  0  0  0  0  0  0
   -5.6022    0.7032   -2.7942 H   0  0  0  0  0  0  0  0  0  0  0  0
    9.9837    1.4324   -1.1156 H   0  0  0  0  0  0  0  0  0  0  0  0
   -6.9151   -1.3295   -2.0687 H   0  0  0  0  0  0  0  0  0  0  0  0
   -7.8580   -0.0870   -2.9543 H   0  0  0  0  0  0  0  0  0  0  0  0
   -8.2103    3.0669   -0.3912 H   0  0  0  0  0  0  0  0  0  0  0  0
   -9.3462   -0.3628   -1.2906 H   0  0  0  0  0  0  0  0  0  0  0  0
   -8.1911   -1.1569   -0.1733 H   0  0  0  0  0  0  0  0  0  0  0  0
  1  2  2  0
  1  3  2  0
  1  4  1  0
  1  5  1  0
  4  6  1  0
  4  7  1  0
  5  8  1  0
  6  9  1  0
  7 10  1  0
  8 11  1  0
  9 11  1  0
 10 12  2  0
 10 13  1  0
 11 14  1  0
 12 15  1  0
 13 16  2  0
 14 17  2  0
 14 18  1  0
 15 19  1  0
 15 20  2  0
 16 20  1  0
 18 21  2  0
 18 22  1  0
 19 23  2  0
 19 24  1  0
 21 25  1  0
 22 26  2  0
 25 28  2  0
 26 28  1  0
 27 24  1  0
 27 29  1  0
 27 30  1  0
 29 31  2  0
 29 32  1  0
 30 33  1  0
 32 34  1  0
 33 34  1  0
 34 35  2  0
  5 36  1  0
  5 37  1  0
  6 38  1  0
  6 39  1  0
  7 40  1  0
  7 41  1  0
  8 42  1  0
  8 43  1  0
  9 44  1  0
  9 45  1  0
 12 46  1  0
 13 47  1  0
 16 48  1  0
 20 49  1  0
 22 50  1  0
 24 51  1  0
 25 52  1  0
 26 53  1  0
 27 54  1  6
 28 55  1  0
 30 56  1  0
 30 57  1  0
 32 58  1  0
 33 59  1  0
 33 60  1  0
M  END
>  <Molecule Name>  (19) 
Compound 11

>  <EC50 (µM) (Excel)>  (19) 
37.7

>  <Error (µM)>  (19) 
0.8

>  <HTRC CRBN-DDB1 EC50 (µM)>  (19) 
37.72 ±  0.78

>  <EC50 fitting (µM)>  (19) 
52.96

>  <Modèle Fitting>  (19) 
3PL

>  <Parent_Compound>  (19) 
Compound 11

>  <MMFF94s_energy_kcalmol>  (19) 
162.965

$$$$
Compound_11_ent2
     RDKit          3D

 60 63  0  0  0  0  0  0  0  0999 V2000
    1.5915    0.4177   -0.9801 S   0  0  0  0  0  6  0  0  0  0  0  0
    0.4368    1.3912   -1.0285 O   0  0  0  0  0  0  0  0  0  0  0  0
    1.4248   -0.3921   -2.2791 O   0  0  0  0  0  0  0  0  0  0  0  0
    1.5592   -0.6498    0.2840 N   0  0  0  0  0  0  0  0  0  0  0  0
    3.1055    1.2779   -1.1456 C   0  0  0  0  0  0  0  0  0  0  0  0
    2.0891   -0.3931    1.5439 C   0  0  0  0  0  0  0  0  0  0  0  0
    0.7416   -1.8032    0.1601 C   0  0  0  0  0  0  0  0  0  0  0  0
    4.2884    0.5814   -0.4864 C   0  0  0  0  0  0  0  0  0  0  0  0
    2.9503    0.7966    1.7462 C   0  0  0  0  0  0  0  0  0  0  0  0
   -0.6584   -1.5960    0.5622 C   0  0  0  0  0  0  0  0  0  0  0  0
    4.1761    0.6915    0.9631 N   0  0  0  0  0  0  0  0  0  0  0  0
   -1.6192   -1.1809   -0.3456 C   0  0  0  0  0  0  0  0  0  0  0  0
   -1.1150   -1.7965    1.8613 C   0  0  0  0  0  0  0  0  0  0  0  0
    5.4056    0.6995    1.6432 C   0  0  0  0  0  0  0  0  0  0  0  0
   -2.9306   -0.9696   -0.0351 C   0  0  0  0  0  0  0  0  0  0  0  0
   -2.4282   -1.5901    2.1935 C   0  0  0  0  0  0  0  0  0  0  0  0
    5.4138    0.7876    2.9065 O   0  0  0  0  0  0  0  0  0  0  0  0
    6.7147    0.6140    1.0079 C   0  0  0  0  0  0  0  0  0  0  0  0
   -3.8705   -0.5291   -1.0562 C   0  0  0  0  0  0  0  0  0  0  0  0
   -3.3595   -1.1701    1.2389 C   0  0  0  0  0  0  0  0  0  0  0  0
    7.6100    1.6365    1.1236 N   0  0  0  0  0  0  0  0  0  0  0  0
    7.0558   -0.5035    0.2846 C   0  0  0  0  0  0  0  0  0  0  0  0
   -3.4729   -0.3395   -2.2629 O   0  0  0  0  0  0  0  0  0  0  0  0
   -5.2437   -0.2793   -0.8340 N   0  0  0  0  0  0  0  0  0  0  0  0
    8.8085    1.5751    0.5504 C   0  0  0  0  0  0  0  0  0  0  0  0
    8.2880   -0.6086   -0.3259 C   0  0  0  0  0  0  0  0  0  0  0  0
   -6.1674    0.1643   -1.8719 C   0  0  1  0  0  0  0  0  0  0  0  0
    9.1643    0.4452   -0.1858 C   0  0  0  0  0  0  0  0  0  0  0  0
   -7.1896   -0.8770   -2.0397 C   0  0  0  0  0  0  0  0  0  0  0  0
   -6.7367    1.4797   -1.4106 C   0  0  0  0  0  0  0  0  0  0  0  0
   -7.2240   -1.5813   -3.0711 O   0  0  0  0  0  0  0  0  0  0  0  0
   -8.1387   -1.0549   -0.9865 N   0  0  0  0  0  0  0  0  0  0  0  0
   -7.8993    1.3675   -0.4888 C   0  0  0  0  0  0  0  0  0  0  0  0
   -8.2225    0.0057   -0.0378 C   0  0  0  0  0  0  0  0  0  0  0  0
   -8.5697   -0.2719    1.1452 O   0  0  0  0  0  0  0  0  0  0  0  0
    3.4102    1.4207   -2.2242 H   0  0  0  0  0  0  0  0  0  0  0  0
    3.0816    2.3237   -0.7341 H   0  0  0  0  0  0  0  0  0  0  0  0
    1.3479   -0.4042    2.3911 H   0  0  0  0  0  0  0  0  0  0  0  0
    2.7556   -1.2873    1.8094 H   0  0  0  0  0  0  0  0  0  0  0  0
    1.2148   -2.6940    0.6485 H   0  0  0  0  0  0  0  0  0  0  0  0
    0.7116   -2.0793   -0.9343 H   0  0  0  0  0  0  0  0  0  0  0  0
    4.3806   -0.4572   -0.8093 H   0  0  0  0  0  0  0  0  0  0  0  0
    5.1946    1.1478   -0.7795 H   0  0  0  0  0  0  0  0  0  0  0  0
    3.2196    0.8335    2.8376 H   0  0  0  0  0  0  0  0  0  0  0  0
    2.4436    1.7643    1.5549 H   0  0  0  0  0  0  0  0  0  0  0  0
   -1.3073   -1.0137   -1.3682 H   0  0  0  0  0  0  0  0  0  0  0  0
   -0.4246   -2.1157    2.6023 H   0  0  0  0  0  0  0  0  0  0  0  0
   -2.7526   -1.7590    3.2210 H   0  0  0  0  0  0  0  0  0  0  0  0
   -4.3744   -1.0291    1.5662 H   0  0  0  0  0  0  0  0  0  0  0  0
    6.3707   -1.3374    0.1726 H   0  0  0  0  0  0  0  0  0  0  0  0
   -5.6305   -0.4134    0.1182 H   0  0  0  0  0  0  0  0  0  0  0  0
    9.5420    2.3738    0.6279 H   0  0  0  0  0  0  0  0  0  0  0  0
    8.5585   -1.4996   -0.8996 H   0  0  0  0  0  0  0  0  0  0  0  0
   -5.5622    0.2821   -2.7930 H   0  0  0  0  0  0  0  0  0  0  0  0
   10.1506    0.4211   -0.6433 H   0  0  0  0  0  0  0  0  0  0  0  0
   -5.9481    2.0883   -0.8889 H   0  0  0  0  0  0  0  0  0  0  0  0
   -7.0337    2.0421   -2.3429 H   0  0  0  0  0  0  0  0  0  0  0  0
   -8.7341   -1.9163   -0.9205 H   0  0  0  0  0  0  0  0  0  0  0  0
   -8.8214    1.7728   -0.9874 H   0  0  0  0  0  0  0  0  0  0  0  0
   -7.7711    1.9979    0.4325 H   0  0  0  0  0  0  0  0  0  0  0  0
  1  2  2  0
  1  3  2  0
  1  4  1  0
  1  5  1  0
  4  6  1  0
  4  7  1  0
  5  8  1  0
  6  9  1  0
  7 10  1  0
  8 11  1  0
  9 11  1  0
 10 12  2  0
 10 13  1  0
 11 14  1  0
 12 15  1  0
 13 16  2  0
 14 17  2  0
 14 18  1  0
 15 19  1  0
 15 20  2  0
 16 20  1  0
 18 21  2  0
 18 22  1  0
 19 23  2  0
 19 24  1  0
 21 25  1  0
 22 26  2  0
 25 28  2  0
 26 28  1  0
 27 24  1  0
 27 29  1  0
 27 30  1  0
 29 31  2  0
 29 32  1  0
 30 33  1  0
 32 34  1  0
 33 34  1  0
 34 35  2  0
  5 36  1  0
  5 37  1  0
  6 38  1  0
  6 39  1  0
  7 40  1  0
  7 41  1  0
  8 42  1  0
  8 43  1  0
  9 44  1  0
  9 45  1  0
 12 46  1  0
 13 47  1  0
 16 48  1  0
 20 49  1  0
 22 50  1  0
 24 51  1  0
 25 52  1  0
 26 53  1  0
 27 54  1  6
 28 55  1  0
 30 56  1  0
 30 57  1  0
 32 58  1  0
 33 59  1  0
 33 60  1  0
M  END
>  <Molecule Name>  (20) 
Compound 11

>  <EC50 (µM) (Excel)>  (20) 
37.7

>  <Error (µM)>  (20) 
0.8

>  <HTRC CRBN-DDB1 EC50 (µM)>  (20) 
37.72 ±  0.78

>  <EC50 fitting (µM)>  (20) 
52.96

>  <Modèle Fitting>  (20) 
3PL

>  <Parent_Compound>  (20) 
Compound 11

>  <MMFF94s_energy_kcalmol>  (20) 
152.433

$$$$
Compound_12_ent1
     RDKit          3D

 68 71  0  0  0  0  0  0  0  0999 V2000
   -0.5104    0.4596   -1.4671 S   0  0  0  0  0  6  0  0  0  0  0  0
   -1.3550   -0.2554   -2.4786 O   0  0  0  0  0  0  0  0  0  0  0  0
   -1.4291    1.4490   -0.7630 O   0  0  0  0  0  0  0  0  0  0  0  0
    0.2486   -0.5933   -0.3603 N   0  0  0  0  0  0  0  0  0  0  0  0
    0.6586    1.4533   -2.3749 C   0  0  0  0  0  0  0  0  0  0  0  0
    1.6888   -0.4583   -0.3293 C   0  0  0  0  0  0  0  0  0  0  0  0
   -0.3464   -0.6376    0.9337 C   0  0  0  0  0  0  0  0  0  0  0  0
    1.2630    2.5268   -1.4916 C   0  0  0  0  0  0  0  0  0  0  0  0
    2.0434    0.8876    0.3196 C   0  0  0  0  0  0  0  0  0  0  0  0
   -1.3874   -1.6472    1.1305 C   0  0  0  0  0  0  0  0  0  0  0  0
    2.2884    1.8916   -0.6806 N   0  0  0  0  0  0  0  0  0  0  0  0
   -2.7343   -1.3559    0.8725 C   0  0  0  0  0  0  0  0  0  0  0  0
   -1.0111   -2.8932    1.5777 C   0  0  0  0  0  0  0  0  0  0  0  0
    3.6316    2.2863   -0.8865 C   0  0  0  0  0  0  0  0  0  0  0  0
   -3.7184   -2.2915    1.0540 C   0  0  0  0  0  0  0  0  0  0  0  0
   -1.9987   -3.8363    1.7612 C   0  0  0  0  0  0  0  0  0  0  0  0
    3.9238    3.1708   -1.7552 O   0  0  0  0  0  0  0  0  0  0  0  0
    4.7323    1.6768   -0.0927 C   0  0  0  0  0  0  0  0  0  0  0  0
   -5.1216   -2.0103    0.7914 C   0  0  0  0  0  0  0  0  0  0  0  0
   -3.3244   -3.5539    1.5087 C   0  0  0  0  0  0  0  0  0  0  0  0
    6.0341    2.2782   -0.5265 C   0  0  0  0  0  0  0  0  0  0  0  0
   -6.0135   -2.9096    0.9858 O   0  0  0  0  0  0  0  0  0  0  0  0
   -5.6234   -0.7740    0.3166 N   0  0  0  0  0  0  0  0  0  0  0  0
    7.1724    1.8333    0.0931 O   0  0  0  0  0  0  0  0  0  0  0  0
   -7.0352   -0.5284    0.0654 C   0  0  2  0  0  0  0  0  0  0  0  0
    7.7564    0.5945    0.1284 C   0  0  0  0  0  0  0  0  0  0  0  0
   -7.3121   -0.3357   -1.3716 C   0  0  0  0  0  0  0  0  0  0  0  0
   -7.6039    0.5217    0.9607 C   0  0  0  0  0  0  0  0  0  0  0  0
    8.9196    0.4581    0.8785 C   0  0  0  0  0  0  0  0  0  0  0  0
    7.3138   -0.5298   -0.5035 C   0  0  0  0  0  0  0  0  0  0  0  0
   -6.4963   -0.7387   -2.2202 O   0  0  0  0  0  0  0  0  0  0  0  0
   -8.5111    0.3097   -1.7583 N   0  0  0  0  0  0  0  0  0  0  0  0
   -8.1666    1.7233    0.2335 C   0  0  0  0  0  0  0  0  0  0  0  0
    9.6070   -0.7203    0.9992 C   0  0  0  0  0  0  0  0  0  0  0  0
    7.9582   -1.7536   -0.4250 C   0  0  0  0  0  0  0  0  0  0  0  0
   -9.0995    1.2027   -0.8033 C   0  0  0  0  0  0  0  0  0  0  0  0
    9.1033   -1.8315    0.3305 C   0  0  0  0  0  0  0  0  0  0  0  0
  -10.3076    1.4926   -0.8761 O   0  0  0  0  0  0  0  0  0  0  0  0
    0.0997    1.9646   -3.1732 H   0  0  0  0  0  0  0  0  0  0  0  0
    1.4552    0.8569   -2.8205 H   0  0  0  0  0  0  0  0  0  0  0  0
    2.0522   -0.4688   -1.3628 H   0  0  0  0  0  0  0  0  0  0  0  0
    2.0957   -1.2329    0.3237 H   0  0  0  0  0  0  0  0  0  0  0  0
   -0.7531    0.3922    1.1478 H   0  0  0  0  0  0  0  0  0  0  0  0
    0.4338   -0.7944    1.7112 H   0  0  0  0  0  0  0  0  0  0  0  0
    1.6366    3.3411   -2.1121 H   0  0  0  0  0  0  0  0  0  0  0  0
    0.4764    2.9435   -0.8197 H   0  0  0  0  0  0  0  0  0  0  0  0
    1.1913    1.1798    0.9852 H   0  0  0  0  0  0  0  0  0  0  0  0
    2.9526    0.7628    0.9267 H   0  0  0  0  0  0  0  0  0  0  0  0
   -3.0269   -0.3767    0.5218 H   0  0  0  0  0  0  0  0  0  0  0  0
    0.0199   -3.1639    1.7906 H   0  0  0  0  0  0  0  0  0  0  0  0
   -1.7031   -4.8221    2.1148 H   0  0  0  0  0  0  0  0  0  0  0  0
    4.5724    1.9674    0.9903 H   0  0  0  0  0  0  0  0  0  0  0  0
    4.6870    0.5927   -0.1012 H   0  0  0  0  0  0  0  0  0  0  0  0
   -4.1203   -4.2849    1.6473 H   0  0  0  0  0  0  0  0  0  0  0  0
    6.1081    2.2241   -1.6440 H   0  0  0  0  0  0  0  0  0  0  0  0
    5.9398    3.3837   -0.3300 H   0  0  0  0  0  0  0  0  0  0  0  0
   -4.9449    0.0034    0.1367 H   0  0  0  0  0  0  0  0  0  0  0  0
   -7.5608   -1.4926    0.3355 H   0  0  0  0  0  0  0  0  0  0  0  0
   -8.4494    0.1412    1.6069 H   0  0  0  0  0  0  0  0  0  0  0  0
   -6.8432    0.8793    1.7159 H   0  0  0  0  0  0  0  0  0  0  0  0
    9.3199    1.3297    1.4069 H   0  0  0  0  0  0  0  0  0  0  0  0
    6.4329   -0.5048   -1.1129 H   0  0  0  0  0  0  0  0  0  0  0  0
   -8.9661    0.1621   -2.6872 H   0  0  0  0  0  0  0  0  0  0  0  0
   -7.3644    2.2771   -0.3202 H   0  0  0  0  0  0  0  0  0  0  0  0
   -8.6661    2.3608    0.9775 H   0  0  0  0  0  0  0  0  0  0  0  0
   10.5202   -0.7980    1.5970 H   0  0  0  0  0  0  0  0  0  0  0  0
    7.5593   -2.6100   -0.9475 H   0  0  0  0  0  0  0  0  0  0  0  0
    9.6076   -2.7744    0.3964 H   0  0  0  0  0  0  0  0  0  0  0  0
  1  2  2  0
  1  3  2  0
  1  4  1  0
  1  5  1  0
  4  6  1  0
  4  7  1  0
  5  8  1  0
  6  9  1  0
  7 10  1  0
  8 11  1  0
  9 11  1  0
 10 12  2  0
 10 13  1  0
 11 14  1  0
 12 15  1  0
 13 16  2  0
 14 17  2  0
 14 18  1  0
 15 19  1  0
 15 20  2  0
 16 20  1  0
 18 21  1  0
 19 22  2  0
 19 23  1  0
 21 24  1  0
 24 26  1  0
 25 23  1  0
 25 27  1  0
 25 28  1  0
 26 29  2  0
 26 30  1  0
 27 31  2  0
 27 32  1  0
 28 33  1  0
 29 34  1  0
 30 35  2  0
 32 36  1  0
 33 36  1  0
 34 37  2  0
 35 37  1  0
 36 38  2  0
  5 39  1  0
  5 40  1  0
  6 41  1  0
  6 42  1  0
  7 43  1  0
  7 44  1  0
  8 45  1  0
  8 46  1  0
  9 47  1  0
  9 48  1  0
 12 49  1  0
 13 50  1  0
 16 51  1  0
 18 52  1  0
 18 53  1  0
 20 54  1  0
 21 55  1  0
 21 56  1  0
 23 57  1  0
 25 58  1  1
 28 59  1  0
 28 60  1  0
 29 61  1  0
 30 62  1  0
 32 63  1  0
 33 64  1  0
 33 65  1  0
 34 66  1  0
 35 67  1  0
 37 68  1  0
M  END
>  <Molecule Name>  (21) 
Compound 12

>  <EC50 (µM) (Excel)>  (21) 
61.9

>  <Error (µM)>  (21) 
8.1

>  <HTRC CRBN-DDB1 EC50 (µM)>  (21) 
61.88 ±  8.05

>  <EC50 fitting (µM)>  (21) 
111.51

>  <Modèle Fitting>  (21) 
4PL

>  <Parent_Compound>  (21) 
Compound 12

>  <MMFF94s_energy_kcalmol>  (21) 
156.552

$$$$
Compound_12_ent2
     RDKit          3D

 68 71  0  0  0  0  0  0  0  0999 V2000
    0.0285    0.9701   -1.8129 S   0  0  0  0  0  6  0  0  0  0  0  0
   -0.8578    0.2374   -2.7664 O   0  0  0  0  0  0  0  0  0  0  0  0
   -0.7356    2.2088   -1.3629 O   0  0  0  0  0  0  0  0  0  0  0  0
    0.4808    0.0629   -0.4489 N   0  0  0  0  0  0  0  0  0  0  0  0
    1.4282    1.5708   -2.7268 C   0  0  0  0  0  0  0  0  0  0  0  0
    1.8903   -0.0616   -0.2416 C   0  0  0  0  0  0  0  0  0  0  0  0
   -0.2383    0.3675    0.7557 C   0  0  0  0  0  0  0  0  0  0  0  0
    2.1559    2.6600   -1.9766 C   0  0  0  0  0  0  0  0  0  0  0  0
    2.5464    1.2643    0.1578 C   0  0  0  0  0  0  0  0  0  0  0  0
   -1.4517   -0.4702    0.9566 C   0  0  0  0  0  0  0  0  0  0  0  0
    2.9821    2.0271   -0.9689 N   0  0  0  0  0  0  0  0  0  0  0  0
   -2.6643   -0.0722    0.4641 C   0  0  0  0  0  0  0  0  0  0  0  0
   -1.3205   -1.6484    1.6482 C   0  0  0  0  0  0  0  0  0  0  0  0
    4.3735    2.2156   -1.1631 C   0  0  0  0  0  0  0  0  0  0  0  0
   -3.7765   -0.8785    0.6710 C   0  0  0  0  0  0  0  0  0  0  0  0
   -2.4418   -2.4248    1.8364 C   0  0  0  0  0  0  0  0  0  0  0  0
    4.8462    2.8728   -2.1190 O   0  0  0  0  0  0  0  0  0  0  0  0
    5.3101    1.6041   -0.1866 C   0  0  0  0  0  0  0  0  0  0  0  0
   -5.0456   -0.4197    0.1305 C   0  0  0  0  0  0  0  0  0  0  0  0
   -3.6785   -2.0675    1.3614 C   0  0  0  0  0  0  0  0  0  0  0  0
    6.7193    1.9699   -0.6002 C   0  0  0  0  0  0  0  0  0  0  0  0
   -5.0894    0.6823   -0.5023 O   0  0  0  0  0  0  0  0  0  0  0  0
   -6.2794   -1.1079    0.2464 N   0  0  0  0  0  0  0  0  0  0  0  0
    7.7215    1.4783    0.1908 O   0  0  0  0  0  0  0  0  0  0  0  0
   -7.5131   -0.5617   -0.3363 C   0  0  1  0  0  0  0  0  0  0  0  0
    8.1113    0.1989    0.4582 C   0  0  0  0  0  0  0  0  0  0  0  0
   -8.1559   -1.5993   -1.1494 C   0  0  0  0  0  0  0  0  0  0  0  0
   -8.4285   -0.2584    0.8464 C   0  0  0  0  0  0  0  0  0  0  0  0
    9.1848    0.0442    1.3539 C   0  0  0  0  0  0  0  0  0  0  0  0
    7.5522   -0.9342   -0.0693 C   0  0  0  0  0  0  0  0  0  0  0  0
   -7.4342   -2.2237   -1.9758 O   0  0  0  0  0  0  0  0  0  0  0  0
   -9.5477   -1.8848   -1.0036 N   0  0  0  0  0  0  0  0  0  0  0  0
   -9.7958    0.1807    0.3932 C   0  0  0  0  0  0  0  0  0  0  0  0
    9.6699   -1.1892    1.7010 C   0  0  0  0  0  0  0  0  0  0  0  0
    8.0185   -2.1999    0.2608 C   0  0  0  0  0  0  0  0  0  0  0  0
  -10.4189   -0.9694   -0.3138 C   0  0  0  0  0  0  0  0  0  0  0  0
    9.0724   -2.2914    1.1436 C   0  0  0  0  0  0  0  0  0  0  0  0
  -11.6627   -1.1372   -0.3098 O   0  0  0  0  0  0  0  0  0  0  0  0
    1.0253    1.9801   -3.6888 H   0  0  0  0  0  0  0  0  0  0  0  0
    2.0865    0.7267   -2.9876 H   0  0  0  0  0  0  0  0  0  0  0  0
    2.4106   -0.5559   -1.0633 H   0  0  0  0  0  0  0  0  0  0  0  0
    2.0145   -0.7307    0.6531 H   0  0  0  0  0  0  0  0  0  0  0  0
   -0.5562    1.4435    0.6799 H   0  0  0  0  0  0  0  0  0  0  0  0
    0.4373    0.3237    1.6254 H   0  0  0  0  0  0  0  0  0  0  0  0
    2.7787    3.2454   -2.7069 H   0  0  0  0  0  0  0  0  0  0  0  0
    1.3908    3.3061   -1.4934 H   0  0  0  0  0  0  0  0  0  0  0  0
    1.7679    1.8121    0.7382 H   0  0  0  0  0  0  0  0  0  0  0  0
    3.3703    1.0311    0.8575 H   0  0  0  0  0  0  0  0  0  0  0  0
   -2.7701    0.8771   -0.0928 H   0  0  0  0  0  0  0  0  0  0  0  0
   -0.3397   -1.9719    2.0477 H   0  0  0  0  0  0  0  0  0  0  0  0
   -2.3568   -3.3564    2.3795 H   0  0  0  0  0  0  0  0  0  0  0  0
    5.1068    2.0758    0.8232 H   0  0  0  0  0  0  0  0  0  0  0  0
    5.1261    0.5433   -0.0347 H   0  0  0  0  0  0  0  0  0  0  0  0
   -4.5642   -2.6620    1.4996 H   0  0  0  0  0  0  0  0  0  0  0  0
    6.8396    1.6947   -1.6808 H   0  0  0  0  0  0  0  0  0  0  0  0
    6.7510    3.1041   -0.6219 H   0  0  0  0  0  0  0  0  0  0  0  0
   -6.2844   -2.0130    0.7578 H   0  0  0  0  0  0  0  0  0  0  0  0
   -7.3312    0.3894   -0.8394 H   0  0  0  0  0  0  0  0  0  0  0  0
   -7.9348    0.5089    1.4883 H   0  0  0  0  0  0  0  0  0  0  0  0
   -8.5335   -1.1618    1.4971 H   0  0  0  0  0  0  0  0  0  0  0  0
    9.6414    0.9323    1.7825 H   0  0  0  0  0  0  0  0  0  0  0  0
    6.7475   -0.8940   -0.7651 H   0  0  0  0  0  0  0  0  0  0  0  0
   -9.9110   -2.7656   -1.4068 H   0  0  0  0  0  0  0  0  0  0  0  0
   -9.6622    1.0544   -0.2738 H   0  0  0  0  0  0  0  0  0  0  0  0
  -10.3568    0.4891    1.2882 H   0  0  0  0  0  0  0  0  0  0  0  0
   10.5118   -1.2775    2.4054 H   0  0  0  0  0  0  0  0  0  0  0  0
    7.5789   -3.0991   -0.1538 H   0  0  0  0  0  0  0  0  0  0  0  0
    9.4598   -3.2655    1.4214 H   0  0  0  0  0  0  0  0  0  0  0  0
  1  2  2  0
  1  3  2  0
  1  4  1  0
  1  5  1  0
  4  6  1  0
  4  7  1  0
  5  8  1  0
  6  9  1  0
  7 10  1  0
  8 11  1  0
  9 11  1  0
 10 12  2  0
 10 13  1  0
 11 14  1  0
 12 15  1  0
 13 16  2  0
 14 17  2  0
 14 18  1  0
 15 19  1  0
 15 20  2  0
 16 20  1  0
 18 21  1  0
 19 22  2  0
 19 23  1  0
 21 24  1  0
 24 26  1  0
 25 23  1  0
 25 27  1  0
 25 28  1  0
 26 29  2  0
 26 30  1  0
 27 31  2  0
 27 32  1  0
 28 33  1  0
 29 34  1  0
 30 35  2  0
 32 36  1  0
 33 36  1  0
 34 37  2  0
 35 37  1  0
 36 38  2  0
  5 39  1  0
  5 40  1  0
  6 41  1  0
  6 42  1  0
  7 43  1  0
  7 44  1  0
  8 45  1  0
  8 46  1  0
  9 47  1  0
  9 48  1  0
 12 49  1  0
 13 50  1  0
 16 51  1  0
 18 52  1  0
 18 53  1  0
 20 54  1  0
 21 55  1  0
 21 56  1  0
 23 57  1  0
 25 58  1  6
 28 59  1  0
 28 60  1  0
 29 61  1  0
 30 62  1  0
 32 63  1  0
 33 64  1  0
 33 65  1  0
 34 66  1  0
 35 67  1  0
 37 68  1  0
M  END
>  <Molecule Name>  (22) 
Compound 12

>  <EC50 (µM) (Excel)>  (22) 
61.9

>  <Error (µM)>  (22) 
8.1

>  <HTRC CRBN-DDB1 EC50 (µM)>  (22) 
61.88 ±  8.05

>  <EC50 fitting (µM)>  (22) 
111.51

>  <Modèle Fitting>  (22) 
4PL

>  <Parent_Compound>  (22) 
Compound 12

>  <MMFF94s_energy_kcalmol>  (22) 
147.331

$$$$
