Compound_1_ent1
     RDKit          3D

 65 67  0  0  0  0  0  0  0  0999 V2000
    3.1880    2.2148   -0.2163 O   0  0  0  0  0  0  0  0  0  0  0  0
    4.4198    1.9717   -0.3782 C   0  0  0  0  0  0  0  0  0  0  0  0
    4.9542    0.7117   -0.6675 N   0  0  0  0  0  0  0  0  0  0  0  0
    5.3383    3.0824   -0.2569 N   0  0  0  0  0  0  0  0  0  0  0  0
    4.2569   -0.4708   -0.2264 C   0  0  0  0  0  0  0  0  0  0  0  0
    6.1995    0.4915   -1.3710 C   0  0  0  0  0  0  0  0  0  0  0  0
    6.7041    2.7389   -0.4564 C   0  0  0  0  0  0  0  0  0  0  0  0
    3.1988   -0.4473    0.6481 C   0  0  0  0  0  0  0  0  0  0  0  0
    4.6209   -1.7308   -0.7099 C   0  0  0  0  0  0  0  0  0  0  0  0
    7.1225    1.6782   -1.3881 C   0  0  0  0  0  0  0  0  0  0  0  0
    7.5772    3.3634    0.1841 O   0  0  0  0  0  0  0  0  0  0  0  0
    2.5064   -1.5966    1.0497 C   0  0  0  0  0  0  0  0  0  0  0  0
    3.9813   -2.8963   -0.3533 C   0  0  0  0  0  0  0  0  0  0  0  0
    2.9314   -2.7950    0.5253 C   0  0  0  0  0  0  0  0  0  0  0  0
    1.3666   -1.4999    2.0013 C   0  0  0  0  0  0  0  0  0  0  0  0
    0.1637   -1.3237    1.2933 N   0  0  0  0  0  0  0  0  0  0  0  0
   -1.0276   -1.2067    2.0135 C   0  0  2  0  0  0  0  0  0  0  0  0
    0.2123   -0.8819   -0.0329 C   0  0  0  0  0  0  0  0  0  0  0  0
   -2.0268   -2.1824    1.5390 C   0  0  0  0  0  0  0  0  0  0  0  0
   -1.6294    0.1709    2.0679 C   0  0  0  0  0  0  0  0  0  0  0  0
    0.0711    0.6075   -0.2214 C   0  0  0  0  0  0  0  0  0  0  0  0
   -3.1843   -2.2751    2.0340 O   0  0  0  0  0  0  0  0  0  0  0  0
   -1.7242   -3.0529    0.5088 O   0  0  0  0  0  0  0  0  0  0  0  0
   -2.1384    0.6540    0.8295 N   0  0  0  0  0  0  0  0  0  0  0  0
   -1.4064    0.9945   -0.3631 C   0  0  0  0  0  0  0  0  0  0  0  0
   -2.6198   -4.0132   -0.0028 C   0  0  0  0  0  0  0  0  0  0  0  0
   -3.5337    0.8276    0.7429 C   0  0  0  0  0  0  0  0  0  0  0  0
   -4.3279    0.5816    1.6884 O   0  0  0  0  0  0  0  0  0  0  0  0
   -4.0903    1.2927   -0.4338 O   0  0  0  0  0  0  0  0  0  0  0  0
   -5.4615    1.5018   -0.6321 C   0  0  0  0  0  0  0  0  0  0  0  0
   -6.1861    0.1939   -0.4392 C   0  0  0  0  0  0  0  0  0  0  0  0
   -5.6456    2.0223   -2.0460 C   0  0  0  0  0  0  0  0  0  0  0  0
   -5.9845    2.5628    0.3383 C   0  0  0  0  0  0  0  0  0  0  0  0
    5.0248    4.0417   -0.0431 H   0  0  0  0  0  0  0  0  0  0  0  0
    6.7086   -0.3763   -0.8584 H   0  0  0  0  0  0  0  0  0  0  0  0
    6.0017    0.1734   -2.4036 H   0  0  0  0  0  0  0  0  0  0  0  0
    2.8457    0.4788    1.0910 H   0  0  0  0  0  0  0  0  0  0  0  0
    5.4524   -1.7862   -1.4133 H   0  0  0  0  0  0  0  0  0  0  0  0
    8.1334    1.3369   -1.0930 H   0  0  0  0  0  0  0  0  0  0  0  0
    7.2370    2.0670   -2.4409 H   0  0  0  0  0  0  0  0  0  0  0  0
    4.2780   -3.8574   -0.7374 H   0  0  0  0  0  0  0  0  0  0  0  0
    2.3758   -3.6878    0.8521 H   0  0  0  0  0  0  0  0  0  0  0  0
    1.2902   -2.4287    2.6198 H   0  0  0  0  0  0  0  0  0  0  0  0
    1.5797   -0.6684    2.6980 H   0  0  0  0  0  0  0  0  0  0  0  0
   -0.8164   -1.4852    3.0888 H   0  0  0  0  0  0  0  0  0  0  0  0
   -0.5977   -1.3543   -0.6317 H   0  0  0  0  0  0  0  0  0  0  0  0
    1.1610   -1.2056   -0.5086 H   0  0  0  0  0  0  0  0  0  0  0  0
   -2.4394    0.1261    2.8531 H   0  0  0  0  0  0  0  0  0  0  0  0
   -0.8884    0.8953    2.4789 H   0  0  0  0  0  0  0  0  0  0  0  0
    0.5656    1.2065    0.5478 H   0  0  0  0  0  0  0  0  0  0  0  0
    0.5346    0.8654   -1.1979 H   0  0  0  0  0  0  0  0  0  0  0  0
   -1.8464    0.5763   -1.2677 H   0  0  0  0  0  0  0  0  0  0  0  0
   -1.4011    2.1069   -0.4522 H   0  0  0  0  0  0  0  0  0  0  0  0
   -2.6966   -3.8258   -1.1054 H   0  0  0  0  0  0  0  0  0  0  0  0
   -2.2143   -5.0426    0.1023 H   0  0  0  0  0  0  0  0  0  0  0  0
   -3.6222   -3.9432    0.4306 H   0  0  0  0  0  0  0  0  0  0  0  0
   -6.4964   -0.1690   -1.4590 H   0  0  0  0  0  0  0  0  0  0  0  0
   -7.0840    0.3861    0.1843 H   0  0  0  0  0  0  0  0  0  0  0  0
   -5.5010   -0.5386    0.0100 H   0  0  0  0  0  0  0  0  0  0  0  0
   -6.2757    1.2797   -2.6092 H   0  0  0  0  0  0  0  0  0  0  0  0
   -4.6768    2.1289   -2.5827 H   0  0  0  0  0  0  0  0  0  0  0  0
   -6.1156    3.0249   -2.0337 H   0  0  0  0  0  0  0  0  0  0  0  0
   -6.9489    2.9212   -0.0595 H   0  0  0  0  0  0  0  0  0  0  0  0
   -5.2632    3.3818    0.4481 H   0  0  0  0  0  0  0  0  0  0  0  0
   -6.1307    2.0826    1.3427 H   0  0  0  0  0  0  0  0  0  0  0  0
  1  2  2  0
  2  3  1  0
  2  4  1  0
  3  5  1  0
  3  6  1  0
  4  7  1  0
  5  8  2  0
  5  9  1  0
  6 10  1  0
  7 11  2  0
  7 10  1  0
  8 12  1  0
  9 13  2  0
 12 14  2  0
 12 15  1  0
 13 14  1  0
 15 16  1  0
 16 17  1  0
 16 18  1  0
 17 19  1  0
 17 20  1  0
 18 21  1  0
 19 22  2  0
 19 23  1  0
 20 24  1  0
 21 25  1  0
 23 26  1  0
 24 27  1  0
 24 25  1  0
 27 28  2  0
 27 29  1  0
 29 30  1  0
 30 31  1  0
 30 32  1  0
 30 33  1  0
  4 34  1  0
  6 35  1  0
  6 36  1  0
  8 37  1  0
  9 38  1  0
 10 39  1  0
 10 40  1  0
 13 41  1  0
 14 42  1  0
 15 43  1  0
 15 44  1  0
 17 45  1  1
 18 46  1  0
 18 47  1  0
 20 48  1  0
 20 49  1  0
 21 50  1  0
 21 51  1  0
 25 52  1  0
 25 53  1  0
 26 54  1  0
 26 55  1  0
 26 56  1  0
 31 57  1  0
 31 58  1  0
 31 59  1  0
 32 60  1  0
 32 61  1  0
 32 62  1  0
 33 63  1  0
 33 64  1  0
 33 65  1  0
M  END
>  <Molecule Name>  (1) 
Compound 1

>  <EC50 (µM) (Excel)>  (1) 
49.5

>  <Error (µM)>  (1) 
6.2

>  <HTRC CRBN-DDB1 EC50 (µM)>  (1) 
49.46 ±  6.19

>  <EC50 fitting (µM)>  (1) 
60.01

>  <Modèle Fitting>  (1) 
3PL

>  <Parent_Compound>  (1) 
Compound 1

>  <MMFF94s_energy_kcalmol>  (1) 
189.703

$$$$
Compound_1_ent2
     RDKit          3D

 65 67  0  0  0  0  0  0  0  0999 V2000
    4.0810    2.0976    0.2297 O   0  0  0  0  0  0  0  0  0  0  0  0
    4.9606    1.4639   -0.3660 C   0  0  0  0  0  0  0  0  0  0  0  0
    4.7449    0.3058   -1.1464 N   0  0  0  0  0  0  0  0  0  0  0  0
    6.3148    1.9552   -0.2537 N   0  0  0  0  0  0  0  0  0  0  0  0
    3.6937   -0.5798   -0.7800 C   0  0  0  0  0  0  0  0  0  0  0  0
    5.5710   -0.0275   -2.2889 C   0  0  0  0  0  0  0  0  0  0  0  0
    7.2919    1.2045   -0.9557 C   0  0  0  0  0  0  0  0  0  0  0  0
    2.9739   -0.5042    0.3845 C   0  0  0  0  0  0  0  0  0  0  0  0
    3.3440   -1.5913   -1.6815 C   0  0  0  0  0  0  0  0  0  0  0  0
    6.9361    0.6192   -2.2603 C   0  0  0  0  0  0  0  0  0  0  0  0
    8.4329    1.0459   -0.4727 O   0  0  0  0  0  0  0  0  0  0  0  0
    1.9211   -1.3721    0.7196 C   0  0  0  0  0  0  0  0  0  0  0  0
    2.3246   -2.4502   -1.3821 C   0  0  0  0  0  0  0  0  0  0  0  0
    1.6176   -2.3344   -0.1787 C   0  0  0  0  0  0  0  0  0  0  0  0
    1.2090   -1.2404    2.0004 C   0  0  0  0  0  0  0  0  0  0  0  0
    0.1204   -0.2984    1.9379 N   0  0  0  0  0  0  0  0  0  0  0  0
   -1.0019   -0.6064    1.1766 C   0  0  1  0  0  0  0  0  0  0  0  0
    0.6227    1.0442    1.8374 C   0  0  0  0  0  0  0  0  0  0  0  0
   -1.4598   -2.0174    1.1368 C   0  0  0  0  0  0  0  0  0  0  0  0
   -2.1979    0.2376    1.7087 C   0  0  0  0  0  0  0  0  0  0  0  0
   -0.2199    2.1768    2.2138 C   0  0  0  0  0  0  0  0  0  0  0  0
   -2.3668   -2.3516    0.2896 O   0  0  0  0  0  0  0  0  0  0  0  0
   -1.0180   -3.0478    1.9266 O   0  0  0  0  0  0  0  0  0  0  0  0
   -2.2029    1.4929    1.0115 N   0  0  0  0  0  0  0  0  0  0  0  0
   -1.2247    2.5876    1.1452 C   0  0  0  0  0  0  0  0  0  0  0  0
   -1.5188   -4.3646    1.8152 C   0  0  0  0  0  0  0  0  0  0  0  0
   -3.2607    1.6998    0.1156 C   0  0  0  0  0  0  0  0  0  0  0  0
   -3.3934    2.7474   -0.5747 O   0  0  0  0  0  0  0  0  0  0  0  0
   -4.2225    0.7275   -0.0417 O   0  0  0  0  0  0  0  0  0  0  0  0
   -5.3331    0.7579   -0.8775 C   0  0  0  0  0  0  0  0  0  0  0  0
   -6.0995   -0.5574   -0.6784 C   0  0  0  0  0  0  0  0  0  0  0  0
   -4.9778    0.9049   -2.3598 C   0  0  0  0  0  0  0  0  0  0  0  0
   -6.2539    1.8677   -0.4281 C   0  0  0  0  0  0  0  0  0  0  0  0
    6.5708    2.7904    0.2974 H   0  0  0  0  0  0  0  0  0  0  0  0
    5.7372   -1.1416   -2.3308 H   0  0  0  0  0  0  0  0  0  0  0  0
    5.0973    0.2235   -3.2614 H   0  0  0  0  0  0  0  0  0  0  0  0
    3.2168    0.2442    1.1103 H   0  0  0  0  0  0  0  0  0  0  0  0
    3.8666   -1.7154   -2.6373 H   0  0  0  0  0  0  0  0  0  0  0  0
    7.7249   -0.1299   -2.5205 H   0  0  0  0  0  0  0  0  0  0  0  0
    7.0276    1.3905   -3.0792 H   0  0  0  0  0  0  0  0  0  0  0  0
    2.0629   -3.2327   -2.0953 H   0  0  0  0  0  0  0  0  0  0  0  0
    0.8501   -3.0604   -0.0356 H   0  0  0  0  0  0  0  0  0  0  0  0
    0.9226   -2.1560    2.4887 H   0  0  0  0  0  0  0  0  0  0  0  0
    1.9701   -0.7700    2.7186 H   0  0  0  0  0  0  0  0  0  0  0  0
   -0.8670   -0.2652    0.1328 H   0  0  0  0  0  0  0  0  0  0  0  0
    1.0455    1.2022    0.8294 H   0  0  0  0  0  0  0  0  0  0  0  0
    1.5141    1.0531    2.5398 H   0  0  0  0  0  0  0  0  0  0  0  0
   -3.1384   -0.3360    1.5368 H   0  0  0  0  0  0  0  0  0  0  0  0
   -2.0723    0.4195    2.8017 H   0  0  0  0  0  0  0  0  0  0  0  0
   -0.8346    2.0245    3.1355 H   0  0  0  0  0  0  0  0  0  0  0  0
    0.4020    3.0708    2.4122 H   0  0  0  0  0  0  0  0  0  0  0  0
   -0.7604    2.8574    0.1867 H   0  0  0  0  0  0  0  0  0  0  0  0
   -1.7524    3.4767    1.5324 H   0  0  0  0  0  0  0  0  0  0  0  0
   -2.1454   -4.4277    0.8822 H   0  0  0  0  0  0  0  0  0  0  0  0
   -0.7226   -5.1216    1.7160 H   0  0  0  0  0  0  0  0  0  0  0  0
   -2.1676   -4.6588    2.6455 H   0  0  0  0  0  0  0  0  0  0  0  0
   -5.6901   -1.3506   -1.3463 H   0  0  0  0  0  0  0  0  0  0  0  0
   -7.1891   -0.3997   -0.8482 H   0  0  0  0  0  0  0  0  0  0  0  0
   -5.8947   -0.8809    0.3598 H   0  0  0  0  0  0  0  0  0  0  0  0
   -5.7824    0.3477   -2.9085 H   0  0  0  0  0  0  0  0  0  0  0  0
   -3.9820    0.4893   -2.5379 H   0  0  0  0  0  0  0  0  0  0  0  0
   -5.0009    1.9733   -2.6175 H   0  0  0  0  0  0  0  0  0  0  0  0
   -7.2886    1.7588   -0.8031 H   0  0  0  0  0  0  0  0  0  0  0  0
   -5.8778    2.8582   -0.7936 H   0  0  0  0  0  0  0  0  0  0  0  0
   -6.2508    1.8735    0.6859 H   0  0  0  0  0  0  0  0  0  0  0  0
  1  2  2  0
  2  3  1  0
  2  4  1  0
  3  5  1  0
  3  6  1  0
  4  7  1  0
  5  8  2  0
  5  9  1  0
  6 10  1  0
  7 11  2  0
  7 10  1  0
  8 12  1  0
  9 13  2  0
 12 14  2  0
 12 15  1  0
 13 14  1  0
 15 16  1  0
 16 17  1  0
 16 18  1  0
 17 19  1  0
 17 20  1  0
 18 21  1  0
 19 22  2  0
 19 23  1  0
 20 24  1  0
 21 25  1  0
 23 26  1  0
 24 27  1  0
 24 25  1  0
 27 28  2  0
 27 29  1  0
 29 30  1  0
 30 31  1  0
 30 32  1  0
 30 33  1  0
  4 34  1  0
  6 35  1  0
  6 36  1  0
  8 37  1  0
  9 38  1  0
 10 39  1  0
 10 40  1  0
 13 41  1  0
 14 42  1  0
 15 43  1  0
 15 44  1  0
 17 45  1  6
 18 46  1  0
 18 47  1  0
 20 48  1  0
 20 49  1  0
 21 50  1  0
 21 51  1  0
 25 52  1  0
 25 53  1  0
 26 54  1  0
 26 55  1  0
 26 56  1  0
 31 57  1  0
 31 58  1  0
 31 59  1  0
 32 60  1  0
 32 61  1  0
 32 62  1  0
 33 63  1  0
 33 64  1  0
 33 65  1  0
M  END
