Compound_1_ent1
     RDKit          3D

 65 67  0  0  0  0  0  0  0  0999 V2000
    4.4428   -0.0276    2.5607 O   0  0  0  0  0  0  0  0  0  0  0  0
    5.1158   -0.5794    1.6933 C   0  0  0  0  0  0  0  0  0  0  0  0
    4.6439   -1.4029    0.6667 N   0  0  0  0  0  0  0  0  0  0  0  0
    6.4792   -0.4018    1.7317 N   0  0  0  0  0  0  0  0  0  0  0  0
    3.2404   -1.6305    0.4568 C   0  0  0  0  0  0  0  0  0  0  0  0
    5.6161   -2.1803   -0.0970 C   0  0  0  0  0  0  0  0  0  0  0  0
    7.3943   -0.7447    0.7768 C   0  0  0  0  0  0  0  0  0  0  0  0
    2.2866   -0.6604    0.7983 C   0  0  0  0  0  0  0  0  0  0  0  0
    2.7736   -2.8232   -0.1189 C   0  0  0  0  0  0  0  0  0  0  0  0
    6.8243   -1.3482   -0.4669 C   0  0  0  0  0  0  0  0  0  0  0  0
    8.5906   -0.5047    0.9093 O   0  0  0  0  0  0  0  0  0  0  0  0
    0.9107   -0.8631    0.5799 C   0  0  0  0  0  0  0  0  0  0  0  0
    1.4092   -3.0392   -0.3396 C   0  0  0  0  0  0  0  0  0  0  0  0
    0.4805   -2.0640    0.0079 C   0  0  0  0  0  0  0  0  0  0  0  0
   -0.0864    0.2136    0.9517 C   0  0  0  0  0  0  0  0  0  0  0  0
    0.0582    1.4472    0.1659 N   0  0  0  0  0  0  0  0  0  0  0  0
   -0.1200    1.2630   -1.3001 C   0  0  2  0  0  0  0  0  0  0  0  0
   -0.6872    2.5718    0.7452 C   0  0  0  0  0  0  0  0  0  0  0  0
    0.3227    2.5302   -2.0544 C   0  0  0  0  0  0  0  0  0  0  0  0
   -1.4773    0.7627   -1.8623 C   0  0  0  0  0  0  0  0  0  0  0  0
   -2.2076    2.4474    0.8780 C   0  0  0  0  0  0  0  0  0  0  0  0
   -0.4313    3.3958   -2.4848 O   0  0  0  0  0  0  0  0  0  0  0  0
    1.6848    2.5738   -2.1601 O   0  0  0  0  0  0  0  0  0  0  0  0
   -2.6390    0.9000   -0.9845 N   0  0  0  0  0  0  0  0  0  0  0  0
   -2.9262    2.2222   -0.4454 C   0  0  0  0  0  0  0  0  0  0  0  0
    2.1846    3.7485   -2.7976 C   0  0  0  0  0  0  0  0  0  0  0  0
   -3.3770   -0.2238   -0.6452 C   0  0  0  0  0  0  0  0  0  0  0  0
   -3.1347   -1.3476   -1.0669 O   0  0  0  0  0  0  0  0  0  0  0  0
   -4.3717    0.0635    0.2330 O   0  0  0  0  0  0  0  0  0  0  0  0
   -5.2311   -0.9776    0.7621 C   0  0  0  0  0  0  0  0  0  0  0  0
   -6.1943   -0.2410    1.7057 C   0  0  0  0  0  0  0  0  0  0  0  0
   -6.0491   -1.6460   -0.3478 C   0  0  0  0  0  0  0  0  0  0  0  0
   -4.4294   -1.9960    1.5805 C   0  0  0  0  0  0  0  0  0  0  0  0
    6.8273    0.1025    2.5335 H   0  0  0  0  0  0  0  0  0  0  0  0
    5.1794   -2.5465   -1.0313 H   0  0  0  0  0  0  0  0  0  0  0  0
    5.9101   -3.0386    0.5197 H   0  0  0  0  0  0  0  0  0  0  0  0
    2.5907    0.2993    1.2111 H   0  0  0  0  0  0  0  0  0  0  0  0
    3.4490   -3.6336   -0.3753 H   0  0  0  0  0  0  0  0  0  0  0  0
    7.5826   -1.9710   -0.9515 H   0  0  0  0  0  0  0  0  0  0  0  0
    6.5492   -0.5336   -1.1463 H   0  0  0  0  0  0  0  0  0  0  0  0
    1.0708   -3.9755   -0.7766 H   0  0  0  0  0  0  0  0  0  0  0  0
   -0.5781   -2.2451   -0.1721 H   0  0  0  0  0  0  0  0  0  0  0  0
   -1.1008   -0.1921    0.8993 H   0  0  0  0  0  0  0  0  0  0  0  0
    0.0836    0.4354    2.0144 H   0  0  0  0  0  0  0  0  0  0  0  0
    0.6133    0.5183   -1.6426 H   0  0  0  0  0  0  0  0  0  0  0  0
   -0.4541    3.4951    0.2018 H   0  0  0  0  0  0  0  0  0  0  0  0
   -0.2839    2.7543    1.7507 H   0  0  0  0  0  0  0  0  0  0  0  0
   -1.7379    1.2671   -2.8004 H   0  0  0  0  0  0  0  0  0  0  0  0
   -1.3553   -0.2958   -2.1198 H   0  0  0  0  0  0  0  0  0  0  0  0
   -2.5838    3.3784    1.3202 H   0  0  0  0  0  0  0  0  0  0  0  0
   -2.4573    1.6502    1.5884 H   0  0  0  0  0  0  0  0  0  0  0  0
   -4.0055    2.3190   -0.2828 H   0  0  0  0  0  0  0  0  0  0  0  0
   -2.6577    2.9825   -1.1856 H   0  0  0  0  0  0  0  0  0  0  0  0
    1.8970    4.6424   -2.2353 H   0  0  0  0  0  0  0  0  0  0  0  0
    1.8252    3.8064   -3.8298 H   0  0  0  0  0  0  0  0  0  0  0  0
    3.2762    3.6870   -2.8142 H   0  0  0  0  0  0  0  0  0  0  0  0
   -6.9053   -0.9267    2.1784 H   0  0  0  0  0  0  0  0  0  0  0  0
   -5.6421    0.2834    2.4943 H   0  0  0  0  0  0  0  0  0  0  0  0
   -6.7605    0.5254    1.1636 H   0  0  0  0  0  0  0  0  0  0  0  0
   -6.8158   -2.3093    0.0671 H   0  0  0  0  0  0  0  0  0  0  0  0
   -6.5410   -0.8939   -0.9747 H   0  0  0  0  0  0  0  0  0  0  0  0
   -5.4228   -2.2478   -1.0130 H   0  0  0  0  0  0  0  0  0  0  0  0
   -3.7739   -2.6039    0.9497 H   0  0  0  0  0  0  0  0  0  0  0  0
   -3.7837   -1.4890    2.3064 H   0  0  0  0  0  0  0  0  0  0  0  0
   -5.0907   -2.6818    2.1210 H   0  0  0  0  0  0  0  0  0  0  0  0
  1  2  2  0
  2  3  1  0
  2  4  1  0
  3  5  1  0
  3  6  1  0
  4  7  1  0
  5  8  2  0
  5  9  1  0
  6 10  1  0
  7 11  2  0
  7 10  1  0
  8 12  1  0
  9 13  2  0
 12 14  2  0
 12 15  1  0
 13 14  1  0
 15 16  1  0
 16 17  1  0
 16 18  1  0
 17 19  1  0
 17 20  1  0
 18 21  1  0
 19 22  2  0
 19 23  1  0
 20 24  1  0
 21 25  1  0
 23 26  1  0
 24 27  1  0
 24 25  1  0
 27 28  2  0
 27 29  1  0
 29 30  1  0
 30 31  1  0
 30 32  1  0
 30 33  1  0
  4 34  1  0
  6 35  1  0
  6 36  1  0
  8 37  1  0
  9 38  1  0
 10 39  1  0
 10 40  1  0
 13 41  1  0
 14 42  1  0
 15 43  1  0
 15 44  1  0
 17 45  1  6
 18 46  1  0
 18 47  1  0
 20 48  1  0
 20 49  1  0
 21 50  1  0
 21 51  1  0
 25 52  1  0
 25 53  1  0
 26 54  1  0
 26 55  1  0
 26 56  1  0
 31 57  1  0
 31 58  1  0
 31 59  1  0
 32 60  1  0
 32 61  1  0
 32 62  1  0
 33 63  1  0
 33 64  1  0
 33 65  1  0
M  END
>  <Molecule Name>  (1) 
Compound 1

>  <EC50 (µM) (Excel)>  (1) 
49.5

>  <Error (µM)>  (1) 
6.2

>  <HTRC CRBN-DDB1 EC50 (µM)>  (1) 
49.46 ±  6.19

>  <EC50 fitting (µM)>  (1) 
60.01

>  <Modèle Fitting>  (1) 
3PL

>  <Parent_Compound>  (1) 
Compound 1

>  <MMFF94s_energy_kcalmol>  (1) 
-53.340

$$$$
Compound_1_ent2
     RDKit          3D

 65 67  0  0  0  0  0  0  0  0999 V2000
    5.6987    0.6590    2.6783 O   0  0  0  0  0  0  0  0  0  0  0  0
    5.0002    1.5156    2.1418 C   0  0  0  0  0  0  0  0  0  0  0  0
    3.8490    1.2986    1.3774 N   0  0  0  0  0  0  0  0  0  0  0  0
    5.3584    2.8321    2.3157 N   0  0  0  0  0  0  0  0  0  0  0  0
    3.3737   -0.0244    1.0704 C   0  0  0  0  0  0  0  0  0  0  0  0
    3.0198    2.4524    1.0364 C   0  0  0  0  0  0  0  0  0  0  0  0
    4.8707    3.9258    1.6581 C   0  0  0  0  0  0  0  0  0  0  0  0
    2.0106   -0.2703    0.8271 C   0  0  0  0  0  0  0  0  0  0  0  0
    4.2510   -1.1143    0.9840 C   0  0  0  0  0  0  0  0  0  0  0  0
    3.8582    3.6329    0.5983 C   0  0  0  0  0  0  0  0  0  0  0  0
    5.2928    5.0570    1.8776 O   0  0  0  0  0  0  0  0  0  0  0  0
    1.5333   -1.5551    0.5051 C   0  0  0  0  0  0  0  0  0  0  0  0
    3.7912   -2.3972    0.6693 C   0  0  0  0  0  0  0  0  0  0  0  0
    2.4391   -2.6176    0.4318 C   0  0  0  0  0  0  0  0  0  0  0  0
    0.0550   -1.7877    0.2679 C   0  0  0  0  0  0  0  0  0  0  0  0
   -0.2350   -2.3597   -1.0545 N   0  0  0  0  0  0  0  0  0  0  0  0
   -1.6078   -2.9280   -1.1630 C   0  0  1  0  0  0  0  0  0  0  0  0
    0.1057   -1.4963   -2.1901 C   0  0  0  0  0  0  0  0  0  0  0  0
   -1.6754   -4.2853   -0.4394 C   0  0  0  0  0  0  0  0  0  0  0  0
   -2.7712   -2.0317   -0.6719 C   0  0  0  0  0  0  0  0  0  0  0  0
   -0.6427   -0.1679   -2.3370 C   0  0  0  0  0  0  0  0  0  0  0  0
   -2.4970   -4.5845    0.4185 O   0  0  0  0  0  0  0  0  0  0  0  0
   -0.7146   -5.1346   -0.9130 O   0  0  0  0  0  0  0  0  0  0  0  0
   -2.7242   -0.6318   -1.1103 N   0  0  0  0  0  0  0  0  0  0  0  0
   -2.1575   -0.3238   -2.4184 C   0  0  0  0  0  0  0  0  0  0  0  0
   -0.6984   -6.4122   -0.2772 C   0  0  0  0  0  0  0  0  0  0  0  0
   -3.1762    0.3531   -0.2433 C   0  0  0  0  0  0  0  0  0  0  0  0
   -3.6700    0.1176    0.8511 O   0  0  0  0  0  0  0  0  0  0  0  0
   -2.9765    1.6019   -0.7382 O   0  0  0  0  0  0  0  0  0  0  0  0
   -3.3426    2.7792    0.0257 C   0  0  0  0  0  0  0  0  0  0  0  0
   -2.9587    3.9606   -0.8789 C   0  0  0  0  0  0  0  0  0  0  0  0
   -4.8517    2.8327    0.2854 C   0  0  0  0  0  0  0  0  0  0  0  0
   -2.5301    2.8739    1.3220 C   0  0  0  0  0  0  0  0  0  0  0  0
    6.1203    2.9919    2.9582 H   0  0  0  0  0  0  0  0  0  0  0  0
    2.3428    2.2180    0.2090 H   0  0  0  0  0  0  0  0  0  0  0  0
    2.4257    2.7057    1.9231 H   0  0  0  0  0  0  0  0  0  0  0  0
    1.2775    0.5257    0.9211 H   0  0  0  0  0  0  0  0  0  0  0  0
    5.3208   -0.9936    1.1320 H   0  0  0  0  0  0  0  0  0  0  0  0
    3.2263    4.5130    0.4432 H   0  0  0  0  0  0  0  0  0  0  0  0
    4.3926    3.4132   -0.3328 H   0  0  0  0  0  0  0  0  0  0  0  0
    4.4961   -3.2223    0.6064 H   0  0  0  0  0  0  0  0  0  0  0  0
    2.0901   -3.6177    0.1830 H   0  0  0  0  0  0  0  0  0  0  0  0
   -0.4966   -0.8561    0.4334 H   0  0  0  0  0  0  0  0  0  0  0  0
   -0.2734   -2.4756    1.0581 H   0  0  0  0  0  0  0  0  0  0  0  0
   -1.8048   -3.1807   -2.2148 H   0  0  0  0  0  0  0  0  0  0  0  0
    1.1810   -1.2793   -2.1711 H   0  0  0  0  0  0  0  0  0  0  0  0
   -0.0288   -2.0738   -3.1149 H   0  0  0  0  0  0  0  0  0  0  0  0
   -3.7197   -2.4384   -1.0456 H   0  0  0  0  0  0  0  0  0  0  0  0
   -2.8362   -2.0610    0.4224 H   0  0  0  0  0  0  0  0  0  0  0  0
   -0.2958    0.3076   -3.2630 H   0  0  0  0  0  0  0  0  0  0  0  0
   -0.3702    0.5114   -1.5205 H   0  0  0  0  0  0  0  0  0  0  0  0
   -2.5885    0.6117   -2.7913 H   0  0  0  0  0  0  0  0  0  0  0  0
   -2.4519   -1.1013   -3.1320 H   0  0  0  0  0  0  0  0  0  0  0  0
    0.1187   -6.9958   -0.7102 H   0  0  0  0  0  0  0  0  0  0  0  0
   -1.6381   -6.9426   -0.4603 H   0  0  0  0  0  0  0  0  0  0  0  0
   -0.5154   -6.3048    0.7965 H   0  0  0  0  0  0  0  0  0  0  0  0
   -3.4912    3.9075   -1.8357 H   0  0  0  0  0  0  0  0  0  0  0  0
   -1.8893    3.9358   -1.1192 H   0  0  0  0  0  0  0  0  0  0  0  0
   -3.1857    4.9236   -0.4095 H   0  0  0  0  0  0  0  0  0  0  0  0
   -5.1489    3.7982    0.7089 H   0  0  0  0  0  0  0  0  0  0  0  0
   -5.1751    2.0565    0.9852 H   0  0  0  0  0  0  0  0  0  0  0  0
   -5.4117    2.6720   -0.6428 H   0  0  0  0  0  0  0  0  0  0  0  0
   -2.6766    3.8414    1.8142 H   0  0  0  0  0  0  0  0  0  0  0  0
   -2.8112    2.0970    2.0393 H   0  0  0  0  0  0  0  0  0  0  0  0
   -1.4607    2.7431    1.1210 H   0  0  0  0  0  0  0  0  0  0  0  0
  1  2  2  0
  2  3  1  0
  2  4  1  0
  3  5  1  0
  3  6  1  0
  4  7  1  0
  5  8  2  0
  5  9  1  0
  6 10  1  0
  7 11  2  0
  7 10  1  0
  8 12  1  0
  9 13  2  0
 12 14  2  0
 12 15  1  0
 13 14  1  0
 15 16  1  0
 16 17  1  0
 16 18  1  0
 17 19  1  0
 17 20  1  0
 18 21  1  0
 19 22  2  0
 19 23  1  0
 20 24  1  0
 21 25  1  0
 23 26  1  0
 24 27  1  0
 24 25  1  0
 27 28  2  0
 27 29  1  0
 29 30  1  0
 30 31  1  0
 30 32  1  0
 30 33  1  0
  4 34  1  0
  6 35  1  0
  6 36  1  0
  8 37  1  0
  9 38  1  0
 10 39  1  0
 10 40  1  0
 13 41  1  0
 14 42  1  0
 15 43  1  0
 15 44  1  0
 17 45  1  6
 18 46  1  0
 18 47  1  0
 20 48  1  0
 20 49  1  0
 21 50  1  0
 21 51  1  0
 25 52  1  0
 25 53  1  0
 26 54  1  0
 26 55  1  0
 26 56  1  0
 31 57  1  0
 31 58  1  0
 31 59  1  0
 32 60  1  0
 32 61  1  0
 32 62  1  0
 33 63  1  0
 33 64  1  0
 33 65  1  0
M  END
>  <Molecule Name>  (2) 
Compound 1

>  <EC50 (µM) (Excel)>  (2) 
49.5

>  <Error (µM)>  (2) 
6.2

>  <HTRC CRBN-DDB1 EC50 (µM)>  (2) 
49.46 ±  6.19

>  <EC50 fitting (µM)>  (2) 
60.01

>  <Modèle Fitting>  (2) 
3PL

>  <Parent_Compound>  (2) 
Compound 1

>  <MMFF94s_energy_kcalmol>  (2) 
-53.766

$$$$
Compound_4_s1
     RDKit          3D

 51 54  0  0  0  0  0  0  0  0999 V2000
    4.8440    0.8181   -1.2655 O   0  0  0  0  0  0  0  0  0  0  0  0
    5.1434    0.8137   -0.0736 C   0  0  0  0  0  0  0  0  0  0  0  0
    4.3474    0.3553    0.9807 N   0  0  0  0  0  0  0  0  0  0  0  0
    6.3880    1.2786    0.2796 N   0  0  0  0  0  0  0  0  0  0  0  0
    3.0023   -0.1095    0.7716 C   0  0  0  0  0  0  0  0  0  0  0  0
    4.9677    0.1871    2.2926 C   0  0  0  0  0  0  0  0  0  0  0  0
    6.8535    1.5499    1.5354 C   0  0  0  0  0  0  0  0  0  0  0  0
    2.2194    0.4063   -0.2761 C   0  0  0  0  0  0  0  0  0  0  0  0
    2.4311   -1.0918    1.6279 C   0  0  0  0  0  0  0  0  0  0  0  0
    5.8632    1.3564    2.6390 C   0  0  0  0  0  0  0  0  0  0  0  0
    7.9833    1.9889    1.7268 O   0  0  0  0  0  0  0  0  0  0  0  0
    0.9297   -0.0608   -0.4281 C   0  0  0  0  0  0  0  0  0  0  0  0
    1.1215   -1.5676    1.4621 C   0  0  0  0  0  0  0  0  0  0  0  0
    0.3863   -1.0383    0.4313 C   0  0  0  0  0  0  0  0  0  0  0  0
   -0.1469    0.2550   -1.4407 C   0  0  2  0  0  0  0  0  0  0  0  0
   -1.0108   -1.3128   -0.0771 C   0  0  1  0  0  0  0  0  0  0  0  0
   -1.3172    0.0046   -0.6169 N   0  0  0  0  0  0  0  0  0  0  0  0
   -0.2602   -0.9768   -2.3879 C   0  0  1  0  0  0  0  0  0  0  0  0
   -0.8472   -2.0898   -1.4219 C   0  0  2  0  0  0  0  0  0  0  0  0
   -2.5480    0.5414   -0.8199 C   0  0  0  0  0  0  0  0  0  0  0  0
   -1.1614   -0.7627   -3.4859 O   0  0  0  0  0  0  0  0  0  0  0  0
   -2.1011   -2.5799   -1.9060 O   0  0  0  0  0  0  0  0  0  0  0  0
   -2.7570    1.3942   -1.6727 O   0  0  0  0  0  0  0  0  0  0  0  0
   -3.4760   -0.0099   -0.0050 O   0  0  0  0  0  0  0  0  0  0  0  0
   -4.8724    0.3667   -0.1013 C   0  0  0  0  0  0  0  0  0  0  0  0
   -5.4510    0.0019   -1.4729 C   0  0  0  0  0  0  0  0  0  0  0  0
   -5.5782   -0.4790    0.9696 C   0  0  0  0  0  0  0  0  0  0  0  0
   -5.0751    1.8485    0.2320 C   0  0  0  0  0  0  0  0  0  0  0  0
    7.0022    1.5050   -0.4889 H   0  0  0  0  0  0  0  0  0  0  0  0
    4.2084    0.1194    3.0781 H   0  0  0  0  0  0  0  0  0  0  0  0
    5.5417   -0.7474    2.2690 H   0  0  0  0  0  0  0  0  0  0  0  0
    2.5844    1.1756   -0.9482 H   0  0  0  0  0  0  0  0  0  0  0  0
    3.0152   -1.5432    2.4258 H   0  0  0  0  0  0  0  0  0  0  0  0
    5.2832    2.2802    2.7426 H   0  0  0  0  0  0  0  0  0  0  0  0
    6.3939    1.1658    3.5770 H   0  0  0  0  0  0  0  0  0  0  0  0
    0.7159   -2.3286    2.1203 H   0  0  0  0  0  0  0  0  0  0  0  0
   -0.1364    1.2426   -1.9044 H   0  0  0  0  0  0  0  0  0  0  0  0
   -1.7441   -1.6955    0.6336 H   0  0  0  0  0  0  0  0  0  0  0  0
    0.7108   -1.2770   -2.7966 H   0  0  0  0  0  0  0  0  0  0  0  0
   -0.1606   -2.9384   -1.3264 H   0  0  0  0  0  0  0  0  0  0  0  0
   -1.7648   -0.0319   -3.2369 H   0  0  0  0  0  0  0  0  0  0  0  0
   -2.1284   -2.3262   -2.8525 H   0  0  0  0  0  0  0  0  0  0  0  0
   -5.2178   -1.0378   -1.7290 H   0  0  0  0  0  0  0  0  0  0  0  0
   -6.5386    0.1307   -1.4937 H   0  0  0  0  0  0  0  0  0  0  0  0
   -5.0328    0.6223   -2.2713 H   0  0  0  0  0  0  0  0  0  0  0  0
   -6.6556   -0.2851    0.9969 H   0  0  0  0  0  0  0  0  0  0  0  0
   -5.1640   -0.2736    1.9636 H   0  0  0  0  0  0  0  0  0  0  0  0
   -5.4233   -1.5487    0.7857 H   0  0  0  0  0  0  0  0  0  0  0  0
   -6.1387    2.0949    0.3211 H   0  0  0  0  0  0  0  0  0  0  0  0
   -4.6515    2.5024   -0.5361 H   0  0  0  0  0  0  0  0  0  0  0  0
   -4.5774    2.1067    1.1735 H   0  0  0  0  0  0  0  0  0  0  0  0
  1  2  2  0
  2  3  1  0
  2  4  1  0
  3  5  1  0
  3  6  1  0
  4  7  1  0
  5  8  2  0
  5  9  1  0
  6 10  1  0
  7 11  2  0
  7 10  1  0
  8 12  1  0
  9 13  2  0
 12 14  2  0
 13 14  1  0
 15 12  1  0
 15 17  1  0
 15 18  1  0
 16 14  1  0
 16 19  1  0
 16 17  1  0
 17 20  1  0
 18 21  1  0
 18 19  1  0
 19 22  1  0
 20 23  2  0
 20 24  1  0
 24 25  1  0
 25 26  1  0
 25 27  1  0
 25 28  1  0
  4 29  1  0
  6 30  1  0
  6 31  1  0
  8 32  1  0
  9 33  1  0
 10 34  1  0
 10 35  1  0
 13 36  1  0
 15 37  1  6
 16 38  1  1
 18 39  1  6
 19 40  1  1
 21 41  1  0
 22 42  1  0
 26 43  1  0
 26 44  1  0
 26 45  1  0
 27 46  1  0
 27 47  1  0
 27 48  1  0
 28 49  1  0
 28 50  1  0
 28 51  1  0
M  END
>  <Molecule Name>  (3) 
Compound 4

>  <EC50 (µM) (Excel)>  (3) 
11.8

>  <Error (µM)>  (3) 
7.4

>  <HTRC CRBN-DDB1 EC50 (µM)>  (3) 
11.78 ±  7.41

>  <EC50 fitting (µM)>  (3) 
15.10

>  <Modèle Fitting>  (3) 
4PL

>  <Parent_Compound>  (3) 
Compound 4

>  <MMFF94s_energy_kcalmol>  (3) 
-18.726

$$$$
Compound_4_s4
     RDKit          3D

 51 54  0  0  0  0  0  0  0  0999 V2000
   -3.3854   -1.0562   -2.7381 O   0  0  0  0  0  0  0  0  0  0  0  0
   -4.1861   -0.4068   -2.0692 C   0  0  0  0  0  0  0  0  0  0  0  0
   -4.0335   -0.0241   -0.7333 N   0  0  0  0  0  0  0  0  0  0  0  0
   -5.3656   -0.0281   -2.6651 N   0  0  0  0  0  0  0  0  0  0  0  0
   -2.8309   -0.3023    0.0051 C   0  0  0  0  0  0  0  0  0  0  0  0
   -5.1962    0.5137   -0.0311 C   0  0  0  0  0  0  0  0  0  0  0  0
   -6.2970    0.8519   -2.1903 C   0  0  0  0  0  0  0  0  0  0  0  0
   -1.5894   -0.3864   -0.6493 C   0  0  0  0  0  0  0  0  0  0  0  0
   -2.8708   -0.4888    1.4146 C   0  0  0  0  0  0  0  0  0  0  0  0
   -5.9553    1.5028   -0.8882 C   0  0  0  0  0  0  0  0  0  0  0  0
   -7.3052    1.1355   -2.8298 O   0  0  0  0  0  0  0  0  0  0  0  0
   -0.4621   -0.6450    0.1046 C   0  0  0  0  0  0  0  0  0  0  0  0
   -1.7208   -0.7567    2.1721 C   0  0  0  0  0  0  0  0  0  0  0  0
   -0.5261   -0.8268    1.5002 C   0  0  0  0  0  0  0  0  0  0  0  0
    0.9912   -0.8322   -0.2759 C   0  0  1  0  0  0  0  0  0  0  0  0
    0.8899   -1.1173    1.9549 C   0  0  2  0  0  0  0  0  0  0  0  0
    1.5991   -0.3425    0.9512 N   0  0  0  0  0  0  0  0  0  0  0  0
    1.3363   -2.3480   -0.1127 C   0  0  1  0  0  0  0  0  0  0  0  0
    1.2655   -2.5471    1.4579 C   0  0  2  0  0  0  0  0  0  0  0  0
    2.7436    0.3562    1.1347 C   0  0  0  0  0  0  0  0  0  0  0  0
    0.4982   -3.2669   -0.8065 O   0  0  0  0  0  0  0  0  0  0  0  0
    0.3511   -3.5703    1.8356 O   0  0  0  0  0  0  0  0  0  0  0  0
    3.2525    0.5337    2.2317 O   0  0  0  0  0  0  0  0  0  0  0  0
    3.2422    0.7961   -0.0452 O   0  0  0  0  0  0  0  0  0  0  0  0
    4.4671    1.5716   -0.0952 C   0  0  0  0  0  0  0  0  0  0  0  0
    4.6739    1.8744   -1.5871 C   0  0  0  0  0  0  0  0  0  0  0  0
    5.6627    0.7558    0.4086 C   0  0  0  0  0  0  0  0  0  0  0  0
    4.3187    2.8982    0.6575 C   0  0  0  0  0  0  0  0  0  0  0  0
   -5.5234   -0.3977   -3.5911 H   0  0  0  0  0  0  0  0  0  0  0  0
   -5.8370   -0.3332    0.2436 H   0  0  0  0  0  0  0  0  0  0  0  0
   -4.8937    1.0418    0.8787 H   0  0  0  0  0  0  0  0  0  0  0  0
   -1.4847   -0.2319   -1.7178 H   0  0  0  0  0  0  0  0  0  0  0  0
   -3.8144   -0.4739    1.9538 H   0  0  0  0  0  0  0  0  0  0  0  0
   -6.8747    1.8173   -0.3845 H   0  0  0  0  0  0  0  0  0  0  0  0
   -5.3472    2.3895   -1.0994 H   0  0  0  0  0  0  0  0  0  0  0  0
   -1.7795   -0.9175    3.2432 H   0  0  0  0  0  0  0  0  0  0  0  0
    1.3149   -0.3497   -1.1988 H   0  0  0  0  0  0  0  0  0  0  0  0
    1.1259   -0.8751    2.9921 H   0  0  0  0  0  0  0  0  0  0  0  0
    2.3699   -2.5200   -0.4375 H   0  0  0  0  0  0  0  0  0  0  0  0
    2.2630   -2.8174    1.8258 H   0  0  0  0  0  0  0  0  0  0  0  0
   -0.4248   -3.0776   -0.5466 H   0  0  0  0  0  0  0  0  0  0  0  0
    0.4554   -4.2798    1.1719 H   0  0  0  0  0  0  0  0  0  0  0  0
    5.5804    2.4635   -1.7613 H   0  0  0  0  0  0  0  0  0  0  0  0
    4.7472    0.9466   -2.1665 H   0  0  0  0  0  0  0  0  0  0  0  0
    3.8187    2.4261   -1.9948 H   0  0  0  0  0  0  0  0  0  0  0  0
    6.6082    1.2745    0.2166 H   0  0  0  0  0  0  0  0  0  0  0  0
    5.6975   -0.2247   -0.0795 H   0  0  0  0  0  0  0  0  0  0  0  0
    5.6059    0.5682    1.4850 H   0  0  0  0  0  0  0  0  0  0  0  0
    3.4098    3.4237    0.3434 H   0  0  0  0  0  0  0  0  0  0  0  0
    5.1785    3.5539    0.4824 H   0  0  0  0  0  0  0  0  0  0  0  0
    4.2367    2.7486    1.7383 H   0  0  0  0  0  0  0  0  0  0  0  0
  1  2  2  0
  2  3  1  0
  2  4  1  0
  3  5  1  0
  3  6  1  0
  4  7  1  0
  5  8  2  0
  5  9  1  0
  6 10  1  0
  7 11  2  0
  7 10  1  0
  8 12  1  0
  9 13  2  0
 12 14  2  0
 13 14  1  0
 15 12  1  0
 15 17  1  0
 15 18  1  0
 16 14  1  0
 16 19  1  0
 16 17  1  0
 17 20  1  0
 18 21  1  0
 18 19  1  0
 19 22  1  0
 20 23  2  0
 20 24  1  0
 24 25  1  0
 25 26  1  0
 25 27  1  0
 25 28  1  0
  4 29  1  0
  6 30  1  0
  6 31  1  0
  8 32  1  0
  9 33  1  0
 10 34  1  0
 10 35  1  0
 13 36  1  0
 15 37  1  6
 16 38  1  1
 18 39  1  6
 19 40  1  1
 21 41  1  0
 22 42  1  0
 26 43  1  0
 26 44  1  0
 26 45  1  0
 27 46  1  0
 27 47  1  0
 27 48  1  0
 28 49  1  0
 28 50  1  0
 28 51  1  0
M  END
