EDS01806218_ent1
     RDKit          3D

  0  0  0  0  0  0  0  0  0  0999 V3000
M  V30 BEGIN CTAB
M  V30 COUNTS 61 66 0 0 0
M  V30 BEGIN ATOM
M  V30 1 S 1.918523 0.499143 2.254952 0 VAL=6
M  V30 2 O 0.872930 -0.263182 2.901675 0
M  V30 3 O 2.245075 1.840954 2.688556 0
M  V30 4 N 1.582555 0.556150 0.594503 0
M  V30 5 C 3.397917 -0.453259 2.345690 0
M  V30 6 C 1.160941 -0.724744 -0.060604 0
M  V30 7 C 2.483777 1.381649 -0.258870 0
M  V30 8 C 3.315030 -1.821445 2.529974 0
M  V30 9 C 4.653466 0.150715 2.302735 0
M  V30 10 C 0.567207 -0.447507 -1.469061 0 CFG=2
M  V30 11 C 1.908738 1.577335 -1.684078 0 CFG=1
M  V30 12 N 4.403970 -2.623145 2.610701 0
M  V30 13 C 5.786495 -0.651782 2.400329 0
M  V30 14 N 1.556999 0.281789 -2.284819 0
M  V30 15 C -0.686972 0.385875 -1.335507 0
M  V30 16 C 0.667747 2.489913 -1.715240 0
M  V30 17 C 5.613312 -2.020308 2.547142 0
M  V30 18 C 1.753905 0.099458 -3.642835 0
M  V30 19 C -1.916964 -0.162051 -1.010918 0
M  V30 20 C -0.621461 1.772903 -1.380291 0
M  V30 21 O 2.363802 0.915603 -4.332755 0
M  V30 22 C 1.211609 -1.164184 -4.258512 0
M  V30 23 N -2.992352 0.607308 -0.789645 0
M  V30 24 N -2.038141 -1.565085 -0.948343 0
M  V30 25 N -1.697057 2.554136 -1.167069 0
M  V30 26 C -2.856483 1.946339 -0.857881 0
M  V30 27 C -3.226637 -2.065852 -0.258518 0
M  V30 28 C -4.067276 2.804897 -0.589147 0
M  V30 29 C -3.050624 -1.934529 1.225990 0
M  V30 30 C -4.877547 2.605174 0.672774 0
M  V30 31 C -4.033967 3.834906 0.518203 0
M  V30 32 C -2.055576 -2.796277 1.964131 0
M  V30 33 C -3.530005 -3.014213 2.164207 0
M  V30 34 H 2.037813 -1.374460 -0.165077 0
M  V30 35 H 0.421714 -1.238007 0.562534 0
M  V30 36 H 3.450977 0.871847 -0.340512 0
M  V30 37 H 2.649060 2.362372 0.198652 0
M  V30 38 H 2.361547 -2.336518 2.615739 0
M  V30 39 H 4.753891 1.228593 2.203640 0
M  V30 40 H 0.338192 -1.402501 -1.947464 0
M  V30 41 H 2.695454 2.062124 -2.275258 0
M  V30 42 H 6.782081 -0.221721 2.370999 0
M  V30 43 H 0.803733 3.348566 -1.047738 0
M  V30 44 H 0.549549 2.884811 -2.732853 0
M  V30 45 H 6.467652 -2.687382 2.627680 0
M  V30 46 H 0.118761 -1.148315 -4.249514 0
M  V30 47 H 1.590504 -2.039764 -3.724824 0
M  V30 48 H 1.545970 -1.231976 -5.298341 0
M  V30 49 H -2.017340 -1.912617 -1.903811 0
M  V30 50 H -4.148912 -1.576914 -0.594120 0
M  V30 51 H -3.334794 -3.125377 -0.521222 0
M  V30 52 H -4.626366 3.078065 -1.478971 0
M  V30 53 H -3.158939 -0.906018 1.554328 0
M  V30 54 H -4.550928 1.850505 1.380164 0
M  V30 55 H -5.953488 2.709714 0.601777 0
M  V30 56 H -4.532168 4.780403 0.340532 0
M  V30 57 H -3.134190 3.914381 1.118919 0
M  V30 58 H -1.490800 -2.328711 2.763853 0
M  V30 59 H -1.499868 -3.538987 1.404463 0
M  V30 60 H -3.969663 -3.913518 1.749411 0
M  V30 61 H -3.962375 -2.705277 3.109542 0
M  V30 END ATOM
M  V30 BEGIN BOND
M  V30 1 2 1 2
M  V30 2 2 1 3
M  V30 3 1 1 4
M  V30 4 1 1 5
M  V30 5 1 4 6
M  V30 6 1 4 7
M  V30 7 2 5 8
M  V30 8 1 5 9
M  V30 9 1 6 10
M  V30 10 1 7 11
M  V30 11 1 8 12
M  V30 12 2 9 13
M  V30 13 1 10 14
M  V30 14 1 10 15
M  V30 15 1 11 16
M  V30 16 2 12 17
M  V30 17 1 14 18
M  V30 18 1 15 19
M  V30 19 2 15 20
M  V30 20 2 18 21
M  V30 21 1 18 22
M  V30 22 2 19 23
M  V30 23 1 19 24
M  V30 24 1 20 25
M  V30 25 1 23 26
M  V30 26 1 24 27
M  V30 27 1 26 28
M  V30 28 1 27 29
M  V30 29 1 28 30
M  V30 30 1 28 31
M  V30 31 1 29 32
M  V30 32 1 29 33
M  V30 33 1 11 14
M  V30 34 1 13 17
M  V30 35 1 16 20
M  V30 36 2 25 26
M  V30 37 1 30 31
M  V30 38 1 32 33
M  V30 39 1 6 34
M  V30 40 1 6 35
M  V30 41 1 7 36
M  V30 42 1 7 37
M  V30 43 1 8 38
M  V30 44 1 9 39
M  V30 45 1 10 40 CFG=3
M  V30 46 1 11 41 CFG=3
M  V30 47 1 13 42
M  V30 48 1 16 43
M  V30 49 1 16 44
M  V30 50 1 17 45
M  V30 51 1 22 46
M  V30 52 1 22 47
M  V30 53 1 22 48
M  V30 54 1 24 49
M  V30 55 1 27 50
M  V30 56 1 27 51
M  V30 57 1 28 52
M  V30 58 1 29 53
M  V30 59 1 30 54
M  V30 60 1 30 55
M  V30 61 1 31 56
M  V30 62 1 31 57
M  V30 63 1 32 58
M  V30 64 1 32 59
M  V30 65 1 33 60
M  V30 66 1 33 61
M  V30 END BOND
M  V30 BEGIN COLLECTION
M  V30 MDLV30/STERAC1 ATOMS=(2 10 11)
M  V30 END COLLECTION
M  V30 END CTAB
M  END
>  <ID>  (1) 
EDS01806218

>  <MMFF94_energy_kcal_mol>  (1) 
-25.934

$$$$
