EDS01357518_ent1
     RDKit          3D

  0  0  0  0  0  0  0  0  0  0999 V3000
M  V30 BEGIN CTAB
M  V30 COUNTS 61 64 0 0 0
M  V30 BEGIN ATOM
M  V30 1 S 3.456780 -2.412664 1.649469 0
M  V30 2 C 4.404443 -0.999538 1.879548 0
M  V30 3 C 4.563278 -2.954225 0.456368 0
M  V30 4 C 5.499612 -1.029533 1.030498 0
M  V30 5 C 4.000348 0.036012 2.873129 0
M  V30 6 N 5.579360 -2.153966 0.222483 0
M  V30 7 C 4.337690 -4.250993 -0.236205 0
M  V30 8 C 6.557399 0.007845 0.900062 0
M  V30 9 N 3.230558 1.044291 2.191266 0
M  V30 10 C 3.732465 2.283076 1.862588 0
M  V30 11 O 4.830506 2.697270 2.214887 0
M  V30 12 C 2.816233 3.106921 1.008155 0
M  V30 13 N 1.645712 2.509897 0.638511 0
M  V30 14 C 3.182607 4.390810 0.635415 0
M  V30 15 C 0.803124 3.221670 -0.152070 0
M  V30 16 C 2.302491 5.111421 -0.161506 0
M  V30 17 C 1.101686 4.525073 -0.557622 0
M  V30 18 C -0.514727 2.581968 -0.572116 0 CFG=1
M  V30 19 O -0.724128 2.822061 -1.984024 0
M  V30 20 C -0.601049 1.090360 -0.175453 0
M  V30 21 C -1.196609 1.685506 -2.712380 0
M  V30 22 N -1.833537 0.460310 -0.661936 0
M  V30 23 C -2.305072 0.940729 -1.963262 0
M  V30 24 C -2.251727 -0.723631 -0.055893 0
M  V30 25 O -1.552776 -1.264570 0.800471 0
M  V30 26 C -3.518876 -1.294238 -0.457941 0
M  V30 27 N -3.790785 -2.642244 -0.457697 0
M  V30 28 C -4.713915 -0.701115 -0.828854 0
M  V30 29 N -5.034980 -2.946913 -0.877433 0
M  V30 30 C -2.892073 -3.715851 -0.096846 0
M  V30 31 C -5.612135 -1.760388 -1.082899 0
M  V30 32 C -7.035605 -1.674832 -1.516712 0
M  V30 33 C -7.997029 -1.630354 -0.339051 0
M  V30 34 H 3.364353 -0.384886 3.658937 0
M  V30 35 H 4.877301 0.479491 3.355369 0
M  V30 36 H 5.134497 -4.440319 -0.962674 0
M  V30 37 H 3.385228 -4.243927 -0.775629 0
M  V30 38 H 4.331280 -5.079014 0.479696 0
M  V30 39 H 6.175897 0.870049 0.344991 0
M  V30 40 H 6.899988 0.344991 1.883000 0
M  V30 41 H 7.424314 -0.387117 0.360819 0
M  V30 42 H 2.341391 0.790609 1.770414 0
M  V30 43 H 4.127455 4.817205 0.956000 0
M  V30 44 H 2.549753 6.121394 -0.477503 0
M  V30 45 H 0.408943 5.077293 -1.187632 0
M  V30 46 H -1.318308 3.120318 -0.052907 0
M  V30 47 H 0.231021 0.521497 -0.611379 0
M  V30 48 H -0.541213 0.975667 0.913655 0
M  V30 49 H -0.345598 1.025938 -2.918870 0
M  V30 50 H -1.572656 2.045653 -3.675157 0
M  V30 51 H -3.132042 1.629890 -1.761727 0
M  V30 52 H -2.665150 0.105385 -2.570586 0
M  V30 53 H -4.924574 0.356715 -0.888930 0
M  V30 54 H -2.764364 -3.705789 0.988100 0
M  V30 55 H -3.323346 -4.670422 -0.410679 0
M  V30 56 H -1.938130 -3.565096 -0.607911 0
M  V30 57 H -7.175833 -0.777312 -2.131056 0
M  V30 58 H -7.282268 -2.532093 -2.154830 0
M  V30 59 H -7.800323 -0.762579 0.299757 0
M  V30 60 H -9.030148 -1.564079 -0.694437 0
M  V30 61 H -7.906735 -2.529624 0.279760 0
M  V30 END ATOM
M  V30 BEGIN BOND
M  V30 1 1 1 2
M  V30 2 1 1 3
M  V30 3 2 2 4
M  V30 4 1 2 5
M  V30 5 2 3 6
M  V30 6 1 3 7
M  V30 7 1 4 8
M  V30 8 1 5 9
M  V30 9 1 9 10
M  V30 10 2 10 11
M  V30 11 1 10 12
M  V30 12 2 12 13
M  V30 13 1 12 14
M  V30 14 1 13 15
M  V30 15 2 14 16
M  V30 16 2 15 17
M  V30 17 1 18 15
M  V30 18 1 18 19
M  V30 19 1 18 20
M  V30 20 1 19 21
M  V30 21 1 20 22
M  V30 22 1 21 23
M  V30 23 1 22 24
M  V30 24 2 24 25
M  V30 25 1 24 26
M  V30 26 1 26 27
M  V30 27 2 26 28
M  V30 28 1 27 29
M  V30 29 1 27 30
M  V30 30 1 28 31
M  V30 31 1 31 32
M  V30 32 1 32 33
M  V30 33 1 4 6
M  V30 34 1 16 17
M  V30 35 1 22 23
M  V30 36 2 29 31
M  V30 37 1 5 34
M  V30 38 1 5 35
M  V30 39 1 7 36
M  V30 40 1 7 37
M  V30 41 1 7 38
M  V30 42 1 8 39
M  V30 43 1 8 40
M  V30 44 1 8 41
M  V30 45 1 9 42
M  V30 46 1 14 43
M  V30 47 1 16 44
M  V30 48 1 17 45
M  V30 49 1 18 46 CFG=1
M  V30 50 1 20 47
M  V30 51 1 20 48
M  V30 52 1 21 49
M  V30 53 1 21 50
M  V30 54 1 23 51
M  V30 55 1 23 52
M  V30 56 1 28 53
M  V30 57 1 30 54
M  V30 58 1 30 55
M  V30 59 1 30 56
M  V30 60 1 32 57
M  V30 61 1 32 58
M  V30 62 1 33 59
M  V30 63 1 33 60
M  V30 64 1 33 61
M  V30 END BOND
M  V30 BEGIN COLLECTION
M  V30 MDLV30/STERAC1 ATOMS=(1 18)
M  V30 END COLLECTION
M  V30 END CTAB
M  END
>  <ID>  (1) 
EDS01357518

>  <MMFF94_energy_kcal_mol>  (1) 
77.479

$$$$
