EDS01357518_ent2
     RDKit          3D

  0  0  0  0  0  0  0  0  0  0999 V3000
M  V30 BEGIN CTAB
M  V30 COUNTS 61 64 0 0 0
M  V30 BEGIN ATOM
M  V30 1 S 2.623916 1.590442 -1.051484 0
M  V30 2 C 2.959464 1.663769 0.632181 0
M  V30 3 C 1.728627 3.048761 -0.932296 0
M  V30 4 C 2.365356 2.791437 1.176633 0
M  V30 5 C 3.773363 0.603231 1.294603 0
M  V30 6 N 1.665245 3.573020 0.271580 0
M  V30 7 C 1.094098 3.643224 -2.139360 0
M  V30 8 C 2.387062 3.224029 2.599535 0
M  V30 9 N 2.893394 -0.465680 1.687565 0
M  V30 10 C 2.307323 -0.530918 2.931601 0
M  V30 11 O 2.620235 0.180398 3.878785 0
M  V30 12 C 1.210408 -1.546903 3.031078 0
M  V30 13 N 0.927209 -2.231979 1.884808 0
M  V30 14 C 0.540550 -1.724588 4.231112 0
M  V30 15 C -0.077413 -3.142180 1.935471 0
M  V30 16 C -0.482088 -2.661533 4.268276 0
M  V30 17 C -0.794608 -3.377494 3.114080 0
M  V30 18 C -0.431659 -3.939273 0.679398 0 CFG=2
M  V30 19 O 0.605751 -3.962351 -0.332575 0
M  V30 20 C -1.806404 -3.579964 0.066194 0
M  V30 21 C 0.641841 -2.786257 -1.155145 0
M  V30 22 N -1.746206 -2.389710 -0.782433 0
M  V30 23 C -0.711425 -2.500295 -1.813925 0
M  V30 24 C -2.114889 -1.164427 -0.218233 0
M  V30 25 O -2.429574 -1.080797 0.967381 0
M  V30 26 C -2.160597 -0.016886 -1.093752 0
M  V30 27 N -1.856408 1.268754 -0.718520 0
M  V30 28 C -2.585613 0.090708 -2.406926 0
M  V30 29 N -1.980375 2.166220 -1.719672 0
M  V30 30 C -1.406906 1.714085 0.582066 0
M  V30 31 C -2.453792 1.453766 -2.745658 0
M  V30 32 C -2.783981 2.113008 -4.041274 0
M  V30 33 C -1.698046 1.915767 -5.087536 0
M  V30 34 H 4.518483 0.183721 0.610649 0
M  V30 35 H 4.303152 0.997115 2.167609 0
M  V30 36 H 0.266476 4.299065 -1.851326 0
M  V30 37 H 0.698506 2.872797 -2.807285 0
M  V30 38 H 1.824348 4.241154 -2.693543 0
M  V30 39 H 1.615373 2.694576 3.166108 0
M  V30 40 H 3.359972 3.030102 3.060337 0
M  V30 41 H 2.189746 4.297968 2.678909 0
M  V30 42 H 2.474815 -1.057803 0.976309 0
M  V30 43 H 0.803948 -1.145052 5.109537 0
M  V30 44 H -1.037971 -2.829825 5.186696 0
M  V30 45 H -1.597976 -4.108208 3.141412 0
M  V30 46 H -0.495524 -4.982671 1.015756 0
M  V30 47 H -2.115321 -4.397336 -0.598087 0
M  V30 48 H -2.584927 -3.476783 0.829519 0
M  V30 49 H 1.397068 -2.955983 -1.929361 0
M  V30 50 H 0.973067 -1.926088 -0.567490 0
M  V30 51 H -0.626315 -1.600502 -2.423843 0
M  V30 52 H -0.997197 -3.333885 -2.465537 0
M  V30 53 H -2.958121 -0.709593 -3.031033 0
M  V30 54 H -1.108421 2.763565 0.523367 0
M  V30 55 H -2.236077 1.608393 1.285511 0
M  V30 56 H -0.555012 1.101390 0.886698 0
M  V30 57 H -3.729377 1.707328 -4.421198 0
M  V30 58 H -2.944555 3.186884 -3.886285 0
M  V30 59 H -1.537101 0.852850 -5.297370 0
M  V30 60 H -1.979597 2.407801 -6.023868 0
M  V30 61 H -0.745320 2.339636 -4.754212 0
M  V30 END ATOM
M  V30 BEGIN BOND
M  V30 1 1 1 2
M  V30 2 1 1 3
M  V30 3 2 2 4
M  V30 4 1 2 5
M  V30 5 2 3 6
M  V30 6 1 3 7
M  V30 7 1 4 8
M  V30 8 1 5 9
M  V30 9 1 9 10
M  V30 10 2 10 11
M  V30 11 1 10 12
M  V30 12 2 12 13
M  V30 13 1 12 14
M  V30 14 1 13 15
M  V30 15 2 14 16
M  V30 16 2 15 17
M  V30 17 1 18 15
M  V30 18 1 18 19
M  V30 19 1 18 20
M  V30 20 1 19 21
M  V30 21 1 20 22
M  V30 22 1 21 23
M  V30 23 1 22 24
M  V30 24 2 24 25
M  V30 25 1 24 26
M  V30 26 1 26 27
M  V30 27 2 26 28
M  V30 28 1 27 29
M  V30 29 1 27 30
M  V30 30 1 28 31
M  V30 31 1 31 32
M  V30 32 1 32 33
M  V30 33 1 4 6
M  V30 34 1 16 17
M  V30 35 1 22 23
M  V30 36 2 29 31
M  V30 37 1 5 34
M  V30 38 1 5 35
M  V30 39 1 7 36
M  V30 40 1 7 37
M  V30 41 1 7 38
M  V30 42 1 8 39
M  V30 43 1 8 40
M  V30 44 1 8 41
M  V30 45 1 9 42
M  V30 46 1 14 43
M  V30 47 1 16 44
M  V30 48 1 17 45
M  V30 49 1 18 46 CFG=1
M  V30 50 1 20 47
M  V30 51 1 20 48
M  V30 52 1 21 49
M  V30 53 1 21 50
M  V30 54 1 23 51
M  V30 55 1 23 52
M  V30 56 1 28 53
M  V30 57 1 30 54
M  V30 58 1 30 55
M  V30 59 1 30 56
M  V30 60 1 32 57
M  V30 61 1 32 58
M  V30 62 1 33 59
M  V30 63 1 33 60
M  V30 64 1 33 61
M  V30 END BOND
M  V30 BEGIN COLLECTION
M  V30 MDLV30/STERAC1 ATOMS=(1 18)
M  V30 END COLLECTION
M  V30 END CTAB
M  END
>  <ID>  (1) 
EDS01357518

>  <MMFF94_energy_kcal_mol>  (1) 
73.675

$$$$
