EDS01889984
     RDKit          3D

 61 65  0  0  0  0  0  0  0  0999 V2000
    6.3357    1.0009    3.2199 S   0  0  0  0  0  0  0  0  0  0  0  0
    5.0337    2.0097    2.7594 C   0  0  0  0  0  0  0  0  0  0  0  0
    6.1571    0.0483    1.8158 C   0  0  0  0  0  0  0  0  0  0  0  0
    4.4642    1.6197    1.5641 C   0  0  0  0  0  0  0  0  0  0  0  0
    5.0950    0.4482    1.0218 C   0  0  0  0  0  0  0  0  0  0  0  0
    3.4478    2.2526    0.9191 O   0  0  0  0  0  0  0  0  0  0  0  0
    4.7848   -0.2452   -0.2271 C   0  0  0  0  0  0  0  0  0  0  0  0
    2.7943    3.2797    1.6544 C   0  0  0  0  0  0  0  0  0  0  0  0
    5.6903   -0.5295   -1.0124 O   0  0  0  0  0  0  0  0  0  0  0  0
    3.4614   -0.6129   -0.4851 N   0  0  0  0  0  0  0  0  0  0  0  0
    2.3851   -0.6363    0.5132 C   0  0  0  0  0  0  0  0  0  0  0  0
    3.1742   -1.1980   -1.7893 C   0  0  0  0  0  0  0  0  0  0  0  0
    1.5521   -1.9101    0.3871 C   0  0  0  0  0  0  0  0  0  0  0  0
    1.6826   -1.2488   -2.0835 C   0  0  0  0  0  0  0  0  0  0  0  0
    0.9383   -2.0688   -1.0176 C   0  0  0  0  0  0  0  0  0  0  0  0
   -0.5343   -1.7255   -1.0493 C   0  0  0  0  0  0  0  0  0  0  0  0
   -0.9372   -0.5837   -0.4197 N   0  0  0  0  0  0  0  0  0  0  0  0
   -1.5051   -2.4759   -1.7194 C   0  0  0  0  0  0  0  0  0  0  0  0
   -2.2294   -0.1944   -0.4268 C   0  0  0  0  0  0  0  0  0  0  0  0
   -2.7990   -1.9889   -1.6633 C   0  0  0  0  0  0  0  0  0  0  0  0
   -1.5429   -3.6684   -2.4935 C   0  0  0  0  0  0  0  0  0  0  0  0
   -3.2094   -0.8769   -1.0387 N   0  0  0  0  0  0  0  0  0  0  0  0
   -2.5691    0.9584    0.2709 N   0  0  0  0  0  0  0  0  0  0  0  0
   -3.6027   -2.8494   -2.3665 N   0  0  0  0  0  0  0  0  0  0  0  0
   -2.8513   -3.8754   -2.8793 C   0  0  0  0  0  0  0  0  0  0  0  0
   -1.5049    1.9366    0.5043 C   0  0  0  0  0  0  0  0  0  0  0  0
   -3.9341    1.4395    0.1112 C   0  0  0  0  0  0  0  0  0  0  0  0
   -5.0267   -2.6827   -2.5337 C   0  0  0  0  0  0  0  0  0  0  0  0
   -1.3274    2.2565    1.9935 C   0  0  0  0  0  0  0  0  0  0  0  0
   -4.2812    2.5303    1.1236 C   0  0  0  0  0  0  0  0  0  0  0  0
   -0.2095    2.3936    2.4991 O   0  0  0  0  0  0  0  0  0  0  0  0
   -2.4176    2.5207    2.7801 N   0  0  0  0  0  0  0  0  0  0  0  0
   -3.8015    2.1709    2.5216 C   0  0  0  0  0  0  0  0  0  0  0  0
    4.7754    2.8438    3.3950 H   0  0  0  0  0  0  0  0  0  0  0  0
    6.8328   -0.7770    1.6322 H   0  0  0  0  0  0  0  0  0  0  0  0
    2.4156    2.9079    2.6120 H   0  0  0  0  0  0  0  0  0  0  0  0
    3.4602    4.1361    1.8038 H   0  0  0  0  0  0  0  0  0  0  0  0
    1.9402    3.6225    1.0627 H   0  0  0  0  0  0  0  0  0  0  0  0
    1.7608    0.2487    0.3513 H   0  0  0  0  0  0  0  0  0  0  0  0
    2.7956   -0.5853    1.5250 H   0  0  0  0  0  0  0  0  0  0  0  0
    3.6901   -0.6170   -2.5626 H   0  0  0  0  0  0  0  0  0  0  0  0
    3.6006   -2.2087   -1.8007 H   0  0  0  0  0  0  0  0  0  0  0  0
    0.7891   -1.9449    1.1737 H   0  0  0  0  0  0  0  0  0  0  0  0
    2.2169   -2.7659    0.5691 H   0  0  0  0  0  0  0  0  0  0  0  0
    1.5089   -1.6824   -3.0760 H   0  0  0  0  0  0  0  0  0  0  0  0
    1.2955   -0.2214   -2.1241 H   0  0  0  0  0  0  0  0  0  0  0  0
    1.0349   -3.1317   -1.2772 H   0  0  0  0  0  0  0  0  0  0  0  0
   -0.7071   -4.3092   -2.7425 H   0  0  0  0  0  0  0  0  0  0  0  0
   -3.2998   -4.6632   -3.4710 H   0  0  0  0  0  0  0  0  0  0  0  0
   -1.7254    2.8759   -0.0180 H   0  0  0  0  0  0  0  0  0  0  0  0
   -0.5239    1.6189    0.1326 H   0  0  0  0  0  0  0  0  0  0  0  0
   -4.6480    0.6199    0.2684 H   0  0  0  0  0  0  0  0  0  0  0  0
   -4.0919    1.8237   -0.9044 H   0  0  0  0  0  0  0  0  0  0  0  0
   -5.2070   -1.7340   -3.0459 H   0  0  0  0  0  0  0  0  0  0  0  0
   -5.4237   -3.5072   -3.1314 H   0  0  0  0  0  0  0  0  0  0  0  0
   -5.4945   -2.6832   -1.5459 H   0  0  0  0  0  0  0  0  0  0  0  0
   -5.3716    2.6484    1.1314 H   0  0  0  0  0  0  0  0  0  0  0  0
   -3.8658    3.4959    0.8108 H   0  0  0  0  0  0  0  0  0  0  0  0
   -2.1511    2.6591    3.7474 H   0  0  0  0  0  0  0  0  0  0  0  0
   -3.9313    1.1049    2.7385 H   0  0  0  0  0  0  0  0  0  0  0  0
   -4.3891    2.7307    3.2575 H   0  0  0  0  0  0  0  0  0  0  0  0
  1  2  1  0
  1  3  1  0
  2  4  2  0
  3  5  2  0
  4  6  1  0
  5  7  1  0
  6  8  1  0
  7  9  2  0
  7 10  1  0
 10 11  1  0
 10 12  1  0
 11 13  1  0
 12 14  1  0
 13 15  1  0
 15 16  1  0
 16 17  2  0
 16 18  1  0
 17 19  1  0
 18 20  2  0
 18 21  1  0
 19 22  2  0
 19 23  1  0
 20 24  1  0
 21 25  2  0
 23 26  1  0
 23 27  1  0
 24 28  1  0
 26 29  1  0
 27 30  1  0
 29 31  2  0
 29 32  1  0
 30 33  1  0
  4  5  1  0
 14 15  1  0
 20 22  1  0
 24 25  1  0
 32 33  1  0
  2 34  1  0
  3 35  1  0
  8 36  1  0
  8 37  1  0
  8 38  1  0
 11 39  1  0
 11 40  1  0
 12 41  1  0
 12 42  1  0
 13 43  1  0
 13 44  1  0
 14 45  1  0
 14 46  1  0
 15 47  1  0
 21 48  1  0
 25 49  1  0
 26 50  1  0
 26 51  1  0
 27 52  1  0
 27 53  1  0
 28 54  1  0
 28 55  1  0
 28 56  1  0
 30 57  1  0
 30 58  1  0
 32 59  1  0
 33 60  1  0
 33 61  1  0
M  END
>  <ID>  (1) 
EDS01889984

>  <MMFF94_energy_kcal_mol>  (1) 
-27.711

$$$$
