EDS01806218_ent2
     RDKit          3D

  0  0  0  0  0  0  0  0  0  0999 V3000
M  V30 BEGIN CTAB
M  V30 COUNTS 61 66 0 0 0
M  V30 BEGIN ATOM
M  V30 1 S 3.982366 0.104926 0.979910 0 VAL=6
M  V30 2 O 3.836885 -0.953434 1.953764 0
M  V30 3 O 4.785651 1.272832 1.273713 0
M  V30 4 N 2.418700 0.641062 0.558346 0
M  V30 5 C 4.591233 -0.574437 -0.519918 0
M  V30 6 C 1.450707 -0.415200 0.050575 0
M  V30 7 C 1.822868 1.610862 1.532645 0
M  V30 8 C 4.903481 -1.918787 -0.593862 0
M  V30 9 C 4.778458 0.233922 -1.639908 0
M  V30 10 C 0.243432 -0.670426 0.993047 0 CFG=1
M  V30 11 C 0.960337 0.945255 2.650240 0 CFG=2
M  V30 12 N 5.371593 -2.503293 -1.723371 0
M  V30 13 C 5.264660 -0.344737 -2.807936 0
M  V30 14 N 0.694293 -0.469572 2.366884 0
M  V30 15 C -0.933891 0.236527 0.686225 0
M  V30 16 C -0.408813 1.636117 2.726798 0
M  V30 17 C 5.543129 -1.703844 -2.801452 0
M  V30 18 C 1.051301 -1.556812 3.138234 0
M  V30 19 C -1.743715 0.059856 -0.426970 0
M  V30 20 C -1.224142 1.338244 1.486077 0
M  V30 21 O 0.911705 -2.712925 2.738265 0
M  V30 22 C 1.587223 -1.278108 4.517809 0
M  V30 23 N -2.722057 0.930587 -0.721519 0
M  V30 24 N -1.503121 -1.027326 -1.285634 0
M  V30 25 N -2.220938 2.198713 1.212164 0
M  V30 26 C -2.943961 1.973437 0.101362 0
M  V30 27 C -2.356181 -1.129938 -2.468015 0
M  V30 28 C -4.062420 2.928111 -0.234242 0
M  V30 29 C -3.652651 -1.802048 -2.121113 0
M  V30 30 C -3.773157 4.400807 -0.422692 0
M  V30 31 C -4.140652 3.558334 -1.607192 0
M  V30 32 C -3.713411 -3.291104 -1.882200 0
M  V30 33 C -4.340893 -2.702822 -3.115929 0
M  V30 34 H 1.986261 -1.365023 -0.058767 0
M  V30 35 H 1.138680 -0.122124 -0.957800 0
M  V30 36 H 2.599105 2.225730 2.002039 0
M  V30 37 H 1.242148 2.329164 0.939800 0
M  V30 38 H 4.785428 -2.589522 0.253543 0
M  V30 39 H 4.552723 1.296569 -1.602527 0
M  V30 40 H -0.090843 -1.706907 0.871371 0
M  V30 41 H 1.475188 1.062617 3.607412 0
M  V30 42 H 5.426613 0.248038 -3.701692 0
M  V30 43 H -0.968434 1.260617 3.592517 0
M  V30 44 H -0.287342 2.718667 2.848993 0
M  V30 45 H 5.925415 -2.201152 -3.688962 0
M  V30 46 H 1.715151 -2.223482 5.053789 0
M  V30 47 H 0.880679 -0.662005 5.080362 0
M  V30 48 H 2.559688 -0.784236 4.454856 0
M  V30 49 H -1.548497 -1.894324 -0.754317 0
M  V30 50 H -2.529809 -0.159693 -2.948688 0
M  V30 51 H -1.813769 -1.734818 -3.204763 0
M  V30 52 H -5.011420 2.683314 0.233682 0
M  V30 53 H -4.287324 -1.164353 -1.514875 0
M  V30 54 H -2.746424 4.738839 -0.336497 0
M  V30 55 H -4.504644 5.107981 -0.049891 0
M  V30 56 H -5.123353 3.689253 -2.044506 0
M  V30 57 H -3.363948 3.322456 -2.326425 0
M  V30 58 H -4.372054 -3.650314 -1.099216 0
M  V30 59 H -2.812137 -3.880354 -2.007886 0
M  V30 60 H -3.861521 -2.893903 -4.069301 0
M  V30 61 H -5.423581 -2.665817 -3.166354 0
M  V30 END ATOM
M  V30 BEGIN BOND
M  V30 1 2 1 2
M  V30 2 2 1 3
M  V30 3 1 1 4
M  V30 4 1 1 5
M  V30 5 1 4 6
M  V30 6 1 4 7
M  V30 7 2 5 8
M  V30 8 1 5 9
M  V30 9 1 6 10
M  V30 10 1 7 11
M  V30 11 1 8 12
M  V30 12 2 9 13
M  V30 13 1 10 14
M  V30 14 1 10 15
M  V30 15 1 11 16
M  V30 16 2 12 17
M  V30 17 1 14 18
M  V30 18 1 15 19
M  V30 19 2 15 20
M  V30 20 2 18 21
M  V30 21 1 18 22
M  V30 22 2 19 23
M  V30 23 1 19 24
M  V30 24 1 20 25
M  V30 25 1 23 26
M  V30 26 1 24 27
M  V30 27 1 26 28
M  V30 28 1 27 29
M  V30 29 1 28 30
M  V30 30 1 28 31
M  V30 31 1 29 32
M  V30 32 1 29 33
M  V30 33 1 11 14
M  V30 34 1 13 17
M  V30 35 1 16 20
M  V30 36 2 25 26
M  V30 37 1 30 31
M  V30 38 1 32 33
M  V30 39 1 6 34
M  V30 40 1 6 35
M  V30 41 1 7 36
M  V30 42 1 7 37
M  V30 43 1 8 38
M  V30 44 1 9 39
M  V30 45 1 10 40 CFG=1
M  V30 46 1 11 41 CFG=1
M  V30 47 1 13 42
M  V30 48 1 16 43
M  V30 49 1 16 44
M  V30 50 1 17 45
M  V30 51 1 22 46
M  V30 52 1 22 47
M  V30 53 1 22 48
M  V30 54 1 24 49
M  V30 55 1 27 50
M  V30 56 1 27 51
M  V30 57 1 28 52
M  V30 58 1 29 53
M  V30 59 1 30 54
M  V30 60 1 30 55
M  V30 61 1 31 56
M  V30 62 1 31 57
M  V30 63 1 32 58
M  V30 64 1 32 59
M  V30 65 1 33 60
M  V30 66 1 33 61
M  V30 END BOND
M  V30 BEGIN COLLECTION
M  V30 MDLV30/STERAC1 ATOMS=(2 10 11)
M  V30 END COLLECTION
M  V30 END CTAB
M  END
>  <ID>  (1) 
EDS01806218

>  <MMFF94_energy_kcal_mol>  (1) 
-18.278

$$$$
