Int-A3
     RDKit          2D

 23 25  0  0  0  0  0  0  0  0999 V2000
    4.1219   -2.0656    0.0000 C   0  0  0  0  0  0  0  0  0  0  0  0
    2.6233   -2.1312    0.0000 C   0  0  0  0  0  0  0  0  0  0  0  0
    1.1248   -2.1967    0.0000 C   0  0  0  0  0  0  0  0  0  0  0  0
    2.6889   -3.6297    0.0000 C   0  0  0  0  0  0  0  0  0  0  0  0
    2.5578   -0.6326    0.0000 O   0  0  0  0  0  0  0  0  0  0  0  0
    1.2273    0.0599    0.0000 C   0  0  0  0  0  0  0  0  0  0  0  0
   -0.0378   -0.7461    0.0000 O   0  0  0  0  0  0  0  0  0  0  0  0
    1.1617    1.5585    0.0000 N   0  0  0  0  0  0  0  0  0  0  0  0
   -0.1688    2.2510    0.0000 C   0  0  0  0  0  0  0  0  0  0  0  0
   -1.4339    1.4450    0.0000 C   0  0  0  0  0  0  0  0  0  0  0  0
   -1.3683   -0.0536    0.0000 C   0  0  0  0  0  0  0  0  0  0  0  0
   -2.6334   -0.8596    0.0000 C   0  0  0  0  0  0  0  0  0  0  0  0
   -3.9639   -0.1671    0.0000 C   0  0  0  0  0  0  0  0  0  0  0  0
   -4.0295    1.3315    0.0000 C   0  0  0  0  0  0  0  0  0  0  0  0
   -2.7644    2.1375    0.0000 C   0  0  0  0  0  0  0  0  0  0  0  0
   -2.8300    3.6361    0.0000 N   0  0  0  0  0  0  0  0  0  0  0  0
   -5.0337   -1.2185    0.0000 O   0  0  0  0  0  0  0  0  0  0  0  0
   -4.3644   -2.5609    0.0000 C   0  0  0  0  0  0  0  0  0  0  0  0
   -2.8808   -2.3391    0.0000 O   0  0  0  0  0  0  0  0  0  0  0  0
    2.4267    2.3645    0.0000 C   0  0  0  0  0  0  0  0  0  0  0  0
    3.7573    1.6720    0.0000 C   0  0  0  0  0  0  0  0  0  0  0  0
    5.2559    1.7375    0.0000 C   0  0  0  0  0  0  0  0  0  0  0  0
    4.5633    0.4070    0.0000 C   0  0  0  0  0  0  0  0  0  0  0  0
  1  2  1  0
  2  3  1  0
  2  4  1  0
  2  5  1  0
  5  6  1  0
  6  7  2  0
  6  8  1  0
  8  9  1  0
  9 10  1  0
 10 11  2  0
 11 12  1  0
 12 13  2  0
 13 14  1  0
 14 15  2  0
 15 16  1  0
 13 17  1  0
 17 18  1  0
 18 19  1  0
  8 20  1  0
 20 21  1  0
 21 22  1  0
 22 23  1  0
 15 10  1  0
 23 21  1  0
 19 12  1  0
M  END
