Int-B3
     RDKit          2D

 24 27  0  0  0  0  0  0  0  0999 V2000
    0.8557    1.9160    0.0000 O   0  0  0  0  0  0  0  0  0  0  0  0
    1.0273    0.4259    0.0000 C   0  0  0  0  0  0  0  0  0  0  0  0
    2.4036   -0.1707    0.0000 C   0  0  0  0  0  0  0  0  0  0  0  0
    3.6083    0.7230    0.0000 C   0  0  0  0  0  0  0  0  0  0  0  0
    4.9846    0.1265    0.0000 N   0  0  0  0  0  0  0  0  0  0  0  0
    6.1893    1.0201    0.0000 C   0  0  0  0  0  0  0  0  0  0  0  0
    7.5656    0.4236    0.0000 C   0  0  0  0  0  0  0  0  0  0  0  0
    9.0558    0.5951    0.0000 C   0  0  0  0  0  0  0  0  0  0  0  0
    8.4593   -0.7812    0.0000 C   0  0  0  0  0  0  0  0  0  0  0  0
   -0.1775   -0.4678    0.0000 N   0  0  0  0  0  0  0  0  0  0  0  0
   -1.5537    0.1287    0.0000 C   0  0  0  0  0  0  0  0  0  0  0  0
   -1.7253    1.6189    0.0000 C   0  0  0  0  0  0  0  0  0  0  0  0
   -3.1016    2.2154    0.0000 C   0  0  0  0  0  0  0  0  0  0  0  0
   -4.3063    1.3218    0.0000 C   0  0  0  0  0  0  0  0  0  0  0  0
   -4.1348   -0.1684    0.0000 C   0  0  0  0  0  0  0  0  0  0  0  0
   -2.7585   -0.7649    0.0000 C   0  0  0  0  0  0  0  0  0  0  0  0
   -2.5869   -2.2551    0.0000 C   0  0  0  0  0  0  0  0  0  0  0  0
   -1.2806   -2.9922    0.0000 O   0  0  0  0  0  0  0  0  0  0  0  0
   -1.5779   -4.4624    0.0000 C   0  0  0  0  0  0  0  0  0  0  0  0
   -3.0680   -4.6340    0.0000 C   0  0  0  0  0  0  0  0  0  0  0  0
   -3.6917   -3.2697    0.0000 O   0  0  0  0  0  0  0  0  0  0  0  0
   -5.5285    2.1914    0.0000 O   0  0  0  0  0  0  0  0  0  0  0  0
   -5.0791    3.6225    0.0000 C   0  0  0  0  0  0  0  0  0  0  0  0
   -3.5792    3.6373    0.0000 O   0  0  0  0  0  0  0  0  0  0  0  0
  1  2  2  0
  2  3  1  0
  3  4  1  0
  4  5  1  0
  5  6  1  0
  6  7  1  0
  7  8  1  0
  8  9  1  0
  2 10  1  0
 10 11  1  0
 11 12  2  0
 12 13  1  0
 13 14  2  0
 14 15  1  0
 15 16  2  0
 16 17  1  0
 17 18  1  0
 18 19  1  0
 19 20  1  0
 20 21  1  0
 14 22  1  0
 22 23  1  0
 23 24  1  0
  9  7  1  0
 16 11  1  0
 24 13  1  0
 21 17  1  0
M  END
