SM-1
     RDKit          2D

 14 15  0  0  0  0  0  0  0  0999 V2000
    3.3073    1.3271    0.0000 O   0  0  0  0  0  0  0  0  0  0  0  0
    1.9353    1.9333    0.0000 C   0  0  0  0  0  0  0  0  0  0  0  0
    0.7243    1.0481    0.0000 C   0  0  0  0  0  0  0  0  0  0  0  0
   -0.6478    1.6543    0.0000 C   0  0  0  0  0  0  0  0  0  0  0  0
   -1.8588    0.7691    0.0000 C   0  0  0  0  0  0  0  0  0  0  0  0
   -1.6977   -0.7222    0.0000 C   0  0  0  0  0  0  0  0  0  0  0  0
   -0.3257   -1.3284    0.0000 C   0  0  0  0  0  0  0  0  0  0  0  0
    0.8853   -0.4432    0.0000 C   0  0  0  0  0  0  0  0  0  0  0  0
    2.2574   -1.0494    0.0000 N   0  0  0  0  0  4  0  0  0  0  0  0
    3.4684   -0.1642    0.0000 O   0  0  0  0  0  0  0  0  0  0  0  0
    2.4184   -2.5407    0.0000 O   0  0  0  0  0  1  0  0  0  0  0  0
   -3.0663   -1.3362    0.0000 O   0  0  0  0  0  0  0  0  0  0  0  0
   -4.0732   -0.2244    0.0000 C   0  0  0  0  0  0  0  0  0  0  0  0
   -3.3269    1.0768    0.0000 O   0  0  0  0  0  0  0  0  0  0  0  0
  1  2  2  0
  2  3  1  0
  3  4  2  0
  4  5  1  0
  5  6  2  0
  6  7  1  0
  7  8  2  0
  8  9  1  0
  9 10  2  0
  9 11  1  0
  6 12  1  0
 12 13  1  0
 13 14  1  0
  8  3  1  0
 14  5  1  0
M  CHG  2   9   1  11  -1
M  END
