SM-4
     RDKit          2D

 13 12  0  0  0  0  0  0  0  0999 V2000
   -4.2308    1.4078    0.0000 C   0  0  0  0  0  0  0  0  0  0  0  0
   -3.4965    0.0998    0.0000 C   0  0  0  0  0  0  0  0  0  0  0  0
   -2.7622   -1.2082    0.0000 C   0  0  0  0  0  0  0  0  0  0  0  0
   -4.8044   -0.6345    0.0000 C   0  0  0  0  0  0  0  0  0  0  0  0
   -2.1885    0.8341    0.0000 O   0  0  0  0  0  0  0  0  0  0  0  0
   -0.8986    0.0685    0.0000 C   0  0  0  0  0  0  0  0  0  0  0  0
   -0.9166   -1.4314    0.0000 O   0  0  0  0  0  0  0  0  0  0  0  0
    0.4094    0.8028    0.0000 N   0  0  0  0  0  0  0  0  0  0  0  0
    1.6993    0.0372    0.0000 C   0  0  0  0  0  0  0  0  0  0  0  0
    3.0073    0.7715    0.0000 C   0  0  0  0  0  0  0  0  0  0  0  0
    4.2972    0.0060    0.0000 C   0  0  0  0  0  0  0  0  0  0  0  0
    4.2791   -1.4939    0.0000 O   0  0  0  0  0  0  0  0  0  0  0  0
    5.6052    0.7403    0.0000 O   0  0  0  0  0  0  0  0  0  0  0  0
  1  2  1  0
  2  3  1  0
  2  4  1  0
  2  5  1  0
  5  6  1  0
  6  7  2  0
  6  8  1  0
  8  9  1  0
  9 10  1  0
 10 11  1  0
 11 12  2  0
 11 13  1  0
M  END
