@<TRIPOS>MOLECULE
MOL
   70    75     1     0     0
SMALL
bcc


@<TRIPOS>ATOM
      1 O1           1.0450     0.0510    -0.0690 o          1 MOL      -0.611100
      2 C1           2.2230    -0.0010    -0.1140 c          1 MOL       0.572600
      3 N1           2.9860    -0.5560     0.9740 ns         1 MOL      -0.546900
      4 C2           3.0230     0.5150    -1.3300 ca         1 MOL       0.353800
      5 C3           2.2850    -1.0390     2.1550 c3         1 MOL       0.130300
      6 N2           4.4130     0.4340    -1.4390 nb         1 MOL      -0.658000
      7 C4           2.2150     1.0230    -2.3590 ca         1 MOL      -0.186300
      8 C5           2.6990    -0.3190     3.4290 ca         1 MOL      -0.105300
      9 C6           5.0430     0.7690    -2.6580 ca         1 MOL       0.390600
     10 C7           2.8810     1.4760    -3.5270 ca         1 MOL      -0.099000
     11 C8           2.0080     0.8150     3.8770 ca         1 MOL      -0.094000
     12 C9           3.8060    -0.7380     4.1810 ca         1 MOL      -0.094000
     13 C10          4.2880     1.3560    -3.6770 ca         1 MOL      -0.162600
     14 C11          6.6410     0.5020    -2.9390 c6         1 MOL       0.032700
     15 C12          2.3800     1.4750     5.0390 ca         1 MOL      -0.145000
     16 C13          4.2560     0.0200     5.2710 ca         1 MOL      -0.145000
     17 C14          4.9480     1.7590    -5.0010 c6         1 MOL      -0.063100
     18 N3           7.1610     0.4170    -4.5270 n          1 MOL      -0.465800
     19 C15          3.5250     1.1130     5.7550 ca         1 MOL       0.080600
     20 C16          6.5500     1.7310    -5.0730 c6         1 MOL       0.085000
     21 C17          8.3560    -0.7380    -5.0490 c          1 MOL       0.703300
     22 N4           3.8630     1.7780     6.9110 nh         1 MOL      -0.639000
     23 O2           8.5500    -1.5280    -4.0820 o          1 MOL      -0.579100
     24 C18          9.3470    -1.1750    -6.5580 cc         1 MOL      -0.185400
     25 C19          4.5850     1.1000     7.9850 c6         1 MOL       0.159800
     26 C20          3.7060     3.2350     7.0670 c6         1 MOL       0.159800
     27 C21         10.3220    -1.0930    -8.2000 ca         1 MOL      -0.081800
     28 C22          8.2630    -0.6660    -7.2590 cd         1 MOL       0.025100
     29 C23          3.9690     1.4700     9.3500 c6         1 MOL       0.104300
     30 C24          3.1450     3.5510     8.4730 c6         1 MOL       0.104300
     31 C25          9.2230    -1.3270    -8.9600 ca         1 MOL       0.055100
     32 C26         11.7270    -1.1500    -9.3800 ca         1 MOL      -0.075000
     33 O3           8.0350    -1.3210    -8.3800 os         1 MOL      -0.189200
     34 N5           3.9600     2.9370     9.5510 nx         1 MOL      -0.683400
     35 C27          9.2090    -1.3520   -10.3100 ca         1 MOL      -0.115000
     36 C28         11.4940    -1.5020   -10.7280 ca         1 MOL      -0.142000
     37 C29          3.4480     3.2870    10.8710 c3         1 MOL       0.084100
     38 C30         10.1880    -1.3450   -11.1900 ca         1 MOL      -0.106000
     39 H1           3.9670    -0.6080     0.9200 hn         1 MOL       0.330500
     40 H2           2.4910    -2.0830     2.2710 h1         1 MOL       0.075700
     41 H3           1.2420    -0.8520     2.0070 h1         1 MOL       0.075700
     42 H4           1.1880     1.0650    -2.2710 ha         1 MOL       0.170000
     43 H5           2.3300     1.9050    -4.2870 ha         1 MOL       0.150000
     44 H6           1.2050     1.1660     3.3310 ha         1 MOL       0.162000
     45 H7           4.2940    -1.6120     3.9290 ha         1 MOL       0.162000
     46 H8           6.8930    -0.4270    -2.4720 h1         1 MOL       0.087700
     47 H9           7.1280     1.3690    -2.5460 h1         1 MOL       0.087700
     48 H10          1.7970     2.2540     5.3830 ha         1 MOL       0.135000
     49 H11          5.1460    -0.2330     5.7270 ha         1 MOL       0.135000
     50 H12          4.6350     2.7580    -5.2230 hc         1 MOL       0.064700
     51 H13          4.6330     1.0130    -5.7000 hc         1 MOL       0.064700
     52 H14          6.9310     2.5490    -4.4960 h1         1 MOL       0.066200
     53 H15          6.8240     1.8060    -6.1040 h1         1 MOL       0.066200
     54 H16          5.6120     1.4010     7.9670 h1         1 MOL       0.080200
     55 H17          4.5150     0.0420     7.8430 h1         1 MOL       0.080200
     56 H18          3.0300     3.6010     6.3230 h1         1 MOL       0.080200
     57 H19          4.6590     3.7080     6.9510 h1         1 MOL       0.080200
     58 H20          7.6990     0.1360    -6.9380 h4         1 MOL       0.195000
     59 H21          4.5440     1.0140    10.1290 hx         1 MOL       0.108950
     60 H22          2.9590     1.1170     9.3730 hx         1 MOL       0.108950
     61 H23          2.1460     3.1750     8.5380 hx         1 MOL       0.108950
     62 H24          3.1700     4.6130     8.6060 hx         1 MOL       0.108950
     63 H25         12.6830    -0.9250    -9.0600 ha         1 MOL       0.149000
     64 H26          4.9130     3.2960     9.5060 hn         1 MOL       0.444800
     65 H27          8.2650    -1.3810   -10.7260 ha         1 MOL       0.156000
     66 H28         12.2480    -1.8560   -11.3370 ha         1 MOL       0.139000
     67 H29          2.4440     2.9310    10.9710 hx         1 MOL       0.105033
     68 H30          3.4620     4.3510    10.9890 hx         1 MOL       0.105033
     69 H31          4.0620     2.8380    11.6230 hx         1 MOL       0.105033
     70 H32          9.9940    -1.2270   -12.1960 ha         1 MOL       0.142000
@<TRIPOS>BOND
     1     1     2 2   
     2     2     3 1   
     3     2     4 1   
     4     3     5 1   
     5     3    39 1   
     6     4     6 ar  
     7     4     7 ar  
     8     5     8 1   
     9     5    40 1   
    10     5    41 1   
    11     6     9 ar  
    12     7    10 ar  
    13     7    42 1   
    14     8    11 ar  
    15     8    12 ar  
    16     9    13 ar  
    17     9    14 1   
    18    10    13 ar  
    19    10    43 1   
    20    11    15 ar  
    21    11    44 1   
    22    12    16 ar  
    23    12    45 1   
    24    13    17 1   
    25    14    18 1   
    26    14    46 1   
    27    14    47 1   
    28    15    19 ar  
    29    15    48 1   
    30    16    19 ar  
    31    16    49 1   
    32    17    20 1   
    33    17    50 1   
    34    17    51 1   
    35    18    21 1   
    36    18    20 1   
    37    19    22 1   
    38    20    52 1   
    39    20    53 1   
    40    21    23 2   
    41    21    24 1   
    42    22    25 1   
    43    22    26 1   
    44    24    27 1   
    45    24    28 2   
    46    25    29 1   
    47    25    54 1   
    48    25    55 1   
    49    26    30 1   
    50    26    56 1   
    51    26    57 1   
    52    27    31 ar  
    53    27    32 ar  
    54    28    33 1   
    55    28    58 1   
    56    29    34 1   
    57    29    59 1   
    58    29    60 1   
    59    30    34 1   
    60    30    61 1   
    61    30    62 1   
    62    31    35 ar  
    63    31    33 1   
    64    32    36 ar  
    65    32    63 1   
    66    34    37 1   
    67    34    64 1   
    68    35    38 ar  
    69    35    65 1   
    70    36    38 ar  
    71    36    66 1   
    72    37    67 1   
    73    37    68 1   
    74    37    69 1   
    75    38    70 1   
@<TRIPOS>SUBSTRUCTURE
     1 MOL         1 TEMP              0 ****  ****    0 ROOT
