@<TRIPOS>MOLECULE
MOL
   83    89     1     0     0
SMALL
bcc


@<TRIPOS>ATOM
      1 O1           1.2920    -0.2060     0.6510 o          1 MOL      -0.613100
      2 C1           2.3080     0.1490     0.0560 c          1 MOL       0.569600
      3 N1           2.8170    -0.5450    -1.0190 ns         1 MOL      -0.539900
      4 C2           3.0600     1.3710     0.5080 ca         1 MOL       0.351800
      5 C3           2.2160    -1.7830    -1.4740 c3         1 MOL       0.126300
      6 N2           4.1580     1.7800    -0.1880 nb         1 MOL      -0.669000
      7 C4           2.5780     2.0170     1.6440 ca         1 MOL      -0.190300
      8 C5           1.8280    -1.7320    -2.9270 ca         1 MOL      -0.107300
      9 C6           4.8040     2.8950     0.2730 ca         1 MOL       0.388600
     10 C7           3.2530     3.1280     2.1410 ca         1 MOL       0.052000
     11 C8           2.3310    -2.6690    -3.8300 ca         1 MOL      -0.095000
     12 C9           0.9080    -0.7870    -3.3970 ca         1 MOL      -0.095000
     13 C10          4.4040     3.5770     1.4520 ca         1 MOL      -0.151600
     14 C11          6.0290     3.3790    -0.5350 c6         1 MOL       0.027700
     15 C12          2.7220     3.7760     3.3420 cc         1 MOL      -0.245300
     16 C13          1.9460    -2.6360    -5.1740 ca         1 MOL      -0.142500
     17 C14          0.5300    -0.7630    -4.7490 ca         1 MOL      -0.142500
     18 C15          5.1770     4.7950     1.9130 c6         1 MOL      -0.067100
     19 N3           6.4820     4.7290    -0.1710 n          1 MOL      -0.441800
     20 C16          2.6620     5.1250     3.7560 cc         1 MOL       0.319200
     21 C17          2.0720     3.1030     4.3680 cd         1 MOL      -0.114300
     22 C18          1.0470    -1.6800    -5.6720 ca         1 MOL       0.076600
     23 C19          6.5480     4.9650     1.2640 c6         1 MOL       0.082000
     24 C20          6.8310     5.6750    -1.1600 c          1 MOL       0.705300
     25 N4           2.0710     5.2900     4.9420 nd         1 MOL      -0.502800
     26 N5           1.7090     4.0450     5.2870 na         1 MOL       0.098400
     27 N6           0.6600    -1.7340    -7.0020 nh         1 MOL      -0.634000
     28 O2           7.2060     5.3020    -2.2720 o          1 MOL      -0.592100
     29 C21          6.5080     7.0900    -0.8650 cc         1 MOL      -0.057100
     30 C22          0.9990     3.8330     6.5260 c3         1 MOL       0.035600
     31 C23         -0.5800    -1.1030    -7.4730 c6         1 MOL       0.156300
     32 C24          1.7030    -1.7880    -8.0450 c6         1 MOL       0.156300
     33 O3           5.5080     7.2510     0.0780 os         1 MOL      -0.203200
     34 C25          6.3700     8.1880    -1.7230 cd         1 MOL      -0.022400
     35 C26         -1.0980    -1.8650    -8.7170 c6         1 MOL       0.104800
     36 C27          1.1510    -2.5400    -9.2790 c6         1 MOL       0.104800
     37 C28          4.4850     7.8190    -0.6040 ca         1 MOL       0.074100
     38 C29          4.9540     8.3410    -1.7990 ca         1 MOL      -0.122800
     39 C30          7.3600     9.0430    -2.4190 c3         1 MOL      -0.051900
     40 N7          -0.0960    -1.9360    -9.8070 nx         1 MOL      -0.683400
     41 C31          3.1650     7.8260    -0.1890 ca         1 MOL      -0.129000
     42 C32          4.0290     8.9020    -2.6910 ca         1 MOL      -0.069000
     43 C33         -0.6120    -2.7210   -10.9250 c3         1 MOL       0.084100
     44 C34          2.2510     8.3290    -1.1130 ca         1 MOL      -0.097000
     45 C35          2.6700     8.8440    -2.3470 ca         1 MOL      -0.149000
     46 H1           3.6070    -0.1920    -1.4900 hn         1 MOL       0.326500
     47 H2           1.3400    -1.9740    -0.8900 h1         1 MOL       0.076700
     48 H3           2.9420    -2.5600    -1.3570 h1         1 MOL       0.076700
     49 H4           1.7260     1.6750     2.1130 ha         1 MOL       0.167000
     50 H5           2.9920    -3.3920    -3.5040 ha         1 MOL       0.161500
     51 H6           0.5040    -0.1000    -2.7430 ha         1 MOL       0.161500
     52 H7           5.7700     3.3780    -1.5730 h1         1 MOL       0.088700
     53 H8           6.8330     2.7090    -0.3150 h1         1 MOL       0.088700
     54 H9           2.3370    -3.3380    -5.8220 ha         1 MOL       0.135000
     55 H10         -0.1460    -0.0520    -5.0700 ha         1 MOL       0.135000
     56 H11          5.3160     4.7200     2.9710 hc         1 MOL       0.076200
     57 H12          4.5980     5.6470     1.6230 hc         1 MOL       0.076200
     58 H13          3.0380     5.9060     3.1970 h4         1 MOL       0.049100
     59 H14          1.8970     2.0880     4.4240 h4         1 MOL       0.183000
     60 H15          7.2310     4.2680     1.7020 h1         1 MOL       0.070700
     61 H16          6.8800     5.9700     1.4270 h1         1 MOL       0.070700
     62 H17          0.7900     2.7900     6.6430 h1         1 MOL       0.064700
     63 H18          0.0800     4.3810     6.5080 h1         1 MOL       0.064700
     64 H19          1.6000     4.1710     7.3440 h1         1 MOL       0.064700
     65 H20         -0.3860    -0.0830    -7.7330 h1         1 MOL       0.081200
     66 H21         -1.3170    -1.1350    -6.6980 h1         1 MOL       0.081200
     67 H22          2.5620    -2.3020    -7.6670 h1         1 MOL       0.081200
     68 H23          1.9810    -0.7930    -8.3260 h1         1 MOL       0.081200
     69 H24         -1.9690    -1.3640    -9.0860 hx         1 MOL       0.108450
     70 H25         -1.3150    -2.8670    -8.4140 hx         1 MOL       0.108450
     71 H26          0.9490    -3.5530    -9.0000 hx         1 MOL       0.108450
     72 H27          1.8900    -2.4820   -10.0500 hx         1 MOL       0.108450
     73 H28          8.3490     8.7050    -2.1860 hc         1 MOL       0.061033
     74 H29          7.2450    10.0570    -2.0980 hc         1 MOL       0.061033
     75 H30          7.2030     8.9830    -3.4760 hc         1 MOL       0.061033
     76 H31          0.1030    -0.9960   -10.1480 hn         1 MOL       0.445800
     77 H32          2.8770     7.4830     0.7410 ha         1 MOL       0.153000
     78 H33          4.3370     9.3440    -3.5710 ha         1 MOL       0.144000
     79 H34         -0.8290    -3.7150   -10.5930 hx         1 MOL       0.104700
     80 H35          0.1200    -2.7570   -11.7040 hx         1 MOL       0.104700
     81 H36         -1.5060    -2.2660   -11.2970 hx         1 MOL       0.104700
     82 H37          1.2450     8.3220    -0.8840 ha         1 MOL       0.142000
     83 H38          1.9640     9.1870    -3.0170 ha         1 MOL       0.141000
@<TRIPOS>BOND
     1     1     2 2   
     2     2     3 1   
     3     2     4 1   
     4     3     5 1   
     5     3    46 1   
     6     4     6 ar  
     7     4     7 ar  
     8     5     8 1   
     9     5    47 1   
    10     5    48 1   
    11     6     9 ar  
    12     7    10 ar  
    13     7    49 1   
    14     8    11 ar  
    15     8    12 ar  
    16     9    13 ar  
    17     9    14 1   
    18    10    15 1   
    19    10    13 ar  
    20    11    16 ar  
    21    11    50 1   
    22    12    17 ar  
    23    12    51 1   
    24    13    18 1   
    25    14    19 1   
    26    14    52 1   
    27    14    53 1   
    28    15    20 1   
    29    15    21 2   
    30    16    22 ar  
    31    16    54 1   
    32    17    22 ar  
    33    17    55 1   
    34    18    23 1   
    35    18    56 1   
    36    18    57 1   
    37    19    24 1   
    38    19    23 1   
    39    20    25 2   
    40    20    58 1   
    41    21    26 1   
    42    21    59 1   
    43    22    27 1   
    44    23    60 1   
    45    23    61 1   
    46    24    28 2   
    47    24    29 1   
    48    25    26 1   
    49    26    30 1   
    50    27    31 1   
    51    27    32 1   
    52    29    33 1   
    53    29    34 2   
    54    30    62 1   
    55    30    63 1   
    56    30    64 1   
    57    31    35 1   
    58    31    65 1   
    59    31    66 1   
    60    32    36 1   
    61    32    67 1   
    62    32    68 1   
    63    33    37 1   
    64    34    38 1   
    65    34    39 1   
    66    35    40 1   
    67    35    69 1   
    68    35    70 1   
    69    36    40 1   
    70    36    71 1   
    71    36    72 1   
    72    37    41 ar  
    73    37    38 ar  
    74    38    42 ar  
    75    39    73 1   
    76    39    74 1   
    77    39    75 1   
    78    40    43 1   
    79    40    76 1   
    80    41    44 ar  
    81    41    77 1   
    82    42    45 ar  
    83    42    78 1   
    84    43    79 1   
    85    43    80 1   
    86    43    81 1   
    87    44    45 ar  
    88    44    82 1   
    89    45    83 1   
@<TRIPOS>SUBSTRUCTURE
     1 MOL         1 TEMP              0 ****  ****    0 ROOT
