@<TRIPOS>MOLECULE
MOL
   72    77     1     0     0
SMALL
bcc


@<TRIPOS>ATOM
      1 S1           1.8800    -0.7390     0.0020 ss         1 MOL       0.079200
      2 C1           2.2040     0.9400     0.0920 cc         1 MOL      -0.214700
      3 C2           0.1980    -0.4790     0.0260 cc         1 MOL      -0.086400
      4 C3           3.5420     1.5070     0.0820 c          1 MOL       0.705700
      5 C4           1.0320     1.6690     0.1680 cd         1 MOL      -0.064000
      6 C5          -0.1360     0.8470     0.1320 cd         1 MOL      -0.158300
      7 C6          -0.8070    -1.5730    -0.1310 c6         1 MOL      -0.038100
      8 O1           3.7340     2.7210     0.1140 o          1 MOL      -0.599100
      9 N1           4.5880     0.6160     0.0330 ns         1 MOL      -0.560900
     10 C7          -1.5340     1.3600     0.1450 c6         1 MOL       0.149300
     11 C8          -2.2120    -1.0380     0.1870 c6         1 MOL       0.081000
     12 C9           5.9650     1.0490     0.0270 c3         1 MOL       0.130300
     13 N2          -2.4510     0.3350    -0.3010 n          1 MOL      -0.439800
     14 C10          6.6710     0.6220    -1.2330 ca         1 MOL      -0.113300
     15 C11         -3.7000     0.6120    -0.8460 c          1 MOL       0.697300
     16 C12          6.2180     1.0550    -2.4780 ca         1 MOL      -0.094000
     17 C13          7.8250    -0.1670    -1.1700 ca         1 MOL      -0.094000
     18 O2          -4.3870    -0.3440    -1.2300 o          1 MOL      -0.571100
     19 C14         -4.2450     1.9850    -0.9700 cc         1 MOL      -0.037100
     20 C15          6.8890     0.6700    -3.6380 ca         1 MOL      -0.147000
     21 C16          8.5010    -0.5370    -2.3450 ca         1 MOL      -0.147000
     22 O3          -5.6260     1.9190    -1.1570 os         1 MOL      -0.208200
     23 C17         -3.8560     3.1190    -1.7050 cd         1 MOL      -0.035400
     24 C18          8.0340    -0.1410    -3.6040 ca         1 MOL       0.085600
     25 C19         -5.7900     2.2920    -2.4530 ca         1 MOL      -0.007900
     26 C20         -4.6970     3.0370    -2.8590 ca         1 MOL      -0.073800
     27 C21         -2.8030     4.1480    -1.5030 c3         1 MOL      -0.050900
     28 N3           8.6500    -0.4710    -4.8030 nh         1 MOL      -0.640000
     29 C22         -6.8460     1.9240    -3.2690 ca         1 MOL       0.126100
     30 C23         -4.6680     3.5060    -4.1810 ca         1 MOL      -0.101000
     31 C24         10.0720    -0.8470    -4.8580 c6         1 MOL       0.160300
     32 C25          7.8270    -1.2750    -5.7310 c6         1 MOL       0.160300
     33 O4          -7.8730     1.1400    -2.8190 oh         1 MOL      -0.503100
     34 C26         -6.7450     2.2730    -4.6090 ca         1 MOL      -0.140000
     35 C27         -5.6690     3.0530    -5.0590 ca         1 MOL      -0.116000
     36 C28         10.5790    -0.6780    -6.3160 c6         1 MOL       0.104300
     37 C29          8.3520    -1.0870    -7.1700 c6         1 MOL       0.104300
     38 N4           9.7830    -1.4500    -7.3020 nx         1 MOL      -0.683400
     39 C30         10.2440    -1.1850    -8.6630 c3         1 MOL       0.084100
     40 H1           1.0040     2.6980     0.2420 ha         1 MOL       0.175000
     41 H2          -0.5710    -2.3720     0.5410 hc         1 MOL       0.069200
     42 H3          -0.7840    -1.9320    -1.1380 hc         1 MOL       0.069200
     43 H4           4.3910    -0.3480     0.0010 hn         1 MOL       0.304500
     44 H5          -1.6060     2.2050    -0.5070 h1         1 MOL       0.075700
     45 H6          -1.7900     1.6440     1.1440 h1         1 MOL       0.075700
     46 H7          -2.3450    -1.0470     1.2480 h1         1 MOL       0.078700
     47 H8          -2.9100    -1.6740    -0.3170 h1         1 MOL       0.078700
     48 H9           6.4680     0.6210     0.8690 h1         1 MOL       0.077700
     49 H10          5.9820     2.1180     0.0770 h1         1 MOL       0.077700
     50 H11          5.3860     1.6620    -2.5410 ha         1 MOL       0.162000
     51 H12          8.1820    -0.4790    -0.2530 ha         1 MOL       0.162000
     52 H13          6.5320     0.9920    -4.5510 ha         1 MOL       0.135500
     53 H14          9.3560    -1.1120    -2.2800 ha         1 MOL       0.135500
     54 H15         -2.3210     3.9860    -0.5620 hc         1 MOL       0.063033
     55 H16         -3.2490     5.1210    -1.5130 hc         1 MOL       0.063033
     56 H17         -2.0810     4.0790    -2.2900 hc         1 MOL       0.063033
     57 H18         -3.9370     4.1620    -4.4980 ha         1 MOL       0.150000
     58 H19         10.1870    -1.8660    -4.5530 h1         1 MOL       0.080450
     59 H20         10.6390    -0.2200    -4.2010 h1         1 MOL       0.080450
     60 H21          6.8080    -0.9520    -5.6770 h1         1 MOL       0.080450
     61 H22          7.8840    -2.3090    -5.4600 h1         1 MOL       0.080450
     62 H23         -7.9260     0.9130    -1.9120 ho         1 MOL       0.432000
     63 H24         -7.4650     1.9580    -5.2780 ha         1 MOL       0.147000
     64 H25         -5.6100     3.2990    -6.0600 ha         1 MOL       0.142000
     65 H26         11.5950    -1.0100    -6.3640 hx         1 MOL       0.109450
     66 H27         10.4830     0.3570    -6.5700 hx         1 MOL       0.109450
     67 H28          8.2320    -0.0600    -7.4470 hx         1 MOL       0.109450
     68 H29          7.7910    -1.7350    -7.8090 hx         1 MOL       0.109450
     69 H30          9.9010    -2.4460    -7.1160 hn         1 MOL       0.444800
     70 H31         10.1290    -0.1440    -8.8820 hx         1 MOL       0.105033
     71 H32          9.6650    -1.7610    -9.3540 hx         1 MOL       0.105033
     72 H33         11.2750    -1.4560    -8.7490 hx         1 MOL       0.105033
@<TRIPOS>BOND
     1     1     2 1   
     2     1     3 1   
     3     2     4 1   
     4     2     5 2   
     5     3     6 2   
     6     3     7 1   
     7     4     8 2   
     8     4     9 1   
     9     5     6 1   
    10     5    40 1   
    11     6    10 1   
    12     7    11 1   
    13     7    41 1   
    14     7    42 1   
    15     9    12 1   
    16     9    43 1   
    17    10    13 1   
    18    10    44 1   
    19    10    45 1   
    20    11    13 1   
    21    11    46 1   
    22    11    47 1   
    23    12    14 1   
    24    12    48 1   
    25    12    49 1   
    26    13    15 1   
    27    14    16 ar  
    28    14    17 ar  
    29    15    18 2   
    30    15    19 1   
    31    16    20 ar  
    32    16    50 1   
    33    17    21 ar  
    34    17    51 1   
    35    19    22 1   
    36    19    23 2   
    37    20    24 ar  
    38    20    52 1   
    39    21    24 ar  
    40    21    53 1   
    41    22    25 1   
    42    23    26 1   
    43    23    27 1   
    44    24    28 1   
    45    25    29 ar  
    46    25    26 ar  
    47    26    30 ar  
    48    27    54 1   
    49    27    55 1   
    50    27    56 1   
    51    28    31 1   
    52    28    32 1   
    53    29    33 1   
    54    29    34 ar  
    55    30    35 ar  
    56    30    57 1   
    57    31    36 1   
    58    31    58 1   
    59    31    59 1   
    60    32    37 1   
    61    32    60 1   
    62    32    61 1   
    63    33    62 1   
    64    34    35 ar  
    65    34    63 1   
    66    35    64 1   
    67    36    38 1   
    68    36    65 1   
    69    36    66 1   
    70    37    38 1   
    71    37    67 1   
    72    37    68 1   
    73    38    39 1   
    74    38    69 1   
    75    39    70 1   
    76    39    71 1   
    77    39    72 1   
@<TRIPOS>SUBSTRUCTURE
     1 MOL         1 TEMP              0 ****  ****    0 ROOT
