@<TRIPOS>MOLECULE
MOL
   73    78     1     0     0
SMALL
bcc


@<TRIPOS>ATOM
      1 S1           6.4390    -2.5480     1.1750 ss         1 MOL       0.071500
      2 C1           6.0460    -4.1980     1.0030 ca         1 MOL      -0.115100
      3 C2           5.1590    -1.9940     0.1940 cc         1 MOL      -0.184600
      4 C3           6.7420    -5.2940     1.5380 ca         1 MOL       0.138900
      5 C4           4.8850    -4.3690     0.2570 ca         1 MOL      -0.076800
      6 C5           4.3430    -3.0860    -0.1860 cd         1 MOL       0.025600
      7 C6           4.9390    -0.5420    -0.0300 c          1 MOL       0.709300
      8 F1           7.8560    -5.1120     2.2580 f          1 MOL      -0.149900
      9 C7           6.2830    -6.5930     1.3200 ca         1 MOL      -0.144000
     10 C8           4.4180    -5.7080     0.0690 ca         1 MOL      -0.083000
     11 C9           3.0470    -3.0610    -0.9610 c3         1 MOL      -0.055900
     12 O1           3.8020    -0.1710    -0.3420 o          1 MOL      -0.597100
     13 N1           5.9530     0.4900     0.1010 n          1 MOL      -0.483800
     14 C10          5.1230    -6.8000     0.5930 ca         1 MOL      -0.118000
     15 C11          7.4430     0.3140     0.1950 c6         1 MOL       0.038700
     16 C12          5.4230     1.8170    -0.2020 c6         1 MOL       0.094000
     17 C13          8.3600     1.5660     0.1400 ca         1 MOL       0.399600
     18 C14          6.3030     3.0410    -0.0320 c6         1 MOL      -0.057100
     19 N2           9.7430     1.4270     0.2520 nb         1 MOL      -0.662000
     20 C15          7.7740     2.8250     0.0270 ca         1 MOL      -0.154600
     21 C16         10.4950     2.5830     0.2690 ca         1 MOL       0.352800
     22 C17          8.5820     3.9660     0.0290 ca         1 MOL      -0.096000
     23 C18         12.0160     2.5930     0.4120 c          1 MOL       0.570600
     24 C19          9.9500     3.8520     0.1550 ca         1 MOL      -0.182300
     25 O2          12.6090     3.6700     0.5240 o          1 MOL      -0.605100
     26 N3          12.7060     1.4050     0.3870 ns         1 MOL      -0.542900
     27 C20         14.1610     1.4300     0.3580 c3         1 MOL       0.127300
     28 C21         14.7590     0.1670     0.9060 ca         1 MOL      -0.107300
     29 C22         15.6370    -0.5990     0.1400 ca         1 MOL      -0.094500
     30 C23         14.4610    -0.2530     2.2080 ca         1 MOL      -0.094500
     31 C24         16.1400    -1.7960     0.6470 ca         1 MOL      -0.143000
     32 C25         14.9570    -1.4650     2.7010 ca         1 MOL      -0.143000
     33 C26         15.7850    -2.2740     1.9190 ca         1 MOL       0.079600
     34 N4          16.3010    -3.4900     2.3410 nh         1 MOL      -0.636000
     35 C27         16.3960    -3.8410     3.7660 c6         1 MOL       0.157300
     36 C28         15.9970    -4.6570     1.4890 c6         1 MOL       0.157300
     37 C29         17.4730    -4.9490     3.9400 c6         1 MOL       0.104800
     38 C30         17.1110    -5.7060     1.6720 c6         1 MOL       0.104800
     39 N5          17.2330    -6.1380     3.0830 nx         1 MOL      -0.683400
     40 C31         18.3160    -7.1080     3.2190 c3         1 MOL       0.084100
     41 H1           6.8070    -7.3970     1.7000 ha         1 MOL       0.146000
     42 H2           3.5470    -5.8720    -0.4610 ha         1 MOL       0.150000
     43 H3           2.7970    -2.0500    -1.2050 hc         1 MOL       0.067033
     44 H4           2.2670    -3.4880    -0.3650 hc         1 MOL       0.067033
     45 H5           3.1590    -3.6280    -1.8620 hc         1 MOL       0.067033
     46 H6           4.7780    -7.7600     0.4360 ha         1 MOL       0.145000
     47 H7           7.7340    -0.3220    -0.6150 h1         1 MOL       0.070200
     48 H8           7.5920    -0.0670     1.1840 h1         1 MOL       0.070200
     49 H9           4.5690     1.9600     0.4280 h1         1 MOL       0.072200
     50 H10          5.2530     1.7800    -1.2580 h1         1 MOL       0.072200
     51 H11          6.0120     3.5210     0.8790 hc         1 MOL       0.073700
     52 H12          6.1460     3.6150    -0.9210 hc         1 MOL       0.073700
     53 H13          8.1520     4.8990    -0.0660 ha         1 MOL       0.154000
     54 H14         10.5520     4.6900     0.1650 ha         1 MOL       0.171000
     55 H15         12.2220     0.5480     0.3880 hn         1 MOL       0.325500
     56 H16         14.5040     2.2560     0.9450 h1         1 MOL       0.077700
     57 H17         14.4690     1.5240    -0.6620 h1         1 MOL       0.077700
     58 H18         15.9140    -0.2800    -0.8020 ha         1 MOL       0.161000
     59 H19         13.8680     0.3390     2.8110 ha         1 MOL       0.161000
     60 H20         16.7950    -2.3470     0.0700 ha         1 MOL       0.135000
     61 H21         14.7070    -1.7660     3.6560 ha         1 MOL       0.135000
     62 H22         15.4500    -4.2030     4.1110 h1         1 MOL       0.080950
     63 H23         16.6690    -2.9780     4.3350 h1         1 MOL       0.080950
     64 H24         15.9530    -4.3530     0.4640 h1         1 MOL       0.080950
     65 H25         15.0520    -5.0760     1.7680 h1         1 MOL       0.080950
     66 H26         17.4760    -5.2620     4.9630 hx         1 MOL       0.108700
     67 H27         18.4110    -4.5290     3.6440 hx         1 MOL       0.108700
     68 H28         18.0410    -5.2800     1.3590 hx         1 MOL       0.108700
     69 H29         16.8610    -6.5630     1.0820 hx         1 MOL       0.108700
     70 H30         16.3690    -6.5900     3.3820 hn         1 MOL       0.445800
     71 H31         19.2370    -6.6600     2.9120 hx         1 MOL       0.105033
     72 H32         18.1110    -7.9600     2.6040 hx         1 MOL       0.105033
     73 H33         18.3930    -7.4170     4.2410 hx         1 MOL       0.105033
@<TRIPOS>BOND
     1     1     2 1   
     2     1     3 1   
     3     2     4 ar  
     4     2     5 ar  
     5     3     6 2   
     6     3     7 1   
     7     4     8 1   
     8     4     9 ar  
     9     5    10 ar  
    10     5     6 1   
    11     6    11 1   
    12     7    12 2   
    13     7    13 1   
    14     9    14 ar  
    15     9    41 1   
    16    10    14 ar  
    17    10    42 1   
    18    11    43 1   
    19    11    44 1   
    20    11    45 1   
    21    13    15 1   
    22    13    16 1   
    23    14    46 1   
    24    15    17 1   
    25    15    47 1   
    26    15    48 1   
    27    16    18 1   
    28    16    49 1   
    29    16    50 1   
    30    17    19 ar  
    31    17    20 ar  
    32    18    20 1   
    33    18    51 1   
    34    18    52 1   
    35    19    21 ar  
    36    20    22 ar  
    37    21    23 1   
    38    21    24 ar  
    39    22    24 ar  
    40    22    53 1   
    41    23    25 2   
    42    23    26 1   
    43    24    54 1   
    44    26    27 1   
    45    26    55 1   
    46    27    28 1   
    47    27    56 1   
    48    27    57 1   
    49    28    29 ar  
    50    28    30 ar  
    51    29    31 ar  
    52    29    58 1   
    53    30    32 ar  
    54    30    59 1   
    55    31    33 ar  
    56    31    60 1   
    57    32    33 ar  
    58    32    61 1   
    59    33    34 1   
    60    34    35 1   
    61    34    36 1   
    62    35    37 1   
    63    35    62 1   
    64    35    63 1   
    65    36    38 1   
    66    36    64 1   
    67    36    65 1   
    68    37    39 1   
    69    37    66 1   
    70    37    67 1   
    71    38    39 1   
    72    38    68 1   
    73    38    69 1   
    74    39    40 1   
    75    39    70 1   
    76    40    71 1   
    77    40    72 1   
    78    40    73 1   
@<TRIPOS>SUBSTRUCTURE
     1 MOL         1 TEMP              0 ****  ****    0 ROOT
