@<TRIPOS>MOLECULE
MOL
   70    75     1     0     0
SMALL
bcc


@<TRIPOS>ATOM
      1 Cl1          1.2470    -0.1270    -0.1450 cl         1 MOL      -0.072400
      2 C1           0.1970    -1.4960     0.0420 cc         1 MOL       0.013200
      3 C2           0.5810    -2.8440     0.1730 cd         1 MOL      -0.158600
      4 C3          -1.2250    -1.2560     0.0370 ca         1 MOL      -0.082800
      5 S1          -0.8170    -3.7960     0.3860 ss         1 MOL       0.181500
      6 C4           1.9810    -3.3230     0.0940 c          1 MOL       0.686300
      7 C5          -1.9130    -2.4500     0.2240 ca         1 MOL      -0.098100
      8 C6          -1.9840    -0.0550    -0.1310 ca         1 MOL      -0.112000
      9 O1           2.8380    -2.4440    -0.0960 o          1 MOL      -0.570100
     10 N1           2.5240    -4.6620     0.1540 n          1 MOL      -0.441800
     11 C7          -3.3310    -2.4620     0.2640 ca         1 MOL      -0.080000
     12 C8          -3.3840    -0.0700    -0.1090 ca         1 MOL      -0.124000
     13 C9           1.9010    -5.9880     0.5050 c6         1 MOL       0.033700
     14 C10          3.9470    -4.6390    -0.2070 c6         1 MOL       0.078000
     15 C11         -4.0490    -1.2680     0.0920 ca         1 MOL      -0.110000
     16 C12          2.7440    -7.2880     0.2480 ca         1 MOL       0.369600
     17 C13          4.8130    -5.8580    -0.0410 c6         1 MOL      -0.051100
     18 N2           2.1740    -8.5500     0.3780 nb         1 MOL      -0.647000
     19 C14          4.1050    -7.1590    -0.0490 ca         1 MOL      -0.161600
     20 C15          3.0040    -9.6450     0.1890 ca         1 MOL       0.341800
     21 C16          4.9010    -8.2920    -0.2550 ca         1 MOL      -0.094000
     22 C17          2.5420   -11.0760     0.3560 c          1 MOL       0.563600
     23 C18          4.3520    -9.5480    -0.1410 ca         1 MOL      -0.173300
     24 O2           3.3690   -11.9900     0.3000 o          1 MOL      -0.603100
     25 N3           1.2130   -11.3520     0.5550 ns         1 MOL      -0.531900
     26 C19          0.7480   -12.7280     0.6930 c3         1 MOL       0.123300
     27 C20         -0.3760   -13.0370    -0.2580 ca         1 MOL      -0.115300
     28 C21         -0.1820   -12.9690    -1.6380 ca         1 MOL      -0.090500
     29 C22         -1.6380   -13.3990     0.2110 ca         1 MOL      -0.090500
     30 C23         -1.2550   -13.1560    -2.5200 ca         1 MOL      -0.156500
     31 C24         -2.6980   -13.6040    -0.6830 ca         1 MOL      -0.156500
     32 C25         -2.5530   -13.4450    -2.0700 ca         1 MOL       0.078600
     33 N4          -3.6300   -13.4930    -2.9370 nh         1 MOL      -0.613000
     34 C26         -3.5070   -13.9440    -4.3350 c6         1 MOL       0.162800
     35 C27         -5.0250   -13.4460    -2.4630 c6         1 MOL       0.162800
     36 C28         -4.3990   -13.0740    -5.2550 c6         1 MOL       0.060800
     37 C29         -5.8820   -12.5900    -3.4250 c6         1 MOL       0.060800
     38 N5          -5.8150   -13.0640    -4.8240 nx         1 MOL      -0.674400
     39 C30         -6.6190   -12.2110    -5.6950 c3         1 MOL       0.082100
     40 H1          -1.4900     0.8410    -0.2700 ha         1 MOL       0.122000
     41 H2          -3.8350    -3.3490     0.4180 ha         1 MOL       0.153000
     42 H3          -3.9150     0.8050    -0.2420 ha         1 MOL       0.137000
     43 H4           0.9980    -6.0760    -0.0640 h1         1 MOL       0.081700
     44 H5           1.7780    -5.9540     1.5670 h1         1 MOL       0.081700
     45 H6           4.3960    -3.8650     0.3800 h1         1 MOL       0.068700
     46 H7           3.9160    -4.5190    -1.2700 h1         1 MOL       0.068700
     47 H8          -5.0810    -1.2830     0.1170 ha         1 MOL       0.150000
     48 H9           5.3280    -5.7700     0.8930 hc         1 MOL       0.074200
     49 H10          5.4590    -5.8740    -0.8940 hc         1 MOL       0.074200
     50 H11          5.8990    -8.1840    -0.4930 ha         1 MOL       0.155000
     51 H12          4.9230   -10.3930    -0.2950 ha         1 MOL       0.176000
     52 H13          0.5650   -10.6120     0.6050 hn         1 MOL       0.322500
     53 H14          0.4040   -12.8780     1.6950 h1         1 MOL       0.082200
     54 H15          1.5650   -13.3790     0.4640 h1         1 MOL       0.082200
     55 H16          0.7610   -12.7800    -2.0130 ha         1 MOL       0.160500
     56 H17         -1.7930   -13.5180     1.2250 ha         1 MOL       0.160500
     57 H18         -1.0850   -13.0780    -3.5350 ha         1 MOL       0.132500
     58 H19         -3.6180   -13.8820    -0.3080 ha         1 MOL       0.132500
     59 H20         -3.8170   -14.9660    -4.4060 h1         1 MOL       0.095700
     60 H21         -2.4870   -13.8510    -4.6450 h1         1 MOL       0.095700
     61 H22         -5.0520   -13.0150    -1.4840 h1         1 MOL       0.095700
     62 H23         -5.4190   -14.4410    -2.4330 h1         1 MOL       0.095700
     63 H24         -4.3450   -13.4600    -6.2510 hx         1 MOL       0.110950
     64 H25         -4.0350   -12.0690    -5.2040 hx         1 MOL       0.110950
     65 H26         -5.5320   -11.5800    -3.3890 hx         1 MOL       0.110950
     66 H27         -6.9010   -12.6670    -3.1060 hx         1 MOL       0.110950
     67 H28         -6.1950   -14.0090    -4.8860 hn         1 MOL       0.443800
     68 H29         -6.2470   -11.2090    -5.6550 hx         1 MOL       0.107033
     69 H30         -7.6380   -12.2270    -5.3690 hx         1 MOL       0.107033
     70 H31         -6.5610   -12.5730    -6.7010 hx         1 MOL       0.107033
@<TRIPOS>BOND
     1     1     2 1   
     2     2     3 2   
     3     2     4 1   
     4     3     5 1   
     5     3     6 1   
     6     4     7 ar  
     7     4     8 ar  
     8     5     7 1   
     9     6     9 2   
    10     6    10 1   
    11     7    11 ar  
    12     8    12 ar  
    13     8    40 1   
    14    10    13 1   
    15    10    14 1   
    16    11    15 ar  
    17    11    41 1   
    18    12    15 ar  
    19    12    42 1   
    20    13    16 1   
    21    13    43 1   
    22    13    44 1   
    23    14    17 1   
    24    14    45 1   
    25    14    46 1   
    26    15    47 1   
    27    16    18 ar  
    28    16    19 ar  
    29    17    19 1   
    30    17    48 1   
    31    17    49 1   
    32    18    20 ar  
    33    19    21 ar  
    34    20    22 1   
    35    20    23 ar  
    36    21    23 ar  
    37    21    50 1   
    38    22    24 2   
    39    22    25 1   
    40    23    51 1   
    41    25    26 1   
    42    25    52 1   
    43    26    27 1   
    44    26    53 1   
    45    26    54 1   
    46    27    28 ar  
    47    27    29 ar  
    48    28    30 ar  
    49    28    55 1   
    50    29    31 ar  
    51    29    56 1   
    52    30    32 ar  
    53    30    57 1   
    54    31    32 ar  
    55    31    58 1   
    56    32    33 1   
    57    33    34 1   
    58    33    35 1   
    59    34    36 1   
    60    34    59 1   
    61    34    60 1   
    62    35    37 1   
    63    35    61 1   
    64    35    62 1   
    65    36    38 1   
    66    36    63 1   
    67    36    64 1   
    68    37    38 1   
    69    37    65 1   
    70    37    66 1   
    71    38    39 1   
    72    38    67 1   
    73    39    68 1   
    74    39    69 1   
    75    39    70 1   
@<TRIPOS>SUBSTRUCTURE
     1 MOL         1 TEMP              0 ****  ****    0 ROOT
