@<TRIPOS>MOLECULE
MOL
   69    74     1     0     0
SMALL
bcc


@<TRIPOS>ATOM
      1 O1           1.2140    -0.0080    -0.0870 o          1 MOL      -0.613100
      2 C1           2.3840    -0.0570     0.0510 c          1 MOL       0.573600
      3 N1           3.1110     0.8840     0.8270 ns         1 MOL      -0.547900
      4 C2           3.2190    -1.1770    -0.6290 ca         1 MOL       0.353800
      5 C3           2.4300     2.0130     1.4750 c3         1 MOL       0.131300
      6 N2           4.5930    -1.2670    -0.4410 nb         1 MOL      -0.658000
      7 C4           2.4760    -2.1050    -1.3360 ca         1 MOL      -0.186300
      8 C5           2.9210     3.3750     1.0000 ca         1 MOL      -0.104300
      9 C6           5.2600    -2.4080    -0.9270 ca         1 MOL       0.390600
     10 C7           3.1780    -3.1740    -1.9160 ca         1 MOL      -0.099000
     11 C8           2.3000     4.0190    -0.0710 ca         1 MOL      -0.094000
     12 C9           4.0290     4.0010     1.5890 ca         1 MOL      -0.094000
     13 C10          4.5850    -3.3320    -1.7310 ca         1 MOL      -0.161600
     14 C11          6.8170    -2.7020    -0.5730 c6         1 MOL       0.020700
     15 C12          2.7730     5.2450    -0.5520 ca         1 MOL      -0.145000
     16 C13          4.5660     5.1710     1.0350 ca         1 MOL      -0.145000
     17 C14          5.3150    -4.5350    -2.3040 c6         1 MOL      -0.068100
     18 N3           7.3850    -4.2630    -0.7410 n          1 MOL      -0.446800
     19 C15          3.9210     5.8430    -0.0230 ca         1 MOL       0.080600
     20 C16          6.9050    -4.5620    -2.1810 c6         1 MOL       0.078000
     21 C17          8.3400    -5.0490     0.4760 c          1 MOL       0.704300
     22 N4           4.3610     7.0650    -0.4820 nh         1 MOL      -0.639000
     23 O2           8.4270    -4.2870     1.4610 o          1 MOL      -0.595100
     24 C18          9.4760    -6.4890     0.5800 cc         1 MOL      -0.342800
     25 C19          5.0880     7.9740     0.3980 c6         1 MOL       0.160300
     26 C20          4.3600     7.4240    -1.9090 c6         1 MOL       0.160300
     27 C21         10.7660    -7.5210     1.2130 cd         1 MOL      -0.118600
     28 C22         10.1520    -6.3950    -0.6060 cc         1 MOL       0.408500
     29 C23          4.5850     9.4180     0.1830 c6         1 MOL       0.104300
     30 C24          3.9060     8.8930    -2.0670 c6         1 MOL       0.104300
     31 N5          10.9490    -8.1930    -0.0120 na         1 MOL       0.213000
     32 C25         12.0490    -8.3670     2.2090 cd         1 MOL       0.438200
     33 N6          10.2840    -7.6190    -1.0420 nd         1 MOL      -0.551100
     34 N7           4.7170     9.8220    -1.2400 nx         1 MOL      -0.683400
     35 C26         11.9290    -9.1330    -0.2590 cd         1 MOL      -0.150600
     36 N8          13.2380    -9.1510     1.6750 nc         1 MOL      -0.627000
     37 C27          4.3020    11.2040    -1.4310 c3         1 MOL       0.084100
     38 C28         13.1570    -9.1370     0.2840 cc         1 MOL       0.340200
     39 H1           4.0850     0.7790     0.9320 hn         1 MOL       0.331500
     40 H2           2.5900     1.9450     2.5300 h1         1 MOL       0.075200
     41 H3           1.3940     1.9450     1.2160 h1         1 MOL       0.075200
     42 H4           1.4530    -2.0160    -1.4330 ha         1 MOL       0.169000
     43 H5           2.6650    -3.8610    -2.4900 ha         1 MOL       0.150000
     44 H6           1.4770     3.5830    -0.5160 ha         1 MOL       0.162500
     45 H7           4.4520     3.5960     2.4390 ha         1 MOL       0.162500
     46 H8           6.9700    -2.4170     0.4470 h1         1 MOL       0.088200
     47 H9           7.3650    -2.1420    -1.3020 h1         1 MOL       0.088200
     48 H10          2.2640     5.7180    -1.3140 ha         1 MOL       0.134500
     49 H11          5.4510     5.5480     1.4090 ha         1 MOL       0.134500
     50 H12          5.0730    -4.5900    -3.3450 hc         1 MOL       0.069200
     51 H13          4.9820    -5.3620    -1.7120 hc         1 MOL       0.069200
     52 H14          7.3140    -3.8260    -2.8410 h1         1 MOL       0.064700
     53 H15          7.2380    -5.5450    -2.4410 h1         1 MOL       0.064700
     54 H16          6.1330     7.9250     0.1750 h1         1 MOL       0.079950
     55 H17          4.9240     7.6900     1.4160 h1         1 MOL       0.079950
     56 H18          3.6870     6.7830    -2.4390 h1         1 MOL       0.079950
     57 H19          5.3470     7.3100    -2.3080 h1         1 MOL       0.079950
     58 H20         10.4890    -5.5330    -1.0630 h4         1 MOL       0.064800
     59 H21          5.1610    10.0830     0.7900 hx         1 MOL       0.108700
     60 H22          3.5500     9.4620     0.4540 hx         1 MOL       0.108700
     61 H23          2.8810     8.9710    -1.7690 hx         1 MOL       0.108700
     62 H24          4.0340     9.1690    -3.0930 hx         1 MOL       0.108700
     63 H25         11.9560    -8.3060     3.2350 h4         1 MOL       0.066100
     64 H26          5.6940     9.7670    -1.5260 hn         1 MOL       0.444800
     65 H27         11.6990    -9.8970    -0.9140 h4         1 MOL       0.193000
     66 H28          3.2770    11.3120    -1.1420 hx         1 MOL       0.105033
     67 H29          4.4120    11.4710    -2.4610 hx         1 MOL       0.105033
     68 H30          4.9120    11.8460    -0.8290 hx         1 MOL       0.105033
     69 H31         14.0050    -9.1300    -0.3040 h4         1 MOL       0.050100
@<TRIPOS>BOND
     1     1     2 2   
     2     2     3 1   
     3     2     4 1   
     4     3     5 1   
     5     3    39 1   
     6     4     6 ar  
     7     4     7 ar  
     8     5     8 1   
     9     5    40 1   
    10     5    41 1   
    11     6     9 ar  
    12     7    10 ar  
    13     7    42 1   
    14     8    11 ar  
    15     8    12 ar  
    16     9    13 ar  
    17     9    14 1   
    18    10    13 ar  
    19    10    43 1   
    20    11    15 ar  
    21    11    44 1   
    22    12    16 ar  
    23    12    45 1   
    24    13    17 1   
    25    14    18 1   
    26    14    46 1   
    27    14    47 1   
    28    15    19 ar  
    29    15    48 1   
    30    16    19 ar  
    31    16    49 1   
    32    17    20 1   
    33    17    50 1   
    34    17    51 1   
    35    18    21 1   
    36    18    20 1   
    37    19    22 1   
    38    20    52 1   
    39    20    53 1   
    40    21    23 2   
    41    21    24 1   
    42    22    25 1   
    43    22    26 1   
    44    24    27 2   
    45    24    28 1   
    46    25    29 1   
    47    25    54 1   
    48    25    55 1   
    49    26    30 1   
    50    26    56 1   
    51    26    57 1   
    52    27    31 1   
    53    27    32 1   
    54    28    33 2   
    55    28    58 1   
    56    29    34 1   
    57    29    59 1   
    58    29    60 1   
    59    30    34 1   
    60    30    61 1   
    61    30    62 1   
    62    31    35 1   
    63    31    33 1   
    64    32    36 2   
    65    32    63 1   
    66    34    37 1   
    67    34    64 1   
    68    35    38 2   
    69    35    65 1   
    70    36    38 1   
    71    37    66 1   
    72    37    67 1   
    73    37    68 1   
    74    38    69 1   
@<TRIPOS>SUBSTRUCTURE
     1 MOL         1 TEMP              0 ****  ****    0 ROOT
