@<TRIPOS>MOLECULE
MOL
   58    62     1     0     0
SMALL
bcc


@<TRIPOS>ATOM
      1 F1          11.8540     5.9840     3.8060 f          1 MOL      -0.237633
      2 C1          11.1220     5.5980     2.7240 c3         1 MOL       0.687200
      3 F2          11.7230     6.1730     1.6450 f          1 MOL      -0.237633
      4 F3          11.3300     4.2570     2.5950 f          1 MOL      -0.237633
      5 C2           9.6580     5.9490     2.8290 ca         1 MOL      -0.164300
      6 C3           9.1470     6.5930     3.9630 ca         1 MOL      -0.084000
      7 C4           8.7830     5.6260     1.7820 ca         1 MOL      -0.084000
      8 C5           7.7880     6.9120     4.0450 ca         1 MOL      -0.121500
      9 C6           7.4250     5.9420     1.8670 ca         1 MOL      -0.121500
     10 C7           6.9140     6.5970     2.9970 ca         1 MOL      -0.093300
     11 C8           5.4430     6.8990     3.1040 c3         1 MOL       0.125300
     12 N1           4.9920     7.7650     2.0430 ns         1 MOL      -0.538900
     13 C9           3.6910     7.7410     1.5940 c          1 MOL       0.567600
     14 O1           2.8430     6.9470     2.0020 o          1 MOL      -0.614100
     15 C10          3.3510     8.7570     0.5290 ca         1 MOL       0.355800
     16 N2           4.3420     9.6230     0.1590 nb         1 MOL      -0.654000
     17 C11          2.0820     8.7310    -0.0250 ca         1 MOL      -0.184300
     18 C12          4.0520    10.4930    -0.8490 ca         1 MOL       0.386600
     19 C13          1.8040     9.6330    -1.0410 ca         1 MOL      -0.105000
     20 C14          2.7920    10.5290    -1.4680 ca         1 MOL      -0.160600
     21 C15          5.1470    11.4740    -1.2760 c6         1 MOL       0.028700
     22 C16          2.5120    11.4320    -2.6410 c6         1 MOL      -0.065100
     23 N3           4.8880    12.0950    -2.5740 n          1 MOL      -0.444800
     24 C17          3.5280    12.5590    -2.7970 c6         1 MOL       0.084000
     25 C18          5.9460    12.4420    -3.4210 c          1 MOL       0.702300
     26 O2           7.0710    12.6650    -2.9750 o          1 MOL      -0.579100
     27 C19          5.6880    12.2380    -4.8560 cc         1 MOL      -0.052100
     28 O3           4.7190    11.2870    -5.1150 os         1 MOL      -0.202200
     29 C20          6.5780    12.1850    -5.9330 cd         1 MOL      -0.025400
     30 C21          5.4040    10.2950    -5.7230 ca         1 MOL       0.074100
     31 C22          6.6110    10.7810    -6.2070 ca         1 MOL      -0.120800
     32 C23          7.4670    13.2260    -6.5030 c3         1 MOL      -0.051900
     33 C24          5.0000     8.9680    -5.7600 ca         1 MOL      -0.129000
     34 C25          7.5190     9.8680    -6.7660 ca         1 MOL      -0.069000
     35 C26          5.9520     8.0630    -6.2290 ca         1 MOL      -0.100000
     36 C27          7.1910     8.5030    -6.7140 ca         1 MOL      -0.151000
     37 H1           9.7770     6.8330     4.7440 ha         1 MOL       0.152000
     38 H2           9.1460     5.1490     0.9420 ha         1 MOL       0.152000
     39 H3           7.4260     7.3840     4.8880 ha         1 MOL       0.153000
     40 H4           6.7920     5.6910     1.0910 ha         1 MOL       0.153000
     41 H5           5.2560     7.3760     4.0430 h1         1 MOL       0.073200
     42 H6           4.9090     5.9750     3.0280 h1         1 MOL       0.073200
     43 H7           5.6310     8.3890     1.6280 hn         1 MOL       0.329500
     44 H8           1.3670     8.0650     0.3070 ha         1 MOL       0.173000
     45 H9           0.8710     9.6440    -1.4820 ha         1 MOL       0.146000
     46 H10          6.0760    10.9450    -1.3310 h1         1 MOL       0.091200
     47 H11          5.1750    12.2580    -0.5470 h1         1 MOL       0.091200
     48 H12          1.5420    11.8660    -2.5100 hc         1 MOL       0.070700
     49 H13          2.5710    10.8300    -3.5230 hc         1 MOL       0.070700
     50 H14          3.3040    13.3280    -2.0880 h1         1 MOL       0.067200
     51 H15          3.4630    12.9290    -3.7990 h1         1 MOL       0.067200
     52 H16          7.1960    14.1820    -6.1060 hc         1 MOL       0.061700
     53 H17          7.3630    13.2390    -7.5680 hc         1 MOL       0.061700
     54 H18          8.4820    13.0070    -6.2450 hc         1 MOL       0.061700
     55 H19          4.0580     8.6700    -5.4620 ha         1 MOL       0.151000
     56 H20          8.3980    10.1890    -7.2010 ha         1 MOL       0.143000
     57 H21          5.7410     7.0530    -6.2180 ha         1 MOL       0.139000
     58 H22          7.8790     7.8070    -7.0400 ha         1 MOL       0.138000
@<TRIPOS>BOND
     1     1     2 1   
     2     2     3 1   
     3     2     4 1   
     4     2     5 1   
     5     5     6 ar  
     6     5     7 ar  
     7     6     8 ar  
     8     6    37 1   
     9     7     9 ar  
    10     7    38 1   
    11     8    10 ar  
    12     8    39 1   
    13     9    10 ar  
    14     9    40 1   
    15    10    11 1   
    16    11    12 1   
    17    11    41 1   
    18    11    42 1   
    19    12    13 1   
    20    12    43 1   
    21    13    14 2   
    22    13    15 1   
    23    15    16 ar  
    24    15    17 ar  
    25    16    18 ar  
    26    17    19 ar  
    27    17    44 1   
    28    18    20 ar  
    29    18    21 1   
    30    19    20 ar  
    31    19    45 1   
    32    20    22 1   
    33    21    23 1   
    34    21    46 1   
    35    21    47 1   
    36    22    24 1   
    37    22    48 1   
    38    22    49 1   
    39    23    25 1   
    40    23    24 1   
    41    24    50 1   
    42    24    51 1   
    43    25    26 2   
    44    25    27 1   
    45    27    28 1   
    46    27    29 2   
    47    28    30 1   
    48    29    31 1   
    49    29    32 1   
    50    30    33 ar  
    51    30    31 ar  
    52    31    34 ar  
    53    32    52 1   
    54    32    53 1   
    55    32    54 1   
    56    33    35 ar  
    57    33    55 1   
    58    34    36 ar  
    59    34    56 1   
    60    35    36 ar  
    61    35    57 1   
    62    36    58 1   
@<TRIPOS>SUBSTRUCTURE
     1 MOL         1 TEMP              0 ****  ****    0 ROOT
