@<TRIPOS>MOLECULE
MOL
   72    77     1     0     0
SMALL
bcc


@<TRIPOS>ATOM
      1 S1           1.8710    -0.7230    -0.0070 ss         1 MOL       0.085200
      2 C1           2.1980     0.9580     0.0840 cc         1 MOL      -0.211700
      3 C2           0.1900    -0.4610     0.0190 cc         1 MOL      -0.090400
      4 C3           3.5380     1.5270     0.0790 c          1 MOL       0.692700
      5 C4           1.0260     1.6890     0.1560 cd         1 MOL      -0.065000
      6 C5          -0.1390     0.8740     0.1310 cd         1 MOL      -0.169300
      7 C6          -0.8180    -1.5540    -0.1350 c6         1 MOL      -0.038100
      8 O1           3.7260     2.7420     0.1020 o          1 MOL      -0.569100
      9 N1           4.5840     0.6360     0.0550 ns         1 MOL      -0.533900
     10 C7          -1.5410     1.3810     0.1530 c6         1 MOL       0.146300
     11 C8          -2.2240    -1.0120     0.1720 c6         1 MOL       0.074000
     12 C9           5.9630     1.0660     0.0840 c3         1 MOL       0.117300
     13 N2          -2.4500     0.3610    -0.3200 n          1 MOL      -0.431800
     14 C10          6.7020     0.6400    -1.1550 ca         1 MOL      -0.120300
     15 C11         -3.6670     0.6360    -0.9290 c          1 MOL       0.687300
     16 C12          6.2760     1.0750    -2.4120 ca         1 MOL      -0.092500
     17 C13          7.8560    -0.1500    -1.0780 ca         1 MOL      -0.092500
     18 O2          -4.3150    -0.3110    -1.3910 o          1 MOL      -0.547100
     19 C14         -4.2160     2.0130    -1.0310 cc         1 MOL      -0.029100
     20 C15          6.9720     0.6950    -3.5600 ca         1 MOL      -0.148500
     21 C16          8.5550    -0.5180    -2.2390 ca         1 MOL      -0.148500
     22 O3          -5.5970     1.9460    -1.2340 os         1 MOL      -0.177200
     23 C17         -3.8300     3.1260    -1.7980 cd         1 MOL      -0.048400
     24 C18          8.1130    -0.1210    -3.5030 ca         1 MOL       0.089600
     25 C19         -5.7380     2.2350    -2.5600 ca         1 MOL       0.117100
     26 C20         -4.6380     2.9780    -2.9680 ca         1 MOL      -0.116800
     27 C21         -2.7890     4.1700    -1.6160 c3         1 MOL      -0.050900
     28 N3           8.7480    -0.4540    -4.6920 nh         1 MOL      -0.618000
     29 C22         -6.7560     1.8150    -3.4050 ca         1 MOL      -0.061000
     30 C23         -4.5610     3.3890    -4.3070 ca         1 MOL      -0.028000
     31 C24         10.1680    -0.8350    -4.7310 c6         1 MOL       0.148800
     32 C25          7.9340    -1.2290    -5.6510 c6         1 MOL       0.148800
     33 C26         -7.8400     1.0460    -2.8940 cg         1 MOL       0.349800
     34 C27         -6.5930     2.1090    -4.7590 ca         1 MOL      -0.055000
     35 C28         -5.5140     2.8840    -5.2040 ca         1 MOL      -0.155000
     36 C29         10.6990    -0.6360    -6.1780 c6         1 MOL       0.109800
     37 C30          8.4850    -1.0080    -7.0750 c6         1 MOL       0.109800
     38 N4          -8.7400     0.4370    -2.4910 n1         1 MOL      -0.507800
     39 N5           9.9130    -1.3840    -7.1910 nx         1 MOL      -0.683400
     40 C31         10.4010    -1.1040    -8.5390 c3         1 MOL       0.089100
     41 H1           1.0000     2.7180     0.2220 ha         1 MOL       0.176000
     42 H2          -0.5870    -2.3480     0.5450 hc         1 MOL       0.071200
     43 H3          -0.7910    -1.9210    -1.1390 hc         1 MOL       0.071200
     44 H4           4.3870    -0.3280     0.0170 hn         1 MOL       0.284500
     45 H5          -1.6150     2.2410    -0.4800 h1         1 MOL       0.072700
     46 H6          -1.8010     1.6410     1.1570 h1         1 MOL       0.072700
     47 H7          -2.3660    -1.0200     1.2320 h1         1 MOL       0.078200
     48 H8          -2.9210    -1.6450    -0.3370 h1         1 MOL       0.078200
     49 H9           6.4430     0.6380     0.9390 h1         1 MOL       0.084200
     50 H10          5.9790     2.1350     0.1320 h1         1 MOL       0.084200
     51 H11          5.4430     1.6790    -2.4920 ha         1 MOL       0.148500
     52 H12          8.1950    -0.4670    -0.1570 ha         1 MOL       0.148500
     53 H13          6.6370     1.0240    -4.4790 ha         1 MOL       0.136500
     54 H14          9.4090    -1.0910    -2.1560 ha         1 MOL       0.136500
     55 H15         -2.3340     4.0560    -0.6540 hc         1 MOL       0.064367
     56 H16         -3.2390     5.1380    -1.6870 hc         1 MOL       0.064367
     57 H17         -2.0440     4.0670    -2.3770 hc         1 MOL       0.064367
     58 H18         -3.8280     4.0430    -4.6220 ha         1 MOL       0.160000
     59 H19         10.2740    -1.8610    -4.4470 h1         1 MOL       0.081200
     60 H20         10.7270    -0.2260    -4.0510 h1         1 MOL       0.081200
     61 H21          6.9170    -0.8990    -5.6060 h1         1 MOL       0.081200
     62 H22          7.9790    -2.2690    -5.4050 h1         1 MOL       0.081200
     63 H23         -7.2770     1.7500    -5.4430 ha         1 MOL       0.146000
     64 H24         -5.4190     3.0870    -6.2110 ha         1 MOL       0.156000
     65 H25         11.7140    -0.9720    -6.2180 hx         1 MOL       0.106450
     66 H26         10.6130     0.4050    -6.4100 hx         1 MOL       0.106450
     67 H27          8.3800     0.0270    -7.3280 hx         1 MOL       0.106450
     68 H28          7.9270    -1.6310    -7.7420 hx         1 MOL       0.106450
     69 H29         10.0190    -2.3840    -7.0200 hn         1 MOL       0.473800
     70 H30         10.3010    -0.0580    -8.7440 hx         1 MOL       0.101367
     71 H31          9.8280    -1.6630    -9.2490 hx         1 MOL       0.101367
     72 H32         11.4310    -1.3840    -8.6110 hx         1 MOL       0.101367
@<TRIPOS>BOND
     1     1     2 1   
     2     1     3 1   
     3     2     4 1   
     4     2     5 2   
     5     3     6 2   
     6     3     7 1   
     7     4     8 2   
     8     4     9 1   
     9     5     6 1   
    10     5    41 1   
    11     6    10 1   
    12     7    11 1   
    13     7    42 1   
    14     7    43 1   
    15     9    12 1   
    16     9    44 1   
    17    10    13 1   
    18    10    45 1   
    19    10    46 1   
    20    11    13 1   
    21    11    47 1   
    22    11    48 1   
    23    12    14 1   
    24    12    49 1   
    25    12    50 1   
    26    13    15 1   
    27    14    16 ar  
    28    14    17 ar  
    29    15    18 2   
    30    15    19 1   
    31    16    20 ar  
    32    16    51 1   
    33    17    21 ar  
    34    17    52 1   
    35    19    22 1   
    36    19    23 2   
    37    20    24 ar  
    38    20    53 1   
    39    21    24 ar  
    40    21    54 1   
    41    22    25 1   
    42    23    26 1   
    43    23    27 1   
    44    24    28 1   
    45    25    29 ar  
    46    25    26 ar  
    47    26    30 ar  
    48    27    55 1   
    49    27    56 1   
    50    27    57 1   
    51    28    31 1   
    52    28    32 1   
    53    29    33 1   
    54    29    34 ar  
    55    30    35 ar  
    56    30    58 1   
    57    31    36 1   
    58    31    59 1   
    59    31    60 1   
    60    32    37 1   
    61    32    61 1   
    62    32    62 1   
    63    33    38 3   
    64    34    35 ar  
    65    34    63 1   
    66    35    64 1   
    67    36    39 1   
    68    36    65 1   
    69    36    66 1   
    70    37    39 1   
    71    37    67 1   
    72    37    68 1   
    73    39    40 1   
    74    39    69 1   
    75    40    70 1   
    76    40    71 1   
    77    40    72 1   
@<TRIPOS>SUBSTRUCTURE
     1 MOL         1 TEMP              0 ****  ****    0 ROOT
