@<TRIPOS>MOLECULE
MOL
   80    86     1     0     0
SMALL
bcc


@<TRIPOS>ATOM
      1 O1           2.4500     1.1450     0.1090 o          1 MOL      -0.612100
      2 C1           2.4450    -0.0350    -0.2230 c          1 MOL       0.574600
      3 N1           1.7140    -0.4980    -1.3110 ns         1 MOL      -0.544900
      4 C2           3.2330    -1.0670     0.5560 ca         1 MOL       0.364800
      5 C3           0.8710     0.3720    -2.1100 c3         1 MOL       0.130300
      6 N2           4.3060    -0.6210     1.2610 nb         1 MOL      -0.665000
      7 C4           2.8150    -2.3900     0.5830 ca         1 MOL      -0.213300
      8 C5          -0.5490    -0.1380    -2.1630 ca         1 MOL      -0.105300
      9 C6           5.0010    -1.5080     2.0300 ca         1 MOL       0.395600
     10 C7           3.5260    -3.3080     1.3650 ca         1 MOL       0.061800
     11 C8          -1.2940    -0.2690    -0.9880 ca         1 MOL      -0.094000
     12 C9          -1.1780    -0.4370    -3.3780 ca         1 MOL      -0.094000
     13 C10          4.6590    -2.8740     2.0950 ca         1 MOL      -0.141600
     14 C11          6.2090    -0.9470     2.7950 c6         1 MOL       0.030700
     15 N3           3.0340    -4.6520     1.4170 na         1 MOL       0.127300
     16 C12         -2.6240    -0.7030    -1.0310 ca         1 MOL      -0.145000
     17 C13         -2.5180    -0.8600    -3.4110 ca         1 MOL      -0.145000
     18 C14          5.4980    -3.8140     2.9340 c6         1 MOL      -0.066100
     19 N4           6.7800    -1.8910     3.7530 n          1 MOL      -0.447800
     20 N5           3.2460    -5.4530     2.4910 nc         1 MOL      -0.498800
     21 C15          2.2690    -5.2980     0.4740 cc         1 MOL      -0.128300
     22 C16         -3.2690    -1.0070    -2.2400 ca         1 MOL       0.081600
     23 C17          6.8720    -3.2620     3.2950 c6         1 MOL       0.082000
     24 C18          7.3900    -1.4520     4.9340 c          1 MOL       0.707300
     25 C19          2.5480    -6.5540     2.2350 cd         1 MOL       0.311200
     26 C20          1.9340    -6.5270     0.9800 cd         1 MOL      -0.285300
     27 N6          -4.6090    -1.3590    -2.2250 nh         1 MOL      -0.639000
     28 O2           7.8780    -0.3260     5.0220 o          1 MOL      -0.586100
     29 C21          7.1700    -2.3110     6.1060 cc         1 MOL      -0.061100
     30 C22         -5.4750    -1.1570    -3.3960 c6         1 MOL       0.159800
     31 C23         -5.0190    -2.5160    -1.4060 c6         1 MOL       0.159800
     32 O3           6.0250    -3.0770     6.0450 os         1 MOL      -0.200200
     33 C24          7.4610    -2.1440     7.4620 cd         1 MOL      -0.016400
     34 C25         -6.9390    -0.9840    -2.9150 c6         1 MOL       0.104300
     35 C26         -6.4900    -2.3380    -0.9600 c6         1 MOL       0.104300
     36 C27          5.3380    -2.7660     7.1660 ca         1 MOL       0.077100
     37 C28          6.1600    -2.0710     8.0430 ca         1 MOL      -0.125800
     38 C29          8.7470    -1.9700     8.1750 c3         1 MOL      -0.053900
     39 N7          -7.4200    -2.1230    -2.0950 nx         1 MOL      -0.683400
     40 C30          3.9950    -3.0280     7.3630 ca         1 MOL      -0.128000
     41 C31          5.5810    -1.5190     9.1970 ca         1 MOL      -0.068000
     42 C32         -8.7700    -1.8580    -1.6000 c3         1 MOL       0.084100
     43 C33          3.4250    -2.4290     8.4870 ca         1 MOL      -0.097000
     44 C34          4.1970    -1.6670     9.3730 ca         1 MOL      -0.150000
     45 H1           1.7690    -1.4520    -1.5480 hn         1 MOL       0.331500
     46 H2           1.2620     0.4190    -3.1050 h1         1 MOL       0.076200
     47 H3           0.8660     1.3430    -1.6600 h1         1 MOL       0.076200
     48 H4           1.9940    -2.6920     0.0360 ha         1 MOL       0.175000
     49 H5          -0.8600    -0.0430    -0.0790 ha         1 MOL       0.161500
     50 H6          -0.6500    -0.3460    -4.2600 ha         1 MOL       0.161500
     51 H7           5.8970    -0.0720     3.3260 h1         1 MOL       0.089200
     52 H8           6.9680    -0.7320     2.0720 h1         1 MOL       0.089200
     53 H9          -3.1460    -0.8030    -0.1470 ha         1 MOL       0.135000
     54 H10         -2.9580    -1.0660    -4.3210 ha         1 MOL       0.135000
     55 H11          5.6340    -4.7230     2.3870 hc         1 MOL       0.089200
     56 H12          4.9720    -3.9610     3.8540 hc         1 MOL       0.089200
     57 H13          1.9970    -4.9250    -0.4490 h4         1 MOL       0.184000
     58 H14          7.5020    -3.3010     2.4310 h1         1 MOL       0.068700
     59 H15          7.2800    -3.8570     4.0850 h1         1 MOL       0.068700
     60 H16          2.4680    -7.3450     2.8930 h4         1 MOL       0.052100
     61 H17          1.3610    -7.2620     0.5370 ha         1 MOL       0.175000
     62 H18         -5.4070    -2.0060    -4.0430 h1         1 MOL       0.080200
     63 H19         -5.1630    -0.2830    -3.9300 h1         1 MOL       0.080200
     64 H20         -4.3900    -2.5830    -0.5430 h1         1 MOL       0.080200
     65 H21         -4.9280    -3.4120    -1.9840 h1         1 MOL       0.080200
     66 H22         -7.5710    -0.8920    -3.7740 hx         1 MOL       0.108950
     67 H23         -6.9710    -0.1110    -2.2990 hx         1 MOL       0.108950
     68 H24         -6.5480    -1.4920    -0.3070 hx         1 MOL       0.108950
     69 H25         -6.7870    -3.2430    -0.4710 hx         1 MOL       0.108950
     70 H26          9.5570    -2.0790     7.4840 hc         1 MOL       0.061700
     71 H27          8.8320    -2.7100     8.9440 hc         1 MOL       0.061700
     72 H28          8.7820    -0.9950     8.6150 hc         1 MOL       0.061700
     73 H29         -7.4490    -2.9630    -2.6710 hn         1 MOL       0.444800
     74 H30          3.4510    -3.6270     6.7220 ha         1 MOL       0.155000
     75 H31          6.1560    -1.0210     9.8940 ha         1 MOL       0.144000
     76 H32         -8.7610    -0.9780    -0.9910 hx         1 MOL       0.105033
     77 H33         -9.1060    -2.6900    -1.0170 hx         1 MOL       0.105033
     78 H34         -9.4320    -1.7120    -2.4280 hx         1 MOL       0.105033
     79 H35          2.4160    -2.5500     8.6680 ha         1 MOL       0.141000
     80 H36          3.7380    -1.2030    10.1730 ha         1 MOL       0.141000
@<TRIPOS>BOND
     1     1     2 2   
     2     2     3 1   
     3     2     4 1   
     4     3     5 1   
     5     3    45 1   
     6     4     6 ar  
     7     4     7 ar  
     8     5     8 1   
     9     5    46 1   
    10     5    47 1   
    11     6     9 ar  
    12     7    10 ar  
    13     7    48 1   
    14     8    11 ar  
    15     8    12 ar  
    16     9    13 ar  
    17     9    14 1   
    18    10    15 1   
    19    10    13 ar  
    20    11    16 ar  
    21    11    49 1   
    22    12    17 ar  
    23    12    50 1   
    24    13    18 1   
    25    14    19 1   
    26    14    51 1   
    27    14    52 1   
    28    15    20 1   
    29    15    21 1   
    30    16    22 ar  
    31    16    53 1   
    32    17    22 ar  
    33    17    54 1   
    34    18    23 1   
    35    18    55 1   
    36    18    56 1   
    37    19    24 1   
    38    19    23 1   
    39    20    25 2   
    40    21    26 2   
    41    21    57 1   
    42    22    27 1   
    43    23    58 1   
    44    23    59 1   
    45    24    28 2   
    46    24    29 1   
    47    25    26 1   
    48    25    60 1   
    49    26    61 1   
    50    27    30 1   
    51    27    31 1   
    52    29    32 1   
    53    29    33 2   
    54    30    34 1   
    55    30    62 1   
    56    30    63 1   
    57    31    35 1   
    58    31    64 1   
    59    31    65 1   
    60    32    36 1   
    61    33    37 1   
    62    33    38 1   
    63    34    39 1   
    64    34    66 1   
    65    34    67 1   
    66    35    39 1   
    67    35    68 1   
    68    35    69 1   
    69    36    40 ar  
    70    36    37 ar  
    71    37    41 ar  
    72    38    70 1   
    73    38    71 1   
    74    38    72 1   
    75    39    42 1   
    76    39    73 1   
    77    40    43 ar  
    78    40    74 1   
    79    41    44 ar  
    80    41    75 1   
    81    42    76 1   
    82    42    77 1   
    83    42    78 1   
    84    43    44 ar  
    85    43    79 1   
    86    44    80 1   
@<TRIPOS>SUBSTRUCTURE
     1 MOL         1 TEMP              0 ****  ****    0 ROOT
