@<TRIPOS>MOLECULE
MOL
   68    73     1     0     0
SMALL
bcc


@<TRIPOS>ATOM
      1 Cl1          0.0010    10.1330     2.9700 cl         1 MOL      -0.047400
      2 C1           1.6890    10.4630     2.7710 cc         1 MOL      -0.043600
      3 C2           2.2690    11.6070     3.1600 cd         1 MOL      -0.025300
      4 C3           2.4890     9.4000     2.1860 cc         1 MOL      -0.086000
      5 N1           3.6170    11.7590     2.9540 na         1 MOL       0.200000
      6 C4           3.7930     9.5740     1.9500 cd         1 MOL      -0.127000
      7 N2           4.3880    12.8290     3.2740 nd         1 MOL      -0.556100
      8 C5           4.3990    10.7750     2.3360 cd         1 MOL      -0.005300
      9 C6           5.5980    12.5180     2.7900 cc         1 MOL       0.431500
     10 C7           5.6540    11.2400     2.1040 cc         1 MOL      -0.361800
     11 C8           6.7960    10.6820     1.3290 c          1 MOL       0.721300
     12 O1           7.6910    11.5560     1.3100 o          1 MOL      -0.608100
     13 N3           7.1760     9.1330     1.1010 n          1 MOL      -0.477800
     14 C9           7.3560     7.6260     0.0720 c6         1 MOL       0.162300
     15 C10          8.4760     9.4210     1.5240 c6         1 MOL       0.101000
     16 C11          8.9250     6.7090    -0.2480 cc         1 MOL      -0.132300
     17 C12          9.1740     8.1990     1.6420 c6         1 MOL      -0.018100
     18 C13          9.6060     7.0960     0.8970 cd         1 MOL      -0.127400
     19 C14         10.3010     5.9390    -0.5080 cc         1 MOL      -0.122000
     20 S1          11.0890     6.7550     1.5730 ss         1 MOL       0.181200
     21 C15         11.5570     6.4580    -0.0150 cd         1 MOL      -0.209700
     22 C16         13.0180     6.5200    -0.1320 c          1 MOL       0.703700
     23 O2          13.7960     5.5690    -0.0960 o          1 MOL      -0.592100
     24 N4          13.5250     7.8290    -0.0960 ns         1 MOL      -0.572900
     25 C17         12.6640     8.9970    -0.0430 c3         1 MOL       0.136300
     26 C18         13.2540    10.1750    -0.7060 ca         1 MOL      -0.099300
     27 C19         13.1420    10.3060    -2.0860 ca         1 MOL      -0.104000
     28 C20         13.8810    11.1440     0.0640 ca         1 MOL      -0.104000
     29 C21         13.7900    11.3510    -2.7100 ca         1 MOL      -0.142500
     30 C22         14.4530    12.2250    -0.5680 ca         1 MOL      -0.142500
     31 C23         14.4910    12.3120    -1.9650 ca         1 MOL       0.071600
     32 N5          15.2710    13.2550    -2.5830 nh         1 MOL      -0.629000
     33 C24         14.9280    13.7670    -3.9090 c6         1 MOL       0.169300
     34 C25         16.2350    14.0740    -1.8360 c6         1 MOL       0.169300
     35 C26         16.2210    13.9650    -4.7110 c6         1 MOL       0.065800
     36 C27         17.4840    14.3200    -2.6990 c6         1 MOL       0.065800
     37 N6          17.1300    14.8990    -4.0120 nx         1 MOL      -0.677400
     38 C28         18.3170    15.1550    -4.8060 c3         1 MOL       0.083100
     39 H1           1.7150    12.3560     3.6040 h4         1 MOL       0.200000
     40 H2           2.0440     8.4990     1.9500 ha         1 MOL       0.162000
     41 H3           4.3450     8.8340     1.4890 ha         1 MOL       0.164000
     42 H4           6.4200    13.1330     2.8960 h4         1 MOL       0.069800
     43 H5           6.9900     7.9020    -0.8950 h1         1 MOL       0.063200
     44 H6           6.8570     6.9170     0.7000 h1         1 MOL       0.063200
     45 H7           8.4480     9.9180     2.4710 h1         1 MOL       0.056200
     46 H8           8.9630    10.0630     0.8200 h1         1 MOL       0.056200
     47 H9           8.6000     7.7130     2.4030 hc         1 MOL       0.063700
     48 H10         10.1160     8.6910     1.5160 hc         1 MOL       0.063700
     49 H11         10.2930     5.0530    -1.0370 ha         1 MOL       0.154000
     50 H12         14.5010     7.9600    -0.1070 hn         1 MOL       0.324500
     51 H13         12.4790     9.2380     0.9820 h1         1 MOL       0.073700
     52 H14         11.7620     8.7540    -0.5640 h1         1 MOL       0.073700
     53 H15         12.5840     9.6320    -2.6340 ha         1 MOL       0.154000
     54 H16         13.9180    11.0560     1.0920 ha         1 MOL       0.154000
     55 H17         13.7580    11.4280    -3.7390 ha         1 MOL       0.134000
     56 H18         14.8610    12.9850    -0.0020 ha         1 MOL       0.134000
     57 H19         14.4180    14.7030    -3.8130 h1         1 MOL       0.097200
     58 H20         14.2900    13.0730    -4.4140 h1         1 MOL       0.097200
     59 H21         16.5170    13.5620    -0.9390 h1         1 MOL       0.097200
     60 H22         15.7860    15.0130    -1.5870 h1         1 MOL       0.097200
     61 H23         15.9800    14.3640    -5.6740 hx         1 MOL       0.107700
     62 H24         16.7110    13.0200    -4.8140 hx         1 MOL       0.107700
     63 H25         17.9880    13.3890    -2.8550 hx         1 MOL       0.107700
     64 H26         18.1170    15.0130    -2.1860 hx         1 MOL       0.107700
     65 H27         16.6610    15.7940    -3.8720 hn         1 MOL       0.448800
     66 H28         18.8380    14.2350    -4.9740 hx         1 MOL       0.105033
     67 H29         18.9560    15.8360    -4.2840 hx         1 MOL       0.105033
     68 H30         18.0330    15.5810    -5.7450 hx         1 MOL       0.105033
@<TRIPOS>BOND
     1     1     2 1   
     2     2     3 2   
     3     2     4 1   
     4     3     5 1   
     5     3    39 1   
     6     4     6 2   
     7     4    40 1   
     8     5     7 1   
     9     5     8 1   
    10     6     8 1   
    11     6    41 1   
    12     7     9 2   
    13     8    10 2   
    14     9    10 1   
    15     9    42 1   
    16    10    11 1   
    17    11    12 2   
    18    11    13 1   
    19    13    14 1   
    20    13    15 1   
    21    14    16 1   
    22    14    43 1   
    23    14    44 1   
    24    15    17 1   
    25    15    45 1   
    26    15    46 1   
    27    16    18 2   
    28    16    19 1   
    29    17    18 1   
    30    17    47 1   
    31    17    48 1   
    32    18    20 1   
    33    19    21 2   
    34    19    49 1   
    35    20    21 1   
    36    21    22 1   
    37    22    23 2   
    38    22    24 1   
    39    24    25 1   
    40    24    50 1   
    41    25    26 1   
    42    25    51 1   
    43    25    52 1   
    44    26    27 ar  
    45    26    28 ar  
    46    27    29 ar  
    47    27    53 1   
    48    28    30 ar  
    49    28    54 1   
    50    29    31 ar  
    51    29    55 1   
    52    30    31 ar  
    53    30    56 1   
    54    31    32 1   
    55    32    33 1   
    56    32    34 1   
    57    33    35 1   
    58    33    57 1   
    59    33    58 1   
    60    34    36 1   
    61    34    59 1   
    62    34    60 1   
    63    35    37 1   
    64    35    61 1   
    65    35    62 1   
    66    36    37 1   
    67    36    63 1   
    68    36    64 1   
    69    37    38 1   
    70    37    65 1   
    71    38    66 1   
    72    38    67 1   
    73    38    68 1   
@<TRIPOS>SUBSTRUCTURE
     1 MOL         1 TEMP              0 ****  ****    0 ROOT
