@<TRIPOS>MOLECULE
MOL
   73    78     1     0     0
SMALL
bcc


@<TRIPOS>ATOM
      1 O1           1.8670     1.1480    -0.5900 o          1 MOL      -0.613100
      2 C1           2.4170     0.1380    -0.1470 c          1 MOL       0.573600
      3 N1           2.3810    -0.2090     1.1900 ns         1 MOL      -0.547900
      4 C2           3.1230    -0.8160    -1.0630 ca         1 MOL       0.350800
      5 C3           1.6750     0.5820     2.1670 c3         1 MOL       0.130300
      6 N2           4.0450    -1.6800    -0.5460 nb         1 MOL      -0.658000
      7 C4           2.7580    -0.7750    -2.4080 ca         1 MOL      -0.184300
      8 C5           2.6060     1.0280     3.2590 ca         1 MOL      -0.104300
      9 C6           4.6560    -2.5310    -1.4230 ca         1 MOL       0.385600
     10 C7           3.3770    -1.6590    -3.2750 ca         1 MOL      -0.101000
     11 C8           3.3360     2.2100     3.1170 ca         1 MOL      -0.094000
     12 C9           2.7900     0.2600     4.4110 ca         1 MOL      -0.094000
     13 C10          4.3470    -2.5420    -2.7930 ca         1 MOL      -0.155600
     14 C11          5.7350    -3.4730    -0.8780 c6         1 MOL       0.029700
     15 C12          4.2300     2.6100     4.1130 ca         1 MOL      -0.145000
     16 C13          3.6860     0.6740     5.4050 ca         1 MOL      -0.145000
     17 C14          4.9600    -3.5380    -3.7430 c6         1 MOL      -0.068100
     18 N3           6.0330    -4.5890    -1.7820 n          1 MOL      -0.446800
     19 C15          4.4290     1.8540     5.2770 ca         1 MOL       0.080600
     20 C16          6.2000    -4.2310    -3.1830 c6         1 MOL       0.084000
     21 C17          6.4470    -5.8290    -1.2710 c          1 MOL       0.705300
     22 N4           5.2780     2.3210     6.2620 nh         1 MOL      -0.639000
     23 O2           6.9090    -5.9200    -0.1320 o          1 MOL      -0.584100
     24 C18          6.0560    -7.0070    -2.0610 cc         1 MOL      -0.061100
     25 C19          5.1240     1.9280     7.6670 c6         1 MOL       0.159800
     26 C20          6.6540     2.7160     5.9120 c6         1 MOL       0.159800
     27 O3           4.9100    -6.8100    -2.8120 os         1 MOL      -0.205200
     28 C21          6.0850    -8.3770    -1.7670 cd         1 MOL      -0.016400
     29 C22          5.5830     3.1040     8.5620 c6         1 MOL       0.104300
     30 C23          7.1090     3.8640     6.8450 c6         1 MOL       0.104300
     31 C24          4.0420    -7.7430    -2.3550 ca         1 MOL       0.075100
     32 C25          4.7080    -8.6830    -1.5880 ca         1 MOL      -0.123800
     33 C26          7.2000    -9.3480    -1.6610 c3         1 MOL      -0.053900
     34 N5           6.9760     3.5280     8.2840 nx         1 MOL      -0.683400
     35 C27          2.6870    -7.7200    -2.5700 ca         1 MOL      -0.130000
     36 C28          3.9600    -9.6690    -0.9250 ca         1 MOL      -0.067000
     37 C29          7.3300     4.6790     9.1120 c3         1 MOL       0.084100
     38 C30          1.9410    -8.6750    -1.8700 ca         1 MOL      -0.096000
     39 C31          2.5630    -9.6170    -1.0430 ca         1 MOL      -0.149000
     40 H1           2.8510    -1.0220     1.4840 hn         1 MOL       0.330500
     41 H2           0.8890    -0.0050     2.5930 h1         1 MOL       0.075700
     42 H3           1.2720     1.4470     1.6830 h1         1 MOL       0.075700
     43 H4           2.0490    -0.1060    -2.7470 ha         1 MOL       0.169000
     44 H5           3.1220    -1.6660    -4.2750 ha         1 MOL       0.151000
     45 H6           3.2150     2.7910     2.2730 ha         1 MOL       0.162500
     46 H7           2.2610    -0.6190     4.5310 ha         1 MOL       0.162500
     47 H8           5.3990    -3.8720     0.0560 h1         1 MOL       0.088700
     48 H9           6.6330    -2.9010    -0.7700 h1         1 MOL       0.088700
     49 H10          4.7580     3.4880     3.9890 ha         1 MOL       0.134500
     50 H11          3.8000     0.0960     6.2520 ha         1 MOL       0.134500
     51 H12          5.2360    -3.0250    -4.6400 hc         1 MOL       0.073700
     52 H13          4.2280    -4.2980    -3.9170 hc         1 MOL       0.073700
     53 H14          7.0370    -3.5710    -3.2760 h1         1 MOL       0.069200
     54 H15          6.3570    -5.1320    -3.7400 h1         1 MOL       0.069200
     55 H16          5.7250     1.0660     7.8680 h1         1 MOL       0.079950
     56 H17          4.1000     1.6920     7.8700 h1         1 MOL       0.079950
     57 H18          6.6840     3.0470     4.8960 h1         1 MOL       0.079950
     58 H19          7.3080     1.8770     6.0310 h1         1 MOL       0.079950
     59 H20          5.5160     2.8000     9.5860 hx         1 MOL       0.108700
     60 H21          4.9450     3.9370     8.3510 hx         1 MOL       0.108700
     61 H22          6.5110     4.7280     6.6390 hx         1 MOL       0.108700
     62 H23          8.1460     4.0420     6.6510 hx         1 MOL       0.108700
     63 H24          8.1280    -8.8470    -1.8420 hc         1 MOL       0.062367
     64 H25          7.0670   -10.1250    -2.3850 hc         1 MOL       0.062367
     65 H26          7.2110    -9.7740    -0.6790 hc         1 MOL       0.062367
     66 H27          7.6150     2.7660     8.5100 hn         1 MOL       0.444800
     67 H28          2.2440    -7.0400    -3.2080 ha         1 MOL       0.151000
     68 H29          4.4230   -10.4060    -0.3710 ha         1 MOL       0.145000
     69 H30          6.6710     5.4930     8.8910 hx         1 MOL       0.105033
     70 H31          8.3390     4.9700     8.9070 hx         1 MOL       0.105033
     71 H32          7.2380     4.4160    10.1460 hx         1 MOL       0.105033
     72 H33          0.9130    -8.6850    -1.9650 ha         1 MOL       0.142000
     73 H34          1.9840   -10.2860    -0.5110 ha         1 MOL       0.141000
@<TRIPOS>BOND
     1     1     2 2   
     2     2     3 1   
     3     2     4 1   
     4     3     5 1   
     5     3    40 1   
     6     4     6 ar  
     7     4     7 ar  
     8     5     8 1   
     9     5    41 1   
    10     5    42 1   
    11     6     9 ar  
    12     7    10 ar  
    13     7    43 1   
    14     8    11 ar  
    15     8    12 ar  
    16     9    13 ar  
    17     9    14 1   
    18    10    13 ar  
    19    10    44 1   
    20    11    15 ar  
    21    11    45 1   
    22    12    16 ar  
    23    12    46 1   
    24    13    17 1   
    25    14    18 1   
    26    14    47 1   
    27    14    48 1   
    28    15    19 ar  
    29    15    49 1   
    30    16    19 ar  
    31    16    50 1   
    32    17    20 1   
    33    17    51 1   
    34    17    52 1   
    35    18    21 1   
    36    18    20 1   
    37    19    22 1   
    38    20    53 1   
    39    20    54 1   
    40    21    23 2   
    41    21    24 1   
    42    22    25 1   
    43    22    26 1   
    44    24    27 1   
    45    24    28 2   
    46    25    29 1   
    47    25    55 1   
    48    25    56 1   
    49    26    30 1   
    50    26    57 1   
    51    26    58 1   
    52    27    31 1   
    53    28    32 1   
    54    28    33 1   
    55    29    34 1   
    56    29    59 1   
    57    29    60 1   
    58    30    34 1   
    59    30    61 1   
    60    30    62 1   
    61    31    35 ar  
    62    31    32 ar  
    63    32    36 ar  
    64    33    63 1   
    65    33    64 1   
    66    33    65 1   
    67    34    37 1   
    68    34    66 1   
    69    35    38 ar  
    70    35    67 1   
    71    36    39 ar  
    72    36    68 1   
    73    37    69 1   
    74    37    70 1   
    75    37    71 1   
    76    38    39 ar  
    77    38    72 1   
    78    39    73 1   
@<TRIPOS>SUBSTRUCTURE
     1 MOL         1 TEMP              0 ****  ****    0 ROOT
