@<TRIPOS>MOLECULE
MOL
   83    89     1     0     0
SMALL
bcc


@<TRIPOS>ATOM
      1 O1      30.7840     4.8590   -21.7300 o 1 MOL -0.613100
      2 C1      29.7510     5.2120   -22.2970 c 1 MOL 0.569600
      3 N1      29.5170     6.5180   -22.6650 ns 1 MOL -0.539900
      4 C2      28.6720     4.2060   -22.5940 ca 1 MOL 0.351800
      5 C3      30.4550     7.5750   -22.3430 c3 1 MOL 0.126300
      6 N2      28.3200     3.2970   -21.6420 nb 1 MOL -0.669000
      7 C4      28.0940     4.2650   -23.8600 ca 1 MOL -0.190300
      8 C5      31.5910     7.6530   -23.3270 ca 1 MOL -0.107300
      9 C6      27.3360     2.4050   -21.9720 ca 1 MOL 0.388600
     10 C7      27.1210     3.3360   -24.2160 ca 1 MOL 0.052000
     11 C8      31.3440     7.6360   -24.7000 ca 1 MOL -0.095000
     12 C9      32.9130     7.8080   -22.8950 ca 1 MOL -0.095000
     13 C10     26.7360     2.3690   -23.2580 ca 1 MOL -0.151600
     14 C11     26.9120     1.3950   -20.8810 c6 1 MOL 0.027700
     15 C12     26.5420     3.4240   -25.5580 cc 1 MOL -0.245300
     16 C13     32.3990     7.7380   -25.6120 ca 1 MOL -0.142500
     17 C14     33.9650     7.9070   -23.8200 ca 1 MOL -0.142500
     18 C15     25.6640     1.3420   -23.5570 c6 1 MOL -0.067100
     19 N3      25.6650     0.6810   -21.1880 n 1 MOL -0.441800
     20 C16     25.6760     4.3570   -26.1690 cc 1 MOL 0.319200
     21 C17     26.8180     2.5310   -26.5850 cd 1 MOL -0.114300
     22 C18     33.7350     7.8650   -25.2000 ca 1 MOL 0.076600
     23 C19     25.5830     0.1920   -22.5570 c6 1 MOL 0.082000
     24 C20     24.6690     0.4930   -20.2050 c 1 MOL 0.705300
     25 N4      25.3960     4.0660   -27.4420 nd 1 MOL -0.502800
     26 N5      26.1150     2.9580   -27.6750 na 1 MOL 0.098400
     27 N6      34.7310     8.0190   -26.1510 nh 1 MOL -0.634000
     28 O2      24.9670     0.4920   -19.0100 o 1 MOL -0.592100
     29 C21     23.2630     0.5280   -20.6710 cc 1 MOL -0.057100
     30 C22     26.0850     2.3590   -28.9880 c3 1 MOL 0.035600
     31 C23     34.4200     8.2820   -27.5620 c6 1 MOL 0.156300
     32 C24     36.0270     8.5920   -25.7380 c6 1 MOL 0.156300
     33 O3      22.7120     1.7970   -20.6920 os 1 MOL -0.203200
     34 C25     22.1900    -0.3230   -20.3840 cd 1 MOL -0.022400
     35 C26     35.5630     7.7290   -28.4480 c6 1 MOL 0.104800
     36 C27     37.1450     8.0340   -26.6500 c6 1 MOL 0.104800
     37 C28     21.7350     1.7590   -19.7540 ca 1 MOL 0.074100
     38 C29     21.4340     0.4420   -19.4470 ca 1 MOL -0.122800
     39 C30     21.8300    -1.6760   -20.8700 c3 1 MOL -0.051900
     40 N7      36.8890     8.2850   -28.0890 nx 1 MOL -0.683400
     41 C31     21.1680     2.8710   -19.1580 ca 1 MOL -0.129000
     42 C32     20.5000     0.1890   -18.4320 ca 1 MOL -0.069000
     43 C33     37.9350     7.6800   -28.9080 c3 1 MOL 0.084100
     44 C34     20.2900     2.6040   -18.1090 ca 1 MOL -0.097000
     45 C35     19.9720     1.2900   -17.7410 ca 1 MOL -0.149000
     46 H1      30.3070     6.8710   -23.1360 hn 1 MOL 0.326500
     47 H2      29.5790     7.3840   -21.7590 h1 1 MOL 0.076700
     48 H3      31.1810     6.7980   -22.2260 h1 1 MOL 0.076700
     49 H4      27.2420     3.9230   -23.3910 ha 1 MOL 0.167000
     50 H5      32.0050     6.9130   -24.3740 ha 1 MOL 0.161500
     51 H6      32.5090     8.4950   -22.2410 ha 1 MOL 0.161500
     52 H7      26.6530     1.3940   -21.9190 h1 1 MOL 0.088700
     53 H8      27.7160     0.7250   -20.6610 h1 1 MOL 0.088700
     54 H9      32.7900     7.0360   -26.2600 ha 1 MOL 0.135000
     55 H10     33.2890     8.6180   -24.1410 ha 1 MOL 0.135000
     56 H11     25.8030     1.2670   -22.4990 hc 1 MOL 0.076200
     57 H12     25.0850     2.1940   -23.8470 hc 1 MOL 0.076200
     58 H13     26.0520     5.1380   -26.7280 h4 1 MOL 0.049100
     59 H14     26.6430     1.5160   -26.5290 h4 1 MOL 0.183000
     60 H15     26.2660    -0.5050   -22.1190 h1 1 MOL 0.070700
     61 H16     25.9150     1.1970   -22.3940 h1 1 MOL 0.070700
     62 H17     25.8760     1.3160   -28.8710 h1 1 MOL 0.064700
     63 H18     25.1660     2.9070   -29.0060 h1 1 MOL 0.064700
     64 H19     26.6860     2.6970   -28.1700 h1 1 MOL 0.064700
     65 H20     34.6140     9.3020   -27.8220 h1 1 MOL 0.081200
     66 H21     33.6830     8.2500   -26.7870 h1 1 MOL 0.081200
     67 H22     36.8860     8.0780   -25.3600 h1 1 MOL 0.081200
     68 H23     36.3050     9.5870   -26.0190 h1 1 MOL 0.081200
     69 H24     34.6920     8.2300   -28.8170 hx 1 MOL 0.108450
     70 H25     35.3460     6.7270   -28.1450 hx 1 MOL 0.108450
     71 H26     36.9430     7.0210   -26.3710 hx 1 MOL 0.108450
     72 H27     37.8840     8.0920   -27.4210 hx 1 MOL 0.108450
     73 H28     22.8190    -2.0140   -20.6370 hc 1 MOL 0.061033
     74 H29     21.7150    -0.6620   -20.5490 hc 1 MOL 0.061033
     75 H30     21.6730    -1.7360   -21.9270 hc 1 MOL 0.061033
     76 H31     37.0880     9.2250   -28.4300 hn 1 MOL 0.445800
     77 H32     20.8800     2.5280   -18.2280 ha 1 MOL 0.153000
     78 H33     20.8080     0.6310   -19.3120 ha 1 MOL 0.144000
     79 H34     37.7180     6.6860   -28.5760 hx 1 MOL 0.104700
     80 H35     38.6670     7.6440   -29.6870 hx 1 MOL 0.104700
     81 H36     37.0410     8.1350   -29.2800 hx 1 MOL 0.104700
     82 H37     19.2840     2.5970   -17.8800 ha 1 MOL 0.142000
     83 H38     19.2660     1.6330   -18.4110 ha 1 MOL 0.141000
@<TRIPOS>BOND
     1     1     2 2   
     2     2     3 1   
     3     2     4 1   
     4     3     5 1   
     5     3    46 1   
     6     4     6 ar  
     7     4     7 ar  
     8     5     8 1   
     9     5    47 1   
    10     5    48 1   
    11     6     9 ar  
    12     7    10 ar  
    13     7    49 1   
    14     8    11 ar  
    15     8    12 ar  
    16     9    13 ar  
    17     9    14 1   
    18    10    15 1   
    19    10    13 ar  
    20    11    16 ar  
    21    11    50 1   
    22    12    17 ar  
    23    12    51 1   
    24    13    18 1   
    25    14    19 1   
    26    14    52 1   
    27    14    53 1   
    28    15    20 1   
    29    15    21 2   
    30    16    22 ar  
    31    16    54 1   
    32    17    22 ar  
    33    17    55 1   
    34    18    23 1   
    35    18    56 1   
    36    18    57 1   
    37    19    24 1   
    38    19    23 1   
    39    20    25 2   
    40    20    58 1   
    41    21    26 1   
    42    21    59 1   
    43    22    27 1   
    44    23    60 1   
    45    23    61 1   
    46    24    28 2   
    47    24    29 1   
    48    25    26 1   
    49    26    30 1   
    50    27    31 1   
    51    27    32 1   
    52    29    33 1   
    53    29    34 2   
    54    30    62 1   
    55    30    63 1   
    56    30    64 1   
    57    31    35 1   
    58    31    65 1   
    59    31    66 1   
    60    32    36 1   
    61    32    67 1   
    62    32    68 1   
    63    33    37 1   
    64    34    38 1   
    65    34    39 1   
    66    35    40 1   
    67    35    69 1   
    68    35    70 1   
    69    36    40 1   
    70    36    71 1   
    71    36    72 1   
    72    37    41 ar  
    73    37    38 ar  
    74    38    42 ar  
    75    39    73 1   
    76    39    74 1   
    77    39    75 1   
    78    40    43 1   
    79    40    76 1   
    80    41    44 ar  
    81    41    77 1   
    82    42    45 ar  
    83    42    78 1   
    84    43    79 1   
    85    43    80 1   
    86    43    81 1   
    87    44    45 ar  
    88    44    82 1   
    89    45    83 1   
@<TRIPOS>SUBSTRUCTURE
     1 MOL         1 TEMP              0 ****  ****    0 ROOT
