@<TRIPOS>MOLECULE
MOL
   70    75     1     0     0
SMALL
bcc


@<TRIPOS>ATOM
      1 O1      31.2410     5.4880   -21.7600 o 1 MOL -0.611100
      2 C1      30.2970     5.7970   -22.3980 c 1 MOL 0.572600
      3 N1      30.1570     7.1310   -22.9220 ns 1 MOL -0.546900
      4 C2      29.1580     4.8040   -22.7140 ca 1 MOL 0.353800
      5 C3      31.1920     8.1150   -22.6380 c3 1 MOL 0.130300
      6 N2      28.9820     3.5850   -22.0560 nb 1 MOL -0.658000
      7 C4      28.2630     5.2690   -23.6910 ca 1 MOL -0.186300
      8 C5      32.2830     8.1540   -23.6970 ca 1 MOL -0.105300
      9 C6      27.8150     2.8230   -22.2870 ca 1 MOL 0.390600
     10 C7      27.1650     4.4260   -24.0020 ca 1 MOL -0.099000
     11 C8      32.0410     7.7090   -25.0030 ca 1 MOL -0.094000
     12 C9      33.5780     8.6020   -23.3980 ca 1 MOL -0.094000
     13 C10     26.9420     3.2060   -23.3090 ca 1 MOL -0.162600
     14 C11     27.4300     1.4910   -21.4040 c6 1 MOL 0.032700
     15 C12     33.0310     7.7440   -25.9730 ca 1 MOL -0.145000
     16 C13     34.6050     8.4990   -24.3470 ca 1 MOL -0.145000
     17 C14     25.6820     2.3840   -23.6050 c6 1 MOL -0.063100
     18 N3      25.8320     0.9970   -21.3750 n 1 MOL -0.465800
     19 C15     34.3440     8.1160   -25.6700 ca 1 MOL 0.080600
     20 C16     25.5440     0.9530   -22.8960 c6 1 MOL 0.085000
     21 C17     25.0730     0.4030   -19.9230 c 1 MOL 0.703300
     22 N4      35.3040     8.1530   -26.6550 nh 1 MOL -0.639000
     23 O2      25.8810     0.6110   -18.9750 o 1 MOL -0.579100
     24 C18     23.4740    -0.3580   -19.3650 cc 1 MOL -0.185400
     25 C19     36.6960     8.4610   -26.3380 c6 1 MOL 0.159800
     26 C20     35.0470     7.7010   -28.0340 c6 1 MOL 0.159800
     27 C21     21.6910    -1.0460   -19.3040 ca 1 MOL -0.081800
     28 C22     22.9160     0.8590   -19.7300 cd 1 MOL 0.025100
     29 C23     37.2700     9.4410   -27.3820 c6 1 MOL 0.104300
     30 C24     35.6970     8.6850   -29.0340 c6 1 MOL 0.104300
     31 C25     21.1580     0.1430   -18.9240 ca 1 MOL 0.055100
     32 C26     20.3030    -2.2410   -19.1820 ca 1 MOL -0.075000
     33 O3      21.9260     1.2180   -18.9360 os 1 MOL -0.189200
     34 N5      37.1390     8.8980   -28.7530 nx 1 MOL -0.683400
     35 C27     19.8400     0.3740   -18.7400 ca 1 MOL -0.115000
     36 C28     19.0600    -1.8180   -18.6620 ca 1 MOL -0.142000
     37 C29     37.7480     9.7870   -29.7350 c3 1 MOL 0.084100
     38 C30     18.8110    -0.4470   -18.6950 ca 1 MOL -0.106000
     39 H1      31.1380     7.0790   -22.9760 hn 1 MOL 0.330500
     40 H2      31.3980     7.0710   -22.5220 h1 1 MOL 0.075700
     41 H3      30.1490     8.3020   -22.7860 h1 1 MOL 0.075700
     42 H4      27.2360     5.3110   -23.6030 ha 1 MOL 0.170000
     43 H5      26.6140     4.8550   -24.7620 ha 1 MOL 0.150000
     44 H6      31.2380     8.0600   -25.5490 ha 1 MOL 0.162000
     45 H7      34.0660     7.7280   -23.6500 ha 1 MOL 0.162000
     46 H8      27.6820     0.5620   -20.9370 h1 1 MOL 0.087700
     47 H9      27.9170     2.3580   -21.0110 h1 1 MOL 0.087700
     48 H10     32.4480     8.5230   -25.6290 ha 1 MOL 0.135000
     49 H11     35.4950     8.2460   -23.8910 ha 1 MOL 0.135000
     50 H12     25.3690     3.3830   -23.8270 hc 1 MOL 0.064700
     51 H13     25.3670     1.6380   -24.3040 hc 1 MOL 0.064700
     52 H14     25.9250     1.7710   -22.3190 h1 1 MOL 0.066200
     53 H15     25.8180     1.0280   -23.9270 h1 1 MOL 0.066200
     54 H16     37.7230     8.7620   -26.3560 h1 1 MOL 0.080200
     55 H17     36.6260     7.4030   -26.4800 h1 1 MOL 0.080200
     56 H18     34.3710     8.0670   -28.7780 h1 1 MOL 0.080200
     57 H19     36.0000     8.1740   -28.1500 h1 1 MOL 0.080200
     58 H20     22.3520     1.6610   -19.4090 h4 1 MOL 0.195000
     59 H21     37.8450     8.9850   -26.6030 hx 1 MOL 0.108950
     60 H22     36.2600     9.0880   -27.3590 hx 1 MOL 0.108950
     61 H23     34.6980     8.3090   -28.9690 hx 1 MOL 0.108950
     62 H24     35.7220     9.7470   -28.9010 hx 1 MOL 0.108950
     63 H25     21.2590    -2.0160   -18.8620 ha 1 MOL 0.149000
     64 H26     38.0920     9.2570   -28.7980 hn 1 MOL 0.444800
     65 H27     18.8960     0.3450   -19.1560 ha 1 MOL 0.156000
     66 H28     19.8140    -2.1720   -19.2710 ha 1 MOL 0.139000
     67 H29     36.7440     9.4310   -29.6350 hx 1 MOL 0.105033
     68 H30     37.7620    10.8510   -29.6170 hx 1 MOL 0.105033
     69 H31     38.3620     9.3380   -28.9830 hx 1 MOL 0.105033
     70 H32     18.6170    -0.3290   -19.7010 ha 1 MOL 0.142000
@<TRIPOS>BOND
     1     1     2 2   
     2     2     3 1   
     3     2     4 1   
     4     3     5 1   
     5     3    39 1   
     6     4     6 ar  
     7     4     7 ar  
     8     5     8 1   
     9     5    40 1   
    10     5    41 1   
    11     6     9 ar  
    12     7    10 ar  
    13     7    42 1   
    14     8    11 ar  
    15     8    12 ar  
    16     9    13 ar  
    17     9    14 1   
    18    10    13 ar  
    19    10    43 1   
    20    11    15 ar  
    21    11    44 1   
    22    12    16 ar  
    23    12    45 1   
    24    13    17 1   
    25    14    18 1   
    26    14    46 1   
    27    14    47 1   
    28    15    19 ar  
    29    15    48 1   
    30    16    19 ar  
    31    16    49 1   
    32    17    20 1   
    33    17    50 1   
    34    17    51 1   
    35    18    21 1   
    36    18    20 1   
    37    19    22 1   
    38    20    52 1   
    39    20    53 1   
    40    21    23 2   
    41    21    24 1   
    42    22    25 1   
    43    22    26 1   
    44    24    27 1   
    45    24    28 2   
    46    25    29 1   
    47    25    54 1   
    48    25    55 1   
    49    26    30 1   
    50    26    56 1   
    51    26    57 1   
    52    27    31 ar  
    53    27    32 ar  
    54    28    33 1   
    55    28    58 1   
    56    29    34 1   
    57    29    59 1   
    58    29    60 1   
    59    30    34 1   
    60    30    61 1   
    61    30    62 1   
    62    31    35 ar  
    63    31    33 1   
    64    32    36 ar  
    65    32    63 1   
    66    34    37 1   
    67    34    64 1   
    68    35    38 ar  
    69    35    65 1   
    70    36    38 ar  
    71    36    66 1   
    72    37    67 1   
    73    37    68 1   
    74    37    69 1   
    75    38    70 1   
@<TRIPOS>SUBSTRUCTURE
     1 MOL         1 TEMP              0 ****  ****    0 ROOT
