@<TRIPOS>MOLECULE
MOL
   70    75     1     0     0
SMALL
bcc


@<TRIPOS>ATOM
      1 Cl1     27.4520     0.6630   -26.9780 cl 1 MOL -0.072400
      2 C1      26.5160     2.1230   -27.0410 cc 1 MOL 0.013200
      3 C2      26.2210     2.9850   -25.9680 cd 1 MOL -0.158600
      4 C3      25.9460     2.5000   -28.3110 ca 1 MOL -0.082800
      5 S1      25.3200     4.3070   -26.5560 ss 1 MOL 0.181500
      6 C4      26.6140     2.7290   -24.5620 c 1 MOL 0.686300
      7 C5      25.2560     3.7010   -28.1890 ca 1 MOL -0.098100
      8 C6      25.9740     1.8600   -29.5910 ca 1 MOL -0.112000
      9 O1      25.8780     1.9500   -23.9340 o 1 MOL -0.570100
     10 N1      27.6940     3.2750   -23.7710 n 1 MOL -0.441800
     11 C7      24.6140     4.2770   -29.3160 ca 1 MOL -0.080000
     12 C8      25.3260     2.4210   -30.6990 ca 1 MOL -0.124000
     13 C9      28.8860     4.1200   -24.1390 c6 1 MOL 0.033700
     14 C10     27.5250     2.8910   -22.3640 c6 1 MOL 0.078000
     15 C11     24.6550     3.6240   -30.5580 ca 1 MOL -0.110000
     16 C12     29.7470     4.7240   -22.9730 ca 1 MOL 0.369600
     17 C13     28.6040     3.1540   -21.3490 c6 1 MOL -0.051100
     18 N2      30.7490     5.6540   -23.2290 nb 1 MOL -0.647000
     19 C14     29.5370     4.2590   -21.6700 ca 1 MOL -0.161600
     20 C15     31.5000     6.0930   -22.1480 ca 1 MOL 0.341800
     21 C16     30.3030     4.7470   -20.6050 ca 1 MOL -0.094000
     22 C17     32.6600     7.0560   -22.2790 c 1 MOL 0.563600
     23 C18     31.2910     5.6750   -20.8380 ca 1 MOL -0.173300
     24 O2      33.1750     7.5260   -21.2610 o 1 MOL -0.603100
     25 N3      33.1250     7.4100   -23.5200 ns 1 MOL -0.531900
     26 C19     34.2260     8.3560   -23.6640 c3 1 MOL 0.123300
     27 C20     34.8540     8.2800   -25.0290 ca 1 MOL -0.115300
     28 C21     36.2340     8.4140   -25.1880 ca 1 MOL -0.090500
     29 C22     34.0790     8.0740   -26.1690 ca 1 MOL -0.090500
     30 C23     36.8060     8.4460   -26.4670 ca 1 MOL -0.156500
     31 C24     34.6660     8.0870   -27.4420 ca 1 MOL -0.156500
     32 C25     36.0370     8.3190   -27.6350 ca 1 MOL 0.078600
     33 N4      36.5900     8.4870   -28.8920 nh 1 MOL -0.613000
     34 C26     37.9360     8.0000   -29.2420 c6 1 MOL 0.162800
     35 C27     35.7750     8.8370   -30.0690 c6 1 MOL 0.162800
     36 C28     38.6530     9.0260   -30.1540 c6 1 MOL 0.060800
     37 C29     36.5400     9.8410   -30.9630 c6 1 MOL 0.060800
     38 N5      37.8710     9.3430   -31.3710 nx 1 MOL -0.674400
     39 C30     38.5620    10.3340   -32.1910 c3 1 MOL 0.082100
     40 H1      26.4680     2.7560   -29.7300 ha 1 MOL 0.122000
     41 H2      24.1100     3.3900   -29.1620 ha 1 MOL 0.153000
     42 H3      24.7950     3.2960   -30.8320 ha 1 MOL 0.137000
     43 H4      27.9830     4.0320   -24.7080 h1 1 MOL 0.081700
     44 H5      28.7630     4.1540   -23.0770 h1 1 MOL 0.081700
     45 H6      27.9740     3.6650   -21.7770 h1 1 MOL 0.068700
     46 H7      27.4940     3.0110   -23.4270 h1 1 MOL 0.068700
     47 H8      23.6230     3.6090   -30.5330 ha 1 MOL 0.150000
     48 H9      29.1190     3.2420   -20.4150 hc 1 MOL 0.074200
     49 H10     29.2500     3.1380   -22.2020 hc 1 MOL 0.074200
     50 H11     31.3010     4.8550   -20.8430 ha 1 MOL 0.155000
     51 H12     31.8620     4.8300   -20.9920 ha 1 MOL 0.176000
     52 H13     32.4770     8.1500   -23.4700 hn 1 MOL 0.322500
     53 H14     33.8820     8.2060   -22.6620 h1 1 MOL 0.082200
     54 H15     35.0430     7.7050   -23.8930 h1 1 MOL 0.082200
     55 H16     37.1770     8.6030   -25.5630 ha 1 MOL 0.160500
     56 H17     33.9240     7.9550   -25.1550 ha 1 MOL 0.160500
     57 H18     36.9760     8.5240   -27.4820 ha 1 MOL 0.132500
     58 H19     33.7460     7.8090   -27.0670 ha 1 MOL 0.132500
     59 H20     37.6260     6.9780   -29.3130 h1 1 MOL 0.095700
     60 H21     38.9560     8.0930   -29.5520 h1 1 MOL 0.095700
     61 H22     35.7480     9.2680   -29.0900 h1 1 MOL 0.095700
     62 H23     35.3810     7.8420   -30.0390 h1 1 MOL 0.095700
     63 H24     38.7070     8.6400   -31.1500 hx 1 MOL 0.110950
     64 H25     39.0170    10.0310   -30.1030 hx 1 MOL 0.110950
     65 H26     36.8900    10.8510   -30.9270 hx 1 MOL 0.110950
     66 H27     35.5210     9.7640   -30.6440 hx 1 MOL 0.110950
     67 H28     37.4910     8.3980   -31.4330 hn 1 MOL 0.443800
     68 H29     38.9340    11.3360   -32.1510 hx 1 MOL 0.107033
     69 H30     37.5430    10.3180   -31.8650 hx 1 MOL 0.107033
     70 H31     38.6200     9.9720   -33.1970 hx 1 MOL 0.107033
@<TRIPOS>BOND
     1     1     2 1   
     2     2     3 2   
     3     2     4 1   
     4     3     5 1   
     5     3     6 1   
     6     4     7 ar  
     7     4     8 ar  
     8     5     7 1   
     9     6     9 2   
    10     6    10 1   
    11     7    11 ar  
    12     8    12 ar  
    13     8    40 1   
    14    10    13 1   
    15    10    14 1   
    16    11    15 ar  
    17    11    41 1   
    18    12    15 ar  
    19    12    42 1   
    20    13    16 1   
    21    13    43 1   
    22    13    44 1   
    23    14    17 1   
    24    14    45 1   
    25    14    46 1   
    26    15    47 1   
    27    16    18 ar  
    28    16    19 ar  
    29    17    19 1   
    30    17    48 1   
    31    17    49 1   
    32    18    20 ar  
    33    19    21 ar  
    34    20    22 1   
    35    20    23 ar  
    36    21    23 ar  
    37    21    50 1   
    38    22    24 2   
    39    22    25 1   
    40    23    51 1   
    41    25    26 1   
    42    25    52 1   
    43    26    27 1   
    44    26    53 1   
    45    26    54 1   
    46    27    28 ar  
    47    27    29 ar  
    48    28    30 ar  
    49    28    55 1   
    50    29    31 ar  
    51    29    56 1   
    52    30    32 ar  
    53    30    57 1   
    54    31    32 ar  
    55    31    58 1   
    56    32    33 1   
    57    33    34 1   
    58    33    35 1   
    59    34    36 1   
    60    34    59 1   
    61    34    60 1   
    62    35    37 1   
    63    35    61 1   
    64    35    62 1   
    65    36    38 1   
    66    36    63 1   
    67    36    64 1   
    68    37    38 1   
    69    37    65 1   
    70    37    66 1   
    71    38    39 1   
    72    38    67 1   
    73    39    68 1   
    74    39    69 1   
    75    39    70 1   
@<TRIPOS>SUBSTRUCTURE
     1 MOL         1 TEMP              0 ****  ****    0 ROOT
