@<TRIPOS>MOLECULE
MOL
   73    78     1     0     0
SMALL
bcc


@<TRIPOS>ATOM
      1 S1      25.2010     3.6740   -26.7320 ss 1 MOL 0.071500
      2 C1      25.4950     3.3270   -28.3760 ca 1 MOL -0.115100
      3 C2      25.8140     2.1880   -26.1620 cc 1 MOL -0.184600
      4 C3      25.1800     4.1350   -29.4800 ca 1 MOL 0.138900
      5 C4      26.1380     2.1040   -28.5300 ca 1 MOL -0.076800
      6 C5      26.3600     1.4530   -27.2410 cd 1 MOL 0.025600
      7 C6      25.8620     1.8870   -24.7080 c 1 MOL 0.709300
      8 F1      24.5650     5.3130   -29.3140 f 1 MOL -0.149900
      9 C7      25.5010     3.7170   -30.7720 ca 1 MOL -0.144000
     10 C8      26.4810     1.7080   -29.8610 ca 1 MOL -0.083000
     11 C9      27.1020     0.1380   -27.1970 c3 1 MOL -0.055900
     12 O1      24.9710     1.1710   -24.2370 o 1 MOL -0.597100
     13 N1      26.8820     2.3560   -23.7870 n 1 MOL -0.483800
     14 C10     26.1530     2.5100   -30.9620 ca 1 MOL -0.118000
     15 C11     27.9030     3.4360   -24.0120 c6 1 MOL 0.038700
     16 C12     26.6360     1.8990   -22.4220 c6 1 MOL 0.094000
     17 C13     28.7820     3.9090   -22.8220 ca 1 MOL 0.399600
     18 C14     27.6410     2.2060   -21.3270 c6 1 MOL -0.057100
     19 N2      29.7530     4.8910   -23.0150 nb 1 MOL -0.662000
     20 C15     28.6150     3.3020   -21.5790 ca 1 MOL -0.154600
     21 C16     30.5480     5.2150   -21.9360 ca 1 MOL 0.352800
     22 C17     29.4340     3.6800   -20.5100 ca 1 MOL -0.096000
     23 C18     31.6690     6.2510   -21.9990 c 1 MOL 0.570600
     24 C19     30.4100     4.6370   -20.6840 ca 1 MOL -0.182300
     25 O2      32.4000     6.4160   -21.0180 o 1 MOL -0.605100
     26 N3      31.8320     7.0030   -23.1380 ns 1 MOL -0.542900
     27 C20     32.7910     8.0970   -23.1340 c3 1 MOL 0.127300
     28 C21     33.6920     8.0630   -24.3340 ca 1 MOL -0.107300
     29 C22     35.0790     8.0960   -24.1880 ca 1 MOL -0.094500
     30 C23     33.1540     7.9760   -25.6240 ca 1 MOL -0.094500
     31 C24     35.8970     8.1170   -25.3160 ca 1 MOL -0.143000
     32 C25     33.9830     8.0160   -26.7500 ca 1 MOL -0.143000
     33 C26     35.3700     8.1150   -26.6180 ca 1 MOL 0.079600
     34 N4      36.2480     8.1700   -27.6910 nh 1 MOL -0.636000
     35 C27     37.4010     7.2640   -27.7990 c6 1 MOL 0.157300
     36 C28     35.6510     8.4880   -29.0040 c6 1 MOL 0.157300
     37 C29     38.4550     7.9030   -28.7460 c6 1 MOL 0.104800
     38 C30     36.7260     9.1500   -29.8880 c6 1 MOL 0.104800
     39 N5      37.9020     8.2700   -30.0750 nx 1 MOL -0.683400
     40 C31     38.9080     8.9440   -30.8920 c3 1 MOL 0.084100
     41 H1      26.0250     2.9130   -30.3920 ha 1 MOL 0.146000
     42 H2      25.6100     1.5440   -30.3910 ha 1 MOL 0.150000
     43 H3      26.8520     1.1490   -27.4410 hc 1 MOL 0.067033
     44 H4      26.3220    -0.2890   -26.6010 hc 1 MOL 0.067033
     45 H5      27.2140    -0.4290   -28.0980 hc 1 MOL 0.067033
     46 H6      25.8080     1.5500   -31.1190 ha 1 MOL 0.145000
     47 H7      28.1940     2.8000   -24.8220 h1 1 MOL 0.070200
     48 H8      28.0520     3.0550   -23.0230 h1 1 MOL 0.070200
     49 H9      25.7820     2.0420   -21.7920 h1 1 MOL 0.072200
     50 H10     26.4660     1.8620   -23.4780 h1 1 MOL 0.072200
     51 H11     27.3500     2.6860   -20.4160 hc 1 MOL 0.073700
     52 H12     27.4840     2.7800   -22.2160 hc 1 MOL 0.073700
     53 H13     29.0040     4.6130   -20.6050 ha 1 MOL 0.154000
     54 H14     31.0120     5.4750   -20.6740 ha 1 MOL 0.171000
     55 H15     31.3480     6.1460   -23.1370 hn 1 MOL 0.325500
     56 H16     33.1340     8.9230   -22.5470 h1 1 MOL 0.077700
     57 H17     33.0990     8.1910   -24.1540 h1 1 MOL 0.077700
     58 H18     35.3560     8.4150   -25.1300 ha 1 MOL 0.161000
     59 H19     32.5610     8.5680   -25.0210 ha 1 MOL 0.161000
     60 H20     36.5520     7.5660   -25.8930 ha 1 MOL 0.135000
     61 H21     33.7330     7.7150   -25.7950 ha 1 MOL 0.135000
     62 H22     36.4550     6.9020   -27.4540 h1 1 MOL 0.080950
     63 H23     37.6740     8.1270   -27.2300 h1 1 MOL 0.080950
     64 H24     35.6070     8.7920   -30.0290 h1 1 MOL 0.080950
     65 H25     34.7060     8.0690   -28.7250 h1 1 MOL 0.080950
     66 H26     38.4580     7.5900   -27.7230 hx 1 MOL 0.108700
     67 H27     39.3930     8.3230   -29.0420 hx 1 MOL 0.108700
     68 H28     37.6560     9.5760   -30.2010 hx 1 MOL 0.108700
     69 H29     36.4760     8.2930   -30.4780 hx 1 MOL 0.108700
     70 H30     37.0380     7.8180   -29.7760 hn 1 MOL 0.445800
     71 H31     39.8290     9.3920   -31.1990 hx 1 MOL 0.105033
     72 H32     38.7030     8.0920   -31.5070 hx 1 MOL 0.105033
     73 H33     38.9850     8.6350   -29.8700 hx 1 MOL 0.105033
@<TRIPOS>BOND
     1     1     2 1   
     2     1     3 1   
     3     2     4 ar  
     4     2     5 ar  
     5     3     6 2   
     6     3     7 1   
     7     4     8 1   
     8     4     9 ar  
     9     5    10 ar  
    10     5     6 1   
    11     6    11 1   
    12     7    12 2   
    13     7    13 1   
    14     9    14 ar  
    15     9    41 1   
    16    10    14 ar  
    17    10    42 1   
    18    11    43 1   
    19    11    44 1   
    20    11    45 1   
    21    13    15 1   
    22    13    16 1   
    23    14    46 1   
    24    15    17 1   
    25    15    47 1   
    26    15    48 1   
    27    16    18 1   
    28    16    49 1   
    29    16    50 1   
    30    17    19 ar  
    31    17    20 ar  
    32    18    20 1   
    33    18    51 1   
    34    18    52 1   
    35    19    21 ar  
    36    20    22 ar  
    37    21    23 1   
    38    21    24 ar  
    39    22    24 ar  
    40    22    53 1   
    41    23    25 2   
    42    23    26 1   
    43    24    54 1   
    44    26    27 1   
    45    26    55 1   
    46    27    28 1   
    47    27    56 1   
    48    27    57 1   
    49    28    29 ar  
    50    28    30 ar  
    51    29    31 ar  
    52    29    58 1   
    53    30    32 ar  
    54    30    59 1   
    55    31    33 ar  
    56    31    60 1   
    57    32    33 ar  
    58    32    61 1   
    59    33    34 1   
    60    34    35 1   
    61    34    36 1   
    62    35    37 1   
    63    35    62 1   
    64    35    63 1   
    65    36    38 1   
    66    36    64 1   
    67    36    65 1   
    68    37    39 1   
    69    37    66 1   
    70    37    67 1   
    71    38    39 1   
    72    38    68 1   
    73    38    69 1   
    74    39    40 1   
    75    39    70 1   
    76    40    71 1   
    77    40    72 1   
    78    40    73 1   
@<TRIPOS>SUBSTRUCTURE
     1 MOL         1 TEMP              0 ****  ****    0 ROOT
