@<TRIPOS>MOLECULE
MOL
   80    86     1     0     0
SMALL
bcc


@<TRIPOS>ATOM
      1 O1      30.7560     4.8740   -21.6880 o 1 MOL -0.612100
      2 C1      29.7850     5.2210   -22.3510 c 1 MOL 0.574600
      3 N1      29.5990     6.5350   -22.7650 ns 1 MOL -0.544900
      4 C2      28.7140     4.2250   -22.7440 ca 1 MOL 0.364800
      5 C3      30.5170     7.6010   -22.4100 c3 1 MOL 0.130300
      6 N2      28.2920     3.3610   -21.7840 nb 1 MOL -0.665000
      7 C4      28.1610     4.2610   -24.0170 ca 1 MOL -0.213300
      8 C5      31.6770     7.6690   -23.3740 ca 1 MOL -0.105300
      9 C6      27.2810     2.4940   -22.0790 ca 1 MOL 0.395600
     10 C7      27.1280     3.3710   -24.3300 ca 1 MOL 0.061800
     11 C8      31.4490     7.6410   -24.7530 ca 1 MOL -0.094000
     12 C9      32.9960     7.8180   -22.9280 ca 1 MOL -0.094000
     13 C10     26.6810     2.4470   -23.3540 ca 1 MOL -0.141600
     14 C11     26.8550     1.5360   -20.9570 c6 1 MOL 0.030700
     15 N3      26.5390     3.4730   -25.6320 na 1 MOL 0.127300
     16 C12     32.5150     7.7440   -25.6540 ca 1 MOL -0.145000
     17 C13     34.0580     7.9330   -23.8410 ca 1 MOL -0.145000
     18 C14     25.5930     1.4320   -23.6290 c6 1 MOL -0.066100
     19 N4      25.6410     0.7830   -21.2650 n 1 MOL -0.447800
     20 N5      26.8200     2.5860   -26.6180 nc 1 MOL -0.498800
     21 C15     25.6120     4.3950   -26.0590 cc 1 MOL -0.128300
     22 C16     33.8430     7.8940   -25.2230 ca 1 MOL 0.081600
     23 C17     25.5450     0.2880   -22.6230 c6 1 MOL 0.082000
     24 C18     24.7520     0.3890   -20.2580 c 1 MOL 0.707300
     25 C19     26.0090     2.9210   -27.6160 cd 1 MOL 0.311200
     26 C20     25.2460     4.0570   -27.3360 cd 1 MOL -0.285300
     27 N6      34.8460     8.0660   -26.1630 nh 1 MOL -0.639000
     28 O2      25.1280     0.2380   -19.0960 o 1 MOL -0.586100
     29 C21     23.3310     0.4310   -20.6300 cc 1 MOL -0.061100
     30 C22     34.5450     8.2960   -27.5830 c6 1 MOL 0.159800
     31 C23     36.1010     8.7130   -25.7350 c6 1 MOL 0.159800
     32 O3      22.8070     1.7020   -20.7400 os 1 MOL -0.200200
     33 C24     22.2580    -0.4140   -20.3370 cd 1 MOL -0.016400
     34 C25     35.7330     7.7840   -28.4390 c6 1 MOL 0.104300
     35 C26     37.2690     8.2110   -26.6180 c6 1 MOL 0.104300
     36 C27     21.7460     1.7150   -19.9040 ca 1 MOL 0.077100
     37 C28     21.4330     0.4170   -19.5220 ca 1 MOL -0.125800
     38 C29     22.0160    -1.8390   -20.6580 c3 1 MOL -0.053900
     39 N7      37.0270     8.4080   -28.0680 nx 1 MOL -0.683400
     40 C30     21.1290     2.8600   -19.4350 ca 1 MOL -0.128000
     41 C31     20.4590     0.2360   -18.5270 ca 1 MOL -0.068000
     42 C32     38.1150     7.8190   -28.8470 c3 1 MOL 0.084100
     43 C33     20.2020     2.6650   -18.4100 ca 1 MOL -0.097000
     44 C34     19.8930     1.3810   -17.9460 ca 1 MOL -0.150000
     45 H1      29.6540     5.5810   -23.0020 hn 1 MOL 0.331500
     46 H2      30.9080     7.6480   -23.4050 h1 1 MOL 0.076200
     47 H3      30.5120     8.5720   -21.9600 h1 1 MOL 0.076200
     48 H4      27.3400     3.9590   -24.5640 ha 1 MOL 0.175000
     49 H5      31.8830     7.8670   -23.8440 ha 1 MOL 0.161500
     50 H6      33.5240     7.9090   -23.8100 ha 1 MOL 0.161500
     51 H7      26.5430     2.4110   -20.4260 h1 1 MOL 0.089200
     52 H8      27.6140     1.7510   -21.6800 h1 1 MOL 0.089200
     53 H9      31.9930     7.6440   -24.7700 ha 1 MOL 0.135000
     54 H10     33.6180     7.7270   -24.7510 ha 1 MOL 0.135000
     55 H11     25.7290     0.5230   -24.1760 hc 1 MOL 0.089200
     56 H12     25.0670     1.2850   -22.7090 hc 1 MOL 0.089200
     57 H13     25.3400     4.7680   -26.9820 h4 1 MOL 0.184000
     58 H14     26.1750     0.2490   -23.4870 h1 1 MOL 0.068700
     59 H15     25.9530    -0.3070   -21.8330 h1 1 MOL 0.068700
     60 H16     25.9290     2.1300   -26.9580 h4 1 MOL 0.052100
     61 H17     24.6730     3.3220   -27.7790 ha 1 MOL 0.175000
     62 H18     34.6130     7.4470   -28.2300 h1 1 MOL 0.080200
     63 H19     34.8570     9.1700   -28.1170 h1 1 MOL 0.080200
     64 H20     36.7300     8.6460   -24.8720 h1 1 MOL 0.080200
     65 H21     36.1920     7.8170   -26.3130 h1 1 MOL 0.080200
     66 H22     35.1010     7.8760   -29.2980 hx 1 MOL 0.108950
     67 H23     35.7010     8.6570   -27.8230 hx 1 MOL 0.108950
     68 H24     37.2110     9.0570   -25.9650 hx 1 MOL 0.108950
     69 H25     36.9720     7.3060   -26.1290 hx 1 MOL 0.108950
     70 H26     22.8260    -1.9480   -21.3490 hc 1 MOL 0.061700
     71 H27     22.1010    -2.5790   -19.8890 hc 1 MOL 0.061700
     72 H28     22.0510    -0.8640   -20.2180 hc 1 MOL 0.061700
     73 H29     36.9980     7.5680   -28.6440 hn 1 MOL 0.444800
     74 H30     20.5850     2.2610   -20.0760 ha 1 MOL 0.155000
     75 H31     21.0340     0.7340   -17.8300 ha 1 MOL 0.144000
     76 H32     38.1240     8.6990   -28.2380 hx 1 MOL 0.105033
     77 H33     37.7790     6.9870   -28.2640 hx 1 MOL 0.105033
     78 H34     37.4530     7.9650   -29.6750 hx 1 MOL 0.105033
     79 H35     19.1930     2.5440   -18.2290 ha 1 MOL 0.141000
     80 H36     19.4340     1.8450   -17.1460 ha 1 MOL 0.141000
@<TRIPOS>BOND
     1     1     2 2   
     2     2     3 1   
     3     2     4 1   
     4     3     5 1   
     5     3    45 1   
     6     4     6 ar  
     7     4     7 ar  
     8     5     8 1   
     9     5    46 1   
    10     5    47 1   
    11     6     9 ar  
    12     7    10 ar  
    13     7    48 1   
    14     8    11 ar  
    15     8    12 ar  
    16     9    13 ar  
    17     9    14 1   
    18    10    15 1   
    19    10    13 ar  
    20    11    16 ar  
    21    11    49 1   
    22    12    17 ar  
    23    12    50 1   
    24    13    18 1   
    25    14    19 1   
    26    14    51 1   
    27    14    52 1   
    28    15    20 1   
    29    15    21 1   
    30    16    22 ar  
    31    16    53 1   
    32    17    22 ar  
    33    17    54 1   
    34    18    23 1   
    35    18    55 1   
    36    18    56 1   
    37    19    24 1   
    38    19    23 1   
    39    20    25 2   
    40    21    26 2   
    41    21    57 1   
    42    22    27 1   
    43    23    58 1   
    44    23    59 1   
    45    24    28 2   
    46    24    29 1   
    47    25    26 1   
    48    25    60 1   
    49    26    61 1   
    50    27    30 1   
    51    27    31 1   
    52    29    32 1   
    53    29    33 2   
    54    30    34 1   
    55    30    62 1   
    56    30    63 1   
    57    31    35 1   
    58    31    64 1   
    59    31    65 1   
    60    32    36 1   
    61    33    37 1   
    62    33    38 1   
    63    34    39 1   
    64    34    66 1   
    65    34    67 1   
    66    35    39 1   
    67    35    68 1   
    68    35    69 1   
    69    36    40 ar  
    70    36    37 ar  
    71    37    41 ar  
    72    38    70 1   
    73    38    71 1   
    74    38    72 1   
    75    39    42 1   
    76    39    73 1   
    77    40    43 ar  
    78    40    74 1   
    79    41    44 ar  
    80    41    75 1   
    81    42    76 1   
    82    42    77 1   
    83    42    78 1   
    84    43    44 ar  
    85    43    79 1   
    86    44    80 1   
@<TRIPOS>SUBSTRUCTURE
     1 MOL         1 TEMP              0 ****  ****    0 ROOT
