@<TRIPOS>MOLECULE
MOL
   69    74     1     0     0
SMALL
bcc


@<TRIPOS>ATOM
      1 O1      31.1070     5.1430   -21.7600 o 1 MOL -0.613100
      2 C1      30.1730     5.5500   -22.3540 c 1 MOL 0.573600
      3 N1      30.0290     6.9120   -22.7290 ns 1 MOL -0.547900
      4 C2      29.0150     4.5980   -22.7640 ca 1 MOL 0.353800
      5 C3      31.0390     7.9090   -22.3510 c3 1 MOL 0.131300
      6 N2      28.7060     3.4720   -22.0110 nb 1 MOL -0.658000
      7 C4      28.2810     5.0180   -23.8580 ca 1 MOL -0.186300
      8 C5      32.1000     8.1380   -23.4200 ca 1 MOL -0.104300
      9 C6      27.5330     2.7590   -22.3260 ca 1 MOL 0.390600
     10 C7      27.1830     4.2260   -24.2310 ca 1 MOL -0.099000
     11 C8      31.8830     7.7220   -24.7350 ca 1 MOL -0.094000
     12 C9      33.3340     8.7300   -23.1140 ca 1 MOL -0.094000
     13 C10     26.8030     3.0750   -23.4760 ca 1 MOL -0.161600
     14 C11     26.9800     1.5630   -21.3780 c6 1 MOL 0.020700
     15 C12     32.8690     7.8780   -25.7160 ca 1 MOL -0.145000
     16 C13     34.3570     8.7840   -24.0710 ca 1 MOL -0.145000
     17 C14     25.5680     2.2720   -23.8510 c6 1 MOL -0.068100
     18 N3      25.3770     1.1190   -21.5190 n 1 MOL -0.446800
     19 C15     34.1300     8.3970   -25.4070 ca 1 MOL 0.080600
     20 C16     25.2960     0.9190   -23.0510 c6 1 MOL 0.078000
     21 C17     24.3430     0.8910   -20.1450 c 1 MOL 0.704300
     22 N4      35.0830     8.5760   -26.3860 nh 1 MOL -0.639000
     23 O2      24.9820     1.1930   -19.1160 o 1 MOL -0.595100
     24 C18     22.7480     0.0550   -19.7790 cc 1 MOL -0.342800
     25 C19     34.7270     8.4880   -27.7980 c6 1 MOL 0.160300
     26 C20     36.4250     9.1060   -26.0990 c6 1 MOL 0.160300
     27 C21     21.3390    -0.4550   -18.8380 cd 1 MOL -0.118600
     28 C22     23.0710    -1.2590   -19.9820 cc 1 MOL 0.408500
     29 C23     35.8150     7.7010   -28.5600 c6 1 MOL 0.104300
     30 C24     37.4710     8.3260   -26.9280 c6 1 MOL 0.104300
     31 N5      21.0580    -1.5440   -19.6860 na 1 MOL 0.213000
     32 C25     19.9920    -0.6750   -17.6180 cd 1 MOL 0.438200
     33 N6      22.0420    -1.7930   -20.5830 nd 1 MOL -0.551100
     34 N7      37.1500     8.3250   -28.3770 nx 1 MOL -0.683400
     35 C26     20.0680    -2.4810   -19.4680 cd 1 MOL -0.150600
     36 N8      19.1950    -1.9460   -17.3690 nc 1 MOL -0.627000
     37 C27     38.1650     7.6200   -29.1460 c3 1 MOL 0.084100
     38 C28     19.6550    -2.9100   -18.2640 cc 1 MOL 0.340200
     39 H1      31.0030     6.8070   -22.6240 hn 1 MOL 0.331500
     40 H2      31.1990     7.8410   -21.2960 h1 1 MOL 0.075200
     41 H3      30.0030     7.8410   -22.6100 h1 1 MOL 0.075200
     42 H4      27.2580     5.1070   -23.9550 ha 1 MOL 0.169000
     43 H5      26.6700     3.5390   -24.8050 ha 1 MOL 0.150000
     44 H6      31.0600     7.2860   -25.1800 ha 1 MOL 0.162500
     45 H7      33.7570     8.3250   -22.2640 ha 1 MOL 0.162500
     46 H8      27.1330     1.8480   -20.3580 h1 1 MOL 0.088200
     47 H9      27.5280     2.1230   -22.1070 h1 1 MOL 0.088200
     48 H10     32.3600     8.3510   -26.4780 ha 1 MOL 0.134500
     49 H11     35.2420     9.1610   -23.6970 ha 1 MOL 0.134500
     50 H12     25.3260     2.2170   -24.8920 hc 1 MOL 0.069200
     51 H13     25.2350     1.4450   -23.2590 hc 1 MOL 0.069200
     52 H14     25.7050     1.6550   -23.7110 h1 1 MOL 0.064700
     53 H15     25.6290    -0.0640   -23.3110 h1 1 MOL 0.064700
     54 H16     35.7720     8.4390   -28.0210 h1 1 MOL 0.079950
     55 H17     34.5630     8.2040   -26.7800 h1 1 MOL 0.079950
     56 H18     35.7520     8.4650   -26.6290 h1 1 MOL 0.079950
     57 H19     37.4120     8.9920   -26.4980 h1 1 MOL 0.079950
     58 H20     23.4080    -0.3970   -20.4390 h4 1 MOL 0.064800
     59 H21     36.3910     8.3660   -27.9530 hx 1 MOL 0.108700
     60 H22     34.7800     7.7450   -28.2890 hx 1 MOL 0.108700
     61 H23     36.4460     8.4040   -26.6300 hx 1 MOL 0.108700
     62 H24     37.5990     8.6020   -27.9540 hx 1 MOL 0.108700
     63 H25     19.8990    -0.6140   -16.5920 h4 1 MOL 0.066100
     64 H26     38.1270     8.2700   -28.6630 hn 1 MOL 0.444800
     65 H27     19.8380    -3.2450   -20.1230 h4 1 MOL 0.193000
     66 H28     37.1400     7.7280   -28.8570 hx 1 MOL 0.105033
     67 H29     38.2750     7.8870   -30.1760 hx 1 MOL 0.105033
     68 H30     38.7750     8.2620   -28.5440 hx 1 MOL 0.105033
     69 H31     20.5030    -2.9030   -18.8520 h4 1 MOL 0.050100
@<TRIPOS>BOND
     1     1     2 2   
     2     2     3 1   
     3     2     4 1   
     4     3     5 1   
     5     3    39 1   
     6     4     6 ar  
     7     4     7 ar  
     8     5     8 1   
     9     5    40 1   
    10     5    41 1   
    11     6     9 ar  
    12     7    10 ar  
    13     7    42 1   
    14     8    11 ar  
    15     8    12 ar  
    16     9    13 ar  
    17     9    14 1   
    18    10    13 ar  
    19    10    43 1   
    20    11    15 ar  
    21    11    44 1   
    22    12    16 ar  
    23    12    45 1   
    24    13    17 1   
    25    14    18 1   
    26    14    46 1   
    27    14    47 1   
    28    15    19 ar  
    29    15    48 1   
    30    16    19 ar  
    31    16    49 1   
    32    17    20 1   
    33    17    50 1   
    34    17    51 1   
    35    18    21 1   
    36    18    20 1   
    37    19    22 1   
    38    20    52 1   
    39    20    53 1   
    40    21    23 2   
    41    21    24 1   
    42    22    25 1   
    43    22    26 1   
    44    24    27 2   
    45    24    28 1   
    46    25    29 1   
    47    25    54 1   
    48    25    55 1   
    49    26    30 1   
    50    26    56 1   
    51    26    57 1   
    52    27    31 1   
    53    27    32 1   
    54    28    33 2   
    55    28    58 1   
    56    29    34 1   
    57    29    59 1   
    58    29    60 1   
    59    30    34 1   
    60    30    61 1   
    61    30    62 1   
    62    31    35 1   
    63    31    33 1   
    64    32    36 2   
    65    32    63 1   
    66    34    37 1   
    67    34    64 1   
    68    35    38 2   
    69    35    65 1   
    70    36    38 1   
    71    37    66 1   
    72    37    67 1   
    73    37    68 1   
    74    38    69 1   
@<TRIPOS>SUBSTRUCTURE
     1 MOL         1 TEMP              0 ****  ****    0 ROOT
