@<TRIPOS>MOLECULE
LIG
   61    65     1     0     0
SMALL
bcc


@<TRIPOS>ATOM
      1 C1          87.5480   152.5570    11.9120 ca         1 LIG       0.521600
      2 N1          86.8780   153.6910    12.2680 nb         1 LIG      -0.749000
      3 C2          87.0780   151.3400    12.4150 ca         1 LIG      -0.346400
      4 C3          85.8080   153.6490    13.0880 ca         1 LIG       0.862900
      5 C4          85.9760   151.4090    13.2480 ca         1 LIG       0.476800
      6 C5          87.4300   149.9660    12.3030 cc         1 LIG      -0.157200
      7 N2          85.3170   152.5170    13.6150 nb         1 LIG      -0.747000
      8 N3          85.6650   150.1320    13.6410 na         1 LIG      -0.170100
      9 C6          86.5410   149.2430    13.0720 cd         1 LIG      -0.114100
     10 C7          84.5740   149.7920    14.5220 c3         1 LIG       0.026600
     11 N4          85.2030   154.8510    13.4370 nh         1 LIG      -0.717300
     12 C8          84.0140   155.2460    12.6800 c3         1 LIG       0.136800
     13 C9          85.3040   155.2500    14.8340 c3         1 LIG       0.185800
     14 C10         84.1680   156.6300    12.0390 c          1 LIG       0.682500
     15 C11         84.8600   156.6960    15.0520 c3         1 LIG      -0.128400
     16 O1          83.7600   156.8660    10.8980 o          1 LIG      -0.654500
     17 N5          84.6550   157.6820    12.7700 ns         1 LIG      -0.575900
     18 C12         85.4340   157.6250    13.9920 c3         1 LIG       0.104000
     19 C13         91.4130   150.2660     8.5990 c          1 LIG       0.701700
     20 O2          92.6000   150.5910     8.6280 o          1 LIG      -0.598100
     21 N6          90.4820   150.8460     9.4660 n          1 LIG      -0.457800
     22 C14         89.0250   150.7960     9.2920 c6         1 LIG       0.095000
     23 C15         91.0000   151.7260    10.5070 c6         1 LIG       0.095000
     24 C16         88.3970   152.1630     9.5510 c6         1 LIG      -0.094400
     25 C17         89.9600   152.0300    11.5750 c6         1 LIG      -0.094400
     26 C18         88.7170   152.6940    10.9620 c6         1 LIG      -0.117000
     27 S1          90.2360   147.0000     6.6520 ss         1 LIG       0.074200
     28 C19         90.1330   148.3660     5.6290 cc         1 LIG      -0.273100
     29 C20         90.7910   147.9550     7.9520 cc         1 LIG      -0.120100
     30 C21         90.5280   149.5280     6.2620 cd         1 LIG       0.118100
     31 C22         90.9490   149.2890     7.6150 cd         1 LIG      -0.169600
     32 O3          90.5080   150.7770     5.7250 os         1 LIG      -0.304900
     33 C23         89.2200   151.3560     5.5540 c3         1 LIG       0.113700
     34 H1          88.2610   149.5550    11.7120 ha         1 LIG       0.160000
     35 H2          86.5360   148.1510    13.2040 h4         1 LIG       0.171000
     36 H3          84.9000   149.8940    15.5670 h1         1 LIG       0.059367
     37 H4          83.7270   150.4690    14.3350 h1         1 LIG       0.059367
     38 H5          84.2610   148.7540    14.3350 h1         1 LIG       0.059367
     39 H6          83.8380   154.5050    11.8860 h1         1 LIG       0.091200
     40 H7          83.1670   155.2900    13.3810 h1         1 LIG       0.091200
     41 H8          84.6660   154.5890    15.4390 h1         1 LIG       0.072700
     42 H9          86.3590   155.1710    15.1340 h1         1 LIG       0.072700
     43 H10         83.7620   156.7430    15.0090 hc         1 LIG       0.057200
     44 H11         85.2290   157.0250    16.0340 hc         1 LIG       0.057200
     45 H12         84.4430   158.6230    12.4100 hn         1 LIG       0.317500
     46 H13         85.4900   158.6390    14.4150 h1         1 LIG       0.042700
     47 H14         86.4220   157.2230    13.7200 h1         1 LIG       0.042700
     48 H15         88.7960   150.4840     8.2620 h1         1 LIG       0.053700
     49 H16         88.6100   150.0760    10.0130 h1         1 LIG       0.053700
     50 H17         91.8650   151.2420    10.9820 h1         1 LIG       0.053700
     51 H18         91.2820   152.6780    10.0330 h1         1 LIG       0.053700
     52 H19         88.7840   152.8770     8.8090 hc         1 LIG       0.059200
     53 H20         87.3060   152.0540     9.4710 hc         1 LIG       0.059200
     54 H21         89.6620   151.0900    12.0640 hc         1 LIG       0.059200
     55 H22         90.4020   152.7210    12.3070 hc         1 LIG       0.059200
     56 H23         88.9290   153.7640    10.8250 hc         1 LIG       0.080700
     57 H24         89.7920   148.3250     4.5840 h4         1 LIG       0.178000
     58 H25         91.0010   147.5530     8.9540 h4         1 LIG       0.187000
     59 H26         88.7750   151.5560     6.5400 h1         1 LIG       0.047700
     60 H27         89.3130   152.2990     4.9950 h1         1 LIG       0.047700
     61 H28         88.5770   150.6600     4.9950 h1         1 LIG       0.047700
@<TRIPOS>BOND
     1    27    28 1   
     2    27    29 1   
     3    28    30 2   
     4    29    31 2   
     5    30    32 1   
     6    31    19 1   
     7    32    33 1   
     8    19    20 2   
     9    19    21 1   
    10    21    22 1   
    11    21    23 1   
    12    22    24 1   
    13    23    25 1   
    14    24    26 1   
    15    26     1 1   
    16     1     2 ar  
    17     1     3 ar  
    18     2     4 ar  
    19     3     5 ar  
    20     3     6 1   
    21     4     7 ar  
    22     4    11 1   
    23     5     8 1   
    24     6     9 2   
    25    11    12 1   
    26    11    13 1   
    27     8    10 1   
    28    12    14 1   
    29    13    15 1   
    30    14    16 2   
    31    14    17 1   
    32    15    18 1   
    33    30    31 1   
    34    25    26 1   
    35     5     7 ar  
    36     8     9 1   
    37    17    18 1   
    38     6    34 1   
    39     9    35 1   
    40    10    36 1   
    41    10    37 1   
    42    10    38 1   
    43    12    39 1   
    44    12    40 1   
    45    13    41 1   
    46    13    42 1   
    47    15    43 1   
    48    15    44 1   
    49    17    45 1   
    50    18    46 1   
    51    18    47 1   
    52    22    48 1   
    53    22    49 1   
    54    23    50 1   
    55    23    51 1   
    56    24    52 1   
    57    24    53 1   
    58    25    54 1   
    59    25    55 1   
    60    26    56 1   
    61    28    57 1   
    62    29    58 1   
    63    33    59 1   
    64    33    60 1   
    65    33    61 1   
@<TRIPOS>SUBSTRUCTURE
     1 LIG         1 TEMP              0 ****  ****    0 ROOT
