EDS01806218_ent2
     RDKit          3D

 61 66  0  0  0  0  0  0  0  0999 V2000
   84.1369  154.3386   14.4659 N   0  0  0  0  0  0  0  0  0  0  0  0
   82.8772  153.5135   14.2592 C   0  0  0  0  0  0  0  0  0  0  0  0
   85.2171  153.6392   15.2333 C   0  0  0  0  0  0  0  0  0  0  0  0
   83.1039  151.9803   14.3541 C   0  0  1  0  0  0  0  0  0  0  0  0
   85.4832  152.1728   14.7697 C   0  0  2  0  0  0  0  0  0  0  0  0
   84.4441  151.6914   13.8525 N   0  0  0  0  0  0  0  0  0  0  0  0
   82.9464  151.4572   15.7698 C   0  0  0  0  0  0  0  0  0  0  0  0
   85.4569  151.2339   15.9844 C   0  0  0  0  0  0  0  0  0  0  0  0
   84.6125  151.2618   12.5519 C   0  0  0  0  0  0  0  0  0  0  0  0
   81.7096  151.3297   16.3866 C   0  0  0  0  0  0  0  0  0  0  0  0
   84.0547  151.1324   16.5470 C   0  0  0  0  0  0  0  0  0  0  0  0
   83.6548  151.0181   11.8174 O   0  0  0  0  0  0  0  0  0  0  0  0
   86.0248  151.0611   12.0688 C   0  0  0  0  0  0  0  0  0  0  0  0
   81.6075  150.9496   17.6700 N   0  0  0  0  0  0  0  0  0  0  0  0
   83.9577  150.7239   17.8247 N   0  0  0  0  0  0  0  0  0  0  0  0
   82.7259  150.6507   18.3583 C   0  0  0  0  0  0  0  0  0  0  0  0
   84.7013  155.2216   13.1199 S   0  0  0  0  0  6  0  0  0  0  0  0
   83.6699  155.1877   12.1076 O   0  0  0  0  0  0  0  0  0  0  0  0
   86.0425  154.7649   12.8226 O   0  0  0  0  0  0  0  0  0  0  0  0
   84.8409  156.8569   13.7430 C   0  0  0  0  0  0  0  0  0  0  0  0
   85.2512  157.8814   12.9111 C   0  0  0  0  0  0  0  0  0  0  0  0
   84.5549  157.1333   15.0789 C   0  0  0  0  0  0  0  0  0  0  0  0
   85.3730  159.1643   13.3305 N   0  0  0  0  0  0  0  0  0  0  0  0
   84.6801  158.4428   15.5319 C   0  0  0  0  0  0  0  0  0  0  0  0
   85.0873  159.4144   14.6292 C   0  0  0  0  0  0  0  0  0  0  0  0
   82.5891  150.2038   19.7924 C   0  0  0  0  0  0  0  0  0  0  0  0
   81.5912  149.1284   20.1609 C   0  0  0  0  0  0  0  0  0  0  0  0
   83.0593  148.8281   20.2103 C   0  0  0  0  0  0  0  0  0  0  0  0
   80.5460  151.6492   15.6647 N   0  0  0  0  0  0  0  0  0  0  0  0
   79.8946  150.5517   14.9523 C   0  0  0  0  0  0  0  0  0  0  0  0
   78.4040  150.7262   14.9730 C   0  0  0  0  0  0  0  0  0  0  0  0
   77.5328  149.8440   15.8337 C   0  0  0  0  0  0  0  0  0  0  0  0
   77.5016  149.6986   14.3371 C   0  0  0  0  0  0  0  0  0  0  0  0
   82.1443  153.8030   15.0267 H   0  0  0  0  0  0  0  0  0  0  0  0
   82.5251  153.7206   13.2378 H   0  0  0  0  0  0  0  0  0  0  0  0
   86.1489  154.2122   15.1177 H   0  0  0  0  0  0  0  0  0  0  0  0
   84.8780  153.5841   16.2783 H   0  0  0  0  0  0  0  0  0  0  0  0
   82.3390  151.4712   13.7494 H   0  0  0  0  0  0  0  0  0  0  0  0
   86.4604  152.1729   14.2647 H   0  0  0  0  0  0  0  0  0  0  0  0
   85.7964  150.2340   15.6763 H   0  0  0  0  0  0  0  0  0  0  0  0
   86.1229  151.6384   16.7608 H   0  0  0  0  0  0  0  0  0  0  0  0
   86.6980  150.9654   12.9335 H   0  0  0  0  0  0  0  0  0  0  0  0
   86.0776  150.1464   11.4600 H   0  0  0  0  0  0  0  0  0  0  0  0
   86.3303  151.9249   11.4600 H   0  0  0  0  0  0  0  0  0  0  0  0
   85.4892  157.6453   11.8634 H   0  0  0  0  0  0  0  0  0  0  0  0
   84.2364  156.3318   15.7616 H   0  0  0  0  0  0  0  0  0  0  0  0
   84.4619  158.7011   16.5786 H   0  0  0  0  0  0  0  0  0  0  0  0
   85.1836  160.4489   14.9905 H   0  0  0  0  0  0  0  0  0  0  0  0
   82.7896  151.2323   20.1271 H   0  0  0  0  0  0  0  0  0  0  0  0
   81.0156  149.2100   21.0947 H   0  0  0  0  0  0  0  0  0  0  0  0
   80.7222  148.6728   19.6637 H   0  0  0  0  0  0  0  0  0  0  0  0
   83.5068  148.1515   19.4674 H   0  0  0  0  0  0  0  0  0  0  0  0
   83.7473  148.4428   20.9773 H   0  0  0  0  0  0  0  0  0  0  0  0
   80.1715  152.6084   15.6392 H   0  0  0  0  0  0  0  0  0  0  0  0
   80.2436  150.5390   13.9092 H   0  0  0  0  0  0  0  0  0  0  0  0
   80.1498  149.6034   15.4479 H   0  0  0  0  0  0  0  0  0  0  0  0
   78.5473  151.8117   14.8671 H   0  0  0  0  0  0  0  0  0  0  0  0
   77.9886  149.0575   16.4531 H   0  0  0  0  0  0  0  0  0  0  0  0
   76.7774  150.0207   16.6135 H   0  0  0  0  0  0  0  0  0  0  0  0
   76.6145  150.0207   13.7720 H   0  0  0  0  0  0  0  0  0  0  0  0
   77.6474  148.8651   13.6342 H   0  0  0  0  0  0  0  0  0  0  0  0
 17 18  2  0
 17 19  2  0
 17  1  1  0
 17 20  1  0
  1  2  1  0
  1  3  1  0
 20 21  2  0
 20 22  1  0
  4  2  1  0
  5  3  1  0
 21 23  1  0
 22 24  2  0
  4  6  1  0
  4  7  1  0
  5  8  1  0
 23 25  2  0
  6  9  1  0
  7 10  1  0
  7 11  2  0
  9 12  2  0
  9 13  1  0
 10 14  2  0
 10 29  1  0
 11 15  1  0
 14 16  1  0
 29 30  1  0
 16 26  1  0
 30 31  1  0
 26 27  1  0
 26 28  1  0
 31 32  1  0
 31 33  1  0
  5  6  1  0
 24 25  1  0
  8 11  1  0
 15 16  2  0
 27 28  1  0
 32 33  1  0
  2 34  1  0
  2 35  1  0
  3 36  1  0
  3 37  1  0
  4 38  1  6
  5 39  1  6
  8 40  1  0
  8 41  1  0
 13 42  1  0
 13 43  1  0
 13 44  1  0
 21 45  1  0
 22 46  1  0
 24 47  1  0
 25 48  1  0
 26 49  1  0
 27 50  1  0
 27 51  1  0
 28 52  1  0
 28 53  1  0
 29 54  1  0
 30 55  1  0
 30 56  1  0
 31 57  1  0
 32 58  1  0
 32 59  1  0
 33 60  1  0
 33 61  1  0
M  END
$$$$
