EDS01889984
     RDKit          3D

 61 65  0  0  0  0  0  0  0  0999 V2000
   87.5480  152.5568   11.9120 C   0  0  0  0  0  0  0  0  0  0  0  0
   86.8783  153.6915   12.2675 N   0  0  0  0  0  0  0  0  0  0  0  0
   87.0783  151.3398   12.4148 C   0  0  0  0  0  0  0  0  0  0  0  0
   85.8079  153.6492   13.0883 C   0  0  0  0  0  0  0  0  0  0  0  0
   85.9758  151.4087   13.2481 C   0  0  0  0  0  0  0  0  0  0  0  0
   87.4301  149.9663   12.3035 C   0  0  0  0  0  0  0  0  0  0  0  0
   85.3173  152.5165   13.6146 N   0  0  0  0  0  0  0  0  0  0  0  0
   85.6655  150.1318   13.6408 N   0  0  0  0  0  0  0  0  0  0  0  0
   86.5411  149.2431   13.0718 C   0  0  0  0  0  0  0  0  0  0  0  0
   84.5736  149.7920   14.5216 C   0  0  0  0  0  0  0  0  0  0  0  0
   85.2033  154.8508   13.4374 N   0  0  0  0  0  0  0  0  0  0  0  0
   84.0141  155.2456   12.6800 C   0  0  0  0  0  0  0  0  0  0  0  0
   85.3036  155.2503   14.8340 C   0  0  0  0  0  0  0  0  0  0  0  0
   84.1675  156.6304   12.0393 C   0  0  0  0  0  0  0  0  0  0  0  0
   84.8598  156.6963   15.0515 C   0  0  0  0  0  0  0  0  0  0  0  0
   83.7604  156.8662   10.8979 O   0  0  0  0  0  0  0  0  0  0  0  0
   84.6550  157.6817   12.7702 N   0  0  0  0  0  0  0  0  0  0  0  0
   85.4345  157.6245   13.9922 C   0  0  0  0  0  0  0  0  0  0  0  0
   91.4127  150.2655    8.5993 C   0  0  0  0  0  0  0  0  0  0  0  0
   92.6004  150.5911    8.6277 O   0  0  0  0  0  0  0  0  0  0  0  0
   90.4824  150.8463    9.4655 N   0  0  0  0  0  0  0  0  0  0  0  0
   89.0254  150.7957    9.2916 C   0  0  0  0  0  0  0  0  0  0  0  0
   90.9996  151.7264   10.5065 C   0  0  0  0  0  0  0  0  0  0  0  0
   88.3975  152.1634    9.5510 C   0  0  0  0  0  0  0  0  0  0  0  0
   89.9605  152.0295   11.5753 C   0  0  0  0  0  0  0  0  0  0  0  0
   88.7172  152.6936   10.9624 C   0  0  0  0  0  0  0  0  0  0  0  0
   90.2363  146.9999    6.6521 S   0  0  0  0  0  0  0  0  0  0  0  0
   90.1334  148.3664    5.6290 C   0  0  0  0  0  0  0  0  0  0  0  0
   90.7909  147.9552    7.9523 C   0  0  0  0  0  0  0  0  0  0  0  0
   90.5276  149.5278    6.2623 C   0  0  0  0  0  0  0  0  0  0  0  0
   90.9486  149.2893    7.6152 C   0  0  0  0  0  0  0  0  0  0  0  0
   90.5081  150.7771    5.7252 O   0  0  0  0  0  0  0  0  0  0  0  0
   89.2203  151.3559    5.5543 C   0  0  0  0  0  0  0  0  0  0  0  0
   88.2610  149.5548   11.7117 H   0  0  0  0  0  0  0  0  0  0  0  0
   86.5357  148.1511   13.2040 H   0  0  0  0  0  0  0  0  0  0  0  0
   84.9005  149.8937   15.5670 H   0  0  0  0  0  0  0  0  0  0  0  0
   83.7272  150.4692   14.3345 H   0  0  0  0  0  0  0  0  0  0  0  0
   84.2610  148.7541   14.3345 H   0  0  0  0  0  0  0  0  0  0  0  0
   83.8384  154.5054   11.8855 H   0  0  0  0  0  0  0  0  0  0  0  0
   83.1673  155.2901   13.3807 H   0  0  0  0  0  0  0  0  0  0  0  0
   84.6660  154.5888   15.4388 H   0  0  0  0  0  0  0  0  0  0  0  0
   86.3589  155.1711   15.1341 H   0  0  0  0  0  0  0  0  0  0  0  0
   83.7616  156.7428   15.0089 H   0  0  0  0  0  0  0  0  0  0  0  0
   85.2294  157.0253   16.0339 H   0  0  0  0  0  0  0  0  0  0  0  0
   84.4432  158.6230   12.4097 H   0  0  0  0  0  0  0  0  0  0  0  0
   85.4899  158.6387   14.4146 H   0  0  0  0  0  0  0  0  0  0  0  0
   86.4221  157.2234   13.7205 H   0  0  0  0  0  0  0  0  0  0  0  0
   88.7963  150.4837    8.2620 H   0  0  0  0  0  0  0  0  0  0  0  0
   88.6103  150.0761   10.0126 H   0  0  0  0  0  0  0  0  0  0  0  0
   91.8650  151.2415   10.9819 H   0  0  0  0  0  0  0  0  0  0  0  0
   91.2824  152.6780   10.0327 H   0  0  0  0  0  0  0  0  0  0  0  0
   88.7842  152.8771    8.8087 H   0  0  0  0  0  0  0  0  0  0  0  0
   87.3059  152.0540    9.4711 H   0  0  0  0  0  0  0  0  0  0  0  0
   89.6625  151.0901   12.0639 H   0  0  0  0  0  0  0  0  0  0  0  0
   90.4024  152.7215   12.3074 H   0  0  0  0  0  0  0  0  0  0  0  0
   88.9292  153.7643   10.8254 H   0  0  0  0  0  0  0  0  0  0  0  0
   89.7917  148.3245    4.5843 H   0  0  0  0  0  0  0  0  0  0  0  0
   91.0014  147.5533    8.9544 H   0  0  0  0  0  0  0  0  0  0  0  0
   88.7746  151.5562    6.5398 H   0  0  0  0  0  0  0  0  0  0  0  0
   89.3133  152.2988    4.9955 H   0  0  0  0  0  0  0  0  0  0  0  0
   88.5769  150.6604    4.9955 H   0  0  0  0  0  0  0  0  0  0  0  0
 27 28  1  0
 27 29  1  0
 28 30  2  0
 29 31  2  0
 30 32  1  0
 31 19  1  0
 32 33  1  0
 19 20  2  0
 19 21  1  0
 21 22  1  0
 21 23  1  0
 22 24  1  0
 23 25  1  0
 24 26  1  0
 26  1  1  0
  1  2  2  0
  1  3  1  0
  2  4  1  0
  3  5  2  0
  3  6  1  0
  4  7  2  0
  4 11  1  0
  5  8  1  0
  6  9  2  0
 11 12  1  0
 11 13  1  0
  8 10  1  0
 12 14  1  0
 13 15  1  0
 14 16  2  0
 14 17  1  0
 15 18  1  0
 30 31  1  0
 25 26  1  0
  5  7  1  0
  8  9  1  0
 17 18  1  0
  6 34  1  0
  9 35  1  0
 10 36  1  0
 10 37  1  0
 10 38  1  0
 12 39  1  0
 12 40  1  0
 13 41  1  0
 13 42  1  0
 15 43  1  0
 15 44  1  0
 17 45  1  0
 18 46  1  0
 18 47  1  0
 22 48  1  0
 22 49  1  0
 23 50  1  0
 23 51  1  0
 24 52  1  0
 24 53  1  0
 25 54  1  0
 25 55  1  0
 26 56  1  0
 28 57  1  0
 29 58  1  0
 33 59  1  0
 33 60  1  0
 33 61  1  0
M  END
$$$$
