EDS01806218_ent1
     RDKit          3D

 61 66  0  0  0  0  0  0  0  0999 V2000
   83.8000  151.9293   15.3975 N   0  0  0  0  0  0  0  0  0  0  0  0
   83.7839  150.5332   14.8512 C   0  0  0  0  0  0  0  0  0  0  0  0
   82.5728  152.7048   15.0595 C   0  0  0  0  0  0  0  0  0  0  0  0
   82.4776  149.8009   15.2639 C   0  0  2  0  0  0  0  0  0  0  0  0
   81.2819  151.9214   15.4058 C   0  0  1  0  0  0  0  0  0  0  0  0
   81.3115  150.5795   14.8044 N   0  0  0  0  0  0  0  0  0  0  0  0
   82.4283  149.6613   16.7684 C   0  0  0  0  0  0  0  0  0  0  0  0
   81.0498  151.7785   16.9222 C   0  0  0  0  0  0  0  0  0  0  0  0
   80.1312  150.0339   14.3294 C   0  0  0  0  0  0  0  0  0  0  0  0
   83.1089  148.6652   17.4489 C   0  0  0  0  0  0  0  0  0  0  0  0
   81.8163  150.6345   17.5484 C   0  0  0  0  0  0  0  0  0  0  0  0
   79.0946  150.6906   14.2388 O   0  0  0  0  0  0  0  0  0  0  0  0
   80.1599  148.5919   13.8940 C   0  0  0  0  0  0  0  0  0  0  0  0
   83.1409  148.6256   18.7886 N   0  0  0  0  0  0  0  0  0  0  0  0
   81.8362  150.5997   18.8942 N   0  0  0  0  0  0  0  0  0  0  0  0
   82.5177  149.5994   19.4810 C   0  0  0  0  0  0  0  0  0  0  0  0
   85.2794  152.7558   15.3585 S   0  0  0  0  0  6  0  0  0  0  0  0
   86.2168  151.9684   14.5878 O   0  0  0  0  0  0  0  0  0  0  0  0
   85.5878  153.1788   16.7079 O   0  0  0  0  0  0  0  0  0  0  0  0
   84.9187  154.2066   14.4263 C   0  0  0  0  0  0  0  0  0  0  0  0
   84.5786  154.0892   13.0909 C   0  0  0  0  0  0  0  0  0  0  0  0
   85.0336  155.4772   14.9879 C   0  0  0  0  0  0  0  0  0  0  0  0
   84.2880  155.1545   12.3062 N   0  0  0  0  0  0  0  0  0  0  0  0
   84.7558  156.5874   14.1957 C   0  0  0  0  0  0  0  0  0  0  0  0
   84.3861  156.3779   12.8751 C   0  0  0  0  0  0  0  0  0  0  0  0
   82.5746  149.5573   20.9878 C   0  0  0  0  0  0  0  0  0  0  0  0
   81.8156  148.4927   21.7490 C   0  0  0  0  0  0  0  0  0  0  0  0
   83.3125  148.4366   21.6862 C   0  0  0  0  0  0  0  0  0  0  0  0
   83.7509  147.6542   16.7055 N   0  0  0  0  0  0  0  0  0  0  0  0
   85.1981  147.8035   16.5553 C   0  0  0  0  0  0  0  0  0  0  0  0
   85.8784  147.5471   17.8681 C   0  0  0  0  0  0  0  0  0  0  0  0
   87.3744  147.3614   17.9385 C   0  0  0  0  0  0  0  0  0  0  0  0
   86.4612  146.1934   18.1903 C   0  0  0  0  0  0  0  0  0  0  0  0
   83.8447  150.5735   13.7536 H   0  0  0  0  0  0  0  0  0  0  0  0
   84.6440  149.9822   15.2594 H   0  0  0  0  0  0  0  0  0  0  0  0
   82.5800  153.6473   15.6267 H   0  0  0  0  0  0  0  0  0  0  0  0
   82.5766  152.8946   13.9760 H   0  0  0  0  0  0  0  0  0  0  0  0
   82.4577  148.8021   14.8034 H   0  0  0  0  0  0  0  0  0  0  0  0
   80.4517  152.5114   14.9902 H   0  0  0  0  0  0  0  0  0  0  0  0
   81.3605  152.7137   17.4109 H   0  0  0  0  0  0  0  0  0  0  0  0
   79.9801  151.5660   17.0656 H   0  0  0  0  0  0  0  0  0  0  0  0
   80.1728  147.9413   14.7809 H   0  0  0  0  0  0  0  0  0  0  0  0
   79.2659  148.3729   13.2916 H   0  0  0  0  0  0  0  0  0  0  0  0
   81.0619  148.4086   13.2916 H   0  0  0  0  0  0  0  0  0  0  0  0
   84.5424  153.0842   12.6453 H   0  0  0  0  0  0  0  0  0  0  0  0
   85.3382  155.6002   16.0377 H   0  0  0  0  0  0  0  0  0  0  0  0
   84.8276  157.6053   14.6064 H   0  0  0  0  0  0  0  0  0  0  0  0
   84.1596  157.2575   12.2546 H   0  0  0  0  0  0  0  0  0  0  0  0
   82.6146  150.6563   21.0142 H   0  0  0  0  0  0  0  0  0  0  0  0
   81.3147  148.7458   22.6951 H   0  0  0  0  0  0  0  0  0  0  0  0
   81.0018  147.7945   21.5036 H   0  0  0  0  0  0  0  0  0  0  0  0
   83.8083  147.6530   21.0944 H   0  0  0  0  0  0  0  0  0  0  0  0
   84.1191  148.3852   22.4323 H   0  0  0  0  0  0  0  0  0  0  0  0
   83.2350  146.8627   16.2952 H   0  0  0  0  0  0  0  0  0  0  0  0
   85.5633  147.0829   15.8087 H   0  0  0  0  0  0  0  0  0  0  0  0
   85.4235  148.8283   16.2253 H   0  0  0  0  0  0  0  0  0  0  0  0
   85.1510  148.2156   18.3518 H   0  0  0  0  0  0  0  0  0  0  0  0
   87.9770  147.3999   17.0190 H   0  0  0  0  0  0  0  0  0  0  0  0
   88.1921  147.8428   18.4950 H   0  0  0  0  0  0  0  0  0  0  0  0
   86.3639  145.7805   19.2052 H   0  0  0  0  0  0  0  0  0  0  0  0
   86.3581  145.1826   17.7687 H   0  0  0  0  0  0  0  0  0  0  0  0
 17 18  2  0
 17 19  2  0
 17  1  1  0
 17 20  1  0
  1  2  1  0
  1  3  1  0
 20 21  2  0
 20 22  1  0
  4  2  1  0
  5  3  1  0
 21 23  1  0
 22 24  2  0
  4  6  1  0
  4  7  1  0
  5  8  1  0
 23 25  2  0
  6  9  1  0
  7 10  1  0
  7 11  2  0
  9 12  2  0
  9 13  1  0
 10 14  2  0
 10 29  1  0
 11 15  1  0
 14 16  1  0
 29 30  1  0
 16 26  1  0
 30 31  1  0
 26 27  1  0
 26 28  1  0
 31 32  1  0
 31 33  1  0
  5  6  1  0
 24 25  1  0
  8 11  1  0
 15 16  2  0
 27 28  1  0
 32 33  1  0
  2 34  1  0
  2 35  1  0
  3 36  1  0
  3 37  1  0
  4 38  1  6
  5 39  1  6
  8 40  1  0
  8 41  1  0
 13 42  1  0
 13 43  1  0
 13 44  1  0
 21 45  1  0
 22 46  1  0
 24 47  1  0
 25 48  1  0
 26 49  1  0
 27 50  1  0
 27 51  1  0
 28 52  1  0
 28 53  1  0
 29 54  1  0
 30 55  1  0
 30 56  1  0
 31 57  1  0
 32 58  1  0
 32 59  1  0
 33 60  1  0
 33 61  1  0
M  END
$$$$
