EDS01357518_ent2
     RDKit          3D

 61 64  0  0  0  0  0  0  0  0999 V2000
   80.8120  150.7869   15.8610 C   0  0  0  0  0  0  0  0  0  0  0  0
   81.8869  150.4190   15.1042 N   0  0  0  0  0  0  0  0  0  0  0  0
   80.9043  151.3721   17.1137 C   0  0  0  0  0  0  0  0  0  0  0  0
   83.1200  150.6449   15.6226 C   0  0  0  0  0  0  0  0  0  0  0  0
   82.1722  151.6001   17.6291 C   0  0  0  0  0  0  0  0  0  0  0  0
   83.2896  151.2359   16.8799 C   0  0  0  0  0  0  0  0  0  0  0  0
   84.3572  150.2547   14.8129 C   0  0  2  0  0  0  0  0  0  0  0  0
   85.6120  150.3924   15.5252 O   0  0  0  0  0  0  0  0  0  0  0  0
   84.4317  150.9090   13.4124 C   0  0  0  0  0  0  0  0  0  0  0  0
   86.1205  151.7346   15.5529 C   0  0  0  0  0  0  0  0  0  0  0  0
   84.9685  152.2692   13.4587 N   0  0  0  0  0  0  0  0  0  0  0  0
   86.2603  152.3286   14.1477 C   0  0  0  0  0  0  0  0  0  0  0  0
   84.0590  153.3313   13.4773 C   0  0  0  0  0  0  0  0  0  0  0  0
   82.8467  153.1283   13.5066 O   0  0  0  0  0  0  0  0  0  0  0  0
   84.5985  154.6691   13.4084 C   0  0  0  0  0  0  0  0  0  0  0  0
   85.6451  155.0526   12.6060 N   0  0  0  0  0  0  0  0  0  0  0  0
   84.2901  155.7979   14.1483 C   0  0  0  0  0  0  0  0  0  0  0  0
   85.9661  156.3586   12.7261 N   0  0  0  0  0  0  0  0  0  0  0  0
   86.3731  154.2262   11.6685 C   0  0  0  0  0  0  0  0  0  0  0  0
   85.1585  156.8104   13.6894 C   0  0  0  0  0  0  0  0  0  0  0  0
   85.2515  158.2218   14.1601 C   0  0  0  0  0  0  0  0  0  0  0  0
   84.5529  158.4375   15.4936 C   0  0  0  0  0  0  0  0  0  0  0  0
   78.5458  150.0332   16.1816 N   0  0  0  0  0  0  0  0  0  0  0  0
   79.4660  150.4980   15.2692 C   0  0  0  0  0  0  0  0  0  0  0  0
   79.2248  150.6879   14.0831 O   0  0  0  0  0  0  0  0  0  0  0  0
   77.1384  149.9436   15.8941 C   0  0  0  0  0  0  0  0  0  0  0  0
   77.0981  151.1412   18.4168 S   0  0  0  0  0  0  0  0  0  0  0  0
   76.3824  150.2296   17.1481 C   0  0  0  0  0  0  0  0  0  0  0  0
   75.6573  150.9869   19.3347 C   0  0  0  0  0  0  0  0  0  0  0  0
   75.0920  149.8699   17.5039 C   0  0  0  0  0  0  0  0  0  0  0  0
   74.6910  150.3097   18.7553 N   0  0  0  0  0  0  0  0  0  0  0  0
   75.5612  151.5890   20.6917 C   0  0  0  0  0  0  0  0  0  0  0  0
   74.1149  149.0974   16.6911 C   0  0  0  0  0  0  0  0  0  0  0  0
   80.0025  151.6467   17.6806 H   0  0  0  0  0  0  0  0  0  0  0  0
   82.2943  152.0637   18.6191 H   0  0  0  0  0  0  0  0  0  0  0  0
   84.3008  151.4123   17.2752 H   0  0  0  0  0  0  0  0  0  0  0  0
   84.2110  149.1765   14.6511 H   0  0  0  0  0  0  0  0  0  0  0  0
   85.0803  150.2952   12.7701 H   0  0  0  0  0  0  0  0  0  0  0  0
   83.4077  150.9666   13.0149 H   0  0  0  0  0  0  0  0  0  0  0  0
   85.4312  152.3628   16.1363 H   0  0  0  0  0  0  0  0  0  0  0  0
   87.1208  151.7078   16.0097 H   0  0  0  0  0  0  0  0  0  0  0  0
   86.5869  153.3762   14.2238 H   0  0  0  0  0  0  0  0  0  0  0  0
   87.0046  151.7515   13.5793 H   0  0  0  0  0  0  0  0  0  0  0  0
   83.5247  155.8870   14.9333 H   0  0  0  0  0  0  0  0  0  0  0  0
   87.0020  153.5123   12.2205 H   0  0  0  0  0  0  0  0  0  0  0  0
   85.6615  153.6752   11.0360 H   0  0  0  0  0  0  0  0  0  0  0  0
   87.0094  154.8626   11.0360 H   0  0  0  0  0  0  0  0  0  0  0  0
   86.3131  158.4876   14.2708 H   0  0  0  0  0  0  0  0  0  0  0  0
   84.7516  158.8569   13.4140 H   0  0  0  0  0  0  0  0  0  0  0  0
   85.2534  158.2212   16.3137 H   0  0  0  0  0  0  0  0  0  0  0  0
   84.2150  159.4818   15.5658 H   0  0  0  0  0  0  0  0  0  0  0  0
   83.6850  157.7655   15.5658 H   0  0  0  0  0  0  0  0  0  0  0  0
   78.8789  149.7368   17.1101 H   0  0  0  0  0  0  0  0  0  0  0  0
   76.8959  148.9319   15.5367 H   0  0  0  0  0  0  0  0  0  0  0  0
   76.8650  150.6695   15.1141 H   0  0  0  0  0  0  0  0  0  0  0  0
   75.6866  150.8032   21.4512 H   0  0  0  0  0  0  0  0  0  0  0  0
   76.3499  152.3460   20.8136 H   0  0  0  0  0  0  0  0  0  0  0  0
   74.5760  152.0629   20.8136 H   0  0  0  0  0  0  0  0  0  0  0  0
   73.4294  148.5555   17.3593 H   0  0  0  0  0  0  0  0  0  0  0  0
   73.5393  149.7873   16.0565 H   0  0  0  0  0  0  0  0  0  0  0  0
   74.6533  148.3782   16.0565 H   0  0  0  0  0  0  0  0  0  0  0  0
 27 28  1  0
 27 29  1  0
 28 30  2  0
 28 26  1  0
 29 31  2  0
 29 32  1  0
 30 33  1  0
 26 23  1  0
 23 24  1  0
 24 25  2  0
 24  1  1  0
  1  2  2  0
  1  3  1  0
  2  4  1  0
  3  5  2  0
  4  6  2  0
  7  4  1  0
  7  8  1  0
  7  9  1  0
  8 10  1  0
  9 11  1  0
 10 12  1  0
 11 13  1  0
 13 14  2  0
 13 15  1  0
 15 16  1  0
 15 17  2  0
 16 18  1  0
 16 19  1  0
 17 20  1  0
 20 21  1  0
 21 22  1  0
 30 31  1  0
  5  6  1  0
 11 12  1  0
 18 20  2  0
  3 34  1  0
  5 35  1  0
  6 36  1  0
  7 37  1  6
  9 38  1  0
  9 39  1  0
 10 40  1  0
 10 41  1  0
 12 42  1  0
 12 43  1  0
 17 44  1  0
 19 45  1  0
 19 46  1  0
 19 47  1  0
 21 48  1  0
 21 49  1  0
 22 50  1  0
 22 51  1  0
 22 52  1  0
 23 53  1  0
 26 54  1  0
 26 55  1  0
 32 56  1  0
 32 57  1  0
 32 58  1  0
 33 59  1  0
 33 60  1  0
 33 61  1  0
M  END
$$$$
