@<TRIPOS>MOLECULE
LIG
   61    66     1     0     0
SMALL
bcc


@<TRIPOS>ATOM
      1 N1          84.1370   154.3390    14.4660 n3         1 LIG      -0.808500
      2 C1          82.8770   153.5130    14.2590 c6         1 LIG       0.195800
      3 C2          85.2170   153.6390    15.2330 c6         1 LIG       0.199800
      4 C3          83.1040   151.9800    14.3540 c6         1 LIG       0.162000
      5 C4          85.4830   152.1730    14.7700 c6         1 LIG       0.097700
      6 N2          84.4440   151.6910    13.8520 n          1 LIG      -0.459800
      7 C5          82.9460   151.4570    15.7700 ca         1 LIG      -0.386900
      8 C6          85.4570   151.2340    15.9840 c6         1 LIG      -0.142700
      9 C7          84.6120   151.2620    12.5520 c          1 LIG       0.671100
     10 C8          81.7100   151.3300    16.3870 ca         1 LIG       0.684200
     11 C9          84.0550   151.1320    16.5470 ca         1 LIG       0.486600
     12 O1          83.6550   151.0180    11.8170 o          1 LIG      -0.600100
     13 C10         86.0250   151.0610    12.0690 c3         1 LIG      -0.170100
     14 N3          81.6080   150.9500    17.6700 nb         1 LIG      -0.753000
     15 N4          83.9580   150.7240    17.8250 nb         1 LIG      -0.731000
     16 C11         82.7260   150.6510    18.3580 ca         1 LIG       0.714300
     17 S1          84.7010   155.2220    13.1200 sy         1 LIG       1.516200
     18 O2          83.6700   155.1880    12.1080 o          1 LIG      -0.648800
     19 O3          86.0430   154.7650    12.8230 o          1 LIG      -0.648800
     20 C12         84.8410   156.8570    13.7430 ca         1 LIG      -0.501800
     21 C13         85.2510   157.8810    12.9110 ca         1 LIG       0.506200
     22 C14         84.5550   157.1330    15.0790 ca         1 LIG       0.024000
     23 N5          85.3730   159.1640    13.3310 nb         1 LIG      -0.680000
     24 C15         84.6800   158.4430    15.5320 ca         1 LIG      -0.272300
     25 C16         85.0870   159.4140    14.6290 ca         1 LIG       0.457200
     26 C17         82.5890   150.2040    19.7920 cx         1 LIG      -0.167000
     27 C18         81.5910   149.1280    20.1610 cx         1 LIG      -0.115400
     28 C19         83.0590   148.8280    20.2100 cx         1 LIG      -0.115400
     29 N6          80.5460   151.6490    15.6650 nu         1 LIG      -0.841900
     30 H1          80.7480   152.4070    15.0160 hn         1 LIG       0.420800
     31 C20         79.8950   150.5520    14.9520 c3         1 LIG       0.226800
     32 C21         78.4040   150.7260    14.9730 cx         1 LIG      -0.150700
     33 C22         77.5330   149.8440    15.8340 cx         1 LIG      -0.126900
     34 C23         77.5020   149.6990    14.3370 cx         1 LIG      -0.126900
     35 H2          82.1440   153.8030    15.0270 h1         1 LIG       0.063700
     36 H3          82.5250   153.7210    13.2380 h1         1 LIG       0.063700
     37 H4          86.1490   154.2120    15.1180 h1         1 LIG       0.058700
     38 H5          84.8780   153.5840    16.2780 h1         1 LIG       0.058700
     39 H6          82.3390   151.4710    13.7490 h1         1 LIG       0.098700
     40 H7          86.4600   152.1730    14.2650 h1         1 LIG       0.071700
     41 H8          85.7960   150.2340    15.6760 hc         1 LIG       0.078200
     42 H9          86.1230   151.6380    16.7610 hc         1 LIG       0.078200
     43 H10         86.6980   150.9650    12.9340 hc         1 LIG       0.070700
     44 H11         86.0780   150.1460    11.4600 hc         1 LIG       0.070700
     45 H12         86.3300   151.9250    11.4600 hc         1 LIG       0.070700
     46 H13         85.4890   157.6450    11.8630 h4         1 LIG       0.049100
     47 H14         84.2360   156.3320    15.7620 ha         1 LIG       0.154000
     48 H15         84.4620   158.7010    16.5790 ha         1 LIG       0.155000
     49 H16         85.1840   160.4490    14.9910 h4         1 LIG       0.029100
     50 H17         82.7900   151.2320    20.1270 hc         1 LIG       0.100700
     51 H18         81.0160   149.2100    21.0950 hc         1 LIG       0.076700
     52 H19         80.7220   148.6730    19.6640 hc         1 LIG       0.076700
     53 H20         83.5070   148.1510    19.4670 hc         1 LIG       0.076700
     54 H21         83.7470   148.4430    20.9770 hc         1 LIG       0.076700
     55 H22         80.2440   150.5390    13.9090 h1         1 LIG       0.058200
     56 H23         80.1500   149.6030    15.4480 h1         1 LIG       0.058200
     57 H24         78.5470   151.8120    14.8670 hc         1 LIG       0.089700
     58 H25         77.9890   149.0580    16.4530 hc         1 LIG       0.075200
     59 H26         76.7770   150.0210    16.6130 hc         1 LIG       0.075200
     60 H27         76.6150   150.0210    13.7720 hc         1 LIG       0.075200
     61 H28         77.6470   148.8650    13.6340 hc         1 LIG       0.075200
@<TRIPOS>BOND
     1    17    18 2   
     2    17    19 2   
     3    17     1 1   
     4    17    20 1   
     5     1     2 1   
     6     1     3 1   
     7    20    21 ar  
     8    20    22 ar  
     9     4     2 1   
    10     5     3 1   
    11    21    23 ar  
    12    22    24 ar  
    13     4     6 1   
    14     4     7 1   
    15     5     8 1   
    16    23    25 ar  
    17     6     9 1   
    18     7    10 ar  
    19     7    11 ar  
    20     9    12 2   
    21     9    13 1   
    22    10    14 ar  
    23    10    29 1   
    24    11    15 ar  
    25    14    16 ar  
    26    29    31 1   
    27    16    26 1   
    28    31    32 1   
    29    26    27 1   
    30    26    28 1   
    31    32    33 1   
    32    32    34 1   
    33     5     6 1   
    34    24    25 ar  
    35     8    11 1   
    36    15    16 ar  
    37    27    28 1   
    38    33    34 1   
    39    29    30 1   
    40     2    35 1   
    41     2    36 1   
    42     3    37 1   
    43     3    38 1   
    44     4    39 1   
    45     5    40 1   
    46     8    41 1   
    47     8    42 1   
    48    13    43 1   
    49    13    44 1   
    50    13    45 1   
    51    21    46 1   
    52    22    47 1   
    53    24    48 1   
    54    25    49 1   
    55    26    50 1   
    56    27    51 1   
    57    27    52 1   
    58    28    53 1   
    59    28    54 1   
    60    31    55 1   
    61    31    56 1   
    62    32    57 1   
    63    33    58 1   
    64    33    59 1   
    65    34    60 1   
    66    34    61 1   
@<TRIPOS>SUBSTRUCTURE
     1 LIG         1 TEMP              0 ****  ****    0 ROOT
