EDS01806218_ent2
     RDKit          3D

 34 39  0  0  0  0  0  0  0  0999 V2000
   84.1369  154.3386   14.4659 N   0  0  0  0  0  0  0  0  0  0  0  0
   82.8772  153.5135   14.2592 C   0  0  0  0  0  0  0  0  0  0  0  0
   85.2171  153.6392   15.2333 C   0  0  0  0  0  0  0  0  0  0  0  0
   83.1039  151.9803   14.3541 C   0  0  1  0  0  0  0  0  0  0  0  0
   85.4832  152.1728   14.7697 C   0  0  2  0  0  0  0  0  0  0  0  0
   84.4441  151.6914   13.8525 N   0  0  0  0  0  0  0  0  0  0  0  0
   82.9464  151.4572   15.7698 C   0  0  0  0  0  0  0  0  0  0  0  0
   85.4569  151.2339   15.9844 C   0  0  0  0  0  0  0  0  0  0  0  0
   84.6125  151.2618   12.5519 C   0  0  0  0  0  0  0  0  0  0  0  0
   81.7096  151.3297   16.3866 C   0  0  0  0  0  0  0  0  0  0  0  0
   84.0547  151.1324   16.5470 C   0  0  0  0  0  0  0  0  0  0  0  0
   83.6548  151.0181   11.8174 O   0  0  0  0  0  0  0  0  0  0  0  0
   86.0248  151.0611   12.0688 C   0  0  0  0  0  0  0  0  0  0  0  0
   81.6075  150.9496   17.6700 N   0  0  0  0  0  0  0  0  0  0  0  0
   83.9577  150.7239   17.8247 N   0  0  0  0  0  0  0  0  0  0  0  0
   82.7259  150.6507   18.3583 C   0  0  0  0  0  0  0  0  0  0  0  0
   84.7013  155.2216   13.1199 S   0  0  0  0  0  0  0  0  0  0  0  0
   83.6699  155.1877   12.1076 O   0  0  0  0  0  0  0  0  0  0  0  0
   86.0425  154.7649   12.8226 O   0  0  0  0  0  0  0  0  0  0  0  0
   84.8409  156.8569   13.7430 C   0  0  0  0  0  0  0  0  0  0  0  0
   85.2512  157.8814   12.9111 C   0  0  0  0  0  0  0  0  0  0  0  0
   84.5549  157.1333   15.0789 C   0  0  0  0  0  0  0  0  0  0  0  0
   85.3730  159.1643   13.3305 N   0  0  0  0  0  0  0  0  0  0  0  0
   84.6801  158.4428   15.5319 C   0  0  0  0  0  0  0  0  0  0  0  0
   85.0873  159.4144   14.6292 C   0  0  0  0  0  0  0  0  0  0  0  0
   82.5891  150.2038   19.7924 C   0  0  0  0  0  0  0  0  0  0  0  0
   81.5912  149.1284   20.1609 C   0  0  0  0  0  0  0  0  0  0  0  0
   83.0593  148.8281   20.2103 C   0  0  0  0  0  0  0  0  0  0  0  0
   80.5460  151.6492   15.6647 N   0  0  0  0  0  0  0  0  0  0  0  0
   80.7482  152.4067   15.0156 H   0  0  0  0  0  0  0  0  0  0  0  0
   79.8946  150.5517   14.9523 C   0  0  0  0  0  0  0  0  0  0  0  0
   78.4040  150.7262   14.9730 C   0  0  0  0  0  0  0  0  0  0  0  0
   77.5328  149.8440   15.8337 C   0  0  0  0  0  0  0  0  0  0  0  0
   77.5016  149.6986   14.3371 C   0  0  0  0  0  0  0  0  0  0  0  0
 17 18  2  0
 17 19  2  0
 17  1  1  0
 17 20  1  0
  1  2  1  0
  1  3  1  0
 20 21  2  0
 20 22  1  0
  4  2  1  1
  5  3  1  1
 21 23  1  0
 22 24  2  0
  4  6  1  0
  4  7  1  0
  5  8  1  0
 23 25  2  0
  6  9  1  0
  7 10  1  0
  7 11  2  0
  9 12  2  0
  9 13  1  0
 10 14  2  0
 10 29  1  0
 11 15  1  0
 14 16  1  0
 29 31  1  0
 16 26  1  0
 31 32  1  0
 26 27  1  0
 26 28  1  0
 32 33  1  0
 32 34  1  0
  5  6  1  0
 24 25  1  0
  8 11  1  0
 15 16  2  0
 27 28  1  0
 33 34  1  0
 29 30  1  0
M  END
>  <ID>  (1) 
EDS01806218

>  <MMFF94_energy_kcal_mol>  (1) 
-18.278

>  <minimizedAffinity>  (1) 
-9.08412

>  <CNNscore>  (1) 
0.7395398617

>  <CNNaffinity>  (1) 
7.4311842918

>  <CNN_VS>  (1) 
5.4956569672

>  <CNNaffinity_variance>  (1) 
0.0659416616

>  <Ligand>  (1) 
EDS01806218_ent2

>  <Pose>  (1) 
1
$$$$
