@<TRIPOS>MOLECULE
LIG
   30    32     1     0     0
SMALL
gas


@<TRIPOS>ATOM
      1 C1          84.0650   154.8070    13.8090 c2         1 LIG       0.135329
      2 C2          84.8590   153.7290    13.3620 c2         1 LIG       0.149249
      3 C3          82.7630   154.5360    14.2580 c1         1 LIG      -0.033355
      4 C4          84.3340   152.4220    13.2840 ce         1 LIG       0.114912
      5 C5          82.2470   153.2400    14.2230 c1         1 LIG      -0.015447
      6 C6          83.0230   152.1940    13.7300 c1         1 LIG      -0.040794
      7 O1          83.9590   156.7160    11.6160 o          1 LIG      -0.252117
      8 C7          84.5150   156.9610    12.6820 c          1 LIG       0.324535
      9 N1          84.5230   156.1610    13.8250 n          1 LIG      -0.169946
     10 N2          85.1210   158.1860    12.8400 ns         1 LIG      -0.226968
     11 C8          85.2130   156.6530    15.0110 c1         1 LIG       0.021475
     12 C9          85.1250   158.8920    14.0120 c          1 LIG       0.296821
     13 C10         84.8550   158.1010    15.2610 c1         1 LIG       0.014529
     14 O2          85.2590   160.1130    14.0270 o          1 LIG      -0.261606
     15 H1          85.5800   158.5790    12.0620 hn         1 LIG       0.161344
     16 O3          86.1830   153.9120    13.0340 os         1 LIG      -0.254216
     17 C11         86.3040   154.5980    11.7900 c1         1 LIG       0.090587
     18 C12         85.1440   151.2610    12.7330 c1         1 LIG      -0.026408
     19 N3          86.5900   151.4170    12.9440 n3         1 LIG      -0.121303
     20 C13         87.1690   150.4350    13.8950 c2         1 LIG       0.169539
     21 C14         87.3740   151.4720    11.7060 c1         1 LIG       0.015076
     22 C15         86.7880   148.9450    13.7140 c1         1 LIG      -0.026803
     23 C16         87.3700   150.2370    10.7980 c1         1 LIG       0.008296
     24 N4          86.7450   148.4020    12.3440 n7         1 LIG      -0.181435
     25 C17         87.7840   148.9230    11.4610 c1         1 LIG       0.006146
     26 H2          85.8380   148.6290    11.9380 hn         1 LIG       0.153771
     27 C18         86.9380   150.8800    15.3410 c          1 LIG       0.312324
     28 O4          87.6410   150.5840    16.2980 o          1 LIG      -0.258875
     29 O5          85.8540   151.6580    15.5400 oh         1 LIG      -0.326499
     30 H3          85.3070   151.8930    14.8160 ho         1 LIG       0.221838
@<TRIPOS>BOND
     1     1     9 1   
     2     1     2 2   
     3     1     3 1   
     4     2    16 1   
     5     2     4 1   
     6     3     5 2   
     7     4     6 2   
     8     4    18 1   
     9     5     6 1   
    10     7     8 2   
    11     8     9 1   
    12     8    10 1   
    13     9    11 1   
    14    10    12 1   
    15    10    15 1   
    16    11    13 1   
    17    12    14 2   
    18    12    13 1   
    19    16    17 1   
    20    18    19 1   
    21    19    20 1   
    22    19    21 1   
    23    20    27 1   
    24    20    22 1   
    25    21    23 1   
    26    22    24 1   
    27    23    25 1   
    28    24    25 1   
    29    24    26 1   
    30    27    28 2   
    31    27    29 1   
    32    29    30 1   
@<TRIPOS>SUBSTRUCTURE
     1 LIG         1 TEMP              0 ****  ****    0 ROOT
