@<TRIPOS>MOLECULE
LIG
   28    30     1     0     0
SMALL
gas


@<TRIPOS>ATOM
      1 C1          84.2790   154.7280    13.8260 c2         1 LIG       0.146389
      2 C2          85.1960   153.7200    13.4850 c1         1 LIG      -0.060193
      3 C3          82.9820   154.3280    14.1750 c1         1 LIG      -0.027572
      4 C4          84.8480   152.3550    13.5050 ce         1 LIG       0.124980
      5 C5          82.6160   152.9780    14.1870 c1         1 LIG      -0.014323
      6 C6          83.5420   151.9960    13.8520 c1         1 LIG      -0.034988
      7 O1          84.4230   156.5190    11.5340 o          1 LIG      -0.252099
      8 C7          84.7050   156.8850    12.6720 c          1 LIG       0.324955
      9 N1          84.6640   156.1130    13.8380 n          1 LIG      -0.165254
     10 N2          85.1190   158.1850    12.8450 ns         1 LIG      -0.226954
     11 C8          85.2360   156.6870    15.0540 c1         1 LIG       0.021912
     12 C9          85.0840   158.9020    14.0070 c          1 LIG       0.296822
     13 C10         84.7780   158.1170    15.2450 c1         1 LIG       0.014545
     14 O2          85.2150   160.1230    14.0150 o          1 LIG      -0.261606
     15 H1          85.4760   158.6460    12.0510 hn         1 LIG       0.161345
     16 C11         85.8490   151.2890    13.0970 c1         1 LIG      -0.020613
     17 N3          86.3970   151.4950    11.7490 n3         1 LIG      -0.120765
     18 C12         86.5890   150.2430    10.9740 c2         1 LIG       0.169558
     19 C13         87.4670   152.4910    11.6940 c1         1 LIG       0.015096
     20 C14         87.2890   150.3660     9.5850 c1         1 LIG      -0.026803
     21 C15         88.9170   152.0030    11.7540 c1         1 LIG       0.008296
     22 N4          88.4900   151.2090     9.4280 n7         1 LIG      -0.181435
     23 C16         89.3860   151.1480    10.5740 c1         1 LIG       0.006146
     24 H2          88.1930   152.1760     9.2990 hn         1 LIG       0.153771
     25 C17         87.2250   149.0900    11.7710 c          1 LIG       0.312324
     26 O3          88.2810   149.0780    12.3830 o          1 LIG      -0.258875
     27 O4          86.4510   147.9800    11.7740 oh         1 LIG      -0.326499
     28 H3          85.6380   147.9740    11.3090 ho         1 LIG       0.221838
@<TRIPOS>BOND
     1     1     9 1   
     2     1     2 2   
     3     1     3 1   
     4     2     4 1   
     5     3     5 2   
     6     4     6 2   
     7     4    16 1   
     8     5     6 1   
     9     7     8 2   
    10     8     9 1   
    11     8    10 1   
    12     9    11 1   
    13    10    12 1   
    14    10    15 1   
    15    11    13 1   
    16    12    14 2   
    17    12    13 1   
    18    16    17 1   
    19    17    18 1   
    20    17    19 1   
    21    18    25 1   
    22    18    20 1   
    23    19    21 1   
    24    20    22 1   
    25    21    23 1   
    26    22    23 1   
    27    22    24 1   
    28    25    26 2   
    29    25    27 1   
    30    27    28 1   
@<TRIPOS>SUBSTRUCTURE
     1 LIG         1 TEMP              0 ****  ****    0 ROOT
