@<TRIPOS>MOLECULE
LIG
   36    40     1     0     0
SMALL
gas


@<TRIPOS>ATOM
      1 O1          81.1300   149.9060    12.5820 o          1 LIG      -0.270119
      2 C1          80.2950   149.0940    12.9850 c          1 LIG       0.263941
      3 N1          80.5970   148.3510    14.0810 ns         1 LIG      -0.245798
      4 C2          78.9970   148.8710    12.2410 c2         1 LIG       0.111107
      5 C3          79.6910   147.5030    14.8100 c1         1 LIG      -0.034151
      6 C4          77.6660   148.7950    13.0140 c2         1 LIG       0.068323
      7 C5          79.0470   147.5990    11.3960 c1         1 LIG      -0.024735
      8 C6          78.5580   148.3080    15.3830 ce         1 LIG       0.082046
      9 C7          77.6250   148.9270    14.5250 ce         1 LIG       0.055980
     10 C8          77.0210   147.4810    12.5360 c1         1 LIG      -0.028862
     11 N2          77.6300   147.2520    11.2230 n3         1 LIG      -0.107047
     12 C9          78.4180   148.4660    16.7780 c2         1 LIG       0.137048
     13 C10         76.5570   149.6500    15.0910 c1         1 LIG      -0.073704
     14 C11         77.3380   149.1760    17.3400 c2         1 LIG       0.123543
     15 C12         76.4150   149.7830    16.4770 c2         1 LIG       0.161692
     16 H1          81.5240   148.3970    14.4080 hn         1 LIG       0.165812
     17 N3          77.1850   149.2320    18.7580 n          1 LIG      -0.174917
     18 C13         77.2420   150.4380    19.4450 c          1 LIG       0.324077
     19 C14         76.5560   148.0880    19.4030 c1         1 LIG       0.020998
     20 O2          77.6860   151.4960    19.0040 o          1 LIG      -0.252137
     21 N4          76.8510   150.3700    20.7620 ns         1 LIG      -0.226983
     22 C15         77.0800   147.9400    20.8140 c1         1 LIG       0.014511
     23 C16         76.9170   149.2460    21.5400 c          1 LIG       0.296821
     24 O3          76.9280   149.3190    22.7670 o          1 LIG      -0.261606
     25 H2          76.4960   151.1900    21.1750 hn         1 LIG       0.161344
     26 O4          79.3640   147.8890    17.6000 os         1 LIG      -0.255452
     27 C17         80.4000   148.8340    17.8920 c1         1 LIG       0.090543
     28 O5          75.2900   150.3680    17.0060 os         1 LIG      -0.248250
     29 C18         74.1700   149.4810    17.0250 c1         1 LIG       0.091159
     30 C19         77.4220   145.8810    10.7490 c1         1 LIG      -0.013204
     31 C20         78.1940   145.5670     9.4860 ce         1 LIG       0.131804
     32 C21         79.1950   144.5840     9.4900 c1         1 LIG      -0.033781
     33 C22         77.9300   146.2590     8.2950 c1         1 LIG      -0.033781
     34 C23         79.9130   144.2970     8.3280 c1         1 LIG      -0.007503
     35 C24         78.6500   145.9710     7.1340 c1         1 LIG      -0.007503
     36 C25         79.6410   144.9910     7.1510 c1         1 LIG      -0.001214
@<TRIPOS>BOND
     1     1     2 2   
     2     2     3 1   
     3     3     5 1   
     4     3    16 1   
     5     4     2 1   
     6     4     6 1   
     7     4     7 1   
     8     6     9 1   
     9     6    10 1   
    10     7    11 1   
    11     8     5 1   
    12     8    12 2   
    13     8     9 1   
    14     9    13 2   
    15    10    11 1   
    16    11    30 1   
    17    12    26 1   
    18    12    14 1   
    19    13    15 1   
    20    14    17 1   
    21    14    15 2   
    22    15    28 1   
    23    17    18 1   
    24    17    19 1   
    25    18    20 2   
    26    18    21 1   
    27    19    22 1   
    28    21    23 1   
    29    21    25 1   
    30    22    23 1   
    31    23    24 2   
    32    26    27 1   
    33    28    29 1   
    34    30    31 1   
    35    31    32 2   
    36    31    33 1   
    37    32    34 1   
    38    33    35 2   
    39    34    36 2   
    40    35    36 1   
@<TRIPOS>SUBSTRUCTURE
     1 LIG         1 TEMP              0 ****  ****    0 ROOT
