@<TRIPOS>MOLECULE
LIG
   33    37     1     0     0
SMALL
gas


@<TRIPOS>ATOM
      1 N1          84.8550   149.1550    17.6080 n3         1 LIG      -0.093432
      2 C1          83.3910   149.2340    17.4590 c1         1 LIG       0.012137
      3 C2          85.5640   149.0390    16.3250 c1         1 LIG       0.012137
      4 C3          83.0070   150.0540    16.2320 c1         1 LIG      -0.028277
      5 C4          84.7080   148.4390    15.2120 c1         1 LIG      -0.028277
      6 C5          83.4780   149.3220    14.9660 c3         1 LIG       0.243462
      7 O1          82.3870   148.4880    14.4450 os         1 LIG      -0.266344
      8 C6          83.4820   150.1260    13.6220 c2         1 LIG       0.100731
      9 C7          82.1050   149.4750    13.4210 c1         1 LIG       0.018838
     10 C8          83.6760   151.7020    13.6380 ce         1 LIG       0.093305
     11 C9          84.8770   152.2760    13.1880 c1         1 LIG      -0.049135
     12 C10         82.7020   152.6110    14.0790 c1         1 LIG      -0.049135
     13 C11         85.0980   153.6620    13.1840 c1         1 LIG      -0.034539
     14 C12         82.9170   154.0000    14.0820 c1         1 LIG      -0.034539
     15 C13         84.1210   154.5540    13.6310 c2         1 LIG       0.152005
     16 N2          84.3490   155.9720    13.6480 n          1 LIG      -0.164692
     17 C14         84.8020   156.6650    12.5190 c          1 LIG       0.324975
     18 C15         83.8960   156.7610    14.7900 c1         1 LIG       0.021932
     19 O2          85.0610   156.1890    11.4170 o          1 LIG      -0.252099
     20 N3          84.9510   158.0230    12.6850 ns         1 LIG      -0.226953
     21 C16         84.8750   157.8730    15.1040 c1         1 LIG       0.014545
     22 C17         85.1070   158.6870    13.8690 c          1 LIG       0.296822
     23 O3          85.4890   159.8530    13.9080 o          1 LIG      -0.261606
     24 H1          84.9450   158.5710    11.8670 hn         1 LIG       0.161345
     25 C18         85.2140   148.1160    18.5840 c1         1 LIG      -0.018014
     26 Cl1         82.1500   148.6660    22.7910 cl         1 LIG      -0.071066
     27 C19         82.5920   147.8510    21.3390 c2         1 LIG       0.129023
     28 C20         83.6730   148.2930    20.5760 c2         1 LIG       0.174394
     29 C21         81.8520   146.7440    20.9260 c1         1 LIG      -0.037744
     30 F1          84.3690   149.3730    20.9660 f          1 LIG      -0.202494
     31 C22         84.0340   147.6350    19.3930 ce         1 LIG       0.119116
     32 C23         82.1950   146.0820    19.7470 c1         1 LIG      -0.015891
     33 C24         83.2780   146.5250    18.9830 c1         1 LIG      -0.040533
@<TRIPOS>BOND
     1     1     2 1   
     2     1     3 1   
     3     2     4 1   
     4     3     5 1   
     5     6     5 1   
     6     6     4 1   
     7     6     7 1   
     8     6     8 1   
     9     7     9 1   
    10     8    10 1   
    11     8     9 1   
    12    10    11 2   
    13    10    12 1   
    14    11    13 1   
    15    12    14 2   
    16    15    14 1   
    17    15    13 2   
    18    15    16 1   
    19    16    17 1   
    20    16    18 1   
    21    17    19 2   
    22    17    20 1   
    23    18    21 1   
    24    20    22 1   
    25    20    24 1   
    26    21    22 1   
    27    22    23 2   
    28    25     1 1   
    29    27    26 1   
    30    27    28 2   
    31    27    29 1   
    32    28    30 1   
    33    28    31 1   
    34    29    32 2   
    35    31    33 2   
    36    31    25 1   
    37    32    33 1   
@<TRIPOS>SUBSTRUCTURE
     1 LIG         1 TEMP              0 ****  ****    0 ROOT
