@<TRIPOS>MOLECULE
LIG
   34    38     1     0     0
SMALL
gas


@<TRIPOS>ATOM
      1 O1          86.4670   156.1650     3.3290 o          1 LIG      -0.270118
      2 C1          87.5490   156.6460     2.9990 c          1 LIG       0.263957
      3 N1          87.6200   157.9830     2.7310 ns         1 LIG      -0.245347
      4 C2          88.8100   155.8270     2.7880 c2         1 LIG       0.111129
      5 C3          88.8530   158.7050     2.5720 c1         1 LIG      -0.028345
      6 C4          90.0710   156.1940     3.6170 c2         1 LIG       0.068868
      7 C5          88.5490   154.3470     3.0940 c1         1 LIG      -0.024735
      8 C6          89.6030   158.7000     3.8760 ce         1 LIG       0.092071
      9 C7          90.1470   157.5060     4.3920 ce         1 LIG       0.061138
     10 C8          90.3260   154.9140     4.4390 c1         1 LIG      -0.028840
     11 N2          89.8500   153.8500     3.5500 n3         1 LIG      -0.107047
     12 C9          89.7200   159.9050     4.6000 c1         1 LIG      -0.073419
     13 C10         90.8460   157.5810     5.6120 c1         1 LIG      -0.072563
     14 C11         90.4190   159.9690     5.8120 c2         1 LIG       0.134070
     15 C12         90.9880   158.7890     6.3120 c2         1 LIG       0.166952
     16 H1          86.7770   158.4830     2.6420 hn         1 LIG       0.165832
     17 N3          90.5240   161.2090     6.5140 n          1 LIG      -0.169961
     18 C13         91.4480   162.1790     6.1260 c          1 LIG       0.324536
     19 C14         89.4820   161.5910     7.4550 c1         1 LIG       0.021476
     20 O2          92.1710   162.1430     5.1320 o          1 LIG      -0.252117
     21 N4          91.4920   163.2940     6.9330 ns         1 LIG      -0.226968
     22 C15         90.0910   162.2930     8.6500 c1         1 LIG       0.014529
     23 C16         90.9290   163.4410     8.1700 c          1 LIG       0.296821
     24 O3          91.1510   164.4290     8.8650 o          1 LIG      -0.261606
     25 H2          91.9830   164.0710     6.5800 hn         1 LIG       0.161344
     26 O4          91.5400   158.8010     7.5720 os         1 LIG      -0.247656
     27 C17         92.9430   159.0650     7.5660 c1         1 LIG       0.091180
     28 C18         89.7290   152.5520     4.2240 c1         1 LIG      -0.013204
     29 C19         89.7910   152.6650     5.7330 ce         1 LIG       0.131804
     30 C20         91.0010   152.4780     6.4150 c1         1 LIG      -0.033781
     31 C21         88.6360   152.9650     6.4710 c1         1 LIG      -0.033781
     32 C22         91.0550   152.5880     7.8060 c1         1 LIG      -0.007503
     33 C23         88.6910   153.0740     7.8620 c1         1 LIG      -0.007503
     34 C24         89.9000   152.8860     8.5280 c1         1 LIG      -0.001214
@<TRIPOS>BOND
     1     1     2 2   
     2     2     3 1   
     3     3     5 1   
     4     3    16 1   
     5     4     2 1   
     6     4     6 1   
     7     4     7 1   
     8     6     9 1   
     9     6    10 1   
    10     7    11 1   
    11     8     5 1   
    12     8    12 2   
    13     8     9 1   
    14     9    13 2   
    15    10    11 1   
    16    11    28 1   
    17    13    15 1   
    18    14    12 1   
    19    14    17 1   
    20    14    15 2   
    21    15    26 1   
    22    17    18 1   
    23    17    19 1   
    24    18    20 2   
    25    18    21 1   
    26    19    22 1   
    27    21    23 1   
    28    21    25 1   
    29    22    23 1   
    30    23    24 2   
    31    26    27 1   
    32    28    29 1   
    33    29    30 2   
    34    29    31 1   
    35    30    32 1   
    36    31    33 2   
    37    32    34 2   
    38    33    34 1   
@<TRIPOS>SUBSTRUCTURE
     1 LIG         1 TEMP              0 ****  ****    0 ROOT
