@<TRIPOS>MOLECULE
LIG
   30    32     1     0     0
SMALL
gas


@<TRIPOS>ATOM
      1 C1          84.3230   154.3470    13.7370 c2         1 LIG       0.135285
      2 C2          85.1020   153.3820    13.0720 c2         1 LIG       0.174359
      3 C3          83.1610   153.9260    14.4090 c1         1 LIG      -0.065939
      4 C4          84.7190   152.0360    13.0890 c1         1 LIG      -0.030861
      5 C5          82.7870   152.5710    14.4580 ce         1 LIG       0.123896
      6 C6          83.5770   151.6350    13.7830 c1         1 LIG      -0.041035
      7 O1          84.2710   156.0730    11.4350 o          1 LIG      -0.252117
      8 C7          84.5670   156.4890    12.5530 c          1 LIG       0.324537
      9 N1          84.6740   155.7330    13.7210 n          1 LIG      -0.169915
     10 N2          84.8770   157.8230    12.6950 ns         1 LIG      -0.226968
     11 C8          85.4210   156.2960    14.8350 c1         1 LIG       0.021477
     12 C9          85.0300   158.5160    13.8640 c          1 LIG       0.296821
     13 C10         84.9470   157.7050    15.1230 c1         1 LIG       0.014529
     14 O2          85.1630   159.7370    13.8760 o          1 LIG      -0.261606
     15 H1          85.0030   158.3340    11.8630 hn         1 LIG       0.161344
     16 O3          86.1380   153.8030    12.2730 os         1 LIG      -0.247006
     17 C11         86.9470   152.7290    11.7950 c1         1 LIG       0.091202
     18 C12         81.5420   152.1420    15.2100 c1         1 LIG      -0.020657
     19 N3          81.7230   151.2060    16.3410 n3         1 LIG      -0.120766
     20 C13         81.8040   149.7770    15.9220 c2         1 LIG       0.169558
     21 C14         82.8120   151.6270    17.2330 c1         1 LIG       0.015096
     22 C15         81.9670   148.7220    17.0520 c1         1 LIG      -0.026803
     23 C16         82.7000   151.0120    18.6270 c1         1 LIG       0.008296
     24 N4          83.2940   148.7270    17.6750 n7         1 LIG      -0.181435
     25 C17         83.4130   149.6710    18.7800 c1         1 LIG       0.006146
     26 H2          83.9840   148.9720    16.9650 hn         1 LIG       0.153771
     27 C18         80.5300   149.3700    15.1720 c          1 LIG       0.312324
     28 O4          80.4540   149.0880    13.9850 o          1 LIG      -0.258875
     29 O5          79.4150   149.3580    15.9340 oh         1 LIG      -0.326499
     30 H3          79.4670   149.5730    16.8450 ho         1 LIG       0.221838
@<TRIPOS>BOND
     1     1     9 1   
     2     1     2 2   
     3     1     3 1   
     4     2    16 1   
     5     2     4 1   
     6     3     5 2   
     7     4     6 2   
     8     5    18 1   
     9     5     6 1   
    10     7     8 2   
    11     8     9 1   
    12     8    10 1   
    13     9    11 1   
    14    10    12 1   
    15    10    15 1   
    16    11    13 1   
    17    12    14 2   
    18    12    13 1   
    19    16    17 1   
    20    18    19 1   
    21    19    20 1   
    22    19    21 1   
    23    20    27 1   
    24    20    22 1   
    25    21    23 1   
    26    22    24 1   
    27    23    25 1   
    28    24    25 1   
    29    24    26 1   
    30    27    28 2   
    31    27    29 1   
    32    29    30 1   
@<TRIPOS>SUBSTRUCTURE
     1 LIG         1 TEMP              0 ****  ****    0 ROOT
