@<TRIPOS>MOLECULE
LIG
   32    36     1     0     0
SMALL
gas


@<TRIPOS>ATOM
      1 O1          85.5710   149.0580    13.0200 o          1 LIG      -0.270118
      2 C1          85.0990   149.6340    14.0030 c          1 LIG       0.263958
      3 N1          85.9410   150.3950    14.7560 ns         1 LIG      -0.245346
      4 C2          83.6640   149.3990    14.4520 c2         1 LIG       0.111151
      5 C3          85.5580   151.3250    15.7900 c1         1 LIG      -0.028300
      6 C4          82.8670   150.4750    15.2050 c2         1 LIG       0.069430
      7 C5          82.7690   149.0230    13.2560 c1         1 LIG      -0.024734
      8 C6          84.5760   152.3270    15.2420 ce         1 LIG       0.093184
      9 C7          83.2760   151.9090    14.8950 ce         1 LIG       0.066817
     10 C8          81.4250   150.0560    14.8800 c1         1 LIG      -0.028817
     11 N2          81.4940   149.7280    13.4570 n3         1 LIG      -0.107047
     12 C9          84.9830   153.6540    15.0070 c1         1 LIG      -0.067695
     13 C10         82.4210   152.8460    14.3100 c1         1 LIG      -0.056206
     14 C11         84.1230   154.6000    14.4350 c2         1 LIG       0.145198
     15 C12         82.8380   154.1660    14.0850 c1         1 LIG      -0.035744
     16 H1          86.9040   150.3020    14.5760 hn         1 LIG       0.165832
     17 N3          84.5520   155.9490    14.1910 n          1 LIG      -0.165298
     18 C13         84.6030   156.4900    12.9010 c          1 LIG       0.324954
     19 C14         85.1710   156.7140    15.2700 c1         1 LIG       0.021911
     20 O2          84.2870   155.9290    11.8540 o          1 LIG      -0.252099
     21 N4          85.0680   157.7820    12.8240 ns         1 LIG      -0.226954
     22 C15         84.7720   158.1730    15.1990 c1         1 LIG       0.014545
     23 C16         85.0830   158.7020    13.8340 c          1 LIG       0.296822
     24 O3          85.2630   159.8970    13.6140 o          1 LIG      -0.261606
     25 H2          85.4250   158.0740    11.9540 hn         1 LIG       0.161345
     26 C17         80.3430   148.9760    12.9580 c1         1 LIG      -0.013204
     27 C18         79.0750   149.2760    13.7290 ce         1 LIG       0.131804
     28 C19         79.0370   150.3100    14.6740 c1         1 LIG      -0.033781
     29 C20         77.9150   148.5190    13.5040 c1         1 LIG      -0.033781
     30 C21         77.8630   150.5810    15.3800 c1         1 LIG      -0.007503
     31 C22         76.7420   148.7910    14.2110 c1         1 LIG      -0.007503
     32 C23         76.7170   149.8210    15.1480 c1         1 LIG      -0.001214
@<TRIPOS>BOND
     1     1     2 2   
     2     2     3 1   
     3     3     5 1   
     4     3    16 1   
     5     4     2 1   
     6     4     6 1   
     7     4     7 1   
     8     6     9 1   
     9     6    10 1   
    10     7    11 1   
    11     8     5 1   
    12     8    12 2   
    13     8     9 1   
    14     9    13 2   
    15    10    11 1   
    16    11    26 1   
    17    13    15 1   
    18    14    12 1   
    19    14    17 1   
    20    14    15 2   
    21    17    18 1   
    22    17    19 1   
    23    18    20 2   
    24    18    21 1   
    25    19    22 1   
    26    21    23 1   
    27    21    25 1   
    28    22    23 1   
    29    23    24 2   
    30    26    27 1   
    31    27    28 2   
    32    27    29 1   
    33    28    30 1   
    34    29    31 2   
    35    30    32 2   
    36    31    32 1   
@<TRIPOS>SUBSTRUCTURE
     1 LIG         1 TEMP              0 ****  ****    0 ROOT
