@<TRIPOS>MOLECULE
LIG
   30    32     1     0     0
SMALL
gas


@<TRIPOS>ATOM
      1 C1          83.9310   154.5880    13.9850 c2         1 LIG       0.135329
      2 C2          84.7510   153.4760    13.6870 c2         1 LIG       0.149249
      3 C3          82.5990   154.3440    14.3460 c1         1 LIG      -0.033355
      4 C4          84.2260   152.1690    13.6270 ce         1 LIG       0.114912
      5 C5          82.0790   153.0480    14.3420 c1         1 LIG      -0.015447
      6 C6          82.8800   151.9720    13.9670 c1         1 LIG      -0.040794
      7 O1          84.0970   156.2420    11.6000 o          1 LIG      -0.252117
      8 C7          84.5260   156.6160    12.6880 c          1 LIG       0.324535
      9 N1          84.4250   155.9300    13.8960 n          1 LIG      -0.169946
     10 N2          85.0990   157.8640    12.7800 ns         1 LIG      -0.226968
     11 C8          85.1490   156.4790    15.0410 c1         1 LIG       0.021475
     12 C9          85.0860   158.6490    13.9020 c          1 LIG       0.296821
     13 C10         84.8170   157.9460    15.2040 c1         1 LIG       0.014529
     14 O2          85.2120   159.8690    13.8290 o          1 LIG      -0.261606
     15 H1          85.5520   158.2180    11.9810 hn         1 LIG       0.161344
     16 O3          86.1030   153.6370    13.4770 os         1 LIG      -0.254216
     17 C11         86.3900   153.6060    12.0770 c1         1 LIG       0.090587
     18 C12         85.0700   150.9860    13.1990 c1         1 LIG      -0.026408
     19 N3          85.2260   149.9540    14.2350 n3         1 LIG      -0.121303
     20 C13         85.4980   148.6180    13.6460 c2         1 LIG       0.169539
     21 C14         86.1160   150.3130    15.3480 c1         1 LIG       0.015076
     22 C15         86.9590   148.3280    13.2160 c1         1 LIG      -0.026803
     23 C16         87.5830   150.5550    14.9910 c1         1 LIG       0.008296
     24 N4          87.8960   148.0990    14.3150 n7         1 LIG      -0.181435
     25 C17         88.4470   149.2960    14.9340 c1         1 LIG       0.006146
     26 H2          88.6740   147.5470    13.9530 hn         1 LIG       0.153771
     27 C18         84.9570   147.4930    14.5460 c          1 LIG       0.312324
     28 O4          84.0230   147.5180    15.3330 o          1 LIG      -0.258875
     29 O5          85.6150   146.3220    14.3550 oh         1 LIG      -0.326499
     30 H3          86.3340   146.2810    13.7560 ho         1 LIG       0.221838
@<TRIPOS>BOND
     1     1     9 1   
     2     1     2 2   
     3     1     3 1   
     4     2    16 1   
     5     2     4 1   
     6     3     5 2   
     7     4     6 2   
     8     4    18 1   
     9     5     6 1   
    10     7     8 2   
    11     8     9 1   
    12     8    10 1   
    13     9    11 1   
    14    10    12 1   
    15    10    15 1   
    16    11    13 1   
    17    12    14 2   
    18    12    13 1   
    19    16    17 1   
    20    18    19 1   
    21    19    20 1   
    22    19    21 1   
    23    20    27 1   
    24    20    22 1   
    25    21    23 1   
    26    22    24 1   
    27    23    25 1   
    28    24    25 1   
    29    24    26 1   
    30    27    28 2   
    31    27    29 1   
    32    29    30 1   
@<TRIPOS>SUBSTRUCTURE
     1 LIG         1 TEMP              0 ****  ****    0 ROOT
