@<TRIPOS>MOLECULE
LIG
   39    43     1     0     0
SMALL
gas


@<TRIPOS>ATOM
      1 C1          84.7510   153.9840    13.2630 c2         1 LIG       0.122940
      2 C2          83.7160   153.1960    13.8090 c2         1 LIG       0.130626
      3 C3          85.8120   153.3300    12.5750 c2         1 LIG       0.161695
      4 C4          83.7890   151.8210    13.6850 cc         1 LIG       0.057358
      5 C5          85.8530   151.9380    12.4100 c1         1 LIG      -0.072972
      6 C6          84.8420   151.1980    12.9830 cd         1 LIG       0.063110
      7 C7          82.8870   150.7360    14.2230 c2         1 LIG       0.111046
      8 C8          84.6260   149.7040    13.0610 c2         1 LIG       0.115577
      9 N1          83.1810   149.6690    13.2690 n          1 LIG      -0.197319
     10 C9          83.4100   150.2450    15.6160 c1         1 LIG      -0.014371
     11 C10         85.2730   149.1280    14.3660 c1         1 LIG      -0.013822
     12 C11         82.3990   148.5530    13.1740 c          1 LIG       0.366390
     13 N2          84.8600   149.8470    15.6100 n3         1 LIG      -0.104676
     14 O1          81.2810   148.4700    13.6630 o          1 LIG      -0.241340
     15 O2          84.4450   155.8310    11.1040 o          1 LIG      -0.252137
     16 C12         84.5970   156.2150    12.2600 c          1 LIG       0.324077
     17 N3          84.7100   155.4090    13.3890 n          1 LIG      -0.174941
     18 N4          84.6320   157.5680    12.5110 ns         1 LIG      -0.226983
     19 C13         84.4840   156.0110    14.6940 c1         1 LIG       0.020997
     20 C14         85.0250   158.1790    13.6710 c          1 LIG       0.296821
     21 C15         85.3140   157.2690    14.8300 c1         1 LIG       0.014511
     22 O3          85.1960   159.3940    13.7310 o          1 LIG      -0.261606
     23 H1          84.3420   158.1590    11.7790 hn         1 LIG       0.161344
     24 O4          82.6300   153.7340    14.4450 os         1 LIG      -0.256076
     25 C16         81.7830   152.7010    14.9460 c1         1 LIG       0.090521
     26 O5          86.8680   154.0450    12.0550 os         1 LIG      -0.248250
     27 C17         87.7820   153.1490    11.4140 c1         1 LIG       0.091159
     28 O6          83.0250   147.5660    12.4860 os         1 LIG      -0.255445
     29 C18         83.1950   146.2470    13.0640 c3         1 LIG       0.262932
     30 C19         82.1440   145.2650    12.5360 c1         1 LIG      -0.035362
     31 C20         83.2080   146.3090    14.5950 c1         1 LIG      -0.035362
     32 C21         84.5800   145.7890    12.5810 c1         1 LIG      -0.035362
     33 C22         85.2490   149.1080    16.8160 c1         1 LIG      -0.013103
     34 C23         84.3420   149.3500    18.0040 ce         1 LIG       0.131806
     35 C24         84.1840   148.3630    18.9880 c1         1 LIG      -0.033781
     36 C25         83.6760   150.5750    18.1660 c1         1 LIG      -0.033781
     37 C26         83.3650   148.5900    20.0960 c1         1 LIG      -0.007503
     38 C27         82.8540   150.7990    19.2710 c1         1 LIG      -0.007503
     39 C28         82.7000   149.8060    20.2360 c1         1 LIG      -0.001214
@<TRIPOS>BOND
     1     1    17 1   
     2     1     2 2   
     3     1     3 1   
     4     2    24 1   
     5     2     4 1   
     6     3    26 1   
     7     3     5 2   
     8     4     6 2   
     9     4     7 1   
    10     5     6 1   
    11     6     8 1   
    12     7     9 1   
    13     7    10 1   
    14     8    11 1   
    15     8     9 1   
    16     9    12 1   
    17    10    13 1   
    18    11    13 1   
    19    12    14 2   
    20    12    28 1   
    21    13    33 1   
    22    15    16 2   
    23    16    17 1   
    24    16    18 1   
    25    17    19 1   
    26    18    20 1   
    27    18    23 1   
    28    19    21 1   
    29    20    22 2   
    30    20    21 1   
    31    24    25 1   
    32    26    27 1   
    33    28    29 1   
    34    29    30 1   
    35    29    31 1   
    36    29    32 1   
    37    33    34 1   
    38    34    35 2   
    39    34    36 1   
    40    35    37 1   
    41    36    38 2   
    42    37    39 2   
    43    38    39 1   
@<TRIPOS>SUBSTRUCTURE
     1 LIG         1 TEMP              0 ****  ****    0 ROOT
