@<TRIPOS>MOLECULE
LIG
   35    39     1     0     0
SMALL
gas


@<TRIPOS>ATOM
      1 N1          86.1140   148.5630    15.5780 n3         1 LIG      -0.093432
      2 C1          85.1050   148.9020    16.5850 c1         1 LIG       0.012137
      3 C2          85.6430   148.6020    14.1940 c1         1 LIG       0.012137
      4 C3          84.0920   149.9240    16.0770 c1         1 LIG      -0.028277
      5 C4          84.1530   148.2800    14.1110 c1         1 LIG      -0.028277
      6 C5          83.3670   149.3820    14.8330 c3         1 LIG       0.243440
      7 O1          82.0450   148.8710    15.2130 os         1 LIG      -0.266345
      8 C6          82.6750   150.4240    13.8900 c2         1 LIG       0.100166
      9 C7          81.4150   150.0690    14.6930 c1         1 LIG       0.018815
     10 C8          83.2230   151.9140    13.7950 ce         1 LIG       0.087639
     11 C9          84.4520   152.2620    13.2120 c1         1 LIG      -0.065490
     12 C10         82.4660   152.9880    14.2980 c1         1 LIG      -0.050278
     13 C11         84.8940   153.5940    13.1320 c2         1 LIG       0.168128
     14 C12         82.9150   154.3180    14.2480 c1         1 LIG      -0.040285
     15 C13         84.1510   154.6490    13.6840 c2         1 LIG       0.140858
     16 N2          84.6170   156.0070    13.7250 n          1 LIG      -0.169358
     17 C14         84.6180   156.8200    12.5910 c          1 LIG       0.324556
     18 C15         85.2510   156.5150    14.9380 c1         1 LIG       0.021496
     19 O2          84.2640   156.4950    11.4600 o          1 LIG      -0.252117
     20 N3          85.0780   158.1000    12.7890 ns         1 LIG      -0.226967
     21 C16         84.8340   157.9470    15.2000 c1         1 LIG       0.014529
     22 C17         85.1000   158.7720    13.9790 c          1 LIG       0.296821
     23 O3          85.2460   159.9900    14.0240 o          1 LIG      -0.261606
     24 H1          85.4220   158.5780    12.0000 hn         1 LIG       0.161344
     25 O4          86.0810   153.8020    12.4690 os         1 LIG      -0.247610
     26 C18         86.6710   152.5430    12.1320 c1         1 LIG       0.091181
     27 C19         87.4480   149.1310    15.8010 c1         1 LIG      -0.018014
     28 Cl1         91.2040   152.0450    13.5920 cl         1 LIG      -0.071066
     29 C20         89.9660   150.8510    13.4980 c2         1 LIG       0.129023
     30 C21         89.2530   150.4750    14.6370 c2         1 LIG       0.174394
     31 C22         89.6780   150.2620    12.2690 c1         1 LIG      -0.037744
     32 F1          89.5450   151.0430    15.8180 f          1 LIG      -0.202494
     33 C23         88.2370   149.5130    14.5700 ce         1 LIG       0.119116
     34 C24         88.6840   149.2880    12.1870 c1         1 LIG      -0.015891
     35 C25         87.9730   148.9110    13.3290 c1         1 LIG      -0.040533
@<TRIPOS>BOND
     1     1     2 1   
     2     1     3 1   
     3     2     4 1   
     4     3     5 1   
     5     6     5 1   
     6     6     4 1   
     7     6     7 1   
     8     6     8 1   
     9     7     9 1   
    10     8    10 1   
    11     8     9 1   
    12    10    11 2   
    13    10    12 1   
    14    11    13 1   
    15    12    14 2   
    16    13    25 1   
    17    13    15 2   
    18    15    14 1   
    19    15    16 1   
    20    16    17 1   
    21    16    18 1   
    22    17    19 2   
    23    17    20 1   
    24    18    21 1   
    25    20    22 1   
    26    20    24 1   
    27    21    22 1   
    28    22    23 2   
    29    25    26 1   
    30    27     1 1   
    31    29    28 1   
    32    29    30 2   
    33    29    31 1   
    34    30    32 1   
    35    30    33 1   
    36    31    34 2   
    37    33    35 2   
    38    33    27 1   
    39    34    35 1   
@<TRIPOS>SUBSTRUCTURE
     1 LIG         1 TEMP              0 ****  ****    0 ROOT
