@<TRIPOS>MOLECULE
LIG
   37    41     1     0     0
SMALL
gas


@<TRIPOS>ATOM
      1 C1          84.8800   154.3830    14.0170 c2         1 LIG       0.133487
      2 C2          85.5930   153.5130    13.1420 c2         1 LIG       0.166955
      3 C3          84.1180   153.8050    15.0490 c1         1 LIG      -0.080561
      4 C4          85.4990   152.1150    13.2320 c1         1 LIG      -0.071837
      5 C5          84.0600   152.4260    15.1520 cc         1 LIG       0.067530
      6 C6          84.7320   151.5900    14.2470 cc         1 LIG       0.068225
      7 C7          83.3030   151.5450    16.1210 c2         1 LIG       0.116115
      8 C8          84.4140   150.1590    14.6130 c2         1 LIG       0.116141
      9 N1          84.1030   150.3270    16.0300 n          1 LIG      -0.196752
     10 C9          81.8890   151.2300    15.5200 c1         1 LIG      -0.013799
     11 C10         83.0960   149.7360    13.8790 c1         1 LIG      -0.013799
     12 C11         83.8990   149.2930    16.9030 c          1 LIG       0.366410
     13 N2          81.8380   150.0340    14.6220 n3         1 LIG      -0.104654
     14 O1          83.3210   149.4180    17.9750 o          1 LIG      -0.241340
     15 O2          86.2530   155.8780    11.9620 o          1 LIG      -0.252117
     16 C12         85.5890   156.4360    12.8320 c          1 LIG       0.324536
     17 N3          84.8840   155.8120    13.8620 n          1 LIG      -0.169983
     18 N4          85.5060   157.8080    12.8110 ns         1 LIG      -0.226968
     19 C13         84.0050   156.6320    14.6890 c1         1 LIG       0.021475
     20 C14         85.2100   158.6120    13.8760 c          1 LIG       0.296821
     21 C15         84.6980   157.9150    15.0990 c1         1 LIG       0.014529
     22 O3          85.4330   159.8190    13.8500 o          1 LIG      -0.261606
     23 H1          85.6750   158.2520    11.9500 hn         1 LIG       0.161344
     24 O4          86.4330   154.0030    12.1680 os         1 LIG      -0.247656
     25 C16         87.3060   152.9620    11.7190 c1         1 LIG       0.091180
     26 O5          84.4190   148.1320    16.4270 os         1 LIG      -0.255444
     27 C17         85.4370   147.4170    17.1700 c3         1 LIG       0.262932
     28 C18         86.7340   147.6640    16.3830 c1         1 LIG      -0.035362
     29 C19         85.1560   145.9100    17.1870 c1         1 LIG      -0.035362
     30 C20         85.6070   147.9880    18.5820 c1         1 LIG      -0.035362
     31 C21         80.6610   150.0060    13.7510 c1         1 LIG      -0.013102
     32 C22         79.3510   149.9470    14.5060 ce         1 LIG       0.131806
     33 C23         78.1680   149.5700    13.8550 c1         1 LIG      -0.033781
     34 C24         79.3030   150.2450    15.8770 c1         1 LIG      -0.033781
     35 C25         76.9630   149.5020    14.5580 c1         1 LIG      -0.007503
     36 C26         78.0980   150.1780    16.5770 c1         1 LIG      -0.007503
     37 C27         76.9280   149.8060    15.9170 c1         1 LIG      -0.001214
@<TRIPOS>BOND
     1     1    17 1   
     2     1     2 2   
     3     1     3 1   
     4     2    24 1   
     5     2     4 1   
     6     5     3 2   
     7     5     7 1   
     8     5     6 1   
     9     6     4 2   
    10     6     8 1   
    11     7     9 1   
    12     7    10 1   
    13     8    11 1   
    14     8     9 1   
    15     9    12 1   
    16    10    13 1   
    17    11    13 1   
    18    12    14 2   
    19    12    26 1   
    20    13    31 1   
    21    15    16 2   
    22    16    17 1   
    23    16    18 1   
    24    17    19 1   
    25    18    20 1   
    26    18    23 1   
    27    19    21 1   
    28    20    22 2   
    29    20    21 1   
    30    24    25 1   
    31    26    27 1   
    32    27    28 1   
    33    27    29 1   
    34    27    30 1   
    35    31    32 1   
    36    32    33 2   
    37    32    34 1   
    38    33    35 1   
    39    34    36 2   
    40    35    37 2   
    41    36    37 1   
@<TRIPOS>SUBSTRUCTURE
     1 LIG         1 TEMP              0 ****  ****    0 ROOT
