@<TRIPOS>MOLECULE
LIG
   33    37     1     0     0
SMALL
gas


@<TRIPOS>ATOM
      1 N1          88.2180   148.9410    14.7930 n3         1 LIG      -0.093432
      2 C1          87.2570   149.1900    15.8790 c1         1 LIG       0.012137
      3 C2          87.5900   148.9250    13.4590 c1         1 LIG       0.012137
      4 C3          85.8510   148.6820    15.5690 c1         1 LIG      -0.028277
      5 C4          86.4060   149.8860    13.3810 c1         1 LIG      -0.028277
      6 C5          85.3000   149.3970    14.3280 c3         1 LIG       0.243462
      7 O1          84.4060   148.4820    13.6060 os         1 LIG      -0.266344
      8 C6          84.0860   150.3550    14.5830 c2         1 LIG       0.100731
      9 C7          83.4220   149.5370    13.4650 c1         1 LIG       0.018838
     10 C8          84.2730   151.9270    14.4730 ce         1 LIG       0.093305
     11 C9          83.6350   152.6540    13.4520 c1         1 LIG      -0.049135
     12 C10         85.0690   152.6860    15.3450 c1         1 LIG      -0.049135
     13 C11         83.7720   154.0440    13.3150 c1         1 LIG      -0.034539
     14 C12         85.2120   154.0780    15.2130 c1         1 LIG      -0.034539
     15 C13         84.5620   154.7880    14.1950 c2         1 LIG       0.152005
     16 N2          84.7190   156.2090    14.0500 n          1 LIG      -0.164692
     17 C14         85.4940   156.7730    13.0280 c          1 LIG       0.324975
     18 C15         83.8820   157.1110    14.8370 c1         1 LIG       0.021932
     19 O2          86.1340   156.1720    12.1700 o          1 LIG      -0.252099
     20 N3          85.5160   158.1480    12.9990 ns         1 LIG      -0.226953
     21 C16         84.6560   158.3430    15.2570 c1         1 LIG       0.014545
     22 C17         85.2540   158.9860    14.0460 c          1 LIG       0.296822
     23 O3          85.5660   160.1730    14.0160 o          1 LIG      -0.261606
     24 H1          85.7440   158.5700    12.1400 hn         1 LIG       0.161345
     25 C18         89.0250   147.7360    15.0450 c1         1 LIG      -0.018014
     26 Cl1         87.6600   143.8290    11.8390 cl         1 LIG      -0.071066
     27 C19         88.7120   145.1150    12.2930 c2         1 LIG       0.129023
     28 C20         88.4540   145.8780    13.4320 c2         1 LIG       0.174394
     29 C21         89.8290   145.3930    11.5040 c1         1 LIG      -0.037744
     30 F1          87.3680   145.6190    14.1770 f          1 LIG      -0.202494
     31 C22         89.3040   146.9280    13.7990 ce         1 LIG       0.119116
     32 C23         90.6840   146.4370    11.8570 c1         1 LIG      -0.015891
     33 C24         90.4240   147.2010    12.9970 c1         1 LIG      -0.040533
@<TRIPOS>BOND
     1     1     2 1   
     2     1     3 1   
     3     2     4 1   
     4     3     5 1   
     5     6     5 1   
     6     6     4 1   
     7     6     7 1   
     8     6     8 1   
     9     7     9 1   
    10     8    10 1   
    11     8     9 1   
    12    10    11 2   
    13    10    12 1   
    14    11    13 1   
    15    12    14 2   
    16    15    14 1   
    17    15    13 2   
    18    15    16 1   
    19    16    17 1   
    20    16    18 1   
    21    17    19 2   
    22    17    20 1   
    23    18    21 1   
    24    20    22 1   
    25    20    24 1   
    26    21    22 1   
    27    22    23 2   
    28    25     1 1   
    29    27    26 1   
    30    27    28 2   
    31    27    29 1   
    32    28    30 1   
    33    28    31 1   
    34    29    32 2   
    35    31    33 2   
    36    31    25 1   
    37    32    33 1   
@<TRIPOS>SUBSTRUCTURE
     1 LIG         1 TEMP              0 ****  ****    0 ROOT
