@<TRIPOS>MOLECULE
LIG
   32    36     1     0     0
SMALL
gas


@<TRIPOS>ATOM
      1 O1          85.3430   148.4820    14.5060 o          1 LIG      -0.270118
      2 C1          84.8890   149.3980    13.8250 c          1 LIG       0.263958
      3 N1          85.7240   150.4020    13.4340 ns         1 LIG      -0.245346
      4 C2          83.4630   149.4610    13.3000 c2         1 LIG       0.111151
      5 C3          85.3740   151.4690    12.5390 c1         1 LIG      -0.028300
      6 C4          82.6500   150.6860    13.7410 c2         1 LIG       0.069430
      7 C5          82.6130   148.3100    13.8350 c1         1 LIG      -0.024734
      8 C6          84.4590   152.4610    13.2020 ce         1 LIG       0.093184
      9 C7          83.2200   152.0950    13.7550 ce         1 LIG       0.066817
     10 C8          82.0330   150.2370    15.0850 c1         1 LIG      -0.028817
     11 N2          82.1570   148.7790    15.1430 n3         1 LIG      -0.107047
     12 C9          84.8740   153.8140    13.2420 c1         1 LIG      -0.067695
     13 C10         82.4320   153.1200    14.3100 c1         1 LIG      -0.056206
     14 C11         84.1010   154.8280    13.8190 c2         1 LIG       0.145198
     15 C12         82.8650   154.4520    14.3490 c1         1 LIG      -0.035744
     16 H1          86.6400   150.3950    13.7940 hn         1 LIG       0.165832
     17 N3          84.5470   156.1950    13.8450 n          1 LIG      -0.165298
     18 C13         84.6550   156.9660    12.6800 c          1 LIG       0.324954
     19 C14         85.1320   156.7390    15.0680 c1         1 LIG       0.021911
     20 O2          84.3660   156.6200    11.5370 o          1 LIG      -0.252099
     21 N4          85.1440   158.2390    12.8610 ns         1 LIG      -0.226954
     22 C15         84.7510   158.1930    15.2520 c1         1 LIG       0.014545
     23 C16         85.1190   158.9590    14.0210 c          1 LIG       0.296822
     24 O3          85.3060   160.1730    14.0300 o          1 LIG      -0.261606
     25 H2          85.5510   158.6730    12.0770 hn         1 LIG       0.161345
     26 C17         80.9730   148.0760    15.6320 c1         1 LIG      -0.013204
     27 C18         79.7010   148.8900    15.5080 ce         1 LIG       0.131804
     28 C19         79.1790   149.5700    16.6190 c1         1 LIG      -0.033781
     29 C20         79.0080   148.9520    14.2900 c1         1 LIG      -0.033781
     30 C21         77.9980   150.3060    16.5110 c1         1 LIG      -0.007503
     31 C22         77.8260   149.6880    14.1850 c1         1 LIG      -0.007503
     32 C23         77.3220   150.3650    15.2940 c1         1 LIG      -0.001214
@<TRIPOS>BOND
     1     1     2 2   
     2     2     3 1   
     3     3     5 1   
     4     3    16 1   
     5     4     2 1   
     6     4     6 1   
     7     4     7 1   
     8     6     9 1   
     9     6    10 1   
    10     7    11 1   
    11     8     5 1   
    12     8    12 2   
    13     8     9 1   
    14     9    13 2   
    15    10    11 1   
    16    11    26 1   
    17    13    15 1   
    18    14    12 1   
    19    14    17 1   
    20    14    15 2   
    21    17    18 1   
    22    17    19 1   
    23    18    20 2   
    24    18    21 1   
    25    19    22 1   
    26    21    23 1   
    27    21    25 1   
    28    22    23 1   
    29    23    24 2   
    30    26    27 1   
    31    27    28 2   
    32    27    29 1   
    33    28    30 1   
    34    29    31 2   
    35    30    32 2   
    36    31    32 1   
@<TRIPOS>SUBSTRUCTURE
     1 LIG         1 TEMP              0 ****  ****    0 ROOT
