@<TRIPOS>MOLECULE
LIG
   32    34     1     0     0
SMALL
gas


@<TRIPOS>ATOM
      1 C1          84.6880   154.1260    13.3560 c2         1 LIG       0.124800
      2 C2          83.5620   153.5530    13.9890 c2         1 LIG       0.144033
      3 C3          85.5480   153.3010    12.5960 c2         1 LIG       0.169104
      4 C4          83.3260   152.1690    13.9370 ce         1 LIG       0.113791
      5 C5          85.2750   151.9340    12.4920 c1         1 LIG      -0.032002
      6 C6          84.1860   151.3750    13.1650 c1         1 LIG      -0.046845
      7 O1          84.4870   156.1260    11.2830 o          1 LIG      -0.252137
      8 C7          84.9060   156.3880    12.4070 c          1 LIG       0.324078
      9 N1          84.9740   155.5190    13.4910 n          1 LIG      -0.174869
     10 N2          85.2690   157.6840    12.6960 ns         1 LIG      -0.226983
     11 C8          85.5160   156.0070    14.7490 c1         1 LIG       0.020999
     12 C9          85.0880   158.2750    13.9180 c          1 LIG       0.296821
     13 C10         84.9020   157.3460    15.0880 c1         1 LIG       0.014511
     14 O2          85.0050   159.4950    14.0320 o          1 LIG      -0.261606
     15 H1          85.6840   158.2190    11.9810 hn         1 LIG       0.161344
     16 O3          82.6670   154.3500    14.6650 os         1 LIG      -0.254803
     17 C11         81.7990   155.0150    13.7470 c1         1 LIG       0.090565
     18 O4          86.6400   153.9050    12.0180 os         1 LIG      -0.247600
     19 C12         87.6220   153.0560    11.4380 c1         1 LIG       0.091180
     20 C13         82.1720   151.5090    14.6720 c1         1 LIG      -0.026454
     21 N3          82.6420   150.5160    15.6570 n3         1 LIG      -0.121304
     22 C14         82.4230   150.9240    17.0690 c2         1 LIG       0.169539
     23 C15         84.0280   150.0920    15.3670 c1         1 LIG       0.015076
     24 C16         83.0790   152.2610    17.5190 c1         1 LIG      -0.026803
     25 C17         85.1020   150.3610    16.4290 c1         1 LIG       0.008296
     26 N4          84.2360   152.7400    16.7550 n7         1 LIG      -0.181435
     27 C18         85.3790   151.8380    16.7090 c1         1 LIG       0.006146
     28 H2          84.5460   153.6180    17.1720 hn         1 LIG       0.153771
     29 C19         80.9270   150.9280    17.4310 c          1 LIG       0.312324
     30 O5          80.3360   150.2440    18.2530 o          1 LIG      -0.258875
     31 O6          80.2330   151.8720    16.7520 oh         1 LIG      -0.326499
     32 H3          80.6670   152.4060    16.1170 ho         1 LIG       0.221838
@<TRIPOS>BOND
     1     1     9 1   
     2     1     2 2   
     3     1     3 1   
     4     2    16 1   
     5     2     4 1   
     6     3    18 1   
     7     3     5 2   
     8     4     6 2   
     9     4    20 1   
    10     5     6 1   
    11     7     8 2   
    12     8     9 1   
    13     8    10 1   
    14     9    11 1   
    15    10    12 1   
    16    10    15 1   
    17    11    13 1   
    18    12    14 2   
    19    12    13 1   
    20    16    17 1   
    21    18    19 1   
    22    20    21 1   
    23    21    22 1   
    24    21    23 1   
    25    22    29 1   
    26    22    24 1   
    27    23    25 1   
    28    24    26 1   
    29    25    27 1   
    30    26    27 1   
    31    26    28 1   
    32    29    30 2   
    33    29    31 1   
    34    31    32 1   
@<TRIPOS>SUBSTRUCTURE
     1 LIG         1 TEMP              0 ****  ****    0 ROOT
