@<TRIPOS>MOLECULE
LIG
   34    38     1     0     0
SMALL
gas


@<TRIPOS>ATOM
      1 O1          86.9120   150.1160     8.8610 o          1 LIG      -0.270118
      2 C1          87.2370   150.3890    10.0180 c          1 LIG       0.263957
      3 N1          87.8740   151.5650    10.2560 ns         1 LIG      -0.245347
      4 C2          86.9910   149.4080    11.1440 c2         1 LIG       0.111129
      5 C3          88.1440   152.1390    11.5470 c1         1 LIG      -0.028345
      6 C4          86.3620   149.8920    12.4620 c2         1 LIG       0.068868
      7 C5          88.2690   148.6780    11.5500 c1         1 LIG      -0.024735
      8 C6          86.8580   152.4050    12.2790 ce         1 LIG       0.092071
      9 C7          86.0160   151.3510    12.6720 ce         1 LIG       0.061138
     10 C8          87.3180   149.3680    13.5510 c1         1 LIG      -0.028840
     11 N2          88.0820   148.2610    12.9530 n3         1 LIG      -0.107047
     12 C9          86.4910   153.7390    12.5590 c1         1 LIG      -0.073419
     13 C10         84.8180   151.6690    13.3280 c1         1 LIG      -0.072563
     14 C11         85.2970   154.0650    13.2210 c2         1 LIG       0.134070
     15 C12         84.4510   153.0000    13.5690 c2         1 LIG       0.166952
     16 H1          88.1800   152.0730     9.4700 hn         1 LIG       0.165832
     17 N3          85.0070   155.4380    13.5340 n          1 LIG      -0.169961
     18 C13         84.7260   156.3730    12.5370 c          1 LIG       0.324536
     19 C14         84.8190   155.8370    14.9250 c1         1 LIG       0.021476
     20 O2          84.6920   156.1610    11.3270 o          1 LIG      -0.252117
     21 N4          84.4590   157.6450    12.9850 ns         1 LIG      -0.226968
     22 C15         85.4140   157.2070    15.1740 c1         1 LIG       0.014529
     23 C16         84.8530   158.1780    14.1800 c          1 LIG       0.296821
     24 O3          84.8250   159.3880    14.3840 o          1 LIG      -0.261606
     25 H2          83.9350   158.2270    12.3890 hn         1 LIG       0.161344
     26 O4          83.2190   153.2060    14.1440 os         1 LIG      -0.247656
     27 C17         82.6750   154.4470    13.6870 c1         1 LIG       0.091180
     28 C18         87.3560   146.9820    13.0720 c1         1 LIG      -0.013204
     29 C19         86.2930   147.0020    14.1500 ce         1 LIG       0.131804
     30 C20         84.9360   146.8820    13.8150 c1         1 LIG      -0.033781
     31 C21         86.6480   147.1200    15.5020 c1         1 LIG      -0.033781
     32 C22         83.9550   146.8860    14.8090 c1         1 LIG      -0.007503
     33 C23         85.6660   147.1240    16.4940 c1         1 LIG      -0.007503
     34 C24         84.3210   147.0070    16.1480 c1         1 LIG      -0.001214
@<TRIPOS>BOND
     1     1     2 2   
     2     2     3 1   
     3     3     5 1   
     4     3    16 1   
     5     4     2 1   
     6     4     6 1   
     7     4     7 1   
     8     6     9 1   
     9     6    10 1   
    10     7    11 1   
    11     8     5 1   
    12     8    12 2   
    13     8     9 1   
    14     9    13 2   
    15    10    11 1   
    16    11    28 1   
    17    13    15 1   
    18    14    12 1   
    19    14    17 1   
    20    14    15 2   
    21    15    26 1   
    22    17    18 1   
    23    17    19 1   
    24    18    20 2   
    25    18    21 1   
    26    19    22 1   
    27    21    23 1   
    28    21    25 1   
    29    22    23 1   
    30    23    24 2   
    31    26    27 1   
    32    28    29 1   
    33    29    30 2   
    34    29    31 1   
    35    30    32 1   
    36    31    33 2   
    37    32    34 2   
    38    33    34 1   
@<TRIPOS>SUBSTRUCTURE
     1 LIG         1 TEMP              0 ****  ****    0 ROOT
