@<TRIPOS>MOLECULE
LIG
   34    38     1     0     0
SMALL
gas


@<TRIPOS>ATOM
      1 O1          82.6860   148.6800    12.9450 o          1 LIG      -0.270119
      2 C1          83.4730   149.2730    13.6840 c          1 LIG       0.263942
      3 N1          82.9770   150.2090    14.5340 ns         1 LIG      -0.245797
      4 C2          84.9440   148.9200    13.7070 c2         1 LIG       0.111129
      5 C3          83.7460   151.1340    15.3230 c1         1 LIG      -0.034104
      6 C4          86.0080   150.0350    13.6940 c2         1 LIG       0.068884
      7 C5          85.2900   148.0470    14.9120 c1         1 LIG      -0.024735
      8 C6          84.5640   152.0360    14.4400 ce         1 LIG       0.083173
      9 C7          85.6150   151.4990    13.6700 ce         1 LIG       0.061664
     10 C8          86.9200   149.7070    14.8900 c1         1 LIG      -0.028840
     11 N2          86.7310   148.2680    15.0880 n3         1 LIG      -0.107047
     12 C9          84.2800   153.4190    14.3550 c2         1 LIG       0.142267
     13 C10         86.3710   152.3690    12.8700 c1         1 LIG      -0.057331
     14 C11         85.0790   154.3030    13.5980 c2         1 LIG       0.134087
     15 C12         86.1110   153.7420    12.8380 c1         1 LIG      -0.041519
     16 H1          81.9970   150.2590    14.6180 hn         1 LIG       0.165812
     17 N3          84.9090   155.7290    13.6150 n          1 LIG      -0.169993
     18 C13         85.0650   156.5030    12.4650 c          1 LIG       0.324534
     19 C14         84.4350   156.3860    14.8290 c1         1 LIG       0.021474
     20 O2          85.3180   156.0860    11.3380 o          1 LIG      -0.252117
     21 N4          84.9080   157.8560    12.6460 ns         1 LIG      -0.226968
     22 C15         85.1790   157.6860    15.0540 c1         1 LIG       0.014529
     23 C16         85.0760   158.5320    13.8220 c          1 LIG       0.296821
     24 O3          85.2160   159.7520    13.8470 o          1 LIG      -0.261606
     25 H2          84.6520   158.3870    11.8570 hn         1 LIG       0.161344
     26 O4          83.1630   153.8830    15.0180 os         1 LIG      -0.254866
     27 C17         82.0080   153.7200    14.1850 c1         1 LIG       0.090564
     28 C18         87.2320   147.8190    16.3910 c1         1 LIG      -0.013204
     29 C19         88.3620   148.6750    16.9190 ce         1 LIG       0.131804
     30 C20         89.1910   148.2120    17.9500 c1         1 LIG      -0.033781
     31 C21         88.5910   149.9540    16.3890 c1         1 LIG      -0.033781
     32 C22         90.2280   149.0100    18.4380 c1         1 LIG      -0.007503
     33 C23         89.6280   150.7500    16.8780 c1         1 LIG      -0.007503
     34 C24         90.4460   150.2780    17.9020 c1         1 LIG      -0.001214
@<TRIPOS>BOND
     1     1     2 2   
     2     2     3 1   
     3     3     5 1   
     4     3    16 1   
     5     4     2 1   
     6     4     6 1   
     7     4     7 1   
     8     6     9 1   
     9     6    10 1   
    10     7    11 1   
    11     8     5 1   
    12     8    12 2   
    13     8     9 1   
    14     9    13 2   
    15    10    11 1   
    16    11    28 1   
    17    12    26 1   
    18    12    14 1   
    19    13    15 1   
    20    14    17 1   
    21    14    15 2   
    22    17    18 1   
    23    17    19 1   
    24    18    20 2   
    25    18    21 1   
    26    19    22 1   
    27    21    23 1   
    28    21    25 1   
    29    22    23 1   
    30    23    24 2   
    31    26    27 1   
    32    28    29 1   
    33    29    30 2   
    34    29    31 1   
    35    30    32 1   
    36    31    33 2   
    37    32    34 2   
    38    33    34 1   
@<TRIPOS>SUBSTRUCTURE
     1 LIG         1 TEMP              0 ****  ****    0 ROOT
