
  ACCLDraw09082612152D

  0  0  0     0  0            999 V3000
M  V30 BEGIN CTAB
M  V30 COUNTS 20 22 0 0 0
M  V30 BEGIN ATOM
M  V30 1 C 9.824 -4.7041 0 0 
M  V30 2 C 6.7064 -8.304 0 0 
M  V30 3 N 10.3436 -5.0041 0 0 CFG=3 
M  V30 4 C 9.3044 -5.0041 0 0 
M  V30 5 C 7.226 -8.604 0 0 
M  V30 6 C 6.7064 -7.704 0 0 
M  V30 7 C 10.3436 -5.6041 0 0 
M  V30 8 C 9.3044 -5.6041 0 0 
M  V30 9 C 7.7456 -8.3041 0 0 
M  V30 10 C 7.226 -7.4041 0 0 
M  V30 11 C 8.7848 -5.9041 0 0 
M  V30 12 C 9.824 -5.9041 0 0 
M  V30 13 C 7.7456 -7.7041 0 0 
M  V30 14 C 8.7848 -6.5041 0 0 
M  V30 15 N 9.824 -6.5041 0 0 
M  V30 16 C 8.2652 -7.4041 0 0 
M  V30 17 C 9.3044 -6.8041 0 0 
M  V30 18 N 8.7848 -7.7041 0 0 CFG=3 
M  V30 19 C 9.3044 -7.4041 0 0 
M  V30 20 O 9.824 -7.7041 0 0 
M  V30 END ATOM
M  V30 BEGIN BOND
M  V30 1 1 3 1 
M  V30 2 1 5 2 
M  V30 3 1 11 8 
M  V30 4 1 4 1 
M  V30 5 2 6 2 
M  V30 6 1 7 3 
M  V30 7 1 8 4 
M  V30 8 2 9 5 
M  V30 9 1 10 6 
M  V30 10 1 12 7 
M  V30 11 2 12 8 
M  V30 12 1 13 9 
M  V30 13 2 13 10 
M  V30 14 2 14 11 
M  V30 15 1 15 12 
M  V30 16 1 16 13 
M  V30 17 1 17 14 
M  V30 18 2 17 15 
M  V30 19 1 18 16 
M  V30 20 1 19 17 
M  V30 21 1 19 18 
M  V30 22 2 20 19 
M  V30 END BOND
M  V30 END CTAB
M  END
