clean_pose_3
     RDKit          3D

 59 63  0  0  0  0  0  0  0  0999 V2000
   -6.2969   40.5124   45.0998 C   0  0  0  0  0  0  0  0  0  0  0  0
   -5.4512   41.5629   45.1924 N   0  0  0  0  0  0  0  0  0  0  0  0
   -7.5431   40.5452   44.5808 N   0  0  0  0  0  0  0  0  0  0  0  0
   -5.8005   42.7742   44.6872 C   0  0  0  0  0  0  0  0  0  0  0  0
   -7.8673   41.7648   44.1371 C   0  0  0  0  0  0  0  0  0  0  0  0
   -7.0899   42.9047   44.1491 C   0  0  0  0  0  0  0  0  0  0  0  0
   -9.0416   42.1429   43.5548 N   0  0  0  0  0  0  0  0  0  0  0  0
   -7.7711   43.9693   43.5881 N   0  0  0  0  0  0  0  0  0  0  0  0
   -8.9391   43.4713   43.2411 C   0  0  0  0  0  0  0  0  0  0  0  0
   -5.8762   39.2367   45.5097 N   0  0  0  0  0  0  0  0  0  0  0  0
   -2.3322   39.5151   46.6095 C   0  0  0  0  0  0  0  0  0  0  0  0
   -1.9276   38.1668   46.5943 C   0  0  0  0  0  0  0  0  0  0  0  0
   -3.6281   39.8506   46.1897 C   0  0  0  0  0  0  0  0  0  0  0  0
   -2.8655   37.1829   46.2448 C   0  0  0  0  0  0  0  0  0  0  0  0
   -0.5440   37.7328   46.9915 C   0  0  0  0  0  0  0  0  0  0  0  0
   -4.5602   38.8686   45.8337 C   0  0  0  0  0  0  0  0  0  0  0  0
   -4.1707   37.5308   45.8922 C   0  0  0  0  0  0  0  0  0  0  0  0
   -1.6826   40.3312   49.3252 O   0  0  0  0  0  0  0  0  0  0  0  0
   -1.2169   40.9045   48.3407 C   0  0  0  0  0  0  0  0  0  0  0  0
   -0.3936   42.0027   48.4703 N   0  0  0  0  0  0  0  0  0  0  0  0
   -1.4245   40.5123   47.0364 N   0  0  0  0  0  0  0  0  0  0  0  0
    0.0874   42.8830   47.4147 C   0  0  0  0  0  0  0  0  0  0  0  0
   -0.0488   42.5222   49.7824 C   0  0  0  0  0  0  0  0  0  0  0  0
    0.5620   44.1326   48.1439 C   0  0  0  0  0  0  0  0  0  0  0  0
    0.9932   43.5939   49.5019 C   0  0  0  0  0  0  0  0  0  0  0  0
   -4.9023   43.8520   44.7042 N   0  0  0  0  0  0  0  0  0  0  0  0
   -4.9762   44.7270   43.5320 C   0  0  0  0  0  0  0  0  0  0  0  0
   -3.6793   44.7689   42.7097 C   0  0  0  0  0  0  0  0  0  0  0  0
   -3.3489   46.1025   42.1310 C   0  0  0  0  0  0  0  0  0  0  0  0
   -2.1579   46.7293   42.4270 N   0  0  0  0  0  0  0  0  0  0  0  0
   -4.0820   46.8713   41.2517 C   0  0  0  0  0  0  0  0  0  0  0  0
   -2.1925   47.8706   41.7770 C   0  0  0  0  0  0  0  0  0  0  0  0
   -3.3412   48.0036   41.0512 N   0  0  0  0  0  0  0  0  0  0  0  0
   -9.8575   41.5383   43.3824 H   0  0  0  0  0  0  0  0  0  0  0  0
   -9.7373   44.0531   42.7569 H   0  0  0  0  0  0  0  0  0  0  0  0
   -6.5979   38.5051   45.5789 H   0  0  0  0  0  0  0  0  0  0  0  0
   -3.9187   40.9103   46.1391 H   0  0  0  0  0  0  0  0  0  0  0  0
   -2.5683   36.1238   46.2488 H   0  0  0  0  0  0  0  0  0  0  0  0
   -0.4680   37.7090   48.0886 H   0  0  0  0  0  0  0  0  0  0  0  0
   -0.3447   36.7290   46.5882 H   0  0  0  0  0  0  0  0  0  0  0  0
    0.1930   38.4429   46.5882 H   0  0  0  0  0  0  0  0  0  0  0  0
   -4.8998   36.7412   45.6580 H   0  0  0  0  0  0  0  0  0  0  0  0
   -0.8706   40.9865   46.3089 H   0  0  0  0  0  0  0  0  0  0  0  0
    0.9179   42.4143   46.8664 H   0  0  0  0  0  0  0  0  0  0  0  0
   -0.6906   43.1048   46.6694 H   0  0  0  0  0  0  0  0  0  0  0  0
   -0.9319   42.9568   50.2736 H   0  0  0  0  0  0  0  0  0  0  0  0
    0.3256   41.7395   50.4586 H   0  0  0  0  0  0  0  0  0  0  0  0
    1.4071   44.6004   47.6177 H   0  0  0  0  0  0  0  0  0  0  0  0
   -0.2094   44.9138   48.2125 H   0  0  0  0  0  0  0  0  0  0  0  0
    0.9671   44.3828   50.2681 H   0  0  0  0  0  0  0  0  0  0  0  0
    2.0251   43.2130   49.5129 H   0  0  0  0  0  0  0  0  0  0  0  0
   -4.2436   44.0148   45.4791 H   0  0  0  0  0  0  0  0  0  0  0  0
   -5.7881   44.3688   42.8820 H   0  0  0  0  0  0  0  0  0  0  0  0
   -5.1545   45.7470   43.9031 H   0  0  0  0  0  0  0  0  0  0  0  0
   -2.8492   44.4647   43.3641 H   0  0  0  0  0  0  0  0  0  0  0  0
   -3.8310   44.0904   41.8573 H   0  0  0  0  0  0  0  0  0  0  0  0
   -5.0570   46.6257   40.8056 H   0  0  0  0  0  0  0  0  0  0  0  0
   -1.3939   48.6262   41.8131 H   0  0  0  0  0  0  0  0  0  0  0  0
   -3.6016   48.8073   40.4620 H   0  0  0  0  0  0  0  0  0  0  0  0
 18 19  2  0
 19 20  1  0
 19 21  1  0
 20 22  1  0
 20 23  1  0
 21 11  1  0
 22 24  1  0
 23 25  1  0
 11 12  2  0
 11 13  1  0
 12 14  1  0
 12 15  1  0
 13 16  2  0
 14 17  2  0
 16 10  1  0
 10  1  1  0
  1  2  2  0
  1  3  1  0
  2  4  1  0
  3  5  2  0
  4 26  1  0
  4  6  2  0
  5  7  1  0
 26 27  1  0
  6  8  1  0
  7  9  1  0
 27 28  1  0
 28 29  1  0
 29 30  1  0
 29 31  2  0
 30 32  2  0
 31 33  1  0
 24 25  1  0
 16 17  1  0
  5  6  1  0
  8  9  2  0
 32 33  1  0
  7 34  1  0
  9 35  1  0
 10 36  1  0
 13 37  1  0
 14 38  1  0
 15 39  1  0
 15 40  1  0
 15 41  1  0
 17 42  1  0
 21 43  1  0
 22 44  1  0
 22 45  1  0
 23 46  1  0
 23 47  1  0
 24 48  1  0
 24 49  1  0
 25 50  1  0
 25 51  1  0
 26 52  1  0
 27 53  1  0
 27 54  1  0
 28 55  1  0
 28 56  1  0
 31 57  1  0
 32 58  1  0
 33 59  1  0
M  END
$$$$
