EL2003A-A2U1_pose1
     RDKit          3D

 38 42  0  0  0  0  0  0  0  0999 V2000
   -7.2260   41.5464   44.4815 C   0  0  0  0  0  0  0  0  0  0  0  0
   -6.4210   42.6032   44.7317 N   0  0  0  0  0  0  0  0  0  0  0  0
   -8.4067   41.5903   43.8278 N   0  0  0  0  0  0  0  0  0  0  0  0
   -6.7404   43.8375   44.2636 C   0  0  0  0  0  0  0  0  0  0  0  0
   -8.7081   42.8294   43.4240 C   0  0  0  0  0  0  0  0  0  0  0  0
   -7.9642   43.9793   43.5920 C   0  0  0  0  0  0  0  0  0  0  0  0
   -9.8186   43.2231   42.7363 N   0  0  0  0  0  0  0  0  0  0  0  0
   -8.6036   45.0651   43.0222 N   0  0  0  0  0  0  0  0  0  0  0  0
   -9.7132   44.5699   42.5162 C   0  0  0  0  0  0  0  0  0  0  0  0
  -10.5679   42.6162   42.4420 H   0  0  0  0  0  0  0  0  0  0  0  0
   -6.8235   40.2549   44.8594 N   0  0  0  0  0  0  0  0  0  0  0  0
   -7.2695   39.6214   44.2098 H   0  0  0  0  0  0  0  0  0  0  0  0
   -3.9957   38.1367   46.0271 C   0  0  0  0  0  0  0  0  0  0  0  0
   -2.9363   39.0637   46.0352 C   0  0  0  0  0  0  0  0  0  0  0  0
   -5.2871   38.5689   45.6899 C   0  0  0  0  0  0  0  0  0  0  0  0
   -3.1855   40.3798   45.6160 C   0  0  0  0  0  0  0  0  0  0  0  0
   -1.5337   38.6859   46.4233 C   0  0  0  0  0  0  0  0  0  0  0  0
   -5.5358   39.8840   45.2795 C   0  0  0  0  0  0  0  0  0  0  0  0
   -4.4649   40.7754   45.2216 C   0  0  0  0  0  0  0  0  0  0  0  0
   -5.2292   36.5405   48.1233 O   0  0  0  0  0  0  0  0  0  0  0  0
   -4.3119   36.1082   47.4260 C   0  0  0  0  0  0  0  0  0  0  0  0
   -3.7820   34.8523   47.6321 N   0  0  0  0  0  0  0  0  0  0  0  0
   -3.7461   36.7872   46.3691 N   0  0  0  0  0  0  0  0  0  0  0  0
   -2.5960   34.2753   47.0149 C   0  0  0  0  0  0  0  0  0  0  0  0
   -4.2926   33.9944   48.6874 C   0  0  0  0  0  0  0  0  0  0  0  0
   -2.2356   33.0946   47.9063 C   0  0  0  0  0  0  0  0  0  0  0  0
   -3.5844   32.6662   48.4696 C   0  0  0  0  0  0  0  0  0  0  0  0
   -3.3983   36.1911   45.6363 H   0  0  0  0  0  0  0  0  0  0  0  0
   -5.8755   44.9271   44.4465 N   0  0  0  0  0  0  0  0  0  0  0  0
   -6.3559   45.7681   44.1259 H   0  0  0  0  0  0  0  0  0  0  0  0
   -4.5391   44.7485   43.8744 C   0  0  0  0  0  0  0  0  0  0  0  0
   -3.6684   46.0128   43.9322 C   0  0  0  0  0  0  0  0  0  0  0  0
   -3.8739   46.9655   42.8041 C   0  0  0  0  0  0  0  0  0  0  0  0
   -4.1197   48.3009   43.0387 N   0  0  0  0  0  0  0  0  0  0  0  0
   -3.8288   46.7243   41.4470 C   0  0  0  0  0  0  0  0  0  0  0  0
   -4.2649   48.8437   41.8510 C   0  0  0  0  0  0  0  0  0  0  0  0
   -4.0995   47.9265   40.8533 N   0  0  0  0  0  0  0  0  0  0  0  0
   -4.1839   48.1053   39.8555 H   0  0  0  0  0  0  0  0  0  0  0  0
 20 21  2  0
 21 22  1  0
 21 23  1  0
 22 24  1  0
 22 25  1  0
 23 13  1  0
 24 26  1  0
 25 27  1  0
 13 14  2  0
 13 15  1  0
 14 16  1  0
 14 17  1  0
 15 18  2  0
 16 19  2  0
 18 11  1  0
 11  1  1  0
  1  2  2  0
  1  3  1  0
  2  4  1  0
  3  5  2  0
  4 29  1  0
  4  6  2  0
  5  7  1  0
 29 31  1  0
  6  8  1  0
  7  9  1  0
 31 32  1  0
 32 33  1  0
 33 34  1  0
 33 35  2  0
 34 36  2  0
 35 37  1  0
 26 27  1  0
 18 19  1  0
  5  6  1  0
  8  9  2  0
 36 37  1  0
 23 28  1  0
 11 12  1  0
 29 30  1  0
  7 10  1  0
 37 38  1  0
M  END
>  <MMFF94_energy_kcal_mol>  (1) 
-80.5413

>  <pIC50 PDK>  (1) 
7.6

>  <Note>  (1) 
No stereocenters; single enantiomer (achiral molecule)

>  <minimizedAffinity>  (1) 
-9.35506

>  <CNNscore>  (1) 
0.9744322896

>  <CNNaffinity>  (1) 
7.8898911476

>  <CNN_VS>  (1) 
7.6881647110

>  <CNNaffinity_variance>  (1) 
0.2477966547

$$$$
EL2003A-A2U1_pose2
     RDKit          3D

 38 42  0  0  0  0  0  0  0  0999 V2000
   -7.0304   41.1871   44.4266 C   0  0  0  0  0  0  0  0  0  0  0  0
   -6.2529   42.2163   44.8312 N   0  0  0  0  0  0  0  0  0  0  0  0
   -8.2139   41.2959   43.7855 N   0  0  0  0  0  0  0  0  0  0  0  0
   -6.6061   43.4974   44.5506 C   0  0  0  0  0  0  0  0  0  0  0  0
   -8.5491   42.5728   43.5693 C   0  0  0  0  0  0  0  0  0  0  0  0
   -7.8353   43.7045   43.9063 C   0  0  0  0  0  0  0  0  0  0  0  0
   -9.6717   43.0343   42.9465 N   0  0  0  0  0  0  0  0  0  0  0  0
   -8.5048   44.8453   43.5029 N   0  0  0  0  0  0  0  0  0  0  0  0
   -9.6025   44.4012   42.9282 C   0  0  0  0  0  0  0  0  0  0  0  0
  -10.4055   42.4579   42.5649 H   0  0  0  0  0  0  0  0  0  0  0  0
   -6.5929   39.8651   44.6095 N   0  0  0  0  0  0  0  0  0  0  0  0
   -6.7356   39.3980   43.7243 H   0  0  0  0  0  0  0  0  0  0  0  0
   -3.1584   39.9235   46.0405 C   0  0  0  0  0  0  0  0  0  0  0  0
   -3.1672   38.7628   46.8370 C   0  0  0  0  0  0  0  0  0  0  0  0
   -4.2853   40.2364   45.2658 C   0  0  0  0  0  0  0  0  0  0  0  0
   -4.3415   37.9970   46.9040 C   0  0  0  0  0  0  0  0  0  0  0  0
   -1.9846   38.3398   47.6636 C   0  0  0  0  0  0  0  0  0  0  0  0
   -5.4534   39.4671   45.3275 C   0  0  0  0  0  0  0  0  0  0  0  0
   -5.4757   38.3603   46.1756 C   0  0  0  0  0  0  0  0  0  0  0  0
   -0.8400   39.7722   44.2897 O   0  0  0  0  0  0  0  0  0  0  0  0
   -0.9088   40.5797   45.2158 C   0  0  0  0  0  0  0  0  0  0  0  0
    0.1358   41.4311   45.5070 N   0  0  0  0  0  0  0  0  0  0  0  0
   -2.0114   40.7509   46.0240 N   0  0  0  0  0  0  0  0  0  0  0  0
    0.2732   42.3075   46.6618 C   0  0  0  0  0  0  0  0  0  0  0  0
    1.3597   41.4003   44.7249 C   0  0  0  0  0  0  0  0  0  0  0  0
    1.7545   42.6579   46.7032 C   0  0  0  0  0  0  0  0  0  0  0  0
    2.1653   42.5837   45.2383 C   0  0  0  0  0  0  0  0  0  0  0  0
   -2.1242   41.6885   46.3725 H   0  0  0  0  0  0  0  0  0  0  0  0
   -5.7697   44.5705   44.8935 N   0  0  0  0  0  0  0  0  0  0  0  0
   -6.1992   45.0679   45.6738 H   0  0  0  0  0  0  0  0  0  0  0  0
   -5.3919   45.4328   43.7715 C   0  0  0  0  0  0  0  0  0  0  0  0
   -4.0772   45.0216   43.0918 C   0  0  0  0  0  0  0  0  0  0  0  0
   -3.4288   46.0940   42.2843 C   0  0  0  0  0  0  0  0  0  0  0  0
   -2.1898   46.5901   42.6276 N   0  0  0  0  0  0  0  0  0  0  0  0
   -3.8831   46.7093   41.1368 C   0  0  0  0  0  0  0  0  0  0  0  0
   -1.9237   47.5154   41.7335 C   0  0  0  0  0  0  0  0  0  0  0  0
   -2.9223   47.6262   40.8092 N   0  0  0  0  0  0  0  0  0  0  0  0
   -2.9510   48.2850   40.0346 H   0  0  0  0  0  0  0  0  0  0  0  0
 20 21  2  0
 21 22  1  0
 21 23  1  0
 22 24  1  0
 22 25  1  0
 23 13  1  0
 24 26  1  0
 25 27  1  0
 13 14  2  0
 13 15  1  0
 14 16  1  0
 14 17  1  0
 15 18  2  0
 16 19  2  0
 18 11  1  0
 11  1  1  0
  1  2  2  0
  1  3  1  0
  2  4  1  0
  3  5  2  0
  4 29  1  0
  4  6  2  0
  5  7  1  0
 29 31  1  0
  6  8  1  0
  7  9  1  0
 31 32  1  0
 32 33  1  0
 33 34  1  0
 33 35  2  0
 34 36  2  0
 35 37  1  0
 26 27  1  0
 18 19  1  0
  5  6  1  0
  8  9  2  0
 36 37  1  0
 23 28  1  0
 11 12  1  0
 29 30  1  0
  7 10  1  0
 37 38  1  0
M  END
>  <MMFF94_energy_kcal_mol>  (2) 
-80.5413

>  <pIC50 PDK>  (2) 
7.6

>  <Note>  (2) 
No stereocenters; single enantiomer (achiral molecule)

>  <minimizedAffinity>  (2) 
-9.75990

>  <CNNscore>  (2) 
0.9422958493

>  <CNNaffinity>  (2) 
7.7117867470

>  <CNN_VS>  (2) 
7.2667846680

>  <CNNaffinity_variance>  (2) 
0.4505155385

$$$$
EL2003A-A2U1_pose3
     RDKit          3D

 38 42  0  0  0  0  0  0  0  0999 V2000
   -6.2969   40.5124   45.0998 C   0  0  0  0  0  0  0  0  0  0  0  0
   -5.4512   41.5629   45.1924 N   0  0  0  0  0  0  0  0  0  0  0  0
   -7.5431   40.5452   44.5808 N   0  0  0  0  0  0  0  0  0  0  0  0
   -5.8005   42.7742   44.6872 C   0  0  0  0  0  0  0  0  0  0  0  0
   -7.8673   41.7648   44.1371 C   0  0  0  0  0  0  0  0  0  0  0  0
   -7.0899   42.9047   44.1491 C   0  0  0  0  0  0  0  0  0  0  0  0
   -9.0416   42.1429   43.5548 N   0  0  0  0  0  0  0  0  0  0  0  0
   -7.7711   43.9693   43.5881 N   0  0  0  0  0  0  0  0  0  0  0  0
   -8.9391   43.4713   43.2411 C   0  0  0  0  0  0  0  0  0  0  0  0
   -9.8295   41.5375   43.3844 H   0  0  0  0  0  0  0  0  0  0  0  0
   -5.8762   39.2367   45.5097 N   0  0  0  0  0  0  0  0  0  0  0  0
   -6.3851   38.5767   44.9373 H   0  0  0  0  0  0  0  0  0  0  0  0
   -2.3322   39.5151   46.6095 C   0  0  0  0  0  0  0  0  0  0  0  0
   -1.9276   38.1668   46.5943 C   0  0  0  0  0  0  0  0  0  0  0  0
   -3.6281   39.8506   46.1897 C   0  0  0  0  0  0  0  0  0  0  0  0
   -2.8655   37.1829   46.2448 C   0  0  0  0  0  0  0  0  0  0  0  0
   -0.5440   37.7328   46.9915 C   0  0  0  0  0  0  0  0  0  0  0  0
   -4.5602   38.8686   45.8337 C   0  0  0  0  0  0  0  0  0  0  0  0
   -4.1707   37.5308   45.8922 C   0  0  0  0  0  0  0  0  0  0  0  0
   -1.6826   40.3312   49.3252 O   0  0  0  0  0  0  0  0  0  0  0  0
   -1.2169   40.9045   48.3407 C   0  0  0  0  0  0  0  0  0  0  0  0
   -0.3936   42.0027   48.4703 N   0  0  0  0  0  0  0  0  0  0  0  0
   -1.4245   40.5123   47.0364 N   0  0  0  0  0  0  0  0  0  0  0  0
    0.0874   42.8830   47.4147 C   0  0  0  0  0  0  0  0  0  0  0  0
   -0.0488   42.5222   49.7824 C   0  0  0  0  0  0  0  0  0  0  0  0
    0.5620   44.1326   48.1439 C   0  0  0  0  0  0  0  0  0  0  0  0
    0.9932   43.5939   49.5019 C   0  0  0  0  0  0  0  0  0  0  0  0
   -0.6603   40.7245   46.4165 H   0  0  0  0  0  0  0  0  0  0  0  0
   -4.9023   43.8520   44.7042 N   0  0  0  0  0  0  0  0  0  0  0  0
   -5.0113   44.3390   45.5940 H   0  0  0  0  0  0  0  0  0  0  0  0
   -4.9762   44.7270   43.5320 C   0  0  0  0  0  0  0  0  0  0  0  0
   -3.6793   44.7689   42.7097 C   0  0  0  0  0  0  0  0  0  0  0  0
   -3.3489   46.1025   42.1310 C   0  0  0  0  0  0  0  0  0  0  0  0
   -2.1579   46.7293   42.4270 N   0  0  0  0  0  0  0  0  0  0  0  0
   -4.0820   46.8713   41.2517 C   0  0  0  0  0  0  0  0  0  0  0  0
   -2.1925   47.8706   41.7770 C   0  0  0  0  0  0  0  0  0  0  0  0
   -3.3412   48.0036   41.0512 N   0  0  0  0  0  0  0  0  0  0  0  0
   -3.6020   48.8072   40.4848 H   0  0  0  0  0  0  0  0  0  0  0  0
 20 21  2  0
 21 22  1  0
 21 23  1  0
 22 24  1  0
 22 25  1  0
 23 13  1  0
 24 26  1  0
 25 27  1  0
 13 14  2  0
 13 15  1  0
 14 16  1  0
 14 17  1  0
 15 18  2  0
 16 19  2  0
 18 11  1  0
 11  1  1  0
  1  2  2  0
  1  3  1  0
  2  4  1  0
  3  5  2  0
  4 29  1  0
  4  6  2  0
  5  7  1  0
 29 31  1  0
  6  8  1  0
  7  9  1  0
 31 32  1  0
 32 33  1  0
 33 34  1  0
 33 35  2  0
 34 36  2  0
 35 37  1  0
 26 27  1  0
 18 19  1  0
  5  6  1  0
  8  9  2  0
 36 37  1  0
 23 28  1  0
 11 12  1  0
 29 30  1  0
  7 10  1  0
 37 38  1  0
M  END
>  <MMFF94_energy_kcal_mol>  (3) 
-80.5413

>  <pIC50 PDK>  (3) 
7.6

>  <Note>  (3) 
No stereocenters; single enantiomer (achiral molecule)

>  <minimizedAffinity>  (3) 
-8.35252

>  <CNNscore>  (3) 
0.8996303082

>  <CNNaffinity>  (3) 
7.3750529289

>  <CNN_VS>  (3) 
6.6348209381

>  <CNNaffinity_variance>  (3) 
0.2313739508

$$$$
EL2003A-A2U1_pose4
     RDKit          3D

 38 42  0  0  0  0  0  0  0  0999 V2000
   -6.5503   42.2434   44.6287 C   0  0  0  0  0  0  0  0  0  0  0  0
   -5.9432   43.4507   44.6654 N   0  0  0  0  0  0  0  0  0  0  0  0
   -7.7733   41.9898   44.1156 N   0  0  0  0  0  0  0  0  0  0  0  0
   -6.5356   44.5363   44.1040 C   0  0  0  0  0  0  0  0  0  0  0  0
   -8.3432   43.0917   43.6151 C   0  0  0  0  0  0  0  0  0  0  0  0
   -7.8212   44.3681   43.5675 C   0  0  0  0  0  0  0  0  0  0  0  0
   -9.5678   43.1873   43.0216 N   0  0  0  0  0  0  0  0  0  0  0  0
   -8.7073   45.2383   42.9592 N   0  0  0  0  0  0  0  0  0  0  0  0
   -9.7437   44.4909   42.6433 C   0  0  0  0  0  0  0  0  0  0  0  0
  -10.2109   42.4230   42.8852 H   0  0  0  0  0  0  0  0  0  0  0  0
   -5.8741   41.1053   45.0977 N   0  0  0  0  0  0  0  0  0  0  0  0
   -6.4318   40.3113   44.8132 H   0  0  0  0  0  0  0  0  0  0  0  0
   -2.5374   39.6238   45.8178 C   0  0  0  0  0  0  0  0  0  0  0  0
   -1.7020   40.4016   44.9938 C   0  0  0  0  0  0  0  0  0  0  0  0
   -3.9085   39.9143   45.8795 C   0  0  0  0  0  0  0  0  0  0  0  0
   -2.2814   41.3913   44.1846 C   0  0  0  0  0  0  0  0  0  0  0  0
   -0.2180   40.1775   44.9045 C   0  0  0  0  0  0  0  0  0  0  0  0
   -4.4839   40.9072   45.0776 C   0  0  0  0  0  0  0  0  0  0  0  0
   -3.6579   41.6227   44.2113 C   0  0  0  0  0  0  0  0  0  0  0  0
   -2.6911   36.7601   45.3292 O   0  0  0  0  0  0  0  0  0  0  0  0
   -2.1552   37.2243   46.3352 C   0  0  0  0  0  0  0  0  0  0  0  0
   -1.6365   36.4064   47.3164 N   0  0  0  0  0  0  0  0  0  0  0  0
   -1.9820   38.5691   46.5792 N   0  0  0  0  0  0  0  0  0  0  0  0
   -1.1365   36.7971   48.6271 C   0  0  0  0  0  0  0  0  0  0  0  0
   -1.7083   34.9607   47.1933 C   0  0  0  0  0  0  0  0  0  0  0  0
   -1.1138   35.5035   49.4301 C   0  0  0  0  0  0  0  0  0  0  0  0
   -0.8857   34.4413   48.3624 C   0  0  0  0  0  0  0  0  0  0  0  0
   -1.1643   38.7862   47.1247 H   0  0  0  0  0  0  0  0  0  0  0  0
   -5.8826   45.7775   44.0638 N   0  0  0  0  0  0  0  0  0  0  0  0
   -6.4576   46.4526   44.5681 H   0  0  0  0  0  0  0  0  0  0  0  0
   -5.4852   46.2151   42.7237 C   0  0  0  0  0  0  0  0  0  0  0  0
   -4.3636   47.2647   42.7239 C   0  0  0  0  0  0  0  0  0  0  0  0
   -4.7994   48.6453   43.0796 C   0  0  0  0  0  0  0  0  0  0  0  0
   -5.0863   49.5730   42.1019 N   0  0  0  0  0  0  0  0  0  0  0  0
   -5.0099   49.1931   44.3275 C   0  0  0  0  0  0  0  0  0  0  0  0
   -5.4180   50.6689   42.7463 C   0  0  0  0  0  0  0  0  0  0  0  0
   -5.3845   50.4887   44.0992 N   0  0  0  0  0  0  0  0  0  0  0  0
   -5.5821   51.1964   44.8026 H   0  0  0  0  0  0  0  0  0  0  0  0
 20 21  2  0
 21 22  1  0
 21 23  1  0
 22 24  1  0
 22 25  1  0
 23 13  1  0
 24 26  1  0
 25 27  1  0
 13 14  2  0
 13 15  1  0
 14 16  1  0
 14 17  1  0
 15 18  2  0
 16 19  2  0
 18 11  1  0
 11  1  1  0
  1  2  2  0
  1  3  1  0
  2  4  1  0
  3  5  2  0
  4 29  1  0
  4  6  2  0
  5  7  1  0
 29 31  1  0
  6  8  1  0
  7  9  1  0
 31 32  1  0
 32 33  1  0
 33 34  1  0
 33 35  2  0
 34 36  2  0
 35 37  1  0
 26 27  1  0
 18 19  1  0
  5  6  1  0
  8  9  2  0
 36 37  1  0
 23 28  1  0
 11 12  1  0
 29 30  1  0
  7 10  1  0
 37 38  1  0
M  END
>  <MMFF94_energy_kcal_mol>  (4) 
-80.5413

>  <pIC50 PDK>  (4) 
7.6

>  <Note>  (4) 
No stereocenters; single enantiomer (achiral molecule)

>  <minimizedAffinity>  (4) 
-8.30262

>  <CNNscore>  (4) 
0.7282411456

>  <CNNaffinity>  (4) 
7.2732276917

>  <CNN_VS>  (4) 
5.2966637611

>  <CNNaffinity_variance>  (4) 
0.0438728034

$$$$
EL2003A-A2U1_pose5
     RDKit          3D

 38 42  0  0  0  0  0  0  0  0999 V2000
   -6.2339   40.9904   44.8085 C   0  0  0  0  0  0  0  0  0  0  0  0
   -6.1350   39.7623   45.3647 N   0  0  0  0  0  0  0  0  0  0  0  0
   -5.2000   41.7967   44.4856 N   0  0  0  0  0  0  0  0  0  0  0  0
   -4.9171   39.2064   45.5933 C   0  0  0  0  0  0  0  0  0  0  0  0
   -4.0202   41.2334   44.7688 C   0  0  0  0  0  0  0  0  0  0  0  0
   -3.7853   39.9855   45.3085 C   0  0  0  0  0  0  0  0  0  0  0  0
   -2.7826   41.7703   44.5657 N   0  0  0  0  0  0  0  0  0  0  0  0
   -2.4282   39.7553   45.4404 N   0  0  0  0  0  0  0  0  0  0  0  0
   -1.8589   40.8497   44.9813 C   0  0  0  0  0  0  0  0  0  0  0  0
   -2.5990   42.6792   44.1701 H   0  0  0  0  0  0  0  0  0  0  0  0
   -7.4947   41.5014   44.4596 N   0  0  0  0  0  0  0  0  0  0  0  0
   -8.1504   41.1026   45.1177 H   0  0  0  0  0  0  0  0  0  0  0  0
   -6.9723   45.1017   43.6769 C   0  0  0  0  0  0  0  0  0  0  0  0
   -8.2329   45.4625   43.1645 C   0  0  0  0  0  0  0  0  0  0  0  0
   -6.7698   43.7981   44.1541 C   0  0  0  0  0  0  0  0  0  0  0  0
   -9.2282   44.4784   43.0611 C   0  0  0  0  0  0  0  0  0  0  0  0
   -8.5388   46.8495   42.6713 C   0  0  0  0  0  0  0  0  0  0  0  0
   -7.7662   42.8194   44.0577 C   0  0  0  0  0  0  0  0  0  0  0  0
   -8.9871   43.1692   43.4815 C   0  0  0  0  0  0  0  0  0  0  0  0
   -4.6476   45.3203   41.9416 O   0  0  0  0  0  0  0  0  0  0  0  0
   -4.8151   46.0641   42.9077 C   0  0  0  0  0  0  0  0  0  0  0  0
   -3.8808   47.0176   43.2520 N   0  0  0  0  0  0  0  0  0  0  0  0
   -5.9325   46.0598   43.7136 N   0  0  0  0  0  0  0  0  0  0  0  0
   -3.8525   47.8423   44.4518 C   0  0  0  0  0  0  0  0  0  0  0  0
   -2.6598   47.1742   42.4805 C   0  0  0  0  0  0  0  0  0  0  0  0
   -2.4240   48.3644   44.5248 C   0  0  0  0  0  0  0  0  0  0  0  0
   -2.0031   48.4168   43.0617 C   0  0  0  0  0  0  0  0  0  0  0  0
   -6.1578   46.9576   44.1092 H   0  0  0  0  0  0  0  0  0  0  0  0
   -4.7997   37.9014   46.0952 N   0  0  0  0  0  0  0  0  0  0  0  0
   -5.7401   37.5268   46.2220 H   0  0  0  0  0  0  0  0  0  0  0  0
   -3.9433   37.7764   47.2767 C   0  0  0  0  0  0  0  0  0  0  0  0
   -2.9486   36.6084   47.1979 C   0  0  0  0  0  0  0  0  0  0  0  0
   -3.5180   35.2774   47.5538 C   0  0  0  0  0  0  0  0  0  0  0  0
   -4.7718   35.1688   48.1151 N   0  0  0  0  0  0  0  0  0  0  0  0
   -2.9691   34.0247   47.3770 C   0  0  0  0  0  0  0  0  0  0  0  0
   -4.9557   33.8832   48.3142 C   0  0  0  0  0  0  0  0  0  0  0  0
   -3.8885   33.1482   47.8844 N   0  0  0  0  0  0  0  0  0  0  0  0
   -3.7916   32.1378   47.9510 H   0  0  0  0  0  0  0  0  0  0  0  0
 20 21  2  0
 21 22  1  0
 21 23  1  0
 22 24  1  0
 22 25  1  0
 23 13  1  0
 24 26  1  0
 25 27  1  0
 13 14  2  0
 13 15  1  0
 14 16  1  0
 14 17  1  0
 15 18  2  0
 16 19  2  0
 18 11  1  0
 11  1  1  0
  1  2  2  0
  1  3  1  0
  2  4  1  0
  3  5  2  0
  4 29  1  0
  4  6  2  0
  5  7  1  0
 29 31  1  0
  6  8  1  0
  7  9  1  0
 31 32  1  0
 32 33  1  0
 33 34  1  0
 33 35  2  0
 34 36  2  0
 35 37  1  0
 26 27  1  0
 18 19  1  0
  5  6  1  0
  8  9  2  0
 36 37  1  0
 23 28  1  0
 11 12  1  0
 29 30  1  0
  7 10  1  0
 37 38  1  0
M  END
>  <MMFF94_energy_kcal_mol>  (5) 
-80.5413

>  <pIC50 PDK>  (5) 
7.6

>  <Note>  (5) 
No stereocenters; single enantiomer (achiral molecule)

>  <minimizedAffinity>  (5) 
-9.33293

>  <CNNscore>  (5) 
0.4966093004

>  <CNNaffinity>  (5) 
7.0252957344

>  <CNN_VS>  (5) 
3.4888272285

>  <CNNaffinity_variance>  (5) 
0.3444998264

$$$$
