EL2003A-A2U1
     RDKit          3D

 59 63  0  0  0  0  0  0  0  0999 V2000
   -1.4267    0.7579   -1.9598 O   0  0  0  0  0  0  0  0  0  0  0  0
   -2.4969    0.1705   -1.8041 C   0  0  0  0  0  0  0  0  0  0  0  0
   -3.4380    0.1113   -2.8099 N   0  0  0  0  0  0  0  0  0  0  0  0
   -2.8585   -0.5060   -0.6597 N   0  0  0  0  0  0  0  0  0  0  0  0
   -4.8033   -0.3874   -2.7219 C   0  0  0  0  0  0  0  0  0  0  0  0
   -3.1946    0.7463   -4.0936 C   0  0  0  0  0  0  0  0  0  0  0  0
   -2.1531   -0.4892    0.5661 C   0  0  0  0  0  0  0  0  0  0  0  0
   -5.4992    0.1810   -3.9512 C   0  0  0  0  0  0  0  0  0  0  0  0
   -4.3647    0.3065   -4.9599 C   0  0  0  0  0  0  0  0  0  0  0  0
   -2.2490   -1.5896    1.4389 C   0  0  0  0  0  0  0  0  0  0  0  0
   -1.3666    0.6136    0.9313 C   0  0  0  0  0  0  0  0  0  0  0  0
   -1.4798   -1.5911    2.6129 C   0  0  0  0  0  0  0  0  0  0  0  0
   -3.1020   -2.7902    1.1364 C   0  0  0  0  0  0  0  0  0  0  0  0
   -0.6060    0.6141    2.1066 C   0  0  0  0  0  0  0  0  0  0  0  0
   -0.6522   -0.5119    2.9281 C   0  0  0  0  0  0  0  0  0  0  0  0
    0.2421    1.6966    2.3916 N   0  0  0  0  0  0  0  0  0  0  0  0
    1.6432    1.6451    2.4741 C   0  0  0  0  0  0  0  0  0  0  0  0
    2.2662    0.4545    2.6217 N   0  0  0  0  0  0  0  0  0  0  0  0
    2.2513    2.8428    2.3356 N   0  0  0  0  0  0  0  0  0  0  0  0
    3.6215    0.3771    2.5795 C   0  0  0  0  0  0  0  0  0  0  0  0
    3.5842    2.7302    2.3458 C   0  0  0  0  0  0  0  0  0  0  0  0
    4.2784   -0.8607    2.6508 N   0  0  0  0  0  0  0  0  0  0  0  0
    4.3360    1.5790    2.4617 C   0  0  0  0  0  0  0  0  0  0  0  0
    4.4957    3.7379    2.2242 N   0  0  0  0  0  0  0  0  0  0  0  0
    3.6238   -1.9427    1.9119 C   0  0  0  0  0  0  0  0  0  0  0  0
    5.6874    1.8687    2.4162 N   0  0  0  0  0  0  0  0  0  0  0  0
    5.7428    3.1757    2.2705 C   0  0  0  0  0  0  0  0  0  0  0  0
    3.8712   -1.8937    0.3966 C   0  0  0  0  0  0  0  0  0  0  0  0
    2.9652   -0.9794   -0.3555 C   0  0  0  0  0  0  0  0  0  0  0  0
    3.4605    0.1201   -1.0224 N   0  0  0  0  0  0  0  0  0  0  0  0
    1.6011   -1.0679   -0.5376 C   0  0  0  0  0  0  0  0  0  0  0  0
    2.4129    0.7065   -1.5562 C   0  0  0  0  0  0  0  0  0  0  0  0
    1.2612    0.0241   -1.2880 N   0  0  0  0  0  0  0  0  0  0  0  0
   -3.4674   -1.2912   -0.8211 H   0  0  0  0  0  0  0  0  0  0  0  0
   -5.2791   -0.0753   -1.7876 H   0  0  0  0  0  0  0  0  0  0  0  0
   -4.7626   -1.4814   -2.7590 H   0  0  0  0  0  0  0  0  0  0  0  0
   -2.2246    0.4452   -4.5005 H   0  0  0  0  0  0  0  0  0  0  0  0
   -3.1956    1.8315   -3.9408 H   0  0  0  0  0  0  0  0  0  0  0  0
   -6.3182   -0.4522   -4.3027 H   0  0  0  0  0  0  0  0  0  0  0  0
   -5.9051    1.1746   -3.7261 H   0  0  0  0  0  0  0  0  0  0  0  0
   -4.5830    1.0129   -5.7652 H   0  0  0  0  0  0  0  0  0  0  0  0
   -4.1560   -0.6732   -5.4064 H   0  0  0  0  0  0  0  0  0  0  0  0
   -1.3224    1.4878    0.2882 H   0  0  0  0  0  0  0  0  0  0  0  0
   -1.5023   -2.4421    3.2904 H   0  0  0  0  0  0  0  0  0  0  0  0
   -3.0840   -3.5159    1.9567 H   0  0  0  0  0  0  0  0  0  0  0  0
   -4.1450   -2.4903    0.9924 H   0  0  0  0  0  0  0  0  0  0  0  0
   -2.7378   -3.2968    0.2369 H   0  0  0  0  0  0  0  0  0  0  0  0
   -0.0443   -0.5483    3.8298 H   0  0  0  0  0  0  0  0  0  0  0  0
    0.0213    2.5606    1.9152 H   0  0  0  0  0  0  0  0  0  0  0  0
    5.2551   -0.7143    2.3951 H   0  0  0  0  0  0  0  0  0  0  0  0
    4.2734    4.7147    2.1110 H   0  0  0  0  0  0  0  0  0  0  0  0
    2.5563   -2.0193    2.1533 H   0  0  0  0  0  0  0  0  0  0  0  0
    4.0752   -2.8714    2.2826 H   0  0  0  0  0  0  0  0  0  0  0  0
    6.6464    3.7657    2.1907 H   0  0  0  0  0  0  0  0  0  0  0  0
    4.9157   -1.6266    0.1940 H   0  0  0  0  0  0  0  0  0  0  0  0
    3.7256   -2.9037   -0.0082 H   0  0  0  0  0  0  0  0  0  0  0  0
    0.8594   -1.7679   -0.1821 H   0  0  0  0  0  0  0  0  0  0  0  0
    2.4208    1.6160   -2.1402 H   0  0  0  0  0  0  0  0  0  0  0  0
    0.3241    0.2939   -1.5774 H   0  0  0  0  0  0  0  0  0  0  0  0
  1  2  2  0
  2  3  1  0
  2  4  1  0
  3  5  1  0
  3  6  1  0
  4  7  1  0
  5  8  1  0
  6  9  1  0
  7 10  2  0
  7 11  1  0
 10 12  1  0
 10 13  1  0
 11 14  2  0
 12 15  2  0
 14 16  1  0
 16 17  1  0
 17 18  2  0
 17 19  1  0
 18 20  1  0
 19 21  2  0
 20 22  1  0
 20 23  2  0
 21 24  1  0
 22 25  1  0
 23 26  1  0
 24 27  1  0
 25 28  1  0
 28 29  1  0
 29 30  1  0
 29 31  2  0
 30 32  2  0
 31 33  1  0
  8  9  1  0
 14 15  1  0
 21 23  1  0
 26 27  2  0
 32 33  1  0
  4 34  1  0
  5 35  1  0
  5 36  1  0
  6 37  1  0
  6 38  1  0
  8 39  1  0
  8 40  1  0
  9 41  1  0
  9 42  1  0
 11 43  1  0
 12 44  1  0
 13 45  1  0
 13 46  1  0
 13 47  1  0
 15 48  1  0
 16 49  1  0
 22 50  1  0
 24 51  1  0
 25 52  1  0
 25 53  1  0
 27 54  1  0
 28 55  1  0
 28 56  1  0
 31 57  1  0
 32 58  1  0
 33 59  1  0
M  END
>  <MMFF94_energy_kcal_mol>  (1) 
-80.5413

>  <pIC50 PDK>  (1) 
7.6

>  <Note>  (1) 
No stereocenters; single enantiomer (achiral molecule)

$$$$
