EDS00495858
OCL MolfileCreator  2D

  0  0  0  0  0  0              0 V3000
M  V30 BEGIN CTAB
M  V30 COUNTS 39 43 0 0 0
M  V30 BEGIN ATOM
M  V30 1 F 0.0 0.0 0.0 0
M  V30 2 C -0.7441 1.2992 0.0 0
M  V30 3 F -2.0434 0.5433 0.0 0
M  V30 4 F -1.5 2.5985 0.0 0
M  V30 5 C 0.5551 2.0434 0.0 0
M  V30 6 O 1.8544 1.2992 0.0 0
M  V30 7 C 3.1537 2.0552 0.0 0
M  V30 8 N 4.4529 1.311 0.0 0
M  V30 9 C 3.1537 3.5553 0.0 0
M  V30 10 C 5.7522 2.0552 0.0 0
M  V30 11 C 4.4529 4.3112 0.0 0
M  V30 12 C 5.7522 3.5553 0.0 0
M  V30 13 C 7.0515 4.3112 0.0 0
M  V30 14 O 8.3508 3.5671 0.0 0
M  V30 15 N 7.0515 5.8113 0.0 0
M  V30 16 C 5.7522 6.5554 0.0 0
M  V30 17 C 8.3508 6.5554 0.0 0
M  V30 18 C 5.7522 8.0555 0.0 0
M  V30 19 C 8.3508 8.0555 0.0 0
M  V30 20 N 4.4529 8.7996 0.0 0
M  V30 21 C 7.0515 8.7996 0.0 0
M  V30 22 C 4.4529 10.2997 0.0 0
M  V30 23 C 7.0515 10.2997 0.0 0
M  V30 24 C 3.1537 11.0439 0.0 0
M  V30 25 C 5.7522 11.0439 0.0 0
M  V30 26 O 3.1537 12.5439 0.0 0
M  V30 27 N 1.8544 10.2997 0.0 0
M  V30 28 C 0.5551 11.0439 0.0 0
M  V30 29 C -0.7441 10.2997 0.0 0
M  V30 30 C -2.0434 11.0557 0.0 0
M  V30 31 C -0.7441 8.7996 0.0 0
M  V30 32 N -2.0434 12.5558 0.0 0
M  V30 33 C -3.3427 10.3115 0.0 0
M  V30 34 C -2.0434 8.0555 0.0 0
M  V30 35 C -0.8268 13.4416 0.0 0
M  V30 36 C -3.26 13.4416 0.0 0
M  V30 37 C -3.3427 8.8115 0.0 0
M  V30 38 C -1.2874 14.8708 0.0 0
M  V30 39 C -2.7993 14.8708 0.0 0
M  V30 END ATOM
M  V30 BEGIN BOND
M  V30 1 1 1 2
M  V30 2 1 2 3
M  V30 3 1 2 4
M  V30 4 1 2 5
M  V30 5 1 5 6
M  V30 6 1 6 7
M  V30 7 2 7 8
M  V30 8 1 7 9
M  V30 9 1 8 10
M  V30 10 2 9 11
M  V30 11 2 10 12
M  V30 12 1 12 13
M  V30 13 2 13 14
M  V30 14 1 13 15
M  V30 15 1 15 16
M  V30 16 1 15 17
M  V30 17 1 16 18
M  V30 18 1 17 19
M  V30 19 2 18 20
M  V30 20 1 18 21
M  V30 21 1 20 22
M  V30 22 2 21 23
M  V30 23 1 22 24
M  V30 24 2 22 25
M  V30 25 2 24 26
M  V30 26 1 24 27
M  V30 27 1 27 28
M  V30 28 1 28 29
M  V30 29 2 29 30
M  V30 30 1 29 31
M  V30 31 1 30 32
M  V30 32 1 30 33
M  V30 33 2 31 34
M  V30 34 1 32 35
M  V30 35 1 32 36
M  V30 36 2 33 37
M  V30 37 2 35 38
M  V30 38 2 36 39
M  V30 39 1 11 12
M  V30 40 1 19 21
M  V30 41 1 23 25
M  V30 42 1 34 37
M  V30 43 1 38 39
M  V30 END BOND
M  V30 END CTAB
M  END
>  <Molecule Name>
EDS00495858

>  <EDS_Number>
EDS00495858

>  <Stereo  Configuration>
Achiral

>  <Smiles>
O=C(c1ccc(CCN(C2)C(c(cc3)cnc3OCC(F)(F)F)=O)c2n1)NCc(cccc1)c1-[n]1cccc1

>  <AS ratio>
0.171957

>  <AS ratio 2>
0.780518

>  <RTmin>
1.13

>  <RT check manual>
OK

>  <Avg BR>
0.4762375

>  <Hit_rank>
5

>  <HIT P841>
Active

$$$$
EDS00480994
OCL MolfileCreator  2D

  0  0  0  0  0  0              0 V3000
M  V30 BEGIN CTAB
M  V30 COUNTS 39 44 0 0 0
M  V30 BEGIN ATOM
M  V30 1 O 0.0 0.0 0.0 0
M  V30 2 C 1.3002 0.7564 0.0 0
M  V30 3 N 1.3002 2.2576 0.0 0
M  V30 4 C 2.6004 0.0118 0.0 0
M  V30 5 C 2.6004 3.0022 0.0 0
M  V30 6 N 2.6004 -1.4893 0.0 0
M  V30 7 C 3.9006 0.7564 0.0 0
M  V30 8 C 2.6004 4.5034 0.0 0
M  V30 9 C 3.9006 -2.2339 0.0 0
M  V30 10 C 5.2008 0.0118 0.0 0
M  V30 11 C 3.9006 5.248 0.0 0
M  V30 12 C 1.3002 5.248 0.0 0
M  V30 13 C 5.2008 -1.4893 0.0 0
M  V30 14 C 3.9006 -3.7351 0.0 0
M  V30 15 C 3.9006 6.7492 0.0 0
M  V30 16 C 1.3002 6.7492 0.0 0
M  V30 17 C 6.501 -2.2339 0.0 0
M  V30 18 N 5.2008 -4.4797 0.0 0
M  V30 19 C 2.6004 7.4939 0.0 0
M  V30 20 C 6.501 -3.7351 0.0 0
M  V30 21 C 5.2008 -5.9809 0.0 0
M  V30 22 N 2.6004 8.995 0.0 0
M  V30 23 O 3.9006 -6.7255 0.0 0
M  V30 24 C 6.501 -6.7255 0.0 0
M  V30 25 C 3.9006 9.7397 0.0 0
M  V30 26 C 1.3002 9.7515 0.0 0
M  V30 27 O 6.6546 -8.2149 0.0 0
M  V30 28 C 7.8721 -6.1109 0.0 0
M  V30 29 C 3.9006 11.2408 0.0 0
M  V30 30 C 1.3002 11.2526 0.0 0
M  V30 31 C 8.1203 -8.5222 0.0 0
M  V30 32 C 8.8768 -7.222 0.0 0
M  V30 33 C 8.1794 -4.6452 0.0 0
M  V30 34 N 2.6004 11.9973 0.0 0
M  V30 35 C 8.865 -9.8224 0.0 0
M  V30 36 C 10.3779 -7.222 0.0 0
M  V30 37 C 2.6004 13.4984 0.0 0
M  V30 38 C 10.3661 -9.8224 0.0 0
M  V30 39 C 11.1226 -8.5222 0.0 0
M  V30 END ATOM
M  V30 BEGIN BOND
M  V30 1 2 1 2
M  V30 2 1 2 3
M  V30 3 1 2 4
M  V30 4 1 3 5
M  V30 5 2 4 6
M  V30 6 1 4 7
M  V30 7 1 5 8
M  V30 8 1 6 9
M  V30 9 2 7 10
M  V30 10 2 8 11
M  V30 11 1 8 12
M  V30 12 2 9 13
M  V30 13 1 9 14
M  V30 14 1 11 15
M  V30 15 2 12 16
M  V30 16 1 13 17
M  V30 17 1 14 18
M  V30 18 2 15 19
M  V30 19 1 17 20
M  V30 20 1 18 21
M  V30 21 1 19 22
M  V30 22 2 21 23
M  V30 23 1 21 24
M  V30 24 1 22 25
M  V30 25 1 22 26
M  V30 26 1 24 27
M  V30 27 2 24 28
M  V30 28 1 25 29
M  V30 29 1 26 30
M  V30 30 1 27 31
M  V30 31 1 28 32
M  V30 32 1 28 33
M  V30 33 1 29 34
M  V30 34 1 31 35
M  V30 35 1 32 36
M  V30 36 1 34 37
M  V30 37 2 35 38
M  V30 38 2 36 39
M  V30 39 1 10 13
M  V30 40 1 16 19
M  V30 41 1 18 20
M  V30 42 1 30 34
M  V30 43 2 31 32
M  V30 44 1 38 39
M  V30 END BOND
M  V30 END CTAB
M  END
>  <Molecule Name>
EDS00480994

>  <EDS_Number>
EDS00480994

>  <Stereo  Configuration>
Achiral

>  <Smiles>
Cc1c(C(N(CC2)Cc3c2ccc(C(NCc(cc2)ccc2N2CCN(C)CC2)=O)n3)=O)[o]c2c1cccc2

>  <AS ratio>
0.0890564

>  <AS ratio 2>
0.432535

>  <RTmin>
1.07

>  <RT check manual>
OK

>  <Avg BR>
0.2607957

>  <Hit_rank>
24

>  <HIT P841>
Active

$$$$
EDS00490594
OCL MolfileCreator  2D

  0  0  0  0  0  0              0 V3000
M  V30 BEGIN CTAB
M  V30 COUNTS 41 46 0 0 0
M  V30 BEGIN ATOM
M  V30 1 O 0.0 0.0 0.0 0
M  V30 2 C -1.2991 0.744 0.0 0
M  V30 3 N -1.2991 2.2439 0.0 0
M  V30 4 C -2.5982 -0.0118 0.0 0
M  V30 5 C -2.5982 2.9879 0.0 0
M  V30 6 C 0.0 2.9997 0.0 0
M  V30 7 C -3.8973 0.744 0.0 0
M  V30 8 C -2.5982 -1.5116 0.0 0
M  V30 9 C -2.5982 4.4878 0.0 0
M  V30 10 C 0.0 4.4996 0.0 0
M  V30 11 O -3.8973 2.2439 0.0 0
M  V30 12 C -5.1964 -0.0118 0.0 0
M  V30 13 C -3.8973 -2.2675 0.0 0
M  V30 14 N -3.8973 5.2318 0.0 0
M  V30 15 C -1.2991 5.2437 0.0 0
M  V30 16 C -5.1964 2.9997 0.0 0
M  V30 17 C -5.1964 -1.5116 0.0 0
M  V30 18 C -6.4955 0.744 0.0 0
M  V30 19 C -3.8973 6.7317 0.0 0
M  V30 20 C -1.2991 6.7435 0.0 0
M  V30 21 C -6.4955 -2.2675 0.0 0
M  V30 22 C -7.7946 -0.0118 0.0 0
M  V30 23 C -5.1964 7.4758 0.0 0
M  V30 24 C -2.5982 7.4758 0.0 0
M  V30 25 C -7.7946 -1.5235 0.0 0
M  V30 26 O -5.1964 8.9757 0.0 0
M  V30 27 N -6.4955 6.7317 0.0 0
M  V30 28 C -7.7946 7.4758 0.0 0
M  V30 29 C -9.0938 6.7317 0.0 0
M  V30 30 C -10.3929 7.4876 0.0 0
M  V30 31 C -9.0938 5.2318 0.0 0
M  V30 32 C -11.692 6.7435 0.0 0
M  V30 33 C -10.3929 4.4878 0.0 0
M  V30 34 C -11.692 5.2437 0.0 0
M  V30 35 N -12.9911 4.4996 0.0 0
M  V30 36 C -14.2902 5.2555 0.0 0
M  V30 37 C -12.9911 2.9997 0.0 0
M  V30 38 C -15.5893 4.5114 0.0 0
M  V30 39 C -14.2902 2.2557 0.0 0
M  V30 40 N -15.5893 3.0115 0.0 0
M  V30 41 C -16.8884 2.2675 0.0 0
M  V30 END ATOM
M  V30 BEGIN BOND
M  V30 1 2 1 2
M  V30 2 1 2 3
M  V30 3 1 2 4
M  V30 4 1 3 5
M  V30 5 1 3 6
M  V30 6 2 4 7
M  V30 7 1 4 8
M  V30 8 1 5 9
M  V30 9 1 6 10
M  V30 10 1 7 11
M  V30 11 1 7 12
M  V30 12 2 8 13
M  V30 13 2 9 14
M  V30 14 1 9 15
M  V30 15 1 11 16
M  V30 16 2 12 17
M  V30 17 1 12 18
M  V30 18 1 14 19
M  V30 19 2 15 20
M  V30 20 1 17 21
M  V30 21 2 18 22
M  V30 22 1 19 23
M  V30 23 2 19 24
M  V30 24 2 21 25
M  V30 25 2 23 26
M  V30 26 1 23 27
M  V30 27 1 27 28
M  V30 28 1 28 29
M  V30 29 2 29 30
M  V30 30 1 29 31
M  V30 31 1 30 32
M  V30 32 2 31 33
M  V30 33 2 32 34
M  V30 34 1 34 35
M  V30 35 1 35 36
M  V30 36 1 35 37
M  V30 37 1 36 38
M  V30 38 1 37 39
M  V30 39 1 38 40
M  V30 40 1 40 41
M  V30 41 1 10 15
M  V30 42 1 13 17
M  V30 43 1 20 24
M  V30 44 1 22 25
M  V30 45 1 33 34
M  V30 46 1 39 40
M  V30 END BOND
M  V30 END CTAB
M  END
>  <Molecule Name>
EDS00490594

>  <EDS_Number>
EDS00490594

>  <Stereo  Configuration>
Achiral

>  <Smiles>
CN(CC1)CCN1c1ccc(CNC(c2ccc(CCN(C3)C(c(ccc4c5cccc4)c5OC)=O)c3n2)=O)cc1

>  <AS ratio>
0.0301407

>  <AS ratio 2>
0.0769323

>  <RTmin>
1.05

>  <RT check manual>
OK

>  <Avg BR>
0.0535365

>  <Hit_rank>
157

>  <HIT P841>
Active

$$$$
EDS00481762
OCL MolfileCreator  2D

  0  0  0  0  0  0              0 V3000
M  V30 BEGIN CTAB
M  V30 COUNTS 38 43 0 0 0
M  V30 BEGIN ATOM
M  V30 1 S 0.0 0.0 0.0 0
M  V30 2 C -1.0045 -1.1108 0.0 0
M  V30 3 C 1.3708 -0.6145 0.0 0
M  V30 4 C -0.2481 -2.4108 0.0 0
M  V30 5 C -2.5053 -1.1108 0.0 0
M  V30 6 C 2.6708 0.1418 0.0 0
M  V30 7 C 1.2172 -2.1035 0.0 0
M  V30 8 C -0.9927 -3.7108 0.0 0
M  V30 9 C -3.2499 -2.4108 0.0 0
M  V30 10 O 3.9708 -0.6027 0.0 0
M  V30 11 N 2.6708 1.6426 0.0 0
M  V30 12 C -2.4935 -3.7108 0.0 0
M  V30 13 C 1.3708 2.3872 0.0 0
M  V30 14 C 3.9708 2.399 0.0 0
M  V30 15 C 1.3708 3.888 0.0 0
M  V30 16 C 3.9708 3.8998 0.0 0
M  V30 17 N 0.0709 4.6326 0.0 0
M  V30 18 C 2.6708 4.6444 0.0 0
M  V30 19 C 0.0709 6.1334 0.0 0
M  V30 20 C 2.6708 6.1452 0.0 0
M  V30 21 C -1.229 6.8779 0.0 0
M  V30 22 C 1.3708 6.8779 0.0 0
M  V30 23 O -1.229 8.3788 0.0 0
M  V30 24 N -2.529 6.1334 0.0 0
M  V30 25 C -3.8289 6.8779 0.0 0
M  V30 26 C -5.1289 6.1334 0.0 0
M  V30 27 C -6.4289 6.8898 0.0 0
M  V30 28 C -5.1289 4.6326 0.0 0
M  V30 29 C -7.7288 6.1452 0.0 0
M  V30 30 C -6.4289 3.888 0.0 0
M  V30 31 C -7.7288 4.6444 0.0 0
M  V30 32 N -9.0288 3.8998 0.0 0
M  V30 33 C -10.3288 4.6562 0.0 0
M  V30 34 C -9.0288 2.399 0.0 0
M  V30 35 C -11.6287 3.9117 0.0 0
M  V30 36 C -10.3288 1.6545 0.0 0
M  V30 37 N -11.6287 2.4108 0.0 0
M  V30 38 C -12.9287 1.6663 0.0 0
M  V30 END ATOM
M  V30 BEGIN BOND
M  V30 1 1 1 2
M  V30 2 1 1 3
M  V30 3 2 2 4
M  V30 4 1 2 5
M  V30 5 1 3 6
M  V30 6 2 3 7
M  V30 7 1 4 8
M  V30 8 2 5 9
M  V30 9 2 6 10
M  V30 10 1 6 11
M  V30 11 2 8 12
M  V30 12 1 11 13
M  V30 13 1 11 14
M  V30 14 1 13 15
M  V30 15 1 14 16
M  V30 16 2 15 17
M  V30 17 1 15 18
M  V30 18 1 17 19
M  V30 19 2 18 20
M  V30 20 1 19 21
M  V30 21 2 19 22
M  V30 22 2 21 23
M  V30 23 1 21 24
M  V30 24 1 24 25
M  V30 25 1 25 26
M  V30 26 2 26 27
M  V30 27 1 26 28
M  V30 28 1 27 29
M  V30 29 2 28 30
M  V30 30 2 29 31
M  V30 31 1 31 32
M  V30 32 1 32 33
M  V30 33 1 32 34
M  V30 34 1 33 35
M  V30 35 1 34 36
M  V30 36 1 35 37
M  V30 37 1 37 38
M  V30 38 1 4 7
M  V30 39 1 9 12
M  V30 40 1 16 18
M  V30 41 1 20 22
M  V30 42 1 30 31
M  V30 43 1 36 37
M  V30 END BOND
M  V30 END CTAB
M  END
>  <Molecule Name>
EDS00481762

>  <EDS_Number>
EDS00481762

>  <Stereo  Configuration>
Achiral

>  <Smiles>
CN(CC1)CCN1c1ccc(CNC(c2ccc(CCN(C3)C(c4cc(cccc5)c5[s]4)=O)c3n2)=O)cc1

>  <AS ratio>
0.0181035

>  <AS ratio 2>
0.0531017

>  <RTmin>
1.06

>  <RT check manual>
OK

>  <Avg BR>
0.0356026

>  <Hit_rank>
195

>  <HIT P841>
Active

$$$$
EDS00469766
OCL MolfileCreator  2D

  0  0  0  0  0  0              0 V3000
M  V30 BEGIN CTAB
M  V30 COUNTS 30 33 0 0 0
M  V30 BEGIN ATOM
M  V30 1 Cl 0.0 0.0 0.0 0
M  V30 2 C -1.2995 0.7443 0.0 0
M  V30 3 C -1.2995 2.2447 0.0 0
M  V30 4 C -2.5991 -0.0118 0.0 0
M  V30 5 N -2.5991 2.989 0.0 0
M  V30 6 C 0.0 3.0008 0.0 0
M  V30 7 C -3.8987 0.7324 0.0 0
M  V30 8 C -3.8987 2.2329 0.0 0
M  V30 9 O 1.2995 2.2565 0.0 0
M  V30 10 N 0.0 4.5012 0.0 0
M  V30 11 C -1.2995 5.2455 0.0 0
M  V30 12 C 1.2995 5.2574 0.0 0
M  V30 13 C -1.2995 6.746 0.0 0
M  V30 14 C 1.2995 6.7578 0.0 0
M  V30 15 N -2.5991 7.4903 0.0 0
M  V30 16 C 0.0 7.5021 0.0 0
M  V30 17 C -2.5991 8.9907 0.0 0
M  V30 18 C 0.0 9.0025 0.0 0
M  V30 19 C -3.8987 9.735 0.0 0
M  V30 20 C -1.2995 9.735 0.0 0
M  V30 21 O -5.1983 8.9789 0.0 0
M  V30 22 N -3.8987 11.2354 0.0 0
M  V30 23 C -5.1983 11.9916 0.0 0
M  V30 24 C -5.1983 13.492 0.0 0
M  V30 25 C -6.4979 11.2473 0.0 0
M  V30 26 C -6.4979 14.2481 0.0 0
M  V30 27 C -7.7975 12.0034 0.0 0
M  V30 28 C -7.7975 13.5038 0.0 0
M  V30 29 F -8.5418 14.8034 0.0 0
M  V30 30 F -9.2979 13.5038 0.0 0
M  V30 END ATOM
M  V30 BEGIN BOND
M  V30 1 1 1 2
M  V30 2 2 2 3
M  V30 3 1 2 4
M  V30 4 1 3 5
M  V30 5 1 3 6
M  V30 6 2 4 7
M  V30 7 2 5 8
M  V30 8 2 6 9
M  V30 9 1 6 10
M  V30 10 1 10 11
M  V30 11 1 10 12
M  V30 12 1 11 13
M  V30 13 1 12 14
M  V30 14 2 13 15
M  V30 15 1 13 16
M  V30 16 1 15 17
M  V30 17 2 16 18
M  V30 18 1 17 19
M  V30 19 2 17 20
M  V30 20 2 19 21
M  V30 21 1 19 22
M  V30 22 1 22 23
M  V30 23 1 23 24
M  V30 24 1 23 25
M  V30 25 1 24 26
M  V30 26 1 25 27
M  V30 27 1 26 28
M  V30 28 1 28 29
M  V30 29 1 28 30
M  V30 30 1 7 8
M  V30 31 1 14 16
M  V30 32 1 18 20
M  V30 33 1 27 28
M  V30 END BOND
M  V30 END CTAB
M  END
>  <Molecule Name>
EDS00469766

>  <EDS_Number>
EDS00469766

>  <Stereo  Configuration>
Achiral

>  <Smiles>
O=C(c1ccc(CCN(C2)C(c(nccc3)c3Cl)=O)c2n1)NC(CC1)CCC1(F)F

>  <AS ratio>
0.0333112

>  <AS ratio 2>
0.00927413

>  <RTmin>
1.2

>  <RT check manual>
OK

>  <Avg BR>
0.021292665

>  <Hit_rank>
249

>  <HIT P841>
Active

$$$$
EDS00459346
OCL MolfileCreator  2D

  0  0  0  0  0  0              0 V3000
M  V30 BEGIN CTAB
M  V30 COUNTS 35 39 0 0 0
M  V30 BEGIN ATOM
M  V30 1 O 0.0 0.0 0.0 0
M  V30 2 C 1.3003 0.7565 0.0 0
M  V30 3 N 1.3003 2.2578 0.0 0
M  V30 4 C 2.6006 0.0118 0.0 0
M  V30 5 C 2.6006 3.0025 0.0 0
M  V30 6 N 2.6006 -1.4894 0.0 0
M  V30 7 C 3.9009 0.7565 0.0 0
M  V30 8 C 2.6006 4.5038 0.0 0
M  V30 9 C 3.9009 -2.2341 0.0 0
M  V30 10 C 5.2012 0.0118 0.0 0
M  V30 11 N 3.9009 5.2485 0.0 0
M  V30 12 C 1.3003 5.2485 0.0 0
M  V30 13 C 5.2012 -1.4894 0.0 0
M  V30 14 C 3.9009 -3.7354 0.0 0
M  V30 15 C 3.9009 6.7498 0.0 0
M  V30 16 C 1.3003 6.7498 0.0 0
M  V30 17 C 6.5015 -2.2341 0.0 0
M  V30 18 N 5.2012 -4.4801 0.0 0
M  V30 19 N 5.2012 7.4945 0.0 0
M  V30 20 C 2.6006 7.4945 0.0 0
M  V30 21 C 6.5015 -3.7354 0.0 0
M  V30 22 C 5.2012 -5.9814 0.0 0
M  V30 23 C 6.5015 6.7379 0.0 0
M  V30 24 C 5.2012 8.9958 0.0 0
M  V30 25 O 3.9009 -6.7261 0.0 0
M  V30 26 C 6.5015 -6.7261 0.0 0
M  V30 27 C 7.8018 7.4827 0.0 0
M  V30 28 C 6.5015 9.7405 0.0 0
M  V30 29 N 6.6552 -8.2156 0.0 0
M  V30 30 C 7.8728 -6.1114 0.0 0
M  V30 31 O 7.8018 8.9839 0.0 0
M  V30 32 N 8.121 -8.5229 0.0 0
M  V30 33 C 8.8775 -7.2226 0.0 0
M  V30 34 C 8.7357 -9.8942 0.0 0
M  V30 35 C 10.367 -7.0689 0.0 0
M  V30 END ATOM
M  V30 BEGIN BOND
M  V30 1 2 1 2
M  V30 2 1 2 3
M  V30 3 1 2 4
M  V30 4 1 3 5
M  V30 5 2 4 6
M  V30 6 1 4 7
M  V30 7 1 5 8
M  V30 8 1 6 9
M  V30 9 2 7 10
M  V30 10 2 8 11
M  V30 11 1 8 12
M  V30 12 2 9 13
M  V30 13 1 9 14
M  V30 14 1 11 15
M  V30 15 2 12 16
M  V30 16 1 13 17
M  V30 17 1 14 18
M  V30 18 1 15 19
M  V30 19 2 15 20
M  V30 20 1 17 21
M  V30 21 1 18 22
M  V30 22 1 19 23
M  V30 23 1 19 24
M  V30 24 2 22 25
M  V30 25 1 22 26
M  V30 26 1 23 27
M  V30 27 1 24 28
M  V30 28 2 26 29
M  V30 29 1 26 30
M  V30 30 1 27 31
M  V30 31 1 29 32
M  V30 32 2 30 33
M  V30 33 1 32 34
M  V30 34 1 33 35
M  V30 35 1 10 13
M  V30 36 1 16 20
M  V30 37 1 18 21
M  V30 38 1 28 31
M  V30 39 1 32 33
M  V30 END BOND
M  V30 END CTAB
M  END
>  <Molecule Name>
EDS00459346

>  <EDS_Number>
EDS00459346

>  <Stereo  Configuration>
Achiral

>  <Smiles>
Cc1cc(C(N(CC2)Cc3c2ccc(C(NCc2nc(N4CCOCC4)ccc2)=O)n3)=O)n[n]1C

>  <AS ratio>
0.0207765

>  <AS ratio 2>
0.00967655

>  <RTmin>
1.08

>  <RT check manual>
OK

>  <Avg BR>
0.015226525

>  <Hit_rank>
294

>  <HIT P841>
Active

$$$$
EDS00459274
OCL MolfileCreator  2D

  0  0  0  0  0  0              0 V3000
M  V30 BEGIN CTAB
M  V30 COUNTS 32 35 0 0 0
M  V30 BEGIN ATOM
M  V30 1 Cl 0.0 0.0 0.0 0
M  V30 2 C -1.2998 0.7444 0.0 0
M  V30 3 C -1.2998 2.2452 0.0 0
M  V30 4 C -2.5997 -0.0118 0.0 0
M  V30 5 F 0.0 3.0014 0.0 0
M  V30 6 C -2.5997 2.9896 0.0 0
M  V30 7 C -3.8995 0.7326 0.0 0
M  V30 8 C -2.5997 -1.5125 0.0 0
M  V30 9 C -3.8995 2.2452 0.0 0
M  V30 10 F -5.1994 -0.0236 0.0 0
M  V30 11 N -1.2998 -2.257 0.0 0
M  V30 12 C -1.2998 -3.7577 0.0 0
M  V30 13 O -2.5997 -4.514 0.0 0
M  V30 14 C 0.0 -4.5022 0.0 0
M  V30 15 N 0.0 -6.0029 0.0 0
M  V30 16 C 1.2998 -3.7577 0.0 0
M  V30 17 C 1.2998 -6.7474 0.0 0
M  V30 18 C 2.5997 -4.5022 0.0 0
M  V30 19 C 2.5997 -6.0029 0.0 0
M  V30 20 C 1.2998 -8.2482 0.0 0
M  V30 21 C 3.8995 -6.7592 0.0 0
M  V30 22 N 2.5997 -8.9926 0.0 0
M  V30 23 C 3.8995 -8.26 0.0 0
M  V30 24 C 2.5997 -10.4934 0.0 0
M  V30 25 O 1.2998 -11.2378 0.0 0
M  V30 26 C 3.8995 -11.2378 0.0 0
M  V30 27 N 4.0531 -12.7268 0.0 0
M  V30 28 C 5.2703 -10.6233 0.0 0
M  V30 29 N 5.5184 -13.034 0.0 0
M  V30 30 C 6.2747 -11.7341 0.0 0
M  V30 31 C 6.1329 -14.4048 0.0 0
M  V30 32 C 7.7637 -11.5805 0.0 0
M  V30 END ATOM
M  V30 BEGIN BOND
M  V30 1 1 1 2
M  V30 2 2 2 3
M  V30 3 1 2 4
M  V30 4 1 3 5
M  V30 5 1 3 6
M  V30 6 2 4 7
M  V30 7 1 4 8
M  V30 8 2 6 9
M  V30 9 1 7 10
M  V30 10 1 8 11
M  V30 11 1 11 12
M  V30 12 2 12 13
M  V30 13 1 12 14
M  V30 14 2 14 15
M  V30 15 1 14 16
M  V30 16 1 15 17
M  V30 17 2 16 18
M  V30 18 2 17 19
M  V30 19 1 17 20
M  V30 20 1 19 21
M  V30 21 1 20 22
M  V30 22 1 21 23
M  V30 23 1 22 24
M  V30 24 2 24 25
M  V30 25 1 24 26
M  V30 26 2 26 27
M  V30 27 1 26 28
M  V30 28 1 27 29
M  V30 29 2 28 30
M  V30 30 1 29 31
M  V30 31 1 30 32
M  V30 32 1 7 9
M  V30 33 1 18 19
M  V30 34 1 22 23
M  V30 35 1 29 30
M  V30 END BOND
M  V30 END CTAB
M  END
>  <Molecule Name>
EDS00459274

>  <EDS_Number>
EDS00459274

>  <Stereo  Configuration>
Achiral

>  <Smiles>
Cc1cc(C(N(CC2)Cc3c2ccc(C(NCc(c(Cl)c(cc2)F)c2F)=O)n3)=O)n[n]1C

>  <AS ratio>
0.00739068

>  <AS ratio 2>
0.0195279

>  <RTmin>
1.24

>  <RT check manual>
OK

>  <Avg BR>
0.01345929

>  <Hit_rank>
314

>  <HIT P841>
Active

$$$$
EDS00444974
OCL MolfileCreator  2D

  0  0  0  0  0  0              0 V3000
M  V30 BEGIN CTAB
M  V30 COUNTS 26 28 0 0 0
M  V30 BEGIN ATOM
M  V30 1 O 0.0 0.0 0.0 0
M  V30 2 C 1.3001 0.7564 0.0 0
M  V30 3 N 1.3001 2.2575 0.0 0
M  V30 4 C 2.6002 0.0118 0.0 0
M  V30 5 C 2.6002 3.0139 0.0 0
M  V30 6 N 2.6002 -1.4892 0.0 0
M  V30 7 C 3.9003 0.7564 0.0 0
M  V30 8 C 2.6002 4.515 0.0 0
M  V30 9 C 3.9003 -2.2338 0.0 0
M  V30 10 C 5.2005 0.0118 0.0 0
M  V30 11 N 3.9003 5.2596 0.0 0
M  V30 12 C 1.3001 5.2596 0.0 0
M  V30 13 C 5.2005 -1.4892 0.0 0
M  V30 14 C 3.9003 -3.7349 0.0 0
M  V30 15 C 3.9003 6.7606 0.0 0
M  V30 16 N 1.3001 6.7606 0.0 0
M  V30 17 C 6.5006 -2.2456 0.0 0
M  V30 18 N 5.2005 -4.4795 0.0 0
M  V30 19 C 2.6002 7.5053 0.0 0
M  V30 20 C 6.5006 -3.7467 0.0 0
M  V30 21 C 5.2005 -5.9806 0.0 0
M  V30 22 C 2.6002 9.0063 0.0 0
M  V30 23 O 6.5006 -6.7252 0.0 0
M  V30 24 C 3.9003 -6.7252 0.0 0
M  V30 25 C 2.6002 -5.9687 0.0 0
M  V30 26 C 3.9003 -8.2262 0.0 0
M  V30 END ATOM
M  V30 BEGIN BOND
M  V30 1 2 1 2
M  V30 2 1 2 3
M  V30 3 1 2 4
M  V30 4 1 3 5
M  V30 5 2 4 6
M  V30 6 1 4 7
M  V30 7 1 5 8
M  V30 8 1 6 9
M  V30 9 2 7 10
M  V30 10 2 8 11
M  V30 11 1 8 12
M  V30 12 2 9 13
M  V30 13 1 9 14
M  V30 14 1 11 15
M  V30 15 2 12 16
M  V30 16 1 13 17
M  V30 17 1 14 18
M  V30 18 2 15 19
M  V30 19 1 17 20
M  V30 20 1 18 21
M  V30 21 1 19 22
M  V30 22 2 21 23
M  V30 23 1 21 24
M  V30 24 1 24 25
M  V30 25 1 24 26
M  V30 26 1 10 13
M  V30 27 1 16 19
M  V30 28 1 18 20
M  V30 END BOND
M  V30 END CTAB
M  END
>  <Molecule Name>
EDS00444974

>  <EDS_Number>
EDS00444974

>  <Stereo  Configuration>
Achiral

>  <Smiles>
CC(C)C(N(CC1)Cc2c1ccc(C(NCc1ncc(C)nc1)=O)n2)=O

>  <AS ratio>
0.0163117

>  <AS ratio 2>
0.00290724

>  <RTmin>
1.08

>  <RT check manual>
OK

>  <Avg BR>
0.00960947

>  <Hit_rank>
387

>  <HIT P841>
Active

$$$$
EDS00492986
OCL MolfileCreator  2D

  0  0  0  0  0  0              0 V3000
M  V30 BEGIN CTAB
M  V30 COUNTS 38 41 0 0 0
M  V30 BEGIN ATOM
M  V30 1 O 0.0 0.0 0.0 0
M  V30 2 C 1.2994 0.756 0.0 0
M  V30 3 O 1.2994 2.2564 0.0 0
M  V30 4 N 2.5989 0.0118 0.0 0
M  V30 5 C 2.5989 3.0124 0.0 0
M  V30 6 C 2.5989 -1.4885 0.0 0
M  V30 7 C 3.8984 0.7678 0.0 0
M  V30 8 C 2.5989 4.5128 0.0 0
M  V30 9 C 3.8984 -2.2445 0.0 0
M  V30 10 C 5.1979 0.0236 0.0 0
M  V30 11 C 5.1979 -1.5003 0.0 0
M  V30 12 N 6.4974 -2.2445 0.0 0
M  V30 13 C 6.4974 -3.7449 0.0 0
M  V30 14 O 5.1979 -4.5009 0.0 0
M  V30 15 C 7.7969 -4.4891 0.0 0
M  V30 16 N 7.7969 -5.9895 0.0 0
M  V30 17 C 9.0964 -3.7449 0.0 0
M  V30 18 C 9.0964 -6.7337 0.0 0
M  V30 19 C 10.3959 -4.4891 0.0 0
M  V30 20 C 10.3959 -5.9895 0.0 0
M  V30 21 C 9.0964 -8.234 0.0 0
M  V30 22 C 11.6954 -6.7455 0.0 0
M  V30 23 N 10.3959 -8.9783 0.0 0
M  V30 24 C 11.6954 -8.2459 0.0 0
M  V30 25 C 10.3959 -10.4786 0.0 0
M  V30 26 O 11.6954 -11.2229 0.0 0
M  V30 27 C 9.0964 -11.2347 0.0 0
M  V30 28 C 9.0964 -12.735 0.0 0
M  V30 29 C 7.7969 -13.4793 0.0 0
M  V30 30 C 7.7969 -14.9796 0.0 0
M  V30 31 O 9.0964 -15.7239 0.0 0
M  V30 32 N 6.4974 -15.7239 0.0 0
M  V30 33 C 6.4974 -17.2242 0.0 0
M  V30 34 C 5.1979 -17.9685 0.0 0
M  V30 35 C 7.7969 -17.9685 0.0 0
M  V30 36 C 5.1979 -19.4688 0.0 0
M  V30 37 C 7.7969 -19.4688 0.0 0
M  V30 38 C 6.4974 -20.213 0.0 0
M  V30 END ATOM
M  V30 BEGIN BOND
M  V30 1 2 1 2
M  V30 2 1 2 3
M  V30 3 1 2 4
M  V30 4 1 3 5
M  V30 5 1 4 6
M  V30 6 1 4 7
M  V30 7 1 5 8
M  V30 8 1 6 9
M  V30 9 1 7 10
M  V30 10 1 9 11
M  V30 11 1 11 12
M  V30 12 1 12 13
M  V30 13 2 13 14
M  V30 14 1 13 15
M  V30 15 2 15 16
M  V30 16 1 15 17
M  V30 17 1 16 18
M  V30 18 2 17 19
M  V30 19 2 18 20
M  V30 20 1 18 21
M  V30 21 1 20 22
M  V30 22 1 21 23
M  V30 23 1 22 24
M  V30 24 1 23 25
M  V30 25 2 25 26
M  V30 26 1 25 27
M  V30 27 1 27 28
M  V30 28 1 28 29
M  V30 29 1 29 30
M  V30 30 2 30 31
M  V30 31 1 30 32
M  V30 32 1 32 33
M  V30 33 2 33 34
M  V30 34 1 33 35
M  V30 35 1 34 36
M  V30 36 2 35 37
M  V30 37 2 36 38
M  V30 38 1 10 11
M  V30 39 1 19 20
M  V30 40 1 23 24
M  V30 41 1 37 38
M  V30 END BOND
M  V30 END CTAB
M  END
>  <Molecule Name>
EDS00492986

>  <EDS_Number>
EDS00492986

>  <Stereo  Configuration>
Achiral

>  <Smiles>
CCOC(N(CC1)CCC1NC(c1nc(CN(CC2)C(CCCC(Nc3ccccc3)=O)=O)c2cc1)=O)=O

>  <AS ratio>
0.0096993

>  <AS ratio 2>
0.00648281

>  <RTmin>
1.18

>  <RT check manual>
OK

>  <Avg BR>
0.008091055

>  <Hit_rank>
437

>  <HIT P841>
Active

$$$$
EDS00459442
OCL MolfileCreator  2D

  0  0  0  0  0  0              0 V3000
M  V30 BEGIN CTAB
M  V30 COUNTS 33 36 0 0 0
M  V30 BEGIN ATOM
M  V30 1 F 0.0 0.0 0.0 0
M  V30 2 C -0.4607 -1.4293 0.0 0
M  V30 3 F 0.9686 -1.89 0.0 0
M  V30 4 F -0.9214 -2.8587 0.0 0
M  V30 5 C -1.89 -0.9686 0.0 0
M  V30 6 O -2.3507 0.4607 0.0 0
M  V30 7 C -3.1067 -1.8546 0.0 0
M  V30 8 C -3.851 0.4607 0.0 0
M  V30 9 C -4.3235 -0.9686 0.0 0
M  V30 10 C -3.1067 -3.3548 0.0 0
M  V30 11 C -4.7369 1.6774 0.0 0
M  V30 12 N -1.8073 -4.099 0.0 0
M  V30 13 C -1.8073 -5.5993 0.0 0
M  V30 14 O -3.1067 -6.3553 0.0 0
M  V30 15 C -0.5079 -6.3435 0.0 0
M  V30 16 N -0.5079 -7.8437 0.0 0
M  V30 17 C 0.7914 -5.5993 0.0 0
M  V30 18 C 0.7914 -8.5879 0.0 0
M  V30 19 C 2.0908 -6.3435 0.0 0
M  V30 20 C 2.0908 -7.8437 0.0 0
M  V30 21 C 0.7914 -10.0882 0.0 0
M  V30 22 C 3.3903 -8.5997 0.0 0
M  V30 23 N 2.0908 -10.8324 0.0 0
M  V30 24 C 3.3903 -10.1 0.0 0
M  V30 25 C 2.0908 -12.3326 0.0 0
M  V30 26 O 0.7914 -13.0768 0.0 0
M  V30 27 C 3.3903 -13.0768 0.0 0
M  V30 28 N 3.5438 -14.5653 0.0 0
M  V30 29 C 4.7606 -12.4626 0.0 0
M  V30 30 N 5.0086 -14.8724 0.0 0
M  V30 31 C 5.7647 -13.573 0.0 0
M  V30 32 C 5.6229 -16.2427 0.0 0
M  V30 33 C 7.2531 -13.4194 0.0 0
M  V30 END ATOM
M  V30 BEGIN BOND
M  V30 1 1 1 2
M  V30 2 1 2 3
M  V30 3 1 2 4
M  V30 4 1 2 5
M  V30 5 1 5 6
M  V30 6 2 5 7
M  V30 7 1 6 8
M  V30 8 1 7 9
M  V30 9 1 7 10
M  V30 10 1 8 11
M  V30 11 1 10 12
M  V30 12 1 12 13
M  V30 13 2 13 14
M  V30 14 1 13 15
M  V30 15 2 15 16
M  V30 16 1 15 17
M  V30 17 1 16 18
M  V30 18 2 17 19
M  V30 19 2 18 20
M  V30 20 1 18 21
M  V30 21 1 20 22
M  V30 22 1 21 23
M  V30 23 1 22 24
M  V30 24 1 23 25
M  V30 25 2 25 26
M  V30 26 1 25 27
M  V30 27 2 27 28
M  V30 28 1 27 29
M  V30 29 1 28 30
M  V30 30 2 29 31
M  V30 31 1 30 32
M  V30 32 1 31 33
M  V30 33 2 8 9
M  V30 34 1 19 20
M  V30 35 1 23 24
M  V30 36 1 30 31
M  V30 END BOND
M  V30 END CTAB
M  END
>  <Molecule Name>
EDS00459442

>  <EDS_Number>
EDS00459442

>  <Stereo  Configuration>
Achiral

>  <Smiles>
Cc1cc(C(N(CC2)Cc3c2ccc(C(NCc2c(C(F)(F)F)[o]c(C)c2)=O)n3)=O)n[n]1C

>  <AS ratio>
0.00833583

>  <AS ratio 2>
0.006014

>  <RTmin>
1.26

>  <RT check manual>
OK

>  <Avg BR>
0.007174915

>  <Hit_rank>
464

>  <HIT P841>
Active

$$$$
EDS00490706
OCL MolfileCreator  2D

  0  0  0  0  0  0              0 V3000
M  V30 BEGIN CTAB
M  V30 COUNTS 34 38 0 0 0
M  V30 BEGIN ATOM
M  V30 1 O 0.0 0.0 0.0 0
M  V30 2 C -1.2989 0.7439 0.0 0
M  V30 3 N -1.2989 2.2436 0.0 0
M  V30 4 C -2.5979 -0.0118 0.0 0
M  V30 5 C -2.5979 2.9876 0.0 0
M  V30 6 C 0.0 2.9994 0.0 0
M  V30 7 C -3.8969 0.7439 0.0 0
M  V30 8 C -2.5979 -1.5115 0.0 0
M  V30 9 C -2.5979 4.4873 0.0 0
M  V30 10 C 0.0 4.4992 0.0 0
M  V30 11 O -3.8969 2.2436 0.0 0
M  V30 12 C -5.1959 -0.0118 0.0 0
M  V30 13 C -3.8969 -2.2673 0.0 0
M  V30 14 N -3.8969 5.2313 0.0 0
M  V30 15 C -1.2989 5.2431 0.0 0
M  V30 16 C -5.1959 2.9994 0.0 0
M  V30 17 C -5.1959 -1.5115 0.0 0
M  V30 18 C -6.4949 0.7439 0.0 0
M  V30 19 C -3.8969 6.731 0.0 0
M  V30 20 C -1.2989 6.7428 0.0 0
M  V30 21 C -6.4949 -2.2673 0.0 0
M  V30 22 C -7.7938 -0.0118 0.0 0
M  V30 23 C -5.1959 7.475 0.0 0
M  V30 24 C -2.5979 7.475 0.0 0
M  V30 25 C -7.7938 -1.5233 0.0 0
M  V30 26 O -5.1959 8.9747 0.0 0
M  V30 27 N -6.4949 6.731 0.0 0
M  V30 28 C -7.7938 7.475 0.0 0
M  V30 29 C -9.0928 6.731 0.0 0
M  V30 30 C -10.3918 7.4868 0.0 0
M  V30 31 C -9.0928 5.2313 0.0 0
M  V30 32 C -11.6908 6.7428 0.0 0
M  V30 33 C -10.3918 4.4873 0.0 0
M  V30 34 C -11.6908 5.2431 0.0 0
M  V30 END ATOM
M  V30 BEGIN BOND
M  V30 1 2 1 2
M  V30 2 1 2 3
M  V30 3 1 2 4
M  V30 4 1 3 5
M  V30 5 1 3 6
M  V30 6 2 4 7
M  V30 7 1 4 8
M  V30 8 1 5 9
M  V30 9 1 6 10
M  V30 10 1 7 11
M  V30 11 1 7 12
M  V30 12 2 8 13
M  V30 13 2 9 14
M  V30 14 1 9 15
M  V30 15 1 11 16
M  V30 16 2 12 17
M  V30 17 1 12 18
M  V30 18 1 14 19
M  V30 19 2 15 20
M  V30 20 1 17 21
M  V30 21 2 18 22
M  V30 22 1 19 23
M  V30 23 2 19 24
M  V30 24 2 21 25
M  V30 25 2 23 26
M  V30 26 1 23 27
M  V30 27 1 27 28
M  V30 28 1 28 29
M  V30 29 2 29 30
M  V30 30 1 29 31
M  V30 31 1 30 32
M  V30 32 2 31 33
M  V30 33 2 32 34
M  V30 34 1 10 15
M  V30 35 1 13 17
M  V30 36 1 20 24
M  V30 37 1 22 25
M  V30 38 1 33 34
M  V30 END BOND
M  V30 END CTAB
M  END
>  <Molecule Name>
EDS00490706

>  <EDS_Number>
EDS00490706

>  <Stereo  Configuration>
Achiral

>  <Smiles>
COc(c(cccc1)c1cc1)c1C(N1Cc2nc(C(NCc3ccccc3)=O)ccc2CC1)=O

>  <AS ratio>
0.00121192

>  <AS ratio 2>
0.0129992

>  <RTmin>
1.32

>  <RT check manual>
OK

>  <Avg BR>
0.00710556

>  <Hit_rank>
468

>  <HIT P841>
Active

$$$$
EDS00492874
OCL MolfileCreator  2D

  0  0  0  0  0  0              0 V3000
M  V30 BEGIN CTAB
M  V30 COUNTS 37 40 0 0 0
M  V30 BEGIN ATOM
M  V30 1 O 0.0 0.0 0.0 0
M  V30 2 C 0.0 -1.5012 0.0 0
M  V30 3 N -1.3002 -2.2577 0.0 0
M  V30 4 C 1.3002 -2.2459 0.0 0
M  V30 5 C -1.3002 -3.7589 0.0 0
M  V30 6 N 1.3002 -3.7471 0.0 0
M  V30 7 C 2.6005 -1.5012 0.0 0
M  V30 8 C -2.6005 -4.5155 0.0 0
M  V30 9 C 2.6005 -4.4918 0.0 0
M  V30 10 C 3.9008 -2.2459 0.0 0
M  V30 11 C -2.6005 -6.0167 0.0 0
M  V30 12 C -3.3452 -3.2152 0.0 0
M  V30 13 C -4.1017 -4.5155 0.0 0
M  V30 14 C 3.9008 -3.7471 0.0 0
M  V30 15 C 2.6005 -5.9931 0.0 0
M  V30 16 C -3.9008 -6.7614 0.0 0
M  V30 17 C -1.3002 -6.7732 0.0 0
M  V30 18 C 5.2011 -4.4918 0.0 0
M  V30 19 N 3.9008 -6.7378 0.0 0
M  V30 20 C -3.9008 -8.2626 0.0 0
M  V30 21 C -1.3002 -8.2745 0.0 0
M  V30 22 C 5.2011 -5.9931 0.0 0
M  V30 23 C 3.9008 -8.239 0.0 0
M  V30 24 N -2.6005 -9.0073 0.0 0
M  V30 25 O 5.2011 -8.9837 0.0 0
M  V30 26 C 2.6005 -8.9955 0.0 0
M  V30 27 C 2.6005 -10.4968 0.0 0
M  V30 28 C 1.3002 -11.2415 0.0 0
M  V30 29 C 1.3002 -12.7427 0.0 0
M  V30 30 O 2.6005 -13.4874 0.0 0
M  V30 31 N 0.0 -13.4874 0.0 0
M  V30 32 C 0.0 -14.9886 0.0 0
M  V30 33 C -1.3002 -15.7333 0.0 0
M  V30 34 C 1.3002 -15.7333 0.0 0
M  V30 35 C -1.3002 -17.2346 0.0 0
M  V30 36 C 1.3002 -17.2346 0.0 0
M  V30 37 C 0.0 -17.9793 0.0 0
M  V30 END ATOM
M  V30 BEGIN BOND
M  V30 1 2 1 2
M  V30 2 1 2 3
M  V30 3 1 2 4
M  V30 4 1 3 5
M  V30 5 2 4 6
M  V30 6 1 4 7
M  V30 7 1 5 8
M  V30 8 1 6 9
M  V30 9 2 7 10
M  V30 10 1 8 11
M  V30 11 1 8 12
M  V30 12 1 8 13
M  V30 13 2 9 14
M  V30 14 1 9 15
M  V30 15 2 11 16
M  V30 16 1 11 17
M  V30 17 1 14 18
M  V30 18 1 15 19
M  V30 19 1 16 20
M  V30 20 2 17 21
M  V30 21 1 18 22
M  V30 22 1 19 23
M  V30 23 2 20 24
M  V30 24 2 23 25
M  V30 25 1 23 26
M  V30 26 1 26 27
M  V30 27 1 27 28
M  V30 28 1 28 29
M  V30 29 2 29 30
M  V30 30 1 29 31
M  V30 31 1 31 32
M  V30 32 2 32 33
M  V30 33 1 32 34
M  V30 34 1 33 35
M  V30 35 2 34 36
M  V30 36 2 35 37
M  V30 37 1 10 14
M  V30 38 1 19 22
M  V30 39 1 21 24
M  V30 40 1 36 37
M  V30 END BOND
M  V30 END CTAB
M  END
>  <Molecule Name>
EDS00492874

>  <EDS_Number>
EDS00492874

>  <Stereo  Configuration>
Achiral

>  <Smiles>
CC(C)(CNC(c1nc(CN(CC2)C(CCCC(Nc3ccccc3)=O)=O)c2cc1)=O)c1ccncc1

>  <AS ratio>
0.0105749

>  <AS ratio 2>
0.00218051

>  <RTmin>
1

>  <RT check manual>
OK

>  <Avg BR>
0.006377705

>  <Hit_rank>
512

>  <HIT P841>
Active

$$$$
EDS00470458
OCL MolfileCreator  2D

  0  0  0  0  0  0              0 V3000
M  V30 BEGIN CTAB
M  V30 COUNTS 35 39 0 0 0
M  V30 BEGIN ATOM
M  V30 1 S 0.0 0.0 0.0 0
M  V30 2 C 0.7562 -1.2997 0.0 0
M  V30 3 C 1.0043 1.1107 0.0 0
M  V30 4 C 2.2214 -0.9925 0.0 0
M  V30 5 C 2.375 0.4962 0.0 0
M  V30 6 O 3.3321 -1.9969 0.0 0
M  V30 7 C 3.6747 1.2525 0.0 0
M  V30 8 C 4.7618 -1.536 0.0 0
M  V30 9 O 4.9745 0.508 0.0 0
M  V30 10 N 3.6747 2.7531 0.0 0
M  V30 11 C 2.375 3.4975 0.0 0
M  V30 12 C 4.9745 3.5093 0.0 0
M  V30 13 C 2.375 4.9981 0.0 0
M  V30 14 C 4.9745 5.01 0.0 0
M  V30 15 N 1.0752 5.7426 0.0 0
M  V30 16 C 3.6747 5.7544 0.0 0
M  V30 17 C 1.0752 7.2432 0.0 0
M  V30 18 C 3.6747 7.255 0.0 0
M  V30 19 C -0.2245 7.9876 0.0 0
M  V30 20 C 2.375 7.9876 0.0 0
M  V30 21 O -0.2245 9.4883 0.0 0
M  V30 22 N -1.5242 7.2432 0.0 0
M  V30 23 C -2.824 7.9876 0.0 0
M  V30 24 C -4.1238 7.2432 0.0 0
M  V30 25 C -4.1238 8.7438 0.0 0
M  V30 26 C -4.1238 5.7426 0.0 0
M  V30 27 C -5.4235 7.9994 0.0 0
M  V30 28 C -5.4235 9.5001 0.0 0
M  V30 29 C -2.824 9.4883 0.0 0
M  V30 30 C -5.4235 4.9981 0.0 0
M  V30 31 C -6.7233 7.255 0.0 0
M  V30 32 C -5.4235 11.0007 0.0 0
M  V30 33 C -2.824 10.9889 0.0 0
M  V30 34 O -6.7233 5.7426 0.0 0
M  V30 35 C -4.1238 11.7451 0.0 0
M  V30 END ATOM
M  V30 BEGIN BOND
M  V30 1 1 1 2
M  V30 2 1 1 3
M  V30 3 2 2 4
M  V30 4 2 3 5
M  V30 5 1 4 6
M  V30 6 1 5 7
M  V30 7 1 6 8
M  V30 8 2 7 9
M  V30 9 1 7 10
M  V30 10 1 10 11
M  V30 11 1 10 12
M  V30 12 1 11 13
M  V30 13 1 12 14
M  V30 14 2 13 15
M  V30 15 1 13 16
M  V30 16 1 15 17
M  V30 17 2 16 18
M  V30 18 1 17 19
M  V30 19 2 17 20
M  V30 20 2 19 21
M  V30 21 1 19 22
M  V30 22 1 22 23
M  V30 23 1 23 24
M  V30 24 1 24 25
M  V30 25 1 24 26
M  V30 26 1 24 27
M  V30 27 2 25 28
M  V30 28 1 25 29
M  V30 29 1 26 30
M  V30 30 1 27 31
M  V30 31 1 28 32
M  V30 32 2 29 33
M  V30 33 1 30 34
M  V30 34 2 32 35
M  V30 35 1 4 5
M  V30 36 1 14 16
M  V30 37 1 18 20
M  V30 38 1 31 34
M  V30 39 1 33 35
M  V30 END BOND
M  V30 END CTAB
M  END
>  <Molecule Name>
EDS00470458

>  <EDS_Number>
EDS00470458

>  <Stereo  Configuration>
Achiral

>  <Smiles>
COc1c[s]cc1C(N1Cc2nc(C(NCC3(CCOCC3)c3ccccc3)=O)ccc2CC1)=O

>  <AS ratio>
0.00145151

>  <AS ratio 2>
0.00744895

>  <RTmin>
1.23

>  <RT check manual>
OK

>  <Avg BR>
0.00445023

>  <Hit_rank>
613

>  <HIT P841>
Active

$$$$
EDS00474254
OCL MolfileCreator  2D

  0  0  0  0  0  0              0 V3000
M  V30 BEGIN CTAB
M  V30 COUNTS 30 33 0 0 0
M  V30 BEGIN ATOM
M  V30 1 S 0.0 0.0 0.0 0
M  V30 2 C -0.4609 -1.4299 0.0 0
M  V30 3 C 1.5008 0.0 0.0 0
M  V30 4 C 0.7563 -2.3163 0.0 0
M  V30 5 C 1.9617 -1.4299 0.0 0
M  V30 6 C 0.7563 -3.8172 0.0 0
M  V30 7 N 2.0563 -4.5617 0.0 0
M  V30 8 C 2.0563 -6.0626 0.0 0
M  V30 9 O 0.7563 -6.8189 0.0 0
M  V30 10 C 3.3563 -6.8071 0.0 0
M  V30 11 N 3.3563 -8.308 0.0 0
M  V30 12 C 4.6562 -6.0626 0.0 0
M  V30 13 C 4.6562 -9.0525 0.0 0
M  V30 14 C 5.9562 -6.8071 0.0 0
M  V30 15 C 5.9562 -8.308 0.0 0
M  V30 16 C 4.6562 -10.5534 0.0 0
M  V30 17 C 7.2562 -9.0644 0.0 0
M  V30 18 N 5.9562 -11.298 0.0 0
M  V30 19 C 7.2562 -10.5652 0.0 0
M  V30 20 C 5.9562 -12.7988 0.0 0
M  V30 21 O 4.6562 -13.5434 0.0 0
M  V30 22 C 7.2562 -13.5434 0.0 0
M  V30 23 C 7.2562 -15.0443 0.0 0
M  V30 24 C 8.5562 -12.7988 0.0 0
M  V30 25 O 5.9562 -15.7888 0.0 0
M  V30 26 C 8.5562 -15.8006 0.0 0
M  V30 27 C 9.8562 -13.5552 0.0 0
M  V30 28 C 5.9562 -17.2897 0.0 0
M  V30 29 C 9.8562 -15.0561 0.0 0
M  V30 30 C 11.1561 -12.8107 0.0 0
M  V30 END ATOM
M  V30 BEGIN BOND
M  V30 1 1 1 2
M  V30 2 1 1 3
M  V30 3 2 2 4
M  V30 4 2 3 5
M  V30 5 1 4 6
M  V30 6 1 6 7
M  V30 7 1 7 8
M  V30 8 2 8 9
M  V30 9 1 8 10
M  V30 10 2 10 11
M  V30 11 1 10 12
M  V30 12 1 11 13
M  V30 13 2 12 14
M  V30 14 2 13 15
M  V30 15 1 13 16
M  V30 16 1 15 17
M  V30 17 1 16 18
M  V30 18 1 17 19
M  V30 19 1 18 20
M  V30 20 2 20 21
M  V30 21 1 20 22
M  V30 22 2 22 23
M  V30 23 1 22 24
M  V30 24 1 23 25
M  V30 25 1 23 26
M  V30 26 2 24 27
M  V30 27 1 25 28
M  V30 28 2 26 29
M  V30 29 1 27 30
M  V30 30 1 4 5
M  V30 31 1 14 15
M  V30 32 1 18 19
M  V30 33 1 27 29
M  V30 END BOND
M  V30 END CTAB
M  END
>  <Molecule Name>
EDS00474254

>  <EDS_Number>
EDS00474254

>  <Stereo  Configuration>
Achiral

>  <Smiles>
Cc(cc1)cc(C(N(CC2)Cc3c2ccc(C(NCc2c[s]cc2)=O)n3)=O)c1OC

>  <AS ratio>
0.00371267

>  <AS ratio 2>
0.003537

>  <RTmin>
1.26

>  <RT check manual>
OK

>  <Avg BR>
0.003624835

>  <Hit_rank>
677

>  <HIT P841>
Active

$$$$
EDS00474362
OCL MolfileCreator  2D

  0  0  0  0  0  0              0 V3000
M  V30 BEGIN CTAB
M  V30 COUNTS 35 38 0 0 0
M  V30 BEGIN ATOM
M  V30 1 S 0.0 0.0 0.0 0
M  V30 2 O 0.7446 1.3001 0.0 0
M  V30 3 O -0.7446 -1.3001 0.0 0
M  V30 4 C 1.3001 -0.7446 0.0 0
M  V30 5 C -1.3001 0.7446 0.0 0
M  V30 6 C 1.3001 -2.2457 0.0 0
M  V30 7 C 2.6003 0.0118 0.0 0
M  V30 8 C 2.6003 -2.9904 0.0 0
M  V30 9 C 3.9005 -0.7328 0.0 0
M  V30 10 C 3.9005 -2.2339 0.0 0
M  V30 11 C 2.6003 -4.4915 0.0 0
M  V30 12 N 3.9005 -5.2362 0.0 0
M  V30 13 C 3.9005 -6.7373 0.0 0
M  V30 14 O 2.6003 -7.4938 0.0 0
M  V30 15 C 5.2007 -7.482 0.0 0
M  V30 16 N 5.2007 -8.9831 0.0 0
M  V30 17 C 6.5009 -6.7373 0.0 0
M  V30 18 C 6.5009 -9.7278 0.0 0
M  V30 19 C 7.8011 -7.482 0.0 0
M  V30 20 C 7.8011 -8.9831 0.0 0
M  V30 21 C 6.5009 -11.2289 0.0 0
M  V30 22 C 9.1013 -9.7396 0.0 0
M  V30 23 N 7.8011 -11.9736 0.0 0
M  V30 24 C 9.1013 -11.2407 0.0 0
M  V30 25 C 7.8011 -13.4747 0.0 0
M  V30 26 O 6.5009 -14.2193 0.0 0
M  V30 27 C 9.1013 -14.2193 0.0 0
M  V30 28 C 9.1013 -15.7205 0.0 0
M  V30 29 C 10.4015 -13.4747 0.0 0
M  V30 30 O 7.8011 -16.4651 0.0 0
M  V30 31 C 10.4015 -16.477 0.0 0
M  V30 32 C 11.7017 -14.2312 0.0 0
M  V30 33 C 7.8011 -17.9663 0.0 0
M  V30 34 C 11.7017 -15.7323 0.0 0
M  V30 35 C 13.0019 -13.4865 0.0 0
M  V30 END ATOM
M  V30 BEGIN BOND
M  V30 1 2 1 2
M  V30 2 2 1 3
M  V30 3 1 1 4
M  V30 4 1 1 5
M  V30 5 2 4 6
M  V30 6 1 4 7
M  V30 7 1 6 8
M  V30 8 2 7 9
M  V30 9 2 8 10
M  V30 10 1 8 11
M  V30 11 1 11 12
M  V30 12 1 12 13
M  V30 13 2 13 14
M  V30 14 1 13 15
M  V30 15 2 15 16
M  V30 16 1 15 17
M  V30 17 1 16 18
M  V30 18 2 17 19
M  V30 19 2 18 20
M  V30 20 1 18 21
M  V30 21 1 20 22
M  V30 22 1 21 23
M  V30 23 1 22 24
M  V30 24 1 23 25
M  V30 25 2 25 26
M  V30 26 1 25 27
M  V30 27 2 27 28
M  V30 28 1 27 29
M  V30 29 1 28 30
M  V30 30 1 28 31
M  V30 31 2 29 32
M  V30 32 1 30 33
M  V30 33 2 31 34
M  V30 34 1 32 35
M  V30 35 1 9 10
M  V30 36 1 19 20
M  V30 37 1 23 24
M  V30 38 1 32 34
M  V30 END BOND
M  V30 END CTAB
M  END
>  <Molecule Name>
EDS00474362

>  <EDS_Number>
EDS00474362

>  <Stereo  Configuration>
Achiral

>  <Smiles>
Cc(cc1)cc(C(N(CC2)Cc3c2ccc(C(NCc2cccc(S(C)(=O)=O)c2)=O)n3)=O)c1OC

>  <AS ratio>
0.00258407

>  <AS ratio 2>
0.00217283

>  <RTmin>
1.19

>  <RT check manual>
OK

>  <Avg BR>
0.00237845

>  <Hit_rank>
794

>  <HIT P841>
Active

$$$$
