Target
     RDKit          2D

 20 23  0  0  0  0  0  0  0  0999 V2000
    4.3829    1.6160    0.0000 O   0  0  0  0  0  0  0  0  0  0  0  0
    2.8837    1.5669    0.0000 C   0  0  0  0  0  0  0  0  0  0  0  0
    2.2646    2.9332    0.0000 C   0  0  0  0  0  0  0  0  0  0  0  0
    0.8607    3.4615    0.0000 C   0  0  0  0  0  0  0  0  0  0  0  0
   -0.5056    2.8424    0.0000 N   0  0  0  0  0  0  0  0  0  0  0  0
   -1.0339    1.4386    0.0000 C   0  0  0  0  0  0  0  0  0  0  0  0
   -2.5267    1.5856    0.0000 C   0  0  0  0  0  0  0  0  0  0  0  0
   -3.4004    0.3663    0.0000 C   0  0  0  0  0  0  0  0  0  0  0  0
   -2.7813   -1.0000    0.0000 C   0  0  0  0  0  0  0  0  0  0  0  0
   -1.2885   -1.1470    0.0000 C   0  0  0  0  0  0  0  0  0  0  0  0
   -0.4148    0.0723    0.0000 C   0  0  0  0  0  0  0  0  0  0  0  0
    0.9890   -0.4561    0.0000 C   0  0  0  0  0  0  0  0  0  0  0  0
    2.3553    0.1630    0.0000 N   0  0  0  0  0  0  0  0  0  0  0  0
    3.4501   -0.8623    0.0000 C   0  0  0  0  0  0  0  0  0  0  0  0
    3.1096   -2.3232    0.0000 C   0  0  0  0  0  0  0  0  0  0  0  0
    3.5450   -3.7586    0.0000 C   0  0  0  0  0  0  0  0  0  0  0  0
    2.0842   -3.4180    0.0000 C   0  0  0  0  0  0  0  0  0  0  0  0
   -3.8894   -2.0110    0.0000 O   0  0  0  0  0  0  0  0  0  0  0  0
   -5.1933   -1.2695    0.0000 C   0  0  0  0  0  0  0  0  0  0  0  0
   -4.8911    0.1997    0.0000 O   0  0  0  0  0  0  0  0  0  0  0  0
  1  2  2  0
  2  3  1  0
  3  4  1  0
  4  5  1  0
  5  6  1  0
  6  7  2  0
  7  8  1  0
  8  9  2  0
  9 10  1  0
 10 11  2  0
 11 12  1  0
 12 13  1  0
 13 14  1  0
 14 15  1  0
 15 16  1  0
 16 17  1  0
  9 18  1  0
 18 19  1  0
 19 20  1  0
 13  2  1  0
 17 15  1  0
 11  6  1  0
 20  8  1  0
M  END
$$$$
SM-1 2-nitropiperonal
     RDKit          2D

 14 15  0  0  0  0  0  0  0  0999 V2000
    3.3073    1.3271    0.0000 O   0  0  0  0  0  0  0  0  0  0  0  0
    1.9353    1.9333    0.0000 C   0  0  0  0  0  0  0  0  0  0  0  0
    0.7243    1.0481    0.0000 C   0  0  0  0  0  0  0  0  0  0  0  0
   -0.6478    1.6543    0.0000 C   0  0  0  0  0  0  0  0  0  0  0  0
   -1.8588    0.7691    0.0000 C   0  0  0  0  0  0  0  0  0  0  0  0
   -1.6977   -0.7222    0.0000 C   0  0  0  0  0  0  0  0  0  0  0  0
   -0.3257   -1.3284    0.0000 C   0  0  0  0  0  0  0  0  0  0  0  0
    0.8853   -0.4432    0.0000 C   0  0  0  0  0  0  0  0  0  0  0  0
    2.2574   -1.0494    0.0000 N   0  0  0  0  0  4  0  0  0  0  0  0
    3.4684   -0.1642    0.0000 O   0  0  0  0  0  0  0  0  0  0  0  0
    2.4184   -2.5407    0.0000 O   0  0  0  0  0  1  0  0  0  0  0  0
   -3.0663   -1.3362    0.0000 O   0  0  0  0  0  0  0  0  0  0  0  0
   -4.0732   -0.2244    0.0000 C   0  0  0  0  0  0  0  0  0  0  0  0
   -3.3269    1.0768    0.0000 O   0  0  0  0  0  0  0  0  0  0  0  0
  1  2  2  0
  2  3  1  0
  3  4  2  0
  4  5  1  0
  5  6  2  0
  6  7  1  0
  7  8  2  0
  8  9  1  0
  9 10  2  0
  9 11  1  0
  6 12  1  0
 12 13  1  0
 13 14  1  0
  8  3  1  0
 14  5  1  0
M  CHG  2   9   1  11  -1
M  END
$$$$
SM-2 CpCH2NH2
     RDKit          2D

  5  5  0  0  0  0  0  0  0  0999 V2000
   -2.2332    0.4144    0.0000 N   0  0  0  0  0  0  0  0  0  0  0  0
   -1.1412   -0.6140    0.0000 C   0  0  0  0  0  0  0  0  0  0  0  0
    0.2954   -0.1826    0.0000 C   0  0  0  0  0  0  0  0  0  0  0  0
    1.7553   -0.5272    0.0000 C   0  0  0  0  0  0  0  0  0  0  0  0
    1.3238    0.9094    0.0000 C   0  0  0  0  0  0  0  0  0  0  0  0
  1  2  1  0
  2  3  1  0
  3  4  1  0
  4  5  1  0
  5  3  1  0
M  END
$$$$
SM-4 N-Boc-bAla
     RDKit          2D

 13 12  0  0  0  0  0  0  0  0999 V2000
   -4.2308    1.4078    0.0000 C   0  0  0  0  0  0  0  0  0  0  0  0
   -3.4965    0.0998    0.0000 C   0  0  0  0  0  0  0  0  0  0  0  0
   -2.7622   -1.2082    0.0000 C   0  0  0  0  0  0  0  0  0  0  0  0
   -4.8044   -0.6345    0.0000 C   0  0  0  0  0  0  0  0  0  0  0  0
   -2.1885    0.8341    0.0000 O   0  0  0  0  0  0  0  0  0  0  0  0
   -0.8986    0.0685    0.0000 C   0  0  0  0  0  0  0  0  0  0  0  0
   -0.9166   -1.4314    0.0000 O   0  0  0  0  0  0  0  0  0  0  0  0
    0.4094    0.8028    0.0000 N   0  0  0  0  0  0  0  0  0  0  0  0
    1.6993    0.0372    0.0000 C   0  0  0  0  0  0  0  0  0  0  0  0
    3.0073    0.7715    0.0000 C   0  0  0  0  0  0  0  0  0  0  0  0
    4.2972    0.0060    0.0000 C   0  0  0  0  0  0  0  0  0  0  0  0
    4.2791   -1.4939    0.0000 O   0  0  0  0  0  0  0  0  0  0  0  0
    5.6052    0.7403    0.0000 O   0  0  0  0  0  0  0  0  0  0  0  0
  1  2  1  0
  2  3  1  0
  2  4  1  0
  2  5  1  0
  5  6  1  0
  6  7  2  0
  6  8  1  0
  8  9  1  0
  9 10  1  0
 10 11  1  0
 11 12  2  0
 11 13  1  0
M  END
$$$$
SM-6 2-aminopiperonal
     RDKit          2D

 12 13  0  0  0  0  0  0  0  0999 V2000
    3.9284    0.4535    0.0000 O   0  0  0  0  0  0  0  0  0  0  0  0
    2.6765    1.2798    0.0000 C   0  0  0  0  0  0  0  0  0  0  0  0
    1.3349    0.6088    0.0000 C   0  0  0  0  0  0  0  0  0  0  0  0
    0.0830    1.4351    0.0000 C   0  0  0  0  0  0  0  0  0  0  0  0
   -1.2585    0.7641    0.0000 C   0  0  0  0  0  0  0  0  0  0  0  0
   -1.3482   -0.7332    0.0000 C   0  0  0  0  0  0  0  0  0  0  0  0
   -0.0963   -1.5595    0.0000 C   0  0  0  0  0  0  0  0  0  0  0  0
    1.2453   -0.8885    0.0000 C   0  0  0  0  0  0  0  0  0  0  0  0
    2.4971   -1.7148    0.0000 N   0  0  0  0  0  0  0  0  0  0  0  0
   -2.7999   -1.1106    0.0000 O   0  0  0  0  0  0  0  0  0  0  0  0
   -3.6075    0.1534    0.0000 C   0  0  0  0  0  0  0  0  0  0  0  0
   -2.6548    1.3121    0.0000 O   0  0  0  0  0  0  0  0  0  0  0  0
  1  2  2  0
  2  3  1  0
  3  4  2  0
  4  5  1  0
  5  6  2  0
  6  7  1  0
  7  8  2  0
  8  9  1  0
  6 10  1  0
 10 11  1  0
 11 12  1  0
  8  3  1  0
 12  5  1  0
M  END
$$$$
SM-7 2-bromopiperonal
     RDKit          2D

 12 13  0  0  0  0  0  0  0  0999 V2000
    3.9284    0.4535    0.0000 O   0  0  0  0  0  0  0  0  0  0  0  0
    2.6765    1.2798    0.0000 C   0  0  0  0  0  0  0  0  0  0  0  0
    1.3349    0.6088    0.0000 C   0  0  0  0  0  0  0  0  0  0  0  0
    0.0830    1.4351    0.0000 C   0  0  0  0  0  0  0  0  0  0  0  0
   -1.2585    0.7641    0.0000 C   0  0  0  0  0  0  0  0  0  0  0  0
   -1.3482   -0.7332    0.0000 C   0  0  0  0  0  0  0  0  0  0  0  0
   -0.0963   -1.5595    0.0000 C   0  0  0  0  0  0  0  0  0  0  0  0
    1.2453   -0.8885    0.0000 C   0  0  0  0  0  0  0  0  0  0  0  0
    2.4971   -1.7148    0.0000 Br  0  0  0  0  0  0  0  0  0  0  0  0
   -2.7999   -1.1106    0.0000 O   0  0  0  0  0  0  0  0  0  0  0  0
   -3.6075    0.1534    0.0000 C   0  0  0  0  0  0  0  0  0  0  0  0
   -2.6548    1.3121    0.0000 O   0  0  0  0  0  0  0  0  0  0  0  0
  1  2  2  0
  2  3  1  0
  3  4  2  0
  4  5  1  0
  5  6  2  0
  6  7  1  0
  7  8  2  0
  8  9  1  0
  6 10  1  0
 10 11  1  0
 11 12  1  0
  8  3  1  0
 12  5  1  0
M  END
$$$$
Piperonal SM-1star
     RDKit          2D

 11 12  0  0  0  0  0  0  0  0999 V2000
    3.7030   -1.3033    0.0000 O   0  0  0  0  0  0  0  0  0  0  0  0
    3.1433    0.0884    0.0000 C   0  0  0  0  0  0  0  0  0  0  0  0
    1.6582    0.2995    0.0000 C   0  0  0  0  0  0  0  0  0  0  0  0
    1.0985    1.6911    0.0000 C   0  0  0  0  0  0  0  0  0  0  0  0
   -0.3866    1.9022    0.0000 C   0  0  0  0  0  0  0  0  0  0  0  0
   -1.3120    0.7217    0.0000 C   0  0  0  0  0  0  0  0  0  0  0  0
   -0.7522   -0.6700    0.0000 C   0  0  0  0  0  0  0  0  0  0  0  0
    0.7328   -0.8811    0.0000 C   0  0  0  0  0  0  0  0  0  0  0  0
   -1.9028   -1.6324    0.0000 O   0  0  0  0  0  0  0  0  0  0  0  0
   -3.1736   -0.8355    0.0000 C   0  0  0  0  0  0  0  0  0  0  0  0
   -2.8085    0.6194    0.0000 O   0  0  0  0  0  0  0  0  0  0  0  0
  1  2  2  0
  2  3  1  0
  3  4  2  0
  4  5  1  0
  5  6  2  0
  6  7  1  0
  7  8  2  0
  7  9  1  0
  9 10  1  0
 10 11  1  0
  8  3  1  0
 11  6  1  0
M  END
$$$$
Int-A1 reductive-am
     RDKit          2D

 18 20  0  0  0  0  0  0  0  0999 V2000
    0.2839    3.3433    0.0000 O   0  0  0  0  0  0  0  0  0  0  0  0
   -1.1265    2.8326    0.0000 N   0  0  0  0  0  4  0  0  0  0  0  0
   -2.2740    3.7986    0.0000 O   0  0  0  0  0  1  0  0  0  0  0  0
   -1.3893    1.3558    0.0000 C   0  0  0  0  0  0  0  0  0  0  0  0
   -2.7997    0.8450    0.0000 C   0  0  0  0  0  0  0  0  0  0  0  0
   -3.0626   -0.6317    0.0000 C   0  0  0  0  0  0  0  0  0  0  0  0
   -1.9151   -1.5978    0.0000 C   0  0  0  0  0  0  0  0  0  0  0  0
   -0.5047   -1.0870    0.0000 C   0  0  0  0  0  0  0  0  0  0  0  0
   -0.2418    0.3897    0.0000 C   0  0  0  0  0  0  0  0  0  0  0  0
    1.1685    0.9005    0.0000 C   0  0  0  0  0  0  0  0  0  0  0  0
    2.3160   -0.0656    0.0000 N   0  0  0  0  0  0  0  0  0  0  0  0
    3.7264    0.4452    0.0000 C   0  0  0  0  0  0  0  0  0  0  0  0
    4.8739   -0.5209    0.0000 C   0  0  0  0  0  0  0  0  0  0  0  0
    6.3507   -0.7837    0.0000 C   0  0  0  0  0  0  0  0  0  0  0  0
    5.3847   -1.9312    0.0000 C   0  0  0  0  0  0  0  0  0  0  0  0
   -2.4792   -2.9877    0.0000 O   0  0  0  0  0  0  0  0  0  0  0  0
   -3.9754   -2.8806    0.0000 C   0  0  0  0  0  0  0  0  0  0  0  0
   -4.3359   -1.4246    0.0000 O   0  0  0  0  0  0  0  0  0  0  0  0
  1  2  2  0
  2  3  1  0
  2  4  1  0
  4  5  2  0
  5  6  1  0
  6  7  2  0
  7  8  1  0
  8  9  2  0
  9 10  1  0
 10 11  1  0
 11 12  1  0
 12 13  1  0
 13 14  1  0
 14 15  1  0
  7 16  1  0
 16 17  1  0
 17 18  1  0
  9  4  1  0
 15 13  1  0
 18  6  1  0
M  CHG  2   2   1   3  -1
M  END
$$$$
Int-A2 N-Boc
     RDKit          2D

 25 27  0  0  0  0  0  0  0  0999 V2000
    4.7139   -1.5967    0.0000 C   0  0  0  0  0  0  0  0  0  0  0  0
    3.2514   -1.9300    0.0000 C   0  0  0  0  0  0  0  0  0  0  0  0
    1.7889   -2.2633    0.0000 C   0  0  0  0  0  0  0  0  0  0  0  0
    3.5847   -3.3925    0.0000 C   0  0  0  0  0  0  0  0  0  0  0  0
    2.9180   -0.4675    0.0000 O   0  0  0  0  0  0  0  0  0  0  0  0
    1.4848   -0.0249    0.0000 C   0  0  0  0  0  0  0  0  0  0  0  0
    0.3849   -1.0448    0.0000 O   0  0  0  0  0  0  0  0  0  0  0  0
    1.1515    1.4376    0.0000 N   0  0  0  0  0  0  0  0  0  0  0  0
   -0.2817    1.8802    0.0000 C   0  0  0  0  0  0  0  0  0  0  0  0
   -1.3816    0.8603    0.0000 C   0  0  0  0  0  0  0  0  0  0  0  0
   -1.0483   -0.6022    0.0000 C   0  0  0  0  0  0  0  0  0  0  0  0
   -2.1482   -1.6221    0.0000 C   0  0  0  0  0  0  0  0  0  0  0  0
   -3.5814   -1.1795    0.0000 C   0  0  0  0  0  0  0  0  0  0  0  0
   -3.9147    0.2830    0.0000 C   0  0  0  0  0  0  0  0  0  0  0  0
   -2.8148    1.3029    0.0000 C   0  0  0  0  0  0  0  0  0  0  0  0
   -3.1481    2.7654    0.0000 N   0  0  0  0  0  4  0  0  0  0  0  0
   -2.0482    3.7853    0.0000 O   0  0  0  0  0  0  0  0  0  0  0  0
   -4.5813    3.2080    0.0000 O   0  0  0  0  0  1  0  0  0  0  0  0
   -4.4452   -2.4058    0.0000 O   0  0  0  0  0  0  0  0  0  0  0  0
   -3.5459   -3.6063    0.0000 C   0  0  0  0  0  0  0  0  0  0  0  0
   -2.1263   -3.1220    0.0000 O   0  0  0  0  0  0  0  0  0  0  0  0
    2.2514    2.4575    0.0000 C   0  0  0  0  0  0  0  0  0  0  0  0
    3.6846    2.0149    0.0000 C   0  0  0  0  0  0  0  0  0  0  0  0
    5.1471    2.3482    0.0000 C   0  0  0  0  0  0  0  0  0  0  0  0
    4.7046    0.9150    0.0000 C   0  0  0  0  0  0  0  0  0  0  0  0
  1  2  1  0
  2  3  1  0
  2  4  1  0
  2  5  1  0
  5  6  1  0
  6  7  2  0
  6  8  1  0
  8  9  1  0
  9 10  1  0
 10 11  2  0
 11 12  1  0
 12 13  2  0
 13 14  1  0
 14 15  2  0
 15 16  1  0
 16 17  2  0
 16 18  1  0
 13 19  1  0
 19 20  1  0
 20 21  1  0
  8 22  1  0
 22 23  1  0
 23 24  1  0
 24 25  1  0
 15 10  1  0
 25 23  1  0
 21 12  1  0
M  CHG  2  16   1  18  -1
M  END
$$$$
Int-A3 aniline
     RDKit          2D

 23 25  0  0  0  0  0  0  0  0999 V2000
    4.1219   -2.0656    0.0000 C   0  0  0  0  0  0  0  0  0  0  0  0
    2.6233   -2.1312    0.0000 C   0  0  0  0  0  0  0  0  0  0  0  0
    1.1248   -2.1967    0.0000 C   0  0  0  0  0  0  0  0  0  0  0  0
    2.6889   -3.6297    0.0000 C   0  0  0  0  0  0  0  0  0  0  0  0
    2.5578   -0.6326    0.0000 O   0  0  0  0  0  0  0  0  0  0  0  0
    1.2273    0.0599    0.0000 C   0  0  0  0  0  0  0  0  0  0  0  0
   -0.0378   -0.7461    0.0000 O   0  0  0  0  0  0  0  0  0  0  0  0
    1.1617    1.5585    0.0000 N   0  0  0  0  0  0  0  0  0  0  0  0
   -0.1688    2.2510    0.0000 C   0  0  0  0  0  0  0  0  0  0  0  0
   -1.4339    1.4450    0.0000 C   0  0  0  0  0  0  0  0  0  0  0  0
   -1.3683   -0.0536    0.0000 C   0  0  0  0  0  0  0  0  0  0  0  0
   -2.6334   -0.8596    0.0000 C   0  0  0  0  0  0  0  0  0  0  0  0
   -3.9639   -0.1671    0.0000 C   0  0  0  0  0  0  0  0  0  0  0  0
   -4.0295    1.3315    0.0000 C   0  0  0  0  0  0  0  0  0  0  0  0
   -2.7644    2.1375    0.0000 C   0  0  0  0  0  0  0  0  0  0  0  0
   -2.8300    3.6361    0.0000 N   0  0  0  0  0  0  0  0  0  0  0  0
   -5.0337   -1.2185    0.0000 O   0  0  0  0  0  0  0  0  0  0  0  0
   -4.3644   -2.5609    0.0000 C   0  0  0  0  0  0  0  0  0  0  0  0
   -2.8808   -2.3391    0.0000 O   0  0  0  0  0  0  0  0  0  0  0  0
    2.4267    2.3645    0.0000 C   0  0  0  0  0  0  0  0  0  0  0  0
    3.7573    1.6720    0.0000 C   0  0  0  0  0  0  0  0  0  0  0  0
    5.2559    1.7375    0.0000 C   0  0  0  0  0  0  0  0  0  0  0  0
    4.5633    0.4070    0.0000 C   0  0  0  0  0  0  0  0  0  0  0  0
  1  2  1  0
  2  3  1  0
  2  4  1  0
  2  5  1  0
  5  6  1  0
  6  7  2  0
  6  8  1  0
  8  9  1  0
  9 10  1  0
 10 11  2  0
 11 12  1  0
 12 13  2  0
 13 14  1  0
 14 15  2  0
 15 16  1  0
 13 17  1  0
 17 18  1  0
 18 19  1  0
  8 20  1  0
 20 21  1  0
 21 22  1  0
 22 23  1  0
 15 10  1  0
 23 21  1  0
 19 12  1  0
M  END
$$$$
Int-A4 amide
     RDKit          2D

 35 37  0  0  0  0  0  0  0  0999 V2000
   10.5154   -2.4368    0.0000 C   0  0  0  0  0  0  0  0  0  0  0  0
   10.0036   -1.0268    0.0000 C   0  0  0  0  0  0  0  0  0  0  0  0
    9.4917    0.3831    0.0000 C   0  0  0  0  0  0  0  0  0  0  0  0
   11.4135   -0.5150    0.0000 C   0  0  0  0  0  0  0  0  0  0  0  0
    8.5936   -1.5387    0.0000 O   0  0  0  0  0  0  0  0  0  0  0  0
    7.4453   -0.5735    0.0000 C   0  0  0  0  0  0  0  0  0  0  0  0
    7.7071    0.9035    0.0000 O   0  0  0  0  0  0  0  0  0  0  0  0
    6.0354   -1.0853    0.0000 N   0  0  0  0  0  0  0  0  0  0  0  0
    4.8871   -0.1202    0.0000 C   0  0  0  0  0  0  0  0  0  0  0  0
    3.4771   -0.6320    0.0000 C   0  0  0  0  0  0  0  0  0  0  0  0
    2.3289    0.3332    0.0000 C   0  0  0  0  0  0  0  0  0  0  0  0
    2.5906    1.8101    0.0000 O   0  0  0  0  0  0  0  0  0  0  0  0
    0.9189   -0.1787    0.0000 N   0  0  0  0  0  0  0  0  0  0  0  0
   -0.2293    0.7865    0.0000 C   0  0  0  0  0  0  0  0  0  0  0  0
    0.0324    2.2635    0.0000 C   0  0  0  0  0  0  0  0  0  0  0  0
   -1.1158    3.2286    0.0000 C   0  0  0  0  0  0  0  0  0  0  0  0
   -2.5258    2.7168    0.0000 C   0  0  0  0  0  0  0  0  0  0  0  0
   -2.7875    1.2398    0.0000 C   0  0  0  0  0  0  0  0  0  0  0  0
   -1.6393    0.2747    0.0000 C   0  0  0  0  0  0  0  0  0  0  0  0
   -1.9010   -1.2023    0.0000 C   0  0  0  0  0  0  0  0  0  0  0  0
   -3.3110   -1.7142    0.0000 N   0  0  0  0  0  0  0  0  0  0  0  0
   -3.5727   -3.1912    0.0000 C   0  0  0  0  0  0  0  0  0  0  0  0
   -4.9827   -3.7030    0.0000 C   0  0  0  0  0  0  0  0  0  0  0  0
   -5.9479   -4.8512    0.0000 C   0  0  0  0  0  0  0  0  0  0  0  0
   -6.4597   -3.4413    0.0000 C   0  0  0  0  0  0  0  0  0  0  0  0
   -4.4592   -0.7490    0.0000 C   0  0  0  0  0  0  0  0  0  0  0  0
   -4.1975    0.7280    0.0000 O   0  0  0  0  0  0  0  0  0  0  0  0
   -5.8692   -1.2608    0.0000 O   0  0  0  0  0  0  0  0  0  0  0  0
   -7.0175   -0.2957    0.0000 C   0  0  0  0  0  0  0  0  0  0  0  0
   -7.9826   -1.4439    0.0000 C   0  0  0  0  0  0  0  0  0  0  0  0
   -6.0523    0.8526    0.0000 C   0  0  0  0  0  0  0  0  0  0  0  0
   -8.1657    0.6695    0.0000 C   0  0  0  0  0  0  0  0  0  0  0  0
   -3.4483    3.8996    0.0000 O   0  0  0  0  0  0  0  0  0  0  0  0
   -2.6085    5.1424    0.0000 C   0  0  0  0  0  0  0  0  0  0  0  0
   -1.1669    4.7278    0.0000 O   0  0  0  0  0  0  0  0  0  0  0  0
  1  2  1  0
  2  3  1  0
  2  4  1  0
  2  5  1  0
  5  6  1  0
  6  7  2  0
  6  8  1  0
  8  9  1  0
  9 10  1  0
 10 11  1  0
 11 12  2  0
 11 13  1  0
 13 14  1  0
 14 15  2  0
 15 16  1  0
 16 17  2  0
 17 18  1  0
 18 19  2  0
 19 20  1  0
 20 21  1  0
 21 22  1  0
 22 23  1  0
 23 24  1  0
 24 25  1  0
 21 26  1  0
 26 27  2  0
 26 28  1  0
 28 29  1  0
 29 30  1  0
 29 31  1  0
 29 32  1  0
 17 33  1  0
 33 34  1  0
 34 35  1  0
 19 14  1  0
 35 16  1  0
 25 23  1  0
M  END
$$$$
Int-A5 open-chain
     RDKit          2D

 21 23  0  0  0  0  0  0  0  0999 V2000
   -5.8156    4.2286    0.0000 N   0  0  0  0  0  0  0  0  0  0  0  0
   -5.1807    2.8695    0.0000 C   0  0  0  0  0  0  0  0  0  0  0  0
   -3.6863    2.7398    0.0000 C   0  0  0  0  0  0  0  0  0  0  0  0
   -3.0515    1.3808    0.0000 C   0  0  0  0  0  0  0  0  0  0  0  0
   -3.9110    0.1515    0.0000 O   0  0  0  0  0  0  0  0  0  0  0  0
   -1.5571    1.2511    0.0000 N   0  0  0  0  0  0  0  0  0  0  0  0
   -0.9222   -0.1079    0.0000 C   0  0  0  0  0  0  0  0  0  0  0  0
   -1.7817   -1.3372    0.0000 C   0  0  0  0  0  0  0  0  0  0  0  0
   -1.1469   -2.6962    0.0000 C   0  0  0  0  0  0  0  0  0  0  0  0
    0.3475   -2.8259    0.0000 C   0  0  0  0  0  0  0  0  0  0  0  0
    1.2070   -1.5966    0.0000 C   0  0  0  0  0  0  0  0  0  0  0  0
    0.5722   -0.2376    0.0000 C   0  0  0  0  0  0  0  0  0  0  0  0
    1.4317    0.9917    0.0000 C   0  0  0  0  0  0  0  0  0  0  0  0
    2.9261    0.8620    0.0000 N   0  0  0  0  0  0  0  0  0  0  0  0
    3.7856    2.0914    0.0000 C   0  0  0  0  0  0  0  0  0  0  0  0
    5.2800    1.9617    0.0000 C   0  0  0  0  0  0  0  0  0  0  0  0
    6.6390    2.5965    0.0000 C   0  0  0  0  0  0  0  0  0  0  0  0
    6.5093    1.1021    0.0000 C   0  0  0  0  0  0  0  0  0  0  0  0
    0.6860   -4.2873    0.0000 O   0  0  0  0  0  0  0  0  0  0  0  0
   -0.5992   -5.0607    0.0000 C   0  0  0  0  0  0  0  0  0  0  0  0
   -1.7320   -4.0774    0.0000 O   0  0  0  0  0  0  0  0  0  0  0  0
  1  2  1  0
  2  3  1  0
  3  4  1  0
  4  5  2  0
  4  6  1  0
  6  7  1  0
  7  8  2  0
  8  9  1  0
  9 10  2  0
 10 11  1  0
 11 12  2  0
 12 13  1  0
 13 14  1  0
 14 15  1  0
 15 16  1  0
 16 17  1  0
 17 18  1  0
 10 19  1  0
 19 20  1  0
 20 21  1  0
 12  7  1  0
 18 16  1  0
 21  9  1  0
M  END
$$$$
Int-B1 acetal
     RDKit          2D

 15 17  0  0  0  0  0  0  0  0999 V2000
    0.9968    2.5864    0.0000 N   0  0  0  0  0  0  0  0  0  0  0  0
    0.0180    1.4498    0.0000 C   0  0  0  0  0  0  0  0  0  0  0  0
   -1.4558    1.7291    0.0000 C   0  0  0  0  0  0  0  0  0  0  0  0
   -2.4346    0.5925    0.0000 C   0  0  0  0  0  0  0  0  0  0  0  0
   -1.9396   -0.8235    0.0000 C   0  0  0  0  0  0  0  0  0  0  0  0
   -0.4659   -1.1028    0.0000 C   0  0  0  0  0  0  0  0  0  0  0  0
    0.5129    0.0338    0.0000 C   0  0  0  0  0  0  0  0  0  0  0  0
    1.9867   -0.2455    0.0000 C   0  0  0  0  0  0  0  0  0  0  0  0
    3.0790    0.7826    0.0000 O   0  0  0  0  0  0  0  0  0  0  0  0
    4.3943    0.0615    0.0000 C   0  0  0  0  0  0  0  0  0  0  0  0
    4.1149   -1.4123    0.0000 C   0  0  0  0  0  0  0  0  0  0  0  0
    2.6270   -1.6020    0.0000 O   0  0  0  0  0  0  0  0  0  0  0  0
   -3.1334   -1.7318    0.0000 O   0  0  0  0  0  0  0  0  0  0  0  0
   -4.3661   -0.8771    0.0000 C   0  0  0  0  0  0  0  0  0  0  0  0
   -3.9342    0.5593    0.0000 O   0  0  0  0  0  0  0  0  0  0  0  0
  1  2  1  0
  2  3  2  0
  3  4  1  0
  4  5  2  0
  5  6  1  0
  6  7  2  0
  7  8  1  0
  8  9  1  0
  9 10  1  0
 10 11  1  0
 11 12  1  0
  5 13  1  0
 13 14  1  0
 14 15  1  0
  7  2  1  0
 15  4  1  0
 12  8  1  0
M  END
$$$$
Int-B2 acrylamide
     RDKit          2D

 19 21  0  0  0  0  0  0  0  0999 V2000
    3.4368    4.3878    0.0000 C   0  0  0  0  0  0  0  0  0  0  0  0
    3.1837    2.9093    0.0000 C   0  0  0  0  0  0  0  0  0  0  0  0
    1.7768    2.3892    0.0000 C   0  0  0  0  0  0  0  0  0  0  0  0
    0.6229    3.3476    0.0000 O   0  0  0  0  0  0  0  0  0  0  0  0
    1.5237    0.9107    0.0000 N   0  0  0  0  0  0  0  0  0  0  0  0
    0.1168    0.3906    0.0000 C   0  0  0  0  0  0  0  0  0  0  0  0
   -1.0371    1.3490    0.0000 C   0  0  0  0  0  0  0  0  0  0  0  0
   -2.4440    0.8289    0.0000 C   0  0  0  0  0  0  0  0  0  0  0  0
   -2.6971   -0.6496    0.0000 C   0  0  0  0  0  0  0  0  0  0  0  0
   -1.5432   -1.6080    0.0000 C   0  0  0  0  0  0  0  0  0  0  0  0
   -0.1362   -1.0879    0.0000 C   0  0  0  0  0  0  0  0  0  0  0  0
    1.0176   -2.0463    0.0000 C   0  0  0  0  0  0  0  0  0  0  0  0
    2.4712   -1.6761    0.0000 O   0  0  0  0  0  0  0  0  0  0  0  0
    3.2725   -2.9441    0.0000 C   0  0  0  0  0  0  0  0  0  0  0  0
    2.3141   -4.0980    0.0000 C   0  0  0  0  0  0  0  0  0  0  0  0
    0.9205   -3.5431    0.0000 O   0  0  0  0  0  0  0  0  0  0  0  0
   -4.1814   -0.8658    0.0000 O   0  0  0  0  0  0  0  0  0  0  0  0
   -4.8457    0.4791    0.0000 C   0  0  0  0  0  0  0  0  0  0  0  0
   -3.7720    1.5265    0.0000 O   0  0  0  0  0  0  0  0  0  0  0  0
  1  2  2  0
  2  3  1  0
  3  4  2  0
  3  5  1  0
  5  6  1  0
  6  7  2  0
  7  8  1  0
  8  9  2  0
  9 10  1  0
 10 11  2  0
 11 12  1  0
 12 13  1  0
 13 14  1  0
 14 15  1  0
 15 16  1  0
  9 17  1  0
 17 18  1  0
 18 19  1  0
 11  6  1  0
 19  8  1  0
 16 12  1  0
M  END
$$$$
Int-B3 aza-Michael
     RDKit          2D

 24 27  0  0  0  0  0  0  0  0999 V2000
    0.8557    1.9160    0.0000 O   0  0  0  0  0  0  0  0  0  0  0  0
    1.0273    0.4259    0.0000 C   0  0  0  0  0  0  0  0  0  0  0  0
    2.4036   -0.1707    0.0000 C   0  0  0  0  0  0  0  0  0  0  0  0
    3.6083    0.7230    0.0000 C   0  0  0  0  0  0  0  0  0  0  0  0
    4.9846    0.1265    0.0000 N   0  0  0  0  0  0  0  0  0  0  0  0
    6.1893    1.0201    0.0000 C   0  0  0  0  0  0  0  0  0  0  0  0
    7.5656    0.4236    0.0000 C   0  0  0  0  0  0  0  0  0  0  0  0
    9.0558    0.5951    0.0000 C   0  0  0  0  0  0  0  0  0  0  0  0
    8.4593   -0.7812    0.0000 C   0  0  0  0  0  0  0  0  0  0  0  0
   -0.1775   -0.4678    0.0000 N   0  0  0  0  0  0  0  0  0  0  0  0
   -1.5537    0.1287    0.0000 C   0  0  0  0  0  0  0  0  0  0  0  0
   -1.7253    1.6189    0.0000 C   0  0  0  0  0  0  0  0  0  0  0  0
   -3.1016    2.2154    0.0000 C   0  0  0  0  0  0  0  0  0  0  0  0
   -4.3063    1.3218    0.0000 C   0  0  0  0  0  0  0  0  0  0  0  0
   -4.1348   -0.1684    0.0000 C   0  0  0  0  0  0  0  0  0  0  0  0
   -2.7585   -0.7649    0.0000 C   0  0  0  0  0  0  0  0  0  0  0  0
   -2.5869   -2.2551    0.0000 C   0  0  0  0  0  0  0  0  0  0  0  0
   -1.2806   -2.9922    0.0000 O   0  0  0  0  0  0  0  0  0  0  0  0
   -1.5779   -4.4624    0.0000 C   0  0  0  0  0  0  0  0  0  0  0  0
   -3.0680   -4.6340    0.0000 C   0  0  0  0  0  0  0  0  0  0  0  0
   -3.6917   -3.2697    0.0000 O   0  0  0  0  0  0  0  0  0  0  0  0
   -5.5285    2.1914    0.0000 O   0  0  0  0  0  0  0  0  0  0  0  0
   -5.0791    3.6225    0.0000 C   0  0  0  0  0  0  0  0  0  0  0  0
   -3.5792    3.6373    0.0000 O   0  0  0  0  0  0  0  0  0  0  0  0
  1  2  2  0
  2  3  1  0
  3  4  1  0
  4  5  1  0
  5  6  1  0
  6  7  1  0
  7  8  1  0
  8  9  1  0
  2 10  1  0
 10 11  1  0
 11 12  2  0
 12 13  1  0
 13 14  2  0
 14 15  1  0
 15 16  2  0
 16 17  1  0
 17 18  1  0
 18 19  1  0
 19 20  1  0
 20 21  1  0
 14 22  1  0
 22 23  1  0
 23 24  1  0
  9  7  1  0
 16 11  1  0
 24 13  1  0
 21 17  1  0
M  END
$$$$
Int-B4 aldehyde-free
     RDKit          2D

 21 23  0  0  0  0  0  0  0  0999 V2000
   -1.2506    3.5936    0.0000 O   0  0  0  0  0  0  0  0  0  0  0  0
   -2.6806    3.1408    0.0000 C   0  0  0  0  0  0  0  0  0  0  0  0
   -3.0034    1.6759    0.0000 C   0  0  0  0  0  0  0  0  0  0  0  0
   -4.4334    1.2231    0.0000 C   0  0  0  0  0  0  0  0  0  0  0  0
   -4.7562   -0.2418    0.0000 C   0  0  0  0  0  0  0  0  0  0  0  0
   -3.6490   -1.2538    0.0000 C   0  0  0  0  0  0  0  0  0  0  0  0
   -2.2190   -0.8009    0.0000 C   0  0  0  0  0  0  0  0  0  0  0  0
   -1.8962    0.6639    0.0000 C   0  0  0  0  0  0  0  0  0  0  0  0
   -0.4662    1.1168    0.0000 N   0  0  0  0  0  0  0  0  0  0  0  0
    0.6410    0.1048    0.0000 C   0  0  0  0  0  0  0  0  0  0  0  0
    0.3182   -1.3601    0.0000 O   0  0  0  0  0  0  0  0  0  0  0  0
    2.0710    0.5576    0.0000 C   0  0  0  0  0  0  0  0  0  0  0  0
    3.1782   -0.4544    0.0000 C   0  0  0  0  0  0  0  0  0  0  0  0
    4.6082   -0.0015    0.0000 N   0  0  0  0  0  0  0  0  0  0  0  0
    5.7154   -1.0135    0.0000 C   0  0  0  0  0  0  0  0  0  0  0  0
    7.1454   -0.5607    0.0000 C   0  0  0  0  0  0  0  0  0  0  0  0
    8.1574    0.5465    0.0000 C   0  0  0  0  0  0  0  0  0  0  0  0
    8.6102   -0.8835    0.0000 C   0  0  0  0  0  0  0  0  0  0  0  0
   -4.2694   -2.6195    0.0000 O   0  0  0  0  0  0  0  0  0  0  0  0
   -5.7599   -2.4515    0.0000 C   0  0  0  0  0  0  0  0  0  0  0  0
   -6.0608   -0.9820    0.0000 O   0  0  0  0  0  0  0  0  0  0  0  0
  1  2  2  0
  2  3  1  0
  3  4  2  0
  4  5  1  0
  5  6  2  0
  6  7  1  0
  7  8  2  0
  8  9  1  0
  9 10  1  0
 10 11  2  0
 10 12  1  0
 12 13  1  0
 13 14  1  0
 14 15  1  0
 15 16  1  0
 16 17  1  0
 17 18  1  0
  6 19  1  0
 19 20  1  0
 20 21  1  0
  8  3  1  0
 21  5  1  0
 18 16  1  0
M  END
$$$$
Int-C1 BnOH
     RDKit          2D

 12 13  0  0  0  0  0  0  0  0999 V2000
    3.9284    0.4535    0.0000 O   0  0  0  0  0  0  0  0  0  0  0  0
    2.6765    1.2798    0.0000 C   0  0  0  0  0  0  0  0  0  0  0  0
    1.3349    0.6088    0.0000 C   0  0  0  0  0  0  0  0  0  0  0  0
    0.0830    1.4351    0.0000 C   0  0  0  0  0  0  0  0  0  0  0  0
   -1.2585    0.7641    0.0000 C   0  0  0  0  0  0  0  0  0  0  0  0
   -1.3482   -0.7332    0.0000 C   0  0  0  0  0  0  0  0  0  0  0  0
   -0.0963   -1.5595    0.0000 C   0  0  0  0  0  0  0  0  0  0  0  0
    1.2453   -0.8885    0.0000 C   0  0  0  0  0  0  0  0  0  0  0  0
    2.4971   -1.7148    0.0000 Br  0  0  0  0  0  0  0  0  0  0  0  0
   -2.7999   -1.1106    0.0000 O   0  0  0  0  0  0  0  0  0  0  0  0
   -3.6075    0.1534    0.0000 C   0  0  0  0  0  0  0  0  0  0  0  0
   -2.6548    1.3121    0.0000 O   0  0  0  0  0  0  0  0  0  0  0  0
  1  2  1  0
  2  3  1  0
  3  4  2  0
  4  5  1  0
  5  6  2  0
  6  7  1  0
  7  8  2  0
  8  9  1  0
  6 10  1  0
 10 11  1  0
 11 12  1  0
  8  3  1  0
 12  5  1  0
M  END
$$$$
Int-C2 BnCl
     RDKit          2D

 12 13  0  0  0  0  0  0  0  0999 V2000
    3.9284    0.4535    0.0000 Cl  0  0  0  0  0  0  0  0  0  0  0  0
    2.6765    1.2798    0.0000 C   0  0  0  0  0  0  0  0  0  0  0  0
    1.3349    0.6088    0.0000 C   0  0  0  0  0  0  0  0  0  0  0  0
    0.0830    1.4351    0.0000 C   0  0  0  0  0  0  0  0  0  0  0  0
   -1.2585    0.7641    0.0000 C   0  0  0  0  0  0  0  0  0  0  0  0
   -1.3482   -0.7332    0.0000 C   0  0  0  0  0  0  0  0  0  0  0  0
   -0.0963   -1.5595    0.0000 C   0  0  0  0  0  0  0  0  0  0  0  0
    1.2453   -0.8885    0.0000 C   0  0  0  0  0  0  0  0  0  0  0  0
    2.4971   -1.7148    0.0000 Br  0  0  0  0  0  0  0  0  0  0  0  0
   -2.7999   -1.1106    0.0000 O   0  0  0  0  0  0  0  0  0  0  0  0
   -3.6075    0.1534    0.0000 C   0  0  0  0  0  0  0  0  0  0  0  0
   -2.6548    1.3121    0.0000 O   0  0  0  0  0  0  0  0  0  0  0  0
  1  2  1  0
  2  3  1  0
  3  4  2  0
  4  5  1  0
  5  6  2  0
  6  7  1  0
  7  8  2  0
  8  9  1  0
  6 10  1  0
 10 11  1  0
 11 12  1  0
  8  3  1  0
 12  5  1  0
M  END
$$$$
Int-C3 2nd-amine
     RDKit          2D

 16 18  0  0  0  0  0  0  0  0999 V2000
   -1.0517    3.3481    0.0000 Br  0  0  0  0  0  0  0  0  0  0  0  0
   -1.4027    1.8898    0.0000 C   0  0  0  0  0  0  0  0  0  0  0  0
   -2.8412    1.4647    0.0000 C   0  0  0  0  0  0  0  0  0  0  0  0
   -3.1923    0.0064    0.0000 C   0  0  0  0  0  0  0  0  0  0  0  0
   -2.1049   -1.0269    0.0000 C   0  0  0  0  0  0  0  0  0  0  0  0
   -0.6664   -0.6017    0.0000 C   0  0  0  0  0  0  0  0  0  0  0  0
   -0.3153    0.8566    0.0000 C   0  0  0  0  0  0  0  0  0  0  0  0
    1.1232    1.2817    0.0000 C   0  0  0  0  0  0  0  0  0  0  0  0
    2.2106    0.2485    0.0000 N   0  0  0  0  0  0  0  0  0  0  0  0
    3.6491    0.6736    0.0000 C   0  0  0  0  0  0  0  0  0  0  0  0
    4.7365   -0.3596    0.0000 C   0  0  0  0  0  0  0  0  0  0  0  0
    6.1948   -0.7107    0.0000 C   0  0  0  0  0  0  0  0  0  0  0  0
    5.1616   -1.7981    0.0000 C   0  0  0  0  0  0  0  0  0  0  0  0
   -2.7515   -2.3803    0.0000 O   0  0  0  0  0  0  0  0  0  0  0  0
   -4.2386   -2.1836    0.0000 C   0  0  0  0  0  0  0  0  0  0  0  0
   -4.5110   -0.7086    0.0000 O   0  0  0  0  0  0  0  0  0  0  0  0
  1  2  1  0
  2  3  2  0
  3  4  1  0
  4  5  2  0
  5  6  1  0
  6  7  2  0
  7  8  1  0
  8  9  1  0
  9 10  1  0
 10 11  1  0
 11 12  1  0
 12 13  1  0
  5 14  1  0
 14 15  1  0
 15 16  1  0
  7  2  1  0
 13 11  1  0
 16  4  1  0
M  END
$$$$
Int-C4 Boc-amide
     RDKit          2D

 28 30  0  0  0  0  0  0  0  0999 V2000
    7.7686   -0.3721    0.0000 C   0  0  0  0  0  0  0  0  0  0  0  0
    6.6368   -1.3564    0.0000 C   0  0  0  0  0  0  0  0  0  0  0  0
    5.5050   -2.3408    0.0000 C   0  0  0  0  0  0  0  0  0  0  0  0
    7.6211   -2.4883    0.0000 C   0  0  0  0  0  0  0  0  0  0  0  0
    5.6524   -0.2246    0.0000 O   0  0  0  0  0  0  0  0  0  0  0  0
    4.1801   -0.5111    0.0000 C   0  0  0  0  0  0  0  0  0  0  0  0
    3.6920   -1.9295    0.0000 O   0  0  0  0  0  0  0  0  0  0  0  0
    3.1957    0.6207    0.0000 N   0  0  0  0  0  0  0  0  0  0  0  0
    1.7233    0.3341    0.0000 C   0  0  0  0  0  0  0  0  0  0  0  0
    0.7390    1.4660    0.0000 C   0  0  0  0  0  0  0  0  0  0  0  0
   -0.7334    1.1794    0.0000 C   0  0  0  0  0  0  0  0  0  0  0  0
   -1.2214   -0.2390    0.0000 O   0  0  0  0  0  0  0  0  0  0  0  0
   -1.7177    2.3112    0.0000 N   0  0  0  0  0  0  0  0  0  0  0  0
   -3.1901    2.0247    0.0000 C   0  0  0  0  0  0  0  0  0  0  0  0
   -3.6781    0.6063    0.0000 C   0  0  0  0  0  0  0  0  0  0  0  0
   -2.6938   -0.5255    0.0000 C   0  0  0  0  0  0  0  0  0  0  0  0
   -3.1818   -1.9439    0.0000 C   0  0  0  0  0  0  0  0  0  0  0  0
   -4.6542   -2.2305    0.0000 C   0  0  0  0  0  0  0  0  0  0  0  0
   -5.6385   -1.0987    0.0000 C   0  0  0  0  0  0  0  0  0  0  0  0
   -5.1505    0.3197    0.0000 C   0  0  0  0  0  0  0  0  0  0  0  0
   -6.1349    1.4516    0.0000 Br  0  0  0  0  0  0  0  0  0  0  0  0
   -4.8366   -3.7193    0.0000 O   0  0  0  0  0  0  0  0  0  0  0  0
   -3.4770   -4.3530    0.0000 C   0  0  0  0  0  0  0  0  0  0  0  0
   -2.4543   -3.2557    0.0000 O   0  0  0  0  0  0  0  0  0  0  0  0
   -1.2297    3.7296    0.0000 C   0  0  0  0  0  0  0  0  0  0  0  0
    0.2426    4.0162    0.0000 C   0  0  0  0  0  0  0  0  0  0  0  0
    1.3745    5.0006    0.0000 C   0  0  0  0  0  0  0  0  0  0  0  0
    1.6610    3.5282    0.0000 C   0  0  0  0  0  0  0  0  0  0  0  0
  1  2  1  0
  2  3  1  0
  2  4  1  0
  2  5  1  0
  5  6  1  0
  6  7  2  0
  6  8  1  0
  8  9  1  0
  9 10  1  0
 10 11  1  0
 11 12  2  0
 11 13  1  0
 13 14  1  0
 14 15  1  0
 15 16  2  0
 16 17  1  0
 17 18  2  0
 18 19  1  0
 19 20  2  0
 20 21  1  0
 18 22  1  0
 22 23  1  0
 23 24  1  0
 13 25  1  0
 25 26  1  0
 26 27  1  0
 27 28  1  0
 20 15  1  0
 28 26  1  0
 24 17  1  0
M  END
$$$$
Int-C5 BH-precursor
     RDKit          2D

 21 23  0  0  0  0  0  0  0  0999 V2000
    3.9092   -3.3588    0.0000 N   0  0  0  0  0  0  0  0  0  0  0  0
    2.6326   -2.5711    0.0000 C   0  0  0  0  0  0  0  0  0  0  0  0
    2.6764   -1.0718    0.0000 C   0  0  0  0  0  0  0  0  0  0  0  0
    1.3999   -0.2842    0.0000 C   0  0  0  0  0  0  0  0  0  0  0  0
    0.0795   -0.9959    0.0000 O   0  0  0  0  0  0  0  0  0  0  0  0
    1.4437    1.2152    0.0000 N   0  0  0  0  0  0  0  0  0  0  0  0
    0.1671    2.0028    0.0000 C   0  0  0  0  0  0  0  0  0  0  0  0
   -1.1533    1.2911    0.0000 C   0  0  0  0  0  0  0  0  0  0  0  0
   -1.1971   -0.2083    0.0000 C   0  0  0  0  0  0  0  0  0  0  0  0
   -2.5175   -0.9200    0.0000 C   0  0  0  0  0  0  0  0  0  0  0  0
   -3.7941   -0.1324    0.0000 C   0  0  0  0  0  0  0  0  0  0  0  0
   -3.7502    1.3670    0.0000 C   0  0  0  0  0  0  0  0  0  0  0  0
   -2.4299    2.0787    0.0000 C   0  0  0  0  0  0  0  0  0  0  0  0
   -2.3860    3.5781    0.0000 Br  0  0  0  0  0  0  0  0  0  0  0  0
   -4.9376   -1.1031    0.0000 O   0  0  0  0  0  0  0  0  0  0  0  0
   -4.3678   -2.4906    0.0000 C   0  0  0  0  0  0  0  0  0  0  0  0
   -2.8721   -2.3775    0.0000 O   0  0  0  0  0  0  0  0  0  0  0  0
    2.7641    1.9269    0.0000 C   0  0  0  0  0  0  0  0  0  0  0  0
    4.0407    1.1393    0.0000 C   0  0  0  0  0  0  0  0  0  0  0  0
    5.5400    1.0955    0.0000 C   0  0  0  0  0  0  0  0  0  0  0  0
    4.7524   -0.1811    0.0000 C   0  0  0  0  0  0  0  0  0  0  0  0
  1  2  1  0
  2  3  1  0
  3  4  1  0
  4  5  2  0
  4  6  1  0
  6  7  1  0
  7  8  1  0
  8  9  2  0
  9 10  1  0
 10 11  2  0
 11 12  1  0
 12 13  2  0
 13 14  1  0
 11 15  1  0
 15 16  1  0
 16 17  1  0
  6 18  1  0
 18 19  1  0
 19 20  1  0
 20 21  1  0
 13  8  1  0
 21 19  1  0
 17 10  1  0
M  END
$$$$
