@<TRIPOS>MOLECULE
LIG
   36    38     1     0     0
SMALL
gas


@<TRIPOS>ATOM
      1 C1          86.8800   150.9520    12.4690 ce         1 LIG       0.137243
      2 C2          86.2650   152.1380    12.7960 c1         1 LIG      -0.070903
      3 C3          87.8730   150.9790    11.5250 c1         1 LIG      -0.034370
      4 C4          86.5820   153.3390    12.2380 ce         1 LIG       0.132225
      5 C5          88.2480   152.1690    10.9120 c1         1 LIG      -0.015502
      6 C6          87.5980   153.3200    11.2800 c1         1 LIG      -0.039159
      7 C7          85.9960   154.6240    12.5620 c          1 LIG       0.264307
      8 O1          86.6350   155.6860    12.4010 o          1 LIG      -0.270071
      9 N1          84.6650   154.6960    13.0790 ns         1 LIG      -0.268731
     10 H1          84.1570   153.8630    13.2100 hn         1 LIG       0.156888
     11 C8          84.0340   155.9800    13.4240 c2         1 LIG       0.148463
     12 C9          84.3140   156.9780    12.3720 c          1 LIG       0.273186
     13 C10         84.3240   156.4100    14.8120 c1         1 LIG      -0.035395
     14 O2          84.1830   156.6120    11.1750 o          1 LIG      -0.269204
     15 N2          84.7140   158.2900    12.6390 ns         1 LIG      -0.238886
     16 C11         85.3190   157.5390    14.9090 c1         1 LIG      -0.000228
     17 C12         85.0270   158.6490    13.9860 c          1 LIG       0.294631
     18 O3          85.0330   159.8660    14.2870 o          1 LIG      -0.261697
     19 H2          84.7780   158.9530    11.9140 hn         1 LIG       0.160017
     20 C13         86.4750   149.7070    13.1040 c1         1 LIG       0.101345
     21 S1          86.0470   150.5400    15.6130 s6         1 LIG      -0.028515
     22 O4          87.4850   150.4030    15.9550 o          1 LIG      -0.465650
     23 O5          85.2880   149.8720    16.7620 o          1 LIG      -0.465650
     24 N3          85.5950   149.7930    14.1900 n3         1 LIG       0.088183
     25 C14         85.5820   152.2620    15.6920 c1         1 LIG       0.433341
     26 C15         84.2130   149.6000    13.9830 c1         1 LIG       0.144172
     27 C16         84.0910   152.4000    15.9770 c1         1 LIG       0.153109
     28 C17         83.5470   150.9620    13.8980 c1         1 LIG       0.052151
     29 N4          83.3420   151.3840    15.2670 n          1 LIG      -0.117977
     30 C18         82.3030   150.7150    15.9590 c          1 LIG       0.380288
     31 O6          81.5870   149.8220    15.4470 o          1 LIG      -0.239973
     32 O7          82.0220   151.0360    17.2980 os         1 LIG      -0.254529
     33 C19         81.9310   150.0250    18.2810 c3         1 LIG       0.262975
     34 C20         80.5140   149.8000    18.7580 c1         1 LIG      -0.035361
     35 C21         82.5270   148.7270    17.7630 c1         1 LIG      -0.035361
     36 C22         82.8220   150.4860    19.4320 c1         1 LIG      -0.035361
@<TRIPOS>BOND
     1    21    22 2   
     2    21    23 2   
     3    21    24 1   
     4    21    25 1   
     5    24    26 1   
     6    24    20 1   
     7    25    27 1   
     8    26    28 1   
     9    20     1 1   
    10    27    29 1   
    11    28    29 1   
    12     1     2 2   
    13     1     3 1   
    14    29    30 1   
    15     2     4 1   
    16     3     5 2   
    17    30    31 2   
    18    30    32 1   
    19     4     7 1   
    20     4     6 2   
    21     5     6 1   
    22    32    33 1   
    23     7     8 2   
    24     7     9 1   
    25    33    34 1   
    26    33    35 1   
    27    33    36 1   
    28     9    10 1   
    29    11     9 1   
    30    11    12 1   
    31    11    13 1   
    32    12    14 2   
    33    12    15 1   
    34    13    16 1   
    35    15    17 1   
    36    15    19 1   
    37    16    17 1   
    38    17    18 2   
@<TRIPOS>SUBSTRUCTURE
     1 LIG         1 TEMP              0 ****  ****    0 ROOT
