@<TRIPOS>MOLECULE
LIG
   31    34     1     0     0
SMALL
gas


@<TRIPOS>ATOM
      1 C1          84.1570   154.9790    14.2390 ce         1 LIG       0.144591
      2 C2          85.0550   153.9260    14.2120 c1         1 LIG      -0.075482
      3 C3          82.8200   154.6220    14.3470 c1         1 LIG      -0.035763
      4 C4          84.6770   152.6040    14.2860 ca         1 LIG       0.061672
      5 C5          82.3880   153.3150    14.4240 c1         1 LIG      -0.056125
      6 C6          83.3280   152.3090    14.3920 ca         1 LIG       0.066932
      7 C7          85.4000   151.2860    14.2840 ca         1 LIG       0.092255
      8 C8          83.2510   150.8210    14.4460 ca         1 LIG       0.092798
      9 N1          84.4960   150.5410    15.1280 n          1 LIG      -0.207859
     10 C9          85.1230   150.6250    12.9530 ca         1 LIG       0.127121
     11 C10         83.6220   150.3470    13.0540 ca         1 LIG       0.127143
     12 C11         84.6860   149.7590    16.2730 c          1 LIG       0.365526
     13 O1          85.4030   151.4530    11.8740 oh         1 LIG      -0.356655
     14 O2          82.9950   151.0850    12.0710 oh         1 LIG      -0.356655
     15 O3          85.8270   149.5700    16.8020 o          1 LIG      -0.241377
     16 H1          84.8890   152.2720    11.9530 ho         1 LIG       0.218452
     17 H2          83.2300   152.0210    12.1700 ho         1 LIG       0.218452
     18 O4          84.3060   156.3480    11.8260 o          1 LIG      -0.252099
     19 C12         84.5800   156.9620    12.8910 c          1 LIG       0.324954
     20 N2          84.5690   156.3340    14.1610 n          1 LIG      -0.165321
     21 N3          84.9090   158.3530    12.7540 ns         1 LIG      -0.226954
     22 C13         84.9660   157.0630    15.3210 c1         1 LIG       0.021911
     23 C14         85.2200   159.0530    13.9560 c          1 LIG       0.296822
     24 C15         84.6200   158.5460    15.2140 c1         1 LIG       0.014545
     25 O5          85.9850   160.0710    13.9230 o          1 LIG      -0.261606
     26 H3          84.9200   158.7990    11.8760 hn         1 LIG       0.161345
     27 O6          83.6330   149.1160    16.9380 os         1 LIG      -0.255470
     28 C16         83.0680   149.5720    18.1270 c3         1 LIG       0.262931
     29 C17         83.7690   149.0920    19.3610 c1         1 LIG      -0.035362
     30 C18         81.5890   149.2770    18.1480 c1         1 LIG      -0.035362
     31 C19         83.2000   151.1020    18.1170 c1         1 LIG      -0.035362
@<TRIPOS>BOND
     1    18    19 2   
     2    19    20 1   
     3    19    21 1   
     4    20     1 1   
     5    20    22 1   
     6    21    23 1   
     7    21    26 1   
     8     1     2 2   
     9     1     3 1   
    10    22    24 1   
    11    23    25 2   
    12    23    24 1   
    13     2     4 1   
    14     3     5 2   
    15     4     6 ar  
    16     5     6 1   
    17     7     4 ar  
    18     7     9 1   
    19     7    10 ar  
    20     8     6 ar  
    21     8    11 ar  
    22     8     9 1   
    23     9    12 1   
    24    10    13 1   
    25    10    11 ar  
    26    11    14 1   
    27    12    15 2   
    28    12    27 1   
    29    13    16 1   
    30    14    17 1   
    31    27    28 1   
    32    28    29 1   
    33    28    30 1   
    34    28    31 1   
@<TRIPOS>SUBSTRUCTURE
     1 LIG         1 TEMP              0 ****  ****    0 ROOT
