@<TRIPOS>MOLECULE
LIG
   31    34     1     0     0
SMALL
gas


@<TRIPOS>ATOM
      1 C1          84.0970   154.8440    14.1560 ce         1 LIG       0.144591
      2 C2          84.8200   153.6520    14.2420 c1         1 LIG      -0.075482
      3 C3          82.7240   154.7240    14.1750 c1         1 LIG      -0.035763
      4 C4          84.1830   152.4330    14.3410 ca         1 LIG       0.061672
      5 C5          82.0840   153.4890    14.2740 c1         1 LIG      -0.056125
      6 C6          82.8040   152.3370    14.3570 ca         1 LIG       0.066932
      7 C7          84.7060   151.0420    14.4490 ca         1 LIG       0.092255
      8 C8          82.5030   150.8760    14.4670 ca         1 LIG       0.092798
      9 N1          83.6340   150.4640    15.2810 n          1 LIG      -0.207859
     10 C9          84.4420   150.3560    13.1500 ca         1 LIG       0.127121
     11 C10         82.9070   150.2840    13.1380 ca         1 LIG       0.127143
     12 C11         83.7050   149.7470    16.4730 c          1 LIG       0.365526
     13 O1          84.9170   151.0490    12.0440 oh         1 LIG      -0.356655
     14 O2          82.4710   148.9920    12.9640 oh         1 LIG      -0.356655
     15 O3          84.7970   149.4860    17.0300 o          1 LIG      -0.241377
     16 H1          84.5170   151.9330    12.0200 ho         1 LIG       0.218452
     17 H2          82.8310   148.4310    13.6690 ho         1 LIG       0.218452
     18 O4          84.7450   156.1390    11.7410 o          1 LIG      -0.252099
     19 C12         84.8100   156.8070    12.8040 c          1 LIG       0.324954
     20 N2          84.7180   156.1190    14.0530 n          1 LIG      -0.165321
     21 N3          84.9720   158.2200    12.7420 ns         1 LIG      -0.226954
     22 C13         85.2940   156.7970    15.2110 c1         1 LIG       0.021911
     23 C14         85.0360   158.8990    13.9910 c          1 LIG       0.296822
     24 C15         84.7060   158.1840    15.2570 c1         1 LIG       0.014545
     25 O5          85.3790   160.1160    13.9880 o          1 LIG      -0.261606
     26 H3          85.0360   158.6990    11.8840 hn         1 LIG       0.161345
     27 O6          82.5430   149.2990    17.0780 os         1 LIG      -0.255470
     28 C16         81.9090   150.0620    18.0610 c3         1 LIG       0.262931
     29 C17         82.9130   151.0110    18.6610 c1         1 LIG      -0.035362
     30 C18         81.2750   149.2500    19.1530 c1         1 LIG      -0.035362
     31 C19         80.7900   150.8850    17.4190 c1         1 LIG      -0.035362
@<TRIPOS>BOND
     1    18    19 2   
     2    19    20 1   
     3    19    21 1   
     4    20     1 1   
     5    20    22 1   
     6    21    23 1   
     7    21    26 1   
     8     1     2 2   
     9     1     3 1   
    10    22    24 1   
    11    23    25 2   
    12    23    24 1   
    13     2     4 1   
    14     3     5 2   
    15     4     6 ar  
    16     5     6 1   
    17     7     4 ar  
    18     7     9 1   
    19     7    10 ar  
    20     8     6 ar  
    21     8    11 ar  
    22     8     9 1   
    23     9    12 1   
    24    10    13 1   
    25    10    11 ar  
    26    11    14 1   
    27    12    15 2   
    28    12    27 1   
    29    13    16 1   
    30    14    17 1   
    31    27    28 1   
    32    28    29 1   
    33    28    30 1   
    34    28    31 1   
@<TRIPOS>SUBSTRUCTURE
     1 LIG         1 TEMP              0 ****  ****    0 ROOT
