@<TRIPOS>MOLECULE
LIG
   35    37     1     0     0
SMALL
gas


@<TRIPOS>ATOM
      1 N1          82.8190   150.3900    16.3770 nx         1 LIG       0.440859
      2 C1          81.8560   149.6040    15.7400 c2         1 LIG       0.173253
      3 C2          82.4840   151.0700    17.5530 c1         1 LIG       0.039381
      4 C3          81.1980   148.5530    16.5910 c1         1 LIG       0.035194
      5 C4          82.1970   150.1920    18.7450 c1         1 LIG       0.046954
      6 N2          80.3470   149.0550    17.6160 n          1 LIG      -0.129887
      7 C5          80.7120   149.8100    18.7870 c1         1 LIG       0.037576
      8 C6          78.9700   148.7880    17.4830 c          1 LIG       0.379641
      9 O1          78.4740   148.1410    16.5240 o          1 LIG      -0.240000
     10 H1          82.6920   151.2070    15.7800 hn         1 LIG       0.237553
     11 C7          80.8360   150.4470    15.0890 c          1 LIG       0.360031
     12 O2          80.0510   150.0120    14.2010 o          1 LIG      -0.252791
     13 O3          80.7000   151.7780    15.4350 os         1 LIG      -0.214288
     14 C8          81.3860   152.8330    14.8030 c1         1 LIG       0.094131
     15 C9          84.1760   150.1760    16.0730 c1         1 LIG       0.002338
     16 C10         85.2070   152.9000    13.6450 ce         1 LIG       0.146537
     17 C11         84.8770   152.2140    14.7880 c1         1 LIG      -0.056325
     18 C12         85.1730   152.1620    12.4590 c1         1 LIG      -0.027566
     19 C13         84.5230   150.8590    14.7970 ce         1 LIG       0.156638
     20 C14         84.8350   150.8280    12.4020 c1         1 LIG      -0.014170
     21 C15         84.5160   150.2090    13.5850 c1         1 LIG      -0.031077
     22 O4          86.8590   154.2070    11.6660 o          1 LIG      -0.252104
     23 C16         86.1370   154.8500    12.4830 c          1 LIG       0.324951
     24 N3          85.5420   154.3030    13.6250 n          1 LIG      -0.165248
     25 N4          85.9170   156.2530    12.2140 ns         1 LIG      -0.226949
     26 C17         85.2000   155.0560    14.8120 c1         1 LIG       0.021912
     27 C18         85.1020   156.9140    13.1750 c          1 LIG       0.296820
     28 C19         85.1020   156.5420    14.5990 c1         1 LIG       0.014548
     29 O5          84.3610   157.8450    12.7910 o          1 LIG      -0.261611
     30 H2          86.2980   156.7130    11.4310 hn         1 LIG       0.161350
     31 O6          78.0910   149.2500    18.4440 os         1 LIG      -0.254543
     32 C20         77.4410   148.4340    19.3790 c3         1 LIG       0.262972
     33 C21         78.1830   147.1270    19.4850 c1         1 LIG      -0.035360
     34 C22         76.0220   148.2150    18.8870 c1         1 LIG      -0.035360
     35 C23         77.3710   149.1330    20.7390 c1         1 LIG      -0.035360
@<TRIPOS>BOND
     1    22    23 2   
     2    23    24 1   
     3    23    25 1   
     4    24    16 1   
     5    24    26 1   
     6    25    27 1   
     7    25    30 1   
     8    16    17 2   
     9    16    18 1   
    10    26    28 1   
    11    27    29 2   
    12    27    28 1   
    13    17    19 1   
    14    18    20 2   
    15    19    21 2   
    16    19    15 1   
    17    20    21 1   
    18    15     1 1   
    19     1     2 1   
    20     1     3 1   
    21     1    10 1   
    22     2    11 1   
    23     2     4 1   
    24     3     5 1   
    25    11    12 2   
    26    11    13 1   
    27     4     6 1   
    28     5     7 1   
    29    13    14 1   
    30     6     8 1   
    31     6     7 1   
    32     8     9 2   
    33     8    31 1   
    34    31    32 1   
    35    32    33 1   
    36    32    34 1   
    37    32    35 1   
@<TRIPOS>SUBSTRUCTURE
     1 LIG         1 TEMP              0 ****  ****    0 ROOT
