@<TRIPOS>MOLECULE
LIG
   31    34     1     0     0
SMALL
gas


@<TRIPOS>ATOM
      1 C1          85.3660   154.7440    13.6730 ce         1 LIG       0.144591
      2 C2          85.3950   153.8630    14.7230 c1         1 LIG      -0.075482
      3 C3          85.8410   154.3130    12.4520 c1         1 LIG      -0.035763
      4 C4          85.8950   152.5670    14.5480 ca         1 LIG       0.061672
      5 C5          86.3430   153.0190    12.2670 c1         1 LIG      -0.056125
      6 C6          86.3710   152.1380    13.3230 ca         1 LIG       0.066932
      7 C7          86.0610   151.3950    15.4550 ca         1 LIG       0.092255
      8 C8          86.8200   150.7400    13.4860 ca         1 LIG       0.092798
      9 N1          87.2800   150.8190    14.8790 n          1 LIG      -0.207859
     10 C9          85.0590   150.3670    14.9870 ca         1 LIG       0.127121
     11 C10         85.6340   149.8220    13.6860 ca         1 LIG       0.127143
     12 C11         88.4950   150.4530    15.4410 c          1 LIG       0.365526
     13 O1          83.8860   151.0550    14.6520 oh         1 LIG      -0.356655
     14 O2          84.7260   149.8980    12.6450 oh         1 LIG      -0.356655
     15 O3          89.3810   149.9730    14.6850 o          1 LIG      -0.241377
     16 H1          84.0870   151.7350    13.9910 ho         1 LIG       0.218452
     17 H2          84.4330   150.8170    12.5370 ho         1 LIG       0.218452
     18 O4          84.2080   156.3090    11.5700 o          1 LIG      -0.252099
     19 C12         84.5990   156.8550    12.6170 c          1 LIG       0.324954
     20 N2          84.8870   156.1030    13.7830 n          1 LIG      -0.165321
     21 N3          84.7710   158.2870    12.6810 ns         1 LIG      -0.226954
     22 C13         84.7270   156.7090    15.0800 c1         1 LIG       0.021911
     23 C14         85.2230   158.8360    13.9440 c          1 LIG       0.296822
     24 C15         84.6220   158.1800    15.1270 c1         1 LIG       0.014545
     25 O5          86.0360   159.7640    13.9370 o          1 LIG      -0.261606
     26 H3          84.5890   158.8630    11.9030 hn         1 LIG       0.161345
     27 O6          88.8200   150.5750    16.7830 os         1 LIG      -0.255470
     28 C16         90.1460   150.7550    17.2510 c3         1 LIG       0.262931
     29 C17         90.9620   151.4550    16.1800 c1         1 LIG      -0.035362
     30 C18         90.1980   151.5410    18.5320 c1         1 LIG      -0.035362
     31 C19         90.7220   149.3750    17.5000 c1         1 LIG      -0.035362
@<TRIPOS>BOND
     1    18    19 2   
     2    19    20 1   
     3    19    21 1   
     4    20     1 1   
     5    20    22 1   
     6    21    23 1   
     7    21    26 1   
     8     1     2 2   
     9     1     3 1   
    10    22    24 1   
    11    23    25 2   
    12    23    24 1   
    13     2     4 1   
    14     3     5 2   
    15     4     6 ar  
    16     5     6 1   
    17     7     4 ar  
    18     7     9 1   
    19     7    10 ar  
    20     8     6 ar  
    21     8    11 ar  
    22     8     9 1   
    23     9    12 1   
    24    10    13 1   
    25    10    11 ar  
    26    11    14 1   
    27    12    15 2   
    28    12    27 1   
    29    13    16 1   
    30    14    17 1   
    31    27    28 1   
    32    28    29 1   
    33    28    30 1   
    34    28    31 1   
@<TRIPOS>SUBSTRUCTURE
     1 LIG         1 TEMP              0 ****  ****    0 ROOT
