@<TRIPOS>MOLECULE
LIG
   31    33     1     0     0
SMALL
gas


@<TRIPOS>ATOM
      1 C1          86.9660   150.9740    13.9870 ce         1 LIG       0.137248
      2 C2          86.0280   151.9580    13.6400 c1         1 LIG      -0.070901
      3 C3          87.1960   150.6620    15.2840 c1         1 LIG      -0.034369
      4 C4          85.3120   152.6390    14.5990 ce         1 LIG       0.132228
      5 C5          86.4740   151.3460    16.2710 c1         1 LIG      -0.015503
      6 C6          85.5580   152.3090    15.9110 c1         1 LIG      -0.039159
      7 C7          84.3420   153.6610    14.1910 c          1 LIG       0.264304
      8 O1          83.1300   153.3430    14.0260 o          1 LIG      -0.270077
      9 N1          84.6920   154.9950    13.9710 ns         1 LIG      -0.268729
     10 H1          85.6320   155.2620    14.0950 hn         1 LIG       0.156892
     11 C8          83.7160   156.0200    13.5610 c2         1 LIG       0.148464
     12 C9          84.2160   156.7420    12.3700 c          1 LIG       0.273184
     13 C10         83.4700   156.9160    14.7300 c1         1 LIG      -0.035393
     14 O2          83.7780   156.4720    11.2260 o          1 LIG      -0.269211
     15 N2          85.2020   157.7430    12.5590 ns         1 LIG      -0.238882
     16 C11         84.7580   157.6380    15.0640 c1         1 LIG      -0.000226
     17 C12         85.3850   158.2600    13.8890 c          1 LIG       0.294629
     18 O3          86.1070   159.2770    14.0470 o          1 LIG      -0.261703
     19 H2          85.7420   158.0730    11.8050 hn         1 LIG       0.160021
     20 C13         87.6910   150.3330    12.8610 c1         1 LIG       0.101513
     21 S1          89.0930   151.6670    11.1330 s6         1 LIG      -0.025336
     22 O4          90.4810   152.2400    10.9000 o          1 LIG      -0.465554
     23 O5          88.0630   152.7320    11.0140 o          1 LIG      -0.465554
     24 N3          88.9810   150.9130    12.6540 n3         1 LIG       0.091633
     25 C14         88.7590   150.4180     9.8800 c1         1 LIG       0.463902
     26 C15         89.9950   149.9430    12.9210 c1         1 LIG       0.174593
     27 C16         89.6530   149.2110    10.1970 c1         1 LIG       0.148442
     28 C17         91.1550   149.9160    11.9820 c1         1 LIG       0.047676
     29 N4          90.8950   149.7360    10.6310 ny         1 LIG       0.410144
     30 H3          90.9940   150.6510    10.1910 hn         1 LIG       0.227861
     31 H4          91.5550   149.0040    10.3680 hn         1 LIG       0.227861
@<TRIPOS>BOND
     1    21    22 2   
     2    21    23 2   
     3    21    24 1   
     4    21    25 1   
     5    24    26 1   
     6    24    20 1   
     7    25    27 1   
     8    26    28 1   
     9    20     1 1   
    10    27    29 1   
    11    28    29 1   
    12     1     2 2   
    13     1     3 1   
    14    29    30 1   
    15    29    31 1   
    16     2     4 1   
    17     3     5 2   
    18     4     7 1   
    19     4     6 2   
    20     5     6 1   
    21     7     8 2   
    22     7     9 1   
    23     9    10 1   
    24    11     9 1   
    25    11    12 1   
    26    11    13 1   
    27    12    14 2   
    28    12    15 1   
    29    13    16 1   
    30    15    17 1   
    31    15    19 1   
    32    16    17 1   
    33    17    18 2   
@<TRIPOS>SUBSTRUCTURE
     1 LIG         1 TEMP              0 ****  ****    0 ROOT
