@<TRIPOS>MOLECULE
LIG
   36    38     1     0     0
SMALL
gas


@<TRIPOS>ATOM
      1 C1          83.9110   150.6300    13.5020 ce         1 LIG       0.137243
      2 C2          84.2540   151.9610    13.5410 c1         1 LIG      -0.070903
      3 C3          82.7220   150.2460    14.0610 c1         1 LIG      -0.034370
      4 C4          83.4630   152.9220    14.1120 ce         1 LIG       0.132225
      5 C5          81.8950   151.1600    14.6420 c1         1 LIG      -0.015502
      6 C6          82.2720   152.5010    14.6650 c1         1 LIG      -0.039159
      7 C7          83.7930   154.3260    14.1740 c          1 LIG       0.264307
      8 O1          82.9120   155.2200    13.9160 o          1 LIG      -0.270071
      9 N1          85.0700   154.8120    14.5110 ns         1 LIG      -0.268731
     10 H1          85.7850   154.1680    14.7170 hn         1 LIG       0.156888
     11 C8          85.3730   156.2490    14.5670 c2         1 LIG       0.148463
     12 C9          85.6200   156.7220    13.1810 c          1 LIG       0.273186
     13 C10         84.1570   157.0310    15.0720 c1         1 LIG      -0.035395
     14 O2          85.9640   155.9670    12.2380 o          1 LIG      -0.269204
     15 N2          85.4500   158.1120    12.9350 ns         1 LIG      -0.238886
     16 C11         84.6770   158.4450    15.3410 c1         1 LIG      -0.000228
     17 C12         85.1560   158.9780    14.0300 c          1 LIG       0.294631
     18 O3          85.2900   160.2260    13.9290 o          1 LIG      -0.261697
     19 H2          85.5340   158.4710    12.0230 hn         1 LIG       0.160017
     20 C13         84.7900   149.6500    12.8870 c1         1 LIG       0.101345
     21 S1          87.1440   150.2290    11.7440 s6         1 LIG      -0.028515
     22 O4          86.4490   150.5080    10.4530 o          1 LIG      -0.465650
     23 O5          88.0510   149.0320    11.4550 o          1 LIG      -0.465650
     24 N3          86.1630   149.8300    13.0290 n3         1 LIG       0.088183
     25 C14         88.2570   151.5770    12.0680 c1         1 LIG       0.433341
     26 C15         86.8510   149.2900    14.1330 c1         1 LIG       0.144172
     27 C16         89.3860   151.1820    12.9820 c1         1 LIG       0.153109
     28 C17         87.7270   150.3620    14.7890 c1         1 LIG       0.052151
     29 N4          88.9920   150.3700    14.0890 n          1 LIG      -0.117977
     30 C18         89.9520   149.4420    14.5840 c          1 LIG       0.380288
     31 O6          89.7130   148.6810    15.5510 o          1 LIG      -0.239973
     32 O7          91.2050   149.3580    13.9920 os         1 LIG      -0.254529
     33 C19         91.6930   148.0990    13.5690 c3         1 LIG       0.262975
     34 C20         92.1210   147.2460    14.7480 c1         1 LIG      -0.035361
     35 C21         90.5770   147.3940    12.8490 c1         1 LIG      -0.035361
     36 C22         92.8310   148.3450    12.6130 c1         1 LIG      -0.035361
@<TRIPOS>BOND
     1    21    22 2   
     2    21    23 2   
     3    21    24 1   
     4    21    25 1   
     5    24    26 1   
     6    24    20 1   
     7    25    27 1   
     8    26    28 1   
     9    20     1 1   
    10    27    29 1   
    11    28    29 1   
    12     1     2 2   
    13     1     3 1   
    14    29    30 1   
    15     2     4 1   
    16     3     5 2   
    17    30    31 2   
    18    30    32 1   
    19     4     7 1   
    20     4     6 2   
    21     5     6 1   
    22    32    33 1   
    23     7     8 2   
    24     7     9 1   
    25    33    34 1   
    26    33    35 1   
    27    33    36 1   
    28     9    10 1   
    29    11     9 1   
    30    11    12 1   
    31    11    13 1   
    32    12    14 2   
    33    12    15 1   
    34    13    16 1   
    35    15    17 1   
    36    15    19 1   
    37    16    17 1   
    38    17    18 2   
@<TRIPOS>SUBSTRUCTURE
     1 LIG         1 TEMP              0 ****  ****    0 ROOT
