@<TRIPOS>MOLECULE
LIG
   37    40     1     0     0
SMALL
gas


@<TRIPOS>ATOM
      1 C1          83.2330   150.3560    17.5870 ce         1 LIG       0.137243
      2 C2          83.1150   149.3590    18.5420 c1         1 LIG      -0.070903
      3 C3          82.0500   151.0140    17.2650 c1         1 LIG      -0.034370
      4 C4          81.9450   149.0100    19.1490 ce         1 LIG       0.132225
      5 C5          80.8640   150.6790    17.8640 c1         1 LIG      -0.015502
      6 C6          80.7980   149.6630    18.8220 c1         1 LIG      -0.039159
      7 C7          81.9150   147.9440    20.1400 c          1 LIG       0.264307
      8 O1          82.9210   147.1550    20.2730 o          1 LIG      -0.270071
      9 N1          80.8330   147.6830    21.0110 ns         1 LIG      -0.268731
     10 H1          80.0390   148.2610    20.9500 hn         1 LIG       0.156888
     11 C8          80.8240   146.6060    21.9960 c2         1 LIG       0.148463
     12 C9          80.9770   147.2110    23.3250 c          1 LIG       0.273186
     13 C10         79.5170   145.8770    21.8270 c1         1 LIG      -0.035395
     14 O2          82.0330   147.0650    23.9780 o          1 LIG      -0.269204
     15 N2          79.8820   147.9690    23.8430 ns         1 LIG      -0.238886
     16 C11         78.3670   146.4850    22.5490 c1         1 LIG      -0.000228
     17 C12         78.6310   147.7840    23.1860 c          1 LIG       0.294631
     18 O3          77.8080   148.7430    23.1790 o          1 LIG      -0.261697
     19 H2          79.9850   148.5810    24.6070 hn         1 LIG       0.160017
     20 C13         84.5290   150.6810    16.9700 c1         1 LIG       0.101345
     21 S1          85.6630   151.1920    14.6450 s6         1 LIG      -0.028516
     22 O4          85.6150   149.9320    13.8120 o          1 LIG      -0.465650
     23 O5          86.9690   151.0370    15.4450 o          1 LIG      -0.465650
     24 N3          84.4270   151.3660    15.7310 n3         1 LIG       0.088182
     25 C14         85.9010   152.5830    13.6100 c1         1 LIG       0.433281
     26 C15         83.1960   151.9430    15.4360 c1         1 LIG       0.144111
     27 C16         85.3350   153.8780    14.1750 c1         1 LIG       0.151465
     28 C17         83.0180   152.6720    14.1580 c1         1 LIG       0.050421
     29 N4          83.8790   153.8480    14.1040 n          1 LIG      -0.136954
     30 C18         83.2760   155.1100    13.9650 c          1 LIG       0.297117
     31 O6          82.0140   155.1900    13.8990 o          1 LIG      -0.266977
     32 C19         83.9940   156.3760    13.8850 ce         1 LIG       0.189068
     33 N5          84.4940   156.8160    12.6950 nf         1 LIG      -0.181990
     34 C20         84.1710   157.1380    15.0150 c1         1 LIG      -0.026049
     35 C21         85.1510   157.9690    12.6040 c1         1 LIG       0.049553
     36 C22         84.8470   158.3390    14.9660 c1         1 LIG      -0.006110
     37 C23         85.3370   158.7490    13.7450 c1         1 LIG       0.010543
@<TRIPOS>BOND
     1    21    22 2   
     2    21    23 2   
     3    21    24 1   
     4    21    25 1   
     5    24    26 1   
     6    24    20 1   
     7    25    27 1   
     8    26    28 1   
     9    20     1 1   
    10    27    29 1   
    11    28    29 1   
    12     1     2 2   
    13     1     3 1   
    14    29    30 1   
    15     2     4 1   
    16     3     5 2   
    17    30    31 2   
    18    30    32 1   
    19     4     7 1   
    20     4     6 2   
    21     5     6 1   
    22    32    33 2   
    23    32    34 1   
    24     7     8 2   
    25     7     9 1   
    26    33    35 1   
    27    34    36 2   
    28     9    10 1   
    29    35    37 2   
    30    36    37 1   
    31    11     9 1   
    32    11    12 1   
    33    11    13 1   
    34    12    14 2   
    35    12    15 1   
    36    13    16 1   
    37    15    17 1   
    38    15    19 1   
    39    16    17 1   
    40    17    18 2   
@<TRIPOS>SUBSTRUCTURE
     1 LIG         1 TEMP              0 ****  ****    0 ROOT
