@<TRIPOS>MOLECULE
LIG
   31    34     1     0     0
SMALL
gas


@<TRIPOS>ATOM
      1 C1          84.1780   154.9180    14.4080 ce         1 LIG       0.144591
      2 C2          84.9230   153.8050    14.7580 c1         1 LIG      -0.075482
      3 C3          82.8180   154.8770    14.1960 c1         1 LIG      -0.035763
      4 C4          84.3040   152.5970    14.9070 ca         1 LIG       0.061672
      5 C5          82.1840   153.6450    14.3470 c1         1 LIG      -0.056125
      6 C6          82.9320   152.5450    14.6950 ca         1 LIG       0.066932
      7 C7          84.6950   151.2030    15.2590 ca         1 LIG       0.092255
      8 C8          82.5170   151.1340    14.9160 ca         1 LIG       0.092798
      9 N1          83.7280   150.4660    14.4730 n          1 LIG      -0.207859
     10 C9          84.1260   150.9620    16.6430 ca         1 LIG       0.127121
     11 C10         82.6160   150.8960    16.4060 ca         1 LIG       0.127143
     12 C11         83.8220   149.4250    13.5520 c          1 LIG       0.365526
     13 O1          84.5850   149.7740    17.1960 oh         1 LIG      -0.356655
     14 O2          81.9960   151.9380    17.0690 oh         1 LIG      -0.356655
     15 O3          84.9630   148.9300    13.2560 o          1 LIG      -0.241377
     16 H1          84.3520   149.0350    16.6120 ho         1 LIG       0.218452
     17 H2          82.3870   152.7800    16.7840 ho         1 LIG       0.218452
     18 O4          85.1360   155.9250    11.9870 o          1 LIG      -0.252099
     19 C12         85.0490   156.7020    12.9730 c          1 LIG       0.324954
     20 N2          84.8240   156.1690    14.2540 n          1 LIG      -0.165321
     21 N3          85.1750   158.1130    12.8230 ns         1 LIG      -0.226954
     22 C13         85.2690   156.9330    15.4130 c1         1 LIG       0.021911
     23 C14         85.0640   158.9080    13.9920 c          1 LIG       0.296822
     24 C15         84.6770   158.3240    15.3050 c1         1 LIG       0.014545
     25 O5          85.2900   160.1410    13.9530 o          1 LIG      -0.261606
     26 H3          85.3340   158.5210    11.9410 hn         1 LIG       0.161345
     27 O6          82.7480   148.8520    12.8990 os         1 LIG      -0.255470
     28 C16         81.9040   147.8890    13.4650 c3         1 LIG       0.262931
     29 C17         81.5840   146.7590    12.5210 c1         1 LIG      -0.035362
     30 C18         82.6120   147.2890    14.6620 c1         1 LIG      -0.035362
     31 C19         80.5980   148.4740    13.9570 c1         1 LIG      -0.035362
@<TRIPOS>BOND
     1    18    19 2   
     2    19    20 1   
     3    19    21 1   
     4    20     1 1   
     5    20    22 1   
     6    21    23 1   
     7    21    26 1   
     8     1     2 2   
     9     1     3 1   
    10    22    24 1   
    11    23    25 2   
    12    23    24 1   
    13     2     4 1   
    14     3     5 2   
    15     4     6 ar  
    16     5     6 1   
    17     7     4 ar  
    18     7     9 1   
    19     7    10 ar  
    20     8     6 ar  
    21     8    11 ar  
    22     8     9 1   
    23     9    12 1   
    24    10    13 1   
    25    10    11 ar  
    26    11    14 1   
    27    12    15 2   
    28    12    27 1   
    29    13    16 1   
    30    14    17 1   
    31    27    28 1   
    32    28    29 1   
    33    28    30 1   
    34    28    31 1   
@<TRIPOS>SUBSTRUCTURE
     1 LIG         1 TEMP              0 ****  ****    0 ROOT
