@<TRIPOS>MOLECULE
LIG
   39    42     1     0     0
SMALL
gas


@<TRIPOS>ATOM
      1 C1          83.8030   149.5550    16.3000 c1         1 LIG       0.101345
      2 S1          81.9130   149.6110    18.1660 s6         1 LIG      -0.028516
      3 O1          82.0830   148.4720    19.1440 o          1 LIG      -0.465650
      4 O2          82.7970   150.7360    18.7060 o          1 LIG      -0.465650
      5 N1          82.4900   149.1640    16.6560 n3         1 LIG       0.088182
      6 C2          80.2450   150.1360    18.2490 c1         1 LIG       0.433299
      7 C3          81.5720   148.8730    15.6260 c1         1 LIG       0.144129
      8 C4          79.3140   149.4460    17.2980 c1         1 LIG       0.151968
      9 C5          80.6780   150.0190    15.2070 c1         1 LIG       0.050924
     10 N2          79.4470   149.9260    15.9440 n          1 LIG      -0.130741
     11 C6          78.2930   150.3530    15.2460 c          1 LIG       0.329990
     12 O3          78.4020   150.7690    14.0730 o          1 LIG      -0.258232
     13 C7          76.9410   150.3220    15.8740 c1         1 LIG       0.083666
     14 O4          77.0080   150.3310    17.2650 os         1 LIG      -0.245315
     15 C8          76.2090   151.0420    18.1330 ce         1 LIG       0.194724
     16 C9          74.8790   151.3130    17.9510 c1         1 LIG      -0.016850
     17 C10         76.8050   151.5300    19.2990 c1         1 LIG      -0.016850
     18 C11         74.1710   152.0370    18.8860 c1         1 LIG      -0.006061
     19 C12         76.1010   152.2540    20.2350 c1         1 LIG      -0.006061
     20 C13         74.7630   152.5230    20.0440 c1         1 LIG      -0.001112
     21 C14         83.8600   150.4650    15.1260 ce         1 LIG       0.137243
     22 C15         84.1230   151.8190    15.2660 c1         1 LIG      -0.070903
     23 C16         83.6460   149.9090    13.8830 c1         1 LIG      -0.034370
     24 C17         84.1830   152.6710    14.1740 ce         1 LIG       0.132225
     25 C18         83.7030   150.7420    12.7860 c1         1 LIG      -0.015502
     26 C19         83.9650   152.0860    12.9440 c1         1 LIG      -0.039159
     27 C20         84.4550   154.0910    14.2930 c          1 LIG       0.264307
     28 O5          85.2240   154.4670    15.2180 o          1 LIG      -0.270071
     29 N3          83.9310   155.0900    13.4580 ns         1 LIG      -0.268731
     30 H1          83.3300   154.8060    12.7320 hn         1 LIG       0.156888
     31 C21         84.2060   156.5040    13.5830 c2         1 LIG       0.148463
     32 C22         85.4420   156.9110    12.8830 c          1 LIG       0.273186
     33 C23         84.3910   156.8240    15.0500 c1         1 LIG      -0.035395
     34 O6          86.1270   156.1630    12.1410 o          1 LIG      -0.269204
     35 N4          85.8650   158.2610    13.0850 ns         1 LIG      -0.238886
     36 C24         84.7630   158.2400    15.3180 c1         1 LIG      -0.000228
     37 C25         85.2350   158.9930    14.1310 c          1 LIG       0.294631
     38 O7          85.1060   160.2360    14.0070 o          1 LIG      -0.261697
     39 H2          86.5630   158.6690    12.5230 hn         1 LIG       0.160017
@<TRIPOS>BOND
     1     2     3 2   
     2     2     4 2   
     3     2     5 1   
     4     2     6 1   
     5     5     7 1   
     6     5     1 1   
     7     6     8 1   
     8     7     9 1   
     9     1    21 1   
    10     8    10 1   
    11     9    10 1   
    12    21    22 2   
    13    21    23 1   
    14    10    11 1   
    15    22    24 1   
    16    23    25 2   
    17    11    12 2   
    18    11    13 1   
    19    24    27 1   
    20    24    26 2   
    21    25    26 1   
    22    13    14 1   
    23    27    28 2   
    24    27    29 1   
    25    14    15 1   
    26    29    30 1   
    27    15    16 2   
    28    15    17 1   
    29    31    29 1   
    30    31    32 1   
    31    31    33 1   
    32    16    18 1   
    33    17    19 2   
    34    32    34 2   
    35    32    35 1   
    36    33    36 1   
    37    18    20 2   
    38    19    20 1   
    39    35    37 1   
    40    35    39 1   
    41    36    37 1   
    42    37    38 2   
@<TRIPOS>SUBSTRUCTURE
     1 LIG         1 TEMP              0 ****  ****    0 ROOT
