@<TRIPOS>MOLECULE
LIG
   36    38     1     0     0
SMALL
gas


@<TRIPOS>ATOM
      1 C1          82.4100   150.3830    15.6560 ce         1 LIG       0.137246
      2 C2          83.4160   151.2700    15.3570 c1         1 LIG      -0.070901
      3 C3          81.1050   150.8580    15.6710 c1         1 LIG      -0.034369
      4 C4          83.2030   152.6030    15.0710 ce         1 LIG       0.132228
      5 C5          80.8590   152.1800    15.3900 c1         1 LIG      -0.015503
      6 C6          81.9060   153.0570    15.0890 c1         1 LIG      -0.039159
      7 C7          84.3090   153.5000    14.7620 c          1 LIG       0.264304
      8 O1          85.4830   153.2340    15.1850 o          1 LIG      -0.270077
      9 N1          84.1720   154.6760    14.0070 ns         1 LIG      -0.268729
     10 H1          83.2880   154.9300    13.6560 hn         1 LIG       0.156892
     11 C8          85.3240   155.5250    13.7370 c2         1 LIG       0.148464
     12 C9          85.0980   156.3630    12.5420 c          1 LIG       0.273184
     13 C10         85.5300   156.3630    14.9840 c1         1 LIG      -0.035393
     14 O2          84.9130   155.8150    11.4360 o          1 LIG      -0.269211
     15 N2          85.0860   157.7770    12.6200 ns         1 LIG      -0.238882
     16 C11         84.5380   157.5170    15.0310 c1         1 LIG      -0.000226
     17 C12         84.8440   158.3970    13.8760 c          1 LIG       0.294629
     18 O3          84.8800   159.6420    14.0270 o          1 LIG      -0.261703
     19 H2          85.2440   158.3220    11.8150 hn         1 LIG       0.160021
     20 C13         82.7010   148.9440    15.9560 c1         1 LIG       0.101347
     21 S1          85.1000   147.9340    16.1240 s6         1 LIG      -0.028508
     22 O4          84.9600   148.2980    17.5740 o          1 LIG      -0.465648
     23 O5          85.1720   146.4260    16.0610 o          1 LIG      -0.465648
     24 N3          83.8120   148.4880    15.2410 n3         1 LIG       0.088168
     25 C14         86.6730   148.5410    15.5790 c1         1 LIG       0.433285
     26 C15         83.7840   148.3950    13.8540 c1         1 LIG       0.144133
     27 C16         86.3870   149.8670    14.9040 c1         1 LIG       0.152068
     28 C17         85.0810   148.5040    13.1210 c1         1 LIG       0.051025
     29 N4          85.9270   149.5750    13.5710 n          1 LIG      -0.128374
     30 C18         86.3750   150.4770    12.5830 c          1 LIG       0.349871
     31 O6          86.0220   150.3010    11.3710 o          1 LIG      -0.255073
     32 C19         87.2440   151.6410    12.8480 c1         1 LIG       0.057912
     33 N5          87.9290   152.1140    11.6870 nx         1 LIG       0.476636
     34 C20         89.2840   151.6790    11.5580 c1         1 LIG       0.088759
     35 C21         87.6950   153.4840    11.3610 c1         1 LIG       0.088759
     36 H3          87.4630   151.6170    10.9290 hn         1 LIG       0.248473
@<TRIPOS>BOND
     1    21    22 2   
     2    21    23 2   
     3    21    24 1   
     4    21    25 1   
     5    24    26 1   
     6    24    20 1   
     7    25    27 1   
     8    26    28 1   
     9    20     1 1   
    10    27    29 1   
    11    28    29 1   
    12     1     2 2   
    13     1     3 1   
    14    29    30 1   
    15     2     4 1   
    16     3     5 2   
    17    30    31 2   
    18    30    32 1   
    19     4     7 1   
    20     4     6 2   
    21     5     6 1   
    22    32    33 1   
    23     7     8 2   
    24     7     9 1   
    25    33    34 1   
    26    33    35 1   
    27    33    36 1   
    28     9    10 1   
    29    11     9 1   
    30    11    12 1   
    31    11    13 1   
    32    12    14 2   
    33    12    15 1   
    34    13    16 1   
    35    15    17 1   
    36    15    19 1   
    37    16    17 1   
    38    17    18 2   
@<TRIPOS>SUBSTRUCTURE
     1 LIG         1 TEMP              0 ****  ****    0 ROOT
