Int-B2
     RDKit          2D

 19 21  0  0  0  0  0  0  0  0999 V2000
    3.4368    4.3878    0.0000 C   0  0  0  0  0  0  0  0  0  0  0  0
    3.1837    2.9093    0.0000 C   0  0  0  0  0  0  0  0  0  0  0  0
    1.7768    2.3892    0.0000 C   0  0  0  0  0  0  0  0  0  0  0  0
    0.6229    3.3476    0.0000 O   0  0  0  0  0  0  0  0  0  0  0  0
    1.5237    0.9107    0.0000 N   0  0  0  0  0  0  0  0  0  0  0  0
    0.1168    0.3906    0.0000 C   0  0  0  0  0  0  0  0  0  0  0  0
   -1.0371    1.3490    0.0000 C   0  0  0  0  0  0  0  0  0  0  0  0
   -2.4440    0.8289    0.0000 C   0  0  0  0  0  0  0  0  0  0  0  0
   -2.6971   -0.6496    0.0000 C   0  0  0  0  0  0  0  0  0  0  0  0
   -1.5432   -1.6080    0.0000 C   0  0  0  0  0  0  0  0  0  0  0  0
   -0.1362   -1.0879    0.0000 C   0  0  0  0  0  0  0  0  0  0  0  0
    1.0176   -2.0463    0.0000 C   0  0  0  0  0  0  0  0  0  0  0  0
    2.4712   -1.6761    0.0000 O   0  0  0  0  0  0  0  0  0  0  0  0
    3.2725   -2.9441    0.0000 C   0  0  0  0  0  0  0  0  0  0  0  0
    2.3141   -4.0980    0.0000 C   0  0  0  0  0  0  0  0  0  0  0  0
    0.9205   -3.5431    0.0000 O   0  0  0  0  0  0  0  0  0  0  0  0
   -4.1814   -0.8658    0.0000 O   0  0  0  0  0  0  0  0  0  0  0  0
   -4.8457    0.4791    0.0000 C   0  0  0  0  0  0  0  0  0  0  0  0
   -3.7720    1.5265    0.0000 O   0  0  0  0  0  0  0  0  0  0  0  0
  1  2  2  0
  2  3  1  0
  3  4  2  0
  3  5  1  0
  5  6  1  0
  6  7  2  0
  7  8  1  0
  8  9  2  0
  9 10  1  0
 10 11  2  0
 11 12  1  0
 12 13  1  0
 13 14  1  0
 14 15  1  0
 15 16  1  0
  9 17  1  0
 17 18  1  0
 18 19  1  0
 11  6  1  0
 19  8  1  0
 16 12  1  0
M  END
