Int-A2
     RDKit          2D

 25 27  0  0  0  0  0  0  0  0999 V2000
    4.7139   -1.5967    0.0000 C   0  0  0  0  0  0  0  0  0  0  0  0
    3.2514   -1.9300    0.0000 C   0  0  0  0  0  0  0  0  0  0  0  0
    1.7889   -2.2633    0.0000 C   0  0  0  0  0  0  0  0  0  0  0  0
    3.5847   -3.3925    0.0000 C   0  0  0  0  0  0  0  0  0  0  0  0
    2.9180   -0.4675    0.0000 O   0  0  0  0  0  0  0  0  0  0  0  0
    1.4848   -0.0249    0.0000 C   0  0  0  0  0  0  0  0  0  0  0  0
    0.3849   -1.0448    0.0000 O   0  0  0  0  0  0  0  0  0  0  0  0
    1.1515    1.4376    0.0000 N   0  0  0  0  0  0  0  0  0  0  0  0
   -0.2817    1.8802    0.0000 C   0  0  0  0  0  0  0  0  0  0  0  0
   -1.3816    0.8603    0.0000 C   0  0  0  0  0  0  0  0  0  0  0  0
   -1.0483   -0.6022    0.0000 C   0  0  0  0  0  0  0  0  0  0  0  0
   -2.1482   -1.6221    0.0000 C   0  0  0  0  0  0  0  0  0  0  0  0
   -3.5814   -1.1795    0.0000 C   0  0  0  0  0  0  0  0  0  0  0  0
   -3.9147    0.2830    0.0000 C   0  0  0  0  0  0  0  0  0  0  0  0
   -2.8148    1.3029    0.0000 C   0  0  0  0  0  0  0  0  0  0  0  0
   -3.1481    2.7654    0.0000 N   0  0  0  0  0  4  0  0  0  0  0  0
   -2.0482    3.7853    0.0000 O   0  0  0  0  0  0  0  0  0  0  0  0
   -4.5813    3.2080    0.0000 O   0  0  0  0  0  1  0  0  0  0  0  0
   -4.4452   -2.4058    0.0000 O   0  0  0  0  0  0  0  0  0  0  0  0
   -3.5459   -3.6063    0.0000 C   0  0  0  0  0  0  0  0  0  0  0  0
   -2.1263   -3.1220    0.0000 O   0  0  0  0  0  0  0  0  0  0  0  0
    2.2514    2.4575    0.0000 C   0  0  0  0  0  0  0  0  0  0  0  0
    3.6846    2.0149    0.0000 C   0  0  0  0  0  0  0  0  0  0  0  0
    5.1471    2.3482    0.0000 C   0  0  0  0  0  0  0  0  0  0  0  0
    4.7046    0.9150    0.0000 C   0  0  0  0  0  0  0  0  0  0  0  0
  1  2  1  0
  2  3  1  0
  2  4  1  0
  2  5  1  0
  5  6  1  0
  6  7  2  0
  6  8  1  0
  8  9  1  0
  9 10  1  0
 10 11  2  0
 11 12  1  0
 12 13  2  0
 13 14  1  0
 14 15  2  0
 15 16  1  0
 16 17  2  0
 16 18  1  0
 13 19  1  0
 19 20  1  0
 20 21  1  0
  8 22  1  0
 22 23  1  0
 23 24  1  0
 24 25  1  0
 15 10  1  0
 25 23  1  0
 21 12  1  0
M  CHG  2  16   1  18  -1
M  END
