Int-C4
     RDKit          2D

 28 30  0  0  0  0  0  0  0  0999 V2000
    7.7686   -0.3721    0.0000 C   0  0  0  0  0  0  0  0  0  0  0  0
    6.6368   -1.3564    0.0000 C   0  0  0  0  0  0  0  0  0  0  0  0
    5.5050   -2.3408    0.0000 C   0  0  0  0  0  0  0  0  0  0  0  0
    7.6211   -2.4883    0.0000 C   0  0  0  0  0  0  0  0  0  0  0  0
    5.6524   -0.2246    0.0000 O   0  0  0  0  0  0  0  0  0  0  0  0
    4.1801   -0.5111    0.0000 C   0  0  0  0  0  0  0  0  0  0  0  0
    3.6920   -1.9295    0.0000 O   0  0  0  0  0  0  0  0  0  0  0  0
    3.1957    0.6207    0.0000 N   0  0  0  0  0  0  0  0  0  0  0  0
    1.7233    0.3341    0.0000 C   0  0  0  0  0  0  0  0  0  0  0  0
    0.7390    1.4660    0.0000 C   0  0  0  0  0  0  0  0  0  0  0  0
   -0.7334    1.1794    0.0000 C   0  0  0  0  0  0  0  0  0  0  0  0
   -1.2214   -0.2390    0.0000 O   0  0  0  0  0  0  0  0  0  0  0  0
   -1.7177    2.3112    0.0000 N   0  0  0  0  0  0  0  0  0  0  0  0
   -3.1901    2.0247    0.0000 C   0  0  0  0  0  0  0  0  0  0  0  0
   -3.6781    0.6063    0.0000 C   0  0  0  0  0  0  0  0  0  0  0  0
   -2.6938   -0.5255    0.0000 C   0  0  0  0  0  0  0  0  0  0  0  0
   -3.1818   -1.9439    0.0000 C   0  0  0  0  0  0  0  0  0  0  0  0
   -4.6542   -2.2305    0.0000 C   0  0  0  0  0  0  0  0  0  0  0  0
   -5.6385   -1.0987    0.0000 C   0  0  0  0  0  0  0  0  0  0  0  0
   -5.1505    0.3197    0.0000 C   0  0  0  0  0  0  0  0  0  0  0  0
   -6.1349    1.4516    0.0000 Br  0  0  0  0  0  0  0  0  0  0  0  0
   -4.8366   -3.7193    0.0000 O   0  0  0  0  0  0  0  0  0  0  0  0
   -3.4770   -4.3530    0.0000 C   0  0  0  0  0  0  0  0  0  0  0  0
   -2.4543   -3.2557    0.0000 O   0  0  0  0  0  0  0  0  0  0  0  0
   -1.2297    3.7296    0.0000 C   0  0  0  0  0  0  0  0  0  0  0  0
    0.2426    4.0162    0.0000 C   0  0  0  0  0  0  0  0  0  0  0  0
    1.3745    5.0006    0.0000 C   0  0  0  0  0  0  0  0  0  0  0  0
    1.6610    3.5282    0.0000 C   0  0  0  0  0  0  0  0  0  0  0  0
  1  2  1  0
  2  3  1  0
  2  4  1  0
  2  5  1  0
  5  6  1  0
  6  7  2  0
  6  8  1  0
  8  9  1  0
  9 10  1  0
 10 11  1  0
 11 12  2  0
 11 13  1  0
 13 14  1  0
 14 15  1  0
 15 16  2  0
 16 17  1  0
 17 18  2  0
 18 19  1  0
 19 20  2  0
 20 21  1  0
 18 22  1  0
 22 23  1  0
 23 24  1  0
 13 25  1  0
 25 26  1  0
 26 27  1  0
 27 28  1  0
 20 15  1  0
 28 26  1  0
 24 17  1  0
M  END
