Int-A1
     RDKit          2D

 18 20  0  0  0  0  0  0  0  0999 V2000
    0.2839    3.3433    0.0000 O   0  0  0  0  0  0  0  0  0  0  0  0
   -1.1265    2.8326    0.0000 N   0  0  0  0  0  4  0  0  0  0  0  0
   -2.2740    3.7986    0.0000 O   0  0  0  0  0  1  0  0  0  0  0  0
   -1.3893    1.3558    0.0000 C   0  0  0  0  0  0  0  0  0  0  0  0
   -2.7997    0.8450    0.0000 C   0  0  0  0  0  0  0  0  0  0  0  0
   -3.0626   -0.6317    0.0000 C   0  0  0  0  0  0  0  0  0  0  0  0
   -1.9151   -1.5978    0.0000 C   0  0  0  0  0  0  0  0  0  0  0  0
   -0.5047   -1.0870    0.0000 C   0  0  0  0  0  0  0  0  0  0  0  0
   -0.2418    0.3897    0.0000 C   0  0  0  0  0  0  0  0  0  0  0  0
    1.1685    0.9005    0.0000 C   0  0  0  0  0  0  0  0  0  0  0  0
    2.3160   -0.0656    0.0000 N   0  0  0  0  0  0  0  0  0  0  0  0
    3.7264    0.4452    0.0000 C   0  0  0  0  0  0  0  0  0  0  0  0
    4.8739   -0.5209    0.0000 C   0  0  0  0  0  0  0  0  0  0  0  0
    6.3507   -0.7837    0.0000 C   0  0  0  0  0  0  0  0  0  0  0  0
    5.3847   -1.9312    0.0000 C   0  0  0  0  0  0  0  0  0  0  0  0
   -2.4792   -2.9877    0.0000 O   0  0  0  0  0  0  0  0  0  0  0  0
   -3.9754   -2.8806    0.0000 C   0  0  0  0  0  0  0  0  0  0  0  0
   -4.3359   -1.4246    0.0000 O   0  0  0  0  0  0  0  0  0  0  0  0
  1  2  2  0
  2  3  1  0
  2  4  1  0
  4  5  2  0
  5  6  1  0
  6  7  2  0
  7  8  1  0
  8  9  2  0
  9 10  1  0
 10 11  1  0
 11 12  1  0
 12 13  1  0
 13 14  1  0
 14 15  1  0
  7 16  1  0
 16 17  1  0
 17 18  1  0
  9  4  1  0
 15 13  1  0
 18  6  1  0
M  CHG  2   2   1   3  -1
M  END
