EDS01357518
Actelion Java MolfileCreator 2.0

  0  0  0  0  0  0              0 V3000
M  V30 BEGIN CTAB
M  V30 COUNTS 33 36 0 0 0
M  V30 BEGIN ATOM
M  V30 1 S 0.0 0.0 0.0 0
M  V30 2 C 0.1421 1.5042 0.0 0
M  V30 3 C -1.4805 -0.2961 0.0 0
M  V30 4 C -1.2436 2.1319 0.0 0
M  V30 5 C 1.4331 2.2622 0.0 0
M  V30 6 N -2.2385 1.0186 0.0 0
M  V30 7 C -2.1083 -1.6582 0.0 0
M  V30 8 C -1.5634 3.6125 0.0 0
M  V30 9 N 2.7242 1.516 0.0 0
M  V30 10 C 4.0152 2.2741 0.0 0
M  V30 11 O 4.0034 3.7902 0.0 0
M  V30 12 C 5.3063 1.5279 0.0 0
M  V30 13 N 5.2944 0.0355 0.0 0
M  V30 14 C 6.5973 2.2859 0.0 0
M  V30 15 C 6.5855 -0.7106 0.0 0
M  V30 16 C 7.8883 1.5397 0.0 0
M  V30 17 C 7.8765 0.0473 0.0 0
M  V30 18 C 6.5736 -2.203 0.0 0 CFG=1
M  V30 19 O 5.2589 -2.9374 0.0 0
M  V30 20 C 7.8647 -2.9492 0.0 0
M  V30 21 C 5.247 -4.4298 0.0 0
M  V30 22 N 7.8528 -4.4416 0.0 0
M  V30 23 C 6.5381 -5.176 0.0 0
M  V30 24 C 9.1439 -5.1878 0.0 0
M  V30 25 O 9.132 -6.6802 0.0 0
M  V30 26 C 10.4349 -4.4298 0.0 0
M  V30 27 N 11.797 -5.0338 0.0 0
M  V30 28 C 10.577 -2.9255 0.0 0
M  V30 29 N 12.7919 -3.9086 0.0 0
M  V30 30 C 12.0931 -6.4907 0.0 0
M  V30 31 C 12.0339 -2.6057 0.0 0
M  V30 32 C 12.638 -1.2199 0.0 0
M  V30 33 C 11.7378 0.0118 0.0 0
M  V30 END ATOM
M  V30 BEGIN BOND
M  V30 1 1 1 2
M  V30 2 1 1 3
M  V30 3 2 2 4
M  V30 4 1 2 5
M  V30 5 2 3 6
M  V30 6 1 3 7
M  V30 7 1 4 8
M  V30 8 1 5 9
M  V30 9 1 9 10
M  V30 10 2 10 11
M  V30 11 1 10 12
M  V30 12 2 12 13
M  V30 13 1 12 14
M  V30 14 1 13 15
M  V30 15 2 14 16
M  V30 16 2 15 17
M  V30 17 1 18 15 CFG=3
M  V30 18 1 18 19
M  V30 19 1 18 20
M  V30 20 1 19 21
M  V30 21 1 20 22
M  V30 22 1 21 23
M  V30 23 1 22 24
M  V30 24 2 24 25
M  V30 25 1 24 26
M  V30 26 1 26 27
M  V30 27 2 26 28
M  V30 28 1 27 29
M  V30 29 1 27 30
M  V30 30 1 28 31
M  V30 31 1 31 32
M  V30 32 1 32 33
M  V30 33 1 4 6
M  V30 34 1 16 17
M  V30 35 1 22 23
M  V30 36 2 29 31
M  V30 END BOND
M  V30 BEGIN COLLECTION
M  V30 MDLV30/STERAC1 ATOMS=(1 18)
M  V30 END COLLECTION
M  V30 END CTAB
M  END
>  <ID>
EDS01357518

$$$$
EDS01806218
Actelion Java MolfileCreator 2.0

  0  0  0  0  0  0              0 V3000
M  V30 BEGIN CTAB
M  V30 COUNTS 33 38 0 0 0
M  V30 BEGIN ATOM
M  V30 1 S 0.0 0.0 0.0 0
M  V30 2 O 0.7272 1.2928 0.0 0
M  V30 3 O -0.7541 1.2928 0.0 0
M  V30 4 N 1.2659 -0.7272 0.0 0
M  V30 5 C -1.2928 -0.7272 0.0 0
M  V30 6 C 1.2524 -2.1951 0.0 0
M  V30 7 C 2.5318 0.0269 0.0 0
M  V30 8 C -2.5857 0.0269 0.0 0
M  V30 9 C -1.3063 -2.1951 0.0 0
M  V30 10 C 2.5184 -2.9224 0.0 0 CFG=2
M  V30 11 C 3.7978 -0.7003 0.0 0 CFG=1
M  V30 12 N -3.8786 -0.7003 0.0 0
M  V30 13 C -2.5992 -2.9224 0.0 0
M  V30 14 N 3.7843 -2.1682 0.0 0
M  V30 15 C 4.2153 -3.892 0.0 0
M  V30 16 C 5.4947 -1.6699 0.0 0
M  V30 17 C -3.892 -2.1682 0.0 0
M  V30 18 C 4.9425 -2.8281 0.0 0
M  V30 19 C 4.2018 -5.36 0.0 0
M  V30 20 C 5.5485 -3.1783 0.0 0
M  V30 21 O 6.3296 -2.1413 0.0 0
M  V30 22 C 5.0368 -4.3634 0.0 0
M  V30 23 N 5.4677 -6.0872 0.0 0
M  V30 24 N 2.9089 -6.0872 0.0 0
M  V30 25 N 6.7471 -3.8651 0.0 0
M  V30 26 C 6.7337 -5.3331 0.0 0
M  V30 27 C 1.616 -5.3331 0.0 0
M  V30 28 C 7.9996 -6.0603 0.0 0
M  V30 29 C 0.3232 -6.0603 0.0 0
M  V30 30 C 8.7268 -7.3262 0.0 0
M  V30 31 C 9.4676 -6.0468 0.0 0
M  V30 32 C -1.1716 -6.0468 0.0 0
M  V30 33 C -0.4309 -7.3262 0.0 0
M  V30 END ATOM
M  V30 BEGIN BOND
M  V30 1 2 1 2
M  V30 2 2 1 3
M  V30 3 1 1 4
M  V30 4 1 1 5
M  V30 5 1 4 6
M  V30 6 1 4 7
M  V30 7 2 5 8
M  V30 8 1 5 9
M  V30 9 1 6 10
M  V30 10 1 7 11
M  V30 11 1 8 12
M  V30 12 2 9 13
M  V30 13 1 10 14
M  V30 14 1 10 15 CFG=3
M  V30 15 1 11 16 CFG=3
M  V30 16 2 12 17
M  V30 17 1 14 18
M  V30 18 2 15 19
M  V30 19 1 15 20
M  V30 20 2 18 21
M  V30 21 1 18 22
M  V30 22 1 19 23
M  V30 23 1 19 24
M  V30 24 2 20 25
M  V30 25 2 23 26
M  V30 26 1 24 27
M  V30 27 1 26 28
M  V30 28 1 27 29
M  V30 29 1 28 30
M  V30 30 1 28 31
M  V30 31 1 29 32
M  V30 32 1 29 33
M  V30 33 1 11 14
M  V30 34 1 13 17
M  V30 35 1 16 20
M  V30 36 1 25 26
M  V30 37 1 30 31
M  V30 38 1 32 33
M  V30 END BOND
M  V30 BEGIN COLLECTION
M  V30 MDLV30/STERAC1 ATOMS=(2 10 11)
M  V30 END COLLECTION
M  V30 END CTAB
M  END
>  <ID>
EDS01806218

$$$$
EDS01889984
Actelion Java MolfileCreator 2.0

  0  0  0  0  0  0              0 V3000
M  V30 BEGIN CTAB
M  V30 COUNTS 33 37 0 0 0
M  V30 BEGIN ATOM
M  V30 1 S 0.0 0.0 0.0 0
M  V30 2 C 0.7368 -1.2953 0.0 0
M  V30 3 C 0.9982 1.1289 0.0 0
M  V30 4 C 2.1985 -0.9744 0.0 0
M  V30 5 C 2.3649 0.5228 0.0 0
M  V30 6 O 3.3037 -1.9727 0.0 0
M  V30 7 C 3.6602 1.2834 0.0 0
M  V30 8 C 2.9828 -3.4344 0.0 0
M  V30 9 O 3.6483 2.8046 0.0 0
M  V30 10 N 4.9556 0.5347 0.0 0
M  V30 11 C 6.251 1.2953 0.0 0
M  V30 12 C 4.9437 -0.9626 0.0 0
M  V30 13 C 7.5463 0.5466 0.0 0
M  V30 14 C 6.2391 -1.6994 0.0 0
M  V30 15 C 7.5344 -0.9507 0.0 0
M  V30 16 C 8.8298 -1.6994 0.0 0
M  V30 17 N 10.1251 -0.9269 0.0 0
M  V30 18 C 8.8179 -3.1968 0.0 0
M  V30 19 C 11.4205 -1.6756 0.0 0
M  V30 20 C 10.1133 -3.9336 0.0 0
M  V30 21 C 7.6889 -4.195 0.0 0
M  V30 22 N 11.4086 -3.173 0.0 0
M  V30 23 N 12.7159 -0.915 0.0 0
M  V30 24 N 9.7924 -5.3953 0.0 0
M  V30 25 C 8.295 -5.5617 0.0 0
M  V30 26 C 13.9518 -1.7588 0.0 0
M  V30 27 C 12.597 0.606 0.0 0
M  V30 28 C 10.7907 -6.5005 0.0 0
M  V30 29 C 15.3779 -1.3072 0.0 0
M  V30 30 C 13.6904 1.6399 0.0 0
M  V30 31 O 16.388 -2.4005 0.0 0
M  V30 32 N 15.9127 0.1069 0.0 0
M  V30 33 C 15.1759 1.426 0.0 0
M  V30 END ATOM
M  V30 BEGIN BOND
M  V30 1 1 1 2
M  V30 2 1 1 3
M  V30 3 2 2 4
M  V30 4 2 3 5
M  V30 5 1 4 6
M  V30 6 1 5 7
M  V30 7 1 6 8
M  V30 8 2 7 9
M  V30 9 1 7 10
M  V30 10 1 10 11
M  V30 11 1 10 12
M  V30 12 1 11 13
M  V30 13 1 12 14
M  V30 14 1 13 15
M  V30 15 1 15 16
M  V30 16 2 16 17
M  V30 17 1 16 18
M  V30 18 1 17 19
M  V30 19 2 18 20
M  V30 20 1 18 21
M  V30 21 2 19 22
M  V30 22 1 19 23
M  V30 23 1 20 24
M  V30 24 2 21 25
M  V30 25 1 23 26
M  V30 26 1 23 27
M  V30 27 1 24 28
M  V30 28 1 26 29
M  V30 29 1 27 30
M  V30 30 2 29 31
M  V30 31 1 29 32
M  V30 32 1 30 33
M  V30 33 1 4 5
M  V30 34 1 14 15
M  V30 35 1 20 22
M  V30 36 1 24 25
M  V30 37 1 32 33
M  V30 END BOND
M  V30 END CTAB
M  END
>  <ID>
EDS01889984

$$$$
